DMD.pdb
     RDKit          3D

 25 24  0  0  1  0  0  0  0  0999 V2000
   14.8145  -12.8822  -14.9229 N   0  0  0  0  0  0  0  0  0  0  0  0
   14.9175  -11.4476  -15.1636 C   0  0  1  0  0  0  0  0  0  0  0  0
   13.4982  -10.8795  -15.0081 C   0  0  0  0  0  0  0  0  0  0  0  0
   12.7202  -11.4400  -16.1333 C   0  0  0  0  0  0  0  0  0  0  0  0
   11.6347  -12.0612  -15.9580 O   0  0  0  0  0  0  0  0  0  0  0  0
   15.7920  -10.8225  -14.1452 C   0  0  0  0  0  0  0  0  0  0  0  0
   15.7260  -11.1334  -12.9321 O   0  0  0  0  0  0  0  0  0  0  0  0
   13.1643  -11.2998  -17.4594 O   0  0  0  0  0  0  0  0  0  0  0  0
   23.0203   -8.1469  -13.4268 C   0  0  0  0  0  0  0  0  0  0  0  0
   21.6660   -8.9698  -14.3502 S   0  0  0  0  0  0  0  0  0  0  0  0
   20.0878   -8.6192  -13.4554 C   0  0  0  0  0  0  0  0  0  0  0  0
   18.9906   -9.3382  -14.1635 C   0  0  0  0  0  0  0  0  0  0  0  0
   17.6189   -9.1765  -13.6005 C   0  0  2  0  0  0  0  0  0  0  0  0
   16.7189   -9.8543  -14.5577 N   0  0  0  0  0  0  0  0  0  0  0  0
   17.1411   -7.7813  -13.4979 C   0  0  0  0  0  0  0  0  0  0  0  0
   16.8173   -7.1155  -14.5499 O   0  0  0  0  0  0  0  0  0  0  0  0
   16.9974   -7.0749  -12.2650 N   0  0  0  0  0  0  0  0  0  0  0  0
   16.6946   -5.6563  -12.2805 C   0  0  1  0  0  0  0  0  0  0  0  0
   16.0461   -5.2472  -10.9525 C   0  0  0  0  0  0  0  0  0  0  0  0
   15.7232   -3.8213  -10.8773 C   0  0  0  0  0  0  0  0  0  0  0  0
   15.3485   -3.1563  -11.8556 O   0  0  0  0  0  0  0  0  0  0  0  0
   17.8773   -4.8174  -12.4927 C   0  0  0  0  0  0  0  0  0  0  0  0
   17.6956   -3.5536  -13.0478 O   0  0  0  0  0  0  0  0  0  0  0  0
   15.8417   -3.1706   -9.6559 O   0  0  0  0  0  0  0  0  0  0  0  0
   19.0642   -5.1503  -12.2097 O   0  0  0  0  0  0  0  0  0  0  0  0
  2  1  1  1
  2  3  1  0
  2  6  1  0
  3  4  1  0
  4  8  1  0
  4  5  2  0
  6  7  2  0
 10 11  1  0
 10  9  1  0
 11 12  1  0
 13 12  1  6
 14  6  1  0
 14 13  1  0
 15 13  1  0
 15 16  2  0
 17 15  1  0
 18 17  1  0
 18 19  1  1
 20 19  1  0
 20 24  1  0
 21 20  2  0
 22 23  1  0
 22 18  1  0
 25 22  2  0
M  END
$$$$
