NGC.pdb
     RDKit          3D

 19 18  0  0  1  0  0  0  0  0999 V2000
   16.5099  -13.6484  -15.7443 N   0  0  0  0  0  0  0  0  0  0  0  0
   17.8791  -13.8700  -15.9812 C   0  0  0  0  0  0  0  0  0  0  0  0
   18.2181  -15.0892  -16.1855 O   0  0  0  0  0  0  0  0  0  0  0  0
   18.8687  -12.7694  -15.9950 C   0  0  0  0  0  0  0  0  0  0  0  0
   18.1936  -11.4301  -15.8219 C   0  0  2  0  0  0  0  0  0  0  0  0
   17.6113  -10.9645  -17.0488 N   0  0  0  0  0  0  0  0  0  0  0  0
   19.1420  -10.4755  -15.2113 C   0  0  0  0  0  0  0  0  0  0  0  0
   19.4157  -10.5341  -14.0102 O   0  0  0  0  0  0  0  0  0  0  0  0
   19.7792   -9.4430  -15.9876 N   0  0  0  0  0  0  0  0  0  0  0  0
   20.7417   -8.5534  -15.4126 C   0  0  0  0  0  0  0  0  0  0  0  0
   20.2631   -7.6330  -14.3945 C   0  0  0  0  0  0  0  0  0  0  0  0
   19.0981   -7.1354  -14.4984 O   0  0  0  0  0  0  0  0  0  0  0  0
   20.9841   -7.1968  -13.2327 N   0  0  0  0  0  0  0  0  0  0  0  0
   20.4208   -6.2407  -12.3067 C   0  0  1  0  0  0  0  0  0  0  0  0
   20.3731   -6.8769  -10.9389 C   0  0  0  0  0  0  0  0  0  0  0  0
   19.7618   -5.7325   -9.6782 S   0  0  0  0  0  0  0  0  0  0  0  0
   21.0753   -4.9405  -12.3149 C   0  0  0  0  0  0  0  0  0  0  0  0
   22.3385   -4.8880  -12.4501 O   0  0  0  0  0  0  0  0  0  0  0  0
   20.3967   -3.7658  -12.1866 O   0  0  0  0  0  0  0  0  0  0  0  0
  1  2  1  0
  2  3  2  0
  4  2  1  0
  4  5  1  0
  5  6  1  6
  7  5  1  0
  7  8  2  0
  9  7  1  0
 10  9  1  0
 10 11  1  0
 11 13  1  0
 12 11  2  0
 13 14  1  0
 14 17  1  0
 14 15  1  1
 16 15  1  0
 17 18  2  0
 17 19  1  0
M  END
$$$$
