NGC.pdb
     RDKit          3D

 19 18  0  0  1  0  0  0  0  0999 V2000
   26.2439  -17.2384  -19.1500 N   0  0  0  0  0  0  0  0  0  0  0  0
   25.4405  -18.1036  -18.3846 C   0  0  0  0  0  0  0  0  0  0  0  0
   24.1825  -17.8590  -18.4059 O   0  0  0  0  0  0  0  0  0  0  0  0
   26.0068  -19.2261  -17.6033 C   0  0  0  0  0  0  0  0  0  0  0  0
   25.6499  -19.1044  -16.1414 C   0  0  2  0  0  0  0  0  0  0  0  0
   26.2163  -17.9246  -15.5511 N   0  0  0  0  0  0  0  0  0  0  0  0
   26.0102  -20.3545  -15.4405 C   0  0  0  0  0  0  0  0  0  0  0  0
   25.5979  -21.4463  -15.8391 O   0  0  0  0  0  0  0  0  0  0  0  0
   26.8496  -20.3490  -14.2701 N   0  0  0  0  0  0  0  0  0  0  0  0
   27.0498  -21.5259  -13.4807 C   0  0  0  0  0  0  0  0  0  0  0  0
   26.2132  -21.6794  -12.3020 C   0  0  0  0  0  0  0  0  0  0  0  0
   26.2148  -22.7838  -11.6729 O   0  0  0  0  0  0  0  0  0  0  0  0
   25.3429  -20.6866  -11.7390 N   0  0  0  0  0  0  0  0  0  0  0  0
   24.3081  -21.0359  -10.7926 C   0  0  1  0  0  0  0  0  0  0  0  0
   24.6068  -20.3420   -9.4860 C   0  0  0  0  0  0  0  0  0  0  0  0
   26.2905  -20.6705   -8.9115 S   0  0  0  0  0  0  0  0  0  0  0  0
   22.9535  -20.8033  -11.2720 C   0  0  0  0  0  0  0  0  0  0  0  0
   22.7862  -20.3452  -12.4462 O   0  0  0  0  0  0  0  0  0  0  0  0
   21.8452  -21.0563  -10.5205 O   0  0  0  0  0  0  0  0  0  0  0  0
  1  2  1  0
  2  3  2  0
  4  2  1  0
  4  5  1  0
  5  6  1  1
  7  5  1  0
  7  8  2  0
  9  7  1  0
 10  9  1  0
 10 11  1  0
 11 13  1  0
 12 11  2  0
 13 14  1  0
 14 17  1  0
 14 15  1  1
 16 15  1  0
 17 18  2  0
 17 19  1  0
M  END
$$$$
