NGC.pdb
     RDKit          3D

 19 18  0  0  1  0  0  0  0  0999 V2000
   22.2024  -22.1646  -13.0049 N   0  0  0  0  0  0  0  0  0  0  0  0
   22.8921  -20.9817  -12.6808 C   0  0  0  0  0  0  0  0  0  0  0  0
   22.2996  -20.2008  -11.8550 O   0  0  0  0  0  0  0  0  0  0  0  0
   24.2174  -20.6555  -13.2537 C   0  0  0  0  0  0  0  0  0  0  0  0
   24.6394  -21.6900  -14.2692 C   0  0  2  0  0  0  0  0  0  0  0  0
   24.9164  -22.9576  -13.6548 N   0  0  0  0  0  0  0  0  0  0  0  0
   25.7584  -21.1604  -15.0762 C   0  0  0  0  0  0  0  0  0  0  0  0
   25.5773  -20.2562  -15.8951 O   0  0  0  0  0  0  0  0  0  0  0  0
   27.0964  -21.6766  -14.9423 N   0  0  0  0  0  0  0  0  0  0  0  0
   28.1752  -21.1921  -15.7484 C   0  0  0  0  0  0  0  0  0  0  0  0
   27.8541  -20.1784  -16.7394 C   0  0  0  0  0  0  0  0  0  0  0  0
   27.1426  -20.4899  -17.7455 O   0  0  0  0  0  0  0  0  0  0  0  0
   28.2662  -18.8038  -16.7175 N   0  0  0  0  0  0  0  0  0  0  0  0
   27.8706  -17.8780  -17.7543 C   0  0  1  0  0  0  0  0  0  0  0  0
   27.3568  -16.6206  -17.0964 C   0  0  0  0  0  0  0  0  0  0  0  0
   25.9614  -16.9520  -15.9938 S   0  0  0  0  0  0  0  0  0  0  0  0
   28.8956  -17.6263  -18.7567 C   0  0  0  0  0  0  0  0  0  0  0  0
   30.0305  -18.1854  -18.6305 O   0  0  0  0  0  0  0  0  0  0  0  0
   28.6983  -16.8165  -19.8348 O   0  0  0  0  0  0  0  0  0  0  0  0
  1  2  1  0
  2  3  2  0
  4  2  1  0
  4  5  1  0
  5  6  1  1
  7  5  1  0
  7  8  2  0
  9  7  1  0
 10  9  1  0
 10 11  1  0
 11 13  1  0
 12 11  2  0
 13 14  1  0
 14 17  1  0
 14 15  1  1
 16 15  1  0
 17 18  2  0
 17 19  1  0
M  END
$$$$
