PSD.pdb
     RDKit          3D

 22 22  0  0  1  0  0  0  0  0999 V2000
   43.5313  -18.5067  -10.1695 N   0  0  0  0  0  0  0  0  0  0  0  0
   43.7182  -19.8890   -9.8105 C   0  0  0  0  0  0  0  0  0  0  0  0
   44.4257  -19.9393   -8.4969 C   0  0  0  0  0  0  0  0  0  0  0  0
   44.8931  -18.4923   -8.3222 C   0  0  0  0  0  0  0  0  0  0  0  0
   43.7005  -17.7650   -8.9582 C   0  0  1  0  0  0  0  0  0  0  0  0
   43.9766  -16.3368   -9.1676 C   0  0  0  0  0  0  0  0  0  0  0  0
   44.3154  -15.9681  -10.3216 O   0  0  0  0  0  0  0  0  0  0  0  0
   42.1853  -13.0573   -7.6533 O   0  0  0  0  0  0  0  0  0  0  0  0
   43.5233  -13.1526   -7.3139 C   0  0  0  0  0  0  0  0  0  0  0  0
   44.2302  -13.9535   -8.3871 C   0  0  2  0  0  0  0  0  0  0  0  0
   43.8891  -15.3417   -8.1624 N   0  0  0  0  0  0  0  0  0  0  0  0
   45.7001  -13.8184   -8.3013 C   0  0  0  0  0  0  0  0  0  0  0  0
   46.3364  -14.5757   -7.5334 O   0  0  0  0  0  0  0  0  0  0  0  0
   46.3799  -12.8404   -9.0817 N   0  0  0  0  0  0  0  0  0  0  0  0
   47.8316  -12.7187   -9.0711 C   0  0  1  0  0  0  0  0  0  0  0  0
   48.3120  -11.8102  -10.1804 C   0  0  0  0  0  0  0  0  0  0  0  0
   47.9759  -12.3264  -11.5115 C   0  0  0  0  0  0  0  0  0  0  0  0
   47.8501  -13.5793  -11.6306 O   0  0  0  0  0  0  0  0  0  0  0  0
   48.3489  -12.2141   -7.8069 C   0  0  0  0  0  0  0  0  0  0  0  0
   49.4446  -12.6168   -7.3625 O   0  0  0  0  0  0  0  0  0  0  0  0
   47.7840  -11.5728  -12.6464 O   0  0  0  0  0  0  0  0  0  0  0  0
   47.6378  -11.2834   -7.0794 O   0  0  0  0  0  0  0  0  0  0  0  0
  1  2  1  0
  3  2  1  0
  4  5  1  0
  4  3  1  0
  5  1  1  0
  5  6  1  6
  7  6  2  0
 10  9  1  1
  9  8  1  0
 10 12  1  0
 10 11  1  0
 11  6  1  0
 12 14  1  0
 13 12  2  0
 14 15  1  0
 15 19  1  0
 15 16  1  6
 17 21  1  0
 17 16  1  0
 18 17  2  0
 19 20  2  0
 19 22  1  0
M  END
$$$$
