PSD.pdb
     RDKit          3D

 22 22  0  0  1  0  0  0  0  0999 V2000
   22.2217  -11.0765  -17.7304 N   0  0  0  0  0  0  0  0  0  0  0  0
   22.5641  -12.3564  -18.2954 C   0  0  0  0  0  0  0  0  0  0  0  0
   21.3071  -13.1433  -18.4665 C   0  0  0  0  0  0  0  0  0  0  0  0
   20.2969  -12.3244  -17.6593 C   0  0  0  0  0  0  0  0  0  0  0  0
   20.8194  -10.9133  -17.9611 C   0  0  1  0  0  0  0  0  0  0  0  0
   20.1886   -9.8993  -17.1044 C   0  0  0  0  0  0  0  0  0  0  0  0
   18.9642   -9.6673  -17.2748 O   0  0  0  0  0  0  0  0  0  0  0  0
   21.6239   -8.8644  -13.5513 O   0  0  0  0  0  0  0  0  0  0  0  0
   20.2960   -8.6207  -13.8540 C   0  0  0  0  0  0  0  0  0  0  0  0
   20.2146   -8.1492  -15.2907 C   0  0  2  0  0  0  0  0  0  0  0  0
   20.8603   -9.1619  -16.0978 N   0  0  0  0  0  0  0  0  0  0  0  0
   20.9278   -6.8702  -15.4952 C   0  0  0  0  0  0  0  0  0  0  0  0
   22.1267   -6.8936  -15.8558 O   0  0  0  0  0  0  0  0  0  0  0  0
   20.2586   -5.6310  -15.2845 N   0  0  0  0  0  0  0  0  0  0  0  0
   20.9191   -4.3513  -15.5037 C   0  0  1  0  0  0  0  0  0  0  0  0
   19.9232   -3.2815  -15.8917 C   0  0  0  0  0  0  0  0  0  0  0  0
   20.5683   -1.9992  -16.1932 C   0  0  0  0  0  0  0  0  0  0  0  0
   21.8328   -1.9779  -16.2079 O   0  0  0  0  0  0  0  0  0  0  0  0
   21.6603   -3.8889  -14.3387 C   0  0  0  0  0  0  0  0  0  0  0  0
   21.2497   -4.1359  -13.1851 O   0  0  0  0  0  0  0  0  0  0  0  0
   19.9245   -0.8136  -16.4623 O   0  0  0  0  0  0  0  0  0  0  0  0
   22.8276   -3.1708  -14.4895 O   0  0  0  0  0  0  0  0  0  0  0  0
  1  2  1  0
  3  2  1  0
  4  5  1  0
  4  3  1  0
  5  1  1  0
  5  6  1  1
  7  6  2  0
 10  9  1  1
  9  8  1  0
 10 12  1  0
 10 11  1  0
 11  6  1  0
 12 14  1  0
 13 12  2  0
 14 15  1  0
 15 19  1  0
 15 16  1  1
 17 21  1  0
 17 16  1  0
 18 17  2  0
 19 20  2  0
 19 22  1  0
M  END
$$$$
