PSD.pdb
     RDKit          3D

 22 22  0  0  1  0  0  0  0  0999 V2000
   20.5567  -11.9221  -18.1550 N   0  0  0  0  0  0  0  0  0  0  0  0
   19.9977  -13.1498  -18.6598 C   0  0  0  0  0  0  0  0  0  0  0  0
   19.5138  -13.9550  -17.4996 C   0  0  0  0  0  0  0  0  0  0  0  0
   20.1378  -13.2212  -16.3101 C   0  0  0  0  0  0  0  0  0  0  0  0
   20.0437  -11.7794  -16.8274 C   0  0  1  0  0  0  0  0  0  0  0  0
   20.8090  -10.8447  -15.9902 C   0  0  0  0  0  0  0  0  0  0  0  0
   20.4316  -10.6781  -14.8019 O   0  0  0  0  0  0  0  0  0  0  0  0
   24.6163  -10.3094  -15.0572 O   0  0  0  0  0  0  0  0  0  0  0  0
   24.1159   -9.3187  -15.8834 C   0  0  0  0  0  0  0  0  0  0  0  0
   22.6388   -9.1576  -15.5918 C   0  0  2  0  0  0  0  0  0  0  0  0
   21.9437  -10.1154  -16.4245 N   0  0  0  0  0  0  0  0  0  0  0  0
   22.1505   -7.8049  -15.9358 C   0  0  0  0  0  0  0  0  0  0  0  0
   21.8711   -7.5446  -17.1284 O   0  0  0  0  0  0  0  0  0  0  0  0
   22.0011   -6.8145  -14.9237 N   0  0  0  0  0  0  0  0  0  0  0  0
   21.5521   -5.4626  -15.2286 C   0  0  1  0  0  0  0  0  0  0  0  0
   20.1959   -5.1866  -14.6190 C   0  0  0  0  0  0  0  0  0  0  0  0
   19.6770   -3.8642  -14.9841 C   0  0  0  0  0  0  0  0  0  0  0  0
   19.9611   -3.4302  -16.1376 O   0  0  0  0  0  0  0  0  0  0  0  0
   22.4802   -4.4395  -14.7680 C   0  0  0  0  0  0  0  0  0  0  0  0
   23.3650   -4.7148  -13.9303 O   0  0  0  0  0  0  0  0  0  0  0  0
   18.9075   -3.0490  -14.1866 O   0  0  0  0  0  0  0  0  0  0  0  0
   22.3979   -3.1499  -15.2487 O   0  0  0  0  0  0  0  0  0  0  0  0
  1  2  1  0
  3  2  1  0
  4  5  1  0
  4  3  1  0
  5  1  1  0
  5  6  1  1
  7  6  2  0
 10  9  1  6
  9  8  1  0
 10 12  1  0
 10 11  1  0
 11  6  1  0
 12 14  1  0
 13 12  2  0
 14 15  1  0
 15 19  1  0
 15 16  1  1
 17 21  1  0
 17 16  1  0
 18 17  2  0
 19 20  2  0
 19 22  1  0
M  END
$$$$
