PSD.pdb
     RDKit          3D

 22 22  0  0  1  0  0  0  0  0999 V2000
   44.9180  -11.6709   -6.5006 N   0  0  0  0  0  0  0  0  0  0  0  0
   46.0680  -12.5180   -6.6860 C   0  0  0  0  0  0  0  0  0  0  0  0
   46.4255  -12.5104   -8.1353 C   0  0  0  0  0  0  0  0  0  0  0  0
   45.1971  -11.8548   -8.7711 C   0  0  0  0  0  0  0  0  0  0  0  0
   44.8517  -10.8460   -7.6673 C   0  0  1  0  0  0  0  0  0  0  0  0
   43.5376  -10.2242   -7.8835 C   0  0  0  0  0  0  0  0  0  0  0  0
   43.4252   -9.4059   -8.8321 O   0  0  0  0  0  0  0  0  0  0  0  0
   40.4563  -10.6900   -5.2646 O   0  0  0  0  0  0  0  0  0  0  0  0
   40.0752  -10.7150   -6.5945 C   0  0  0  0  0  0  0  0  0  0  0  0
   41.0842   -9.9174   -7.3934 C   0  0  2  0  0  0  0  0  0  0  0  0
   42.3849  -10.4795   -7.0997 N   0  0  0  0  0  0  0  0  0  0  0  0
   41.0975   -8.4913   -7.0030 C   0  0  0  0  0  0  0  0  0  0  0  0
   41.8005   -8.1338   -6.0304 O   0  0  0  0  0  0  0  0  0  0  0  0
   40.3210   -7.5402   -7.7243 N   0  0  0  0  0  0  0  0  0  0  0  0
   40.2616   -6.1382   -7.3332 C   0  0  1  0  0  0  0  0  0  0  0  0
   41.6470   -5.5421   -7.2237 C   0  0  0  0  0  0  0  0  0  0  0  0
   41.6190   -4.1295   -6.8297 C   0  0  0  0  0  0  0  0  0  0  0  0
   40.7125   -3.7725   -6.0232 O   0  0  0  0  0  0  0  0  0  0  0  0
   39.4826   -5.3247   -8.2560 C   0  0  0  0  0  0  0  0  0  0  0  0
   39.0602   -5.8076   -9.3279 O   0  0  0  0  0  0  0  0  0  0  0  0
   42.4892   -3.1534   -7.2569 O   0  0  0  0  0  0  0  0  0  0  0  0
   39.1981   -4.0080   -7.9622 O   0  0  0  0  0  0  0  0  0  0  0  0
  1  2  1  0
  3  2  1  0
  4  5  1  0
  4  3  1  0
  5  1  1  0
  5  6  1  6
  7  6  2  0
 10  9  1  1
  9  8  1  0
 10 12  1  0
 10 11  1  0
 11  6  1  0
 12 14  1  0
 13 12  2  0
 14 15  1  0
 15 19  1  0
 15 16  1  6
 17 21  1  0
 17 16  1  0
 18 17  2  0
 19 20  2  0
 19 22  1  0
M  END
$$$$
