PSD.pdb
     RDKit          3D

 22 22  0  0  1  0  0  0  0  0999 V2000
   20.5941  -12.3924  -16.5836 N   0  0  0  0  0  0  0  0  0  0  0  0
   21.0008  -13.5873  -17.2773 C   0  0  0  0  0  0  0  0  0  0  0  0
   21.2038  -13.2463  -18.7164 C   0  0  0  0  0  0  0  0  0  0  0  0
   20.5705  -11.8564  -18.8150 C   0  0  0  0  0  0  0  0  0  0  0  0
   20.9607  -11.3046  -17.4371 C   0  0  1  0  0  0  0  0  0  0  0  0
   20.2642  -10.0468  -17.1320 C   0  0  0  0  0  0  0  0  0  0  0  0
   20.7649   -8.9786  -17.5681 O   0  0  0  0  0  0  0  0  0  0  0  0
   17.2295   -9.7133  -14.3590 O   0  0  0  0  0  0  0  0  0  0  0  0
   17.0279   -9.0493  -15.5561 C   0  0  0  0  0  0  0  0  0  0  0  0
   18.3807   -8.6980  -16.1387 C   0  0  2  0  0  0  0  0  0  0  0  0
   19.0667   -9.9490  -16.3804 N   0  0  0  0  0  0  0  0  0  0  0  0
   19.1963   -7.8965  -15.2014 C   0  0  0  0  0  0  0  0  0  0  0  0
   20.0330   -8.4779  -14.4733 O   0  0  0  0  0  0  0  0  0  0  0  0
   19.0310   -6.4840  -15.1297 N   0  0  0  0  0  0  0  0  0  0  0  0
   19.8955   -5.6474  -14.3082 C   0  0  1  0  0  0  0  0  0  0  0  0
   21.3484   -5.8226  -14.6896 C   0  0  0  0  0  0  0  0  0  0  0  0
   22.2392   -4.9523  -13.9148 C   0  0  0  0  0  0  0  0  0  0  0  0
   21.9716   -4.7963  -12.6886 O   0  0  0  0  0  0  0  0  0  0  0  0
   19.5645   -4.2322  -14.3957 C   0  0  0  0  0  0  0  0  0  0  0  0
   18.9561   -3.7820  -15.3895 O   0  0  0  0  0  0  0  0  0  0  0  0
   23.3421   -4.2875  -14.3988 O   0  0  0  0  0  0  0  0  0  0  0  0
   19.9170   -3.3653  -13.3831 O   0  0  0  0  0  0  0  0  0  0  0  0
  1  2  1  0
  3  2  1  0
  4  5  1  0
  4  3  1  0
  5  1  1  0
  5  6  1  1
  7  6  2  0
 10  9  1  1
  9  8  1  0
 10 12  1  0
 10 11  1  0
 11  6  1  0
 12 14  1  0
 13 12  2  0
 14 15  1  0
 15 19  1  0
 15 16  1  6
 17 21  1  0
 17 16  1  0
 18 17  2  0
 19 20  2  0
 19 22  1  0
M  END
$$$$
