PSD.pdb
     RDKit          3D

 22 22  0  0  1  0  0  0  0  0999 V2000
   30.2466  -20.1371  -11.9686 N   0  0  0  0  0  0  0  0  0  0  0  0
   30.8575  -21.1610  -11.1605 C   0  0  0  0  0  0  0  0  0  0  0  0
   29.8273  -22.2002  -10.8651 C   0  0  0  0  0  0  0  0  0  0  0  0
   28.5327  -21.5097  -11.3008 C   0  0  0  0  0  0  0  0  0  0  0  0
   29.0610  -20.7264  -12.5103 C   0  0  1  0  0  0  0  0  0  0  0  0
   28.0804  -19.7481  -13.0018 C   0  0  0  0  0  0  0  0  0  0  0  0
   27.8218  -18.7586  -12.2696 O   0  0  0  0  0  0  0  0  0  0  0  0
   27.1957  -19.4411  -16.8680 O   0  0  0  0  0  0  0  0  0  0  0  0
   27.0019  -18.3444  -16.0471 C   0  0  0  0  0  0  0  0  0  0  0  0
   26.4735  -18.8345  -14.7154 C   0  0  2  0  0  0  0  0  0  0  0  0
   27.4031  -19.8381  -14.2433 N   0  0  0  0  0  0  0  0  0  0  0  0
   25.1412  -19.4625  -14.8453 C   0  0  0  0  0  0  0  0  0  0  0  0
   25.0640  -20.7074  -14.9562 O   0  0  0  0  0  0  0  0  0  0  0  0
   23.9643  -18.6608  -14.8439 N   0  0  0  0  0  0  0  0  0  0  0  0
   22.6328  -19.2463  -14.9239 C   0  0  1  0  0  0  0  0  0  0  0  0
   21.5805  -18.2812  -14.4257 C   0  0  0  0  0  0  0  0  0  0  0  0
   20.2228  -18.8234  -14.5444 C   0  0  0  0  0  0  0  0  0  0  0  0
   19.9589  -19.8699  -13.8850 O   0  0  0  0  0  0  0  0  0  0  0  0
   22.2754  -19.6599  -16.2735 C   0  0  0  0  0  0  0  0  0  0  0  0
   22.7288  -19.0513  -17.2658 O   0  0  0  0  0  0  0  0  0  0  0  0
   19.2063  -18.2985  -15.3084 O   0  0  0  0  0  0  0  0  0  0  0  0
   21.4307  -20.7301  -16.4788 O   0  0  0  0  0  0  0  0  0  0  0  0
  1  2  1  0
  3  2  1  0
  4  5  1  0
  4  3  1  0
  5  1  1  0
  5  6  1  1
  7  6  2  0
 10  9  1  6
  9  8  1  0
 10 12  1  0
 10 11  1  0
 11  6  1  0
 12 14  1  0
 13 12  2  0
 14 15  1  0
 15 19  1  0
 15 16  1  6
 17 21  1  0
 17 16  1  0
 18 17  2  0
 19 20  2  0
 19 22  1  0
M  END
$$$$
