PSD.pdb
     RDKit          3D

 22 22  0  0  1  0  0  0  0  0999 V2000
   28.0488  -20.5642  -15.7979 N   0  0  0  0  0  0  0  0  0  0  0  0
   28.6878  -19.4699  -16.4825 C   0  0  0  0  0  0  0  0  0  0  0  0
   28.4452  -18.2227  -15.6989 C   0  0  0  0  0  0  0  0  0  0  0  0
   27.3614  -18.6630  -14.7118 C   0  0  0  0  0  0  0  0  0  0  0  0
   27.8207  -20.1059  -14.4622 C   0  0  1  0  0  0  0  0  0  0  0  0
   26.8120  -20.8842  -13.7293 C   0  0  0  0  0  0  0  0  0  0  0  0
   26.2050  -21.7922  -14.3531 O   0  0  0  0  0  0  0  0  0  0  0  0
   25.3465  -19.6111  -10.0331 O   0  0  0  0  0  0  0  0  0  0  0  0
   25.3769  -20.9724  -10.2788 C   0  0  0  0  0  0  0  0  0  0  0  0
   25.2530  -21.1890  -11.7723 C   0  0  2  0  0  0  0  0  0  0  0  0
   26.4721  -20.6861  -12.3679 N   0  0  0  0  0  0  0  0  0  0  0  0
   24.1143  -20.4418  -12.3479 C   0  0  0  0  0  0  0  0  0  0  0  0
   24.3422  -19.4158  -13.0286 O   0  0  0  0  0  0  0  0  0  0  0  0
   22.7786  -20.8847  -12.1297 N   0  0  0  0  0  0  0  0  0  0  0  0
   21.6790  -20.4710  -12.9911 C   0  0  1  0  0  0  0  0  0  0  0  0
   21.9205  -20.8889  -14.4243 C   0  0  0  0  0  0  0  0  0  0  0  0
   20.8561  -20.4361  -15.3261 C   0  0  0  0  0  0  0  0  0  0  0  0
   19.7205  -20.9781  -15.1977 O   0  0  0  0  0  0  0  0  0  0  0  0
   20.3935  -21.0069  -12.5662 C   0  0  0  0  0  0  0  0  0  0  0  0
   20.3031  -22.1763  -12.1362 O   0  0  0  0  0  0  0  0  0  0  0  0
   20.9777  -19.4739  -16.3018 O   0  0  0  0  0  0  0  0  0  0  0  0
   19.2545  -20.2325  -12.6312 O   0  0  0  0  0  0  0  0  0  0  0  0
  1  2  1  0
  3  2  1  0
  4  5  1  0
  4  3  1  0
  5  1  1  0
  5  6  1  6
  7  6  2  0
 10  9  1  1
  9  8  1  0
 10 12  1  0
 10 11  1  0
 11  6  1  0
 12 14  1  0
 13 12  2  0
 14 15  1  0
 15 19  1  0
 15 16  1  6
 17 21  1  0
 17 16  1  0
 18 17  2  0
 19 20  2  0
 19 22  1  0
M  END
$$$$
