PSD.pdb
     RDKit          3D

 22 22  0  0  1  0  0  0  0  0999 V2000
   26.5593  -10.8097  -15.8335 N   0  0  0  0  0  0  0  0  0  0  0  0
   27.4568  -11.8988  -16.1218 C   0  0  0  0  0  0  0  0  0  0  0  0
   26.8502  -12.7308  -17.2028 C   0  0  0  0  0  0  0  0  0  0  0  0
   25.4159  -12.1994  -17.2577 C   0  0  0  0  0  0  0  0  0  0  0  0
   25.6857  -10.7177  -16.9625 C   0  0  1  0  0  0  0  0  0  0  0  0
   24.4450   -9.9760  -16.6969 C   0  0  0  0  0  0  0  0  0  0  0  0
   23.7084   -9.6953  -17.6772 O   0  0  0  0  0  0  0  0  0  0  0  0
   21.0332   -8.7353  -13.5962 O   0  0  0  0  0  0  0  0  0  0  0  0
   22.2714   -9.3109  -13.8197 C   0  0  0  0  0  0  0  0  0  0  0  0
   22.7631   -8.8677  -15.1816 C   0  0  2  0  0  0  0  0  0  0  0  0
   24.0164   -9.5525  -15.4142 N   0  0  0  0  0  0  0  0  0  0  0  0
   23.0149   -7.4116  -15.2327 C   0  0  0  0  0  0  0  0  0  0  0  0
   24.1292   -6.9741  -14.8653 O   0  0  0  0  0  0  0  0  0  0  0  0
   22.0032   -6.5217  -15.6935 N   0  0  0  0  0  0  0  0  0  0  0  0
   22.1833   -5.0762  -15.6793 C   0  0  1  0  0  0  0  0  0  0  0  0
   21.7058   -4.4532  -16.9718 C   0  0  0  0  0  0  0  0  0  0  0  0
   21.9151   -3.0019  -17.0043 C   0  0  0  0  0  0  0  0  0  0  0  0
   23.0084   -2.5653  -16.5420 O   0  0  0  0  0  0  0  0  0  0  0  0
   21.4908   -4.4295  -14.5736 C   0  0  0  0  0  0  0  0  0  0  0  0
   20.4223   -4.9007  -14.1301 O   0  0  0  0  0  0  0  0  0  0  0  0
   21.0307   -2.0679  -17.4923 O   0  0  0  0  0  0  0  0  0  0  0  0
   22.0029   -3.2861  -13.9978 O   0  0  0  0  0  0  0  0  0  0  0  0
  1  2  1  0
  3  2  1  0
  4  5  1  0
  4  3  1  0
  5  1  1  0
  5  6  1  1
  7  6  2  0
 10  9  1  1
  9  8  1  0
 10 12  1  0
 10 11  1  0
 11  6  1  0
 12 14  1  0
 13 12  2  0
 14 15  1  0
 15 19  1  0
 15 16  1  6
 17 21  1  0
 17 16  1  0
 18 17  2  0
 19 20  2  0
 19 22  1  0
M  END
$$$$
