PSD.pdb
     RDKit          3D

 22 22  0  0  1  0  0  0  0  0999 V2000
   26.0203  -10.8030  -15.9666 N   0  0  0  0  0  0  0  0  0  0  0  0
   27.0122  -11.8400  -16.0905 C   0  0  0  0  0  0  0  0  0  0  0  0
   26.3293  -13.0886  -16.5414 C   0  0  0  0  0  0  0  0  0  0  0  0
   24.8515  -12.7414  -16.3457 C   0  0  0  0  0  0  0  0  0  0  0  0
   24.8915  -11.2538  -16.7209 C   0  0  1  0  0  0  0  0  0  0  0  0
   23.6364  -10.5682  -16.3823 C   0  0  0  0  0  0  0  0  0  0  0  0
   22.6200  -10.8296  -17.0757 O   0  0  0  0  0  0  0  0  0  0  0  0
   22.9053   -9.0457  -12.7926 O   0  0  0  0  0  0  0  0  0  0  0  0
   21.8467   -9.3330  -13.6360 C   0  0  0  0  0  0  0  0  0  0  0  0
   22.2436   -8.9476  -15.0455 C   0  0  2  0  0  0  0  0  0  0  0  0
   23.4867   -9.6318  -15.3292 N   0  0  0  0  0  0  0  0  0  0  0  0
   22.4752   -7.4932  -15.1777 C   0  0  0  0  0  0  0  0  0  0  0  0
   23.6513   -7.0682  -15.2416 O   0  0  0  0  0  0  0  0  0  0  0  0
   21.3748   -6.5910  -15.2314 N   0  0  0  0  0  0  0  0  0  0  0  0
   21.5631   -5.1531  -15.3699 C   0  0  1  0  0  0  0  0  0  0  0  0
   20.4295   -4.5260  -16.1500 C   0  0  0  0  0  0  0  0  0  0  0  0
   20.5988   -3.0787  -16.3174 C   0  0  0  0  0  0  0  0  0  0  0  0
   21.7773   -2.6238  -16.2556 O   0  0  0  0  0  0  0  0  0  0  0  0
   21.6729   -4.4697  -14.0888 C   0  0  0  0  0  0  0  0  0  0  0  0
   20.9714   -4.8233  -13.1176 O   0  0  0  0  0  0  0  0  0  0  0  0
   19.5923   -2.1668  -16.5360 O   0  0  0  0  0  0  0  0  0  0  0  0
   22.5532   -3.4209  -13.9263 O   0  0  0  0  0  0  0  0  0  0  0  0
  1  2  1  0
  3  2  1  0
  4  5  1  0
  4  3  1  0
  5  1  1  0
  5  6  1  1
  7  6  2  0
 10  9  1  1
  9  8  1  0
 10 12  1  0
 10 11  1  0
 11  6  1  0
 12 14  1  0
 13 12  2  0
 14 15  1  0
 15 19  1  0
 15 16  1  1
 17 21  1  0
 17 16  1  0
 18 17  2  0
 19 20  2  0
 19 22  1  0
M  END
$$$$
