CYT.pdb
     RDKit          3D

 26 26  0  0  1  0  0  0  0  0999 V2000
    7.6650  -12.7455   19.8175 N   0  0  0  0  0  0  0  0  0  0  0  0
    7.2843  -13.9211   20.5722 C   0  0  1  0  0  0  0  0  0  0  0  0
    7.4004  -15.1477   19.6680 C   0  0  0  0  0  0  0  0  0  0  0  0
    5.7543  -15.3568   18.9007 S   0  0  0  0  0  0  0  0  0  0  0  0
    8.2012  -14.0979   21.7496 C   0  0  0  0  0  0  0  0  0  0  0  0
    9.4256  -13.8720   21.5869 O   0  0  0  0  0  0  0  0  0  0  0  0
   10.5356  -15.0216   30.3235 O   0  0  0  0  0  0  0  0  0  0  0  0
    9.8749  -14.8432   29.0998 C   0  0  0  0  0  0  0  0  0  0  0  0
    9.2730  -15.8986   28.4490 C   0  0  0  0  0  0  0  0  0  0  0  0
    8.6202  -15.7354   27.2449 C   0  0  0  0  0  0  0  0  0  0  0  0
    8.5403  -14.4870   26.6293 C   0  0  0  0  0  0  0  0  0  0  0  0
    7.8838  -14.2775   25.3433 C   0  0  0  0  0  0  0  0  0  0  0  0
    8.6906  -14.5817   24.1167 C   0  0  2  0  0  0  0  0  0  0  0  0
    7.7085  -14.5070   23.0093 N   0  0  0  0  0  0  0  0  0  0  0  0
    9.2484  -15.9486   24.0526 C   0  0  0  0  0  0  0  0  0  0  0  0
    8.4865  -16.9723   23.9064 O   0  0  0  0  0  0  0  0  0  0  0  0
    9.1444  -13.4460   27.2895 C   0  0  0  0  0  0  0  0  0  0  0  0
    9.7997  -13.6055   28.4966 C   0  0  0  0  0  0  0  0  0  0  0  0
   11.0295  -17.6434   21.5643 C   0  0  0  0  0  0  0  0  0  0  0  0
   11.8846  -17.8845   22.7840 C   0  0  1  0  0  0  0  0  0  0  0  0
   12.9688  -17.0320   22.7083 O   0  0  0  0  0  0  0  0  0  0  0  0
   11.0856  -17.6506   24.0650 C   0  0  2  0  0  0  0  0  0  0  0  0
   10.6331  -16.2782   24.1354 N   0  0  0  0  0  0  0  0  0  0  0  0
   11.8321  -18.0464   25.2540 C   0  0  0  0  0  0  0  0  0  0  0  0
   12.1813  -17.2425   26.1427 O   0  0  0  0  0  0  0  0  0  0  0  0
   12.2121  -19.3822   25.4783 O   0  0  0  0  0  0  0  0  0  0  0  0
  2  1  1  6
  3  2  1  0
  3  4  1  0
  5  2  1  0
  5  6  2  0
  7  8  1  0
  8 18  2  0
  9  8  1  0
  9 10  2  0
 10 11  1  0
 11 17  2  0
 11 12  1  0
 13 12  1  1
 13 14  1  0
 14  5  1  0
 15 13  1  0
 16 15  2  0
 18 17  1  0
 20 21  1  0
 20 19  1  6
 22 23  1  1
 22 20  1  0
 23 15  1  0
 24 22  1  0
 25 24  2  0
 26 24  1  0
M  END
$$$$
