CYT.pdb
     RDKit          3D

 26 26  0  0  1  0  0  0  0  0999 V2000
   11.2589  -17.0406   20.1500 N   0  0  0  0  0  0  0  0  0  0  0  0
    9.9678  -17.2588   20.7680 C   0  0  1  0  0  0  0  0  0  0  0  0
    9.8456  -18.7335   21.1499 C   0  0  0  0  0  0  0  0  0  0  0  0
    8.3101  -19.3269   20.3550 S   0  0  0  0  0  0  0  0  0  0  0  0
    9.8429  -16.4238   22.0112 C   0  0  0  0  0  0  0  0  0  0  0  0
   10.8953  -16.0875   22.6079 O   0  0  0  0  0  0  0  0  0  0  0  0
    5.7719  -10.8084   27.6963 O   0  0  0  0  0  0  0  0  0  0  0  0
    6.1665  -11.6592   26.6540 C   0  0  0  0  0  0  0  0  0  0  0  0
    7.0561  -11.2437   25.6866 C   0  0  0  0  0  0  0  0  0  0  0  0
    7.4516  -12.0715   24.6566 C   0  0  0  0  0  0  0  0  0  0  0  0
    6.9654  -13.3736   24.5483 C   0  0  0  0  0  0  0  0  0  0  0  0
    7.3369  -14.2709   23.4595 C   0  0  0  0  0  0  0  0  0  0  0  0
    8.5790  -15.0881   23.6529 C   0  0  2  0  0  0  0  0  0  0  0  0
    8.5802  -16.0233   22.5032 N   0  0  0  0  0  0  0  0  0  0  0  0
    8.5870  -15.9471   24.8553 C   0  0  0  0  0  0  0  0  0  0  0  0
    8.6174  -15.4404   26.0352 O   0  0  0  0  0  0  0  0  0  0  0  0
    6.0806  -13.7728   25.5190 C   0  0  0  0  0  0  0  0  0  0  0  0
    5.6816  -12.9461   26.5530 C   0  0  0  0  0  0  0  0  0  0  0  0
    6.4186  -19.2394   25.4195 C   0  0  0  0  0  0  0  0  0  0  0  0
    7.8340  -19.4609   25.8930 C   0  0  1  0  0  0  0  0  0  0  0  0
    8.4700  -20.2481   24.9528 O   0  0  0  0  0  0  0  0  0  0  0  0
    8.5603  -18.1302   26.0824 C   0  0  2  0  0  0  0  0  0  0  0  0
    8.5574  -17.3725   24.8498 N   0  0  0  0  0  0  0  0  0  0  0  0
    9.9064  -18.3135   26.6134 C   0  0  0  0  0  0  0  0  0  0  0  0
   10.1432  -18.8855   27.6974 O   0  0  0  0  0  0  0  0  0  0  0  0
   11.0425  -17.8494   25.9258 O   0  0  0  0  0  0  0  0  0  0  0  0
  2  1  1  1
  3  2  1  0
  3  4  1  0
  5  2  1  0
  5  6  2  0
  7  8  1  0
  8 18  2  0
  9  8  1  0
  9 10  2  0
 10 11  1  0
 11 17  2  0
 11 12  1  0
 13 12  1  1
 13 14  1  0
 14  5  1  0
 15 13  1  0
 16 15  2  0
 18 17  1  0
 20 21  1  0
 20 19  1  6
 22 23  1  6
 22 20  1  0
 23 15  1  0
 24 22  1  0
 25 24  2  0
 26 24  1  0
M  END
$$$$
