CYT.pdb
     RDKit          3D

 26 26  0  0  1  0  0  0  0  0999 V2000
    7.8085  -12.8018   19.6087 N   0  0  0  0  0  0  0  0  0  0  0  0
    7.0757  -13.3244   20.7429 C   0  0  1  0  0  0  0  0  0  0  0  0
    6.3471  -14.5982   20.3161 C   0  0  0  0  0  0  0  0  0  0  0  0
    7.6449  -15.7320   19.7059 S   0  0  0  0  0  0  0  0  0  0  0  0
    8.0235  -13.6590   21.8601 C   0  0  0  0  0  0  0  0  0  0  0  0
    9.2565  -13.5922   21.6317 O   0  0  0  0  0  0  0  0  0  0  0  0
   10.7888  -15.1476   30.2168 O   0  0  0  0  0  0  0  0  0  0  0  0
   10.0625  -14.8716   29.0497 C   0  0  0  0  0  0  0  0  0  0  0  0
    9.3633  -15.8590   28.3894 C   0  0  0  0  0  0  0  0  0  0  0  0
    8.6452  -15.5994   27.2406 C   0  0  0  0  0  0  0  0  0  0  0  0
    8.5950  -14.3181   26.6935 C   0  0  0  0  0  0  0  0  0  0  0  0
    7.8706  -14.0080   25.4656 C   0  0  0  0  0  0  0  0  0  0  0  0
    8.5732  -14.3046   24.1747 C   0  0  2  0  0  0  0  0  0  0  0  0
    7.5500  -14.0393   23.1360 N   0  0  0  0  0  0  0  0  0  0  0  0
    8.9685  -15.7154   23.9824 C   0  0  0  0  0  0  0  0  0  0  0  0
    8.0911  -16.6300   23.7731 O   0  0  0  0  0  0  0  0  0  0  0  0
    9.2962  -13.3457   27.3622 C   0  0  0  0  0  0  0  0  0  0  0  0
   10.0171  -13.6017   28.5140 C   0  0  0  0  0  0  0  0  0  0  0  0
   10.4569  -17.3460   21.2753 C   0  0  0  0  0  0  0  0  0  0  0  0
   11.3311  -17.7731   22.4286 C   0  0  1  0  0  0  0  0  0  0  0  0
   12.4800  -17.0072   22.3870 O   0  0  0  0  0  0  0  0  0  0  0  0
   10.6005  -17.6020   23.7593 C   0  0  2  0  0  0  0  0  0  0  0  0
   10.3072  -16.2057   23.9994 N   0  0  0  0  0  0  0  0  0  0  0  0
   11.3314  -18.2097   24.8657 C   0  0  0  0  0  0  0  0  0  0  0  0
   11.6220  -19.4229   24.9105 O   0  0  0  0  0  0  0  0  0  0  0  0
   11.7626  -17.4541   25.9712 O   0  0  0  0  0  0  0  0  0  0  0  0
  2  1  1  6
  3  2  1  0
  3  4  1  0
  5  2  1  0
  5  6  2  0
  7  8  1  0
  8 18  2  0
  9  8  1  0
  9 10  2  0
 10 11  1  0
 11 17  2  0
 11 12  1  0
 13 12  1  1
 13 14  1  0
 14  5  1  0
 15 13  1  0
 16 15  2  0
 18 17  1  0
 20 21  1  0
 20 19  1  6
 22 23  1  1
 22 20  1  0
 23 15  1  0
 24 22  1  0
 25 24  2  0
 26 24  1  0
M  END
$$$$
