CYT.pdb
     RDKit          3D

 26 26  0  0  1  0  0  0  0  0999 V2000
    7.0804  -13.3448   19.9942 N   0  0  0  0  0  0  0  0  0  0  0  0
    6.8589  -14.4581   20.8931 C   0  0  1  0  0  0  0  0  0  0  0  0
    6.9970  -15.7620   20.1081 C   0  0  0  0  0  0  0  0  0  0  0  0
    5.4892  -16.7270   20.4786 S   0  0  0  0  0  0  0  0  0  0  0  0
    7.8817  -14.4441   21.9940 C   0  0  0  0  0  0  0  0  0  0  0  0
    9.0299  -14.0090   21.7311 O   0  0  0  0  0  0  0  0  0  0  0  0
   10.9830  -15.1325   30.3531 O   0  0  0  0  0  0  0  0  0  0  0  0
   10.2350  -14.9751   29.1777 C   0  0  0  0  0  0  0  0  0  0  0  0
    9.6944  -16.0596   28.5208 C   0  0  0  0  0  0  0  0  0  0  0  0
    8.9568  -15.9172   27.3638 C   0  0  0  0  0  0  0  0  0  0  0  0
    8.7244  -14.6615   26.8046 C   0  0  0  0  0  0  0  0  0  0  0  0
    7.9739  -14.4706   25.5680 C   0  0  0  0  0  0  0  0  0  0  0  0
    8.6606  -14.8645   24.2947 C   0  0  2  0  0  0  0  0  0  0  0  0
    7.5696  -14.9058   23.2926 N   0  0  0  0  0  0  0  0  0  0  0  0
    9.2479  -16.2204   24.2890 C   0  0  0  0  0  0  0  0  0  0  0  0
    8.5123  -17.2650   24.4218 O   0  0  0  0  0  0  0  0  0  0  0  0
    9.2691  -13.5915   27.4701 C   0  0  0  0  0  0  0  0  0  0  0  0
   10.0089  -13.7299   28.6300 C   0  0  0  0  0  0  0  0  0  0  0  0
   11.2423  -17.9482   21.6443 C   0  0  0  0  0  0  0  0  0  0  0  0
   12.0107  -18.1357   22.9292 C   0  0  1  0  0  0  0  0  0  0  0  0
   13.0815  -17.2633   22.9058 O   0  0  0  0  0  0  0  0  0  0  0  0
   11.1165  -17.8814   24.1415 C   0  0  2  0  0  0  0  0  0  0  0  0
   10.6340  -16.5174   24.1368 N   0  0  0  0  0  0  0  0  0  0  0  0
   11.7821  -18.2262   25.3928 C   0  0  0  0  0  0  0  0  0  0  0  0
   11.9741  -17.4071   26.3150 O   0  0  0  0  0  0  0  0  0  0  0  0
   12.2578  -19.5260   25.6440 O   0  0  0  0  0  0  0  0  0  0  0  0
  2  1  1  6
  3  2  1  0
  3  4  1  0
  5  2  1  0
  5  6  2  0
  7  8  1  0
  8 18  2  0
  9  8  1  0
  9 10  2  0
 10 11  1  0
 11 17  2  0
 11 12  1  0
 13 12  1  1
 13 14  1  0
 14  5  1  0
 15 13  1  0
 16 15  2  0
 18 17  1  0
 20 21  1  0
 20 19  1  6
 22 23  1  1
 22 20  1  0
 23 15  1  0
 24 22  1  0
 25 24  2  0
 26 24  1  0
M  END
$$$$
