CYT.pdb
     RDKit          3D

 26 26  0  0  1  0  0  0  0  0999 V2000
   10.8314  -19.4055   22.4219 N   0  0  0  0  0  0  0  0  0  0  0  0
   10.9475  -17.9670   22.3042 C   0  0  1  0  0  0  0  0  0  0  0  0
   10.2770  -17.5218   21.0050 C   0  0  0  0  0  0  0  0  0  0  0  0
   10.6338  -15.7356   20.8487 S   0  0  0  0  0  0  0  0  0  0  0  0
   10.2586  -17.2973   23.4597 C   0  0  0  0  0  0  0  0  0  0  0  0
    9.1455  -17.7469   23.8280 O   0  0  0  0  0  0  0  0  0  0  0  0
   11.1371  -16.6624   31.5975 O   0  0  0  0  0  0  0  0  0  0  0  0
   11.1471  -16.2536   30.2564 C   0  0  0  0  0  0  0  0  0  0  0  0
   10.6775  -15.0133   29.8809 C   0  0  0  0  0  0  0  0  0  0  0  0
   10.6822  -14.6002   28.5648 C   0  0  0  0  0  0  0  0  0  0  0  0
   11.1656  -15.4249   27.5500 C   0  0  0  0  0  0  0  0  0  0  0  0
   11.1623  -15.0368   26.1435 C   0  0  0  0  0  0  0  0  0  0  0  0
   10.0970  -15.6421   25.2793 C   0  0  2  0  0  0  0  0  0  0  0  0
   10.8395  -16.1913   24.1202 N   0  0  0  0  0  0  0  0  0  0  0  0
    9.1308  -14.6827   24.7054 C   0  0  0  0  0  0  0  0  0  0  0  0
    9.3993  -14.0285   23.6330 O   0  0  0  0  0  0  0  0  0  0  0  0
   11.6297  -16.6567   27.9395 C   0  0  0  0  0  0  0  0  0  0  0  0
   11.6267  -17.0745   29.2576 C   0  0  0  0  0  0  0  0  0  0  0  0
    7.8928  -13.9505   22.3116 C   0  0  0  0  0  0  0  0  0  0  0  0
    6.6436  -13.9658   23.1576 C   0  0  1  0  0  0  0  0  0  0  0  0
    6.1604  -15.2599   23.1645 O   0  0  0  0  0  0  0  0  0  0  0  0
    6.9388  -13.4783   24.5750 C   0  0  2  0  0  0  0  0  0  0  0  0
    7.8443  -14.3870   25.2441 N   0  0  0  0  0  0  0  0  0  0  0  0
    5.7177  -13.2538   25.3407 C   0  0  0  0  0  0  0  0  0  0  0  0
    4.8760  -12.3800   25.0472 O   0  0  0  0  0  0  0  0  0  0  0  0
    5.4060  -14.0211   26.4779 O   0  0  0  0  0  0  0  0  0  0  0  0
  2  1  1  1
  3  2  1  0
  3  4  1  0
  5  2  1  0
  5  6  2  0
  7  8  1  0
  8 18  2  0
  9  8  1  0
  9 10  2  0
 10 11  1  0
 11 17  2  0
 11 12  1  0
 13 12  1  1
 13 14  1  0
 14  5  1  0
 15 13  1  0
 16 15  2  0
 18 17  1  0
 20 21  1  0
 20 19  1  6
 22 23  1  1
 22 20  1  0
 23 15  1  0
 24 22  1  0
 25 24  2  0
 26 24  1  0
M  END
$$$$
