FYL.pdb
     RDKit          3D

 32 33  0  0  1  0  0  0  0  0999 V2000
    5.7601  -18.3904   22.8039 N   0  0  0  0  0  0  0  0  0  0  0  0
    6.2453  -17.1304   23.2725 C   0  0  1  0  0  0  0  0  0  0  0  0
    5.9478  -17.0237   24.7677 C   0  0  0  0  0  0  0  0  0  0  0  0
    6.3623  -15.6621   25.2053 C   0  0  0  0  0  0  0  0  0  0  0  0
    7.0283  -15.4344   26.3917 C   0  0  0  0  0  0  0  0  0  0  0  0
    7.4010  -14.1785   26.7772 C   0  0  0  0  0  0  0  0  0  0  0  0
    7.1319  -13.0679   26.0015 C   0  0  0  0  0  0  0  0  0  0  0  0
    6.4680  -13.2825   24.8158 C   0  0  0  0  0  0  0  0  0  0  0  0
    6.0887  -14.5440   24.4193 C   0  0  0  0  0  0  0  0  0  0  0  0
    7.6951  -16.9415   23.1045 C   0  0  0  0  0  0  0  0  0  0  0  0
    8.4503  -17.9076   23.3404 O   0  0  0  0  0  0  0  0  0  0  0  0
    7.1155  -14.1158   16.7427 O   0  0  0  0  0  0  0  0  0  0  0  0
    7.8129  -14.1422   17.9691 C   0  0  0  0  0  0  0  0  0  0  0  0
    8.6685  -15.1804   18.2047 C   0  0  0  0  0  0  0  0  0  0  0  0
    9.3730  -15.2371   19.4059 C   0  0  0  0  0  0  0  0  0  0  0  0
    9.2318  -14.2700   20.3715 C   0  0  0  0  0  0  0  0  0  0  0  0
    9.9862  -14.3450   21.6361 C   0  0  0  0  0  0  0  0  0  0  0  0
    9.7224  -15.6144   22.4142 C   0  0  2  0  0  0  0  0  0  0  0  0
    8.3029  -15.7244   22.6884 N   0  0  0  0  0  0  0  0  0  0  0  0
   10.5438  -15.7615   23.6264 C   0  0  0  0  0  0  0  0  0  0  0  0
   11.8126  -15.7398   23.4760 O   0  0  0  0  0  0  0  0  0  0  0  0
    8.3628  -13.2424   20.0983 C   0  0  0  0  0  0  0  0  0  0  0  0
    7.6528  -13.1688   18.9085 C   0  0  0  0  0  0  0  0  0  0  0  0
    9.9608  -13.3046   28.8183 C   0  0  0  0  0  0  0  0  0  0  0  0
   10.8170  -14.5149   28.3190 C   0  0  1  0  0  0  0  0  0  0  0  0
   10.5975  -15.5554   29.4036 C   0  0  0  0  0  0  0  0  0  0  0  0
   10.2572  -14.8474   26.9952 C   0  0  0  0  0  0  0  0  0  0  0  0
   10.9349  -15.8585   26.1359 C   0  0  2  0  0  0  0  0  0  0  0  0
   10.0566  -15.9206   24.9228 N   0  0  0  0  0  0  0  0  0  0  0  0
   11.1213  -17.1946   26.6582 C   0  0  0  0  0  0  0  0  0  0  0  0
   10.1693  -18.1777   26.5718 O   0  0  0  0  0  0  0  0  0  0  0  0
   12.2115  -17.5158   27.2424 O   0  0  0  0  0  0  0  0  0  0  0  0
  2  1  1  1
  2  3  1  0
  3  4  1  0
  4  5  2  0
  5  6  1  0
  7  6  2  0
  8  7  1  0
  9  8  2  0
  9  4  1  0
 10  2  1  0
 10 11  2  0
 13 12  1  0
 13 23  2  0
 14 13  1  0
 15 14  2  0
 15 16  1  0
 16 22  2  0
 17 16  1  0
 18 19  1  0
 18 17  1  1
 19 10  1  0
 20 18  1  0
 21 20  2  0
 22 23  1  0
 25 27  1  0
 25 24  1  1
 26 25  1  0
 28 27  1  1
 28 30  1  0
 28 29  1  0
 29 20  1  0
 30 31  1  0
 32 30  2  0
M  END
$$$$
