FYL.pdb
     RDKit          3D

 32 33  0  0  1  0  0  0  0  0999 V2000
    6.0219  -18.6623   22.2710 N   0  0  0  0  0  0  0  0  0  0  0  0
    6.3416  -17.5098   23.0533 C   0  0  1  0  0  0  0  0  0  0  0  0
    5.9166  -17.7728   24.4975 C   0  0  0  0  0  0  0  0  0  0  0  0
    6.2675  -16.5617   25.2897 C   0  0  0  0  0  0  0  0  0  0  0  0
    6.8849  -16.6334   26.5211 C   0  0  0  0  0  0  0  0  0  0  0  0
    7.1995  -15.5120   27.2339 C   0  0  0  0  0  0  0  0  0  0  0  0
    6.9173  -14.2450   26.7617 C   0  0  0  0  0  0  0  0  0  0  0  0
    6.3015  -14.1608   25.5343 C   0  0  0  0  0  0  0  0  0  0  0  0
    5.9808  -15.2851   24.8092 C   0  0  0  0  0  0  0  0  0  0  0  0
    7.7746  -17.1752   23.0774 C   0  0  0  0  0  0  0  0  0  0  0  0
    8.6000  -18.1080   23.1658 O   0  0  0  0  0  0  0  0  0  0  0  0
    7.9405  -13.9034   16.9839 O   0  0  0  0  0  0  0  0  0  0  0  0
    8.4172  -13.9468   18.3113 C   0  0  0  0  0  0  0  0  0  0  0  0
    9.1090  -15.0532   18.7145 C   0  0  0  0  0  0  0  0  0  0  0  0
    9.5938  -15.1285   20.0190 C   0  0  0  0  0  0  0  0  0  0  0  0
    9.3951  -14.1125   20.9223 C   0  0  0  0  0  0  0  0  0  0  0  0
    9.9163  -14.2082   22.2981 C   0  0  0  0  0  0  0  0  0  0  0  0
    9.7107  -15.5707   22.9211 C   0  0  2  0  0  0  0  0  0  0  0  0
    8.2908  -15.8514   23.0062 N   0  0  0  0  0  0  0  0  0  0  0  0
   10.4004  -15.7567   24.2077 C   0  0  0  0  0  0  0  0  0  0  0  0
   11.6566  -15.5238   24.2339 O   0  0  0  0  0  0  0  0  0  0  0  0
    8.6953  -13.0169   20.4800 C   0  0  0  0  0  0  0  0  0  0  0  0
    8.2050  -12.9238   19.1854 C   0  0  0  0  0  0  0  0  0  0  0  0
    8.3971  -13.8127   28.4540 C   0  0  0  0  0  0  0  0  0  0  0  0
    9.4878  -14.1800   27.3944 C   0  0  1  0  0  0  0  0  0  0  0  0
   10.5938  -13.1807   27.6862 C   0  0  0  0  0  0  0  0  0  0  0  0
    9.8160  -15.5916   27.6703 C   0  0  0  0  0  0  0  0  0  0  0  0
   10.5731  -16.3876   26.6638 C   0  0  2  0  0  0  0  0  0  0  0  0
    9.8008  -16.1633   25.3988 N   0  0  0  0  0  0  0  0  0  0  0  0
   10.7272  -17.8093   26.8822 C   0  0  0  0  0  0  0  0  0  0  0  0
   11.5931  -18.3415   27.8027 O   0  0  0  0  0  0  0  0  0  0  0  0
   10.0450  -18.6474   26.2002 O   0  0  0  0  0  0  0  0  0  0  0  0
  2  1  1  6
  2  3  1  0
  3  4  1  0
  4  5  2  0
  5  6  1  0
  7  6  2  0
  8  7  1  0
  9  8  2  0
  9  4  1  0
 10  2  1  0
 10 11  2  0
 13 12  1  0
 13 23  2  0
 14 13  1  0
 15 14  2  0
 15 16  1  0
 16 22  2  0
 17 16  1  0
 18 19  1  0
 18 17  1  1
 19 10  1  0
 20 18  1  0
 21 20  2  0
 22 23  1  0
 25 27  1  0
 25 24  1  1
 26 25  1  0
 28 27  1  1
 28 30  1  0
 28 29  1  0
 29 20  1  0
 30 31  1  0
 32 30  2  0
M  END
$$$$
