FYL.pdb
     RDKit          3D

 32 33  0  0  1  0  0  0  0  0999 V2000
    6.9825  -16.9271   18.9828 N   0  0  0  0  0  0  0  0  0  0  0  0
    8.1191  -17.1832   19.8104 C   0  0  1  0  0  0  0  0  0  0  0  0
    9.1760  -16.1173   19.5235 C   0  0  0  0  0  0  0  0  0  0  0  0
    8.5799  -14.7980   19.8721 C   0  0  0  0  0  0  0  0  0  0  0  0
    8.7287  -14.2219   21.1166 C   0  0  0  0  0  0  0  0  0  0  0  0
    8.1750  -13.0108   21.4189 C   0  0  0  0  0  0  0  0  0  0  0  0
    7.4361  -12.2964   20.4962 C   0  0  0  0  0  0  0  0  0  0  0  0
    7.2808  -12.8610   19.2513 C   0  0  0  0  0  0  0  0  0  0  0  0
    7.8350  -14.0805   18.9378 C   0  0  0  0  0  0  0  0  0  0  0  0
    7.8373  -17.1365   21.2541 C   0  0  0  0  0  0  0  0  0  0  0  0
    6.7747  -16.6018   21.6339 O   0  0  0  0  0  0  0  0  0  0  0  0
    7.2074  -19.9351   29.6035 O   0  0  0  0  0  0  0  0  0  0  0  0
    7.5359  -19.7368   28.2456 C   0  0  0  0  0  0  0  0  0  0  0  0
    8.8526  -19.5923   27.9128 C   0  0  0  0  0  0  0  0  0  0  0  0
    9.2117  -19.3949   26.5807 C   0  0  0  0  0  0  0  0  0  0  0  0
    8.2714  -19.3405   25.5805 C   0  0  0  0  0  0  0  0  0  0  0  0
    8.6692  -19.1323   24.1761 C   0  0  0  0  0  0  0  0  0  0  0  0
    8.3054  -17.7624   23.6493 C   0  0  2  0  0  0  0  0  0  0  0  0
    8.6983  -17.6624   22.2572 N   0  0  0  0  0  0  0  0  0  0  0  0
    8.8181  -16.6473   24.4613 C   0  0  0  0  0  0  0  0  0  0  0  0
   10.0597  -16.3673   24.3479 O   0  0  0  0  0  0  0  0  0  0  0  0
    6.9584  -19.4899   25.9541 C   0  0  0  0  0  0  0  0  0  0  0  0
    6.5816  -19.6872   27.2748 C   0  0  0  0  0  0  0  0  0  0  0  0
    5.7290  -12.3515   26.1773 C   0  0  0  0  0  0  0  0  0  0  0  0
    6.8791  -13.1336   25.4612 C   0  0  1  0  0  0  0  0  0  0  0  0
    7.7345  -12.0211   24.8799 C   0  0  0  0  0  0  0  0  0  0  0  0
    7.5109  -13.9302   26.5301 C   0  0  0  0  0  0  0  0  0  0  0  0
    8.6698  -14.8111   26.2125 C   0  0  2  0  0  0  0  0  0  0  0  0
    8.0656  -15.8707   25.3411 N   0  0  0  0  0  0  0  0  0  0  0  0
    9.3787  -15.4401   27.3054 C   0  0  0  0  0  0  0  0  0  0  0  0
   10.4741  -14.8831   27.9137 O   0  0  0  0  0  0  0  0  0  0  0  0
    9.0018  -16.5758   27.7541 O   0  0  0  0  0  0  0  0  0  0  0  0
  2  1  1  6
  2  3  1  0
  3  4  1  0
  4  5  2  0
  5  6  1  0
  7  6  2  0
  8  7  1  0
  9  8  2  0
  9  4  1  0
 10  2  1  0
 10 11  2  0
 13 12  1  0
 13 23  2  0
 14 13  1  0
 15 14  2  0
 15 16  1  0
 16 22  2  0
 17 16  1  0
 18 19  1  0
 18 17  1  1
 19 10  1  0
 20 18  1  0
 21 20  2  0
 22 23  1  0
 25 27  1  0
 25 24  1  1
 26 25  1  0
 28 27  1  1
 28 30  1  0
 28 29  1  0
 29 20  1  0
 30 31  1  0
 32 30  2  0
M  END
$$$$
