FYL.pdb
     RDKit          3D

 32 33  0  0  1  0  0  0  0  0999 V2000
    5.8478  -18.3110   24.2127 N   0  0  0  0  0  0  0  0  0  0  0  0
    6.2842  -16.9508   24.2563 C   0  0  1  0  0  0  0  0  0  0  0  0
    6.0617  -16.4168   25.6708 C   0  0  0  0  0  0  0  0  0  0  0  0
    6.1118  -14.9305   25.5958 C   0  0  0  0  0  0  0  0  0  0  0  0
    5.0522  -14.1743   25.1396 C   0  0  0  0  0  0  0  0  0  0  0  0
    5.1157  -12.8116   25.0776 C   0  0  0  0  0  0  0  0  0  0  0  0
    6.2432  -12.1158   25.4679 C   0  0  0  0  0  0  0  0  0  0  0  0
    7.3067  -12.8595   25.9248 C   0  0  0  0  0  0  0  0  0  0  0  0
    7.2518  -14.2325   25.9907 C   0  0  0  0  0  0  0  0  0  0  0  0
    7.7097  -16.7639   23.9418 C   0  0  0  0  0  0  0  0  0  0  0  0
    8.5030  -17.6896   24.2121 O   0  0  0  0  0  0  0  0  0  0  0  0
    7.0213  -13.9916   17.1529 O   0  0  0  0  0  0  0  0  0  0  0  0
    7.7063  -14.0149   18.3863 C   0  0  0  0  0  0  0  0  0  0  0  0
    8.2579  -15.1945   18.7979 C   0  0  0  0  0  0  0  0  0  0  0  0
    8.9414  -15.2524   20.0112 C   0  0  0  0  0  0  0  0  0  0  0  0
    9.0789  -14.1469   20.8152 C   0  0  0  0  0  0  0  0  0  0  0  0
    9.8065  -14.2258   22.0952 C   0  0  0  0  0  0  0  0  0  0  0  0
    9.6024  -15.5381   22.8181 C   0  0  2  0  0  0  0  0  0  0  0  0
    8.2531  -15.5919   23.3458 N   0  0  0  0  0  0  0  0  0  0  0  0
   10.6198  -15.8288   23.8408 C   0  0  0  0  0  0  0  0  0  0  0  0
   11.8308  -15.9290   23.4454 O   0  0  0  0  0  0  0  0  0  0  0  0
    8.5109  -12.9795   20.3677 C   0  0  0  0  0  0  0  0  0  0  0  0
    7.8269  -12.9023   19.1630 C   0  0  0  0  0  0  0  0  0  0  0  0
   10.0514  -14.2664   29.0587 C   0  0  0  0  0  0  0  0  0  0  0  0
   10.5632  -14.4249   27.5890 C   0  0  1  0  0  0  0  0  0  0  0  0
   11.7199  -13.4425   27.5252 C   0  0  0  0  0  0  0  0  0  0  0  0
   10.9304  -15.8491   27.4730 C   0  0  0  0  0  0  0  0  0  0  0  0
   11.4478  -16.3788   26.1801 C   0  0  2  0  0  0  0  0  0  0  0  0
   10.3757  -16.0024   25.2023 N   0  0  0  0  0  0  0  0  0  0  0  0
   11.7145  -17.7966   26.0723 C   0  0  0  0  0  0  0  0  0  0  0  0
   10.8822  -18.6735   25.4255 O   0  0  0  0  0  0  0  0  0  0  0  0
   12.7653  -18.3000   26.5972 O   0  0  0  0  0  0  0  0  0  0  0  0
  2  1  1  1
  2  3  1  0
  3  4  1  0
  4  5  2  0
  5  6  1  0
  7  6  2  0
  8  7  1  0
  9  8  2  0
  9  4  1  0
 10  2  1  0
 10 11  2  0
 13 12  1  0
 13 23  2  0
 14 13  1  0
 15 14  2  0
 15 16  1  0
 16 22  2  0
 17 16  1  0
 18 19  1  0
 18 17  1  1
 19 10  1  0
 20 18  1  0
 21 20  2  0
 22 23  1  0
 25 27  1  0
 25 24  1  1
 26 25  1  0
 28 27  1  1
 28 30  1  0
 28 29  1  0
 29 20  1  0
 30 31  1  0
 32 30  2  0
M  END
$$$$
