FYL.pdb
     RDKit          3D

 32 33  0  0  1  0  0  0  0  0999 V2000
    7.4782  -18.3667   21.2396 N   0  0  0  0  0  0  0  0  0  0  0  0
    7.8327  -17.1882   21.9664 C   0  0  1  0  0  0  0  0  0  0  0  0
    6.7030  -16.8649   22.9437 C   0  0  0  0  0  0  0  0  0  0  0  0
    6.8438  -15.4323   23.3244 C   0  0  0  0  0  0  0  0  0  0  0  0
    6.6099  -14.9785   24.6059 C   0  0  0  0  0  0  0  0  0  0  0  0
    6.7439  -13.6606   24.9374 C   0  0  0  0  0  0  0  0  0  0  0  0
    7.1207  -12.7100   24.0089 C   0  0  0  0  0  0  0  0  0  0  0  0
    7.3567  -13.1508   22.7272 C   0  0  0  0  0  0  0  0  0  0  0  0
    7.2242  -14.4764   22.3841 C   0  0  0  0  0  0  0  0  0  0  0  0
    9.0670  -17.3155   22.7577 C   0  0  0  0  0  0  0  0  0  0  0  0
    9.1946  -18.3102   23.5017 O   0  0  0  0  0  0  0  0  0  0  0  0
   17.7631  -17.0313   24.2422 O   0  0  0  0  0  0  0  0  0  0  0  0
   16.4383  -16.7067   23.8806 C   0  0  0  0  0  0  0  0  0  0  0  0
   15.7798  -15.7625   24.6155 C   0  0  0  0  0  0  0  0  0  0  0  0
   14.4703  -15.4183   24.2852 C   0  0  0  0  0  0  0  0  0  0  0  0
   13.8137  -16.0061   23.2312 C   0  0  0  0  0  0  0  0  0  0  0  0
   12.4286  -15.6289   22.8950 C   0  0  0  0  0  0  0  0  0  0  0  0
   11.4015  -16.6177   23.3986 C   0  0  2  0  0  0  0  0  0  0  0  0
   10.1354  -16.3764   22.7346 N   0  0  0  0  0  0  0  0  0  0  0  0
   11.2707  -16.6593   24.8638 C   0  0  0  0  0  0  0  0  0  0  0  0
   12.2248  -17.2017   25.5183 O   0  0  0  0  0  0  0  0  0  0  0  0
   14.5084  -16.9506   22.5162 C   0  0  0  0  0  0  0  0  0  0  0  0
   15.8123  -17.3064   22.8298 C   0  0  0  0  0  0  0  0  0  0  0  0
    8.3059  -12.8697   27.5827 C   0  0  0  0  0  0  0  0  0  0  0  0
    9.5711  -13.6979   27.1822 C   0  0  1  0  0  0  0  0  0  0  0  0
   10.6468  -13.1362   28.0958 C   0  0  0  0  0  0  0  0  0  0  0  0
    9.1929  -15.1018   27.4322 C   0  0  0  0  0  0  0  0  0  0  0  0
   10.1445  -16.1977   27.0951 C   0  0  2  0  0  0  0  0  0  0  0  0
   10.1972  -16.1567   25.5976 N   0  0  0  0  0  0  0  0  0  0  0  0
    9.8284  -17.5426   27.5241 C   0  0  0  0  0  0  0  0  0  0  0  0
    9.2443  -18.4769   26.7080 O   0  0  0  0  0  0  0  0  0  0  0  0
   10.0846  -17.9190   28.7182 O   0  0  0  0  0  0  0  0  0  0  0  0
  2  1  1  1
  2  3  1  0
  3  4  1  0
  4  5  2  0
  5  6  1  0
  7  6  2  0
  8  7  1  0
  9  8  2  0
  9  4  1  0
 10  2  1  0
 10 11  2  0
 13 12  1  0
 13 23  2  0
 14 13  1  0
 15 14  2  0
 15 16  1  0
 16 22  2  0
 17 16  1  0
 18 19  1  0
 18 17  1  1
 19 10  1  0
 20 18  1  0
 21 20  2  0
 22 23  1  0
 25 27  1  0
 25 24  1  1
 26 25  1  0
 28 27  1  6
 28 30  1  0
 28 29  1  0
 29 20  1  0
 30 31  1  0
 32 30  2  0
M  END
$$$$
