FYL.pdb
     RDKit          3D

 32 33  0  0  1  0  0  0  0  0999 V2000
    5.5573  -18.0177   23.2661 N   0  0  0  0  0  0  0  0  0  0  0  0
    6.1951  -16.8353   23.7537 C   0  0  1  0  0  0  0  0  0  0  0  0
    5.9356  -16.7307   25.2561 C   0  0  0  0  0  0  0  0  0  0  0  0
    6.4411  -15.4026   25.7011 C   0  0  0  0  0  0  0  0  0  0  0  0
    7.7226  -15.2176   26.1768 C   0  0  0  0  0  0  0  0  0  0  0  0
    8.1695  -13.9921   26.5807 C   0  0  0  0  0  0  0  0  0  0  0  0
    7.3639  -12.8711   26.5353 C   0  0  0  0  0  0  0  0  0  0  0  0
    6.0834  -13.0433   26.0626 C   0  0  0  0  0  0  0  0  0  0  0  0
    5.6246  -14.2740   25.6536 C   0  0  0  0  0  0  0  0  0  0  0  0
    7.6542  -16.8143   23.5634 C   0  0  0  0  0  0  0  0  0  0  0  0
    8.2714  -17.8995   23.5894 O   0  0  0  0  0  0  0  0  0  0  0  0
    7.4429  -14.0663   17.2305 O   0  0  0  0  0  0  0  0  0  0  0  0
    8.0984  -14.1265   18.4786 C   0  0  0  0  0  0  0  0  0  0  0  0
    9.0855  -15.0551   18.6470 C   0  0  0  0  0  0  0  0  0  0  0  0
    9.7532  -15.1414   19.8673 C   0  0  0  0  0  0  0  0  0  0  0  0
    9.4456  -14.3117   20.9183 C   0  0  0  0  0  0  0  0  0  0  0  0
   10.1632  -14.4158   22.2020 C   0  0  0  0  0  0  0  0  0  0  0  0
    9.8198  -15.6673   22.9782 C   0  0  2  0  0  0  0  0  0  0  0  0
    8.4188  -15.6336   23.3498 N   0  0  0  0  0  0  0  0  0  0  0  0
   10.7018  -15.9264   24.1273 C   0  0  0  0  0  0  0  0  0  0  0  0
   11.9608  -15.9186   23.9083 O   0  0  0  0  0  0  0  0  0  0  0  0
    8.4478  -13.3912   20.7109 C   0  0  0  0  0  0  0  0  0  0  0  0
    7.7719  -13.2903   19.5033 C   0  0  0  0  0  0  0  0  0  0  0  0
    8.7739  -14.3329   28.0267 C   0  0  0  0  0  0  0  0  0  0  0  0
   10.2381  -14.3423   27.4761 C   0  0  1  0  0  0  0  0  0  0  0  0
   10.9230  -13.2785   28.3166 C   0  0  0  0  0  0  0  0  0  0  0  0
   10.7088  -15.7239   27.6908 C   0  0  0  0  0  0  0  0  0  0  0  0
   11.2310  -16.5166   26.5423 C   0  0  2  0  0  0  0  0  0  0  0  0
   10.2818  -16.1776   25.4327 N   0  0  0  0  0  0  0  0  0  0  0  0
   11.3130  -17.9546   26.6765 C   0  0  0  0  0  0  0  0  0  0  0  0
   12.3057  -18.5914   27.3759 O   0  0  0  0  0  0  0  0  0  0  0  0
   10.4392  -18.7077   26.1264 O   0  0  0  0  0  0  0  0  0  0  0  0
  2  1  1  1
  2  3  1  0
  3  4  1  0
  4  5  2  0
  5  6  1  0
  7  6  2  0
  8  7  1  0
  9  8  2  0
  9  4  1  0
 10  2  1  0
 10 11  2  0
 13 12  1  0
 13 23  2  0
 14 13  1  0
 15 14  2  0
 15 16  1  0
 16 22  2  0
 17 16  1  0
 18 19  1  0
 18 17  1  1
 19 10  1  0
 20 18  1  0
 21 20  2  0
 22 23  1  0
 25 27  1  0
 25 24  1  1
 26 25  1  0
 28 27  1  1
 28 30  1  0
 28 29  1  0
 29 20  1  0
 30 31  1  0
 32 30  2  0
M  END
$$$$
