FYL.pdb
     RDKit          3D

 32 33  0  0  1  0  0  0  0  0999 V2000
    6.4056  -20.8784   23.6687 N   0  0  0  0  0  0  0  0  0  0  0  0
    6.5713  -19.6407   24.3640 C   0  0  1  0  0  0  0  0  0  0  0  0
    7.3732  -19.9055   25.6377 C   0  0  0  0  0  0  0  0  0  0  0  0
    7.4143  -18.6316   26.4076 C   0  0  0  0  0  0  0  0  0  0  0  0
    6.3892  -17.7093   26.3719 C   0  0  0  0  0  0  0  0  0  0  0  0
    6.4437  -16.5459   27.0847 C   0  0  0  0  0  0  0  0  0  0  0  0
    7.5273  -16.2284   27.8801 C   0  0  0  0  0  0  0  0  0  0  0  0
    8.5562  -17.1407   27.9238 C   0  0  0  0  0  0  0  0  0  0  0  0
    8.5099  -18.3153   27.2091 C   0  0  0  0  0  0  0  0  0  0  0  0
    7.2966  -18.6123   23.6011 C   0  0  0  0  0  0  0  0  0  0  0  0
    8.4505  -18.8736   23.2018 O   0  0  0  0  0  0  0  0  0  0  0  0
    8.7212  -12.0837   17.8170 O   0  0  0  0  0  0  0  0  0  0  0  0
    8.1483  -12.9167   18.8014 C   0  0  0  0  0  0  0  0  0  0  0  0
    7.9521  -14.2342   18.4999 C   0  0  0  0  0  0  0  0  0  0  0  0
    7.3883  -15.0845   19.4494 C   0  0  0  0  0  0  0  0  0  0  0  0
    7.0197  -14.6333   20.6936 C   0  0  0  0  0  0  0  0  0  0  0  0
    6.4260  -15.5472   21.6866 C   0  0  0  0  0  0  0  0  0  0  0  0
    7.4496  -16.4054   22.3954 C   0  0  2  0  0  0  0  0  0  0  0  0
    6.7710  -17.3289   23.2834 N   0  0  0  0  0  0  0  0  0  0  0  0
    8.5087  -15.6437   23.0764 C   0  0  0  0  0  0  0  0  0  0  0  0
    9.2789  -14.9346   22.3436 O   0  0  0  0  0  0  0  0  0  0  0  0
    7.2326  -13.3030   20.9596 C   0  0  0  0  0  0  0  0  0  0  0  0
    7.7924  -12.4412   20.0273 C   0  0  0  0  0  0  0  0  0  0  0  0
    7.1495  -12.6767   26.9652 C   0  0  0  0  0  0  0  0  0  0  0  0
    7.6773  -13.3918   25.6778 C   0  0  1  0  0  0  0  0  0  0  0  0
    7.7302  -12.2642   24.6615 C   0  0  0  0  0  0  0  0  0  0  0  0
    8.9824  -13.9553   26.0721 C   0  0  0  0  0  0  0  0  0  0  0  0
    9.7740  -14.7502   25.0916 C   0  0  2  0  0  0  0  0  0  0  0  0
    8.7422  -15.6287   24.4507 N   0  0  0  0  0  0  0  0  0  0  0  0
   10.8591  -15.5707   25.5838 C   0  0  0  0  0  0  0  0  0  0  0  0
   10.8374  -16.9415   25.5630 O   0  0  0  0  0  0  0  0  0  0  0  0
   11.9075  -15.0311   26.0765 O   0  0  0  0  0  0  0  0  0  0  0  0
  2  1  1  6
  2  3  1  0
  3  4  1  0
  4  5  2  0
  5  6  1  0
  7  6  2  0
  8  7  1  0
  9  8  2  0
  9  4  1  0
 10  2  1  0
 10 11  2  0
 13 12  1  0
 13 23  2  0
 14 13  1  0
 15 14  2  0
 15 16  1  0
 16 22  2  0
 17 16  1  0
 18 19  1  0
 18 17  1  1
 19 10  1  0
 20 18  1  0
 21 20  2  0
 22 23  1  0
 25 27  1  0
 25 24  1  1
 26 25  1  0
 28 27  1  1
 28 30  1  0
 28 29  1  0
 29 20  1  0
 30 31  1  0
 32 30  2  0
M  END
$$$$
