FYL.pdb
     RDKit          3D

 32 33  0  0  1  0  0  0  0  0999 V2000
    7.0337  -17.6178   20.5831 N   0  0  0  0  0  0  0  0  0  0  0  0
    7.5542  -16.5474   21.3743 C   0  0  1  0  0  0  0  0  0  0  0  0
    6.4355  -16.0229   22.2738 C   0  0  0  0  0  0  0  0  0  0  0  0
    6.9025  -14.7340   22.8549 C   0  0  0  0  0  0  0  0  0  0  0  0
    7.2830  -13.6623   22.0741 C   0  0  0  0  0  0  0  0  0  0  0  0
    7.7088  -12.4873   22.6244 C   0  0  0  0  0  0  0  0  0  0  0  0
    7.7820  -12.3070   23.9918 C   0  0  0  0  0  0  0  0  0  0  0  0
    7.4051  -13.3690   24.7810 C   0  0  0  0  0  0  0  0  0  0  0  0
    6.9749  -14.5564   24.2355 C   0  0  0  0  0  0  0  0  0  0  0  0
    8.6708  -16.9332   22.2519 C   0  0  0  0  0  0  0  0  0  0  0  0
    8.4469  -17.7434   23.1753 O   0  0  0  0  0  0  0  0  0  0  0  0
   16.8795  -18.9507   24.8879 O   0  0  0  0  0  0  0  0  0  0  0  0
   15.7554  -18.4179   24.2220 C   0  0  0  0  0  0  0  0  0  0  0  0
   15.6173  -17.0601   24.1704 C   0  0  0  0  0  0  0  0  0  0  0  0
   14.5185  -16.5008   23.5204 C   0  0  0  0  0  0  0  0  0  0  0  0
   13.5591  -17.2820   22.9231 C   0  0  0  0  0  0  0  0  0  0  0  0
   12.4038  -16.6734   22.2385 C   0  0  0  0  0  0  0  0  0  0  0  0
   11.0917  -16.9178   22.9494 C   0  0  2  0  0  0  0  0  0  0  0  0
   10.0003  -16.4437   22.1212 N   0  0  0  0  0  0  0  0  0  0  0  0
   11.0367  -16.3786   24.3176 C   0  0  0  0  0  0  0  0  0  0  0  0
   11.2318  -15.1234   24.4570 O   0  0  0  0  0  0  0  0  0  0  0  0
   13.7325  -18.6423   22.9959 C   0  0  0  0  0  0  0  0  0  0  0  0
   14.8195  -19.2174   23.6385 C   0  0  0  0  0  0  0  0  0  0  0  0
   10.1695  -13.7421   28.2781 C   0  0  0  0  0  0  0  0  0  0  0  0
    9.1414  -14.8846   27.9868 C   0  0  1  0  0  0  0  0  0  0  0  0
    7.8302  -14.1317   27.8423 C   0  0  0  0  0  0  0  0  0  0  0  0
    9.6417  -15.5332   26.7598 C   0  0  0  0  0  0  0  0  0  0  0  0
   10.7651  -16.5085   26.8414 C   0  0  2  0  0  0  0  0  0  0  0  0
   10.7887  -17.1189   25.4725 N   0  0  0  0  0  0  0  0  0  0  0  0
   10.6949  -17.5610   27.8313 C   0  0  0  0  0  0  0  0  0  0  0  0
    9.9353  -18.6921   27.6769 O   0  0  0  0  0  0  0  0  0  0  0  0
   11.3542  -17.4697   28.9223 O   0  0  0  0  0  0  0  0  0  0  0  0
  2  1  1  1
  2  3  1  0
  3  4  1  0
  4  5  2  0
  5  6  1  0
  7  6  2  0
  8  7  1  0
  9  8  2  0
  9  4  1  0
 10  2  1  0
 10 11  2  0
 13 12  1  0
 13 23  2  0
 14 13  1  0
 15 14  2  0
 15 16  1  0
 16 22  2  0
 17 16  1  0
 18 19  1  0
 18 17  1  6
 19 10  1  0
 20 18  1  0
 21 20  2  0
 22 23  1  0
 25 27  1  0
 25 24  1  6
 26 25  1  0
 28 27  1  6
 28 30  1  0
 28 29  1  0
 29 20  1  0
 30 31  1  0
 32 30  2  0
M  END
$$$$
