FYL.pdb
     RDKit          3D

 32 33  0  0  1  0  0  0  0  0999 V2000
    5.8833  -20.7621   23.4826 N   0  0  0  0  0  0  0  0  0  0  0  0
    6.2475  -19.5708   24.1831 C   0  0  1  0  0  0  0  0  0  0  0  0
    7.1817  -19.9516   25.3310 C   0  0  0  0  0  0  0  0  0  0  0  0
    7.5216  -18.6981   26.0594 C   0  0  0  0  0  0  0  0  0  0  0  0
    6.6627  -17.6206   26.1233 C   0  0  0  0  0  0  0  0  0  0  0  0
    6.9910  -16.4785   26.7960 C   0  0  0  0  0  0  0  0  0  0  0  0
    8.2000  -16.3392   27.4491 C   0  0  0  0  0  0  0  0  0  0  0  0
    9.0651  -17.4074   27.3923 C   0  0  0  0  0  0  0  0  0  0  0  0
    8.7429  -18.5618   26.7171 C   0  0  0  0  0  0  0  0  0  0  0  0
    6.9559  -18.5786   23.3588 C   0  0  0  0  0  0  0  0  0  0  0  0
    8.1023  -18.8572   22.9499 O   0  0  0  0  0  0  0  0  0  0  0  0
    8.8156  -11.8360   17.9655 O   0  0  0  0  0  0  0  0  0  0  0  0
    8.1702  -12.6709   18.9023 C   0  0  0  0  0  0  0  0  0  0  0  0
    8.0848  -14.0061   18.6282 C   0  0  0  0  0  0  0  0  0  0  0  0
    7.4538  -14.8588   19.5322 C   0  0  0  0  0  0  0  0  0  0  0  0
    6.9088  -14.3925   20.7040 C   0  0  0  0  0  0  0  0  0  0  0  0
    6.2461  -15.3091   21.6497 C   0  0  0  0  0  0  0  0  0  0  0  0
    7.1876  -16.3256   22.2552 C   0  0  2  0  0  0  0  0  0  0  0  0
    6.4217  -17.3122   22.9914 N   0  0  0  0  0  0  0  0  0  0  0  0
    8.2729  -15.7402   23.0585 C   0  0  0  0  0  0  0  0  0  0  0  0
    9.3112  -15.3397   22.4305 O   0  0  0  0  0  0  0  0  0  0  0  0
    7.0145  -13.0446   20.9444 C   0  0  0  0  0  0  0  0  0  0  0  0
    7.6388  -12.1802   20.0566 C   0  0  0  0  0  0  0  0  0  0  0  0
    6.6377  -12.9399   27.2162 C   0  0  0  0  0  0  0  0  0  0  0  0
    7.1891  -13.5136   25.8694 C   0  0  1  0  0  0  0  0  0  0  0  0
    7.2068  -12.2943   24.9638 C   0  0  0  0  0  0  0  0  0  0  0  0
    8.5112  -14.0700   26.2140 C   0  0  0  0  0  0  0  0  0  0  0  0
    9.3035  -14.7943   25.1807 C   0  0  2  0  0  0  0  0  0  0  0  0
    8.2641  -15.5841   24.4438 N   0  0  0  0  0  0  0  0  0  0  0  0
   10.3574  -15.6840   25.6170 C   0  0  0  0  0  0  0  0  0  0  0  0
   11.5796  -15.2461   26.0581 O   0  0  0  0  0  0  0  0  0  0  0  0
   10.1846  -16.9501   25.6014 O   0  0  0  0  0  0  0  0  0  0  0  0
  2  1  1  6
  2  3  1  0
  3  4  1  0
  4  5  2  0
  5  6  1  0
  7  6  2  0
  8  7  1  0
  9  8  2  0
  9  4  1  0
 10  2  1  0
 10 11  2  0
 13 12  1  0
 13 23  2  0
 14 13  1  0
 15 14  2  0
 15 16  1  0
 16 22  2  0
 17 16  1  0
 18 19  1  0
 18 17  1  1
 19 10  1  0
 20 18  1  0
 21 20  2  0
 22 23  1  0
 25 27  1  0
 25 24  1  1
 26 25  1  0
 28 27  1  1
 28 30  1  0
 28 29  1  0
 29 20  1  0
 30 31  1  0
 32 30  2  0
M  END
$$$$
