FYL.pdb
     RDKit          3D

 32 33  0  0  1  0  0  0  0  0999 V2000
    7.5012  -19.7108   25.8591 N   0  0  0  0  0  0  0  0  0  0  0  0
    6.5218  -19.1608   24.9754 C   0  0  1  0  0  0  0  0  0  0  0  0
    5.5901  -18.2609   25.7864 C   0  0  0  0  0  0  0  0  0  0  0  0
    6.4472  -17.3403   26.5834 C   0  0  0  0  0  0  0  0  0  0  0  0
    6.3965  -15.9692   26.4408 C   0  0  0  0  0  0  0  0  0  0  0  0
    7.1901  -15.1398   27.1804 C   0  0  0  0  0  0  0  0  0  0  0  0
    8.0865  -15.6273   28.1112 C   0  0  0  0  0  0  0  0  0  0  0  0
    8.1461  -16.9934   28.2623 C   0  0  0  0  0  0  0  0  0  0  0  0
    7.3505  -17.8367   27.5217 C   0  0  0  0  0  0  0  0  0  0  0  0
    7.0816  -18.3393   23.8902 C   0  0  0  0  0  0  0  0  0  0  0  0
    7.6987  -18.9139   22.9693 O   0  0  0  0  0  0  0  0  0  0  0  0
    9.1810  -12.1615   18.0185 O   0  0  0  0  0  0  0  0  0  0  0  0
    8.6027  -12.8950   19.0761 C   0  0  0  0  0  0  0  0  0  0  0  0
    8.4413  -12.2741   20.2818 C   0  0  0  0  0  0  0  0  0  0  0  0
    7.8733  -12.9699   21.3475 C   0  0  0  0  0  0  0  0  0  0  0  0
    7.4662  -14.2760   21.2214 C   0  0  0  0  0  0  0  0  0  0  0  0
    6.8659  -14.9965   22.3591 C   0  0  0  0  0  0  0  0  0  0  0  0
    7.7287  -16.1276   22.8717 C   0  0  2  0  0  0  0  0  0  0  0  0
    6.9681  -16.9230   23.8156 N   0  0  0  0  0  0  0  0  0  0  0  0
    9.0276  -15.6983   23.4141 C   0  0  0  0  0  0  0  0  0  0  0  0
    9.8082  -15.0662   22.6241 O   0  0  0  0  0  0  0  0  0  0  0  0
    7.6447  -14.8660   19.9943 C   0  0  0  0  0  0  0  0  0  0  0  0
    8.2081  -14.1897   18.9218 C   0  0  0  0  0  0  0  0  0  0  0  0
    9.1082  -14.8847   28.7404 C   0  0  0  0  0  0  0  0  0  0  0  0
    9.0419  -14.8156   27.1790 C   0  0  1  0  0  0  0  0  0  0  0  0
    8.6199  -13.3795   26.9210 C   0  0  0  0  0  0  0  0  0  0  0  0
   10.4024  -15.1696   26.7315 C   0  0  0  0  0  0  0  0  0  0  0  0
   10.7033  -15.2643   25.2754 C   0  0  2  0  0  0  0  0  0  0  0  0
    9.4777  -15.9207   24.7146 N   0  0  0  0  0  0  0  0  0  0  0  0
   11.8736  -16.0058   24.8591 C   0  0  0  0  0  0  0  0  0  0  0  0
   11.8111  -17.1793   24.1526 O   0  0  0  0  0  0  0  0  0  0  0  0
   13.0447  -15.5841   25.1486 O   0  0  0  0  0  0  0  0  0  0  0  0
  2  1  1  1
  2  3  1  0
  3  4  1  0
  4  5  2  0
  5  6  1  0
  7  6  2  0
  8  7  1  0
  9  8  2  0
  9  4  1  0
 10  2  1  0
 10 11  2  0
 13 12  1  0
 13 23  2  0
 14 13  1  0
 15 14  2  0
 15 16  1  0
 16 22  2  0
 17 16  1  0
 18 19  1  0
 18 17  1  1
 19 10  1  0
 20 18  1  0
 21 20  2  0
 22 23  1  0
 25 27  1  0
 25 24  1  1
 26 25  1  0
 28 27  1  1
 28 30  1  0
 28 29  1  0
 29 20  1  0
 30 31  1  0
 32 30  2  0
M  END
$$$$
