FYL.pdb
     RDKit          3D

 32 33  0  0  1  0  0  0  0  0999 V2000
    6.5127  -17.9615   19.5507 N   0  0  0  0  0  0  0  0  0  0  0  0
    6.9042  -16.8309   20.3325 C   0  0  1  0  0  0  0  0  0  0  0  0
    5.9936  -15.6570   19.9745 C   0  0  0  0  0  0  0  0  0  0  0  0
    6.8698  -14.5322   19.5451 C   0  0  0  0  0  0  0  0  0  0  0  0
    7.4099  -13.6297   20.4376 C   0  0  0  0  0  0  0  0  0  0  0  0
    8.2117  -12.6038   20.0260 C   0  0  0  0  0  0  0  0  0  0  0  0
    8.5260  -12.4133   18.6946 C   0  0  0  0  0  0  0  0  0  0  0  0
    7.9930  -13.3073   17.7949 C   0  0  0  0  0  0  0  0  0  0  0  0
    7.1843  -14.3437   18.2004 C   0  0  0  0  0  0  0  0  0  0  0  0
    6.7963  -17.0357   21.7859 C   0  0  0  0  0  0  0  0  0  0  0  0
    5.8728  -16.4607   22.3988 O   0  0  0  0  0  0  0  0  0  0  0  0
    8.4312  -19.6564   30.1352 O   0  0  0  0  0  0  0  0  0  0  0  0
    8.3627  -19.5354   28.7310 C   0  0  0  0  0  0  0  0  0  0  0  0
    9.5317  -19.4295   28.0328 C   0  0  0  0  0  0  0  0  0  0  0  0
    9.4999  -19.3084   26.6447 C   0  0  0  0  0  0  0  0  0  0  0  0
    8.3153  -19.2921   25.9489 C   0  0  0  0  0  0  0  0  0  0  0  0
    8.3002  -19.1647   24.4802 C   0  0  0  0  0  0  0  0  0  0  0  0
    7.6485  -17.8882   23.9982 C   0  0  2  0  0  0  0  0  0  0  0  0
    7.6783  -17.8502   22.5492 N   0  0  0  0  0  0  0  0  0  0  0  0
    8.1952  -16.6644   24.6057 C   0  0  0  0  0  0  0  0  0  0  0  0
    9.3802  -16.3259   24.2677 O   0  0  0  0  0  0  0  0  0  0  0  0
    7.1614  -19.4008   26.6854 C   0  0  0  0  0  0  0  0  0  0  0  0
    7.1730  -19.5221   28.0676 C   0  0  0  0  0  0  0  0  0  0  0  0
    8.0417  -11.6206   26.3539 C   0  0  0  0  0  0  0  0  0  0  0  0
    7.2350  -12.5616   27.3083 C   0  0  1  0  0  0  0  0  0  0  0  0
    5.9880  -11.7488   27.6110 C   0  0  0  0  0  0  0  0  0  0  0  0
    7.0182  -13.7920   26.5239 C   0  0  0  0  0  0  0  0  0  0  0  0
    8.1774  -14.6557   26.1630 C   0  0  2  0  0  0  0  0  0  0  0  0
    7.5311  -15.8433   25.5157 N   0  0  0  0  0  0  0  0  0  0  0  0
    9.0563  -15.1082   27.2192 C   0  0  0  0  0  0  0  0  0  0  0  0
    8.6835  -16.0223   28.1707 O   0  0  0  0  0  0  0  0  0  0  0  0
   10.2474  -14.6540   27.3102 O   0  0  0  0  0  0  0  0  0  0  0  0
  2  1  1  6
  2  3  1  0
  3  4  1  0
  4  5  2  0
  5  6  1  0
  7  6  2  0
  8  7  1  0
  9  8  2  0
  9  4  1  0
 10  2  1  0
 10 11  2  0
 13 12  1  0
 13 23  2  0
 14 13  1  0
 15 14  2  0
 15 16  1  0
 16 22  2  0
 17 16  1  0
 18 19  1  0
 18 17  1  1
 19 10  1  0
 20 18  1  0
 21 20  2  0
 22 23  1  0
 25 27  1  0
 25 24  1  6
 26 25  1  0
 28 27  1  1
 28 30  1  0
 28 29  1  0
 29 20  1  0
 30 31  1  0
 32 30  2  0
M  END
$$$$
