AWW.pdb
     RDKit          3D

 34 37  0  0  1  0  0  0  0  0999 V2000
   11.7958  -18.3105   18.4001 C   0  0  0  0  0  0  0  0  0  0  0  0
   10.2923  -18.2837   18.6116 C   0  0  2  0  0  0  0  0  0  0  0  0
    9.7009  -17.5632   17.5264 N   0  0  0  0  0  0  0  0  0  0  0  0
   10.0302  -17.5593   19.8938 C   0  0  0  0  0  0  0  0  0  0  0  0
   10.7255  -16.5665   20.2168 O   0  0  0  0  0  0  0  0  0  0  0  0
    9.0021  -17.9623   20.7768 N   0  0  0  0  0  0  0  0  0  0  0  0
    8.6706  -17.2023   21.9292 C   0  0  1  0  0  0  0  0  0  0  0  0
    7.2574  -17.4297   22.4071 C   0  0  0  0  0  0  0  0  0  0  0  0
    7.0023  -16.6866   23.6571 C   0  0  0  0  0  0  0  0  0  0  0  0
    6.6210  -17.1613   24.8991 C   0  0  0  0  0  0  0  0  0  0  0  0
    6.5056  -16.1148   25.7519 N   0  0  0  0  0  0  0  0  0  0  0  0
    6.7988  -14.9701   25.1092 C   0  0  0  0  0  0  0  0  0  0  0  0
    6.8425  -13.6423   25.4760 C   0  0  0  0  0  0  0  0  0  0  0  0
    7.1841  -12.6421   24.5924 C   0  0  0  0  0  0  0  0  0  0  0  0
    7.4959  -12.9791   23.2859 C   0  0  0  0  0  0  0  0  0  0  0  0
    7.4527  -14.3069   22.9163 C   0  0  0  0  0  0  0  0  0  0  0  0
    7.1069  -15.3232   23.8102 C   0  0  0  0  0  0  0  0  0  0  0  0
    9.6738  -17.4491   22.9771 C   0  0  0  0  0  0  0  0  0  0  0  0
   10.2413  -18.5650   22.9921 O   0  0  0  0  0  0  0  0  0  0  0  0
   10.0386  -16.5070   23.9682 N   0  0  0  0  0  0  0  0  0  0  0  0
   11.1599  -16.7883   24.8930 C   0  0  1  0  0  0  0  0  0  0  0  0
   11.5167  -15.5700   25.6560 C   0  0  0  0  0  0  0  0  0  0  0  0
   10.6139  -15.2405   26.7657 C   0  0  0  0  0  0  0  0  0  0  0  0
   10.4895  -15.9595   27.9645 C   0  0  0  0  0  0  0  0  0  0  0  0
    9.5651  -15.4237   28.7536 N   0  0  0  0  0  0  0  0  0  0  0  0
    9.0577  -14.3528   28.1152 C   0  0  0  0  0  0  0  0  0  0  0  0
    8.0836  -13.4519   28.5166 C   0  0  0  0  0  0  0  0  0  0  0  0
    7.7540  -12.4184   27.6717 C   0  0  0  0  0  0  0  0  0  0  0  0
    8.3713  -12.2640   26.4410 C   0  0  0  0  0  0  0  0  0  0  0  0
    9.3333  -13.1699   26.0650 C   0  0  0  0  0  0  0  0  0  0  0  0
    9.6809  -14.2132   26.8922 C   0  0  0  0  0  0  0  0  0  0  0  0
   10.8928  -18.0167   25.6359 C   0  0  0  0  0  0  0  0  0  0  0  0
    9.7093  -18.5206   25.7083 O   0  0  0  0  0  0  0  0  0  0  0  0
   11.8461  -18.7604   26.3201 O   0  0  0  0  0  0  0  0  0  0  0  0
  2  1  1  6
  2  4  1  0
  2  3  1  0
  4  5  2  0
  6  7  1  0
  6  4  1  0
  7  8  1  1
  9 17  1  0
  9  8  1  0
 10  9  2  0
 11 10  1  0
 11 12  1  0
 12 13  1  0
 12 17  2  0
 13 14  2  0
 14 15  1  0
 16 15  2  0
 17 16  1  0
 18  7  1  0
 19 18  2  0
 20 18  1  0
 21 22  1  1
 21 20  1  0
 22 23  1  0
 23 31  1  0
 24 23  2  0
 24 25  1  0
 25 26  1  0
 26 27  1  0
 27 28  2  0
 29 28  1  0
 30 29  2  0
 31 26  2  0
 31 30  1  0
 32 34  1  0
 32 21  1  0
 33 32  2  0
M  END
$$$$
