AWW.pdb
     RDKit          3D

 34 37  0  0  1  0  0  0  0  0999 V2000
    7.6028  -21.3425   24.4605 C   0  0  0  0  0  0  0  0  0  0  0  0
    7.5800  -21.2736   22.9437 C   0  0  2  0  0  0  0  0  0  0  0  0
    8.4130  -22.3200   22.4360 N   0  0  0  0  0  0  0  0  0  0  0  0
    8.1448  -19.9474   22.5440 C   0  0  0  0  0  0  0  0  0  0  0  0
    9.3860  -19.7683   22.5124 O   0  0  0  0  0  0  0  0  0  0  0  0
    7.3106  -18.8615   22.1917 N   0  0  0  0  0  0  0  0  0  0  0  0
    7.8465  -17.6315   21.7275 C   0  0  1  0  0  0  0  0  0  0  0  0
    6.9660  -16.9420   20.7143 C   0  0  0  0  0  0  0  0  0  0  0  0
    7.7304  -15.9278   19.9615 C   0  0  0  0  0  0  0  0  0  0  0  0
    8.5140  -16.0783   18.8316 C   0  0  0  0  0  0  0  0  0  0  0  0
    9.0231  -14.8708   18.4872 N   0  0  0  0  0  0  0  0  0  0  0  0
    8.5988  -13.9343   19.3546 C   0  0  0  0  0  0  0  0  0  0  0  0
    8.7996  -12.5769   19.4825 C   0  0  0  0  0  0  0  0  0  0  0  0
    8.2286  -11.8372   20.4948 C   0  0  0  0  0  0  0  0  0  0  0  0
    7.4220  -12.4777   21.4204 C   0  0  0  0  0  0  0  0  0  0  0  0
    7.2196  -13.8360   21.2947 C   0  0  0  0  0  0  0  0  0  0  0  0
    7.7972  -14.5885   20.2693 C   0  0  0  0  0  0  0  0  0  0  0  0
    8.1659  -16.7762   22.8815 C   0  0  0  0  0  0  0  0  0  0  0  0
    7.7559  -15.5934   22.8640 O   0  0  0  0  0  0  0  0  0  0  0  0
    8.9059  -17.2042   24.0095 N   0  0  0  0  0  0  0  0  0  0  0  0
   10.1413  -16.4929   24.4092 C   0  0  1  0  0  0  0  0  0  0  0  0
    9.8395  -15.0803   24.7368 C   0  0  0  0  0  0  0  0  0  0  0  0
    8.5440  -14.8526   25.3885 C   0  0  0  0  0  0  0  0  0  0  0  0
    7.5369  -15.8127   25.5720 C   0  0  0  0  0  0  0  0  0  0  0  0
    6.4729  -15.2865   26.1682 N   0  0  0  0  0  0  0  0  0  0  0  0
    6.7363  -13.9861   26.3947 C   0  0  0  0  0  0  0  0  0  0  0  0
    5.9608  -13.0096   27.0002 C   0  0  0  0  0  0  0  0  0  0  0  0
    6.4780  -11.7418   27.1258 C   0  0  0  0  0  0  0  0  0  0  0  0
    7.7455  -11.4275   26.6631 C   0  0  0  0  0  0  0  0  0  0  0  0
    8.4950  -12.4120   26.0661 C   0  0  0  0  0  0  0  0  0  0  0  0
    8.0001  -13.6886   25.9278 C   0  0  0  0  0  0  0  0  0  0  0  0
   10.8761  -17.2887   25.3885 C   0  0  0  0  0  0  0  0  0  0  0  0
   12.0285  -16.9212   25.8321 O   0  0  0  0  0  0  0  0  0  0  0  0
   10.4345  -18.4849   25.9396 O   0  0  0  0  0  0  0  0  0  0  0  0
  2  1  1  1
  2  4  1  0
  2  3  1  0
  4  5  2  0
  6  7  1  0
  6  4  1  0
  7  8  1  6
  9 17  1  0
  9  8  1  0
 10  9  2  0
 11 10  1  0
 11 12  1  0
 12 13  1  0
 12 17  2  0
 13 14  2  0
 14 15  1  0
 16 15  2  0
 17 16  1  0
 18  7  1  0
 19 18  2  0
 20 18  1  0
 21 22  1  1
 21 20  1  0
 22 23  1  0
 23 31  1  0
 24 23  2  0
 24 25  1  0
 25 26  1  0
 26 27  1  0
 27 28  2  0
 29 28  1  0
 30 29  2  0
 31 26  2  0
 31 30  1  0
 32 34  1  0
 32 21  1  0
 33 32  2  0
M  END
$$$$
