AWW.pdb
     RDKit          3D

 34 37  0  0  1  0  0  0  0  0999 V2000
   11.6540  -16.3923   18.4397 C   0  0  0  0  0  0  0  0  0  0  0  0
   10.2176  -16.4066   18.9321 C   0  0  2  0  0  0  0  0  0  0  0  0
    9.5042  -15.3644   18.2602 N   0  0  0  0  0  0  0  0  0  0  0  0
   10.2420  -16.1280   20.4016 C   0  0  0  0  0  0  0  0  0  0  0  0
   10.7036  -15.0456   20.8360 O   0  0  0  0  0  0  0  0  0  0  0  0
    9.7516  -17.0629   21.3422 N   0  0  0  0  0  0  0  0  0  0  0  0
    9.6421  -16.7436   22.7212 C   0  0  1  0  0  0  0  0  0  0  0  0
    8.2995  -17.0997   23.3109 C   0  0  0  0  0  0  0  0  0  0  0  0
    7.3687  -15.9574   23.2195 C   0  0  0  0  0  0  0  0  0  0  0  0
    6.3427  -15.7299   22.3201 C   0  0  0  0  0  0  0  0  0  0  0  0
    5.7519  -14.5478   22.6187 N   0  0  0  0  0  0  0  0  0  0  0  0
    6.3573  -13.9933   23.6843 C   0  0  0  0  0  0  0  0  0  0  0  0
    6.1761  -12.8286   24.3985 C   0  0  0  0  0  0  0  0  0  0  0  0
    6.9610  -12.4950   25.4803 C   0  0  0  0  0  0  0  0  0  0  0  0
    7.9710  -13.3595   25.8680 C   0  0  0  0  0  0  0  0  0  0  0  0
    8.1546  -14.5254   25.1550 C   0  0  0  0  0  0  0  0  0  0  0  0
    7.3601  -14.8664   24.0577 C   0  0  0  0  0  0  0  0  0  0  0  0
   10.7653  -17.3538   23.4501 C   0  0  0  0  0  0  0  0  0  0  0  0
   11.3767  -18.2971   22.8989 O   0  0  0  0  0  0  0  0  0  0  0  0
   11.1991  -16.9432   24.7332 N   0  0  0  0  0  0  0  0  0  0  0  0
   12.2920  -17.6665   25.4218 C   0  0  1  0  0  0  0  0  0  0  0  0
   12.8346  -16.8468   26.5297 C   0  0  0  0  0  0  0  0  0  0  0  0
   11.8823  -16.5376   27.6033 C   0  0  0  0  0  0  0  0  0  0  0  0
   11.4319  -17.4338   28.5849 C   0  0  0  0  0  0  0  0  0  0  0  0
   10.5503  -16.8579   29.3945 N   0  0  0  0  0  0  0  0  0  0  0  0
   10.3920  -15.5860   28.9832 C   0  0  0  0  0  0  0  0  0  0  0  0
    9.5992  -14.5725   29.4987 C   0  0  0  0  0  0  0  0  0  0  0  0
    9.6329  -13.3380   28.8941 C   0  0  0  0  0  0  0  0  0  0  0  0
   10.4360  -13.0929   27.7920 C   0  0  0  0  0  0  0  0  0  0  0  0
   11.2124  -14.1134   27.2990 C   0  0  0  0  0  0  0  0  0  0  0  0
   11.1963  -15.3581   27.8856 C   0  0  0  0  0  0  0  0  0  0  0  0
   11.8734  -19.0346   25.7139 C   0  0  0  0  0  0  0  0  0  0  0  0
   10.6382  -19.3943   25.6443 O   0  0  0  0  0  0  0  0  0  0  0  0
   12.7240  -20.0697   26.0810 O   0  0  0  0  0  0  0  0  0  0  0  0
  2  1  1  6
  2  4  1  0
  2  3  1  0
  4  5  2  0
  6  7  1  0
  6  4  1  0
  7  8  1  1
  9 17  1  0
  9  8  1  0
 10  9  2  0
 11 10  1  0
 11 12  1  0
 12 13  1  0
 12 17  2  0
 13 14  2  0
 14 15  1  0
 16 15  2  0
 17 16  1  0
 18  7  1  0
 19 18  2  0
 20 18  1  0
 21 22  1  1
 21 20  1  0
 22 23  1  0
 23 31  1  0
 24 23  2  0
 24 25  1  0
 25 26  1  0
 26 27  1  0
 27 28  2  0
 29 28  1  0
 30 29  2  0
 31 26  2  0
 31 30  1  0
 32 34  1  0
 32 21  1  0
 33 32  2  0
M  END
$$$$
