AWW.pdb
     RDKit          3D

 34 37  0  0  1  0  0  0  0  0999 V2000
   10.3373  -18.8644   18.9752 C   0  0  0  0  0  0  0  0  0  0  0  0
   10.3650  -19.0655   20.4801 C   0  0  2  0  0  0  0  0  0  0  0  0
    9.1682  -19.7499   20.8618 N   0  0  0  0  0  0  0  0  0  0  0  0
   10.3903  -17.7115   21.1154 C   0  0  0  0  0  0  0  0  0  0  0  0
   11.3464  -16.9275   20.9037 O   0  0  0  0  0  0  0  0  0  0  0  0
    9.3505  -17.2719   21.9668 N   0  0  0  0  0  0  0  0  0  0  0  0
    9.3596  -15.9749   22.5441 C   0  0  1  0  0  0  0  0  0  0  0  0
    7.9919  -15.3402   22.6058 C   0  0  0  0  0  0  0  0  0  0  0  0
    7.4647  -15.1011   21.2476 C   0  0  0  0  0  0  0  0  0  0  0  0
    6.5521  -15.8403   20.5168 C   0  0  0  0  0  0  0  0  0  0  0  0
    6.3644  -15.2417   19.3159 N   0  0  0  0  0  0  0  0  0  0  0  0
    7.1242  -14.1345   19.2361 C   0  0  0  0  0  0  0  0  0  0  0  0
    7.3243  -13.1698   18.2724 C   0  0  0  0  0  0  0  0  0  0  0  0
    8.1856  -12.1102   18.4547 C   0  0  0  0  0  0  0  0  0  0  0  0
    8.8781  -12.0068   19.6494 C   0  0  0  0  0  0  0  0  0  0  0  0
    8.6798  -12.9709   20.6152 C   0  0  0  0  0  0  0  0  0  0  0  0
    7.8070  -14.0463   20.4332 C   0  0  0  0  0  0  0  0  0  0  0  0
   10.0208  -16.0340   23.8573 C   0  0  0  0  0  0  0  0  0  0  0  0
   10.8850  -15.1660   24.1165 O   0  0  0  0  0  0  0  0  0  0  0  0
    9.7429  -17.0080   24.8459 N   0  0  0  0  0  0  0  0  0  0  0  0
   10.3219  -16.8848   26.2029 C   0  0  1  0  0  0  0  0  0  0  0  0
    9.9903  -15.5646   26.7867 C   0  0  0  0  0  0  0  0  0  0  0  0
    8.6168  -15.1035   26.5503 C   0  0  0  0  0  0  0  0  0  0  0  0
    7.5321  -15.9117   26.1764 C   0  0  0  0  0  0  0  0  0  0  0  0
    6.4291  -15.1904   26.0101 N   0  0  0  0  0  0  0  0  0  0  0  0
    6.7419  -13.9061   26.2641 C   0  0  0  0  0  0  0  0  0  0  0  0
    5.9454  -12.7718   26.2441 C   0  0  0  0  0  0  0  0  0  0  0  0
    6.5143  -11.5619   26.5655 C   0  0  0  0  0  0  0  0  0  0  0  0
    7.8537  -11.4585   26.9047 C   0  0  0  0  0  0  0  0  0  0  0  0
    8.6228  -12.5968   26.9170 C   0  0  0  0  0  0  0  0  0  0  0  0
    8.0776  -13.8196   26.5989 C   0  0  0  0  0  0  0  0  0  0  0  0
   10.0178  -18.0820   26.9816 C   0  0  0  0  0  0  0  0  0  0  0  0
   10.4694  -18.2450   28.1772 O   0  0  0  0  0  0  0  0  0  0  0  0
    9.2324  -19.1414   26.5450 O   0  0  0  0  0  0  0  0  0  0  0  0
  2  1  1  6
  2  4  1  0
  2  3  1  0
  4  5  2  0
  6  7  1  0
  6  4  1  0
  7  8  1  1
  9 17  1  0
  9  8  1  0
 10  9  2  0
 11 10  1  0
 11 12  1  0
 12 13  1  0
 12 17  2  0
 13 14  2  0
 14 15  1  0
 16 15  2  0
 17 16  1  0
 18  7  1  0
 19 18  2  0
 20 18  1  0
 21 22  1  1
 21 20  1  0
 22 23  1  0
 23 31  1  0
 24 23  2  0
 24 25  1  0
 25 26  1  0
 26 27  1  0
 27 28  2  0
 29 28  1  0
 30 29  2  0
 31 26  2  0
 31 30  1  0
 32 34  1  0
 32 21  1  0
 33 32  2  0
M  END
$$$$
