AWW.pdb
     RDKit          3D

 34 37  0  0  1  0  0  0  0  0999 V2000
    7.8301  -12.6536   18.9876 C   0  0  0  0  0  0  0  0  0  0  0  0
    8.5324  -13.9992   19.0331 C   0  0  2  0  0  0  0  0  0  0  0  0
    7.6526  -14.9816   18.4786 N   0  0  0  0  0  0  0  0  0  0  0  0
    8.7981  -14.3207   20.4696 C   0  0  0  0  0  0  0  0  0  0  0  0
    9.5835  -13.6131   21.1448 O   0  0  0  0  0  0  0  0  0  0  0  0
    8.1811  -15.4199   21.1103 N   0  0  0  0  0  0  0  0  0  0  0  0
    8.3766  -15.6816   22.4919 C   0  0  1  0  0  0  0  0  0  0  0  0
    7.3238  -16.5875   23.0819 C   0  0  0  0  0  0  0  0  0  0  0  0
    6.6453  -15.9307   24.2167 C   0  0  0  0  0  0  0  0  0  0  0  0
    5.6473  -16.4148   25.0431 C   0  0  0  0  0  0  0  0  0  0  0  0
    5.3299  -15.4615   25.9521 N   0  0  0  0  0  0  0  0  0  0  0  0
    6.0872  -14.3687   25.7482 C   0  0  0  0  0  0  0  0  0  0  0  0
    6.1858  -13.1364   26.3575 C   0  0  0  0  0  0  0  0  0  0  0  0
    7.0730  -12.1713   25.9343 C   0  0  0  0  0  0  0  0  0  0  0  0
    7.8986  -12.4456   24.8568 C   0  0  0  0  0  0  0  0  0  0  0  0
    7.8019  -13.6777   24.2453 C   0  0  0  0  0  0  0  0  0  0  0  0
    6.9033  -14.6583   24.6724 C   0  0  0  0  0  0  0  0  0  0  0  0
    9.7438  -16.1841   22.7008 C   0  0  0  0  0  0  0  0  0  0  0  0
   10.3816  -16.5782   21.6980 O   0  0  0  0  0  0  0  0  0  0  0  0
   10.3841  -16.2504   23.9612 N   0  0  0  0  0  0  0  0  0  0  0  0
   11.7432  -16.8250   24.0820 C   0  0  1  0  0  0  0  0  0  0  0  0
   12.5212  -16.0964   25.1104 C   0  0  0  0  0  0  0  0  0  0  0  0
   11.9223  -16.0772   26.4505 C   0  0  0  0  0  0  0  0  0  0  0  0
   11.8570  -17.1636   27.3366 C   0  0  0  0  0  0  0  0  0  0  0  0
   11.2259  -16.8333   28.4577 N   0  0  0  0  0  0  0  0  0  0  0  0
   10.8603  -15.5422   28.3523 C   0  0  0  0  0  0  0  0  0  0  0  0
   10.1930  -14.7262   29.2525 C   0  0  0  0  0  0  0  0  0  0  0  0
    9.9535  -13.4180   28.9033 C   0  0  0  0  0  0  0  0  0  0  0  0
   10.3629  -12.9077   27.6820 C   0  0  0  0  0  0  0  0  0  0  0  0
   11.0221  -13.7360   26.8063 C   0  0  0  0  0  0  0  0  0  0  0  0
   11.2735  -15.0493   27.1317 C   0  0  0  0  0  0  0  0  0  0  0  0
   11.6590  -18.2795   24.1795 C   0  0  0  0  0  0  0  0  0  0  0  0
   10.5373  -18.8810   24.3799 O   0  0  0  0  0  0  0  0  0  0  0  0
   12.7342  -19.1518   24.0666 O   0  0  0  0  0  0  0  0  0  0  0  0
  2  1  1  1
  2  4  1  0
  2  3  1  0
  4  5  2  0
  6  7  1  0
  6  4  1  0
  7  8  1  6
  9 17  1  0
  9  8  1  0
 10  9  2  0
 11 10  1  0
 11 12  1  0
 12 13  1  0
 12 17  2  0
 13 14  2  0
 14 15  1  0
 16 15  2  0
 17 16  1  0
 18  7  1  0
 19 18  2  0
 20 18  1  0
 21 22  1  1
 21 20  1  0
 22 23  1  0
 23 31  1  0
 24 23  2  0
 24 25  1  0
 25 26  1  0
 26 27  1  0
 27 28  2  0
 29 28  1  0
 30 29  2  0
 31 26  2  0
 31 30  1  0
 32 34  1  0
 32 21  1  0
 33 32  2  0
M  END
$$$$
