AWW.pdb
     RDKit          3D

 34 37  0  0  1  0  0  0  0  0999 V2000
   10.8220  -16.6075   17.5823 C   0  0  0  0  0  0  0  0  0  0  0  0
    9.4507  -16.0204   17.8667 C   0  0  2  0  0  0  0  0  0  0  0  0
    9.3306  -14.7932   17.1414 N   0  0  0  0  0  0  0  0  0  0  0  0
    9.3749  -15.7425   19.3345 C   0  0  0  0  0  0  0  0  0  0  0  0
   10.2012  -14.9718   19.8793 O   0  0  0  0  0  0  0  0  0  0  0  0
    8.3814  -16.3308   20.1507 N   0  0  0  0  0  0  0  0  0  0  0  0
    8.2667  -16.0128   21.5295 C   0  0  1  0  0  0  0  0  0  0  0  0
    6.8693  -16.1950   22.0691 C   0  0  0  0  0  0  0  0  0  0  0  0
    6.7931  -15.7642   23.4792 C   0  0  0  0  0  0  0  0  0  0  0  0
    6.6535  -16.5271   24.6245 C   0  0  0  0  0  0  0  0  0  0  0  0
    6.6317  -15.7033   25.7000 N   0  0  0  0  0  0  0  0  0  0  0  0
    6.7524  -14.4258   25.2967 C   0  0  0  0  0  0  0  0  0  0  0  0
    6.7901  -13.2097   25.9442 C   0  0  0  0  0  0  0  0  0  0  0  0
    6.9248  -12.0165   25.2689 C   0  0  0  0  0  0  0  0  0  0  0  0
    7.0265  -12.0353   23.8880 C   0  0  0  0  0  0  0  0  0  0  0  0
    6.9888  -13.2507   23.2377 C   0  0  0  0  0  0  0  0  0  0  0  0
    6.8525  -14.4621   23.9199 C   0  0  0  0  0  0  0  0  0  0  0  0
    9.2742  -16.7720   22.2870 C   0  0  0  0  0  0  0  0  0  0  0  0
    9.7100  -17.8313   21.7815 O   0  0  0  0  0  0  0  0  0  0  0  0
    9.7824  -16.3821   23.5490 N   0  0  0  0  0  0  0  0  0  0  0  0
   10.9569  -17.0716   24.1294 C   0  0  1  0  0  0  0  0  0  0  0  0
   11.5913  -16.2250   25.1660 C   0  0  0  0  0  0  0  0  0  0  0  0
   11.0617  -16.3973   26.5243 C   0  0  0  0  0  0  0  0  0  0  0  0
   11.0487  -17.5955   27.2549 C   0  0  0  0  0  0  0  0  0  0  0  0
   10.4739  -17.4301   28.4408 N   0  0  0  0  0  0  0  0  0  0  0  0
   10.0955  -16.1415   28.5323 C   0  0  0  0  0  0  0  0  0  0  0  0
    9.4702  -15.4653   29.5682 C   0  0  0  0  0  0  0  0  0  0  0  0
    9.2051  -14.1249   29.4145 C   0  0  0  0  0  0  0  0  0  0  0  0
    9.5482  -13.4469   28.2559 C   0  0  0  0  0  0  0  0  0  0  0  0
   10.1667  -14.1388   27.2429 C   0  0  0  0  0  0  0  0  0  0  0  0
   10.4425  -15.4808   27.3718 C   0  0  0  0  0  0  0  0  0  0  0  0
   10.6025  -18.4444   24.4788 C   0  0  0  0  0  0  0  0  0  0  0  0
    9.3751  -18.8176   24.5977 O   0  0  0  0  0  0  0  0  0  0  0  0
   11.5103  -19.4703   24.7093 O   0  0  0  0  0  0  0  0  0  0  0  0
  2  1  1  1
  2  4  1  0
  2  3  1  0
  4  5  2  0
  6  7  1  0
  6  4  1  0
  7  8  1  1
  9 17  1  0
  9  8  1  0
 10  9  2  0
 11 10  1  0
 11 12  1  0
 12 13  1  0
 12 17  2  0
 13 14  2  0
 14 15  1  0
 16 15  2  0
 17 16  1  0
 18  7  1  0
 19 18  2  0
 20 18  1  0
 21 22  1  1
 21 20  1  0
 22 23  1  0
 23 31  1  0
 24 23  2  0
 24 25  1  0
 25 26  1  0
 26 27  1  0
 27 28  2  0
 29 28  1  0
 30 29  2  0
 31 26  2  0
 31 30  1  0
 32 34  1  0
 32 21  1  0
 33 32  2  0
M  END
$$$$
