AWW.pdb
     RDKit          3D

 34 37  0  0  1  0  0  0  0  0999 V2000
   10.2974  -20.3365   21.7430 C   0  0  0  0  0  0  0  0  0  0  0  0
    9.8887  -19.2235   20.7942 C   0  0  2  0  0  0  0  0  0  0  0  0
   10.7104  -19.3075   19.6261 N   0  0  0  0  0  0  0  0  0  0  0  0
   10.1405  -17.9233   21.4895 C   0  0  0  0  0  0  0  0  0  0  0  0
   11.2767  -17.3928   21.4540 O   0  0  0  0  0  0  0  0  0  0  0  0
    9.1198  -17.2534   22.2026 N   0  0  0  0  0  0  0  0  0  0  0  0
    9.3014  -15.9366   22.7011 C   0  0  1  0  0  0  0  0  0  0  0  0
    8.0227  -15.1368   22.7523 C   0  0  0  0  0  0  0  0  0  0  0  0
    7.4580  -14.9666   21.3989 C   0  0  0  0  0  0  0  0  0  0  0  0
    6.4716  -15.6964   20.7604 C   0  0  0  0  0  0  0  0  0  0  0  0
    6.2745  -15.1791   19.5238 N   0  0  0  0  0  0  0  0  0  0  0  0
    7.0995  -14.1343   19.3312 C   0  0  0  0  0  0  0  0  0  0  0  0
    7.3220  -13.2607   18.2887 C   0  0  0  0  0  0  0  0  0  0  0  0
    8.2557  -12.2501   18.3575 C   0  0  0  0  0  0  0  0  0  0  0  0
    9.0006  -12.1030   19.5156 C   0  0  0  0  0  0  0  0  0  0  0  0
    8.7801  -12.9759   20.5600 C   0  0  0  0  0  0  0  0  0  0  0  0
    7.8339  -14.0015   20.4932 C   0  0  0  0  0  0  0  0  0  0  0  0
    9.9862  -16.0014   24.0019 C   0  0  0  0  0  0  0  0  0  0  0  0
   10.8371  -15.1198   24.2594 O   0  0  0  0  0  0  0  0  0  0  0  0
    9.7450  -16.9951   24.9804 N   0  0  0  0  0  0  0  0  0  0  0  0
   10.3543  -16.8861   26.3253 C   0  0  1  0  0  0  0  0  0  0  0  0
    9.9809  -15.5997   26.9574 C   0  0  0  0  0  0  0  0  0  0  0  0
    8.5726  -15.2141   26.8060 C   0  0  0  0  0  0  0  0  0  0  0  0
    7.5043  -16.0884   26.5529 C   0  0  0  0  0  0  0  0  0  0  0  0
    6.3578  -15.4274   26.4391 N   0  0  0  0  0  0  0  0  0  0  0  0
    6.6248  -14.1193   26.6103 C   0  0  0  0  0  0  0  0  0  0  0  0
    5.7739  -13.0249   26.6001 C   0  0  0  0  0  0  0  0  0  0  0  0
    6.3046  -11.7760   26.8222 C   0  0  0  0  0  0  0  0  0  0  0  0
    7.6587  -11.5950   27.0531 C   0  0  0  0  0  0  0  0  0  0  0  0
    8.4820  -12.6948   27.0579 C   0  0  0  0  0  0  0  0  0  0  0  0
    7.9757  -13.9553   26.8378 C   0  0  0  0  0  0  0  0  0  0  0  0
   10.1238  -18.1179   27.0747 C   0  0  0  0  0  0  0  0  0  0  0  0
    9.3445  -19.0438   26.6326 O   0  0  0  0  0  0  0  0  0  0  0  0
   10.6991  -18.4272   28.3007 O   0  0  0  0  0  0  0  0  0  0  0  0
  2  1  1  1
  2  4  1  0
  2  3  1  0
  4  5  2  0
  6  7  1  0
  6  4  1  0
  7  8  1  1
  9 17  1  0
  9  8  1  0
 10  9  2  0
 11 10  1  0
 11 12  1  0
 12 13  1  0
 12 17  2  0
 13 14  2  0
 14 15  1  0
 16 15  2  0
 17 16  1  0
 18  7  1  0
 19 18  2  0
 20 18  1  0
 21 22  1  1
 21 20  1  0
 22 23  1  0
 23 31  1  0
 24 23  2  0
 24 25  1  0
 25 26  1  0
 26 27  1  0
 27 28  2  0
 29 28  1  0
 30 29  2  0
 31 26  2  0
 31 30  1  0
 32 34  1  0
 32 21  1  0
 33 32  2  0
M  END
$$$$
