AWW.pdb
     RDKit          3D

 34 37  0  0  1  0  0  0  0  0999 V2000
    6.9740  -19.6965   23.3603 C   0  0  0  0  0  0  0  0  0  0  0  0
    7.4364  -19.1815   22.0087 C   0  0  2  0  0  0  0  0  0  0  0  0
    7.5400  -20.2957   21.1173 N   0  0  0  0  0  0  0  0  0  0  0  0
    8.7867  -18.5666   22.1985 C   0  0  0  0  0  0  0  0  0  0  0  0
    9.8227  -19.2691   22.1158 O   0  0  0  0  0  0  0  0  0  0  0  0
    8.9423  -17.1885   22.4742 N   0  0  0  0  0  0  0  0  0  0  0  0
   10.2211  -16.6142   22.6988 C   0  0  1  0  0  0  0  0  0  0  0  0
   10.3856  -15.2568   22.0604 C   0  0  0  0  0  0  0  0  0  0  0  0
    9.8028  -15.2429   20.7040 C   0  0  0  0  0  0  0  0  0  0  0  0
   10.0840  -16.0532   19.6188 C   0  0  0  0  0  0  0  0  0  0  0  0
    9.3025  -15.6781   18.5775 N   0  0  0  0  0  0  0  0  0  0  0  0
    8.5186  -14.6486   18.9451 C   0  0  0  0  0  0  0  0  0  0  0  0
    7.5594  -13.8914   18.3077 C   0  0  0  0  0  0  0  0  0  0  0  0
    6.8893  -12.8652   18.9367 C   0  0  0  0  0  0  0  0  0  0  0  0
    7.1875  -12.5806   20.2587 C   0  0  0  0  0  0  0  0  0  0  0  0
    8.1469  -13.3366   20.8987 C   0  0  0  0  0  0  0  0  0  0  0  0
    8.8279  -14.3778   20.2634 C   0  0  0  0  0  0  0  0  0  0  0  0
   10.4996  -16.6027   24.1437 C   0  0  0  0  0  0  0  0  0  0  0  0
   11.4099  -15.8494   24.5578 O   0  0  0  0  0  0  0  0  0  0  0  0
    9.8050  -17.3873   25.0950 N   0  0  0  0  0  0  0  0  0  0  0  0
   10.0425  -17.1931   26.5434 C   0  0  1  0  0  0  0  0  0  0  0  0
    9.8444  -15.7723   26.9121 C   0  0  0  0  0  0  0  0  0  0  0  0
    8.5106  -15.2314   26.6234 C   0  0  0  0  0  0  0  0  0  0  0  0
    7.3863  -15.9792   26.2407 C   0  0  0  0  0  0  0  0  0  0  0  0
    6.3373  -15.1941   26.0228 N   0  0  0  0  0  0  0  0  0  0  0  0
    6.7256  -13.9255   26.2502 C   0  0  0  0  0  0  0  0  0  0  0  0
    6.0051  -12.7436   26.1758 C   0  0  0  0  0  0  0  0  0  0  0  0
    6.6422  -11.5637   26.4799 C   0  0  0  0  0  0  0  0  0  0  0  0
    7.9757  -11.5363   26.8548 C   0  0  0  0  0  0  0  0  0  0  0  0
    8.6690  -12.7205   26.9207 C   0  0  0  0  0  0  0  0  0  0  0  0
    8.0545  -13.9147   26.6209 C   0  0  0  0  0  0  0  0  0  0  0  0
    9.3243  -18.2119   27.3039 C   0  0  0  0  0  0  0  0  0  0  0  0
    8.4607  -18.9893   26.7473 O   0  0  0  0  0  0  0  0  0  0  0  0
    9.4853  -18.4574   28.6617 O   0  0  0  0  0  0  0  0  0  0  0  0
  2  1  1  1
  2  4  1  0
  2  3  1  0
  4  5  2  0
  6  7  1  0
  6  4  1  0
  7  8  1  1
  9 17  1  0
  9  8  1  0
 10  9  2  0
 11 10  1  0
 11 12  1  0
 12 13  1  0
 12 17  2  0
 13 14  2  0
 14 15  1  0
 16 15  2  0
 17 16  1  0
 18  7  1  0
 19 18  2  0
 20 18  1  0
 21 22  1  1
 21 20  1  0
 22 23  1  0
 23 31  1  0
 24 23  2  0
 24 25  1  0
 25 26  1  0
 26 27  1  0
 27 28  2  0
 29 28  1  0
 30 29  2  0
 31 26  2  0
 31 30  1  0
 32 34  1  0
 32 21  1  0
 33 32  2  0
M  END
$$$$
