AWW.pdb
     RDKit          3D

 34 37  0  0  1  0  0  0  0  0999 V2000
   10.9450  -17.6222   17.4656 C   0  0  0  0  0  0  0  0  0  0  0  0
   11.0552  -18.3643   18.7859 C   0  0  2  0  0  0  0  0  0  0  0  0
   10.1729  -19.4896   18.7413 N   0  0  0  0  0  0  0  0  0  0  0  0
   10.6164  -17.4284   19.8671 C   0  0  0  0  0  0  0  0  0  0  0  0
   11.2902  -16.4044   20.1339 O   0  0  0  0  0  0  0  0  0  0  0  0
    9.4411  -17.6610   20.6180 N   0  0  0  0  0  0  0  0  0  0  0  0
    8.9855  -16.7351   21.5930 C   0  0  1  0  0  0  0  0  0  0  0  0
    7.5450  -16.3283   21.4019 C   0  0  0  0  0  0  0  0  0  0  0  0
    7.3912  -15.5053   20.1859 C   0  0  0  0  0  0  0  0  0  0  0  0
    6.9518  -15.8721   18.9266 C   0  0  0  0  0  0  0  0  0  0  0  0
    6.9727  -14.7832   18.1206 N   0  0  0  0  0  0  0  0  0  0  0  0
    7.4114  -13.7151   18.8106 C   0  0  0  0  0  0  0  0  0  0  0  0
    7.6270  -12.3895   18.5013 C   0  0  0  0  0  0  0  0  0  0  0  0
    8.0956  -11.4815   19.4252 C   0  0  0  0  0  0  0  0  0  0  0  0
    8.3612  -11.9127   20.7141 C   0  0  0  0  0  0  0  0  0  0  0  0
    8.1465  -13.2387   21.0262 C   0  0  0  0  0  0  0  0  0  0  0  0
    7.6713  -14.1615   20.0913 C   0  0  0  0  0  0  0  0  0  0  0  0
    9.2524  -17.2752   22.9356 C   0  0  0  0  0  0  0  0  0  0  0  0
    8.2770  -17.6819   23.6068 O   0  0  0  0  0  0  0  0  0  0  0  0
   10.5399  -17.3649   23.5165 N   0  0  0  0  0  0  0  0  0  0  0  0
   10.8117  -16.7485   24.8349 C   0  0  1  0  0  0  0  0  0  0  0  0
    9.8545  -17.2525   25.8466 C   0  0  0  0  0  0  0  0  0  0  0  0
   10.1234  -16.8305   27.2267 C   0  0  0  0  0  0  0  0  0  0  0  0
   10.6783  -17.6311   28.2370 C   0  0  0  0  0  0  0  0  0  0  0  0
   10.7664  -16.9668   29.3838 N   0  0  0  0  0  0  0  0  0  0  0  0
   10.2825  -15.7285   29.1737 C   0  0  0  0  0  0  0  0  0  0  0  0
   10.1685  -14.6544   30.0426 C   0  0  0  0  0  0  0  0  0  0  0  0
    9.6476  -13.4744   29.5663 C   0  0  0  0  0  0  0  0  0  0  0  0
    9.2397  -13.3422   28.2488 C   0  0  0  0  0  0  0  0  0  0  0  0
    9.3622  -14.4209   27.4069 C   0  0  0  0  0  0  0  0  0  0  0  0
    9.8798  -15.6130   27.8592 C   0  0  0  0  0  0  0  0  0  0  0  0
   12.2390  -16.8265   25.1332 C   0  0  0  0  0  0  0  0  0  0  0  0
   12.7804  -16.0983   26.0479 O   0  0  0  0  0  0  0  0  0  0  0  0
   13.1441  -17.6654   24.4956 O   0  0  0  0  0  0  0  0  0  0  0  0
  2  1  1  6
  2  4  1  0
  2  3  1  0
  4  5  2  0
  6  7  1  0
  6  4  1  0
  7  8  1  1
  9 17  1  0
  9  8  1  0
 10  9  2  0
 11 10  1  0
 11 12  1  0
 12 13  1  0
 12 17  2  0
 13 14  2  0
 14 15  1  0
 16 15  2  0
 17 16  1  0
 18  7  1  0
 19 18  2  0
 20 18  1  0
 21 22  1  1
 21 20  1  0
 22 23  1  0
 23 31  1  0
 24 23  2  0
 24 25  1  0
 25 26  1  0
 26 27  1  0
 27 28  2  0
 29 28  1  0
 30 29  2  0
 31 26  2  0
 31 30  1  0
 32 34  1  0
 32 21  1  0
 33 32  2  0
M  END
$$$$
