CQF.pdb
     RDKit          3D

 27 27  0  0  1  0  0  0  0  0999 V2000
   28.1791  -21.9921  -16.0701 N   0  0  0  0  0  0  0  0  0  0  0  0
   27.7898  -20.8662  -15.2539 C   0  0  1  0  0  0  0  0  0  0  0  0
   27.4722  -19.7272  -16.2130 C   0  0  0  0  0  0  0  0  0  0  0  0
   27.0322  -18.2480  -15.2941 S   0  0  0  0  0  0  0  0  0  0  0  0
   26.5714  -21.1772  -14.4456 C   0  0  0  0  0  0  0  0  0  0  0  0
   25.7005  -21.9721  -14.8845 O   0  0  0  0  0  0  0  0  0  0  0  0
   25.7630  -20.4946   -8.1752 N   0  0  0  0  0  0  0  0  0  0  0  0
   26.8400  -21.0193   -8.9295 C   0  0  0  0  0  0  0  0  0  0  0  0
   27.8930  -21.3297   -8.3436 O   0  0  0  0  0  0  0  0  0  0  0  0
   26.6897  -21.1855  -10.3977 C   0  0  0  0  0  0  0  0  0  0  0  0
   25.3620  -20.7406  -10.9374 C   0  0  0  0  0  0  0  0  0  0  0  0
   25.1632  -20.9445  -12.3984 C   0  0  2  0  0  0  0  0  0  0  0  0
   26.3453  -20.6014  -13.1713 N   0  0  0  0  0  0  0  0  0  0  0  0
   23.9640  -20.2215  -12.9473 C   0  0  0  0  0  0  0  0  0  0  0  0
   24.0262  -19.0281  -13.3260 O   0  0  0  0  0  0  0  0  0  0  0  0
   22.7063  -20.8814  -13.0539 N   0  0  0  0  0  0  0  0  0  0  0  0
   21.5763  -20.1206  -13.5989 C   0  0  1  0  0  0  0  0  0  0  0  0
   21.9606  -19.7509  -15.0138 C   0  0  0  0  0  0  0  0  0  0  0  0
   22.0357  -20.9287  -15.9015 C   0  0  0  0  0  0  0  0  0  0  0  0
   23.2386  -21.4851  -16.2517 C   0  0  0  0  0  0  0  0  0  0  0  0
   23.2618  -22.5814  -17.0807 C   0  0  0  0  0  0  0  0  0  0  0  0
   22.1106  -23.1471  -17.5775 C   0  0  0  0  0  0  0  0  0  0  0  0
   20.9015  -22.5834  -17.2223 C   0  0  0  0  0  0  0  0  0  0  0  0
   20.8760  -21.4883  -16.3943 C   0  0  0  0  0  0  0  0  0  0  0  0
   20.3256  -20.8778  -13.5090 C   0  0  0  0  0  0  0  0  0  0  0  0
   19.2099  -20.4229  -13.9049 O   0  0  0  0  0  0  0  0  0  0  0  0
   20.2837  -22.1571  -12.9788 O   0  0  0  0  0  0  0  0  0  0  0  0
  2  1  1  6
  3  2  1  0
  4  3  1  0
  5  2  1  0
  5  6  2  0
  8  7  1  0
  8 10  1  0
  9  8  2  0
 12 11  1  1
 11 10  1  0
 12 13  1  0
 13  5  1  0
 14 12  1  0
 15 14  2  0
 16 14  1  0
 17 16  1  0
 17 25  1  0
 17 18  1  6
 19 24  2  0
 19 18  1  0
 20 19  1  0
 21 22  1  0
 21 20  2  0
 22 23  2  0
 23 24  1  0
 25 27  1  0
 26 25  2  0
M  END
$$$$
