CQF.pdb
     RDKit          3D

 27 27  0  0  1  0  0  0  0  0999 V2000
   16.9484  -14.0674  -14.7905 N   0  0  0  0  0  0  0  0  0  0  0  0
   16.6522  -12.8958  -15.5808 C   0  0  1  0  0  0  0  0  0  0  0  0
   15.8864  -11.9443  -14.6719 C   0  0  0  0  0  0  0  0  0  0  0  0
   14.2999  -12.6575  -14.2241 S   0  0  0  0  0  0  0  0  0  0  0  0
   17.9041  -12.2240  -16.0460 C   0  0  0  0  0  0  0  0  0  0  0  0
   18.9404  -12.2421  -15.3329 O   0  0  0  0  0  0  0  0  0  0  0  0
   22.8492  -11.5464  -19.7406 N   0  0  0  0  0  0  0  0  0  0  0  0
   21.5645  -11.4311  -20.3242 C   0  0  0  0  0  0  0  0  0  0  0  0
   21.2606  -12.1821  -21.2687 O   0  0  0  0  0  0  0  0  0  0  0  0
   20.6125  -10.4193  -19.7987 C   0  0  0  0  0  0  0  0  0  0  0  0
   19.3444  -10.9953  -19.2401 C   0  0  0  0  0  0  0  0  0  0  0  0
   19.2361  -10.9868  -17.7556 C   0  0  2  0  0  0  0  0  0  0  0  0
   17.9795  -11.5484  -17.2887 N   0  0  0  0  0  0  0  0  0  0  0  0
   19.4483   -9.6280  -17.1465 C   0  0  0  0  0  0  0  0  0  0  0  0
   18.4891   -8.8724  -16.8627 O   0  0  0  0  0  0  0  0  0  0  0  0
   20.7632   -9.1547  -16.8712 N   0  0  0  0  0  0  0  0  0  0  0  0
   20.9049   -7.7981  -16.3308 C   0  0  1  0  0  0  0  0  0  0  0  0
   22.0362   -7.8595  -15.3295 C   0  0  0  0  0  0  0  0  0  0  0  0
   22.4231   -6.5224  -14.8362 C   0  0  0  0  0  0  0  0  0  0  0  0
   23.3221   -5.7417  -15.5156 C   0  0  0  0  0  0  0  0  0  0  0  0
   23.6535   -4.5031  -15.0199 C   0  0  0  0  0  0  0  0  0  0  0  0
   23.1110   -4.0124  -13.8551 C   0  0  0  0  0  0  0  0  0  0  0  0
   22.2061   -4.8020  -13.1742 C   0  0  0  0  0  0  0  0  0  0  0  0
   21.8736   -6.0396  -13.6676 C   0  0  0  0  0  0  0  0  0  0  0  0
   21.1163   -6.8149  -17.3960 C   0  0  0  0  0  0  0  0  0  0  0  0
   20.6820   -5.6248  -17.3369 O   0  0  0  0  0  0  0  0  0  0  0  0
   21.8149   -7.1288  -18.5505 O   0  0  0  0  0  0  0  0  0  0  0  0
  2  1  1  1
  3  2  1  0
  4  3  1  0
  5  2  1  0
  5  6  2  0
  8  7  1  0
  8 10  1  0
  9  8  2  0
 12 11  1  6
 11 10  1  0
 12 13  1  0
 13  5  1  0
 14 12  1  0
 15 14  2  0
 16 14  1  0
 17 16  1  0
 17 25  1  0
 17 18  1  1
 19 24  2  0
 19 18  1  0
 20 19  1  0
 21 22  1  0
 21 20  2  0
 22 23  2  0
 23 24  1  0
 25 27  1  0
 26 25  2  0
M  END
$$$$
