CQF.pdb
     RDKit          3D

 27 27  0  0  1  0  0  0  0  0999 V2000
   17.5129  -14.9146  -16.1111 N   0  0  0  0  0  0  0  0  0  0  0  0
   17.1375  -13.5389  -15.8843 C   0  0  1  0  0  0  0  0  0  0  0  0
   16.5453  -13.4785  -14.4830 C   0  0  0  0  0  0  0  0  0  0  0  0
   15.9274  -11.8267  -14.1421 S   0  0  0  0  0  0  0  0  0  0  0  0
   18.3254  -12.6338  -15.9511 C   0  0  0  0  0  0  0  0  0  0  0  0
   19.4526  -13.0309  -15.5577 O   0  0  0  0  0  0  0  0  0  0  0  0
   20.2521   -8.8178  -20.3525 N   0  0  0  0  0  0  0  0  0  0  0  0
   21.1415   -8.4873  -19.3018 C   0  0  0  0  0  0  0  0  0  0  0  0
   22.0851   -7.7092  -19.5315 O   0  0  0  0  0  0  0  0  0  0  0  0
   20.9297   -9.0754  -17.9545 C   0  0  0  0  0  0  0  0  0  0  0  0
   19.7028   -9.9319  -17.8399 C   0  0  0  0  0  0  0  0  0  0  0  0
   19.4054  -10.4459  -16.4750 C   0  0  2  0  0  0  0  0  0  0  0  0
   18.2381  -11.3115  -16.4514 N   0  0  0  0  0  0  0  0  0  0  0  0
   19.2599   -9.3606  -15.4438 C   0  0  0  0  0  0  0  0  0  0  0  0
   18.1493   -8.8429  -15.1794 O   0  0  0  0  0  0  0  0  0  0  0  0
   20.3957   -8.8837  -14.7288 N   0  0  0  0  0  0  0  0  0  0  0  0
   20.1821   -7.8427  -13.7172 C   0  0  1  0  0  0  0  0  0  0  0  0
   20.9919   -8.2565  -12.5092 C   0  0  0  0  0  0  0  0  0  0  0  0
   20.9506   -7.2469  -11.4323 C   0  0  0  0  0  0  0  0  0  0  0  0
   20.1922   -7.4332  -10.3056 C   0  0  0  0  0  0  0  0  0  0  0  0
   20.1835   -6.4669   -9.3280 C   0  0  0  0  0  0  0  0  0  0  0  0
   20.9150   -5.3073   -9.4391 C   0  0  0  0  0  0  0  0  0  0  0  0
   21.6772   -5.1239  -10.5755 C   0  0  0  0  0  0  0  0  0  0  0  0
   21.6875   -6.0879  -11.5533 C   0  0  0  0  0  0  0  0  0  0  0  0
   20.5297   -6.5155  -14.2305 C   0  0  0  0  0  0  0  0  0  0  0  0
   21.4871   -6.3134  -15.0374 O   0  0  0  0  0  0  0  0  0  0  0  0
   19.8231   -5.3824  -13.8616 O   0  0  0  0  0  0  0  0  0  0  0  0
  2  1  1  1
  3  2  1  0
  4  3  1  0
  5  2  1  0
  5  6  2  0
  8  7  1  0
  8 10  1  0
  9  8  2  0
 12 11  1  6
 11 10  1  0
 12 13  1  0
 13  5  1  0
 14 12  1  0
 15 14  2  0
 16 14  1  0
 17 16  1  0
 17 25  1  0
 17 18  1  1
 19 24  2  0
 19 18  1  0
 20 19  1  0
 21 22  1  0
 21 20  2  0
 22 23  2  0
 23 24  1  0
 25 27  1  0
 26 25  2  0
M  END
$$$$
