CQF.pdb
     RDKit          3D

 27 27  0  0  1  0  0  0  0  0999 V2000
   28.8803  -21.3939  -16.4326 N   0  0  0  0  0  0  0  0  0  0  0  0
   28.7799  -21.7922  -15.0483 C   0  0  1  0  0  0  0  0  0  0  0  0
   30.2053  -21.8866  -14.5218 C   0  0  0  0  0  0  0  0  0  0  0  0
   31.0308  -23.3200  -15.2219 S   0  0  0  0  0  0  0  0  0  0  0  0
   28.0295  -20.7791  -14.2449 C   0  0  0  0  0  0  0  0  0  0  0  0
   27.8862  -19.6047  -14.6730 O   0  0  0  0  0  0  0  0  0  0  0  0
   23.0955  -21.2686  -15.5219 N   0  0  0  0  0  0  0  0  0  0  0  0
   22.7193  -20.5833  -14.3415 C   0  0  0  0  0  0  0  0  0  0  0  0
   21.5292  -20.2540  -14.1877 O   0  0  0  0  0  0  0  0  0  0  0  0
   23.7499  -20.2731  -13.3181 C   0  0  0  0  0  0  0  0  0  0  0  0
   25.1236  -20.7770  -13.6517 C   0  0  0  0  0  0  0  0  0  0  0  0
   26.1601  -20.5511  -12.6075 C   0  0  2  0  0  0  0  0  0  0  0  0
   27.4555  -21.0893  -12.9876 N   0  0  0  0  0  0  0  0  0  0  0  0
   25.7677  -21.0687  -11.2509 C   0  0  0  0  0  0  0  0  0  0  0  0
   25.5855  -22.2901  -11.0354 O   0  0  0  0  0  0  0  0  0  0  0  0
   25.5896  -20.1734  -10.1576 N   0  0  0  0  0  0  0  0  0  0  0  0
   24.9985  -20.7053   -8.9245 C   0  0  1  0  0  0  0  0  0  0  0  0
   25.3323  -19.7119   -7.8347 C   0  0  0  0  0  0  0  0  0  0  0  0
   26.7680  -19.7183   -7.4889 C   0  0  0  0  0  0  0  0  0  0  0  0
   27.6200  -18.7498   -7.9529 C   0  0  0  0  0  0  0  0  0  0  0  0
   28.9493  -18.7947   -7.6058 C   0  0  0  0  0  0  0  0  0  0  0  0
   29.4622  -19.7859   -6.8017 C   0  0  0  0  0  0  0  0  0  0  0  0
   28.6006  -20.7591   -6.3368 C   0  0  0  0  0  0  0  0  0  0  0  0
   27.2723  -20.7162   -6.6822 C   0  0  0  0  0  0  0  0  0  0  0  0
   23.5620  -20.9476   -9.0784 C   0  0  0  0  0  0  0  0  0  0  0  0
   22.8479  -21.4781   -8.1745 O   0  0  0  0  0  0  0  0  0  0  0  0
   22.8846  -20.6063  -10.2377 O   0  0  0  0  0  0  0  0  0  0  0  0
  2  1  1  6
  3  2  1  0
  4  3  1  0
  5  2  1  0
  5  6  2  0
  8  7  1  0
  8 10  1  0
  9  8  2  0
 12 11  1  6
 11 10  1  0
 12 13  1  0
 13  5  1  0
 14 12  1  0
 15 14  2  0
 16 14  1  0
 17 16  1  0
 17 25  1  0
 17 18  1  1
 19 24  2  0
 19 18  1  0
 20 19  1  0
 21 22  1  0
 21 20  2  0
 22 23  2  0
 23 24  1  0
 25 27  1  0
 26 25  2  0
M  END
$$$$
