CQF.pdb
     RDKit          3D

 27 27  0  0  1  0  0  0  0  0999 V2000
   20.3295  -21.3834  -12.9626 N   0  0  0  0  0  0  0  0  0  0  0  0
   21.1439  -20.4244  -12.2540 C   0  0  1  0  0  0  0  0  0  0  0  0
   20.4666  -20.1922  -10.9103 C   0  0  0  0  0  0  0  0  0  0  0  0
   20.0184  -18.4620  -10.7330 S   0  0  0  0  0  0  0  0  0  0  0  0
   22.5233  -20.9511  -12.0202 C   0  0  0  0  0  0  0  0  0  0  0  0
   22.6939  -22.0985  -11.5332 O   0  0  0  0  0  0  0  0  0  0  0  0
   28.5488  -19.7386  -14.8219 N   0  0  0  0  0  0  0  0  0  0  0  0
   28.1305  -21.0061  -14.3500 C   0  0  0  0  0  0  0  0  0  0  0  0
   28.4708  -22.0262  -14.9762 O   0  0  0  0  0  0  0  0  0  0  0  0
   27.2969  -21.0892  -13.1236 C   0  0  0  0  0  0  0  0  0  0  0  0
   25.8858  -20.6105  -13.3017 C   0  0  0  0  0  0  0  0  0  0  0  0
   25.0086  -20.7427  -12.1064 C   0  0  2  0  0  0  0  0  0  0  0  0
   23.6808  -20.1960  -12.3308 N   0  0  0  0  0  0  0  0  0  0  0  0
   25.6028  -20.1507  -10.8580 C   0  0  0  0  0  0  0  0  0  0  0  0
   25.6602  -18.9118  -10.6749 O   0  0  0  0  0  0  0  0  0  0  0  0
   26.1244  -20.9924   -9.8342 N   0  0  0  0  0  0  0  0  0  0  0  0
   27.0737  -20.4062   -8.8813 C   0  0  1  0  0  0  0  0  0  0  0  0
   26.4885  -20.6386   -7.5066 C   0  0  0  0  0  0  0  0  0  0  0  0
   27.3677  -20.1399   -6.4300 C   0  0  0  0  0  0  0  0  0  0  0  0
   27.6075  -18.8003   -6.2651 C   0  0  0  0  0  0  0  0  0  0  0  0
   28.4328  -18.3803   -5.2492 C   0  0  0  0  0  0  0  0  0  0  0  0
   29.0336  -19.2634   -4.3825 C   0  0  0  0  0  0  0  0  0  0  0  0
   28.7893  -20.6115   -4.5523 C   0  0  0  0  0  0  0  0  0  0  0  0
   27.9652  -21.0333   -5.5665 C   0  0  0  0  0  0  0  0  0  0  0  0
   28.4175  -20.9644   -9.0495 C   0  0  0  0  0  0  0  0  0  0  0  0
   28.6358  -22.1024   -9.5650 O   0  0  0  0  0  0  0  0  0  0  0  0
   29.5500  -20.2730   -8.6508 O   0  0  0  0  0  0  0  0  0  0  0  0
  2  1  1  6
  3  2  1  0
  4  3  1  0
  5  2  1  0
  5  6  2  0
  8  7  1  0
  8 10  1  0
  9  8  2  0
 12 11  1  6
 11 10  1  0
 12 13  1  0
 13  5  1  0
 14 12  1  0
 15 14  2  0
 16 14  1  0
 17 16  1  0
 17 25  1  0
 17 18  1  1
 19 24  2  0
 19 18  1  0
 20 19  1  0
 21 22  1  0
 21 20  2  0
 22 23  2  0
 23 24  1  0
 25 27  1  0
 26 25  2  0
M  END
$$$$
