CQF.pdb
     RDKit          3D

 27 27  0  0  1  0  0  0  0  0999 V2000
   25.4467  -23.7742  -13.9215 N   0  0  0  0  0  0  0  0  0  0  0  0
   25.2604  -22.3785  -14.2417 C   0  0  1  0  0  0  0  0  0  0  0  0
   25.9785  -22.1393  -15.5628 C   0  0  0  0  0  0  0  0  0  0  0  0
   25.6996  -20.4559  -16.1236 S   0  0  0  0  0  0  0  0  0  0  0  0
   23.8119  -22.0481  -14.4072 C   0  0  0  0  0  0  0  0  0  0  0  0
   23.0221  -22.8823  -14.9204 O   0  0  0  0  0  0  0  0  0  0  0  0
   19.8306  -20.8318  -10.4796 N   0  0  0  0  0  0  0  0  0  0  0  0
   20.8179  -19.8228  -10.5862 C   0  0  0  0  0  0  0  0  0  0  0  0
   21.0669  -19.1143   -9.5939 O   0  0  0  0  0  0  0  0  0  0  0  0
   21.5304  -19.6325  -11.8754 C   0  0  0  0  0  0  0  0  0  0  0  0
   21.0676  -20.5401  -12.9772 C   0  0  0  0  0  0  0  0  0  0  0  0
   21.8711  -20.4895  -14.2292 C   0  0  2  0  0  0  0  0  0  0  0  0
   23.2718  -20.8032  -14.0012 N   0  0  0  0  0  0  0  0  0  0  0  0
   21.7514  -19.1840  -14.9664 C   0  0  0  0  0  0  0  0  0  0  0  0
   22.6973  -18.3630  -15.0175 O   0  0  0  0  0  0  0  0  0  0  0  0
   20.5430  -18.8387  -15.6367 N   0  0  0  0  0  0  0  0  0  0  0  0
   20.5176  -17.5890  -16.4050 C   0  0  1  0  0  0  0  0  0  0  0  0
   21.5804  -17.7282  -17.4714 C   0  0  0  0  0  0  0  0  0  0  0  0
   21.6082  -16.5733  -18.3912 C   0  0  0  0  0  0  0  0  0  0  0  0
   22.4512  -15.5125  -18.1826 C   0  0  0  0  0  0  0  0  0  0  0  0
   22.4438  -14.4582  -19.0646 C   0  0  0  0  0  0  0  0  0  0  0  0
   21.6132  -14.4273  -20.1606 C   0  0  0  0  0  0  0  0  0  0  0  0
   20.7660  -15.4976  -20.3667 C   0  0  0  0  0  0  0  0  0  0  0  0
   20.7717  -16.5519  -19.4870 C   0  0  0  0  0  0  0  0  0  0  0  0
   19.1817  -17.3142  -16.9398 C   0  0  0  0  0  0  0  0  0  0  0  0
   18.4033  -18.2228  -17.3605 O   0  0  0  0  0  0  0  0  0  0  0  0
   18.6784  -16.0260  -17.0192 O   0  0  0  0  0  0  0  0  0  0  0  0
  2  1  1  6
  3  2  1  0
  4  3  1  0
  5  2  1  0
  5  6  2  0
  8  7  1  0
  8 10  1  0
  9  8  2  0
 12 11  1  1
 11 10  1  0
 12 13  1  0
 13  5  1  0
 14 12  1  0
 15 14  2  0
 16 14  1  0
 17 16  1  0
 17 25  1  0
 17 18  1  6
 19 24  2  0
 19 18  1  0
 20 19  1  0
 21 22  1  0
 21 20  2  0
 22 23  2  0
 23 24  1  0
 25 27  1  0
 26 25  2  0
M  END
$$$$
