CQF.pdb
     RDKit          3D

 27 27  0  0  1  0  0  0  0  0999 V2000
   33.2162  -34.0204  -16.2148 N   0  0  0  0  0  0  0  0  0  0  0  0
   32.0770  -33.7586  -17.0627 C   0  0  1  0  0  0  0  0  0  0  0  0
   30.8610  -34.3171  -16.3364 C   0  0  0  0  0  0  0  0  0  0  0  0
   30.8379  -36.1092  -16.4541 S   0  0  0  0  0  0  0  0  0  0  0  0
   31.8857  -32.2917  -17.2774 C   0  0  0  0  0  0  0  0  0  0  0  0
   32.2541  -31.4657  -16.4028 O   0  0  0  0  0  0  0  0  0  0  0  0
   33.9780  -28.2273  -19.1635 N   0  0  0  0  0  0  0  0  0  0  0  0
   32.8731  -27.5908  -19.7787 C   0  0  0  0  0  0  0  0  0  0  0  0
   32.9148  -26.3622  -19.9721 O   0  0  0  0  0  0  0  0  0  0  0  0
   31.6934  -28.4004  -20.1768 C   0  0  0  0  0  0  0  0  0  0  0  0
   31.8250  -29.8674  -19.8890 C   0  0  0  0  0  0  0  0  0  0  0  0
   31.1517  -30.3399  -18.6485 C   0  0  2  0  0  0  0  0  0  0  0  0
   31.2914  -31.7735  -18.4542 N   0  0  0  0  0  0  0  0  0  0  0  0
   29.7012  -29.9505  -18.5677 C   0  0  0  0  0  0  0  0  0  0  0  0
   28.8014  -30.6305  -19.1149 O   0  0  0  0  0  0  0  0  0  0  0  0
   29.3032  -28.7819  -17.8573 N   0  0  0  0  0  0  0  0  0  0  0  0
   27.8698  -28.4768  -17.7864 C   0  0  1  0  0  0  0  0  0  0  0  0
   27.5092  -28.4862  -16.3181 C   0  0  0  0  0  0  0  0  0  0  0  0
   27.2324  -29.8472  -15.8162 C   0  0  0  0  0  0  0  0  0  0  0  0
   25.9842  -30.4055  -15.9132 C   0  0  0  0  0  0  0  0  0  0  0  0
   25.7714  -31.6757  -15.4328 C   0  0  0  0  0  0  0  0  0  0  0  0
   26.7750  -32.4156  -14.8519 C   0  0  0  0  0  0  0  0  0  0  0  0
   28.0304  -31.8494  -14.7562 C   0  0  0  0  0  0  0  0  0  0  0  0
   28.2452  -30.5807  -15.2356 C   0  0  0  0  0  0  0  0  0  0  0  0
   27.5553  -27.2147  -18.4603 C   0  0  0  0  0  0  0  0  0  0  0  0
   28.4398  -26.4611  -18.9683 O   0  0  0  0  0  0  0  0  0  0  0  0
   26.2527  -26.7601  -18.5869 O   0  0  0  0  0  0  0  0  0  0  0  0
  2  1  1  1
  3  2  1  0
  4  3  1  0
  5  2  1  0
  5  6  2  0
  8  7  1  0
  8 10  1  0
  9  8  2  0
 12 11  1  6
 11 10  1  0
 12 13  1  0
 13  5  1  0
 14 12  1  0
 15 14  2  0
 16 14  1  0
 17 16  1  0
 17 25  1  0
 17 18  1  1
 19 24  2  0
 19 18  1  0
 20 19  1  0
 21 22  1  0
 21 20  2  0
 22 23  2  0
 23 24  1  0
 25 27  1  0
 26 25  2  0
M  END
$$$$
