CQF.pdb
     RDKit          3D

 27 27  0  0  1  0  0  0  0  0999 V2000
   13.3395  -12.9937  -14.2024 N   0  0  0  0  0  0  0  0  0  0  0  0
   14.5487  -12.3709  -13.7176 C   0  0  1  0  0  0  0  0  0  0  0  0
   15.4066  -12.0829  -14.9419 C   0  0  0  0  0  0  0  0  0  0  0  0
   16.9427  -11.2924  -14.4501 S   0  0  0  0  0  0  0  0  0  0  0  0
   14.2530  -11.0845  -13.0158 C   0  0  0  0  0  0  0  0  0  0  0  0
   13.5284  -10.2124  -13.5610 O   0  0  0  0  0  0  0  0  0  0  0  0
   11.5051   -9.6705   -8.0355 N   0  0  0  0  0  0  0  0  0  0  0  0
   12.2227   -8.4585   -8.1784 C   0  0  0  0  0  0  0  0  0  0  0  0
   11.9866   -7.5208   -7.3950 O   0  0  0  0  0  0  0  0  0  0  0  0
   13.2363   -8.3335   -9.2568 C   0  0  0  0  0  0  0  0  0  0  0  0
   13.4851   -9.6008  -10.0210 C   0  0  0  0  0  0  0  0  0  0  0  0
   14.5096   -9.5096  -11.0970 C   0  0  2  0  0  0  0  0  0  0  0  0
   14.7659  -10.7936  -11.7278 N   0  0  0  0  0  0  0  0  0  0  0  0
   15.8043   -8.8942  -10.6419 C   0  0  0  0  0  0  0  0  0  0  0  0
   16.7221   -9.5813  -10.1350 O   0  0  0  0  0  0  0  0  0  0  0  0
   16.0274   -7.4939  -10.7759 N   0  0  0  0  0  0  0  0  0  0  0  0
   17.3706   -6.9819  -10.4821 C   0  0  1  0  0  0  0  0  0  0  0  0
   18.3024   -7.6559  -11.4636 C   0  0  0  0  0  0  0  0  0  0  0  0
   19.6650   -7.0878  -11.4257 C   0  0  0  0  0  0  0  0  0  0  0  0
   20.6226   -7.5811  -10.5777 C   0  0  0  0  0  0  0  0  0  0  0  0
   21.8783   -7.0219  -10.5758 C   0  0  0  0  0  0  0  0  0  0  0  0
   22.2137   -5.9744  -11.4018 C   0  0  0  0  0  0  0  0  0  0  0  0
   21.2463   -5.4808  -12.2541 C   0  0  0  0  0  0  0  0  0  0  0  0
   19.9912   -6.0380  -12.2578 C   0  0  0  0  0  0  0  0  0  0  0  0
   17.4129   -5.5188  -10.5421 C   0  0  0  0  0  0  0  0  0  0  0  0
   16.6025   -4.8298  -11.2327 O   0  0  0  0  0  0  0  0  0  0  0  0
   18.3542   -4.7865   -9.8371 O   0  0  0  0  0  0  0  0  0  0  0  0
  2  1  1  6
  3  2  1  0
  4  3  1  0
  5  2  1  0
  5  6  2  0
  8  7  1  0
  8 10  1  0
  9  8  2  0
 12 11  1  1
 11 10  1  0
 12 13  1  0
 13  5  1  0
 14 12  1  0
 15 14  2  0
 16 14  1  0
 17 16  1  0
 17 25  1  0
 17 18  1  6
 19 24  2  0
 19 18  1  0
 20 19  1  0
 21 22  1  0
 21 20  2  0
 22 23  2  0
 23 24  1  0
 25 27  1  0
 26 25  2  0
M  END
$$$$
