CQF.pdb
     RDKit          3D

 27 27  0  0  1  0  0  0  0  0999 V2000
   19.2170  -14.3544  -15.5304 N   0  0  0  0  0  0  0  0  0  0  0  0
   19.1412  -14.2689  -16.9699 C   0  0  1  0  0  0  0  0  0  0  0  0
   17.7255  -14.6779  -17.3526 C   0  0  0  0  0  0  0  0  0  0  0  0
   16.5309  -13.6135  -16.5363 S   0  0  0  0  0  0  0  0  0  0  0  0
   19.3909  -12.8736  -17.4448 C   0  0  0  0  0  0  0  0  0  0  0  0
   19.3723  -12.6052  -18.6738 O   0  0  0  0  0  0  0  0  0  0  0  0
   20.1051   -9.5969  -20.4549 N   0  0  0  0  0  0  0  0  0  0  0  0
   19.6542   -8.4370  -19.7798 C   0  0  0  0  0  0  0  0  0  0  0  0
   19.8078   -7.3261  -20.3193 O   0  0  0  0  0  0  0  0  0  0  0  0
   19.0117   -8.5716  -18.4476 C   0  0  0  0  0  0  0  0  0  0  0  0
   18.8615   -9.9877  -17.9741 C   0  0  0  0  0  0  0  0  0  0  0  0
   19.9195  -10.4679  -17.0436 C   0  0  2  0  0  0  0  0  0  0  0  0
   19.6550  -11.8086  -16.5489 N   0  0  0  0  0  0  0  0  0  0  0  0
   20.1719   -9.5361  -15.8902 C   0  0  0  0  0  0  0  0  0  0  0  0
   19.2693   -9.2310  -15.0756 O   0  0  0  0  0  0  0  0  0  0  0  0
   21.4614   -8.9661  -15.6881 N   0  0  0  0  0  0  0  0  0  0  0  0
   21.6207   -7.9992  -14.5961 C   0  0  1  0  0  0  0  0  0  0  0  0
   22.7214   -8.5399  -13.7118 C   0  0  0  0  0  0  0  0  0  0  0  0
   23.8764   -9.0318  -14.4894 C   0  0  0  0  0  0  0  0  0  0  0  0
   24.5171   -8.2336  -15.4015 C   0  0  0  0  0  0  0  0  0  0  0  0
   25.5884   -8.7327  -16.1034 C   0  0  0  0  0  0  0  0  0  0  0  0
   26.0466  -10.0170  -15.9232 C   0  0  0  0  0  0  0  0  0  0  0  0
   25.3984  -10.8173  -15.0038 C   0  0  0  0  0  0  0  0  0  0  0  0
   24.3281  -10.3208  -14.3013 C   0  0  0  0  0  0  0  0  0  0  0  0
   21.8858   -6.6518  -15.1061 C   0  0  0  0  0  0  0  0  0  0  0  0
   21.9834   -5.6336  -14.3562 O   0  0  0  0  0  0  0  0  0  0  0  0
   22.0495   -6.4029  -16.4591 O   0  0  0  0  0  0  0  0  0  0  0  0
  2  1  1  1
  3  2  1  0
  4  3  1  0
  5  2  1  0
  5  6  2  0
  8  7  1  0
  8 10  1  0
  9  8  2  0
 12 11  1  1
 11 10  1  0
 12 13  1  0
 13  5  1  0
 14 12  1  0
 15 14  2  0
 16 14  1  0
 17 16  1  0
 17 25  1  0
 17 18  1  1
 19 24  2  0
 19 18  1  0
 20 19  1  0
 21 22  1  0
 21 20  2  0
 22 23  2  0
 23 24  1  0
 25 27  1  0
 26 25  2  0
M  END
$$$$
