IKL.pdb
     RDKit          3D

 26 25  0  0  1  0  0  0  0  0999 V2000
    6.5400  -20.1276   28.1453 C   0  0  0  0  0  0  0  0  0  0  0  0
    6.1855  -20.3095   26.6662 C   0  0  0  0  0  0  0  0  0  0  0  0
    6.9439  -19.2432   25.9111 C   0  0  2  0  0  0  0  0  0  0  0  0
    6.6769  -17.9314   26.5788 C   0  0  0  0  0  0  0  0  0  0  0  0
    6.6923  -19.2579   24.4379 C   0  0  2  0  0  0  0  0  0  0  0  0
    6.7780  -20.6030   23.9574 N   0  0  0  0  0  0  0  0  0  0  0  0
    7.6061  -18.3480   23.6938 C   0  0  0  0  0  0  0  0  0  0  0  0
    8.8256  -18.5780   23.5654 O   0  0  0  0  0  0  0  0  0  0  0  0
    7.0487  -17.1849   23.1193 N   0  0  0  0  0  0  0  0  0  0  0  0
    7.7222  -16.0670   22.5609 C   0  0  1  0  0  0  0  0  0  0  0  0
    6.8820  -15.2487   21.5705 C   0  0  0  0  0  0  0  0  0  0  0  0
    7.6387  -14.1719   20.8799 C   0  0  0  0  0  0  0  0  0  0  0  0
    6.7995  -13.3912   19.8797 C   0  0  0  0  0  0  0  0  0  0  0  0
    7.5998  -12.4387   19.0515 C   0  0  0  0  0  0  0  0  0  0  0  0
    8.5116  -13.1952   18.2056 N   0  0  0  0  0  0  0  0  0  0  0  0
    8.5003  -15.2465   23.4806 C   0  0  0  0  0  0  0  0  0  0  0  0
    9.4670  -14.4998   23.0903 O   0  0  0  0  0  0  0  0  0  0  0  0
    6.2545  -12.0376   26.9209 C   0  0  0  0  0  0  0  0  0  0  0  0
    7.2205  -12.7238   25.9490 C   0  0  1  0  0  0  0  0  0  0  0  0
    7.9501  -11.6748   25.1455 C   0  0  0  0  0  0  0  0  0  0  0  0
    8.1846  -13.6073   26.7123 C   0  0  0  0  0  0  0  0  0  0  0  0
    9.0435  -14.4281   25.8002 C   0  0  2  0  0  0  0  0  0  0  0  0
    8.2424  -15.2183   24.8600 N   0  0  0  0  0  0  0  0  0  0  0  0
    9.9511  -15.3328   26.5534 C   0  0  0  0  0  0  0  0  0  0  0  0
   10.7597  -14.8393   27.3696 O   0  0  0  0  0  0  0  0  0  0  0  0
    9.9263  -16.6961   26.3777 O   0  0  0  0  0  0  0  0  0  0  0  0
  2  1  1  0
  3  2  1  0
  3  4  1  1
  5  3  1  0
  5  6  1  6
  7  5  1  0
  7  8  2  0
  9  7  1  0
 10  9  1  0
 10 11  1  1
 12 11  1  0
 13 12  1  0
 13 14  1  0
 15 14  1  0
 16 23  1  0
 16 10  1  0
 17 16  2  0
 19 21  1  0
 19 18  1  1
 20 19  1  0
 22 21  1  1
 22 23  1  0
 22 24  1  0
 24 25  2  0
 24 26  1  0
M  END
$$$$
