IKL.pdb
     RDKit          3D

 26 25  0  0  1  0  0  0  0  0999 V2000
    7.7741  -11.6643   20.2713 C   0  0  0  0  0  0  0  0  0  0  0  0
    7.6800  -13.1154   19.7895 C   0  0  0  0  0  0  0  0  0  0  0  0
    8.0663  -13.9816   20.9654 C   0  0  2  0  0  0  0  0  0  0  0  0
    9.3745  -13.4825   21.4918 C   0  0  0  0  0  0  0  0  0  0  0  0
    8.0288  -15.4460   20.6693 C   0  0  2  0  0  0  0  0  0  0  0  0
    6.7901  -15.7670   20.0286 N   0  0  0  0  0  0  0  0  0  0  0  0
    8.2535  -16.2795   21.8822 C   0  0  0  0  0  0  0  0  0  0  0  0
    7.3725  -16.4590   22.7471 O   0  0  0  0  0  0  0  0  0  0  0  0
    9.5214  -16.8807   22.0391 N   0  0  0  0  0  0  0  0  0  0  0  0
   10.0220  -17.6066   23.1517 C   0  0  1  0  0  0  0  0  0  0  0  0
   10.9191  -18.7962   22.7826 C   0  0  0  0  0  0  0  0  0  0  0  0
   10.2854  -19.7662   21.8515 C   0  0  0  0  0  0  0  0  0  0  0  0
    9.5640  -20.9014   22.5623 C   0  0  0  0  0  0  0  0  0  0  0  0
    8.9069  -21.8632   21.6260 C   0  0  0  0  0  0  0  0  0  0  0  0
    8.2236  -22.8888   22.4010 N   0  0  0  0  0  0  0  0  0  0  0  0
   10.5282  -16.8211   24.2703 C   0  0  0  0  0  0  0  0  0  0  0  0
   11.0585  -15.6636   24.1167 O   0  0  0  0  0  0  0  0  0  0  0  0
   10.6078  -13.5136   27.8415 C   0  0  0  0  0  0  0  0  0  0  0  0
    9.3999  -14.4544   27.9080 C   0  0  1  0  0  0  0  0  0  0  0  0
    8.1336  -13.6369   27.9889 C   0  0  0  0  0  0  0  0  0  0  0  0
    9.3905  -15.3733   26.7046 C   0  0  0  0  0  0  0  0  0  0  0  0
   10.5017  -16.3766   26.7496 C   0  0  2  0  0  0  0  0  0  0  0  0
   10.4685  -17.2803   25.5953 N   0  0  0  0  0  0  0  0  0  0  0  0
   10.4793  -17.1776   28.0015 C   0  0  0  0  0  0  0  0  0  0  0  0
    9.6031  -18.0585   28.1428 O   0  0  0  0  0  0  0  0  0  0  0  0
   11.3946  -16.9772   29.0076 O   0  0  0  0  0  0  0  0  0  0  0  0
  2  1  1  0
  3  2  1  0
  3  4  1  6
  5  3  1  0
  5  6  1  1
  7  5  1  0
  7  8  2  0
  9  7  1  0
 10  9  1  0
 10 11  1  6
 12 11  1  0
 13 12  1  0
 13 14  1  0
 15 14  1  0
 16 23  1  0
 16 10  1  0
 17 16  2  0
 19 21  1  0
 19 18  1  6
 20 19  1  0
 22 21  1  1
 22 23  1  0
 22 24  1  0
 24 25  2  0
 24 26  1  0
M  END
$$$$
