IKL.pdb
     RDKit          3D

 26 25  0  0  1  0  0  0  0  0999 V2000
    7.7346  -11.9153   19.3152 C   0  0  0  0  0  0  0  0  0  0  0  0
    7.6920  -13.4422   19.1989 C   0  0  0  0  0  0  0  0  0  0  0  0
    7.8176  -13.9812   20.6046 C   0  0  2  0  0  0  0  0  0  0  0  0
    9.0481  -13.3880   21.2144 C   0  0  0  0  0  0  0  0  0  0  0  0
    7.7356  -15.4713   20.6851 C   0  0  2  0  0  0  0  0  0  0  0  0
    6.5216  -15.9116   20.0686 N   0  0  0  0  0  0  0  0  0  0  0  0
    7.8589  -15.9751   22.0805 C   0  0  0  0  0  0  0  0  0  0  0  0
    6.8982  -15.9921   22.8763 O   0  0  0  0  0  0  0  0  0  0  0  0
    9.1223  -16.4474   22.4981 N   0  0  0  0  0  0  0  0  0  0  0  0
    9.5257  -16.8587   23.7955 C   0  0  1  0  0  0  0  0  0  0  0  0
   10.5510  -18.0010   23.8097 C   0  0  0  0  0  0  0  0  0  0  0  0
   10.8752  -18.5067   25.1693 C   0  0  0  0  0  0  0  0  0  0  0  0
   11.8786  -19.6500   25.1641 C   0  0  0  0  0  0  0  0  0  0  0  0
   12.1775  -20.1814   26.5287 C   0  0  0  0  0  0  0  0  0  0  0  0
   13.0951  -21.3053   26.4102 N   0  0  0  0  0  0  0  0  0  0  0  0
    9.8196  -15.8011   24.7544 C   0  0  0  0  0  0  0  0  0  0  0  0
   10.7921  -14.9798   24.5995 O   0  0  0  0  0  0  0  0  0  0  0  0
    5.8512  -13.0259   26.7420 C   0  0  0  0  0  0  0  0  0  0  0  0
    7.2237  -13.4575   26.2143 C   0  0  1  0  0  0  0  0  0  0  0  0
    7.8292  -12.3292   25.4151 C   0  0  0  0  0  0  0  0  0  0  0  0
    8.1187  -13.8634   27.3662 C   0  0  0  0  0  0  0  0  0  0  0  0
    9.3568  -14.5663   26.9008 C   0  0  2  0  0  0  0  0  0  0  0  0
    9.0547  -15.6096   25.9157 N   0  0  0  0  0  0  0  0  0  0  0  0
   10.1175  -15.1624   28.0301 C   0  0  0  0  0  0  0  0  0  0  0  0
   10.5641  -14.4114   28.9245 O   0  0  0  0  0  0  0  0  0  0  0  0
   10.3437  -16.5156   28.1184 O   0  0  0  0  0  0  0  0  0  0  0  0
  2  1  1  0
  3  2  1  0
  3  4  1  6
  5  3  1  0
  5  6  1  1
  7  5  1  0
  7  8  2  0
  9  7  1  0
 10  9  1  0
 10 11  1  6
 12 11  1  0
 13 12  1  0
 13 14  1  0
 15 14  1  0
 16 23  1  0
 16 10  1  0
 17 16  2  0
 19 21  1  0
 19 18  1  1
 20 19  1  0
 22 21  1  1
 22 23  1  0
 22 24  1  0
 24 25  2  0
 24 26  1  0
M  END
$$$$
