IKL.pdb
     RDKit          3D

 26 25  0  0  1  0  0  0  0  0999 V2000
    7.5930  -11.8268   26.8346 C   0  0  0  0  0  0  0  0  0  0  0  0
    7.1599  -13.2956   26.7937 C   0  0  0  0  0  0  0  0  0  0  0  0
    6.4269  -13.4884   25.4869 C   0  0  2  0  0  0  0  0  0  0  0  0
    5.2406  -12.5771   25.4882 C   0  0  0  0  0  0  0  0  0  0  0  0
    6.1175  -14.9176   25.1781 C   0  0  2  0  0  0  0  0  0  0  0  0
    5.3809  -15.4870   26.2648 N   0  0  0  0  0  0  0  0  0  0  0  0
    7.3377  -15.7108   24.8644 C   0  0  0  0  0  0  0  0  0  0  0  0
    7.7517  -16.6273   25.6027 O   0  0  0  0  0  0  0  0  0  0  0  0
    8.0380  -15.3959   23.6796 N   0  0  0  0  0  0  0  0  0  0  0  0
    9.2348  -15.9750   23.1818 C   0  0  1  0  0  0  0  0  0  0  0  0
    9.8241  -15.2615   21.9570 C   0  0  0  0  0  0  0  0  0  0  0  0
   10.9711  -15.9736   21.3354 C   0  0  0  0  0  0  0  0  0  0  0  0
   10.5499  -17.0194   20.3141 C   0  0  0  0  0  0  0  0  0  0  0  0
   11.6992  -17.7853   19.7429 C   0  0  0  0  0  0  0  0  0  0  0  0
   11.2040  -18.6863   18.7122 N   0  0  0  0  0  0  0  0  0  0  0  0
   10.2357  -16.3578   24.1697 C   0  0  0  0  0  0  0  0  0  0  0  0
   11.3216  -16.9622   23.8535 O   0  0  0  0  0  0  0  0  0  0  0  0
    9.2714  -14.4489   29.2856 C   0  0  0  0  0  0  0  0  0  0  0  0
    9.8492  -14.7030   27.8891 C   0  0  1  0  0  0  0  0  0  0  0  0
   10.6266  -13.4891   27.4415 C   0  0  0  0  0  0  0  0  0  0  0  0
   10.7179  -15.9431   27.9044 C   0  0  0  0  0  0  0  0  0  0  0  0
   11.1252  -16.3660   26.5265 C   0  0  2  0  0  0  0  0  0  0  0  0
   10.0779  -16.0890   25.5383 N   0  0  0  0  0  0  0  0  0  0  0  0
   11.4861  -17.8068   26.4692 C   0  0  0  0  0  0  0  0  0  0  0  0
   10.8406  -18.5644   25.7122 O   0  0  0  0  0  0  0  0  0  0  0  0
   12.5089  -18.3292   27.2247 O   0  0  0  0  0  0  0  0  0  0  0  0
  2  1  1  0
  3  2  1  0
  3  4  1  1
  5  3  1  0
  5  6  1  1
  7  5  1  0
  7  8  2  0
  9  7  1  0
 10  9  1  0
 10 11  1  6
 12 11  1  0
 13 12  1  0
 13 14  1  0
 15 14  1  0
 16 23  1  0
 16 10  1  0
 17 16  2  0
 19 21  1  0
 19 18  1  1
 20 19  1  0
 22 21  1  1
 22 23  1  0
 22 24  1  0
 24 25  2  0
 24 26  1  0
M  END
$$$$
