IKL.pdb
     RDKit          3D

 26 25  0  0  1  0  0  0  0  0999 V2000
    7.9433  -11.7395   20.3635 C   0  0  0  0  0  0  0  0  0  0  0  0
    7.2435  -13.0857   20.5752 C   0  0  0  0  0  0  0  0  0  0  0  0
    8.0867  -14.1211   19.8686 C   0  0  2  0  0  0  0  0  0  0  0  0
    8.3449  -13.6309   18.4791 C   0  0  0  0  0  0  0  0  0  0  0  0
    7.5295  -15.5055   19.9502 C   0  0  2  0  0  0  0  0  0  0  0  0
    6.3182  -15.5727   19.1912 N   0  0  0  0  0  0  0  0  0  0  0  0
    7.3254  -15.9567   21.3542 C   0  0  0  0  0  0  0  0  0  0  0  0
    6.2805  -15.7165   21.9922 O   0  0  0  0  0  0  0  0  0  0  0  0
    8.3689  -16.6835   21.9678 N   0  0  0  0  0  0  0  0  0  0  0  0
    8.4122  -17.2296   23.2774 C   0  0  1  0  0  0  0  0  0  0  0  0
    8.9156  -18.6782   23.3453 C   0  0  0  0  0  0  0  0  0  0  0  0
    8.8816  -19.2676   24.7093 C   0  0  0  0  0  0  0  0  0  0  0  0
    9.4543  -20.6755   24.7725 C   0  0  0  0  0  0  0  0  0  0  0  0
    9.3097  -21.3136   26.1163 C   0  0  0  0  0  0  0  0  0  0  0  0
   10.0399  -22.5730   26.1250 N   0  0  0  0  0  0  0  0  0  0  0  0
    8.9573  -16.3745   24.3244 C   0  0  0  0  0  0  0  0  0  0  0  0
   10.1278  -15.8556   24.2520 O   0  0  0  0  0  0  0  0  0  0  0  0
    5.9160  -12.7278   26.4415 C   0  0  0  0  0  0  0  0  0  0  0  0
    7.1840  -13.4320   25.9469 C   0  0  1  0  0  0  0  0  0  0  0  0
    8.1475  -12.4042   25.4051 C   0  0  0  0  0  0  0  0  0  0  0  0
    7.8042  -14.2348   27.0710 C   0  0  0  0  0  0  0  0  0  0  0  0
    8.7915  -15.2431   26.5689 C   0  0  2  0  0  0  0  0  0  0  0  0
    8.2348  -16.0601   25.4859 N   0  0  0  0  0  0  0  0  0  0  0  0
    9.2805  -16.1332   27.6542 C   0  0  0  0  0  0  0  0  0  0  0  0
    9.8879  -15.6299   28.6244 O   0  0  0  0  0  0  0  0  0  0  0  0
    9.0836  -17.4934   27.6211 O   0  0  0  0  0  0  0  0  0  0  0  0
  2  1  1  0
  3  2  1  0
  3  4  1  6
  5  3  1  0
  5  6  1  6
  7  5  1  0
  7  8  2  0
  9  7  1  0
 10  9  1  0
 10 11  1  6
 12 11  1  0
 13 12  1  0
 13 14  1  0
 15 14  1  0
 16 23  1  0
 16 10  1  0
 17 16  2  0
 19 21  1  0
 19 18  1  1
 20 19  1  0
 22 21  1  1
 22 23  1  0
 22 24  1  0
 24 25  2  0
 24 26  1  0
M  END
$$$$
