IKL.pdb
     RDKit          3D

 26 25  0  0  1  0  0  0  0  0999 V2000
    6.8903  -12.5901   17.7097 C   0  0  0  0  0  0  0  0  0  0  0  0
    7.9677  -13.5509   18.2225 C   0  0  0  0  0  0  0  0  0  0  0  0
    7.6196  -13.8543   19.6609 C   0  0  2  0  0  0  0  0  0  0  0  0
    7.5504  -12.5551   20.3993 C   0  0  0  0  0  0  0  0  0  0  0  0
    8.5037  -14.8836   20.2875 C   0  0  2  0  0  0  0  0  0  0  0  0
    8.4289  -16.0952   19.5297 N   0  0  0  0  0  0  0  0  0  0  0  0
    8.1848  -15.1118   21.7237 C   0  0  0  0  0  0  0  0  0  0  0  0
    8.0307  -14.1764   22.5348 O   0  0  0  0  0  0  0  0  0  0  0  0
    8.0566  -16.4476   22.1629 N   0  0  0  0  0  0  0  0  0  0  0  0
    7.7707  -16.9230   23.4696 C   0  0  1  0  0  0  0  0  0  0  0  0
    7.6624  -18.4503   23.5803 C   0  0  0  0  0  0  0  0  0  0  0  0
    7.2903  -18.9341   24.9355 C   0  0  0  0  0  0  0  0  0  0  0  0
    7.2721  -20.4508   25.0505 C   0  0  0  0  0  0  0  0  0  0  0  0
    6.8193  -20.9375   26.3891 C   0  0  0  0  0  0  0  0  0  0  0  0
    6.8773  -22.3920   26.4102 N   0  0  0  0  0  0  0  0  0  0  0  0
    8.5133  -16.3114   24.5646 C   0  0  0  0  0  0  0  0  0  0  0  0
    9.7843  -16.4293   24.6871 O   0  0  0  0  0  0  0  0  0  0  0  0
    6.5939  -11.6217   26.4443 C   0  0  0  0  0  0  0  0  0  0  0  0
    7.5121  -12.7401   25.9399 C   0  0  1  0  0  0  0  0  0  0  0  0
    8.7095  -12.1313   25.2515 C   0  0  0  0  0  0  0  0  0  0  0  0
    7.9282  -13.6297   27.0923 C   0  0  0  0  0  0  0  0  0  0  0  0
    8.6287  -14.8690   26.6266 C   0  0  2  0  0  0  0  0  0  0  0  0
    7.8847  -15.5493   25.5617 N   0  0  0  0  0  0  0  0  0  0  0  0
    8.8749  -15.8224   27.7401 C   0  0  0  0  0  0  0  0  0  0  0  0
    9.5774  -15.4569   28.7078 O   0  0  0  0  0  0  0  0  0  0  0  0
    8.3520  -17.0938   27.7357 O   0  0  0  0  0  0  0  0  0  0  0  0
  2  1  1  0
  3  2  1  0
  3  4  1  1
  5  3  1  0
  5  6  1  6
  7  5  1  0
  7  8  2  0
  9  7  1  0
 10  9  1  0
 10 11  1  6
 12 11  1  0
 13 12  1  0
 13 14  1  0
 15 14  1  0
 16 23  1  0
 16 10  1  0
 17 16  2  0
 19 21  1  0
 19 18  1  1
 20 19  1  0
 22 21  1  1
 22 23  1  0
 22 24  1  0
 24 25  2  0
 24 26  1  0
M  END
$$$$
