IKL.pdb
     RDKit          3D

 26 25  0  0  1  0  0  0  0  0999 V2000
    6.2492  -10.6426   27.1590 C   0  0  0  0  0  0  0  0  0  0  0  0
    6.5365  -12.1208   27.4398 C   0  0  0  0  0  0  0  0  0  0  0  0
    5.7441  -12.9103   26.4243 C   0  0  2  0  0  0  0  0  0  0  0  0
    4.3018  -12.5481   26.5867 C   0  0  0  0  0  0  0  0  0  0  0  0
    6.0276  -14.3774   26.4515 C   0  0  2  0  0  0  0  0  0  0  0  0
    7.0844  -14.6373   27.3808 N   0  0  0  0  0  0  0  0  0  0  0  0
    6.3346  -14.9245   25.1014 C   0  0  0  0  0  0  0  0  0  0  0  0
    5.6724  -15.8461   24.5831 O   0  0  0  0  0  0  0  0  0  0  0  0
    7.4226  -14.3631   24.3981 N   0  0  0  0  0  0  0  0  0  0  0  0
    8.1468  -14.9132   23.3080 C   0  0  1  0  0  0  0  0  0  0  0  0
    8.0905  -14.0774   22.0216 C   0  0  0  0  0  0  0  0  0  0  0  0
    8.5753  -14.7936   20.8128 C   0  0  0  0  0  0  0  0  0  0  0  0
    8.6187  -13.9177   19.5697 C   0  0  0  0  0  0  0  0  0  0  0  0
    8.9861  -14.6674   18.3300 C   0  0  0  0  0  0  0  0  0  0  0  0
    9.1830  -13.7196   17.2427 N   0  0  0  0  0  0  0  0  0  0  0  0
    9.4741  -15.4379   23.6034 C   0  0  0  0  0  0  0  0  0  0  0  0
   10.3166  -15.7406   22.6853 O   0  0  0  0  0  0  0  0  0  0  0  0
   10.7273  -15.8810   28.8874 C   0  0  0  0  0  0  0  0  0  0  0  0
   10.4941  -15.2953   27.4906 C   0  0  1  0  0  0  0  0  0  0  0  0
   10.2081  -13.8180   27.6095 C   0  0  0  0  0  0  0  0  0  0  0  0
   11.6976  -15.5578   26.6100 C   0  0  0  0  0  0  0  0  0  0  0  0
   11.3063  -16.0071   25.2358 C   0  0  2  0  0  0  0  0  0  0  0  0
    9.9208  -15.6474   24.9175 N   0  0  0  0  0  0  0  0  0  0  0  0
   11.4876  -17.4713   25.0550 C   0  0  0  0  0  0  0  0  0  0  0  0
   10.4925  -18.1766   24.7796 O   0  0  0  0  0  0  0  0  0  0  0  0
   12.7181  -18.0712   25.1822 O   0  0  0  0  0  0  0  0  0  0  0  0
  2  1  1  0
  3  2  1  0
  3  4  1  1
  5  3  1  0
  5  6  1  1
  7  5  1  0
  7  8  2  0
  9  7  1  0
 10  9  1  0
 10 11  1  6
 12 11  1  0
 13 12  1  0
 13 14  1  0
 15 14  1  0
 16 23  1  0
 16 10  1  0
 17 16  2  0
 19 21  1  0
 19 18  1  1
 20 19  1  0
 22 21  1  1
 22 23  1  0
 22 24  1  0
 24 25  2  0
 24 26  1  0
M  END
$$$$
