MTN.pdb
     RDKit          3D

 24 23  0  0  1  0  0  0  0  0999 V2000
   27.9669  -13.0259  -15.3976 C   0  0  0  0  0  0  0  0  0  0  0  0
   27.2430  -14.6390  -15.0703 S   0  0  0  0  0  0  0  0  0  0  0  0
   25.5802  -14.8016  -15.7302 C   0  0  0  0  0  0  0  0  0  0  0  0
   24.9582  -13.4512  -16.0209 C   0  0  0  0  0  0  0  0  0  0  0  0
   23.6114  -13.5705  -16.6618 C   0  0  2  0  0  0  0  0  0  0  0  0
   23.6702  -14.5976  -17.6783 N   0  0  0  0  0  0  0  0  0  0  0  0
   23.1337  -12.2755  -17.2284 C   0  0  0  0  0  0  0  0  0  0  0  0
   23.5697  -11.9167  -18.3314 O   0  0  0  0  0  0  0  0  0  0  0  0
   20.0223  -11.2062  -18.6462 C   0  0  0  0  0  0  0  0  0  0  0  0
   20.2591  -10.3807  -17.4274 C   0  0  1  0  0  0  0  0  0  0  0  0
   19.5893  -10.8676  -16.3038 O   0  0  0  0  0  0  0  0  0  0  0  0
   21.7035  -10.2096  -17.0770 C   0  0  2  0  0  0  0  0  0  0  0  0
   22.1974  -11.4662  -16.5206 N   0  0  0  0  0  0  0  0  0  0  0  0
   21.7914   -9.1876  -15.9902 C   0  0  0  0  0  0  0  0  0  0  0  0
   21.7892   -9.5041  -14.7646 O   0  0  0  0  0  0  0  0  0  0  0  0
   22.1670   -4.9215  -13.3360 N   0  0  0  0  0  0  0  0  0  0  0  0
   22.3870   -4.4529  -14.6807 C   0  0  0  0  0  0  0  0  0  0  0  0
   22.6245   -3.2364  -14.8092 O   0  0  0  0  0  0  0  0  0  0  0  0
   22.3126   -5.4441  -15.7756 C   0  0  0  0  0  0  0  0  0  0  0  0
   22.0069   -6.7865  -15.2099 C   0  0  2  0  0  0  0  0  0  0  0  0
   21.8829   -7.7972  -16.2758 N   0  0  0  0  0  0  0  0  0  0  0  0
   20.6841   -6.7656  -14.5405 C   0  0  0  0  0  0  0  0  0  0  0  0
   19.5931   -6.8364  -15.1765 O   0  0  0  0  0  0  0  0  0  0  0  0
   20.5443   -6.6649  -13.1414 O   0  0  0  0  0  0  0  0  0  0  0  0
  1  2  1  0
  2  3  1  0
  4  5  1  0
  4  3  1  0
  5  6  1  6
  7  5  1  0
  8  7  2  0
 10  9  1  6
 10 11  1  0
 10 12  1  0
 12 14  1  0
 12 13  1  1
 13  7  1  0
 14 15  2  0
 16 17  1  0
 17 19  1  0
 18 17  2  0
 20 19  1  6
 21 20  1  0
 21 14  1  0
 22 20  1  0
 23 22  2  0
 24 22  1  0
M  END
$$$$
