MTN.pdb
     RDKit          3D

 24 23  0  0  1  0  0  0  0  0999 V2000
   31.8753  -32.4075  -16.6682 C   0  0  0  0  0  0  0  0  0  0  0  0
   30.4171  -33.2428  -17.3080 S   0  0  0  0  0  0  0  0  0  0  0  0
   28.8946  -32.3632  -16.9403 C   0  0  0  0  0  0  0  0  0  0  0  0
   29.1592  -30.9222  -16.5548 C   0  0  0  0  0  0  0  0  0  0  0  0
   27.9001  -30.1207  -16.4484 C   0  0  2  0  0  0  0  0  0  0  0  0
   27.0765  -30.3941  -17.6054 N   0  0  0  0  0  0  0  0  0  0  0  0
   28.1658  -28.6593  -16.3067 C   0  0  0  0  0  0  0  0  0  0  0  0
   28.9208  -28.2814  -15.3998 O   0  0  0  0  0  0  0  0  0  0  0  0
   30.1129  -26.3073  -18.2615 C   0  0  0  0  0  0  0  0  0  0  0  0
   28.6757  -25.9161  -18.3279 C   0  0  1  0  0  0  0  0  0  0  0  0
   28.0259  -26.4265  -19.4527 O   0  0  0  0  0  0  0  0  0  0  0  0
   27.8838  -26.2923  -17.1156 C   0  0  2  0  0  0  0  0  0  0  0  0
   27.5671  -27.7158  -17.1922 N   0  0  0  0  0  0  0  0  0  0  0  0
   26.5859  -25.5537  -17.1710 C   0  0  0  0  0  0  0  0  0  0  0  0
   25.5331  -26.0741  -17.6434 O   0  0  0  0  0  0  0  0  0  0  0  0
   22.8078  -22.3170  -16.5918 N   0  0  0  0  0  0  0  0  0  0  0  0
   23.6034  -22.1904  -15.3971 C   0  0  0  0  0  0  0  0  0  0  0  0
   23.0858  -21.5626  -14.4533 O   0  0  0  0  0  0  0  0  0  0  0  0
   24.9467  -22.8088  -15.3962 C   0  0  0  0  0  0  0  0  0  0  0  0
   25.1733  -23.5053  -16.6920 C   0  0  2  0  0  0  0  0  0  0  0  0
   26.4629  -24.2194  -16.6936 N   0  0  0  0  0  0  0  0  0  0  0  0
   25.2786  -22.5137  -17.7892 C   0  0  0  0  0  0  0  0  0  0  0  0
   24.2966  -21.8204  -18.1828 O   0  0  0  0  0  0  0  0  0  0  0  0
   26.4847  -22.2695  -18.4768 O   0  0  0  0  0  0  0  0  0  0  0  0
  1  2  1  0
  2  3  1  0
  4  5  1  0
  4  3  1  0
  5  6  1  6
  7  5  1  0
  8  7  2  0
 10  9  1  1
 10 11  1  0
 10 12  1  0
 12 14  1  0
 12 13  1  6
 13  7  1  0
 14 15  2  0
 16 17  1  0
 17 19  1  0
 18 17  2  0
 20 19  1  1
 21 20  1  0
 21 14  1  0
 22 20  1  0
 23 22  2  0
 24 22  1  0
M  END
$$$$
