MTN.pdb
     RDKit          3D

 24 23  0  0  1  0  0  0  0  0999 V2000
   28.1912  -20.1952  -20.5405 C   0  0  0  0  0  0  0  0  0  0  0  0
   28.9554  -18.8575  -21.4677 S   0  0  0  0  0  0  0  0  0  0  0  0
   28.8146  -17.2692  -20.6405 C   0  0  0  0  0  0  0  0  0  0  0  0
   28.1690  -17.4032  -19.2765 C   0  0  0  0  0  0  0  0  0  0  0  0
   28.0064  -16.0830  -18.5912 C   0  0  2  0  0  0  0  0  0  0  0  0
   29.3169  -15.5216  -18.3476 N   0  0  0  0  0  0  0  0  0  0  0  0
   27.2207  -16.1906  -17.3274 C   0  0  0  0  0  0  0  0  0  0  0  0
   27.8095  -16.5361  -16.2933 O   0  0  0  0  0  0  0  0  0  0  0  0
   25.8500  -13.7595  -15.1720 C   0  0  0  0  0  0  0  0  0  0  0  0
   24.6962  -14.5664  -15.6628 C   0  0  1  0  0  0  0  0  0  0  0  0
   24.0241  -13.9613  -16.7259 O   0  0  0  0  0  0  0  0  0  0  0  0
   25.0545  -15.9620  -16.0656 C   0  0  2  0  0  0  0  0  0  0  0  0
   25.8244  -15.9034  -17.3052 N   0  0  0  0  0  0  0  0  0  0  0  0
   23.7853  -16.6877  -16.3750 C   0  0  0  0  0  0  0  0  0  0  0  0
   23.2542  -16.6585  -17.5237 O   0  0  0  0  0  0  0  0  0  0  0  0
   19.6558  -20.6777  -13.9598 N   0  0  0  0  0  0  0  0  0  0  0  0
   20.1139  -19.6336  -14.8407 C   0  0  0  0  0  0  0  0  0  0  0  0
   19.3746  -19.3624  -15.8064 O   0  0  0  0  0  0  0  0  0  0  0  0
   21.4045  -18.9841  -14.5252 C   0  0  0  0  0  0  0  0  0  0  0  0
   21.8418  -18.1598  -15.6849 C   0  0  2  0  0  0  0  0  0  0  0  0
   23.1022  -17.4542  -15.3906 N   0  0  0  0  0  0  0  0  0  0  0  0
   20.8510  -17.0887  -15.9482 C   0  0  0  0  0  0  0  0  0  0  0  0
   19.9747  -17.1740  -16.8564 O   0  0  0  0  0  0  0  0  0  0  0  0
   20.8121  -15.8925  -15.2033 O   0  0  0  0  0  0  0  0  0  0  0  0
  1  2  1  0
  2  3  1  0
  4  5  1  0
  4  3  1  0
  5  6  1  1
  7  5  1  0
  8  7  2  0
 10  9  1  6
 10 11  1  0
 10 12  1  0
 12 14  1  0
 12 13  1  6
 13  7  1  0
 14 15  2  0
 16 17  1  0
 17 19  1  0
 18 17  2  0
 20 19  1  1
 21 20  1  0
 21 14  1  0
 22 20  1  0
 23 22  2  0
 24 22  1  0
M  END
$$$$
