MTN.pdb
     RDKit          3D

 24 23  0  0  1  0  0  0  0  0999 V2000
   19.6032  -13.9145  -17.1018 C   0  0  0  0  0  0  0  0  0  0  0  0
   18.5382  -14.5413  -15.7956 S   0  0  0  0  0  0  0  0  0  0  0  0
   17.3158  -13.3395  -15.2586 C   0  0  0  0  0  0  0  0  0  0  0  0
   17.6066  -11.9593  -15.8114 C   0  0  0  0  0  0  0  0  0  0  0  0
   16.5481  -10.9658  -15.4486 C   0  0  2  0  0  0  0  0  0  0  0  0
   15.3169  -11.3363  -16.1110 N   0  0  0  0  0  0  0  0  0  0  0  0
   16.9423   -9.5662  -15.7831 C   0  0  0  0  0  0  0  0  0  0  0  0
   16.4888   -9.0560  -16.8172 O   0  0  0  0  0  0  0  0  0  0  0  0
   15.8417   -6.5505  -15.4935 C   0  0  0  0  0  0  0  0  0  0  0  0
   17.0911   -6.5573  -14.6797 C   0  0  1  0  0  0  0  0  0  0  0  0
   16.8683   -6.9059  -13.3467 O   0  0  0  0  0  0  0  0  0  0  0  0
   18.1692   -7.4406  -15.2235 C   0  0  2  0  0  0  0  0  0  0  0  0
   17.8201   -8.8291  -14.9354 N   0  0  0  0  0  0  0  0  0  0  0  0
   19.4259   -7.1424  -14.4718 C   0  0  0  0  0  0  0  0  0  0  0  0
   19.5774   -7.4628  -13.2566 O   0  0  0  0  0  0  0  0  0  0  0  0
   22.4422   -8.7875  -14.8712 N   0  0  0  0  0  0  0  0  0  0  0  0
   23.2140   -7.8086  -15.5938 C   0  0  0  0  0  0  0  0  0  0  0  0
   24.0438   -8.2532  -16.4101 O   0  0  0  0  0  0  0  0  0  0  0  0
   22.9567   -6.3809  -15.3066 C   0  0  0  0  0  0  0  0  0  0  0  0
   21.8001   -6.2623  -14.3772 C   0  0  2  0  0  0  0  0  0  0  0  0
   20.5250   -6.4792  -15.0844 N   0  0  0  0  0  0  0  0  0  0  0  0
   21.7172   -4.8811  -13.8445 C   0  0  0  0  0  0  0  0  0  0  0  0
   20.9234   -4.0134  -14.3104 O   0  0  0  0  0  0  0  0  0  0  0  0
   22.5193   -4.4314  -12.7760 O   0  0  0  0  0  0  0  0  0  0  0  0
  1  2  1  0
  2  3  1  0
  4  5  1  0
  4  3  1  0
  5  6  1  6
  7  5  1  0
  8  7  2  0
 10  9  1  6
 10 11  1  0
 10 12  1  0
 12 14  1  0
 12 13  1  1
 13  7  1  0
 14 15  2  0
 16 17  1  0
 17 19  1  0
 18 17  2  0
 20 19  1  6
 21 20  1  0
 21 14  1  0
 22 20  1  0
 23 22  2  0
 24 22  1  0
M  END
$$$$
