MTN.pdb
     RDKit          3D

 24 23  0  0  1  0  0  0  0  0999 V2000
   26.4716  -15.9690  -15.2648 C   0  0  0  0  0  0  0  0  0  0  0  0
   28.0979  -16.5042  -15.8147 S   0  0  0  0  0  0  0  0  0  0  0  0
   28.0393  -18.0040  -16.8015 C   0  0  0  0  0  0  0  0  0  0  0  0
   27.0869  -19.0248  -16.2134 C   0  0  0  0  0  0  0  0  0  0  0  0
   27.7818  -20.0036  -15.3199 C   0  0  2  0  0  0  0  0  0  0  0  0
   28.7470  -20.7431  -16.1031 N   0  0  0  0  0  0  0  0  0  0  0  0
   26.8286  -20.9207  -14.6298 C   0  0  0  0  0  0  0  0  0  0  0  0
   26.7635  -22.0988  -15.0082 O   0  0  0  0  0  0  0  0  0  0  0  0
   26.3437  -21.2395  -10.7210 C   0  0  0  0  0  0  0  0  0  0  0  0
   25.0527  -20.9911  -11.4244 C   0  0  1  0  0  0  0  0  0  0  0  0
   24.6114  -19.6729  -11.2988 O   0  0  0  0  0  0  0  0  0  0  0  0
   25.0714  -21.3448  -12.8779 C   0  0  2  0  0  0  0  0  0  0  0  0
   26.0095  -20.4567  -13.5591 N   0  0  0  0  0  0  0  0  0  0  0  0
   23.7152  -21.0560  -13.4353 C   0  0  0  0  0  0  0  0  0  0  0  0
   23.4440  -19.9666  -14.0201 O   0  0  0  0  0  0  0  0  0  0  0  0
   18.8016  -22.9804  -15.8002 N   0  0  0  0  0  0  0  0  0  0  0  0
   19.1350  -22.6234  -14.4446 C   0  0  0  0  0  0  0  0  0  0  0  0
   18.2405  -22.0573  -13.7872 O   0  0  0  0  0  0  0  0  0  0  0  0
   20.4916  -22.9562  -13.9592 C   0  0  0  0  0  0  0  0  0  0  0  0
   21.3101  -21.7152  -13.8840 C   0  0  2  0  0  0  0  0  0  0  0  0
   22.6507  -21.9944  -13.3383 N   0  0  0  0  0  0  0  0  0  0  0  0
   20.6958  -20.7595  -12.9312 C   0  0  0  0  0  0  0  0  0  0  0  0
   20.8853  -20.8198  -11.6821 O   0  0  0  0  0  0  0  0  0  0  0  0
   19.8525  -19.7097  -13.3486 O   0  0  0  0  0  0  0  0  0  0  0  0
  1  2  1  0
  2  3  1  0
  4  5  1  0
  4  3  1  0
  5  6  1  6
  7  5  1  0
  8  7  2  0
 10  9  1  6
 10 11  1  0
 10 12  1  0
 12 14  1  0
 12 13  1  6
 13  7  1  0
 14 15  2  0
 16 17  1  0
 17 19  1  0
 18 17  2  0
 20 19  1  1
 21 20  1  0
 21 14  1  0
 22 20  1  0
 23 22  2  0
 24 22  1  0
M  END
$$$$
