SEG.pdb
     RDKit          3D

 20 19  0  0  1  0  0  0  0  0999 V2000
   11.2035  -13.0724   18.3981 O   0  0  0  0  0  0  0  0  0  0  0  0
   10.3672  -14.1781   18.4739 C   0  0  0  0  0  0  0  0  0  0  0  0
    8.9514  -13.7947   18.8340 C   0  0  2  0  0  0  0  0  0  0  0  0
    8.6900  -12.4035   18.6326 N   0  0  0  0  0  0  0  0  0  0  0  0
    8.5595  -14.2257   20.1762 C   0  0  0  0  0  0  0  0  0  0  0  0
    8.3166  -13.4369   21.1298 O   0  0  0  0  0  0  0  0  0  0  0  0
    8.4421  -15.6152   20.4333 N   0  0  0  0  0  0  0  0  0  0  0  0
    7.9955  -16.1414   21.7501 C   0  0  1  0  0  0  0  0  0  0  0  0
    7.2197  -17.3866   21.5129 C   0  0  0  0  0  0  0  0  0  0  0  0
    6.8107  -18.1300   22.7092 C   0  0  0  0  0  0  0  0  0  0  0  0
    6.0730  -19.3752   22.4979 C   0  0  0  0  0  0  0  0  0  0  0  0
    6.6167  -20.3146   21.8716 O   0  0  0  0  0  0  0  0  0  0  0  0
    9.1706  -16.1981   22.6066 C   0  0  0  0  0  0  0  0  0  0  0  0
   10.2914  -16.5234   22.0756 O   0  0  0  0  0  0  0  0  0  0  0  0
    4.7786  -19.5989   22.9564 O   0  0  0  0  0  0  0  0  0  0  0  0
    9.2345  -15.9223   23.9930 N   0  0  0  0  0  0  0  0  0  0  0  0
   10.4691  -15.9361   24.7485 C   0  0  0  0  0  0  0  0  0  0  0  0
   10.6364  -17.1889   25.5134 C   0  0  0  0  0  0  0  0  0  0  0  0
   11.7486  -17.2944   26.3324 O   0  0  0  0  0  0  0  0  0  0  0  0
    9.8442  -18.1568   25.4710 O   0  0  0  0  0  0  0  0  0  0  0  0
  2  1  1  0
  3  2  1  0
  3  4  1  1
  5  3  1  0
  5  6  2  0
  7  5  1  0
  8  7  1  0
  8  9  1  6
 10  9  1  0
 11 10  1  0
 12 11  2  0
 13  8  1  0
 13 16  1  0
 14 13  2  0
 15 11  1  0
 17 16  1  0
 18 17  1  0
 19 18  1  0
 20 18  2  0
M  END
$$$$
