SEG.pdb
     RDKit          3D

 20 19  0  0  1  0  0  0  0  0999 V2000
   15.2669  -14.3374   18.7001 O   0  0  0  0  0  0  0  0  0  0  0  0
   14.1119  -14.3342   19.4706 C   0  0  0  0  0  0  0  0  0  0  0  0
   12.9658  -15.0324   18.7775 C   0  0  2  0  0  0  0  0  0  0  0  0
   12.5296  -14.3415   17.6041 N   0  0  0  0  0  0  0  0  0  0  0  0
   11.8467  -15.3327   19.6708 C   0  0  0  0  0  0  0  0  0  0  0  0
   10.8021  -14.6311   19.7568 O   0  0  0  0  0  0  0  0  0  0  0  0
   11.9301  -16.4821   20.4970 N   0  0  0  0  0  0  0  0  0  0  0  0
   10.7998  -16.9225   21.3565 C   0  0  1  0  0  0  0  0  0  0  0  0
   10.4820  -18.3341   21.0173 C   0  0  0  0  0  0  0  0  0  0  0  0
    9.5868  -18.5372   19.8733 C   0  0  0  0  0  0  0  0  0  0  0  0
    9.2894  -19.9197   19.4995 C   0  0  0  0  0  0  0  0  0  0  0  0
   10.2191  -20.7586   19.4521 O   0  0  0  0  0  0  0  0  0  0  0  0
   11.1546  -16.5924   22.7287 C   0  0  0  0  0  0  0  0  0  0  0  0
   12.3963  -16.5898   23.0488 O   0  0  0  0  0  0  0  0  0  0  0  0
    8.0152  -20.3833   19.1876 O   0  0  0  0  0  0  0  0  0  0  0  0
   10.2744  -16.2552   23.7839 N   0  0  0  0  0  0  0  0  0  0  0  0
   10.7269  -15.7647   25.0684 C   0  0  0  0  0  0  0  0  0  0  0  0
   11.0909  -16.8650   25.9845 C   0  0  0  0  0  0  0  0  0  0  0  0
   11.5192  -16.5227   27.2567 O   0  0  0  0  0  0  0  0  0  0  0  0
   11.0385  -18.0802   25.6895 O   0  0  0  0  0  0  0  0  0  0  0  0
  2  1  1  0
  3  2  1  0
  3  4  1  6
  5  3  1  0
  5  6  2  0
  7  5  1  0
  8  7  1  0
  8  9  1  1
 10  9  1  0
 11 10  1  0
 12 11  2  0
 13  8  1  0
 13 16  1  0
 14 13  2  0
 15 11  1  0
 17 16  1  0
 18 17  1  0
 19 18  1  0
 20 18  2  0
M  END
$$$$
