SEG.pdb
     RDKit          3D

 20 19  0  0  1  0  0  0  0  0999 V2000
   12.3489  -18.9901   18.5700 O   0  0  0  0  0  0  0  0  0  0  0  0
   11.0829  -19.2361   19.0842 C   0  0  0  0  0  0  0  0  0  0  0  0
   10.9005  -18.6309   20.4560 C   0  0  2  0  0  0  0  0  0  0  0  0
   11.4409  -17.3106   20.5511 N   0  0  0  0  0  0  0  0  0  0  0  0
   11.3879  -19.4894   21.5359 C   0  0  0  0  0  0  0  0  0  0  0  0
   10.8255  -20.5585   21.8984 O   0  0  0  0  0  0  0  0  0  0  0  0
   12.5657  -19.1058   22.2259 N   0  0  0  0  0  0  0  0  0  0  0  0
   13.1727  -19.9524   23.2867 C   0  0  1  0  0  0  0  0  0  0  0  0
   14.6476  -19.7773   23.2323 C   0  0  0  0  0  0  0  0  0  0  0  0
   15.3904  -20.7909   22.4759 C   0  0  0  0  0  0  0  0  0  0  0  0
   16.8398  -20.6188   22.3804 C   0  0  0  0  0  0  0  0  0  0  0  0
   17.3198  -19.4633   22.3117 O   0  0  0  0  0  0  0  0  0  0  0  0
   12.4741  -19.6477   24.5263 C   0  0  0  0  0  0  0  0  0  0  0  0
   12.3423  -18.4166   24.8598 O   0  0  0  0  0  0  0  0  0  0  0  0
   17.7478  -21.6728   22.3629 O   0  0  0  0  0  0  0  0  0  0  0  0
   11.8971  -20.5678   25.4332 N   0  0  0  0  0  0  0  0  0  0  0  0
   11.1335  -20.1641   26.5947 C   0  0  0  0  0  0  0  0  0  0  0  0
   11.9986  -19.9066   27.7643 C   0  0  0  0  0  0  0  0  0  0  0  0
   11.3821  -19.5187   28.9426 O   0  0  0  0  0  0  0  0  0  0  0  0
   13.2454  -20.0150   27.7617 O   0  0  0  0  0  0  0  0  0  0  0  0
  2  1  1  0
  3  2  1  0
  3  4  1  6
  5  3  1  0
  5  6  2  0
  7  5  1  0
  8  7  1  0
  8  9  1  1
 10  9  1  0
 11 10  1  0
 12 11  2  0
 13  8  1  0
 13 16  1  0
 14 13  2  0
 15 11  1  0
 17 16  1  0
 18 17  1  0
 19 18  1  0
 20 18  2  0
M  END
$$$$
