SEG.pdb
     RDKit          3D

 20 19  0  0  1  0  0  0  0  0999 V2000
   17.0198  -12.5150   15.8842 O   0  0  0  0  0  0  0  0  0  0  0  0
   17.1411  -12.9674   17.1913 C   0  0  0  0  0  0  0  0  0  0  0  0
   16.0538  -13.9510   17.5541 C   0  0  2  0  0  0  0  0  0  0  0  0
   14.7518  -13.3602   17.5443 N   0  0  0  0  0  0  0  0  0  0  0  0
   16.3116  -14.6611   18.8071 C   0  0  0  0  0  0  0  0  0  0  0  0
   15.6989  -14.4368   19.8865 O   0  0  0  0  0  0  0  0  0  0  0  0
   17.3107  -15.6672   18.8215 N   0  0  0  0  0  0  0  0  0  0  0  0
   17.6129  -16.4651   20.0390 C   0  0  1  0  0  0  0  0  0  0  0  0
   18.0404  -17.8222   19.6096 C   0  0  0  0  0  0  0  0  0  0  0  0
   18.4170  -18.7495   20.6817 C   0  0  0  0  0  0  0  0  0  0  0  0
   18.8705  -20.0809   20.2798 C   0  0  0  0  0  0  0  0  0  0  0  0
   19.3580  -20.8512   21.1396 O   0  0  0  0  0  0  0  0  0  0  0  0
   18.5167  -15.6694   20.8561 C   0  0  0  0  0  0  0  0  0  0  0  0
   19.1794  -14.7308   20.2868 O   0  0  0  0  0  0  0  0  0  0  0  0
   18.7950  -20.5674   18.9786 O   0  0  0  0  0  0  0  0  0  0  0  0
   18.7566  -15.8004   22.2444 N   0  0  0  0  0  0  0  0  0  0  0  0
   19.5848  -14.8819   22.9965 C   0  0  0  0  0  0  0  0  0  0  0  0
   19.6127  -15.2130   24.4360 C   0  0  0  0  0  0  0  0  0  0  0  0
   20.4088  -14.4309   25.2567 O   0  0  0  0  0  0  0  0  0  0  0  0
   18.9682  -16.1484   24.9611 O   0  0  0  0  0  0  0  0  0  0  0  0
  2  1  1  0
  3  2  1  0
  3  4  1  1
  5  3  1  0
  5  6  2  0
  7  5  1  0
  8  7  1  0
  8  9  1  6
 10  9  1  0
 11 10  1  0
 12 11  2  0
 13  8  1  0
 13 16  1  0
 14 13  2  0
 15 11  1  0
 17 16  1  0
 18 17  1  0
 19 18  1  0
 20 18  2  0
M  END
$$$$
