SEG.pdb
     RDKit          3D

 20 19  0  0  1  0  0  0  0  0999 V2000
    7.8581  -15.5531   15.6936 O   0  0  0  0  0  0  0  0  0  0  0  0
    8.1889  -16.5041   16.6496 C   0  0  0  0  0  0  0  0  0  0  0  0
    8.2043  -17.9018   16.0774 C   0  0  2  0  0  0  0  0  0  0  0  0
    6.9877  -18.2339   15.4036 N   0  0  0  0  0  0  0  0  0  0  0  0
    8.5708  -18.9238   17.0582 C   0  0  0  0  0  0  0  0  0  0  0  0
    7.7745  -19.7941   17.5044 O   0  0  0  0  0  0  0  0  0  0  0  0
    9.9023  -18.9475   17.5452 N   0  0  0  0  0  0  0  0  0  0  0  0
   10.3587  -19.9406   18.5532 C   0  0  1  0  0  0  0  0  0  0  0  0
   11.6247  -20.5476   18.0657 C   0  0  0  0  0  0  0  0  0  0  0  0
   12.7056  -19.6114   17.7393 C   0  0  0  0  0  0  0  0  0  0  0  0
   13.9575  -20.1870   17.2486 C   0  0  0  0  0  0  0  0  0  0  0  0
   14.8187  -19.4381   16.7311 O   0  0  0  0  0  0  0  0  0  0  0  0
   10.3527  -19.2700   19.8446 C   0  0  0  0  0  0  0  0  0  0  0  0
   10.9167  -18.1218   19.9329 O   0  0  0  0  0  0  0  0  0  0  0  0
   14.2706  -21.5408   17.3192 O   0  0  0  0  0  0  0  0  0  0  0  0
    9.7772  -19.7369   21.0499 N   0  0  0  0  0  0  0  0  0  0  0  0
   10.4723  -20.6042   21.9771 C   0  0  0  0  0  0  0  0  0  0  0  0
   11.4557  -19.8655   22.7957 C   0  0  0  0  0  0  0  0  0  0  0  0
   11.0325  -19.3840   24.0237 O   0  0  0  0  0  0  0  0  0  0  0  0
   12.6400  -19.6465   22.4552 O   0  0  0  0  0  0  0  0  0  0  0  0
  2  1  1  0
  3  2  1  0
  3  4  1  1
  5  3  1  0
  5  6  2  0
  7  5  1  0
  8  7  1  0
  8  9  1  6
 10  9  1  0
 11 10  1  0
 12 11  2  0
 13  8  1  0
 13 16  1  0
 14 13  2  0
 15 11  1  0
 17 16  1  0
 18 17  1  0
 19 18  1  0
 20 18  2  0
M  END
$$$$
