SEG.pdb
     RDKit          3D

 20 19  0  0  1  0  0  0  0  0999 V2000
    7.8893  -14.9487   17.2108 O   0  0  0  0  0  0  0  0  0  0  0  0
    8.9866  -14.8047   18.0493 C   0  0  0  0  0  0  0  0  0  0  0  0
    8.6891  -13.9013   19.2225 C   0  0  2  0  0  0  0  0  0  0  0  0
    8.3800  -12.5638   18.8226 N   0  0  0  0  0  0  0  0  0  0  0  0
    9.7300  -13.9271   20.2504 C   0  0  0  0  0  0  0  0  0  0  0  0
   10.6420  -13.0624   20.3557 O   0  0  0  0  0  0  0  0  0  0  0  0
    9.7235  -14.9862   21.1933 N   0  0  0  0  0  0  0  0  0  0  0  0
   10.7807  -15.1303   22.2288 C   0  0  1  0  0  0  0  0  0  0  0  0
   10.1931  -15.8384   23.3958 C   0  0  0  0  0  0  0  0  0  0  0  0
   11.1189  -16.1656   24.4853 C   0  0  0  0  0  0  0  0  0  0  0  0
   10.5613  -16.8622   25.6444 C   0  0  0  0  0  0  0  0  0  0  0  0
    9.3693  -17.2479   25.6167 O   0  0  0  0  0  0  0  0  0  0  0  0
   11.9449  -15.7049   21.5715 C   0  0  0  0  0  0  0  0  0  0  0  0
   11.7637  -16.3633   20.4862 O   0  0  0  0  0  0  0  0  0  0  0  0
   11.2784  -17.1372   26.8045 O   0  0  0  0  0  0  0  0  0  0  0  0
   13.2942  -15.6180   21.9884 N   0  0  0  0  0  0  0  0  0  0  0  0
   14.3851  -15.3143   21.0869 C   0  0  0  0  0  0  0  0  0  0  0  0
   15.6868  -15.2782   21.7849 C   0  0  0  0  0  0  0  0  0  0  0  0
   16.8266  -15.1593   21.0066 O   0  0  0  0  0  0  0  0  0  0  0  0
   15.8278  -15.3475   23.0265 O   0  0  0  0  0  0  0  0  0  0  0  0
  2  1  1  0
  3  2  1  0
  3  4  1  6
  5  3  1  0
  5  6  2  0
  7  5  1  0
  8  7  1  0
  8  9  1  1
 10  9  1  0
 11 10  1  0
 12 11  2  0
 13  8  1  0
 13 16  1  0
 14 13  2  0
 15 11  1  0
 17 16  1  0
 18 17  1  0
 19 18  1  0
 20 18  2  0
M  END
$$$$
