SEG.pdb
     RDKit          3D

 20 19  0  0  1  0  0  0  0  0999 V2000
    7.5064  -13.2135   20.1612 O   0  0  0  0  0  0  0  0  0  0  0  0
    8.2490  -12.4999   19.2301 C   0  0  0  0  0  0  0  0  0  0  0  0
    8.7957  -13.3894   18.1387 C   0  0  2  0  0  0  0  0  0  0  0  0
    7.7647  -14.0308   17.3837 N   0  0  0  0  0  0  0  0  0  0  0  0
    9.7865  -14.3524   18.6200 C   0  0  0  0  0  0  0  0  0  0  0  0
    9.5998  -15.5990   18.6612 O   0  0  0  0  0  0  0  0  0  0  0  0
   11.0395  -13.8655   19.0713 N   0  0  0  0  0  0  0  0  0  0  0  0
   12.1100  -14.7720   19.5638 C   0  0  1  0  0  0  0  0  0  0  0  0
   13.4205  -14.2188   19.1333 C   0  0  0  0  0  0  0  0  0  0  0  0
   13.9094  -14.6623   17.8235 C   0  0  0  0  0  0  0  0  0  0  0  0
   15.2871  -15.1496   17.7588 C   0  0  0  0  0  0  0  0  0  0  0  0
   15.5208  -16.3644   17.9583 O   0  0  0  0  0  0  0  0  0  0  0  0
   11.8689  -14.9840   20.9831 C   0  0  0  0  0  0  0  0  0  0  0  0
   11.0574  -14.1934   21.5838 O   0  0  0  0  0  0  0  0  0  0  0  0
   16.3849  -14.3412   17.4815 O   0  0  0  0  0  0  0  0  0  0  0  0
   12.4284  -15.9894   21.8066 N   0  0  0  0  0  0  0  0  0  0  0  0
   12.0523  -16.1812   23.1911 C   0  0  0  0  0  0  0  0  0  0  0  0
   12.9057  -17.1825   23.8633 C   0  0  0  0  0  0  0  0  0  0  0  0
   12.7508  -17.3399   25.2308 O   0  0  0  0  0  0  0  0  0  0  0  0
   13.7552  -17.8947   23.2825 O   0  0  0  0  0  0  0  0  0  0  0  0
  2  1  1  0
  3  2  1  0
  3  4  1  1
  5  3  1  0
  5  6  2  0
  7  5  1  0
  8  7  1  0
  8  9  1  1
 10  9  1  0
 11 10  1  0
 12 11  2  0
 13  8  1  0
 13 16  1  0
 14 13  2  0
 15 11  1  0
 17 16  1  0
 18 17  1  0
 19 18  1  0
 20 18  2  0
M  END
$$$$
