SEG.pdb
     RDKit          3D

 20 19  0  0  1  0  0  0  0  0999 V2000
   -0.5051  -20.8957   24.3743 O   0  0  0  0  0  0  0  0  0  0  0  0
   -1.7959  -21.2080   24.7797 C   0  0  0  0  0  0  0  0  0  0  0  0
   -2.2344  -22.5645   24.2809 C   0  0  2  0  0  0  0  0  0  0  0  0
   -2.2335  -22.6527   22.8538 N   0  0  0  0  0  0  0  0  0  0  0  0
   -3.5114  -23.0026   24.8450 C   0  0  0  0  0  0  0  0  0  0  0  0
   -4.6183  -22.9073   24.2481 O   0  0  0  0  0  0  0  0  0  0  0  0
   -3.5176  -23.5717   26.1437 N   0  0  0  0  0  0  0  0  0  0  0  0
   -4.7668  -24.0522   26.7911 C   0  0  1  0  0  0  0  0  0  0  0  0
   -4.4900  -25.3761   27.4073 C   0  0  0  0  0  0  0  0  0  0  0  0
   -5.5948  -25.9823   28.1577 C   0  0  0  0  0  0  0  0  0  0  0  0
   -5.3542  -27.2995   28.7465 C   0  0  0  0  0  0  0  0  0  0  0  0
   -4.2041  -27.7948   28.6987 O   0  0  0  0  0  0  0  0  0  0  0  0
   -5.2512  -22.9713   27.6363 C   0  0  0  0  0  0  0  0  0  0  0  0
   -4.3981  -22.3297   28.3467 O   0  0  0  0  0  0  0  0  0  0  0  0
   -6.3349  -28.0606   29.3747 O   0  0  0  0  0  0  0  0  0  0  0  0
   -6.5857  -22.5203   27.7699 N   0  0  0  0  0  0  0  0  0  0  0  0
   -6.9888  -21.5052   28.7198 C   0  0  0  0  0  0  0  0  0  0  0  0
   -7.4422  -22.0914   29.9979 C   0  0  0  0  0  0  0  0  0  0  0  0
   -6.4968  -22.7411   30.7745 O   0  0  0  0  0  0  0  0  0  0  0  0
   -8.6179  -22.0405   30.4239 O   0  0  0  0  0  0  0  0  0  0  0  0
  2  1  1  0
  3  2  1  0
  3  4  1  6
  5  3  1  0
  5  6  2  0
  7  5  1  0
  8  7  1  0
  8  9  1  1
 10  9  1  0
 11 10  1  0
 12 11  2  0
 13  8  1  0
 13 16  1  0
 14 13  2  0
 15 11  1  0
 17 16  1  0
 18 17  1  0
 19 18  1  0
 20 18  2  0
M  END
$$$$
