SEG.pdb
     RDKit          3D

 20 19  0  0  1  0  0  0  0  0999 V2000
    6.4732  -21.3281   20.0574 O   0  0  0  0  0  0  0  0  0  0  0  0
    6.8370  -20.2101   20.7959 C   0  0  0  0  0  0  0  0  0  0  0  0
    6.1618  -20.1784   22.1466 C   0  0  2  0  0  0  0  0  0  0  0  0
    4.7383  -20.0868   22.0481 N   0  0  0  0  0  0  0  0  0  0  0  0
    6.7049  -19.1552   23.0404 C   0  0  0  0  0  0  0  0  0  0  0  0
    6.2321  -17.9915   23.1538 O   0  0  0  0  0  0  0  0  0  0  0  0
    7.8339  -19.4806   23.8343 N   0  0  0  0  0  0  0  0  0  0  0  0
    8.5298  -18.4690   24.6726 C   0  0  1  0  0  0  0  0  0  0  0  0
    8.8216  -19.0834   25.9940 C   0  0  0  0  0  0  0  0  0  0  0  0
    9.6116  -18.2695   26.9239 C   0  0  0  0  0  0  0  0  0  0  0  0
    9.9040  -18.8521   28.2334 C   0  0  0  0  0  0  0  0  0  0  0  0
   10.4790  -18.1563   29.1026 O   0  0  0  0  0  0  0  0  0  0  0  0
    9.6338  -17.9469   23.8813 C   0  0  0  0  0  0  0  0  0  0  0  0
   10.2609  -18.7563   23.1093 O   0  0  0  0  0  0  0  0  0  0  0  0
    9.5787  -20.1559   28.5939 O   0  0  0  0  0  0  0  0  0  0  0  0
   10.1110  -16.6153   23.8498 N   0  0  0  0  0  0  0  0  0  0  0  0
   11.1032  -16.1502   22.9041 C   0  0  0  0  0  0  0  0  0  0  0  0
   12.4792  -16.4408   23.3570 C   0  0  0  0  0  0  0  0  0  0  0  0
   13.5222  -15.9652   22.5794 O   0  0  0  0  0  0  0  0  0  0  0  0
   12.7640  -17.0849   24.3916 O   0  0  0  0  0  0  0  0  0  0  0  0
  2  1  1  0
  3  2  1  0
  3  4  1  6
  5  3  1  0
  5  6  2  0
  7  5  1  0
  8  7  1  0
  8  9  1  1
 10  9  1  0
 11 10  1  0
 12 11  2  0
 13  8  1  0
 13 16  1  0
 14 13  2  0
 15 11  1  0
 17 16  1  0
 18 17  1  0
 19 18  1  0
 20 18  2  0
M  END
$$$$
