SEG.pdb
     RDKit          3D

 20 19  0  0  1  0  0  0  0  0999 V2000
    3.0761  -18.4265   19.5248 O   0  0  0  0  0  0  0  0  0  0  0  0
    3.4255  -18.5949   20.8580 C   0  0  0  0  0  0  0  0  0  0  0  0
    3.3850  -20.0457   21.2760 C   0  0  2  0  0  0  0  0  0  0  0  0
    2.0540  -20.5644   21.3346 N   0  0  0  0  0  0  0  0  0  0  0  0
    4.1195  -20.3113   22.5133 C   0  0  0  0  0  0  0  0  0  0  0  0
    3.5863  -20.3654   23.6549 O   0  0  0  0  0  0  0  0  0  0  0  0
    5.5195  -20.5231   22.4368 N   0  0  0  0  0  0  0  0  0  0  0  0
    6.3495  -20.7713   23.6451 C   0  0  1  0  0  0  0  0  0  0  0  0
    7.5516  -21.5411   23.2316 C   0  0  0  0  0  0  0  0  0  0  0  0
    8.5125  -21.8570   24.2938 C   0  0  0  0  0  0  0  0  0  0  0  0
    9.7267  -22.5715   23.9003 C   0  0  0  0  0  0  0  0  0  0  0  0
   10.7173  -21.9231   23.4896 O   0  0  0  0  0  0  0  0  0  0  0  0
    6.5303  -19.4886   24.3082 C   0  0  0  0  0  0  0  0  0  0  0  0
    6.8230  -18.4701   23.5863 O   0  0  0  0  0  0  0  0  0  0  0  0
    9.8659  -23.9548   23.9534 O   0  0  0  0  0  0  0  0  0  0  0  0
    6.4115  -19.2147   25.6913 N   0  0  0  0  0  0  0  0  0  0  0  0
    6.8497  -17.9743   26.2949 C   0  0  0  0  0  0  0  0  0  0  0  0
    8.0602  -18.1579   27.1217 C   0  0  0  0  0  0  0  0  0  0  0  0
    8.4899  -17.0778   27.8751 O   0  0  0  0  0  0  0  0  0  0  0  0
    8.7204  -19.2191   27.1864 O   0  0  0  0  0  0  0  0  0  0  0  0
  2  1  1  0
  3  2  1  0
  3  4  1  1
  5  3  1  0
  5  6  2  0
  7  5  1  0
  8  7  1  0
  8  9  1  6
 10  9  1  0
 11 10  1  0
 12 11  2  0
 13  8  1  0
 13 16  1  0
 14 13  2  0
 15 11  1  0
 17 16  1  0
 18 17  1  0
 19 18  1  0
 20 18  2  0
M  END
$$$$
