SEG.pdb
     RDKit          3D

 20 19  0  0  1  0  0  0  0  0999 V2000
    9.0080  -13.3246   19.6581 O   0  0  0  0  0  0  0  0  0  0  0  0
    8.3024  -13.4185   20.8502 C   0  0  0  0  0  0  0  0  0  0  0  0
    7.7246  -14.7981   21.0600 C   0  0  2  0  0  0  0  0  0  0  0  0
    6.7595  -15.1476   20.0646 N   0  0  0  0  0  0  0  0  0  0  0  0
    7.2022  -15.0067   22.4107 C   0  0  0  0  0  0  0  0  0  0  0  0
    6.0068  -14.7885   22.7485 O   0  0  0  0  0  0  0  0  0  0  0  0
    8.0859  -15.4838   23.4117 N   0  0  0  0  0  0  0  0  0  0  0  0
    7.6245  -15.8003   24.7892 C   0  0  1  0  0  0  0  0  0  0  0  0
    7.3380  -17.2570   24.8589 C   0  0  0  0  0  0  0  0  0  0  0  0
    6.9072  -17.7681   26.1644 C   0  0  0  0  0  0  0  0  0  0  0  0
    7.4356  -19.0684   26.5762 C   0  0  0  0  0  0  0  0  0  0  0  0
    7.8738  -19.8584   25.7077 O   0  0  0  0  0  0  0  0  0  0  0  0
    8.6006  -15.2314   25.7064 C   0  0  0  0  0  0  0  0  0  0  0  0
    9.8442  -15.3543   25.4192 O   0  0  0  0  0  0  0  0  0  0  0  0
    7.4911  -19.5016   27.8972 O   0  0  0  0  0  0  0  0  0  0  0  0
    8.3407  -14.5308   26.9079 N   0  0  0  0  0  0  0  0  0  0  0  0
    9.3831  -13.9646   27.7374 C   0  0  0  0  0  0  0  0  0  0  0  0
   10.0101  -14.9796   28.6088 C   0  0  0  0  0  0  0  0  0  0  0  0
   10.9307  -14.5380   29.5449 O   0  0  0  0  0  0  0  0  0  0  0  0
    9.7662  -16.2061   28.5580 O   0  0  0  0  0  0  0  0  0  0  0  0
  2  1  1  0
  3  2  1  0
  3  4  1  6
  5  3  1  0
  5  6  2  0
  7  5  1  0
  8  7  1  0
  8  9  1  6
 10  9  1  0
 11 10  1  0
 12 11  2  0
 13  8  1  0
 13 16  1  0
 14 13  2  0
 15 11  1  0
 17 16  1  0
 18 17  1  0
 19 18  1  0
 20 18  2  0
M  END
$$$$
