NHW.pdb
     RDKit          3D

 33 35  0  0  1  0  0  0  0  0999 V2000
   13.9228  -23.3446    3.6423 N   0  0  0  0  0  0  0  0  0  0  0  0
   15.3602  -23.3301    3.5123 C   0  0  0  0  0  0  0  0  0  0  0  0
   15.9960  -24.3837    3.6537 O   0  0  0  0  0  0  0  0  0  0  0  0
   16.0001  -22.0508    3.2157 C   0  0  0  0  0  0  0  0  0  0  0  0
   15.0443  -20.9178    3.1421 C   0  0  2  0  0  0  0  0  0  0  0  0
   14.5592  -20.6120    1.8285 N   0  0  0  0  0  0  0  0  0  0  0  0
   15.5265  -19.6939    3.8704 C   0  0  0  0  0  0  0  0  0  0  0  0
   16.6988  -19.2991    3.7729 O   0  0  0  0  0  0  0  0  0  0  0  0
   14.6061  -18.9969    4.6765 N   0  0  0  0  0  0  0  0  0  0  0  0
   14.8162  -17.7910    5.3938 C   0  0  1  0  0  0  0  0  0  0  0  0
   13.5802  -17.1109    5.9403 C   0  0  0  0  0  0  0  0  0  0  0  0
   13.7886  -15.6661    6.2244 C   0  0  0  0  0  0  0  0  0  0  0  0
   14.1853  -14.6438    5.3769 C   0  0  0  0  0  0  0  0  0  0  0  0
   14.2800  -13.5319    6.1167 N   0  0  0  0  0  0  0  0  0  0  0  0
   13.9635  -13.8028    7.3830 C   0  0  0  0  0  0  0  0  0  0  0  0
   13.6656  -15.0990    7.4457 N   0  0  0  0  0  0  0  0  0  0  0  0
   15.9289  -17.7561    6.3349 C   0  0  0  0  0  0  0  0  0  0  0  0
   16.2580  -18.7556    7.0601 O   0  0  0  0  0  0  0  0  0  0  0  0
   16.7062  -16.5977    6.4875 N   0  0  0  0  0  0  0  0  0  0  0  0
   17.8074  -16.5883    7.4523 C   0  0  1  0  0  0  0  0  0  0  0  0
   19.0128  -16.1663    6.6548 C   0  0  0  0  0  0  0  0  0  0  0  0
   18.9781  -14.8179    6.0807 C   0  0  0  0  0  0  0  0  0  0  0  0
   19.0828  -13.6450    6.8136 C   0  0  0  0  0  0  0  0  0  0  0  0
   18.9722  -12.6329    5.9647 N   0  0  0  0  0  0  0  0  0  0  0  0
   18.8025  -13.0885    4.7237 C   0  0  0  0  0  0  0  0  0  0  0  0
   18.6570  -12.4513    3.4957 C   0  0  0  0  0  0  0  0  0  0  0  0
   18.5146  -13.1653    2.3257 C   0  0  0  0  0  0  0  0  0  0  0  0
   18.5134  -14.5512    2.3482 C   0  0  0  0  0  0  0  0  0  0  0  0
   18.6590  -15.1558    3.5828 C   0  0  0  0  0  0  0  0  0  0  0  0
   18.8018  -14.4478    4.7611 C   0  0  0  0  0  0  0  0  0  0  0  0
   17.5728  -15.6960    8.5800 C   0  0  0  0  0  0  0  0  0  0  0  0
   18.3094  -15.7420    9.5872 O   0  0  0  0  0  0  0  0  0  0  0  0
   16.5425  -14.7824    8.5574 O   0  0  0  0  0  0  0  0  0  0  0  0
  2  1  1  0
  3  2  2  0
  4  2  1  0
  5  4  1  0
  5  6  1  6
  7  5  1  0
  7  8  2  0
  9  7  1  0
 10  9  1  0
 10 11  1  1
 11 12  1  0
 12 16  1  0
 12 13  2  0
 13 14  1  0
 15 14  1  0
 16 15  2  0
 17 10  1  0
 18 17  2  0
 19 17  1  0
 20 21  1  6
 20 19  1  0
 21 22  1  0
 22 30  1  0
 23 24  1  0
 23 22  2  0
 24 25  1  0
 25 30  2  0
 25 26  1  0
 26 27  2  0
 27 28  1  0
 29 28  2  0
 30 29  1  0
 31 20  1  0
 31 33  1  0
 32 31  2  0
M  END
$$$$
