NHW.pdb
     RDKit          3D

 33 35  0  0  1  0  0  0  0  0999 V2000
   21.8817  -13.2684  -18.9756 N   0  0  0  0  0  0  0  0  0  0  0  0
   21.7425  -12.3105  -20.0461 C   0  0  0  0  0  0  0  0  0  0  0  0
   22.2384  -12.5575  -21.1539 O   0  0  0  0  0  0  0  0  0  0  0  0
   21.0111  -11.0785  -19.7610 C   0  0  0  0  0  0  0  0  0  0  0  0
   20.4470  -11.0330  -18.3891 C   0  0  2  0  0  0  0  0  0  0  0  0
   19.5583  -12.1077  -18.0579 N   0  0  0  0  0  0  0  0  0  0  0  0
   19.8732   -9.6894  -18.0338 C   0  0  0  0  0  0  0  0  0  0  0  0
   18.8430   -9.2587  -18.5750 O   0  0  0  0  0  0  0  0  0  0  0  0
   20.5400   -8.9204  -17.0608 N   0  0  0  0  0  0  0  0  0  0  0  0
   20.1835   -7.6374  -16.5710 C   0  0  1  0  0  0  0  0  0  0  0  0
   18.8998   -7.5558  -15.7747 C   0  0  0  0  0  0  0  0  0  0  0  0
   18.9875   -8.2410  -14.4577 C   0  0  0  0  0  0  0  0  0  0  0  0
   18.6154   -9.5275  -14.1008 C   0  0  0  0  0  0  0  0  0  0  0  0
   18.8423   -9.6542  -12.7875 N   0  0  0  0  0  0  0  0  0  0  0  0
   19.3373   -8.5156  -12.3020 C   0  0  0  0  0  0  0  0  0  0  0  0
   19.4243   -7.6594  -13.3180 N   0  0  0  0  0  0  0  0  0  0  0  0
   21.2451   -6.8212  -15.9949 C   0  0  0  0  0  0  0  0  0  0  0  0
   22.4267   -7.2620  -15.7879 O   0  0  0  0  0  0  0  0  0  0  0  0
   21.0110   -5.4848  -15.6362 N   0  0  0  0  0  0  0  0  0  0  0  0
   22.1289   -4.6486  -15.1952 C   0  0  1  0  0  0  0  0  0  0  0  0
   23.1180   -4.7010  -16.3293 C   0  0  0  0  0  0  0  0  0  0  0  0
   22.8823   -3.7811  -17.4460 C   0  0  0  0  0  0  0  0  0  0  0  0
   22.8504   -2.3988  -17.3367 C   0  0  0  0  0  0  0  0  0  0  0  0
   22.5763   -1.9099  -18.5380 N   0  0  0  0  0  0  0  0  0  0  0  0
   22.4302   -2.9011  -19.4169 C   0  0  0  0  0  0  0  0  0  0  0  0
   22.1602   -2.9209  -20.7814 C   0  0  0  0  0  0  0  0  0  0  0  0
   22.0786   -4.1043  -21.4828 C   0  0  0  0  0  0  0  0  0  0  0  0
   22.2661   -5.3153  -20.8350 C   0  0  0  0  0  0  0  0  0  0  0  0
   22.5320   -5.2637  -19.4794 C   0  0  0  0  0  0  0  0  0  0  0  0
   22.6152   -4.0817  -18.7680 C   0  0  0  0  0  0  0  0  0  0  0  0
   21.7347   -3.2792  -14.8921 C   0  0  0  0  0  0  0  0  0  0  0  0
   20.5999   -2.8632  -15.2057 O   0  0  0  0  0  0  0  0  0  0  0  0
   22.5983   -2.4194  -14.2504 O   0  0  0  0  0  0  0  0  0  0  0  0
  2  1  1  0
  3  2  2  0
  4  2  1  0
  5  4  1  0
  5  6  1  6
  7  5  1  0
  7  8  2  0
  9  7  1  0
 10  9  1  0
 10 11  1  1
 11 12  1  0
 12 16  1  0
 12 13  2  0
 13 14  1  0
 15 14  1  0
 16 15  2  0
 17 10  1  0
 18 17  2  0
 19 17  1  0
 20 21  1  6
 20 19  1  0
 21 22  1  0
 22 30  1  0
 23 24  1  0
 23 22  2  0
 24 25  1  0
 25 30  2  0
 25 26  1  0
 26 27  2  0
 27 28  1  0
 29 28  2  0
 30 29  1  0
 31 20  1  0
 31 33  1  0
 32 31  2  0
M  END
$$$$
