NHW.pdb
     RDKit          3D

 33 35  0  0  1  0  0  0  0  0999 V2000
   28.8237  -18.2576  -17.3591 N   0  0  0  0  0  0  0  0  0  0  0  0
   28.2559  -17.0691  -16.7693 C   0  0  0  0  0  0  0  0  0  0  0  0
   28.4836  -15.9650  -17.2826 O   0  0  0  0  0  0  0  0  0  0  0  0
   27.4282  -17.2343  -15.5769 C   0  0  0  0  0  0  0  0  0  0  0  0
   27.4151  -18.6245  -15.0577 C   0  0  2  0  0  0  0  0  0  0  0  0
   26.9219  -19.6131  -15.9709 N   0  0  0  0  0  0  0  0  0  0  0  0
   26.7819  -18.7383  -13.6986 C   0  0  0  0  0  0  0  0  0  0  0  0
   27.0227  -17.9186  -12.7987 O   0  0  0  0  0  0  0  0  0  0  0  0
   25.8985  -19.8099  -13.4668 N   0  0  0  0  0  0  0  0  0  0  0  0
   25.1495  -20.0820  -12.2930 C   0  0  1  0  0  0  0  0  0  0  0  0
   23.7810  -20.6941  -12.4966 C   0  0  0  0  0  0  0  0  0  0  0  0
   23.8370  -22.0719  -13.0534 C   0  0  0  0  0  0  0  0  0  0  0  0
   24.9306  -22.8217  -13.4569 C   0  0  0  0  0  0  0  0  0  0  0  0
   24.4602  -23.9800  -13.9360 N   0  0  0  0  0  0  0  0  0  0  0  0
   23.1297  -23.9964  -13.8542 C   0  0  0  0  0  0  0  0  0  0  0  0
   22.7540  -22.8369  -13.3180 N   0  0  0  0  0  0  0  0  0  0  0  0
   25.8598  -20.6766  -11.1674 C   0  0  0  0  0  0  0  0  0  0  0  0
   26.4498  -21.8082  -11.2369 O   0  0  0  0  0  0  0  0  0  0  0  0
   25.9302  -20.0165   -9.9311 N   0  0  0  0  0  0  0  0  0  0  0  0
   26.6271  -20.6519   -8.8113 C   0  0  1  0  0  0  0  0  0  0  0  0
   27.5914  -19.6067   -8.3166 C   0  0  0  0  0  0  0  0  0  0  0  0
   28.4653  -19.9961   -7.2059 C   0  0  0  0  0  0  0  0  0  0  0  0
   29.3681  -21.0483   -7.2433 C   0  0  0  0  0  0  0  0  0  0  0  0
   29.9473  -21.1195   -6.0531 N   0  0  0  0  0  0  0  0  0  0  0  0
   29.4681  -20.1703   -5.2496 C   0  0  0  0  0  0  0  0  0  0  0  0
   29.7524  -19.8136   -3.9354 C   0  0  0  0  0  0  0  0  0  0  0  0
   29.1194  -18.7535   -3.3233 C   0  0  0  0  0  0  0  0  0  0  0  0
   28.1739  -18.0110   -4.0132 C   0  0  0  0  0  0  0  0  0  0  0  0
   27.9121  -18.3897   -5.3166 C   0  0  0  0  0  0  0  0  0  0  0  0
   28.5417  -19.4514   -5.9382 C   0  0  0  0  0  0  0  0  0  0  0  0
   25.7276  -21.0932   -7.7535 C   0  0  0  0  0  0  0  0  0  0  0  0
   24.5704  -20.6311   -7.6731 O   0  0  0  0  0  0  0  0  0  0  0  0
   26.1297  -22.0299   -6.8274 O   0  0  0  0  0  0  0  0  0  0  0  0
  2  1  1  0
  3  2  2  0
  4  2  1  0
  5  4  1  0
  5  6  1  6
  7  5  1  0
  7  8  2  0
  9  7  1  0
 10  9  1  0
 10 11  1  6
 11 12  1  0
 12 16  1  0
 12 13  2  0
 13 14  1  0
 15 14  1  0
 16 15  2  0
 17 10  1  0
 18 17  2  0
 19 17  1  0
 20 21  1  1
 20 19  1  0
 21 22  1  0
 22 30  1  0
 23 24  1  0
 23 22  2  0
 24 25  1  0
 25 30  2  0
 25 26  1  0
 26 27  2  0
 27 28  1  0
 29 28  2  0
 30 29  1  0
 31 20  1  0
 31 33  1  0
 32 31  2  0
M  END
$$$$
