NHW.pdb
     RDKit          3D

 33 35  0  0  1  0  0  0  0  0999 V2000
   30.7750  -24.2975  -18.4698 N   0  0  0  0  0  0  0  0  0  0  0  0
   31.3117  -23.0012  -18.8088 C   0  0  0  0  0  0  0  0  0  0  0  0
   32.2912  -22.9250  -19.5631 O   0  0  0  0  0  0  0  0  0  0  0  0
   30.6594  -21.8272  -18.2340 C   0  0  0  0  0  0  0  0  0  0  0  0
   29.5370  -22.1644  -17.3235 C   0  0  2  0  0  0  0  0  0  0  0  0
   28.3310  -22.5890  -17.9714 N   0  0  0  0  0  0  0  0  0  0  0  0
   29.2838  -21.1061  -16.2858 C   0  0  0  0  0  0  0  0  0  0  0  0
   29.7632  -19.9663  -16.3893 O   0  0  0  0  0  0  0  0  0  0  0  0
   28.4802  -21.4417  -15.1794 N   0  0  0  0  0  0  0  0  0  0  0  0
   27.4565  -20.6639  -14.5793 C   0  0  1  0  0  0  0  0  0  0  0  0
   26.5547  -19.8986  -15.5226 C   0  0  0  0  0  0  0  0  0  0  0  0
   25.5362  -19.0774  -14.8156 C   0  0  0  0  0  0  0  0  0  0  0  0
   25.3310  -18.8953  -13.4571 C   0  0  0  0  0  0  0  0  0  0  0  0
   24.2565  -18.1083  -13.3220 N   0  0  0  0  0  0  0  0  0  0  0  0
   23.7771  -17.7870  -14.5237 C   0  0  0  0  0  0  0  0  0  0  0  0
   24.5557  -18.3766  -15.4286 N   0  0  0  0  0  0  0  0  0  0  0  0
   26.7196  -21.2640  -13.4739 C   0  0  0  0  0  0  0  0  0  0  0  0
   26.0604  -22.3530  -13.5874 O   0  0  0  0  0  0  0  0  0  0  0  0
   26.7033  -20.6593  -12.2076 N   0  0  0  0  0  0  0  0  0  0  0  0
   26.1079  -21.3705  -11.0749 C   0  0  1  0  0  0  0  0  0  0  0  0
   27.2338  -21.5319  -10.0884 C   0  0  0  0  0  0  0  0  0  0  0  0
   27.1738  -20.6973   -8.8847 C   0  0  0  0  0  0  0  0  0  0  0  0
   26.1159  -19.8634   -8.5544 C   0  0  0  0  0  0  0  0  0  0  0  0
   26.4326  -19.2456   -7.4251 N   0  0  0  0  0  0  0  0  0  0  0  0
   27.6369  -19.6356   -7.0082 C   0  0  0  0  0  0  0  0  0  0  0  0
   28.4023  -19.3073   -5.8939 C   0  0  0  0  0  0  0  0  0  0  0  0
   29.6368  -19.8788   -5.6738 C   0  0  0  0  0  0  0  0  0  0  0  0
   30.1484  -20.8046   -6.5696 C   0  0  0  0  0  0  0  0  0  0  0  0
   29.3655  -21.1099   -7.6673 C   0  0  0  0  0  0  0  0  0  0  0  0
   28.1267  -20.5415   -7.8962 C   0  0  0  0  0  0  0  0  0  0  0  0
   24.9776  -20.6645  -10.4859 C   0  0  0  0  0  0  0  0  0  0  0  0
   24.2240  -21.2418   -9.6747 O   0  0  0  0  0  0  0  0  0  0  0  0
   24.7205  -19.3495  -10.8043 O   0  0  0  0  0  0  0  0  0  0  0  0
  2  1  1  0
  3  2  2  0
  4  2  1  0
  5  4  1  0
  5  6  1  6
  7  5  1  0
  7  8  2  0
  9  7  1  0
 10  9  1  0
 10 11  1  6
 11 12  1  0
 12 16  1  0
 12 13  2  0
 13 14  1  0
 15 14  1  0
 16 15  2  0
 17 10  1  0
 18 17  2  0
 19 17  1  0
 20 21  1  1
 20 19  1  0
 21 22  1  0
 22 30  1  0
 23 24  1  0
 23 22  2  0
 24 25  1  0
 25 30  2  0
 25 26  1  0
 26 27  2  0
 27 28  1  0
 29 28  2  0
 30 29  1  0
 31 20  1  0
 31 33  1  0
 32 31  2  0
M  END
$$$$
