NHW.pdb
     RDKit          3D

 33 35  0  0  1  0  0  0  0  0999 V2000
   22.3373  -11.7687  -23.2473 N   0  0  0  0  0  0  0  0  0  0  0  0
   22.6528  -13.0539  -23.8232 C   0  0  0  0  0  0  0  0  0  0  0  0
   23.0308  -13.1181  -25.0010 O   0  0  0  0  0  0  0  0  0  0  0  0
   22.5070  -14.2316  -22.9712 C   0  0  0  0  0  0  0  0  0  0  0  0
   21.9880  -13.9174  -21.6168 C   0  0  2  0  0  0  0  0  0  0  0  0
   22.8104  -13.0414  -20.8353 N   0  0  0  0  0  0  0  0  0  0  0  0
   21.5694  -15.1409  -20.8495 C   0  0  0  0  0  0  0  0  0  0  0  0
   20.9104  -16.0479  -21.3813 O   0  0  0  0  0  0  0  0  0  0  0  0
   21.9465  -15.2355  -19.4962 N   0  0  0  0  0  0  0  0  0  0  0  0
   21.7646  -16.3339  -18.6168 C   0  0  1  0  0  0  0  0  0  0  0  0
   22.9690  -16.7459  -17.7992 C   0  0  0  0  0  0  0  0  0  0  0  0
   24.1085  -17.2096  -18.6348 C   0  0  0  0  0  0  0  0  0  0  0  0
   24.1665  -17.4560  -19.9975 C   0  0  0  0  0  0  0  0  0  0  0  0
   25.3978  -17.9083  -20.2649 N   0  0  0  0  0  0  0  0  0  0  0  0
   26.1151  -17.9584  -19.1424 C   0  0  0  0  0  0  0  0  0  0  0  0
   25.3300  -17.5337  -18.1544 N   0  0  0  0  0  0  0  0  0  0  0  0
   20.5298  -16.3758  -17.8431 C   0  0  0  0  0  0  0  0  0  0  0  0
   20.3980  -15.7961  -16.7118 O   0  0  0  0  0  0  0  0  0  0  0  0
   19.4058  -17.0685  -18.3187 N   0  0  0  0  0  0  0  0  0  0  0  0
   18.1748  -17.0790  -17.5262 C   0  0  1  0  0  0  0  0  0  0  0  0
   17.6461  -15.6723  -17.6200 C   0  0  0  0  0  0  0  0  0  0  0  0
   17.1749  -15.2370  -18.9381 C   0  0  0  0  0  0  0  0  0  0  0  0
   16.4792  -16.0377  -19.8318 C   0  0  0  0  0  0  0  0  0  0  0  0
   16.2572  -15.3182  -20.9227 N   0  0  0  0  0  0  0  0  0  0  0  0
   16.7711  -14.0965  -20.7819 C   0  0  0  0  0  0  0  0  0  0  0  0
   16.7922  -12.9798  -21.6111 C   0  0  0  0  0  0  0  0  0  0  0  0
   17.3831  -11.7995  -21.2154 C   0  0  0  0  0  0  0  0  0  0  0  0
   17.9765  -11.6989  -19.9668 C   0  0  0  0  0  0  0  0  0  0  0  0
   17.9404  -12.8249  -19.1658 C   0  0  0  0  0  0  0  0  0  0  0  0
   17.3505  -14.0128  -19.5545 C   0  0  0  0  0  0  0  0  0  0  0  0
   17.1977  -18.0505  -17.9994 C   0  0  0  0  0  0  0  0  0  0  0  0
   16.1051  -18.1875  -17.4106 O   0  0  0  0  0  0  0  0  0  0  0  0
   17.4535  -18.8309  -19.1050 O   0  0  0  0  0  0  0  0  0  0  0  0
  2  1  1  0
  3  2  2  0
  4  2  1  0
  5  4  1  0
  5  6  1  1
  7  5  1  0
  7  8  2  0
  9  7  1  0
 10  9  1  0
 10 11  1  1
 11 12  1  0
 12 16  1  0
 12 13  2  0
 13 14  1  0
 15 14  1  0
 16 15  2  0
 17 10  1  0
 18 17  2  0
 19 17  1  0
 20 21  1  6
 20 19  1  0
 21 22  1  0
 22 30  1  0
 23 24  1  0
 23 22  2  0
 24 25  1  0
 25 30  2  0
 25 26  1  0
 26 27  2  0
 27 28  1  0
 29 28  2  0
 30 29  1  0
 31 20  1  0
 31 33  1  0
 32 31  2  0
M  END
$$$$
