NHW.pdb
     RDKit          3D

 33 35  0  0  1  0  0  0  0  0999 V2000
   20.3492  -33.6478    3.9909 N   0  0  0  0  0  0  0  0  0  0  0  0
   19.2726  -33.5747    4.9492 C   0  0  0  0  0  0  0  0  0  0  0  0
   18.2273  -34.2060    4.7415 O   0  0  0  0  0  0  0  0  0  0  0  0
   19.4765  -32.7453    6.1344 C   0  0  0  0  0  0  0  0  0  0  0  0
   20.8516  -32.1971    6.2395 C   0  0  2  0  0  0  0  0  0  0  0  0
   21.8611  -33.1459    6.6070 N   0  0  0  0  0  0  0  0  0  0  0  0
   20.9224  -30.9419    7.0642 C   0  0  0  0  0  0  0  0  0  0  0  0
   20.1415  -29.9959    6.8768 O   0  0  0  0  0  0  0  0  0  0  0  0
   21.9077  -30.8625    8.0669 N   0  0  0  0  0  0  0  0  0  0  0  0
   22.1769  -29.7759    8.9385 C   0  0  1  0  0  0  0  0  0  0  0  0
   23.4786  -29.8381    9.7069 C   0  0  0  0  0  0  0  0  0  0  0  0
   23.5292  -30.9656   10.6754 C   0  0  0  0  0  0  0  0  0  0  0  0
   22.5117  -31.7876   11.1334 C   0  0  0  0  0  0  0  0  0  0  0  0
   23.0498  -32.6161   12.0370 N   0  0  0  0  0  0  0  0  0  0  0  0
   24.3507  -32.3573   12.1697 C   0  0  0  0  0  0  0  0  0  0  0  0
   24.6392  -31.3550   11.3420 N   0  0  0  0  0  0  0  0  0  0  0  0
   21.8884  -28.4344    8.4463 C   0  0  0  0  0  0  0  0  0  0  0  0
   22.7005  -27.7726    7.7143 O   0  0  0  0  0  0  0  0  0  0  0  0
   20.6779  -27.7976    8.7601 N   0  0  0  0  0  0  0  0  0  0  0  0
   20.3627  -26.5041    8.1510 C   0  0  1  0  0  0  0  0  0  0  0  0
   20.0574  -26.8222    6.7113 C   0  0  0  0  0  0  0  0  0  0  0  0
   19.1804  -25.8831    6.0056 C   0  0  0  0  0  0  0  0  0  0  0  0
   19.2435  -24.5027    6.1243 C   0  0  0  0  0  0  0  0  0  0  0  0
   18.2775  -23.9931    5.3731 N   0  0  0  0  0  0  0  0  0  0  0  0
   17.5945  -24.9692    4.7756 C   0  0  0  0  0  0  0  0  0  0  0  0
   16.5213  -24.9655    3.8904 C   0  0  0  0  0  0  0  0  0  0  0  0
   15.9980  -26.1369    3.3876 C   0  0  0  0  0  0  0  0  0  0  0  0
   16.5368  -27.3591    3.7579 C   0  0  0  0  0  0  0  0  0  0  0  0
   17.6016  -27.3308    4.6391 C   0  0  0  0  0  0  0  0  0  0  0  0
   18.1325  -26.1610    5.1487 C   0  0  0  0  0  0  0  0  0  0  0  0
   19.2478  -25.8238    8.7967 C   0  0  0  0  0  0  0  0  0  0  0  0
   18.3076  -26.4795    9.2920 O   0  0  0  0  0  0  0  0  0  0  0  0
   19.2095  -24.4497    8.8802 O   0  0  0  0  0  0  0  0  0  0  0  0
  2  1  1  0
  3  2  2  0
  4  2  1  0
  5  4  1  0
  5  6  1  1
  7  5  1  0
  7  8  2  0
  9  7  1  0
 10  9  1  0
 10 11  1  6
 11 12  1  0
 12 16  1  0
 12 13  2  0
 13 14  1  0
 15 14  1  0
 16 15  2  0
 17 10  1  0
 18 17  2  0
 19 17  1  0
 20 21  1  6
 20 19  1  0
 21 22  1  0
 22 30  1  0
 23 24  1  0
 23 22  2  0
 24 25  1  0
 25 30  2  0
 25 26  1  0
 26 27  2  0
 27 28  1  0
 29 28  2  0
 30 29  1  0
 31 20  1  0
 31 33  1  0
 32 31  2  0
M  END
$$$$
