NHW.pdb
     RDKit          3D

 33 35  0  0  1  0  0  0  0  0999 V2000
   27.1151  -21.8264  -21.0070 N   0  0  0  0  0  0  0  0  0  0  0  0
   28.1225  -22.6177  -20.3423 C   0  0  0  0  0  0  0  0  0  0  0  0
   28.6018  -23.6039  -20.9185 O   0  0  0  0  0  0  0  0  0  0  0  0
   28.5307  -22.2062  -19.0013 C   0  0  0  0  0  0  0  0  0  0  0  0
   27.8152  -21.0014  -18.5122 C   0  0  2  0  0  0  0  0  0  0  0  0
   27.9669  -19.8294  -19.3233 N   0  0  0  0  0  0  0  0  0  0  0  0
   28.0625  -20.7220  -17.0557 C   0  0  0  0  0  0  0  0  0  0  0  0
   29.1615  -20.9512  -16.5272 O   0  0  0  0  0  0  0  0  0  0  0  0
   27.0050  -20.1879  -16.2946 N   0  0  0  0  0  0  0  0  0  0  0  0
   27.0218  -19.8080  -14.9278 C   0  0  1  0  0  0  0  0  0  0  0  0
   27.0939  -18.3236  -14.6444 C   0  0  0  0  0  0  0  0  0  0  0  0
   27.9592  -17.5893  -15.6055 C   0  0  0  0  0  0  0  0  0  0  0  0
   27.6091  -16.7664  -16.6644 C   0  0  0  0  0  0  0  0  0  0  0  0
   28.7454  -16.3865  -17.2617 N   0  0  0  0  0  0  0  0  0  0  0  0
   29.7894  -16.9272  -16.6335 C   0  0  0  0  0  0  0  0  0  0  0  0
   29.3094  -17.6569  -15.6285 N   0  0  0  0  0  0  0  0  0  0  0  0
   26.1059  -20.4992  -14.0286 C   0  0  0  0  0  0  0  0  0  0  0  0
   24.9062  -20.7976  -14.3526 O   0  0  0  0  0  0  0  0  0  0  0  0
   26.5116  -20.8776  -12.7396 N   0  0  0  0  0  0  0  0  0  0  0  0
   25.5418  -21.4841  -11.8258 C   0  0  1  0  0  0  0  0  0  0  0  0
   26.3667  -21.9940  -10.6740 C   0  0  0  0  0  0  0  0  0  0  0  0
   26.6449  -21.0406   -9.5958 C   0  0  0  0  0  0  0  0  0  0  0  0
   25.7620  -20.0647   -9.1577 C   0  0  0  0  0  0  0  0  0  0  0  0
   26.3711  -19.3751   -8.2034 N   0  0  0  0  0  0  0  0  0  0  0  0
   27.5987  -19.8530   -8.0011 C   0  0  0  0  0  0  0  0  0  0  0  0
   28.6153  -19.5012   -7.1190 C   0  0  0  0  0  0  0  0  0  0  0  0
   29.8132  -20.1817   -7.0918 C   0  0  0  0  0  0  0  0  0  0  0  0
   30.0333  -21.2446   -7.9538 C   0  0  0  0  0  0  0  0  0  0  0  0
   29.0054  -21.5700   -8.8190 C   0  0  0  0  0  0  0  0  0  0  0  0
   27.8011  -20.8929   -8.8535 C   0  0  0  0  0  0  0  0  0  0  0  0
   24.5165  -20.5510  -11.3776 C   0  0  0  0  0  0  0  0  0  0  0  0
   24.7208  -19.3198  -11.4163 O   0  0  0  0  0  0  0  0  0  0  0  0
   23.3029  -21.0039  -10.9098 O   0  0  0  0  0  0  0  0  0  0  0  0
  2  1  1  0
  3  2  2  0
  4  2  1  0
  5  4  1  0
  5  6  1  6
  7  5  1  0
  7  8  2  0
  9  7  1  0
 10  9  1  0
 10 11  1  6
 11 12  1  0
 12 16  1  0
 12 13  2  0
 13 14  1  0
 15 14  1  0
 16 15  2  0
 17 10  1  0
 18 17  2  0
 19 17  1  0
 20 21  1  1
 20 19  1  0
 21 22  1  0
 22 30  1  0
 23 24  1  0
 23 22  2  0
 24 25  1  0
 25 30  2  0
 25 26  1  0
 26 27  2  0
 27 28  1  0
 29 28  2  0
 30 29  1  0
 31 20  1  0
 31 33  1  0
 32 31  2  0
M  END
$$$$
