RHF.pdb
     RDKit          3D

 33 34  0  0  1  0  0  0  0  0999 V2000
    8.2085  -14.8878   14.7269 N   0  0  0  0  0  0  0  0  0  0  0  0
    7.8695  -13.6302   15.2857 C   0  0  0  0  0  0  0  0  0  0  0  0
    6.8497  -12.9673   14.8571 N   0  0  0  0  0  0  0  0  0  0  0  0
    8.6652  -13.0986   16.3292 N   0  0  0  0  0  0  0  0  0  0  0  0
    9.4344  -14.0365   17.1529 C   0  0  0  0  0  0  0  0  0  0  0  0
    8.5640  -14.6346   18.2145 C   0  0  0  0  0  0  0  0  0  0  0  0
    9.3117  -15.4954   19.1550 C   0  0  0  0  0  0  0  0  0  0  0  0
    8.9498  -16.9307   19.1709 C   0  0  2  0  0  0  0  0  0  0  0  0
    8.2306  -17.3721   18.0166 N   0  0  0  0  0  0  0  0  0  0  0  0
    8.2098  -17.3329   20.3980 C   0  0  0  0  0  0  0  0  0  0  0  0
    7.1105  -16.7816   20.6473 O   0  0  0  0  0  0  0  0  0  0  0  0
    6.5998  -12.0310   15.2114 N   0  0  0  0  0  0  0  0  0  0  0  0
    8.6749  -18.3044   21.3032 C   0  0  1  0  0  0  0  0  0  0  0  0
    8.0061  -18.5572   22.6170 C   0  0  0  0  0  0  0  0  0  0  0  0
    8.2283  -20.0212   22.8554 C   0  0  0  0  0  0  0  0  0  0  0  0
    7.8128  -20.5292   24.1677 C   0  0  0  0  0  0  0  0  0  0  0  0
    7.1401  -19.8755   25.1506 N   0  0  0  0  0  0  0  0  0  0  0  0
    6.9004  -20.7508   26.1601 C   0  0  0  0  0  0  0  0  0  0  0  0
    7.4082  -21.9191   25.8164 N   0  0  0  0  0  0  0  0  0  0  0  0
    7.9643  -21.8065   24.6144 C   0  0  0  0  0  0  0  0  0  0  0  0
    8.8081  -17.7932   23.6333 O   0  0  0  0  0  0  0  0  0  0  0  0
   10.0350  -17.7572   23.5721 N   0  0  0  0  0  0  0  0  0  0  0  0
    8.1843  -17.0898   24.6950 C   0  0  1  0  0  0  0  0  0  0  0  0
    8.9582  -16.2806   25.6492 C   0  0  0  0  0  0  0  0  0  0  0  0
    8.0119  -15.6484   26.6360 C   0  0  0  0  0  0  0  0  0  0  0  0
    8.7266  -14.8818   27.6796 C   0  0  0  0  0  0  0  0  0  0  0  0
    9.3224  -15.5308   28.7369 C   0  0  0  0  0  0  0  0  0  0  0  0
    9.9971  -14.8441   29.7138 C   0  0  0  0  0  0  0  0  0  0  0  0
   10.0727  -13.4653   29.6213 C   0  0  0  0  0  0  0  0  0  0  0  0
    9.4928  -12.7824   28.5842 C   0  0  0  0  0  0  0  0  0  0  0  0
    8.8236  -13.5179   27.6236 C   0  0  0  0  0  0  0  0  0  0  0  0
   10.0259  -17.0770   26.2582 O   0  0  0  0  0  0  0  0  0  0  0  0
   11.2144  -16.6617   26.1766 O   0  0  0  0  0  0  0  0  0  0  0  0
  2  3  2  0
  2  1  1  0
  4  2  1  0
  5  4  1  0
  6  5  1  0
  7  6  1  0
  8  9  1  6
  8  7  1  0
 10 12  1  0
 10  8  1  0
 11 10  2  0
 13 12  1  0
 13 14  1  1
 14 15  1  0
 15 16  2  0
 16 17  1  0
 18 17  1  0
 19 15  1  0
 19 18  2  0
 20 13  1  0
 21 20  2  0
 22 20  1  0
 23 31  1  0
 23 22  1  0
 24 25  1  0
 23 24  1  1
 25 30  1  0
 25 26  2  0
 26 27  1  0
 27 28  2  0
 29 28  1  0
 30 29  2  0
 31 33  1  0
 32 31  2  0
M  END
$$$$
