RHF.pdb
     RDKit          3D

 33 34  0  0  1  0  0  0  0  0999 V2000
    3.9529  -22.5185   25.2008 N   0  0  0  0  0  0  0  0  0  0  0  0
    4.9540  -23.2260   24.4895 C   0  0  0  0  0  0  0  0  0  0  0  0
    5.1452  -24.4856   24.6901 N   0  0  0  0  0  0  0  0  0  0  0  0
    5.7528  -22.5354   23.5463 N   0  0  0  0  0  0  0  0  0  0  0  0
    5.6196  -21.0772   23.4697 C   0  0  0  0  0  0  0  0  0  0  0  0
    6.5235  -20.5251   22.4112 C   0  0  0  0  0  0  0  0  0  0  0  0
    6.3002  -19.0864   22.1562 C   0  0  0  0  0  0  0  0  0  0  0  0
    7.0150  -18.4992   21.0005 C   0  0  2  0  0  0  0  0  0  0  0  0
    7.6389  -19.4575   20.1419 N   0  0  0  0  0  0  0  0  0  0  0  0
    8.0111  -17.4655   21.3936 C   0  0  0  0  0  0  0  0  0  0  0  0
    9.2122  -17.8044   21.5245 O   0  0  0  0  0  0  0  0  0  0  0  0
    5.7793  -25.0562   24.1097 N   0  0  0  0  0  0  0  0  0  0  0  0
    7.6818  -16.1181   21.6290 C   0  0  1  0  0  0  0  0  0  0  0  0
    8.7175  -15.0859   21.9438 C   0  0  0  0  0  0  0  0  0  0  0  0
    8.1965  -13.8438   21.2842 C   0  0  0  0  0  0  0  0  0  0  0  0
    8.0896  -13.8892   19.8215 C   0  0  0  0  0  0  0  0  0  0  0  0
    7.1527  -13.3098   19.0261 N   0  0  0  0  0  0  0  0  0  0  0  0
    7.4840  -13.5483   17.7314 C   0  0  0  0  0  0  0  0  0  0  0  0
    8.5978  -14.2557   17.7188 N   0  0  0  0  0  0  0  0  0  0  0  0
    8.9808  -14.4722   18.9730 C   0  0  0  0  0  0  0  0  0  0  0  0
    8.6505  -14.8857   23.4321 O   0  0  0  0  0  0  0  0  0  0  0  0
    8.3024  -13.8078   23.9092 N   0  0  0  0  0  0  0  0  0  0  0  0
    8.9843  -15.9253   24.3370 C   0  0  1  0  0  0  0  0  0  0  0  0
    8.7993  -15.7785   25.7891 C   0  0  0  0  0  0  0  0  0  0  0  0
    7.3359  -15.5685   26.0778 C   0  0  0  0  0  0  0  0  0  0  0  0
    7.0061  -14.1395   26.2701 C   0  0  0  0  0  0  0  0  0  0  0  0
    7.9438  -13.2695   26.7778 C   0  0  0  0  0  0  0  0  0  0  0  0
    7.6658  -11.9387   26.9591 C   0  0  0  0  0  0  0  0  0  0  0  0
    6.4076  -11.4733   26.6189 C   0  0  0  0  0  0  0  0  0  0  0  0
    5.4466  -12.3078   26.1105 C   0  0  0  0  0  0  0  0  0  0  0  0
    5.7737  -13.6410   25.9457 C   0  0  0  0  0  0  0  0  0  0  0  0
    9.4029  -16.9044   26.5052 O   0  0  0  0  0  0  0  0  0  0  0  0
    9.7642  -17.9185   25.8472 O   0  0  0  0  0  0  0  0  0  0  0  0
  2  3  2  0
  2  1  1  0
  4  2  1  0
  5  4  1  0
  6  5  1  0
  7  6  1  0
  8  9  1  1
  8  7  1  0
 10 12  1  0
 10  8  1  0
 11 10  2  0
 13 12  1  0
 13 14  1  1
 14 15  1  0
 15 16  2  0
 16 17  1  0
 18 17  1  0
 19 15  1  0
 19 18  2  0
 20 13  1  0
 21 20  2  0
 22 20  1  0
 23 31  1  0
 23 22  1  0
 24 25  1  0
 23 24  1  1
 25 30  1  0
 25 26  2  0
 26 27  1  0
 27 28  2  0
 29 28  1  0
 30 29  2  0
 31 33  1  0
 32 31  2  0
M  END
$$$$
