RHF.pdb
     RDKit          3D

 33 34  0  0  1  0  0  0  0  0999 V2000
    9.6264  -13.3920   19.8221 N   0  0  0  0  0  0  0  0  0  0  0  0
    8.7538  -13.6002   18.7248 C   0  0  0  0  0  0  0  0  0  0  0  0
    8.8277  -12.8625   17.6696 N   0  0  0  0  0  0  0  0  0  0  0  0
    7.7891  -14.6342   18.7934 N   0  0  0  0  0  0  0  0  0  0  0  0
    8.1342  -15.8477   19.5406 C   0  0  0  0  0  0  0  0  0  0  0  0
    8.2943  -17.0078   18.6075 C   0  0  0  0  0  0  0  0  0  0  0  0
    8.6362  -18.2652   19.3052 C   0  0  0  0  0  0  0  0  0  0  0  0
    7.5192  -18.9884   19.9537 C   0  0  2  0  0  0  0  0  0  0  0  0
    6.3261  -19.0601   19.1687 N   0  0  0  0  0  0  0  0  0  0  0  0
    7.1899  -18.4624   21.3065 C   0  0  0  0  0  0  0  0  0  0  0  0
    6.1096  -17.8442   21.4666 O   0  0  0  0  0  0  0  0  0  0  0  0
    8.2042  -12.9827   16.8562 N   0  0  0  0  0  0  0  0  0  0  0  0
    8.0265  -18.6192   22.4267 C   0  0  1  0  0  0  0  0  0  0  0  0
    7.6007  -18.2199   23.8038 C   0  0  0  0  0  0  0  0  0  0  0  0
    7.6439  -19.5039   24.5777 C   0  0  0  0  0  0  0  0  0  0  0  0
    6.4877  -20.3924   24.4140 C   0  0  0  0  0  0  0  0  0  0  0  0
    5.1714  -20.0612   24.3552 N   0  0  0  0  0  0  0  0  0  0  0  0
    4.4561  -21.1908   24.1206 C   0  0  0  0  0  0  0  0  0  0  0  0
    5.3025  -22.1992   24.0339 N   0  0  0  0  0  0  0  0  0  0  0  0
    6.5367  -21.7375   24.2081 C   0  0  0  0  0  0  0  0  0  0  0  0
    8.6930  -17.3269   24.3225 O   0  0  0  0  0  0  0  0  0  0  0  0
    9.8755  -17.6385   24.1987 N   0  0  0  0  0  0  0  0  0  0  0  0
    8.4035  -16.0993   24.9706 C   0  0  1  0  0  0  0  0  0  0  0  0
    9.4682  -15.2238   25.4845 C   0  0  0  0  0  0  0  0  0  0  0  0
    9.0405  -13.7881   25.3275 C   0  0  0  0  0  0  0  0  0  0  0  0
    7.8905  -13.4521   26.1950 C   0  0  0  0  0  0  0  0  0  0  0  0
    8.0940  -12.9257   27.4502 C   0  0  0  0  0  0  0  0  0  0  0  0
    7.0452  -12.5990   28.2713 C   0  0  0  0  0  0  0  0  0  0  0  0
    5.7561  -12.8092   27.8135 C   0  0  0  0  0  0  0  0  0  0  0  0
    5.5120  -13.3313   26.5700 C   0  0  0  0  0  0  0  0  0  0  0  0
    6.6013  -13.6449   25.7786 C   0  0  0  0  0  0  0  0  0  0  0  0
    9.8351  -15.6009   26.8513 O   0  0  0  0  0  0  0  0  0  0  0  0
   10.9013  -15.1388   27.3427 O   0  0  0  0  0  0  0  0  0  0  0  0
  2  3  2  0
  2  1  1  0
  4  2  1  0
  5  4  1  0
  6  5  1  0
  7  6  1  0
  8  9  1  6
  8  7  1  0
 10 12  1  0
 10  8  1  0
 11 10  2  0
 13 12  1  0
 13 14  1  1
 14 15  1  0
 15 16  2  0
 16 17  1  0
 18 17  1  0
 19 15  1  0
 19 18  2  0
 20 13  1  0
 21 20  2  0
 22 20  1  0
 23 31  1  0
 23 22  1  0
 24 25  1  0
 23 24  1  1
 25 30  1  0
 25 26  2  0
 26 27  1  0
 27 28  2  0
 29 28  1  0
 30 29  2  0
 31 33  1  0
 32 31  2  0
M  END
$$$$
