RHF.pdb
     RDKit          3D

 33 34  0  0  1  0  0  0  0  0999 V2000
    8.2376  -13.2127   14.8121 N   0  0  0  0  0  0  0  0  0  0  0  0
    9.1813  -14.2551   14.9898 C   0  0  0  0  0  0  0  0  0  0  0  0
    9.9428  -14.6328   14.0199 N   0  0  0  0  0  0  0  0  0  0  0  0
    9.2856  -14.8874   16.2524 N   0  0  0  0  0  0  0  0  0  0  0  0
    8.0453  -15.2796   16.9290 C   0  0  0  0  0  0  0  0  0  0  0  0
    7.6754  -14.2680   17.9692 C   0  0  0  0  0  0  0  0  0  0  0  0
    7.7564  -14.8010   19.3455 C   0  0  0  0  0  0  0  0  0  0  0  0
    6.9849  -16.0328   19.6258 C   0  0  2  0  0  0  0  0  0  0  0  0
    5.7344  -16.1169   18.9373 N   0  0  0  0  0  0  0  0  0  0  0  0
    6.7654  -16.2666   21.0792 C   0  0  0  0  0  0  0  0  0  0  0  0
    6.0518  -15.4568   21.7193 O   0  0  0  0  0  0  0  0  0  0  0  0
   10.6768  -15.3496   14.1294 N   0  0  0  0  0  0  0  0  0  0  0  0
    7.3164  -17.3524   21.7840 C   0  0  2  0  0  0  0  0  0  0  0  0
    7.1025  -17.5430   23.2521 C   0  0  0  0  0  0  0  0  0  0  0  0
    7.1802  -19.0297   23.4346 C   0  0  0  0  0  0  0  0  0  0  0  0
    7.1823  -19.5078   24.8218 C   0  0  0  0  0  0  0  0  0  0  0  0
    7.1209  -18.7772   25.9657 N   0  0  0  0  0  0  0  0  0  0  0  0
    7.0724  -19.6333   27.0180 C   0  0  0  0  0  0  0  0  0  0  0  0
    7.1011  -20.8644   26.5442 N   0  0  0  0  0  0  0  0  0  0  0  0
    7.1671  -20.8105   25.2178 C   0  0  0  0  0  0  0  0  0  0  0  0
    8.3015  -16.9290   23.9191 O   0  0  0  0  0  0  0  0  0  0  0  0
    9.4242  -17.0478   23.4334 N   0  0  0  0  0  0  0  0  0  0  0  0
    8.1845  -16.1943   25.1264 C   0  0  1  0  0  0  0  0  0  0  0  0
    9.3612  -15.6412   25.8146 C   0  0  0  0  0  0  0  0  0  0  0  0
    9.4995  -14.1849   25.4554 C   0  0  0  0  0  0  0  0  0  0  0  0
    8.3733  -13.3756   25.9697 C   0  0  0  0  0  0  0  0  0  0  0  0
    8.3981  -12.8828   27.2545 C   0  0  0  0  0  0  0  0  0  0  0  0
    7.3702  -12.1240   27.7532 C   0  0  0  0  0  0  0  0  0  0  0  0
    6.2881  -11.8552   26.9334 C   0  0  0  0  0  0  0  0  0  0  0  0
    6.2260  -12.3276   25.6483 C   0  0  0  0  0  0  0  0  0  0  0  0
    7.2860  -13.0879   25.1903 C   0  0  0  0  0  0  0  0  0  0  0  0
    9.2929  -15.9067   27.2534 O   0  0  0  0  0  0  0  0  0  0  0  0
   10.3074  -15.6660   27.9636 O   0  0  0  0  0  0  0  0  0  0  0  0
  2  3  2  0
  2  1  1  0
  4  2  1  0
  5  4  1  0
  6  5  1  0
  7  6  1  0
  8  9  1  6
  8  7  1  0
 10 12  1  0
 10  8  1  0
 11 10  2  0
 13 12  1  0
 13 14  1  6
 14 15  1  0
 15 16  2  0
 16 17  1  0
 18 17  1  0
 19 15  1  0
 19 18  2  0
 20 13  1  0
 21 20  2  0
 22 20  1  0
 23 31  1  0
 23 22  1  0
 24 25  1  0
 23 24  1  1
 25 30  1  0
 25 26  2  0
 26 27  1  0
 27 28  2  0
 29 28  1  0
 30 29  2  0
 31 33  1  0
 32 31  2  0
M  END
$$$$
