RHF.pdb
     RDKit          3D

 33 34  0  0  1  0  0  0  0  0999 V2000
   10.4653  -14.0260   19.3702 N   0  0  0  0  0  0  0  0  0  0  0  0
    9.4464  -13.0955   19.0467 C   0  0  0  0  0  0  0  0  0  0  0  0
    9.5056  -11.8761   19.4622 N   0  0  0  0  0  0  0  0  0  0  0  0
    8.3499  -13.5159   18.2556 N   0  0  0  0  0  0  0  0  0  0  0  0
    7.9978  -14.9392   18.2702 C   0  0  0  0  0  0  0  0  0  0  0  0
    7.1117  -15.2461   19.4377 C   0  0  0  0  0  0  0  0  0  0  0  0
    6.8456  -16.6915   19.5946 C   0  0  0  0  0  0  0  0  0  0  0  0
    8.0218  -17.5896   19.5608 C   0  0  2  0  0  0  0  0  0  0  0  0
    7.7997  -18.8299   18.8846 N   0  0  0  0  0  0  0  0  0  0  0  0
    8.5914  -17.8573   20.9096 C   0  0  0  0  0  0  0  0  0  0  0  0
    7.8708  -18.4231   21.7671 O   0  0  0  0  0  0  0  0  0  0  0  0
    8.7698  -11.1799   19.2655 N   0  0  0  0  0  0  0  0  0  0  0  0
    9.9026  -17.5099   21.2830 C   0  0  2  0  0  0  0  0  0  0  0  0
   10.4229  -17.7278   22.6682 C   0  0  0  0  0  0  0  0  0  0  0  0
   11.9094  -17.8047   22.4838 C   0  0  0  0  0  0  0  0  0  0  0  0
   12.4545  -19.1382   22.2055 C   0  0  0  0  0  0  0  0  0  0  0  0
   11.7815  -20.3073   22.0430 N   0  0  0  0  0  0  0  0  0  0  0  0
   12.6777  -21.2764   21.7263 C   0  0  0  0  0  0  0  0  0  0  0  0
   13.8769  -20.7274   21.6905 N   0  0  0  0  0  0  0  0  0  0  0  0
   13.7638  -19.4344   21.9772 C   0  0  0  0  0  0  0  0  0  0  0  0
   10.1122  -16.4643   23.4210 O   0  0  0  0  0  0  0  0  0  0  0  0
   10.4085  -15.3648   22.9588 N   0  0  0  0  0  0  0  0  0  0  0  0
    9.4699  -16.4920   24.6850 C   0  0  1  0  0  0  0  0  0  0  0  0
    9.1908  -15.2607   25.4401 C   0  0  0  0  0  0  0  0  0  0  0  0
    7.7396  -14.8970   25.2654 C   0  0  0  0  0  0  0  0  0  0  0  0
    7.3554  -13.7298   26.0886 C   0  0  0  0  0  0  0  0  0  0  0  0
    6.6384  -12.6928   25.5367 C   0  0  0  0  0  0  0  0  0  0  0  0
    6.2637  -11.6025   26.2798 C   0  0  0  0  0  0  0  0  0  0  0  0
    6.6222  -11.5575   27.6158 C   0  0  0  0  0  0  0  0  0  0  0  0
    7.3359  -12.5700   28.2022 C   0  0  0  0  0  0  0  0  0  0  0  0
    7.6907  -13.6482   27.4128 C   0  0  0  0  0  0  0  0  0  0  0  0
    9.6173  -15.3994   26.8344 O   0  0  0  0  0  0  0  0  0  0  0  0
    9.5450  -16.5342   27.3809 O   0  0  0  0  0  0  0  0  0  0  0  0
  2  3  2  0
  2  1  1  0
  4  2  1  0
  5  4  1  0
  6  5  1  0
  7  6  1  0
  8  9  1  1
  8  7  1  0
 10 12  1  0
 10  8  1  0
 11 10  2  0
 13 12  1  0
 13 14  1  6
 14 15  1  0
 15 16  2  0
 16 17  1  0
 18 17  1  0
 19 15  1  0
 19 18  2  0
 20 13  1  0
 21 20  2  0
 22 20  1  0
 23 31  1  0
 23 22  1  0
 24 25  1  0
 23 24  1  1
 25 30  1  0
 25 26  2  0
 26 27  1  0
 27 28  2  0
 29 28  1  0
 30 29  2  0
 31 33  1  0
 32 31  2  0
M  END
$$$$
