RHF.pdb
     RDKit          3D

 33 34  0  0  1  0  0  0  0  0999 V2000
    7.7601  -11.4457   19.1934 N   0  0  0  0  0  0  0  0  0  0  0  0
    8.7338  -12.4562   18.9947 C   0  0  0  0  0  0  0  0  0  0  0  0
    9.9277  -12.1598   18.6073 N   0  0  0  0  0  0  0  0  0  0  0  0
    8.3856  -13.8090   19.2262 N   0  0  0  0  0  0  0  0  0  0  0  0
    6.9980  -14.1083   19.5932 C   0  0  0  0  0  0  0  0  0  0  0  0
    6.9284  -14.6209   20.9985 C   0  0  0  0  0  0  0  0  0  0  0  0
    8.1642  -15.3130   21.4209 C   0  0  0  0  0  0  0  0  0  0  0  0
    8.0852  -16.7846   21.5605 C   0  0  2  0  0  0  0  0  0  0  0  0
    6.8424  -17.3528   21.1393 N   0  0  0  0  0  0  0  0  0  0  0  0
    8.4051  -17.2591   22.9345 C   0  0  0  0  0  0  0  0  0  0  0  0
    7.4827  -17.7396   23.6366 O   0  0  0  0  0  0  0  0  0  0  0  0
   10.6054  -12.8683   18.2858 N   0  0  0  0  0  0  0  0  0  0  0  0
    9.6931  -17.1999   23.4974 C   0  0  2  0  0  0  0  0  0  0  0  0
   10.0151  -17.8159   24.8218 C   0  0  0  0  0  0  0  0  0  0  0  0
   11.3300  -18.4984   24.5884 C   0  0  0  0  0  0  0  0  0  0  0  0
   11.2686  -19.7964   23.9070 C   0  0  0  0  0  0  0  0  0  0  0  0
   10.1711  -20.5344   23.5958 N   0  0  0  0  0  0  0  0  0  0  0  0
   10.5742  -21.6285   22.9007 C   0  0  0  0  0  0  0  0  0  0  0  0
   11.8870  -21.5744   22.7799 N   0  0  0  0  0  0  0  0  0  0  0  0
   12.3266  -20.4737   23.3814 C   0  0  0  0  0  0  0  0  0  0  0  0
   10.2486  -16.6636   25.7584 O   0  0  0  0  0  0  0  0  0  0  0  0
   10.8041  -15.6379   25.3714 N   0  0  0  0  0  0  0  0  0  0  0  0
    9.8402  -16.7153   27.1154 C   0  0  1  0  0  0  0  0  0  0  0  0
   10.1549  -15.6336   28.0616 C   0  0  0  0  0  0  0  0  0  0  0  0
    8.8685  -15.0339   28.5659 C   0  0  0  0  0  0  0  0  0  0  0  0
    8.1764  -14.2445   27.5239 C   0  0  0  0  0  0  0  0  0  0  0  0
    7.1753  -14.8119   26.7690 C   0  0  0  0  0  0  0  0  0  0  0  0
    6.5132  -14.0998   25.8016 C   0  0  0  0  0  0  0  0  0  0  0  0
    6.8710  -12.7797   25.5904 C   0  0  0  0  0  0  0  0  0  0  0  0
    7.8625  -12.1787   26.3212 C   0  0  0  0  0  0  0  0  0  0  0  0
    8.5011  -12.9368   27.2850 C   0  0  0  0  0  0  0  0  0  0  0  0
   11.0548  -16.1106   29.1141 O   0  0  0  0  0  0  0  0  0  0  0  0
   11.3024  -17.3456   29.1868 O   0  0  0  0  0  0  0  0  0  0  0  0
  2  3  2  0
  2  1  1  0
  4  2  1  0
  5  4  1  0
  6  5  1  0
  7  6  1  0
  8  9  1  1
  8  7  1  0
 10 12  1  0
 10  8  1  0
 11 10  2  0
 13 12  1  0
 13 14  1  6
 14 15  1  0
 15 16  2  0
 16 17  1  0
 18 17  1  0
 19 15  1  0
 19 18  2  0
 20 13  1  0
 21 20  2  0
 22 20  1  0
 23 31  1  0
 23 22  1  0
 24 25  1  0
 23 24  1  1
 25 30  1  0
 25 26  2  0
 26 27  1  0
 27 28  2  0
 29 28  1  0
 30 29  2  0
 31 33  1  0
 32 31  2  0
M  END
$$$$
