RHF.pdb
     RDKit          3D

 33 34  0  0  1  0  0  0  0  0999 V2000
   10.1889  -13.3703   19.4633 N   0  0  0  0  0  0  0  0  0  0  0  0
    8.8294  -13.0146   19.2788 C   0  0  0  0  0  0  0  0  0  0  0  0
    8.4637  -11.7780   19.2631 N   0  0  0  0  0  0  0  0  0  0  0  0
    7.8630  -14.0355   19.1100 N   0  0  0  0  0  0  0  0  0  0  0  0
    8.2642  -15.2499   18.3929 C   0  0  0  0  0  0  0  0  0  0  0  0
    7.1396  -16.2382   18.3694 C   0  0  0  0  0  0  0  0  0  0  0  0
    6.6186  -16.5500   19.7170 C   0  0  0  0  0  0  0  0  0  0  0  0
    7.3410  -17.5907   20.4826 C   0  0  2  0  0  0  0  0  0  0  0  0
    7.1913  -18.9158   19.9662 N   0  0  0  0  0  0  0  0  0  0  0  0
    7.0084  -17.5853   21.9334 C   0  0  0  0  0  0  0  0  0  0  0  0
    5.9092  -17.1023   22.2983 O   0  0  0  0  0  0  0  0  0  0  0  0
    7.4780  -11.4855   19.1769 N   0  0  0  0  0  0  0  0  0  0  0  0
    7.8622  -18.0947   22.9288 C   0  0  1  0  0  0  0  0  0  0  0  0
    7.5443  -17.9857   24.3862 C   0  0  0  0  0  0  0  0  0  0  0  0
    7.5064  -19.4111   24.8515 C   0  0  0  0  0  0  0  0  0  0  0  0
    6.3541  -20.2025   24.4055 C   0  0  0  0  0  0  0  0  0  0  0  0
    5.3350  -19.8231   23.5909 N   0  0  0  0  0  0  0  0  0  0  0  0
    4.5301  -20.8966   23.3845 C   0  0  0  0  0  0  0  0  0  0  0  0
    5.0336  -21.9182   24.0505 N   0  0  0  0  0  0  0  0  0  0  0  0
    6.1373  -21.5195   24.6746 C   0  0  0  0  0  0  0  0  0  0  0  0
    8.7392  -17.3232   25.0130 O   0  0  0  0  0  0  0  0  0  0  0  0
    9.8778  -17.5807   24.6288 N   0  0  0  0  0  0  0  0  0  0  0  0
    8.5998  -16.3823   26.0648 C   0  0  1  0  0  0  0  0  0  0  0  0
    9.7665  -15.8279   26.7689 C   0  0  0  0  0  0  0  0  0  0  0  0
   10.0269  -14.4332   26.2630 C   0  0  0  0  0  0  0  0  0  0  0  0
    8.8251  -13.5756   26.3519 C   0  0  0  0  0  0  0  0  0  0  0  0
    7.8717  -13.6058   25.3598 C   0  0  0  0  0  0  0  0  0  0  0  0
    6.7451  -12.8261   25.4216 C   0  0  0  0  0  0  0  0  0  0  0  0
    6.5758  -11.9934   26.5140 C   0  0  0  0  0  0  0  0  0  0  0  0
    7.5021  -11.9347   27.5224 C   0  0  0  0  0  0  0  0  0  0  0  0
    8.6214  -12.7393   27.4157 C   0  0  0  0  0  0  0  0  0  0  0  0
    9.5903  -15.9233   28.2197 O   0  0  0  0  0  0  0  0  0  0  0  0
    8.4797  -16.3158   28.6715 O   0  0  0  0  0  0  0  0  0  0  0  0
  2  3  2  0
  2  1  1  0
  4  2  1  0
  5  4  1  0
  6  5  1  0
  7  6  1  0
  8  9  1  6
  8  7  1  0
 10 12  1  0
 10  8  1  0
 11 10  2  0
 13 12  1  0
 13 14  1  1
 14 15  1  0
 15 16  2  0
 16 17  1  0
 18 17  1  0
 19 15  1  0
 19 18  2  0
 20 13  1  0
 21 20  2  0
 22 20  1  0
 23 31  1  0
 23 22  1  0
 24 25  1  0
 23 24  1  1
 25 30  1  0
 25 26  2  0
 26 27  1  0
 27 28  2  0
 29 28  1  0
 30 29  2  0
 31 33  1  0
 32 31  2  0
M  END
$$$$
