RHF.pdb
     RDKit          3D

 33 34  0  0  1  0  0  0  0  0999 V2000
    9.4830  -14.7855   15.0019 N   0  0  0  0  0  0  0  0  0  0  0  0
    8.3735  -15.4384   15.5948 C   0  0  0  0  0  0  0  0  0  0  0  0
    7.9745  -16.5880   15.1677 N   0  0  0  0  0  0  0  0  0  0  0  0
    7.6970  -14.8151   16.6712 N   0  0  0  0  0  0  0  0  0  0  0  0
    8.4009  -13.7597   17.4064 C   0  0  0  0  0  0  0  0  0  0  0  0
    7.4705  -13.0793   18.3622 C   0  0  0  0  0  0  0  0  0  0  0  0
    7.2589  -13.8487   19.6063 C   0  0  0  0  0  0  0  0  0  0  0  0
    8.3168  -13.7470   20.6367 C   0  0  2  0  0  0  0  0  0  0  0  0
    9.6360  -13.5692   20.1144 N   0  0  0  0  0  0  0  0  0  0  0  0
    8.3133  -14.8882   21.5922 C   0  0  0  0  0  0  0  0  0  0  0  0
    7.2117  -15.3332   21.9961 O   0  0  0  0  0  0  0  0  0  0  0  0
    7.1766  -17.0944   15.5820 N   0  0  0  0  0  0  0  0  0  0  0  0
    9.4836  -15.5029   22.0736 C   0  0  1  0  0  0  0  0  0  0  0  0
    9.4470  -16.7149   22.9493 C   0  0  0  0  0  0  0  0  0  0  0  0
   10.5840  -17.5539   22.4464 C   0  0  0  0  0  0  0  0  0  0  0  0
   10.3038  -18.3726   21.2615 C   0  0  0  0  0  0  0  0  0  0  0  0
    9.1654  -18.4233   20.5215 N   0  0  0  0  0  0  0  0  0  0  0  0
    9.3737  -19.2597   19.4728 C   0  0  0  0  0  0  0  0  0  0  0  0
   10.6084  -19.7174   19.5549 N   0  0  0  0  0  0  0  0  0  0  0  0
   11.1883  -19.1926   20.6296 C   0  0  0  0  0  0  0  0  0  0  0  0
    9.8008  -16.2296   24.3274 O   0  0  0  0  0  0  0  0  0  0  0  0
   10.7548  -15.4757   24.5058 N   0  0  0  0  0  0  0  0  0  0  0  0
    9.0528  -16.6206   25.4670 C   0  0  1  0  0  0  0  0  0  0  0  0
    9.4138  -16.1749   26.8217 C   0  0  0  0  0  0  0  0  0  0  0  0
    8.1897  -15.6114   27.4947 C   0  0  0  0  0  0  0  0  0  0  0  0
    7.8001  -14.2997   26.9331 C   0  0  0  0  0  0  0  0  0  0  0  0
    8.6545  -13.2240   27.0159 C   0  0  0  0  0  0  0  0  0  0  0  0
    8.3204  -11.9991   26.4972 C   0  0  0  0  0  0  0  0  0  0  0  0
    7.0909  -11.8559   25.8781 C   0  0  0  0  0  0  0  0  0  0  0  0
    6.2124  -12.9028   25.7754 C   0  0  0  0  0  0  0  0  0  0  0  0
    6.5937  -14.1179   26.3134 C   0  0  0  0  0  0  0  0  0  0  0  0
   10.0717  -17.2525   27.5640 O   0  0  0  0  0  0  0  0  0  0  0  0
   10.0345  -18.4231   27.0948 O   0  0  0  0  0  0  0  0  0  0  0  0
  2  3  2  0
  2  1  1  0
  4  2  1  0
  5  4  1  0
  6  5  1  0
  7  6  1  0
  8  9  1  6
  8  7  1  0
 10 12  1  0
 10  8  1  0
 11 10  2  0
 13 12  1  0
 13 14  1  1
 14 15  1  0
 15 16  2  0
 16 17  1  0
 18 17  1  0
 19 15  1  0
 19 18  2  0
 20 13  1  0
 21 20  2  0
 22 20  1  0
 23 31  1  0
 23 22  1  0
 24 25  1  0
 23 24  1  1
 25 30  1  0
 25 26  2  0
 26 27  1  0
 27 28  2  0
 29 28  1  0
 30 29  2  0
 31 33  1  0
 32 31  2  0
M  END
$$$$
