RHF.pdb
     RDKit          3D

 33 34  0  0  1  0  0  0  0  0999 V2000
    7.4870  -13.4073   13.2176 N   0  0  0  0  0  0  0  0  0  0  0  0
    8.2804  -13.5166   14.3869 C   0  0  0  0  0  0  0  0  0  0  0  0
    9.2848  -12.7316   14.5825 N   0  0  0  0  0  0  0  0  0  0  0  0
    7.9615  -14.5033   15.3509 N   0  0  0  0  0  0  0  0  0  0  0  0
    7.3453  -14.0635   16.6066 C   0  0  0  0  0  0  0  0  0  0  0  0
    8.3949  -13.8224   17.6471 C   0  0  0  0  0  0  0  0  0  0  0  0
    8.0604  -14.4272   18.9536 C   0  0  0  0  0  0  0  0  0  0  0  0
    9.0915  -14.3326   20.0114 C   0  0  2  0  0  0  0  0  0  0  0  0
   10.4272  -14.5676   19.5581 N   0  0  0  0  0  0  0  0  0  0  0  0
    8.8071  -15.2040   21.1840 C   0  0  0  0  0  0  0  0  0  0  0  0
    7.6714  -15.1491   21.7149 O   0  0  0  0  0  0  0  0  0  0  0  0
    9.8966  -12.7990   15.4107 N   0  0  0  0  0  0  0  0  0  0  0  0
    9.7458  -16.0941   21.7372 C   0  0  1  0  0  0  0  0  0  0  0  0
    9.4627  -16.8868   22.9736 C   0  0  0  0  0  0  0  0  0  0  0  0
   10.2922  -18.1246   22.8023 C   0  0  0  0  0  0  0  0  0  0  0  0
    9.7970  -19.1001   21.8246 C   0  0  0  0  0  0  0  0  0  0  0  0
    8.6939  -19.8893   21.9051 N   0  0  0  0  0  0  0  0  0  0  0  0
    8.5773  -20.5814   20.7431 C   0  0  0  0  0  0  0  0  0  0  0  0
    9.5790  -20.2330   19.9583 N   0  0  0  0  0  0  0  0  0  0  0  0
   10.3283  -19.3376   20.5935 C   0  0  0  0  0  0  0  0  0  0  0  0
   10.0444  -16.0900   24.1077 O   0  0  0  0  0  0  0  0  0  0  0  0
   10.4512  -14.9438   23.9307 N   0  0  0  0  0  0  0  0  0  0  0  0
   10.1460  -16.6263   25.4165 C   0  0  1  0  0  0  0  0  0  0  0  0
    9.4900  -15.9890   26.5688 C   0  0  0  0  0  0  0  0  0  0  0  0
    8.0806  -15.6188   26.1872 C   0  0  0  0  0  0  0  0  0  0  0  0
    7.8568  -14.1575   26.2346 C   0  0  0  0  0  0  0  0  0  0  0  0
    7.1435  -13.5285   25.2399 C   0  0  0  0  0  0  0  0  0  0  0  0
    6.9159  -12.1762   25.2638 C   0  0  0  0  0  0  0  0  0  0  0  0
    7.4217  -11.4387   26.3201 C   0  0  0  0  0  0  0  0  0  0  0  0
    8.1369  -12.0280   27.3298 C   0  0  0  0  0  0  0  0  0  0  0  0
    8.3404  -13.3938   27.2620 C   0  0  0  0  0  0  0  0  0  0  0  0
    9.5930  -16.8368   27.7586 O   0  0  0  0  0  0  0  0  0  0  0  0
    9.4386  -18.0825   27.6311 O   0  0  0  0  0  0  0  0  0  0  0  0
  2  3  2  0
  2  1  1  0
  4  2  1  0
  5  4  1  0
  6  5  1  0
  7  6  1  0
  8  9  1  6
  8  7  1  0
 10 12  1  0
 10  8  1  0
 11 10  2  0
 13 12  1  0
 13 14  1  6
 14 15  1  0
 15 16  2  0
 16 17  1  0
 18 17  1  0
 19 15  1  0
 19 18  2  0
 20 13  1  0
 21 20  2  0
 22 20  1  0
 23 31  1  0
 23 22  1  0
 24 25  1  0
 23 24  1  1
 25 30  1  0
 25 26  2  0
 26 27  1  0
 27 28  2  0
 29 28  1  0
 30 29  2  0
 31 33  1  0
 32 31  2  0
M  END
$$$$
