HQG.pdb
     RDKit          3D

 24 24  0  0  1  0  0  0  0  0999 V2000
    8.5705  -16.2348   20.6245 N   0  0  0  0  0  0  0  0  0  0  0  0
    8.1739  -15.1151   21.4338 C   0  0  1  0  0  0  0  0  0  0  0  0
    7.0332  -14.3735   20.7706 C   0  0  0  0  0  0  0  0  0  0  0  0
    7.4864  -13.9908   19.4089 C   0  0  0  0  0  0  0  0  0  0  0  0
    8.6786  -14.2839   18.7845 C   0  0  0  0  0  0  0  0  0  0  0  0
    8.6873  -13.7432   17.5446 N   0  0  0  0  0  0  0  0  0  0  0  0
    7.5119  -13.1138   17.3856 C   0  0  0  0  0  0  0  0  0  0  0  0
    6.7818  -13.2561   18.5003 N   0  0  0  0  0  0  0  0  0  0  0  0
    7.7897  -15.5531   22.8170 C   0  0  0  0  0  0  0  0  0  0  0  0
    7.4024  -14.7638   23.7027 O   0  0  0  0  0  0  0  0  0  0  0  0
    5.5804  -21.1529   24.7874 N   0  0  0  0  0  0  0  0  0  0  0  0
    6.2877  -20.6420   25.8946 C   0  0  0  0  0  0  0  0  0  0  0  0
    6.3178  -21.3774   26.9147 O   0  0  0  0  0  0  0  0  0  0  0  0
    6.9697  -19.3511   25.9365 C   0  0  0  0  0  0  0  0  0  0  0  0
    6.7817  -18.6312   24.6315 C   0  0  0  0  0  0  0  0  0  0  0  0
    7.5731  -17.3750   24.5190 C   0  0  2  0  0  0  0  0  0  0  0  0
    7.8463  -16.9185   23.2036 N   0  0  0  0  0  0  0  0  0  0  0  0
    8.8329  -17.5286   25.2731 C   0  0  0  0  0  0  0  0  0  0  0  0
    9.7836  -18.2356   24.7926 O   0  0  0  0  0  0  0  0  0  0  0  0
    9.0891  -16.9331   26.5390 N   0  0  0  0  0  0  0  0  0  0  0  0
    8.7566  -17.5680   27.7995 C   0  0  0  0  0  0  0  0  0  0  0  0
    9.9558  -18.3017   28.2769 C   0  0  0  0  0  0  0  0  0  0  0  0
   10.4163  -18.1634   29.5801 O   0  0  0  0  0  0  0  0  0  0  0  0
   10.5988  -19.0745   27.5217 O   0  0  0  0  0  0  0  0  0  0  0  0
  2  1  1  6
  2  9  1  0
  3  2  1  0
  4  5  2  0
  4  3  1  0
  6  5  1  0
  7  8  2  0
  7  6  1  0
  8  4  1  0
  9 10  2  0
 11 12  1  0
 12 14  1  0
 13 12  2  0
 14 15  1  0
 16 15  1  6
 16 18  1  0
 17  9  1  0
 17 16  1  0
 18 20  1  0
 19 18  2  0
 20 21  1  0
 22 23  1  0
 22 21  1  0
 24 22  2  0
M  END
$$$$
