HQG.pdb
     RDKit          3D

 24 24  0  0  1  0  0  0  0  0999 V2000
   10.8318  -14.4632   20.7741 N   0  0  0  0  0  0  0  0  0  0  0  0
    9.4432  -14.4613   21.1450 C   0  0  1  0  0  0  0  0  0  0  0  0
    8.6921  -15.5075   20.3497 C   0  0  0  0  0  0  0  0  0  0  0  0
    8.3315  -14.8969   19.0447 C   0  0  0  0  0  0  0  0  0  0  0  0
    8.6382  -13.6417   18.5676 C   0  0  0  0  0  0  0  0  0  0  0  0
    8.1162  -13.4858   17.3295 N   0  0  0  0  0  0  0  0  0  0  0  0
    7.4850  -14.6314   17.0256 C   0  0  0  0  0  0  0  0  0  0  0  0
    7.6080  -15.4870   18.0497 N   0  0  0  0  0  0  0  0  0  0  0  0
    9.2736  -14.6913   22.6184 C   0  0  0  0  0  0  0  0  0  0  0  0
   10.1106  -15.2974   23.3180 O   0  0  0  0  0  0  0  0  0  0  0  0
    5.3122  -11.6523   26.7077 N   0  0  0  0  0  0  0  0  0  0  0  0
    6.4050  -12.2230   27.3915 C   0  0  0  0  0  0  0  0  0  0  0  0
    6.5509  -11.8669   28.5891 O   0  0  0  0  0  0  0  0  0  0  0  0
    7.3538  -13.1744   26.8189 C   0  0  0  0  0  0  0  0  0  0  0  0
    7.0252  -13.4167   25.3733 C   0  0  0  0  0  0  0  0  0  0  0  0
    7.9281  -14.3959   24.7079 C   0  0  2  0  0  0  0  0  0  0  0  0
    8.1274  -14.2225   23.3137 N   0  0  0  0  0  0  0  0  0  0  0  0
    7.4451  -15.7633   24.9837 C   0  0  0  0  0  0  0  0  0  0  0  0
    6.3861  -16.1949   24.4118 O   0  0  0  0  0  0  0  0  0  0  0  0
    8.0829  -16.6779   25.8665 N   0  0  0  0  0  0  0  0  0  0  0  0
    7.5117  -17.9586   26.2352 C   0  0  0  0  0  0  0  0  0  0  0  0
    8.4586  -18.6385   27.1548 C   0  0  0  0  0  0  0  0  0  0  0  0
    8.1180  -19.8218   27.7975 O   0  0  0  0  0  0  0  0  0  0  0  0
    9.6024  -18.1702   27.3862 O   0  0  0  0  0  0  0  0  0  0  0  0
  2  1  1  1
  2  9  1  0
  3  2  1  0
  4  5  2  0
  4  3  1  0
  6  5  1  0
  7  8  2  0
  7  6  1  0
  8  4  1  0
  9 10  2  0
 11 12  1  0
 12 14  1  0
 13 12  2  0
 14 15  1  0
 16 15  1  6
 16 18  1  0
 17  9  1  0
 17 16  1  0
 18 20  1  0
 19 18  2  0
 20 21  1  0
 22 23  1  0
 22 21  1  0
 24 22  2  0
M  END
$$$$
