HQG.pdb
     RDKit          3D

 24 24  0  0  1  0  0  0  0  0999 V2000
    8.3346  -12.5003   18.1745 N   0  0  0  0  0  0  0  0  0  0  0  0
    8.2166  -13.7878   18.8023 C   0  0  1  0  0  0  0  0  0  0  0  0
    8.9189  -14.8381   17.9687 C   0  0  0  0  0  0  0  0  0  0  0  0
    8.2123  -14.9132   16.6645 C   0  0  0  0  0  0  0  0  0  0  0  0
    7.2116  -14.1003   16.1795 C   0  0  0  0  0  0  0  0  0  0  0  0
    6.8459  -14.5164   14.9455 N   0  0  0  0  0  0  0  0  0  0  0  0
    7.6077  -15.5825   14.6520 C   0  0  0  0  0  0  0  0  0  0  0  0
    8.4329  -15.8301   15.6784 N   0  0  0  0  0  0  0  0  0  0  0  0
    8.7655  -13.7640   20.1990 C   0  0  0  0  0  0  0  0  0  0  0  0
    9.6741  -12.9907   20.5650 O   0  0  0  0  0  0  0  0  0  0  0  0
    5.8136  -13.9106   25.6153 N   0  0  0  0  0  0  0  0  0  0  0  0
    7.1888  -13.9325   25.9244 C   0  0  0  0  0  0  0  0  0  0  0  0
    7.4884  -13.6716   27.1179 O   0  0  0  0  0  0  0  0  0  0  0  0
    8.2608  -14.2296   24.9778 C   0  0  0  0  0  0  0  0  0  0  0  0
    7.6994  -14.3439   23.5892 C   0  0  0  0  0  0  0  0  0  0  0  0
    8.7253  -14.6269   22.5479 C   0  0  2  0  0  0  0  0  0  0  0  0
    8.2716  -14.6382   21.2035 N   0  0  0  0  0  0  0  0  0  0  0  0
    9.3974  -15.9022   22.8658 C   0  0  0  0  0  0  0  0  0  0  0  0
    8.8003  -17.0115   22.6472 O   0  0  0  0  0  0  0  0  0  0  0  0
   10.7046  -16.0060   23.4164 N   0  0  0  0  0  0  0  0  0  0  0  0
   11.3201  -17.2693   23.7735 C   0  0  0  0  0  0  0  0  0  0  0  0
   12.6444  -16.9820   24.3803 C   0  0  0  0  0  0  0  0  0  0  0  0
   13.4321  -17.9962   24.9099 O   0  0  0  0  0  0  0  0  0  0  0  0
   13.1025  -15.8124   24.4378 O   0  0  0  0  0  0  0  0  0  0  0  0
  2  1  1  6
  2  9  1  0
  3  2  1  0
  4  5  2  0
  4  3  1  0
  6  5  1  0
  7  8  2  0
  7  6  1  0
  8  4  1  0
  9 10  2  0
 11 12  1  0
 12 14  1  0
 13 12  2  0
 14 15  1  0
 16 15  1  1
 16 18  1  0
 17  9  1  0
 17 16  1  0
 18 20  1  0
 19 18  2  0
 20 21  1  0
 22 23  1  0
 22 21  1  0
 24 22  2  0
M  END
$$$$
