HQG.pdb
     RDKit          3D

 24 24  0  0  1  0  0  0  0  0999 V2000
    9.2451  -12.5263   19.0693 N   0  0  0  0  0  0  0  0  0  0  0  0
    9.1512  -13.9166   19.4218 C   0  0  1  0  0  0  0  0  0  0  0  0
    9.9319  -14.7564   18.4337 C   0  0  0  0  0  0  0  0  0  0  0  0
    9.1727  -14.7578   17.1572 C   0  0  0  0  0  0  0  0  0  0  0  0
    7.8488  -14.4437   16.9426 C   0  0  0  0  0  0  0  0  0  0  0  0
    7.5579  -14.5741   15.6280 N   0  0  0  0  0  0  0  0  0  0  0  0
    8.6868  -14.9669   15.0161 C   0  0  0  0  0  0  0  0  0  0  0  0
    9.6642  -15.0806   15.9259 N   0  0  0  0  0  0  0  0  0  0  0  0
    9.6357  -14.1564   20.8219 C   0  0  0  0  0  0  0  0  0  0  0  0
   10.4834  -13.4353   21.3865 O   0  0  0  0  0  0  0  0  0  0  0  0
    6.9336  -17.7410   25.4490 N   0  0  0  0  0  0  0  0  0  0  0  0
    8.1825  -17.3020   25.9336 C   0  0  0  0  0  0  0  0  0  0  0  0
    8.4281  -17.5653   27.1388 O   0  0  0  0  0  0  0  0  0  0  0  0
    9.1839  -16.5812   25.1518 C   0  0  0  0  0  0  0  0  0  0  0  0
    8.6334  -16.2548   23.7928 C   0  0  0  0  0  0  0  0  0  0  0  0
    9.5912  -15.5266   22.9158 C   0  0  2  0  0  0  0  0  0  0  0  0
    9.1466  -15.2399   21.5991 N   0  0  0  0  0  0  0  0  0  0  0  0
   10.8651  -16.2710   22.8687 C   0  0  0  0  0  0  0  0  0  0  0  0
   10.9588  -17.3344   22.1651 O   0  0  0  0  0  0  0  0  0  0  0  0
   12.0441  -15.8906   23.5673 N   0  0  0  0  0  0  0  0  0  0  0  0
   13.3788  -16.2572   23.1355 C   0  0  0  0  0  0  0  0  0  0  0  0
   13.7547  -17.5198   23.8203 C   0  0  0  0  0  0  0  0  0  0  0  0
   15.0828  -17.8336   24.0796 O   0  0  0  0  0  0  0  0  0  0  0  0
   12.8873  -18.3514   24.1907 O   0  0  0  0  0  0  0  0  0  0  0  0
  2  1  1  6
  2  9  1  0
  3  2  1  0
  4  5  2  0
  4  3  1  0
  6  5  1  0
  7  8  2  0
  7  6  1  0
  8  4  1  0
  9 10  2  0
 11 12  1  0
 12 14  1  0
 13 12  2  0
 14 15  1  0
 16 15  1  6
 16 18  1  0
 17  9  1  0
 17 16  1  0
 18 20  1  0
 19 18  2  0
 20 21  1  0
 22 23  1  0
 22 21  1  0
 24 22  2  0
M  END
$$$$
