HQG.pdb
     RDKit          3D

 24 24  0  0  1  0  0  0  0  0999 V2000
   10.6246  -15.7151   21.6913 N   0  0  0  0  0  0  0  0  0  0  0  0
    9.5097  -15.1085   22.3658 C   0  0  1  0  0  0  0  0  0  0  0  0
    8.2257  -15.4151   21.6252 C   0  0  0  0  0  0  0  0  0  0  0  0
    8.1316  -14.4627   20.4896 C   0  0  0  0  0  0  0  0  0  0  0  0
    9.0473  -13.5189   20.0795 C   0  0  0  0  0  0  0  0  0  0  0  0
    8.5682  -12.8596   18.9998 N   0  0  0  0  0  0  0  0  0  0  0  0
    7.3608  -13.3810   18.7290 C   0  0  0  0  0  0  0  0  0  0  0  0
    7.0880  -14.3456   19.6183 N   0  0  0  0  0  0  0  0  0  0  0  0
    9.4224  -15.5670   23.7923 C   0  0  0  0  0  0  0  0  0  0  0  0
   10.1003  -16.5086   24.2520 O   0  0  0  0  0  0  0  0  0  0  0  0
   10.9185  -14.9529   28.2355 N   0  0  0  0  0  0  0  0  0  0  0  0
    9.7533  -14.2434   28.5907 C   0  0  0  0  0  0  0  0  0  0  0  0
    9.3896  -14.3487   29.7903 O   0  0  0  0  0  0  0  0  0  0  0  0
    8.9608  -13.4164   27.6844 C   0  0  0  0  0  0  0  0  0  0  0  0
    7.9159  -14.2569   27.0074 C   0  0  0  0  0  0  0  0  0  0  0  0
    8.4758  -15.2894   26.0924 C   0  0  2  0  0  0  0  0  0  0  0  0
    8.5454  -14.9422   24.7183 N   0  0  0  0  0  0  0  0  0  0  0  0
    7.7174  -16.5450   26.2591 C   0  0  0  0  0  0  0  0  0  0  0  0
    6.5387  -16.6491   25.7750 O   0  0  0  0  0  0  0  0  0  0  0  0
    8.2061  -17.6944   26.9394 N   0  0  0  0  0  0  0  0  0  0  0  0
    7.3454  -18.7445   27.4481 C   0  0  0  0  0  0  0  0  0  0  0  0
    7.6682  -19.9981   26.7211 C   0  0  0  0  0  0  0  0  0  0  0  0
    7.7468  -21.2172   27.3823 O   0  0  0  0  0  0  0  0  0  0  0  0
    7.8822  -20.0043   25.4820 O   0  0  0  0  0  0  0  0  0  0  0  0
  2  1  1  6
  2  9  1  0
  3  2  1  0
  4  5  2  0
  4  3  1  0
  6  5  1  0
  7  8  2  0
  7  6  1  0
  8  4  1  0
  9 10  2  0
 11 12  1  0
 12 14  1  0
 13 12  2  0
 14 15  1  0
 16 15  1  1
 16 18  1  0
 17  9  1  0
 17 16  1  0
 18 20  1  0
 19 18  2  0
 20 21  1  0
 22 23  1  0
 22 21  1  0
 24 22  2  0
M  END
$$$$
