HQG.pdb
     RDKit          3D

 24 24  0  0  1  0  0  0  0  0999 V2000
   10.6044  -15.7856   18.9061 N   0  0  0  0  0  0  0  0  0  0  0  0
   11.2281  -16.7061   19.8169 C   0  0  1  0  0  0  0  0  0  0  0  0
   12.6889  -16.8795   19.4604 C   0  0  0  0  0  0  0  0  0  0  0  0
   12.7452  -17.5916   18.1583 C   0  0  0  0  0  0  0  0  0  0  0  0
   12.8244  -17.0610   16.8897 C   0  0  0  0  0  0  0  0  0  0  0  0
   12.8538  -18.0613   15.9795 N   0  0  0  0  0  0  0  0  0  0  0  0
   12.7936  -19.2142   16.6654 C   0  0  0  0  0  0  0  0  0  0  0  0
   12.7280  -18.9438   17.9762 N   0  0  0  0  0  0  0  0  0  0  0  0
   11.0791  -16.2492   21.2388 C   0  0  0  0  0  0  0  0  0  0  0  0
   11.3056  -15.0794   21.6099 O   0  0  0  0  0  0  0  0  0  0  0  0
    6.2990  -18.9234   24.7783 N   0  0  0  0  0  0  0  0  0  0  0  0
    6.9588  -17.7307   24.4187 C   0  0  0  0  0  0  0  0  0  0  0  0
    6.4766  -16.6707   24.8943 O   0  0  0  0  0  0  0  0  0  0  0  0
    8.1329  -17.6446   23.5542 C   0  0  0  0  0  0  0  0  0  0  0  0
    9.0634  -16.5796   24.0606 C   0  0  0  0  0  0  0  0  0  0  0  0
   10.4734  -16.7520   23.6144 C   0  0  2  0  0  0  0  0  0  0  0  0
   10.6633  -17.1409   22.2631 N   0  0  0  0  0  0  0  0  0  0  0  0
   11.1520  -17.7047   24.5151 C   0  0  0  0  0  0  0  0  0  0  0  0
   11.1835  -18.9491   24.2233 O   0  0  0  0  0  0  0  0  0  0  0  0
   11.7996  -17.3414   25.7281 N   0  0  0  0  0  0  0  0  0  0  0  0
   12.4917  -18.2917   26.5768 C   0  0  0  0  0  0  0  0  0  0  0  0
   11.4790  -18.9925   27.4061 C   0  0  0  0  0  0  0  0  0  0  0  0
   11.8535  -19.8480   28.4345 O   0  0  0  0  0  0  0  0  0  0  0  0
   10.2465  -18.8389   27.2097 O   0  0  0  0  0  0  0  0  0  0  0  0
  2  1  1  6
  2  9  1  0
  3  2  1  0
  4  5  2  0
  4  3  1  0
  6  5  1  0
  7  8  2  0
  7  6  1  0
  8  4  1  0
  9 10  2  0
 11 12  1  0
 12 14  1  0
 13 12  2  0
 14 15  1  0
 16 15  1  1
 16 18  1  0
 17  9  1  0
 17 16  1  0
 18 20  1  0
 19 18  2  0
 20 21  1  0
 22 23  1  0
 22 21  1  0
 24 22  2  0
M  END
$$$$
