HQG.pdb
     RDKit          3D

 24 24  0  0  1  0  0  0  0  0999 V2000
   10.5597  -14.1967   19.8634 N   0  0  0  0  0  0  0  0  0  0  0  0
    9.2119  -14.2616   20.3584 C   0  0  1  0  0  0  0  0  0  0  0  0
    8.4091  -15.2574   19.5490 C   0  0  0  0  0  0  0  0  0  0  0  0
    8.1971  -14.6655   18.2034 C   0  0  0  0  0  0  0  0  0  0  0  0
    8.6733  -13.4740   17.7024 C   0  0  0  0  0  0  0  0  0  0  0  0
    8.2450  -13.3126   16.4295 N   0  0  0  0  0  0  0  0  0  0  0  0
    7.5049  -14.3915   16.1275 C   0  0  0  0  0  0  0  0  0  0  0  0
    7.4692  -15.2116   17.1867 N   0  0  0  0  0  0  0  0  0  0  0  0
    9.1846  -14.6174   21.8163 C   0  0  0  0  0  0  0  0  0  0  0  0
   10.0779  -15.2861   22.3751 O   0  0  0  0  0  0  0  0  0  0  0  0
    5.5202  -11.9432   26.5485 N   0  0  0  0  0  0  0  0  0  0  0  0
    6.7415  -12.4709   27.0143 C   0  0  0  0  0  0  0  0  0  0  0  0
    7.1615  -12.0050   28.1047 O   0  0  0  0  0  0  0  0  0  0  0  0
    7.5313  -13.4946   26.3349 C   0  0  0  0  0  0  0  0  0  0  0  0
    7.2925  -13.4248   24.8535 C   0  0  0  0  0  0  0  0  0  0  0  0
    8.1144  -14.3851   24.0666 C   0  0  2  0  0  0  0  0  0  0  0  0
    8.1187  -14.2046   22.6592 N   0  0  0  0  0  0  0  0  0  0  0  0
    7.6987  -15.7621   24.3988 C   0  0  0  0  0  0  0  0  0  0  0  0
    6.4698  -16.1006   24.2996 O   0  0  0  0  0  0  0  0  0  0  0  0
    8.5844  -16.7849   24.8372 N   0  0  0  0  0  0  0  0  0  0  0  0
    9.9150  -16.5206   25.3490 C   0  0  0  0  0  0  0  0  0  0  0  0
   10.1211  -17.3621   26.5548 C   0  0  0  0  0  0  0  0  0  0  0  0
    9.3378  -17.2014   27.6906 O   0  0  0  0  0  0  0  0  0  0  0  0
   11.0103  -18.2502   26.5937 O   0  0  0  0  0  0  0  0  0  0  0  0
  2  1  1  6
  2  9  1  0
  3  2  1  0
  4  5  2  0
  4  3  1  0
  6  5  1  0
  7  8  2  0
  7  6  1  0
  8  4  1  0
  9 10  2  0
 11 12  1  0
 12 14  1  0
 13 12  2  0
 14 15  1  0
 16 15  1  1
 16 18  1  0
 17  9  1  0
 17 16  1  0
 18 20  1  0
 19 18  2  0
 20 21  1  0
 22 23  1  0
 22 21  1  0
 24 22  2  0
M  END
$$$$
