HQG.pdb
     RDKit          3D

 24 24  0  0  1  0  0  0  0  0999 V2000
    8.9026  -16.1072   16.7356 N   0  0  0  0  0  0  0  0  0  0  0  0
    9.8263  -15.0183   16.8993 C   0  0  1  0  0  0  0  0  0  0  0  0
   10.2875  -14.5210   15.5461 C   0  0  0  0  0  0  0  0  0  0  0  0
    9.8020  -15.4892   14.5299 C   0  0  0  0  0  0  0  0  0  0  0  0
    9.3780  -16.7872   14.7110 C   0  0  0  0  0  0  0  0  0  0  0  0
    9.0185  -17.3184   13.5200 N   0  0  0  0  0  0  0  0  0  0  0  0
    9.2130  -16.3658   12.5938 C   0  0  0  0  0  0  0  0  0  0  0  0
    9.6839  -15.2618   13.1897 N   0  0  0  0  0  0  0  0  0  0  0  0
    9.2154  -13.9021   17.6953 C   0  0  0  0  0  0  0  0  0  0  0  0
    8.1562  -13.3282   17.3694 O   0  0  0  0  0  0  0  0  0  0  0  0
    7.2100  -12.5787   19.5832 N   0  0  0  0  0  0  0  0  0  0  0  0
    7.2190  -13.4644   20.6799 C   0  0  0  0  0  0  0  0  0  0  0  0
    7.0778  -12.9375   21.8134 O   0  0  0  0  0  0  0  0  0  0  0  0
    7.3771  -14.9137   20.5916 C   0  0  0  0  0  0  0  0  0  0  0  0
    8.7861  -15.2510   20.1947 C   0  0  0  0  0  0  0  0  0  0  0  0
    9.6947  -14.0725   20.1457 C   0  0  2  0  0  0  0  0  0  0  0  0
    9.8209  -13.4264   18.8887 N   0  0  0  0  0  0  0  0  0  0  0  0
   11.0258  -14.4676   20.6472 C   0  0  0  0  0  0  0  0  0  0  0  0
   11.1629  -14.8600   21.8563 O   0  0  0  0  0  0  0  0  0  0  0  0
   12.2159  -14.4481   19.8688 N   0  0  0  0  0  0  0  0  0  0  0  0
   13.5228  -14.7768   20.4038 C   0  0  0  0  0  0  0  0  0  0  0  0
   13.6318  -16.2556   20.4793 C   0  0  0  0  0  0  0  0  0  0  0  0
   14.8649  -16.8843   20.5965 O   0  0  0  0  0  0  0  0  0  0  0  0
   12.6145  -16.9936   20.4402 O   0  0  0  0  0  0  0  0  0  0  0  0
  2  1  1  6
  2  9  1  0
  3  2  1  0
  4  5  2  0
  4  3  1  0
  6  5  1  0
  7  8  2  0
  7  6  1  0
  8  4  1  0
  9 10  2  0
 11 12  1  0
 12 14  1  0
 13 12  2  0
 14 15  1  0
 16 15  1  6
 16 18  1  0
 17  9  1  0
 17 16  1  0
 18 20  1  0
 19 18  2  0
 20 21  1  0
 22 23  1  0
 22 21  1  0
 24 22  2  0
M  END
$$$$
