HQG.pdb
     RDKit          3D

 24 24  0  0  1  0  0  0  0  0999 V2000
    8.9236  -16.0369   21.7169 N   0  0  0  0  0  0  0  0  0  0  0  0
    7.8563  -15.3596   22.4010 C   0  0  1  0  0  0  0  0  0  0  0  0
    6.9359  -14.6963   21.3988 C   0  0  0  0  0  0  0  0  0  0  0  0
    7.7828  -13.8759   20.4957 C   0  0  0  0  0  0  0  0  0  0  0  0
    8.8667  -13.0873   20.8129 C   0  0  0  0  0  0  0  0  0  0  0  0
    9.3524  -12.5094   19.6904 N   0  0  0  0  0  0  0  0  0  0  0  0
    8.5833  -12.9281   18.6724 C   0  0  0  0  0  0  0  0  0  0  0  0
    7.6364  -13.7501   19.1450 N   0  0  0  0  0  0  0  0  0  0  0  0
    7.0904  -16.3027   23.2823 C   0  0  0  0  0  0  0  0  0  0  0  0
    6.1039  -15.9556   23.9634 O   0  0  0  0  0  0  0  0  0  0  0  0
    3.1395  -18.7254   22.1639 N   0  0  0  0  0  0  0  0  0  0  0  0
    4.0800  -19.5735   22.7831 C   0  0  0  0  0  0  0  0  0  0  0  0
    3.6285  -20.3372   23.6749 O   0  0  0  0  0  0  0  0  0  0  0  0
    5.5053  -19.6243   22.4677 C   0  0  0  0  0  0  0  0  0  0  0  0
    6.3000  -19.8317   23.7255 C   0  0  0  0  0  0  0  0  0  0  0  0
    6.8466  -18.5738   24.3050 C   0  0  2  0  0  0  0  0  0  0  0  0
    7.4527  -17.6715   23.3929 N   0  0  0  0  0  0  0  0  0  0  0  0
    7.7928  -18.9115   25.3867 C   0  0  0  0  0  0  0  0  0  0  0  0
    7.4468  -19.7289   26.3068 O   0  0  0  0  0  0  0  0  0  0  0  0
    9.1090  -18.3838   25.4964 N   0  0  0  0  0  0  0  0  0  0  0  0
   10.2114  -19.1118   26.0939 C   0  0  0  0  0  0  0  0  0  0  0  0
   10.1321  -18.9421   27.5668 C   0  0  0  0  0  0  0  0  0  0  0  0
   11.2428  -18.5672   28.3119 O   0  0  0  0  0  0  0  0  0  0  0  0
    9.0590  -19.1307   28.1944 O   0  0  0  0  0  0  0  0  0  0  0  0
  2  1  1  6
  2  9  1  0
  3  2  1  0
  4  5  2  0
  4  3  1  0
  6  5  1  0
  7  8  2  0
  7  6  1  0
  8  4  1  0
  9 10  2  0
 11 12  1  0
 12 14  1  0
 13 12  2  0
 14 15  1  0
 16 15  1  6
 16 18  1  0
 17  9  1  0
 17 16  1  0
 18 20  1  0
 19 18  2  0
 20 21  1  0
 22 23  1  0
 22 21  1  0
 24 22  2  0
M  END
$$$$
