SYT.pdb
     RDKit          3D

 26 26  0  0  1  0  0  0  0  0999 V2000
   25.0504   -7.0466  -22.0654 O   0  0  0  0  0  0  0  0  0  0  0  0
   24.3111   -6.9865  -20.9090 C   0  0  0  0  0  0  0  0  0  0  0  0
   24.6336   -8.1006  -19.9398 C   0  0  2  0  0  0  0  0  0  0  0  0
   24.3431   -9.3969  -20.4992 N   0  0  0  0  0  0  0  0  0  0  0  0
   23.9635   -7.9488  -18.6481 C   0  0  0  0  0  0  0  0  0  0  0  0
   22.8142   -8.4348  -18.4885 O   0  0  0  0  0  0  0  0  0  0  0  0
   25.7812  -13.1058  -15.2841 O   0  0  0  0  0  0  0  0  0  0  0  0
   25.5291  -11.7201  -15.2605 C   0  0  0  0  0  0  0  0  0  0  0  0
   26.5219  -10.8151  -15.5815 C   0  0  0  0  0  0  0  0  0  0  0  0
   26.2755   -9.4644  -15.5585 C   0  0  0  0  0  0  0  0  0  0  0  0
   25.0339   -8.9593  -15.2159 C   0  0  0  0  0  0  0  0  0  0  0  0
   24.8299   -7.4909  -15.2006 C   0  0  0  0  0  0  0  0  0  0  0  0
   23.8281   -7.0910  -16.2626 C   0  0  2  0  0  0  0  0  0  0  0  0
   24.5203   -7.2809  -17.5347 N   0  0  0  0  0  0  0  0  0  0  0  0
   23.4022   -5.6863  -16.1654 C   0  0  0  0  0  0  0  0  0  0  0  0
   24.2485   -4.7398  -16.2381 O   0  0  0  0  0  0  0  0  0  0  0  0
   24.0400   -9.8579  -14.8946 C   0  0  0  0  0  0  0  0  0  0  0  0
   24.2877  -11.2348  -14.9172 C   0  0  0  0  0  0  0  0  0  0  0  0
   21.7394   -3.7204  -18.4238 C   0  0  0  0  0  0  0  0  0  0  0  0
   20.8237   -3.6577  -17.2197 C   0  0  1  0  0  0  0  0  0  0  0  0
   19.7486   -4.5093  -17.3148 O   0  0  0  0  0  0  0  0  0  0  0  0
   21.6203   -3.8914  -15.9306 C   0  0  2  0  0  0  0  0  0  0  0  0
   22.0553   -5.2728  -15.9878 N   0  0  0  0  0  0  0  0  0  0  0  0
   20.7904   -3.6447  -14.7340 C   0  0  0  0  0  0  0  0  0  0  0  0
   20.5403   -2.3310  -14.3622 O   0  0  0  0  0  0  0  0  0  0  0  0
   20.2883   -4.5500  -14.0196 O   0  0  0  0  0  0  0  0  0  0  0  0
  2  1  1  0
  3  2  1  0
  3  4  1  6
  5  6  2  0
  5  3  1  0
  7  8  1  0
  8 18  2  0
  9  8  1  0
  9 10  2  0
 10 11  1  0
 11 17  2  0
 11 12  1  0
 13 12  1  1
 13 14  1  0
 14  5  1  0
 15 16  2  0
 15 13  1  0
 18 17  1  0
 20 19  1  6
 20 21  1  0
 22 23  1  1
 22 20  1  0
 23 15  1  0
 24 22  1  0
 25 24  1  0
 26 24  2  0
M  END
$$$$
