SYT.pdb
     RDKit          3D

 26 26  0  0  1  0  0  0  0  0999 V2000
   25.0991   -9.8595  -20.6716 O   0  0  0  0  0  0  0  0  0  0  0  0
   24.0751   -9.3238  -19.9288 C   0  0  0  0  0  0  0  0  0  0  0  0
   23.3154  -10.3593  -19.1316 C   0  0  2  0  0  0  0  0  0  0  0  0
   22.6756  -11.3283  -19.9858 N   0  0  0  0  0  0  0  0  0  0  0  0
   22.3369   -9.7730  -18.2154 C   0  0  0  0  0  0  0  0  0  0  0  0
   21.1917   -9.4765  -18.6431 O   0  0  0  0  0  0  0  0  0  0  0  0
   17.4838  -13.6691  -16.7667 O   0  0  0  0  0  0  0  0  0  0  0  0
   18.4511  -12.7557  -16.3038 C   0  0  0  0  0  0  0  0  0  0  0  0
   18.0744  -11.5604  -15.7232 C   0  0  0  0  0  0  0  0  0  0  0  0
   19.0178  -10.6704  -15.2720 C   0  0  0  0  0  0  0  0  0  0  0  0
   20.3720  -10.9322  -15.3796 C   0  0  0  0  0  0  0  0  0  0  0  0
   21.3440   -9.9292  -14.8820 C   0  0  0  0  0  0  0  0  0  0  0  0
   21.6142   -8.8890  -15.9480 C   0  0  2  0  0  0  0  0  0  0  0  0
   22.5831   -9.5061  -16.8502 N   0  0  0  0  0  0  0  0  0  0  0  0
   22.1930   -7.6449  -15.4177 C   0  0  0  0  0  0  0  0  0  0  0  0
   23.3535   -7.6333  -14.8977 O   0  0  0  0  0  0  0  0  0  0  0  0
   20.7532  -12.1230  -15.9583 C   0  0  0  0  0  0  0  0  0  0  0  0
   19.7945  -13.0322  -16.4190 C   0  0  0  0  0  0  0  0  0  0  0  0
   21.6968   -2.6871  -14.9877 C   0  0  0  0  0  0  0  0  0  0  0  0
   21.2187   -4.0337  -15.4879 C   0  0  1  0  0  0  0  0  0  0  0  0
   21.1320   -4.1002  -16.8584 O   0  0  0  0  0  0  0  0  0  0  0  0
   22.0952   -5.1561  -14.9198 C   0  0  2  0  0  0  0  0  0  0  0  0
   21.5328   -6.3878  -15.4369 N   0  0  0  0  0  0  0  0  0  0  0  0
   22.0883   -5.1478  -13.4428 C   0  0  0  0  0  0  0  0  0  0  0  0
   23.1526   -4.5525  -12.7800 O   0  0  0  0  0  0  0  0  0  0  0  0
   21.1766   -5.6472  -12.7346 O   0  0  0  0  0  0  0  0  0  0  0  0
  2  1  1  0
  3  2  1  0
  3  4  1  6
  5  6  2  0
  5  3  1  0
  7  8  1  0
  8 18  2  0
  9  8  1  0
  9 10  2  0
 10 11  1  0
 11 17  2  0
 11 12  1  0
 13 12  1  1
 13 14  1  0
 14  5  1  0
 15 16  2  0
 15 13  1  0
 18 17  1  0
 20 19  1  6
 20 21  1  0
 22 23  1  6
 22 20  1  0
 23 15  1  0
 24 22  1  0
 25 24  1  0
 26 24  2  0
M  END
$$$$
