SYT.pdb
     RDKit          3D

 26 26  0  0  1  0  0  0  0  0999 V2000
   27.3441  -15.7098  -14.4041 O   0  0  0  0  0  0  0  0  0  0  0  0
   26.5493  -16.8038  -14.6466 C   0  0  0  0  0  0  0  0  0  0  0  0
   27.3394  -18.0706  -14.8836 C   0  0  2  0  0  0  0  0  0  0  0  0
   28.1683  -17.9719  -16.0588 N   0  0  0  0  0  0  0  0  0  0  0  0
   26.4980  -19.2650  -14.9607 C   0  0  0  0  0  0  0  0  0  0  0  0
   26.0918  -19.6621  -16.0831 O   0  0  0  0  0  0  0  0  0  0  0  0
   26.2181  -19.5548   -7.8353 O   0  0  0  0  0  0  0  0  0  0  0  0
   26.0909  -20.2020   -9.0800 C   0  0  0  0  0  0  0  0  0  0  0  0
   27.2064  -20.5115   -9.8335 C   0  0  0  0  0  0  0  0  0  0  0  0
   27.0819  -21.1425  -11.0467 C   0  0  0  0  0  0  0  0  0  0  0  0
   25.8450  -21.4910  -11.5594 C   0  0  0  0  0  0  0  0  0  0  0  0
   25.7727  -22.1634  -12.8788 C   0  0  0  0  0  0  0  0  0  0  0  0
   25.2363  -21.2086  -13.9237 C   0  0  2  0  0  0  0  0  0  0  0  0
   26.0943  -20.0293  -13.8433 N   0  0  0  0  0  0  0  0  0  0  0  0
   23.8460  -20.7948  -13.6790 C   0  0  0  0  0  0  0  0  0  0  0  0
   23.5793  -19.8303  -12.8941 O   0  0  0  0  0  0  0  0  0  0  0  0
   24.7290  -21.1843  -10.8119 C   0  0  0  0  0  0  0  0  0  0  0  0
   24.8524  -20.5414   -9.5752 C   0  0  0  0  0  0  0  0  0  0  0  0
   19.2271  -20.6563  -15.3552 C   0  0  0  0  0  0  0  0  0  0  0  0
   20.7125  -20.9304  -15.4596 C   0  0  1  0  0  0  0  0  0  0  0  0
   21.3694  -20.0392  -16.2747 O   0  0  0  0  0  0  0  0  0  0  0  0
   21.3431  -20.9935  -14.0635 C   0  0  2  0  0  0  0  0  0  0  0  0
   22.7145  -21.4120  -14.2752 N   0  0  0  0  0  0  0  0  0  0  0  0
   20.6253  -21.9462  -13.1923 C   0  0  0  0  0  0  0  0  0  0  0  0
   19.6185  -21.4603  -12.3698 O   0  0  0  0  0  0  0  0  0  0  0  0
   20.8638  -23.1801  -13.1420 O   0  0  0  0  0  0  0  0  0  0  0  0
  2  1  1  0
  3  2  1  0
  3  4  1  6
  5  6  2  0
  5  3  1  0
  7  8  1  0
  8 18  2  0
  9  8  1  0
  9 10  2  0
 10 11  1  0
 11 17  2  0
 11 12  1  0
 13 12  1  1
 13 14  1  0
 14  5  1  0
 15 16  2  0
 15 13  1  0
 18 17  1  0
 20 19  1  1
 20 21  1  0
 22 23  1  6
 22 20  1  0
 23 15  1  0
 24 22  1  0
 25 24  1  0
 26 24  2  0
M  END
$$$$
