SYT.pdb
     RDKit          3D

 26 26  0  0  1  0  0  0  0  0999 V2000
   21.0978   -9.5022  -20.7960 O   0  0  0  0  0  0  0  0  0  0  0  0
   20.9276  -10.8644  -20.8488 C   0  0  0  0  0  0  0  0  0  0  0  0
   21.7798  -11.6084  -19.8462 C   0  0  2  0  0  0  0  0  0  0  0  0
   21.5453  -13.0298  -19.8953 N   0  0  0  0  0  0  0  0  0  0  0  0
   21.6142  -11.1185  -18.4776 C   0  0  0  0  0  0  0  0  0  0  0  0
   20.5889  -11.4443  -17.8255 O   0  0  0  0  0  0  0  0  0  0  0  0
   23.6856  -15.7715  -14.6588 O   0  0  0  0  0  0  0  0  0  0  0  0
   23.6897  -14.3904  -14.9357 C   0  0  0  0  0  0  0  0  0  0  0  0
   22.9720  -13.5095  -14.1503 C   0  0  0  0  0  0  0  0  0  0  0  0
   22.9764  -12.1632  -14.4206 C   0  0  0  0  0  0  0  0  0  0  0  0
   23.6935  -11.6387  -15.4812 C   0  0  0  0  0  0  0  0  0  0  0  0
   23.6534  -10.1774  -15.7288 C   0  0  0  0  0  0  0  0  0  0  0  0
   22.3724   -9.8029  -16.4430 C   0  0  2  0  0  0  0  0  0  0  0  0
   22.5404  -10.2853  -17.8115 N   0  0  0  0  0  0  0  0  0  0  0  0
   22.1277   -8.3529  -16.4834 C   0  0  0  0  0  0  0  0  0  0  0  0
   22.9330   -7.5703  -17.0806 O   0  0  0  0  0  0  0  0  0  0  0  0
   24.4110  -12.5131  -16.2679 C   0  0  0  0  0  0  0  0  0  0  0  0
   24.4087  -13.8855  -15.9952 C   0  0  0  0  0  0  0  0  0  0  0  0
   19.4118   -6.6934  -18.0863 C   0  0  0  0  0  0  0  0  0  0  0  0
   19.3351   -6.2184  -16.6507 C   0  0  1  0  0  0  0  0  0  0  0  0
   18.3764   -6.8748  -15.9159 O   0  0  0  0  0  0  0  0  0  0  0  0
   20.7146   -6.3016  -15.9867 C   0  0  2  0  0  0  0  0  0  0  0  0
   21.0102   -7.7166  -15.8811 N   0  0  0  0  0  0  0  0  0  0  0  0
   20.7103   -5.6590  -14.6567 C   0  0  0  0  0  0  0  0  0  0  0  0
   20.7433   -4.2729  -14.5922 O   0  0  0  0  0  0  0  0  0  0  0  0
   20.6785   -6.2849  -13.5662 O   0  0  0  0  0  0  0  0  0  0  0  0
  2  1  1  0
  3  2  1  0
  3  4  1  1
  5  6  2  0
  5  3  1  0
  7  8  1  0
  8 18  2  0
  9  8  1  0
  9 10  2  0
 10 11  1  0
 11 17  2  0
 11 12  1  0
 13 12  1  1
 13 14  1  0
 14  5  1  0
 15 16  2  0
 15 13  1  0
 18 17  1  0
 20 19  1  6
 20 21  1  0
 22 23  1  1
 22 20  1  0
 23 15  1  0
 24 22  1  0
 25 24  1  0
 26 24  2  0
M  END
$$$$
