SYT.pdb
     RDKit          3D

 26 26  0  0  1  0  0  0  0  0999 V2000
   25.8553  -18.2323  -16.3036 O   0  0  0  0  0  0  0  0  0  0  0  0
   26.7639  -19.1042  -15.7545 C   0  0  0  0  0  0  0  0  0  0  0  0
   26.8168  -20.4348  -16.4699 C   0  0  2  0  0  0  0  0  0  0  0  0
   27.1295  -20.2781  -17.8683 N   0  0  0  0  0  0  0  0  0  0  0  0
   25.5916  -21.2189  -16.3135 C   0  0  0  0  0  0  0  0  0  0  0  0
   24.7517  -21.2444  -17.2496 O   0  0  0  0  0  0  0  0  0  0  0  0
   27.0426  -27.8704  -17.1797 O   0  0  0  0  0  0  0  0  0  0  0  0
   26.3662  -26.8938  -16.4228 C   0  0  0  0  0  0  0  0  0  0  0  0
   27.0150  -25.7483  -16.0047 C   0  0  0  0  0  0  0  0  0  0  0  0
   26.3551  -24.7966  -15.2669 C   0  0  0  0  0  0  0  0  0  0  0  0
   25.0252  -24.9447  -14.9153 C   0  0  0  0  0  0  0  0  0  0  0  0
   24.3682  -23.8872  -14.1103 C   0  0  0  0  0  0  0  0  0  0  0  0
   24.0170  -22.7045  -14.9873 C   0  0  2  0  0  0  0  0  0  0  0  0
   25.2679  -21.9709  -15.1621 N   0  0  0  0  0  0  0  0  0  0  0  0
   23.0246  -21.8024  -14.3828 C   0  0  0  0  0  0  0  0  0  0  0  0
   23.3024  -21.1292  -13.3402 O   0  0  0  0  0  0  0  0  0  0  0  0
   24.3734  -26.0857  -15.3296 C   0  0  0  0  0  0  0  0  0  0  0  0
   25.0428  -27.0573  -16.0816 C   0  0  0  0  0  0  0  0  0  0  0  0
   19.2878  -18.7775  -14.8855 C   0  0  0  0  0  0  0  0  0  0  0  0
   20.4540  -19.6393  -15.3210 C   0  0  1  0  0  0  0  0  0  0  0  0
   21.5891  -18.9132  -15.5936 O   0  0  0  0  0  0  0  0  0  0  0  0
   20.7192  -20.7403  -14.2874 C   0  0  2  0  0  0  0  0  0  0  0  0
   21.7125  -21.6073  -14.8896 N   0  0  0  0  0  0  0  0  0  0  0  0
   19.4852  -21.4869  -13.9689 C   0  0  0  0  0  0  0  0  0  0  0  0
   19.2321  -22.6679  -14.6527 O   0  0  0  0  0  0  0  0  0  0  0  0
   18.6378  -21.1250  -13.1128 O   0  0  0  0  0  0  0  0  0  0  0  0
  2  1  1  0
  3  2  1  0
  3  4  1  6
  5  6  2  0
  5  3  1  0
  7  8  1  0
  8 18  2  0
  9  8  1  0
  9 10  2  0
 10 11  1  0
 11 17  2  0
 11 12  1  0
 13 12  1  1
 13 14  1  0
 14  5  1  0
 15 16  2  0
 15 13  1  0
 18 17  1  0
 20 19  1  1
 20 21  1  0
 22 23  1  6
 22 20  1  0
 23 15  1  0
 24 22  1  0
 25 24  1  0
 26 24  2  0
M  END
$$$$
