SYT.pdb
     RDKit          3D

 26 26  0  0  1  0  0  0  0  0999 V2000
   25.7491  -13.9906  -17.2523 O   0  0  0  0  0  0  0  0  0  0  0  0
   26.3512  -12.8909  -17.8142 C   0  0  0  0  0  0  0  0  0  0  0  0
   26.0578  -11.6084  -17.0700 C   0  0  2  0  0  0  0  0  0  0  0  0
   26.4820  -11.6793  -15.6942 N   0  0  0  0  0  0  0  0  0  0  0  0
   24.6512  -11.2124  -17.1426 C   0  0  0  0  0  0  0  0  0  0  0  0
   24.1276  -10.9991  -18.2664 O   0  0  0  0  0  0  0  0  0  0  0  0
   16.0702  -11.6480  -15.7720 O   0  0  0  0  0  0  0  0  0  0  0  0
   17.4711  -11.6894  -15.6309 C   0  0  0  0  0  0  0  0  0  0  0  0
   18.1081  -10.9279  -14.6706 C   0  0  0  0  0  0  0  0  0  0  0  0
   19.4737  -10.9688  -14.5334 C   0  0  0  0  0  0  0  0  0  0  0  0
   20.2606  -11.7672  -15.3442 C   0  0  0  0  0  0  0  0  0  0  0  0
   21.7310  -11.7634  -15.1546 C   0  0  0  0  0  0  0  0  0  0  0  0
   22.3779  -10.7747  -16.1007 C   0  0  2  0  0  0  0  0  0  0  0  0
   23.8108  -11.0459  -16.0193 N   0  0  0  0  0  0  0  0  0  0  0  0
   22.1443   -9.3707  -15.7289 C   0  0  0  0  0  0  0  0  0  0  0  0
   22.7332   -8.8527  -14.7278 O   0  0  0  0  0  0  0  0  0  0  0  0
   19.6303  -12.5286  -16.3041 C   0  0  0  0  0  0  0  0  0  0  0  0
   18.2389  -12.4894  -16.4464 C   0  0  0  0  0  0  0  0  0  0  0  0
   22.4215   -6.1989  -17.9093 C   0  0  0  0  0  0  0  0  0  0  0  0
   21.0125   -6.3312  -17.3712 C   0  0  1  0  0  0  0  0  0  0  0  0
   20.1348   -6.8674  -18.2835 O   0  0  0  0  0  0  0  0  0  0  0  0
   21.0152   -7.1190  -16.0559 C   0  0  2  0  0  0  0  0  0  0  0  0
   21.2711   -8.4962  -16.4284 N   0  0  0  0  0  0  0  0  0  0  0  0
   19.7242   -6.9906  -15.3499 C   0  0  0  0  0  0  0  0  0  0  0  0
   19.4286   -5.7862  -14.7265 O   0  0  0  0  0  0  0  0  0  0  0  0
   18.8638   -7.9047  -15.2724 O   0  0  0  0  0  0  0  0  0  0  0  0
  2  1  1  0
  3  2  1  0
  3  4  1  1
  5  6  2  0
  5  3  1  0
  7  8  1  0
  8 18  2  0
  9  8  1  0
  9 10  2  0
 10 11  1  0
 11 17  2  0
 11 12  1  0
 13 12  1  1
 13 14  1  0
 14  5  1  0
 15 16  2  0
 15 13  1  0
 18 17  1  0
 20 19  1  6
 20 21  1  0
 22 23  1  6
 22 20  1  0
 23 15  1  0
 24 22  1  0
 25 24  1  0
 26 24  2  0
M  END
$$$$
