SYT.pdb
     RDKit          3D

 26 26  0  0  1  0  0  0  0  0999 V2000
   27.1758  -19.8577  -18.5051 O   0  0  0  0  0  0  0  0  0  0  0  0
   26.3872  -20.4237  -17.5328 C   0  0  0  0  0  0  0  0  0  0  0  0
   27.1007  -21.4934  -16.7381 C   0  0  2  0  0  0  0  0  0  0  0  0
   27.1826  -22.7350  -17.4658 N   0  0  0  0  0  0  0  0  0  0  0  0
   26.5067  -21.7210  -15.4206 C   0  0  0  0  0  0  0  0  0  0  0  0
   25.6998  -22.6732  -15.2639 O   0  0  0  0  0  0  0  0  0  0  0  0
   24.4967  -20.5114   -6.8625 O   0  0  0  0  0  0  0  0  0  0  0  0
   25.1137  -20.4742   -8.1284 C   0  0  0  0  0  0  0  0  0  0  0  0
   25.4011  -21.6409   -8.8096 C   0  0  0  0  0  0  0  0  0  0  0  0
   26.0024  -21.6041  -10.0435 C   0  0  0  0  0  0  0  0  0  0  0  0
   26.3419  -20.4076  -10.6495 C   0  0  0  0  0  0  0  0  0  0  0  0
   26.9970  -20.4310  -11.9794 C   0  0  0  0  0  0  0  0  0  0  0  0
   26.0901  -21.0883  -12.9976 C   0  0  2  0  0  0  0  0  0  0  0  0
   26.7750  -20.9340  -14.2785 N   0  0  0  0  0  0  0  0  0  0  0  0
   24.7652  -20.4563  -13.0950 C   0  0  0  0  0  0  0  0  0  0  0  0
   24.6455  -19.2387  -13.4422 O   0  0  0  0  0  0  0  0  0  0  0  0
   26.0576  -19.2408   -9.9741 C   0  0  0  0  0  0  0  0  0  0  0  0
   25.4448  -19.2748   -8.7167 C   0  0  0  0  0  0  0  0  0  0  0  0
   22.2070  -20.8389  -15.3823 C   0  0  0  0  0  0  0  0  0  0  0  0
   21.5279  -21.1960  -14.0770 C   0  0  1  0  0  0  0  0  0  0  0  0
   21.4178  -22.5521  -13.8797 O   0  0  0  0  0  0  0  0  0  0  0  0
   22.2330  -20.5072  -12.9026 C   0  0  2  0  0  0  0  0  0  0  0  0
   23.5423  -21.1236  -12.8200 N   0  0  0  0  0  0  0  0  0  0  0  0
   21.4808  -20.6869  -11.6442 C   0  0  0  0  0  0  0  0  0  0  0  0
   20.2823  -20.0046  -11.4873 O   0  0  0  0  0  0  0  0  0  0  0  0
   21.8527  -21.4221  -10.6939 O   0  0  0  0  0  0  0  0  0  0  0  0
  2  1  1  0
  3  2  1  0
  3  4  1  6
  5  6  2  0
  5  3  1  0
  7  8  1  0
  8 18  2  0
  9  8  1  0
  9 10  2  0
 10 11  1  0
 11 17  2  0
 11 12  1  0
 13 12  1  1
 13 14  1  0
 14  5  1  0
 15 16  2  0
 15 13  1  0
 18 17  1  0
 20 19  1  6
 20 21  1  0
 22 23  1  1
 22 20  1  0
 23 15  1  0
 24 22  1  0
 25 24  1  0
 26 24  2  0
M  END
$$$$
