SYT.pdb
     RDKit          3D

 26 26  0  0  1  0  0  0  0  0999 V2000
   26.6868  -20.1245  -18.0780 O   0  0  0  0  0  0  0  0  0  0  0  0
   27.9516  -19.9738  -17.5632 C   0  0  0  0  0  0  0  0  0  0  0  0
   28.3826  -21.1360  -16.6981 C   0  0  2  0  0  0  0  0  0  0  0  0
   28.6270  -22.3225  -17.4793 N   0  0  0  0  0  0  0  0  0  0  0  0
   27.4380  -21.4296  -15.6201 C   0  0  0  0  0  0  0  0  0  0  0  0
   26.7455  -22.4783  -15.6753 O   0  0  0  0  0  0  0  0  0  0  0  0
   23.3807  -20.9831   -7.7291 O   0  0  0  0  0  0  0  0  0  0  0  0
   24.2085  -20.7632   -8.8474 C   0  0  0  0  0  0  0  0  0  0  0  0
   25.4302  -21.3981   -8.9588 C   0  0  0  0  0  0  0  0  0  0  0  0
   26.2367  -21.1835  -10.0492 C   0  0  0  0  0  0  0  0  0  0  0  0
   25.8620  -20.3302  -11.0718 C   0  0  0  0  0  0  0  0  0  0  0  0
   26.7786  -20.1318  -12.2202 C   0  0  0  0  0  0  0  0  0  0  0  0
   26.2749  -20.8914  -13.4286 C   0  0  2  0  0  0  0  0  0  0  0  0
   27.2363  -20.6056  -14.4904 N   0  0  0  0  0  0  0  0  0  0  0  0
   24.9409  -20.4614  -13.8755 C   0  0  0  0  0  0  0  0  0  0  0  0
   24.7693  -19.3269  -14.4241 O   0  0  0  0  0  0  0  0  0  0  0  0
   24.6445  -19.6941  -10.9655 C   0  0  0  0  0  0  0  0  0  0  0  0
   23.8202  -19.9107   -9.8558 C   0  0  0  0  0  0  0  0  0  0  0  0
   22.1536  -23.1177  -15.0440 C   0  0  0  0  0  0  0  0  0  0  0  0
   22.0726  -21.6393  -15.3604 C   0  0  1  0  0  0  0  0  0  0  0  0
   20.8578  -21.2657  -15.8846 O   0  0  0  0  0  0  0  0  0  0  0  0
   22.4370  -20.8083  -14.1245 C   0  0  2  0  0  0  0  0  0  0  0  0
   23.7645  -21.2452  -13.7402 N   0  0  0  0  0  0  0  0  0  0  0  0
   21.4694  -21.0217  -13.0291 C   0  0  0  0  0  0  0  0  0  0  0  0
   20.2285  -20.4059  -13.1139 O   0  0  0  0  0  0  0  0  0  0  0  0
   21.6920  -21.7296  -12.0135 O   0  0  0  0  0  0  0  0  0  0  0  0
  2  1  1  0
  3  2  1  0
  3  4  1  6
  5  6  2  0
  5  3  1  0
  7  8  1  0
  8 18  2  0
  9  8  1  0
  9 10  2  0
 10 11  1  0
 11 17  2  0
 11 12  1  0
 13 12  1  1
 13 14  1  0
 14  5  1  0
 15 16  2  0
 15 13  1  0
 18 17  1  0
 20 19  1  1
 20 21  1  0
 22 23  1  1
 22 20  1  0
 23 15  1  0
 24 22  1  0
 25 24  1  0
 26 24  2  0
M  END
$$$$
