QHK.pdb
     RDKit          3D

 29 29  0  0  1  0  0  0  0  0999 V2000
   27.2134  -12.3833  -15.5592 N   0  0  0  0  0  0  0  0  0  0  0  0
   27.2906  -13.6259  -16.2961 C   0  0  0  0  0  0  0  0  0  0  0  0
   28.2823  -14.3256  -16.0111 O   0  0  0  0  0  0  0  0  0  0  0  0
   26.2370  -13.9292  -17.2708 C   0  0  0  0  0  0  0  0  0  0  0  0
   25.1289  -12.9658  -17.4328 C   0  0  0  0  0  0  0  0  0  0  0  0
   23.7379  -13.4606  -17.2873 C   0  0  2  0  0  0  0  0  0  0  0  0
   23.5774  -14.5476  -18.2612 N   0  0  0  0  0  0  0  0  0  0  0  0
   22.6499  -12.4891  -17.2983 C   0  0  0  0  0  0  0  0  0  0  0  0
   22.0733  -12.0968  -18.3620 O   0  0  0  0  0  0  0  0  0  0  0  0
   22.1737  -11.9204  -16.0853 N   0  0  0  0  0  0  0  0  0  0  0  0
   21.0659  -10.9927  -16.0135 C   0  0  1  0  0  0  0  0  0  0  0  0
   19.9745  -11.4071  -15.0896 C   0  0  0  0  0  0  0  0  0  0  0  0
   19.2276  -12.5980  -15.5144 C   0  0  0  0  0  0  0  0  0  0  0  0
   18.9287  -13.0098  -16.7788 C   0  0  0  0  0  0  0  0  0  0  0  0
   18.2273  -14.1563  -16.6811 N   0  0  0  0  0  0  0  0  0  0  0  0
   18.0911  -14.4549  -15.3757 C   0  0  0  0  0  0  0  0  0  0  0  0
   18.7047  -13.4984  -14.6676 N   0  0  0  0  0  0  0  0  0  0  0  0
   21.5207   -9.5953  -15.8084 C   0  0  0  0  0  0  0  0  0  0  0  0
   22.4597   -9.3715  -14.9942 O   0  0  0  0  0  0  0  0  0  0  0  0
   20.9684   -8.4848  -16.4694 N   0  0  0  0  0  0  0  0  0  0  0  0
   21.3796   -7.0776  -16.1441 C   0  0  1  0  0  0  0  0  0  0  0  0
   20.9298   -6.2072  -17.2356 C   0  0  0  0  0  0  0  0  0  0  0  0
   21.0427   -4.7556  -17.2319 C   0  0  0  0  0  0  0  0  0  0  0  0
   20.5970   -3.9007  -18.3421 C   0  0  0  0  0  0  0  0  0  0  0  0
   20.8829   -2.4337  -17.8754 C   0  0  0  0  0  0  0  0  0  0  0  0
   20.5745   -1.5641  -18.9756 N   0  0  0  0  0  0  0  0  0  0  0  0
   20.7286   -6.8506  -14.8309 C   0  0  0  0  0  0  0  0  0  0  0  0
   21.2021   -5.9385  -14.0498 O   0  0  0  0  0  0  0  0  0  0  0  0
   19.6406   -7.5088  -14.3221 O   0  0  0  0  0  0  0  0  0  0  0  0
  1  2  1  0
  2  3  2  0
  4  5  1  0
  4  2  1  0
  5  6  1  0
  6  7  1  6
  8 10  1  0
  8  6  1  0
  9  8  2  0
 11 10  1  0
 12 13  1  0
 11 12  1  1
 13 17  1  0
 14 15  1  0
 14 13  2  0
 15 16  1  0
 16 17  2  0
 18 11  1  0
 18 19  2  0
 20 18  1  0
 21 20  1  0
 21 27  1  0
 21 22  1  6
 23 22  1  0
 24 23  1  0
 25 24  1  0
 26 25  1  0
 27 28  2  0
 27 29  1  0
M  END
$$$$
