QHK.pdb
     RDKit          3D

 29 29  0  0  1  0  0  0  0  0999 V2000
   23.0236  -32.5424  -17.7572 N   0  0  0  0  0  0  0  0  0  0  0  0
   24.1228  -31.8662  -18.4110 C   0  0  0  0  0  0  0  0  0  0  0  0
   24.4360  -32.3539  -19.5148 O   0  0  0  0  0  0  0  0  0  0  0  0
   24.7400  -30.7186  -17.7369 C   0  0  0  0  0  0  0  0  0  0  0  0
   24.1779  -30.2748  -16.4450 C   0  0  0  0  0  0  0  0  0  0  0  0
   22.9549  -29.4353  -16.4596 C   0  0  2  0  0  0  0  0  0  0  0  0
   23.2942  -28.2161  -17.2042 N   0  0  0  0  0  0  0  0  0  0  0  0
   22.2671  -29.1871  -15.1974 C   0  0  0  0  0  0  0  0  0  0  0  0
   21.9694  -30.1066  -14.3705 O   0  0  0  0  0  0  0  0  0  0  0  0
   21.8868  -27.8683  -14.8264 N   0  0  0  0  0  0  0  0  0  0  0  0
   21.1570  -27.5528  -13.6178 C   0  0  1  0  0  0  0  0  0  0  0  0
   21.1104  -26.1017  -13.2877 C   0  0  0  0  0  0  0  0  0  0  0  0
   20.3913  -25.7753  -12.0495 C   0  0  0  0  0  0  0  0  0  0  0  0
   19.7811  -26.6198  -11.1709 C   0  0  0  0  0  0  0  0  0  0  0  0
   19.2521  -25.8711  -10.1832 N   0  0  0  0  0  0  0  0  0  0  0  0
   19.5284  -24.5794  -10.4419 C   0  0  0  0  0  0  0  0  0  0  0  0
   20.2250  -24.5274  -11.5842 N   0  0  0  0  0  0  0  0  0  0  0  0
   19.8296  -28.2148  -13.5786 C   0  0  0  0  0  0  0  0  0  0  0  0
   19.0357  -28.0502  -14.5467 O   0  0  0  0  0  0  0  0  0  0  0  0
   19.3879  -29.0262  -12.5195 N   0  0  0  0  0  0  0  0  0  0  0  0
   18.0260  -29.6587  -12.5139 C   0  0  1  0  0  0  0  0  0  0  0  0
   18.0524  -30.7905  -11.5814 C   0  0  0  0  0  0  0  0  0  0  0  0
   16.8841  -31.5705  -11.1988 C   0  0  0  0  0  0  0  0  0  0  0  0
   16.9100  -32.6311  -10.1806 C   0  0  0  0  0  0  0  0  0  0  0  0
   15.4274  -33.1179  -10.0522 C   0  0  0  0  0  0  0  0  0  0  0  0
   15.3916  -34.1232   -9.0276 N   0  0  0  0  0  0  0  0  0  0  0  0
   17.1501  -28.5263  -12.1258 C   0  0  0  0  0  0  0  0  0  0  0  0
   16.0222  -28.3736  -12.7347 O   0  0  0  0  0  0  0  0  0  0  0  0
   17.3928  -27.5860  -11.1601 O   0  0  0  0  0  0  0  0  0  0  0  0
  1  2  1  0
  2  3  2  0
  4  5  1  0
  4  2  1  0
  5  6  1  0
  6  7  1  1
  8 10  1  0
  8  6  1  0
  9  8  2  0
 11 10  1  0
 12 13  1  0
 11 12  1  6
 13 17  1  0
 14 15  1  0
 14 13  2  0
 15 16  1  0
 16 17  2  0
 18 11  1  0
 18 19  2  0
 20 18  1  0
 21 20  1  0
 21 27  1  0
 21 22  1  1
 23 22  1  0
 24 23  1  0
 25 24  1  0
 26 25  1  0
 27 28  2  0
 27 29  1  0
M  END
$$$$
