QHK.pdb
     RDKit          3D

 29 29  0  0  1  0  0  0  0  0999 V2000
   17.0059  -14.4575  -13.9937 N   0  0  0  0  0  0  0  0  0  0  0  0
   17.0706  -13.0683  -14.3922 C   0  0  0  0  0  0  0  0  0  0  0  0
   15.9838  -12.4634  -14.3069 O   0  0  0  0  0  0  0  0  0  0  0  0
   18.3579  -12.5278  -14.8426 C   0  0  0  0  0  0  0  0  0  0  0  0
   19.5136  -13.4434  -14.9322 C   0  0  0  0  0  0  0  0  0  0  0  0
   20.8023  -12.9049  -15.4323 C   0  0  2  0  0  0  0  0  0  0  0  0
   20.4677  -11.8432  -16.3899 N   0  0  0  0  0  0  0  0  0  0  0  0
   21.8074  -13.8447  -15.9163 C   0  0  0  0  0  0  0  0  0  0  0  0
   21.5950  -14.6720  -16.8589 O   0  0  0  0  0  0  0  0  0  0  0  0
   23.1057  -13.8792  -15.3377 N   0  0  0  0  0  0  0  0  0  0  0  0
   24.1236  -14.8393  -15.7049 C   0  0  1  0  0  0  0  0  0  0  0  0
   25.4884  -14.5095  -15.2100 C   0  0  0  0  0  0  0  0  0  0  0  0
   26.5542  -15.3846  -15.7150 C   0  0  0  0  0  0  0  0  0  0  0  0
   26.4481  -16.4766  -16.5237 C   0  0  0  0  0  0  0  0  0  0  0  0
   27.6897  -16.9616  -16.7219 N   0  0  0  0  0  0  0  0  0  0  0  0
   28.5566  -16.1840  -16.0471 C   0  0  0  0  0  0  0  0  0  0  0  0
   27.8563  -15.2217  -15.4335 N   0  0  0  0  0  0  0  0  0  0  0  0
   23.7063  -16.2334  -15.4149 C   0  0  0  0  0  0  0  0  0  0  0  0
   23.3294  -16.5280  -14.2462 O   0  0  0  0  0  0  0  0  0  0  0  0
   23.7019  -17.2661  -16.3682 N   0  0  0  0  0  0  0  0  0  0  0  0
   23.2238  -18.6515  -16.0408 C   0  0  1  0  0  0  0  0  0  0  0  0
   21.8148  -18.7529  -16.4354 C   0  0  0  0  0  0  0  0  0  0  0  0
   20.7503  -19.2429  -15.5715 C   0  0  0  0  0  0  0  0  0  0  0  0
   19.3472  -19.3627  -15.9948 C   0  0  0  0  0  0  0  0  0  0  0  0
   18.5809  -19.9011  -14.7401 C   0  0  0  0  0  0  0  0  0  0  0  0
   17.2331  -20.1832  -15.1471 N   0  0  0  0  0  0  0  0  0  0  0  0
   24.1681  -19.5034  -16.8042 C   0  0  0  0  0  0  0  0  0  0  0  0
   24.7729  -20.4661  -16.1928 O   0  0  0  0  0  0  0  0  0  0  0  0
   24.4898  -19.3981  -18.1313 O   0  0  0  0  0  0  0  0  0  0  0  0
  1  2  1  0
  2  3  2  0
  4  5  1  0
  4  2  1  0
  5  6  1  0
  6  7  1  6
  8 10  1  0
  8  6  1  0
  9  8  2  0
 11 10  1  0
 12 13  1  0
 11 12  1  1
 13 17  1  0
 14 15  1  0
 14 13  2  0
 15 16  1  0
 16 17  2  0
 18 11  1  0
 18 19  2  0
 20 18  1  0
 21 20  1  0
 21 27  1  0
 21 22  1  6
 23 22  1  0
 24 23  1  0
 25 24  1  0
 26 25  1  0
 27 28  2  0
 27 29  1  0
M  END
$$$$
