QHK.pdb
     RDKit          3D

 29 29  0  0  1  0  0  0  0  0999 V2000
   21.2703  -16.0495  -21.2963 N   0  0  0  0  0  0  0  0  0  0  0  0
   22.5235  -15.3305  -21.3696 C   0  0  0  0  0  0  0  0  0  0  0  0
   22.4784  -14.2994  -22.0690 O   0  0  0  0  0  0  0  0  0  0  0  0
   23.6813  -15.8646  -20.6441 C   0  0  0  0  0  0  0  0  0  0  0  0
   23.5046  -17.0923  -19.8418 C   0  0  0  0  0  0  0  0  0  0  0  0
   23.1811  -16.9521  -18.4007 C   0  0  2  0  0  0  0  0  0  0  0  0
   24.3219  -16.2654  -17.7817 N   0  0  0  0  0  0  0  0  0  0  0  0
   22.7325  -18.1327  -17.6709 C   0  0  0  0  0  0  0  0  0  0  0  0
   22.3023  -19.1854  -18.2406 O   0  0  0  0  0  0  0  0  0  0  0  0
   22.7557  -18.1584  -16.2496 N   0  0  0  0  0  0  0  0  0  0  0  0
   22.3389  -19.2965  -15.4598 C   0  0  1  0  0  0  0  0  0  0  0  0
   23.3780  -19.8122  -14.5265 C   0  0  0  0  0  0  0  0  0  0  0  0
   24.5655  -20.3777  -15.1797 C   0  0  0  0  0  0  0  0  0  0  0  0
   25.7778  -19.7937  -15.3966 C   0  0  0  0  0  0  0  0  0  0  0  0
   26.5576  -20.6917  -16.0302 N   0  0  0  0  0  0  0  0  0  0  0  0
   25.8425  -21.8184  -16.2057 C   0  0  0  0  0  0  0  0  0  0  0  0
   24.6255  -21.6202  -15.6837 N   0  0  0  0  0  0  0  0  0  0  0  0
   21.0191  -19.0772  -14.8182 C   0  0  0  0  0  0  0  0  0  0  0  0
   20.8171  -18.0019  -14.1877 O   0  0  0  0  0  0  0  0  0  0  0  0
   19.9603  -20.0003  -14.8650 N   0  0  0  0  0  0  0  0  0  0  0  0
   18.6259  -19.7155  -14.2378 C   0  0  1  0  0  0  0  0  0  0  0  0
   17.5846  -20.2695  -15.1097 C   0  0  0  0  0  0  0  0  0  0  0  0
   16.1553  -20.1733  -14.8500 C   0  0  0  0  0  0  0  0  0  0  0  0
   15.1266  -20.7472  -15.7302 C   0  0  0  0  0  0  0  0  0  0  0  0
   13.7599  -20.4067  -15.0464 C   0  0  0  0  0  0  0  0  0  0  0  0
   12.7158  -20.8548  -15.9244 N   0  0  0  0  0  0  0  0  0  0  0  0
   18.7565  -20.3552  -12.9059 C   0  0  0  0  0  0  0  0  0  0  0  0
   18.0811  -19.8763  -11.9156 O   0  0  0  0  0  0  0  0  0  0  0  0
   19.5303  -21.4373  -12.5802 O   0  0  0  0  0  0  0  0  0  0  0  0
  1  2  1  0
  2  3  2  0
  4  5  1  0
  4  2  1  0
  5  6  1  0
  6  7  1  1
  8 10  1  0
  8  6  1  0
  9  8  2  0
 11 10  1  0
 12 13  1  0
 11 12  1  1
 13 17  1  0
 14 15  1  0
 14 13  2  0
 15 16  1  0
 16 17  2  0
 18 11  1  0
 18 19  2  0
 20 18  1  0
 21 20  1  0
 21 27  1  0
 21 22  1  6
 23 22  1  0
 24 23  1  0
 25 24  1  0
 26 25  1  0
 27 28  2  0
 27 29  1  0
M  END
$$$$
