QHK.pdb
     RDKit          3D

 29 29  0  0  1  0  0  0  0  0999 V2000
   18.7800  -13.9540  -15.7820 N   0  0  0  0  0  0  0  0  0  0  0  0
   18.9982  -14.1866  -17.1931 C   0  0  0  0  0  0  0  0  0  0  0  0
   19.1520  -15.3869  -17.4931 O   0  0  0  0  0  0  0  0  0  0  0  0
   19.0189  -13.0326  -18.0986 C   0  0  0  0  0  0  0  0  0  0  0  0
   18.7412  -11.6938  -17.5396 C   0  0  0  0  0  0  0  0  0  0  0  0
   19.8769  -10.7571  -17.3562 C   0  0  2  0  0  0  0  0  0  0  0  0
   20.9778  -11.5426  -16.7844 N   0  0  0  0  0  0  0  0  0  0  0  0
   19.6317   -9.4931  -16.6706 C   0  0  0  0  0  0  0  0  0  0  0  0
   18.6865   -8.7008  -16.9813 O   0  0  0  0  0  0  0  0  0  0  0  0
   20.4639   -9.0790  -15.5947 N   0  0  0  0  0  0  0  0  0  0  0  0
   20.2786   -7.8433  -14.8656 C   0  0  1  0  0  0  0  0  0  0  0  0
   20.2657   -7.9979  -13.3848 C   0  0  0  0  0  0  0  0  0  0  0  0
   19.0543   -8.6264  -12.8424 C   0  0  0  0  0  0  0  0  0  0  0  0
   17.9333   -9.0282  -13.5054 C   0  0  0  0  0  0  0  0  0  0  0  0
   17.0849   -9.5491  -12.5971 N   0  0  0  0  0  0  0  0  0  0  0  0
   17.6680   -9.4733  -11.3864 C   0  0  0  0  0  0  0  0  0  0  0  0
   18.8718   -8.9082  -11.5429 N   0  0  0  0  0  0  0  0  0  0  0  0
   21.1865   -6.7716  -15.3439 C   0  0  0  0  0  0  0  0  0  0  0  0
   22.4345   -6.9483  -15.2670 O   0  0  0  0  0  0  0  0  0  0  0  0
   20.7450   -5.5523  -15.8859 N   0  0  0  0  0  0  0  0  0  0  0  0
   21.7019   -4.5126  -16.3941 C   0  0  1  0  0  0  0  0  0  0  0  0
   20.9997   -3.6930  -17.3874 C   0  0  0  0  0  0  0  0  0  0  0  0
   21.5453   -2.4880  -17.9956 C   0  0  0  0  0  0  0  0  0  0  0  0
   20.8208   -1.6735  -18.9826 C   0  0  0  0  0  0  0  0  0  0  0  0
   21.8039   -0.5169  -19.3663 C   0  0  0  0  0  0  0  0  0  0  0  0
   21.1113    0.3531  -20.2748 N   0  0  0  0  0  0  0  0  0  0  0  0
   22.1020   -3.8119  -15.1495 C   0  0  0  0  0  0  0  0  0  0  0  0
   23.2180   -3.1634  -15.1305 O   0  0  0  0  0  0  0  0  0  0  0  0
   21.4073   -3.7583  -13.9704 O   0  0  0  0  0  0  0  0  0  0  0  0
  1  2  1  0
  2  3  2  0
  4  5  1  0
  4  2  1  0
  5  6  1  0
  6  7  1  1
  8 10  1  0
  8  6  1  0
  9  8  2  0
 11 10  1  0
 12 13  1  0
 11 12  1  1
 13 17  1  0
 14 15  1  0
 14 13  2  0
 15 16  1  0
 16 17  2  0
 18 11  1  0
 18 19  2  0
 20 18  1  0
 21 20  1  0
 21 27  1  0
 21 22  1  6
 23 22  1  0
 24 23  1  0
 25 24  1  0
 26 25  1  0
 27 28  2  0
 27 29  1  0
M  END
$$$$
