QHK.pdb
     RDKit          3D

 29 29  0  0  1  0  0  0  0  0999 V2000
   13.4336  -20.4622   -3.4195 N   0  0  0  0  0  0  0  0  0  0  0  0
   13.0173  -21.5086   -2.5114 C   0  0  0  0  0  0  0  0  0  0  0  0
   12.1251  -21.1632   -1.7119 O   0  0  0  0  0  0  0  0  0  0  0  0
   13.6617  -22.8225   -2.6137 C   0  0  0  0  0  0  0  0  0  0  0  0
   14.8131  -22.9731   -3.5266 C   0  0  0  0  0  0  0  0  0  0  0  0
   14.6215  -23.7397   -4.7822 C   0  0  2  0  0  0  0  0  0  0  0  0
   13.1806  -23.9970   -4.8986 N   0  0  0  0  0  0  0  0  0  0  0  0
   15.4543  -24.9148   -5.0131 C   0  0  0  0  0  0  0  0  0  0  0  0
   14.9998  -26.1027   -5.0252 O   0  0  0  0  0  0  0  0  0  0  0  0
   16.8514  -24.7799   -5.2397 N   0  0  0  0  0  0  0  0  0  0  0  0
   17.7535  -25.9013   -5.3862 C   0  0  1  0  0  0  0  0  0  0  0  0
   18.8478  -25.6866   -6.3726 C   0  0  0  0  0  0  0  0  0  0  0  0
   18.3960  -25.3886   -7.7377 C   0  0  0  0  0  0  0  0  0  0  0  0
   17.6381  -26.1562   -8.5708 C   0  0  0  0  0  0  0  0  0  0  0  0
   17.4764  -25.4744   -9.7219 N   0  0  0  0  0  0  0  0  0  0  0  0
   18.1236  -24.2998   -9.6084 C   0  0  0  0  0  0  0  0  0  0  0  0
   18.6838  -24.2532   -8.3931 N   0  0  0  0  0  0  0  0  0  0  0  0
   18.2255  -26.4128   -4.0757 C   0  0  0  0  0  0  0  0  0  0  0  0
   18.9167  -25.6564   -3.3375 O   0  0  0  0  0  0  0  0  0  0  0  0
   17.9515  -27.7034   -3.5917 N   0  0  0  0  0  0  0  0  0  0  0  0
   18.3630  -28.1431   -2.2161 C   0  0  1  0  0  0  0  0  0  0  0  0
   17.1506  -28.3001   -1.4057 C   0  0  0  0  0  0  0  0  0  0  0  0
   17.1412  -28.6989   -0.0055 C   0  0  0  0  0  0  0  0  0  0  0  0
   15.9126  -28.9563    0.7604 C   0  0  0  0  0  0  0  0  0  0  0  0
   16.3958  -29.3703    2.1910 C   0  0  0  0  0  0  0  0  0  0  0  0
   15.2281  -29.5203    3.0131 N   0  0  0  0  0  0  0  0  0  0  0  0
   19.1175  -29.3899   -2.4922 C   0  0  0  0  0  0  0  0  0  0  0  0
   18.8987  -30.0190   -3.5980 O   0  0  0  0  0  0  0  0  0  0  0  0
   20.0599  -29.9808   -1.6930 O   0  0  0  0  0  0  0  0  0  0  0  0
  1  2  1  0
  2  3  2  0
  4  5  1  0
  4  2  1  0
  5  6  1  0
  6  7  1  1
  8 10  1  0
  8  6  1  0
  9  8  2  0
 11 10  1  0
 12 13  1  0
 11 12  1  6
 13 17  1  0
 14 15  1  0
 14 13  2  0
 15 16  1  0
 16 17  2  0
 18 11  1  0
 18 19  2  0
 20 18  1  0
 21 20  1  0
 21 27  1  0
 21 22  1  1
 23 22  1  0
 24 23  1  0
 25 24  1  0
 26 25  1  0
 27 28  2  0
 27 29  1  0
M  END
$$$$
