QHK.pdb
     RDKit          3D

 29 29  0  0  1  0  0  0  0  0999 V2000
   26.1392  -21.4026  -10.4496 N   0  0  0  0  0  0  0  0  0  0  0  0
   26.9739  -21.0101  -11.5641 C   0  0  0  0  0  0  0  0  0  0  0  0
   28.1971  -21.0960  -11.3387 O   0  0  0  0  0  0  0  0  0  0  0  0
   26.3256  -20.5644  -12.8023 C   0  0  0  0  0  0  0  0  0  0  0  0
   24.8553  -20.4220  -12.8157 C   0  0  0  0  0  0  0  0  0  0  0  0
   24.1726  -20.2836  -14.1255 C   0  0  2  0  0  0  0  0  0  0  0  0
   25.1741  -20.5942  -15.1533 N   0  0  0  0  0  0  0  0  0  0  0  0
   23.4116  -19.0671  -14.3876 C   0  0  0  0  0  0  0  0  0  0  0  0
   22.5460  -18.5966  -13.5830 O   0  0  0  0  0  0  0  0  0  0  0  0
   23.6087  -18.3337  -15.5895 N   0  0  0  0  0  0  0  0  0  0  0  0
   22.8531  -17.1516  -15.9424 C   0  0  1  0  0  0  0  0  0  0  0  0
   23.4977  -16.2939  -16.9745 C   0  0  0  0  0  0  0  0  0  0  0  0
   24.6472  -15.5148  -16.4967 C   0  0  0  0  0  0  0  0  0  0  0  0
   25.0961  -15.3547  -15.2197 C   0  0  0  0  0  0  0  0  0  0  0  0
   26.1793  -14.5543  -15.2637 N   0  0  0  0  0  0  0  0  0  0  0  0
   26.4024  -14.2204  -16.5484 C   0  0  0  0  0  0  0  0  0  0  0  0
   25.4624  -14.8106  -17.2972 N   0  0  0  0  0  0  0  0  0  0  0  0
   21.4315  -17.4637  -16.2314 C   0  0  0  0  0  0  0  0  0  0  0  0
   21.1507  -18.5453  -16.8195 O   0  0  0  0  0  0  0  0  0  0  0  0
   20.3580  -16.6235  -15.8898 N   0  0  0  0  0  0  0  0  0  0  0  0
   18.9278  -17.0544  -16.0440 C   0  0  1  0  0  0  0  0  0  0  0  0
   18.6865  -18.1720  -15.1253 C   0  0  0  0  0  0  0  0  0  0  0  0
   17.3873  -18.7905  -14.9033 C   0  0  0  0  0  0  0  0  0  0  0  0
   17.1696  -19.9251  -13.9937 C   0  0  0  0  0  0  0  0  0  0  0  0
   15.6218  -20.1617  -13.9901 C   0  0  0  0  0  0  0  0  0  0  0  0
   15.3463  -21.1935  -13.0304 N   0  0  0  0  0  0  0  0  0  0  0  0
   18.1847  -15.8056  -15.7465 C   0  0  0  0  0  0  0  0  0  0  0  0
   18.8242  -14.8054  -15.2397 O   0  0  0  0  0  0  0  0  0  0  0  0
   16.8523  -15.5664  -15.9543 O   0  0  0  0  0  0  0  0  0  0  0  0
  1  2  1  0
  2  3  2  0
  4  5  1  0
  4  2  1  0
  5  6  1  0
  6  7  1  6
  8 10  1  0
  8  6  1  0
  9  8  2  0
 11 10  1  0
 12 13  1  0
 11 12  1  6
 13 17  1  0
 14 15  1  0
 14 13  2  0
 15 16  1  0
 16 17  2  0
 18 11  1  0
 18 19  2  0
 20 18  1  0
 21 20  1  0
 21 27  1  0
 21 22  1  1
 23 22  1  0
 24 23  1  0
 25 24  1  0
 26 25  1  0
 27 28  2  0
 27 29  1  0
M  END
$$$$
