QHK.pdb
     RDKit          3D

 29 29  0  0  1  0  0  0  0  0999 V2000
   31.1377  -29.4843  -17.9522 N   0  0  0  0  0  0  0  0  0  0  0  0
   30.2694  -28.9122  -18.9580 C   0  0  0  0  0  0  0  0  0  0  0  0
   30.3726  -29.4436  -20.0811 O   0  0  0  0  0  0  0  0  0  0  0  0
   29.3879  -27.8041  -18.5746 C   0  0  0  0  0  0  0  0  0  0  0  0
   29.4364  -27.3150  -17.1816 C   0  0  0  0  0  0  0  0  0  0  0  0
   28.3011  -27.6356  -16.2821 C   0  0  2  0  0  0  0  0  0  0  0  0
   28.0917  -29.0860  -16.3747 N   0  0  0  0  0  0  0  0  0  0  0  0
   27.0771  -26.8510  -16.4010 C   0  0  0  0  0  0  0  0  0  0  0  0
   25.9701  -27.1988  -15.8799 O   0  0  0  0  0  0  0  0  0  0  0  0
   27.0674  -25.6286  -17.1270 N   0  0  0  0  0  0  0  0  0  0  0  0
   25.9158  -24.7579  -17.2187 C   0  0  1  0  0  0  0  0  0  0  0  0
   26.2182  -23.3870  -17.7144 C   0  0  0  0  0  0  0  0  0  0  0  0
   25.0733  -22.4674  -17.7176 C   0  0  0  0  0  0  0  0  0  0  0  0
   23.7947  -22.6975  -17.3051 C   0  0  0  0  0  0  0  0  0  0  0  0
   23.0923  -21.5634  -17.4963 N   0  0  0  0  0  0  0  0  0  0  0  0
   23.9202  -20.6403  -18.0199 C   0  0  0  0  0  0  0  0  0  0  0  0
   25.1297  -21.1990  -18.1528 N   0  0  0  0  0  0  0  0  0  0  0  0
   24.7800  -25.4068  -17.9191 C   0  0  0  0  0  0  0  0  0  0  0  0
   25.0019  -26.0349  -18.9919 O   0  0  0  0  0  0  0  0  0  0  0  0
   23.4513  -25.3694  -17.4624 N   0  0  0  0  0  0  0  0  0  0  0  0
   22.3441  -26.0959  -18.1705 C   0  0  1  0  0  0  0  0  0  0  0  0
   21.2683  -26.3409  -17.2041 C   0  0  0  0  0  0  0  0  0  0  0  0
   20.3726  -27.4881  -17.2413 C   0  0  0  0  0  0  0  0  0  0  0  0
   20.7691  -28.8451  -16.8370 C   0  0  0  0  0  0  0  0  0  0  0  0
   19.5226  -29.7456  -17.1318 C   0  0  0  0  0  0  0  0  0  0  0  0
   19.8684  -31.0913  -16.7693 N   0  0  0  0  0  0  0  0  0  0  0  0
   22.0129  -25.1688  -19.2800 C   0  0  0  0  0  0  0  0  0  0  0  0
   22.2121  -23.9040  -19.1159 O   0  0  0  0  0  0  0  0  0  0  0  0
   21.5065  -25.4975  -20.5093 O   0  0  0  0  0  0  0  0  0  0  0  0
  1  2  1  0
  2  3  2  0
  4  5  1  0
  4  2  1  0
  5  6  1  0
  6  7  1  6
  8 10  1  0
  8  6  1  0
  9  8  2  0
 11 10  1  0
 12 13  1  0
 11 12  1  6
 13 17  1  0
 14 15  1  0
 14 13  2  0
 15 16  1  0
 16 17  2  0
 18 11  1  0
 18 19  2  0
 20 18  1  0
 21 20  1  0
 21 27  1  0
 21 22  1  1
 23 22  1  0
 24 23  1  0
 25 24  1  0
 26 25  1  0
 27 28  2  0
 27 29  1  0
M  END
$$$$
