QHK.pdb
     RDKit          3D

 29 29  0  0  1  0  0  0  0  0999 V2000
   23.3479  -20.5825   -9.7816 N   0  0  0  0  0  0  0  0  0  0  0  0
   24.3343  -20.7657   -8.7393 C   0  0  0  0  0  0  0  0  0  0  0  0
   23.8562  -21.1137   -7.6417 O   0  0  0  0  0  0  0  0  0  0  0  0
   25.7461  -20.5311   -9.0616 C   0  0  0  0  0  0  0  0  0  0  0  0
   26.0839  -19.9898  -10.3939 C   0  0  0  0  0  0  0  0  0  0  0  0
   25.7653  -20.8090  -11.5890 C   0  0  2  0  0  0  0  0  0  0  0  0
   26.5000  -22.0713  -11.4378 N   0  0  0  0  0  0  0  0  0  0  0  0
   25.9008  -20.1982  -12.9067 C   0  0  0  0  0  0  0  0  0  0  0  0
   25.4023  -19.0675  -13.2080 O   0  0  0  0  0  0  0  0  0  0  0  0
   26.6154  -20.8602  -13.9423 N   0  0  0  0  0  0  0  0  0  0  0  0
   26.8631  -20.2808  -15.2445 C   0  0  1  0  0  0  0  0  0  0  0  0
   28.0460  -20.8420  -15.9534 C   0  0  0  0  0  0  0  0  0  0  0  0
   28.3559  -20.1996  -17.2371 C   0  0  0  0  0  0  0  0  0  0  0  0
   27.7406  -19.1368  -17.8283 C   0  0  0  0  0  0  0  0  0  0  0  0
   28.3663  -18.8999  -18.9980 N   0  0  0  0  0  0  0  0  0  0  0  0
   29.3566  -19.8012  -19.1342 C   0  0  0  0  0  0  0  0  0  0  0  0
   29.3450  -20.5930  -18.0545 N   0  0  0  0  0  0  0  0  0  0  0  0
   25.6362  -20.2358  -16.0778 C   0  0  0  0  0  0  0  0  0  0  0  0
   24.8715  -21.2406  -16.0943 O   0  0  0  0  0  0  0  0  0  0  0  0
   25.2607  -19.1327  -16.8635 N   0  0  0  0  0  0  0  0  0  0  0  0
   23.9211  -19.0527  -17.5372 C   0  0  1  0  0  0  0  0  0  0  0  0
   23.4964  -17.6488  -17.5428 C   0  0  0  0  0  0  0  0  0  0  0  0
   22.1096  -17.2075  -17.5842 C   0  0  0  0  0  0  0  0  0  0  0  0
   21.7058  -15.7980  -17.6955 C   0  0  0  0  0  0  0  0  0  0  0  0
   20.1402  -15.8135  -17.6799 C   0  0  0  0  0  0  0  0  0  0  0  0
   19.6969  -14.4493  -17.6131 N   0  0  0  0  0  0  0  0  0  0  0  0
   24.1976  -19.6460  -18.8683 C   0  0  0  0  0  0  0  0  0  0  0  0
   25.4186  -19.9158  -19.1890 O   0  0  0  0  0  0  0  0  0  0  0  0
   23.2846  -19.9623  -19.8389 O   0  0  0  0  0  0  0  0  0  0  0  0
  1  2  1  0
  2  3  2  0
  4  5  1  0
  4  2  1  0
  5  6  1  0
  6  7  1  6
  8 10  1  0
  8  6  1  0
  9  8  2  0
 11 10  1  0
 12 13  1  0
 11 12  1  6
 13 17  1  0
 14 15  1  0
 14 13  2  0
 15 16  1  0
 16 17  2  0
 18 11  1  0
 18 19  2  0
 20 18  1  0
 21 20  1  0
 21 27  1  0
 21 22  1  6
 23 22  1  0
 24 23  1  0
 25 24  1  0
 26 25  1  0
 27 28  2  0
 27 29  1  0
M  END
$$$$
