FMR.pdb
     RDKit          3D

 31 31  0  0  1  0  0  0  0  0999 V2000
   22.2536  -20.3002  -15.4799 N   0  0  0  0  0  0  0  0  0  0  0  0
   22.3237  -21.3895  -14.5261 C   0  0  1  0  0  0  0  0  0  0  0  0
   23.5437  -21.2942  -13.6422 C   0  0  0  0  0  0  0  0  0  0  0  0
   24.8026  -21.3350  -14.4226 C   0  0  0  0  0  0  0  0  0  0  0  0
   25.5185  -20.1622  -14.5337 C   0  0  0  0  0  0  0  0  0  0  0  0
   26.6881  -20.1059  -15.2331 C   0  0  0  0  0  0  0  0  0  0  0  0
   27.1686  -21.2474  -15.8445 C   0  0  0  0  0  0  0  0  0  0  0  0
   26.4549  -22.4108  -15.7321 C   0  0  0  0  0  0  0  0  0  0  0  0
   25.2761  -22.4770  -15.0300 C   0  0  0  0  0  0  0  0  0  0  0  0
   21.1471  -21.4381  -13.6400 C   0  0  0  0  0  0  0  0  0  0  0  0
   20.7294  -20.3805  -13.1331 O   0  0  0  0  0  0  0  0  0  0  0  0
   16.3212  -23.4325  -15.7947 C   0  0  0  0  0  0  0  0  0  0  0  0
   15.6962  -22.2687  -14.5643 S   0  0  0  0  0  0  0  0  0  0  0  0
   16.9857  -21.9438  -13.3280 C   0  0  0  0  0  0  0  0  0  0  0  0
   18.1143  -22.8971  -13.5430 C   0  0  0  0  0  0  0  0  0  0  0  0
   19.2537  -22.6124  -12.6030 C   0  0  2  0  0  0  0  0  0  0  0  0
   20.5070  -22.6420  -13.3687 N   0  0  0  0  0  0  0  0  0  0  0  0
   19.3751  -23.7325  -11.6373 C   0  0  0  0  0  0  0  0  0  0  0  0
   20.0281  -24.7556  -12.0018 O   0  0  0  0  0  0  0  0  0  0  0  0
   16.3392  -24.8488   -3.4564 N   0  0  0  0  0  0  0  0  0  0  0  0
   16.0210  -24.0797   -4.5930 C   0  0  0  0  0  0  0  0  0  0  0  0
   15.2443  -23.0432   -4.5467 N   0  0  0  0  0  0  0  0  0  0  0  0
   16.5881  -24.4747   -5.8347 N   0  0  0  0  0  0  0  0  0  0  0  0
   17.9396  -25.0716   -5.7888 C   0  0  0  0  0  0  0  0  0  0  0  0
   18.2308  -25.5544   -7.1517 C   0  0  0  0  0  0  0  0  0  0  0  0
   18.5048  -24.5354   -8.1572 C   0  0  0  0  0  0  0  0  0  0  0  0
   18.8945  -24.9516   -9.5227 C   0  0  2  0  0  0  0  0  0  0  0  0
   18.8164  -23.7052  -10.3628 N   0  0  0  0  0  0  0  0  0  0  0  0
   18.1840  -25.9740  -10.2406 C   0  0  0  0  0  0  0  0  0  0  0  0
   17.1613  -25.7623  -10.9201 O   0  0  0  0  0  0  0  0  0  0  0  0
   18.6182  -27.3048  -10.2147 O   0  0  0  0  0  0  0  0  0  0  0  0
  2  1  1  6
  2  3  1  0
  3  4  1  0
  4  9  2  0
  4  5  1  0
  5  6  2  0
  6  7  1  0
  8  7  2  0
  9  8  1  0
 10  2  1  0
 10 17  1  0
 11 10  2  0
 12 13  1  0
 13 14  1  0
 16 15  1  6
 15 14  1  0
 16 17  1  0
 18 16  1  0
 19 18  2  0
 20 21  1  0
 21 22  2  0
 23 21  1  0
 24 23  1  0
 24 25  1  0
 25 26  1  0
 27 28  1  0
 27 26  1  1
 28 18  1  0
 29 27  1  0
 30 29  2  0
 31 29  1  0
M  END
$$$$
