FMR.pdb
     RDKit          3D

 31 31  0  0  1  0  0  0  0  0999 V2000
   18.4866  -29.5734   -9.5518 N   0  0  0  0  0  0  0  0  0  0  0  0
   19.2719  -28.5516  -10.2155 C   0  0  1  0  0  0  0  0  0  0  0  0
   20.3713  -29.1413  -11.0655 C   0  0  0  0  0  0  0  0  0  0  0  0
   21.3606  -29.8909  -10.2564 C   0  0  0  0  0  0  0  0  0  0  0  0
   22.4086  -29.1775   -9.7150 C   0  0  0  0  0  0  0  0  0  0  0  0
   23.3664  -29.7845   -8.9570 C   0  0  0  0  0  0  0  0  0  0  0  0
   23.2873  -31.1438   -8.7249 C   0  0  0  0  0  0  0  0  0  0  0  0
   22.2449  -31.8495   -9.2642 C   0  0  0  0  0  0  0  0  0  0  0  0
   21.2759  -31.2467  -10.0287 C   0  0  0  0  0  0  0  0  0  0  0  0
   18.4544  -27.6958  -11.0938 C   0  0  0  0  0  0  0  0  0  0  0  0
   17.7172  -28.2314  -11.9420 O   0  0  0  0  0  0  0  0  0  0  0  0
   14.3635  -24.4255   -8.9777 C   0  0  0  0  0  0  0  0  0  0  0  0
   14.1786  -23.6222  -10.5838 S   0  0  0  0  0  0  0  0  0  0  0  0
   15.4870  -24.1982  -11.7033 C   0  0  0  0  0  0  0  0  0  0  0  0
   16.4637  -25.0172  -10.9262 C   0  0  0  0  0  0  0  0  0  0  0  0
   17.5797  -25.5121  -11.8051 C   0  0  2  0  0  0  0  0  0  0  0  0
   18.4995  -26.3107  -10.9839 N   0  0  0  0  0  0  0  0  0  0  0  0
   18.3881  -24.3533  -12.2585 C   0  0  0  0  0  0  0  0  0  0  0  0
   19.1991  -23.8414  -11.4301 O   0  0  0  0  0  0  0  0  0  0  0  0
   24.1090  -22.2452  -15.5881 N   0  0  0  0  0  0  0  0  0  0  0  0
   24.4016  -23.6114  -15.4084 C   0  0  0  0  0  0  0  0  0  0  0  0
   25.5843  -24.0436  -15.1016 N   0  0  0  0  0  0  0  0  0  0  0  0
   23.3384  -24.5396  -15.5749 N   0  0  0  0  0  0  0  0  0  0  0  0
   22.0466  -23.9942  -16.0425 C   0  0  0  0  0  0  0  0  0  0  0  0
   21.3193  -23.5496  -14.8388 C   0  0  0  0  0  0  0  0  0  0  0  0
   19.9688  -23.0423  -15.0461 C   0  0  0  0  0  0  0  0  0  0  0  0
   19.1626  -22.6292  -13.8760 C   0  0  2  0  0  0  0  0  0  0  0  0
   18.3007  -23.8163  -13.5396 N   0  0  0  0  0  0  0  0  0  0  0  0
   18.2899  -21.4880  -13.9153 C   0  0  0  0  0  0  0  0  0  0  0  0
   17.0639  -21.5584  -14.1260 O   0  0  0  0  0  0  0  0  0  0  0  0
   18.7869  -20.1952  -13.7111 O   0  0  0  0  0  0  0  0  0  0  0  0
  2  1  1  6
  2  3  1  0
  3  4  1  0
  4  9  2  0
  4  5  1  0
  5  6  2  0
  6  7  1  0
  8  7  2  0
  9  8  1  0
 10  2  1  0
 10 17  1  0
 11 10  2  0
 12 13  1  0
 13 14  1  0
 16 15  1  1
 15 14  1  0
 16 17  1  0
 18 16  1  0
 19 18  2  0
 20 21  1  0
 21 22  2  0
 23 21  1  0
 24 23  1  0
 24 25  1  0
 25 26  1  0
 27 28  1  0
 27 26  1  6
 28 18  1  0
 29 27  1  0
 30 29  2  0
 31 29  1  0
M  END
$$$$
