FMR.pdb
     RDKit          3D

 31 31  0  0  1  0  0  0  0  0999 V2000
   26.9671  -17.0969  -14.4849 N   0  0  0  0  0  0  0  0  0  0  0  0
   26.7549  -18.3009  -15.2639 C   0  0  1  0  0  0  0  0  0  0  0  0
   28.0087  -18.7450  -15.9778 C   0  0  0  0  0  0  0  0  0  0  0  0
   28.4625  -17.7510  -16.9786 C   0  0  0  0  0  0  0  0  0  0  0  0
   27.5092  -17.2152  -17.8180 C   0  0  0  0  0  0  0  0  0  0  0  0
   27.8357  -16.2941  -18.7696 C   0  0  0  0  0  0  0  0  0  0  0  0
   29.1494  -15.8872  -18.8974 C   0  0  0  0  0  0  0  0  0  0  0  0
   30.0938  -16.4215  -18.0618 C   0  0  0  0  0  0  0  0  0  0  0  0
   29.7744  -17.3496  -17.1008 C   0  0  0  0  0  0  0  0  0  0  0  0
   26.3007  -19.4332  -14.4370 C   0  0  0  0  0  0  0  0  0  0  0  0
   26.3538  -20.5841  -14.9086 O   0  0  0  0  0  0  0  0  0  0  0  0
   26.5741  -19.4878   -8.2515 C   0  0  0  0  0  0  0  0  0  0  0  0
   25.5642  -20.9801   -8.3620 S   0  0  0  0  0  0  0  0  0  0  0  0
   25.1497  -21.3036  -10.0999 C   0  0  0  0  0  0  0  0  0  0  0  0
   25.6702  -20.1837  -10.9387 C   0  0  0  0  0  0  0  0  0  0  0  0
   25.3326  -20.3886  -12.3903 C   0  0  2  0  0  0  0  0  0  0  0  0
   25.8189  -19.2286  -13.1492 N   0  0  0  0  0  0  0  0  0  0  0  0
   23.8581  -20.3546  -12.5530 C   0  0  0  0  0  0  0  0  0  0  0  0
   23.3034  -19.2199  -12.6569 O   0  0  0  0  0  0  0  0  0  0  0  0
   18.6132  -26.5986  -14.7828 N   0  0  0  0  0  0  0  0  0  0  0  0
   19.7519  -25.9205  -15.2605 C   0  0  0  0  0  0  0  0  0  0  0  0
   20.5082  -26.3914  -16.2018 N   0  0  0  0  0  0  0  0  0  0  0  0
   20.0665  -24.6663  -14.6710 N   0  0  0  0  0  0  0  0  0  0  0  0
   19.1495  -24.1766  -13.6202 C   0  0  0  0  0  0  0  0  0  0  0  0
   19.6098  -22.8223  -13.2605 C   0  0  0  0  0  0  0  0  0  0  0  0
   21.0496  -22.6398  -13.1266 C   0  0  0  0  0  0  0  0  0  0  0  0
   21.5746  -21.3353  -12.6655 C   0  0  2  0  0  0  0  0  0  0  0  0
   23.0693  -21.5003  -12.6034 N   0  0  0  0  0  0  0  0  0  0  0  0
   21.1751  -20.7511  -11.4147 C   0  0  0  0  0  0  0  0  0  0  0  0
   21.7020  -21.0271  -10.3198 O   0  0  0  0  0  0  0  0  0  0  0  0
   20.1403  -19.8098  -11.3585 O   0  0  0  0  0  0  0  0  0  0  0  0
  2  1  1  1
  2  3  1  0
  3  4  1  0
  4  9  2  0
  4  5  1  0
  5  6  2  0
  6  7  1  0
  8  7  2  0
  9  8  1  0
 10  2  1  0
 10 17  1  0
 11 10  2  0
 12 13  1  0
 13 14  1  0
 16 15  1  1
 15 14  1  0
 16 17  1  0
 18 16  1  0
 19 18  2  0
 20 21  1  0
 21 22  2  0
 23 21  1  0
 24 23  1  0
 24 25  1  0
 25 26  1  0
 27 28  1  0
 27 26  1  1
 28 18  1  0
 29 27  1  0
 30 29  2  0
 31 29  1  0
M  END
$$$$
