FMR.pdb
     RDKit          3D

 31 31  0  0  1  0  0  0  0  0999 V2000
   12.4153   -5.6366   -9.2085 N   0  0  0  0  0  0  0  0  0  0  0  0
   13.6847   -5.7967   -8.5270 C   0  0  1  0  0  0  0  0  0  0  0  0
   13.7907   -7.1302   -7.8275 C   0  0  0  0  0  0  0  0  0  0  0  0
   12.7117   -7.3247   -6.8308 C   0  0  0  0  0  0  0  0  0  0  0  0
   12.7731   -6.5757   -5.6751 C   0  0  0  0  0  0  0  0  0  0  0  0
   11.8237   -6.6890   -4.7023 C   0  0  0  0  0  0  0  0  0  0  0  0
   10.7765   -7.5727   -4.8761 C   0  0  0  0  0  0  0  0  0  0  0  0
   10.7186   -8.3152   -6.0254 C   0  0  0  0  0  0  0  0  0  0  0  0
   11.6701   -8.2078   -7.0103 C   0  0  0  0  0  0  0  0  0  0  0  0
   14.8329   -5.6945   -9.4452 C   0  0  0  0  0  0  0  0  0  0  0  0
   14.6786   -6.0040  -10.6411 O   0  0  0  0  0  0  0  0  0  0  0  0
   16.8710    0.3678   -7.8728 C   0  0  0  0  0  0  0  0  0  0  0  0
   17.9168   -1.0525   -8.2576 S   0  0  0  0  0  0  0  0  0  0  0  0
   16.9187   -2.3398   -9.0598 C   0  0  0  0  0  0  0  0  0  0  0  0
   17.7617   -3.5567   -9.2524 C   0  0  0  0  0  0  0  0  0  0  0  0
   16.9953   -4.6440   -9.9549 C   0  0  2  0  0  0  0  0  0  0  0  0
   16.0731   -5.2600   -8.9915 N   0  0  0  0  0  0  0  0  0  0  0  0
   17.9326   -5.7320  -10.3286 C   0  0  0  0  0  0  0  0  0  0  0  0
   18.4485   -6.4120   -9.3918 O   0  0  0  0  0  0  0  0  0  0  0  0
   19.1377  -12.4344  -14.4570 N   0  0  0  0  0  0  0  0  0  0  0  0
   17.8441  -11.9389  -14.2007 C   0  0  0  0  0  0  0  0  0  0  0  0
   16.8355  -12.7083  -13.9352 N   0  0  0  0  0  0  0  0  0  0  0  0
   17.6592  -10.5305  -14.2392 N   0  0  0  0  0  0  0  0  0  0  0  0
   18.7895   -9.7250  -14.7479 C   0  0  0  0  0  0  0  0  0  0  0  0
   19.3892   -9.0583  -13.5768 C   0  0  0  0  0  0  0  0  0  0  0  0
   18.6231   -7.9674  -12.9874 C   0  0  0  0  0  0  0  0  0  0  0  0
   19.2242   -7.1660  -11.8983 C   0  0  2  0  0  0  0  0  0  0  0  0
   18.2595   -6.0386  -11.6463 N   0  0  0  0  0  0  0  0  0  0  0  0
   20.5268   -6.5707  -12.0187 C   0  0  0  0  0  0  0  0  0  0  0  0
   21.5848   -7.1444  -11.6964 O   0  0  0  0  0  0  0  0  0  0  0  0
   20.6808   -5.2733  -12.5217 O   0  0  0  0  0  0  0  0  0  0  0  0
  2  1  1  6
  2  3  1  0
  3  4  1  0
  4  9  2  0
  4  5  1  0
  5  6  2  0
  6  7  1  0
  8  7  2  0
  9  8  1  0
 10  2  1  0
 10 17  1  0
 11 10  2  0
 12 13  1  0
 13 14  1  0
 16 15  1  1
 15 14  1  0
 16 17  1  0
 18 16  1  0
 19 18  2  0
 20 21  1  0
 21 22  2  0
 23 21  1  0
 24 23  1  0
 24 25  1  0
 25 26  1  0
 27 28  1  0
 27 26  1  6
 28 18  1  0
 29 27  1  0
 30 29  2  0
 31 29  1  0
M  END
$$$$
