FMR.pdb
     RDKit          3D

 31 31  0  0  1  0  0  0  0  0999 V2000
   27.7850  -21.2450  -15.3492 N   0  0  0  0  0  0  0  0  0  0  0  0
   27.5876  -20.3097  -14.2594 C   0  0  1  0  0  0  0  0  0  0  0  0
   26.8596  -19.0640  -14.7035 C   0  0  0  0  0  0  0  0  0  0  0  0
   27.6864  -18.2253  -15.6026 C   0  0  0  0  0  0  0  0  0  0  0  0
   28.9638  -18.6623  -15.8812 C   0  0  0  0  0  0  0  0  0  0  0  0
   29.7958  -17.9546  -16.6981 C   0  0  0  0  0  0  0  0  0  0  0  0
   29.3515  -16.7737  -17.2602 C   0  0  0  0  0  0  0  0  0  0  0  0
   28.0820  -16.3425  -16.9813 C   0  0  0  0  0  0  0  0  0  0  0  0
   27.2372  -17.0485  -16.1599 C   0  0  0  0  0  0  0  0  0  0  0  0
   26.8134  -20.8940  -13.1498 C   0  0  0  0  0  0  0  0  0  0  0  0
   26.0964  -21.8872  -13.3718 O   0  0  0  0  0  0  0  0  0  0  0  0
   28.0320  -20.1014   -6.9160 C   0  0  0  0  0  0  0  0  0  0  0  0
   26.2371  -20.2616   -6.8079 S   0  0  0  0  0  0  0  0  0  0  0  0
   25.5868  -20.8687   -8.3907 C   0  0  0  0  0  0  0  0  0  0  0  0
   26.4734  -20.3925   -9.4934 C   0  0  0  0  0  0  0  0  0  0  0  0
   26.0133  -20.9166  -10.8263 C   0  0  2  0  0  0  0  0  0  0  0  0
   26.8766  -20.3509  -11.8717 N   0  0  0  0  0  0  0  0  0  0  0  0
   24.6629  -20.3754  -11.1185 C   0  0  0  0  0  0  0  0  0  0  0  0
   24.5843  -19.1783  -11.5268 O   0  0  0  0  0  0  0  0  0  0  0  0
   20.1855  -20.5816  -17.6556 N   0  0  0  0  0  0  0  0  0  0  0  0
   21.3052  -19.8110  -17.2856 C   0  0  0  0  0  0  0  0  0  0  0  0
   21.9489  -19.0581  -18.1214 N   0  0  0  0  0  0  0  0  0  0  0  0
   21.7304  -19.8760  -15.9311 N   0  0  0  0  0  0  0  0  0  0  0  0
   20.9164  -20.7053  -15.0176 C   0  0  0  0  0  0  0  0  0  0  0  0
   21.0739  -20.1235  -13.6714 C   0  0  0  0  0  0  0  0  0  0  0  0
   22.2411  -20.5520  -12.9110 C   0  0  0  0  0  0  0  0  0  0  0  0
   22.1987  -20.5076  -11.4325 C   0  0  2  0  0  0  0  0  0  0  0  0
   23.4950  -21.1183  -10.9724 N   0  0  0  0  0  0  0  0  0  0  0  0
   21.1550  -21.1475  -10.6796 C   0  0  0  0  0  0  0  0  0  0  0  0
   21.3379  -22.1306   -9.9362 O   0  0  0  0  0  0  0  0  0  0  0  0
   19.8352  -20.6846  -10.7428 O   0  0  0  0  0  0  0  0  0  0  0  0
  2  1  1  6
  2  3  1  0
  3  4  1  0
  4  9  2  0
  4  5  1  0
  5  6  2  0
  6  7  1  0
  8  7  2  0
  9  8  1  0
 10  2  1  0
 10 17  1  0
 11 10  2  0
 12 13  1  0
 13 14  1  0
 16 15  1  1
 15 14  1  0
 16 17  1  0
 18 16  1  0
 19 18  2  0
 20 21  1  0
 21 22  2  0
 23 21  1  0
 24 23  1  0
 24 25  1  0
 25 26  1  0
 27 28  1  0
 27 26  1  6
 28 18  1  0
 29 27  1  0
 30 29  2  0
 31 29  1  0
M  END
$$$$
