FMR.pdb
     RDKit          3D

 31 31  0  0  1  0  0  0  0  0999 V2000
   26.9329  -18.8521   -9.5569 N   0  0  0  0  0  0  0  0  0  0  0  0
   26.2965  -20.1535   -9.6102 C   0  0  1  0  0  0  0  0  0  0  0  0
   26.0690  -20.7323   -8.2347 C   0  0  0  0  0  0  0  0  0  0  0  0
   27.1605  -20.3837   -7.2952 C   0  0  0  0  0  0  0  0  0  0  0  0
   28.2106  -21.2701   -7.1857 C   0  0  0  0  0  0  0  0  0  0  0  0
   29.2586  -21.0317   -6.3458 C   0  0  0  0  0  0  0  0  0  0  0  0
   29.2709  -19.8776   -5.5872 C   0  0  0  0  0  0  0  0  0  0  0  0
   28.2262  -18.9991   -5.6985 C   0  0  0  0  0  0  0  0  0  0  0  0
   27.1667  -19.2309   -6.5415 C   0  0  0  0  0  0  0  0  0  0  0  0
   24.9879  -20.1125  -10.2869 C   0  0  0  0  0  0  0  0  0  0  0  0
   24.1336  -19.2941   -9.8993 O   0  0  0  0  0  0  0  0  0  0  0  0
   22.3654  -20.1746  -17.5123 C   0  0  0  0  0  0  0  0  0  0  0  0
   23.6724  -20.5291  -16.3184 S   0  0  0  0  0  0  0  0  0  0  0  0
   23.0150  -20.3642  -14.6339 C   0  0  0  0  0  0  0  0  0  0  0  0
   24.1111  -20.6357  -13.6574 C   0  0  0  0  0  0  0  0  0  0  0  0
   23.5949  -20.6292  -12.2444 C   0  0  2  0  0  0  0  0  0  0  0  0
   24.7032  -20.9709  -11.3427 N   0  0  0  0  0  0  0  0  0  0  0  0
   22.6204  -21.7362  -12.0807 C   0  0  0  0  0  0  0  0  0  0  0  0
   23.0745  -22.9186  -12.0385 O   0  0  0  0  0  0  0  0  0  0  0  0
   15.9356  -23.8535   -9.5940 N   0  0  0  0  0  0  0  0  0  0  0  0
   16.4394  -24.9542   -8.8734 C   0  0  0  0  0  0  0  0  0  0  0  0
   15.8011  -26.0770   -8.7660 N   0  0  0  0  0  0  0  0  0  0  0  0
   17.7054  -24.8057   -8.2452 N   0  0  0  0  0  0  0  0  0  0  0  0
   18.4600  -23.5724   -8.5528 C   0  0  0  0  0  0  0  0  0  0  0  0
   18.9702  -23.7257   -9.9282 C   0  0  0  0  0  0  0  0  0  0  0  0
   19.8203  -22.6529  -10.4290 C   0  0  0  0  0  0  0  0  0  0  0  0
   20.3606  -22.7389  -11.8040 C   0  0  2  0  0  0  0  0  0  0  0  0
   21.2481  -21.5342  -11.9655 N   0  0  0  0  0  0  0  0  0  0  0  0
   19.5058  -22.7751  -12.9588 C   0  0  0  0  0  0  0  0  0  0  0  0
   19.3057  -23.7972  -13.6427 O   0  0  0  0  0  0  0  0  0  0  0  0
   18.8300  -21.6272  -13.3895 O   0  0  0  0  0  0  0  0  0  0  0  0
  2  1  1  1
  2  3  1  0
  3  4  1  0
  4  9  2  0
  4  5  1  0
  5  6  2  0
  6  7  1  0
  8  7  2  0
  9  8  1  0
 10  2  1  0
 10 17  1  0
 11 10  2  0
 12 13  1  0
 13 14  1  0
 16 15  1  6
 15 14  1  0
 16 17  1  0
 18 16  1  0
 19 18  2  0
 20 21  1  0
 21 22  2  0
 23 21  1  0
 24 23  1  0
 24 25  1  0
 25 26  1  0
 27 28  1  0
 27 26  1  1
 28 18  1  0
 29 27  1  0
 30 29  2  0
 31 29  1  0
M  END
$$$$
