SDL.pdb
     RDKit          3D

 23 22  0  0  1  0  0  0  0  0999 V2000
    7.8373  -12.3499   20.1363 O   0  0  0  0  0  0  0  0  0  0  0  0
    8.8399  -12.8065   19.2904 C   0  0  0  0  0  0  0  0  0  0  0  0
    8.6630  -14.2623   18.9471 C   0  0  2  0  0  0  0  0  0  0  0  0
    7.4709  -14.4533   18.1459 N   0  0  0  0  0  0  0  0  0  0  0  0
    8.5714  -15.1578   20.1078 C   0  0  0  0  0  0  0  0  0  0  0  0
    7.4475  -15.6523   20.4358 O   0  0  0  0  0  0  0  0  0  0  0  0
    9.6572  -15.5331   20.9225 N   0  0  0  0  0  0  0  0  0  0  0  0
    9.5375  -16.4868   22.0511 C   0  0  1  0  0  0  0  0  0  0  0  0
   10.7503  -17.3328   22.1063 C   0  0  0  0  0  0  0  0  0  0  0  0
   10.8504  -18.3523   23.1313 C   0  0  0  0  0  0  0  0  0  0  0  0
    9.9567  -18.6439   23.9320 O   0  0  0  0  0  0  0  0  0  0  0  0
    9.4516  -15.5561   23.2358 C   0  0  0  0  0  0  0  0  0  0  0  0
   10.3228  -14.6160   23.3461 O   0  0  0  0  0  0  0  0  0  0  0  0
   12.0358  -19.1097   23.2817 O   0  0  0  0  0  0  0  0  0  0  0  0
    5.7499  -12.4832   26.8100 C   0  0  0  0  0  0  0  0  0  0  0  0
    7.1963  -12.8852   26.5196 C   0  0  2  0  0  0  0  0  0  0  0  0
    8.0168  -11.6677   26.2808 C   0  0  0  0  0  0  0  0  0  0  0  0
    7.2214  -13.8944   25.4123 C   0  0  0  0  0  0  0  0  0  0  0  0
    8.5362  -14.6429   25.3498 C   0  0  2  0  0  0  0  0  0  0  0  0
    8.5005  -15.5997   24.2524 N   0  0  0  0  0  0  0  0  0  0  0  0
    8.7844  -15.4051   26.5949 C   0  0  0  0  0  0  0  0  0  0  0  0
    9.4739  -14.9224   27.6917 O   0  0  0  0  0  0  0  0  0  0  0  0
    8.3485  -16.5776   26.6850 O   0  0  0  0  0  0  0  0  0  0  0  0
  2  1  1  0
  3  4  1  1
  3  2  1  0
  5  6  2  0
  5  3  1  0
  7  5  1  0
  8  7  1  0
  8 12  1  0
  8  9  1  1
 10  9  1  0
 10 14  1  0
 11 10  2  0
 12 20  1  0
 13 12  2  0
 16 15  1  6
 16 17  1  0
 18 16  1  0
 19 18  1  1
 20 19  1  0
 21 22  1  0
 21 19  1  0
 23 21  2  0
M  END
$$$$
