SDL.pdb
     RDKit          3D

 23 22  0  0  1  0  0  0  0  0999 V2000
    7.6390  -12.8682   21.6053 O   0  0  0  0  0  0  0  0  0  0  0  0
    7.9202  -13.1935   20.2846 C   0  0  0  0  0  0  0  0  0  0  0  0
    7.7632  -14.6689   20.0256 C   0  0  2  0  0  0  0  0  0  0  0  0
    6.3788  -14.9896   19.7424 N   0  0  0  0  0  0  0  0  0  0  0  0
    8.2078  -15.5339   21.1263 C   0  0  0  0  0  0  0  0  0  0  0  0
    7.3899  -16.3483   21.6584 O   0  0  0  0  0  0  0  0  0  0  0  0
    9.5080  -15.5437   21.6675 N   0  0  0  0  0  0  0  0  0  0  0  0
    9.9984  -16.5950   22.5905 C   0  0  1  0  0  0  0  0  0  0  0  0
   11.3368  -17.0467   22.1494 C   0  0  0  0  0  0  0  0  0  0  0  0
   12.0776  -17.9706   22.9845 C   0  0  0  0  0  0  0  0  0  0  0  0
   11.6268  -19.0192   23.4560 O   0  0  0  0  0  0  0  0  0  0  0  0
   10.0644  -15.8506   23.9015 C   0  0  0  0  0  0  0  0  0  0  0  0
   10.4827  -16.4756   24.9452 O   0  0  0  0  0  0  0  0  0  0  0  0
   13.4263  -17.7124   23.3250 O   0  0  0  0  0  0  0  0  0  0  0  0
    5.6524  -12.6244   26.0649 C   0  0  0  0  0  0  0  0  0  0  0  0
    7.0844  -13.0579   26.3803 C   0  0  2  0  0  0  0  0  0  0  0  0
    7.7718  -11.9913   27.1564 C   0  0  0  0  0  0  0  0  0  0  0  0
    7.7734  -13.4649   25.1134 C   0  0  0  0  0  0  0  0  0  0  0  0
    9.1269  -14.0916   25.3738 C   0  0  2  0  0  0  0  0  0  0  0  0
    9.7170  -14.5185   24.1126 N   0  0  0  0  0  0  0  0  0  0  0  0
    9.0113  -15.2891   26.2373 C   0  0  0  0  0  0  0  0  0  0  0  0
    9.5434  -15.4000   27.5084 O   0  0  0  0  0  0  0  0  0  0  0  0
    8.3912  -16.2901   25.8056 O   0  0  0  0  0  0  0  0  0  0  0  0
  2  1  1  0
  3  4  1  1
  3  2  1  0
  5  6  2  0
  5  3  1  0
  7  5  1  0
  8  7  1  0
  8 12  1  0
  8  9  1  6
 10  9  1  0
 10 14  1  0
 11 10  2  0
 12 20  1  0
 13 12  2  0
 16 15  1  6
 16 17  1  0
 18 16  1  0
 19 18  1  6
 20 19  1  0
 21 22  1  0
 21 19  1  0
 23 21  2  0
M  END
$$$$
