SDL.pdb
     RDKit          3D

 23 22  0  0  1  0  0  0  0  0999 V2000
    7.8492  -14.0806   17.2880 O   0  0  0  0  0  0  0  0  0  0  0  0
    7.6643  -12.9145   18.0196 C   0  0  0  0  0  0  0  0  0  0  0  0
    8.4805  -12.9122   19.2854 C   0  0  2  0  0  0  0  0  0  0  0  0
    9.8924  -13.0220   18.9786 N   0  0  0  0  0  0  0  0  0  0  0  0
    8.1429  -13.9826   20.2328 C   0  0  0  0  0  0  0  0  0  0  0  0
    6.9429  -14.1194   20.6287 O   0  0  0  0  0  0  0  0  0  0  0  0
    9.0631  -14.9073   20.7638 N   0  0  0  0  0  0  0  0  0  0  0  0
    8.6745  -16.0150   21.6692 C   0  0  1  0  0  0  0  0  0  0  0  0
    9.5964  -17.1551   21.4696 C   0  0  0  0  0  0  0  0  0  0  0  0
    9.5905  -18.2405   22.4298 C   0  0  0  0  0  0  0  0  0  0  0  0
    8.5841  -18.6905   22.9862 O   0  0  0  0  0  0  0  0  0  0  0  0
    8.8543  -15.3827   23.0276 C   0  0  0  0  0  0  0  0  0  0  0  0
    9.9514  -14.7592   23.2773 O   0  0  0  0  0  0  0  0  0  0  0  0
   10.7963  -18.8789   22.8040 O   0  0  0  0  0  0  0  0  0  0  0  0
    5.7699  -12.2260   27.0980 C   0  0  0  0  0  0  0  0  0  0  0  0
    7.1041  -12.8972   26.7704 C   0  0  2  0  0  0  0  0  0  0  0  0
    8.1868  -11.8775   26.7505 C   0  0  0  0  0  0  0  0  0  0  0  0
    6.9641  -13.6986   25.5120 C   0  0  0  0  0  0  0  0  0  0  0  0
    8.1556  -14.6020   25.2732 C   0  0  2  0  0  0  0  0  0  0  0  0
    7.9330  -15.3949   24.0720 N   0  0  0  0  0  0  0  0  0  0  0  0
    8.3528  -15.5456   26.3974 C   0  0  0  0  0  0  0  0  0  0  0  0
    9.1909  -15.3258   27.4746 O   0  0  0  0  0  0  0  0  0  0  0  0
    7.7257  -16.6317   26.3942 O   0  0  0  0  0  0  0  0  0  0  0  0
  2  1  1  0
  3  4  1  6
  3  2  1  0
  5  6  2  0
  5  3  1  0
  7  5  1  0
  8  7  1  0
  8 12  1  0
  8  9  1  1
 10  9  1  0
 10 14  1  0
 11 10  2  0
 12 20  1  0
 13 12  2  0
 16 15  1  6
 16 17  1  0
 18 16  1  0
 19 18  1  1
 20 19  1  0
 21 22  1  0
 21 19  1  0
 23 21  2  0
M  END
$$$$
