SDL.pdb
     RDKit          3D

 23 22  0  0  1  0  0  0  0  0999 V2000
    6.9167  -12.9556   21.8534 O   0  0  0  0  0  0  0  0  0  0  0  0
    7.8857  -12.7176   20.8872 C   0  0  0  0  0  0  0  0  0  0  0  0
    8.2640  -13.9763   20.1516 C   0  0  2  0  0  0  0  0  0  0  0  0
    7.2202  -14.3522   19.2195 N   0  0  0  0  0  0  0  0  0  0  0  0
    8.5311  -15.1333   21.0161 C   0  0  0  0  0  0  0  0  0  0  0  0
    7.8299  -16.1864   20.8951 O   0  0  0  0  0  0  0  0  0  0  0  0
    9.5319  -15.1846   22.0058 N   0  0  0  0  0  0  0  0  0  0  0  0
    9.8863  -16.4211   22.7427 C   0  0  1  0  0  0  0  0  0  0  0  0
   11.3548  -16.6013   22.7165 C   0  0  0  0  0  0  0  0  0  0  0  0
   11.9405  -17.7077   23.4466 C   0  0  0  0  0  0  0  0  0  0  0  0
   11.4033  -18.8055   23.6230 O   0  0  0  0  0  0  0  0  0  0  0  0
    9.3869  -16.1080   24.1319 C   0  0  0  0  0  0  0  0  0  0  0  0
    8.7227  -17.0089   24.7661 O   0  0  0  0  0  0  0  0  0  0  0  0
   13.2247  -17.5885   24.0282 O   0  0  0  0  0  0  0  0  0  0  0  0
    8.0702  -12.0177   26.2955 C   0  0  0  0  0  0  0  0  0  0  0  0
    7.3014  -13.0729   25.4996 C   0  0  2  0  0  0  0  0  0  0  0  0
    5.8674  -12.6878   25.4109 C   0  0  0  0  0  0  0  0  0  0  0  0
    7.5596  -14.4272   26.0865 C   0  0  0  0  0  0  0  0  0  0  0  0
    9.0382  -14.7425   26.1701 C   0  0  2  0  0  0  0  0  0  0  0  0
    9.5760  -14.9166   24.8279 N   0  0  0  0  0  0  0  0  0  0  0  0
    9.2817  -16.0007   26.9122 C   0  0  0  0  0  0  0  0  0  0  0  0
    9.8661  -16.0791   28.1626 O   0  0  0  0  0  0  0  0  0  0  0  0
    8.9433  -17.0887   26.3882 O   0  0  0  0  0  0  0  0  0  0  0  0
  2  1  1  0
  3  4  1  6
  3  2  1  0
  5  6  2  0
  5  3  1  0
  7  5  1  0
  8  7  1  0
  8 12  1  0
  8  9  1  1
 10  9  1  0
 10 14  1  0
 11 10  2  0
 12 20  1  0
 13 12  2  0
 16 15  1  1
 16 17  1  0
 18 16  1  0
 19 18  1  6
 20 19  1  0
 21 22  1  0
 21 19  1  0
 23 21  2  0
M  END
$$$$
