SDL.pdb
     RDKit          3D

 23 22  0  0  1  0  0  0  0  0999 V2000
    7.5412  -14.4515   18.1318 O   0  0  0  0  0  0  0  0  0  0  0  0
    6.9275  -13.5270   18.9673 C   0  0  0  0  0  0  0  0  0  0  0  0
    7.7426  -13.2643   20.2063 C   0  0  2  0  0  0  0  0  0  0  0  0
    9.0778  -12.8271   19.8517 N   0  0  0  0  0  0  0  0  0  0  0  0
    7.8726  -14.4159   21.1086 C   0  0  0  0  0  0  0  0  0  0  0  0
    6.8294  -14.9833   21.5616 O   0  0  0  0  0  0  0  0  0  0  0  0
    9.0950  -14.9707   21.5347 N   0  0  0  0  0  0  0  0  0  0  0  0
    9.1871  -16.1377   22.4442 C   0  0  1  0  0  0  0  0  0  0  0  0
   10.4105  -16.9079   22.1282 C   0  0  0  0  0  0  0  0  0  0  0  0
   10.7504  -18.0545   22.9465 C   0  0  0  0  0  0  0  0  0  0  0  0
   11.7386  -18.1330   23.6829 O   0  0  0  0  0  0  0  0  0  0  0  0
    9.2802  -15.4714   23.7950 C   0  0  0  0  0  0  0  0  0  0  0  0
   10.2673  -14.6793   24.0253 O   0  0  0  0  0  0  0  0  0  0  0  0
    9.9299  -19.2070   22.9494 O   0  0  0  0  0  0  0  0  0  0  0  0
    8.2479  -11.9785   26.0687 C   0  0  0  0  0  0  0  0  0  0  0  0
    7.1395  -12.9900   25.7751 C   0  0  2  0  0  0  0  0  0  0  0  0
    5.8115  -12.3530   25.9825 C   0  0  0  0  0  0  0  0  0  0  0  0
    7.3769  -14.2363   26.5725 C   0  0  0  0  0  0  0  0  0  0  0  0
    8.6268  -14.9685   26.1319 C   0  0  2  0  0  0  0  0  0  0  0  0
    8.3848  -15.6191   24.8516 N   0  0  0  0  0  0  0  0  0  0  0  0
    9.0060  -16.0226   27.1004 C   0  0  0  0  0  0  0  0  0  0  0  0
    9.0152  -17.3780   26.8285 O   0  0  0  0  0  0  0  0  0  0  0  0
    9.3460  -15.6865   28.2599 O   0  0  0  0  0  0  0  0  0  0  0  0
  2  1  1  0
  3  4  1  6
  3  2  1  0
  5  6  2  0
  5  3  1  0
  7  5  1  0
  8  7  1  0
  8 12  1  0
  8  9  1  6
 10  9  1  0
 10 14  1  0
 11 10  2  0
 12 20  1  0
 13 12  2  0
 16 15  1  1
 16 17  1  0
 18 16  1  0
 19 18  1  1
 20 19  1  0
 21 22  1  0
 21 19  1  0
 23 21  2  0
M  END
$$$$
