SDL.pdb
     RDKit          3D

 23 22  0  0  1  0  0  0  0  0999 V2000
    9.6846  -11.8033   18.3297 O   0  0  0  0  0  0  0  0  0  0  0  0
    9.1858  -12.5554   19.3855 C   0  0  0  0  0  0  0  0  0  0  0  0
    8.7703  -13.9341   18.9437 C   0  0  2  0  0  0  0  0  0  0  0  0
    7.5880  -13.8643   18.1089 N   0  0  0  0  0  0  0  0  0  0  0  0
    8.4900  -14.8695   20.0409 C   0  0  0  0  0  0  0  0  0  0  0  0
    7.2887  -15.1882   20.3067 O   0  0  0  0  0  0  0  0  0  0  0  0
    9.4685  -15.4688   20.8574 N   0  0  0  0  0  0  0  0  0  0  0  0
    9.1486  -16.4240   21.9450 C   0  0  1  0  0  0  0  0  0  0  0  0
   10.2104  -17.4519   22.0204 C   0  0  0  0  0  0  0  0  0  0  0  0
   10.2172  -18.3752   23.1374 C   0  0  0  0  0  0  0  0  0  0  0  0
    9.2123  -18.8824   23.6452 O   0  0  0  0  0  0  0  0  0  0  0  0
    9.1537  -15.5260   23.1578 C   0  0  0  0  0  0  0  0  0  0  0  0
   10.1126  -14.6794   23.2943 O   0  0  0  0  0  0  0  0  0  0  0  0
   11.4350  -18.7681   23.7406 O   0  0  0  0  0  0  0  0  0  0  0  0
    5.6189  -12.6450   27.1583 C   0  0  0  0  0  0  0  0  0  0  0  0
    7.0461  -13.0300   26.7676 C   0  0  2  0  0  0  0  0  0  0  0  0
    7.8812  -11.8049   26.6488 C   0  0  0  0  0  0  0  0  0  0  0  0
    7.0128  -13.8961   25.5453 C   0  0  0  0  0  0  0  0  0  0  0  0
    8.3336  -14.5957   25.3032 C   0  0  2  0  0  0  0  0  0  0  0  0
    8.2027  -15.5075   24.1752 N   0  0  0  0  0  0  0  0  0  0  0  0
    8.7434  -15.3991   26.4778 C   0  0  0  0  0  0  0  0  0  0  0  0
    9.6061  -14.9668   27.4677 O   0  0  0  0  0  0  0  0  0  0  0  0
    8.2891  -16.5611   26.6056 O   0  0  0  0  0  0  0  0  0  0  0  0
  2  1  1  0
  3  4  1  1
  3  2  1  0
  5  6  2  0
  5  3  1  0
  7  5  1  0
  8  7  1  0
  8 12  1  0
  8  9  1  1
 10  9  1  0
 10 14  1  0
 11 10  2  0
 12 20  1  0
 13 12  2  0
 16 15  1  6
 16 17  1  0
 18 16  1  0
 19 18  1  1
 20 19  1  0
 21 22  1  0
 21 19  1  0
 23 21  2  0
M  END
$$$$
