SDL.pdb
     RDKit          3D

 23 22  0  0  1  0  0  0  0  0999 V2000
    8.9853  -12.0721   20.8186 O   0  0  0  0  0  0  0  0  0  0  0  0
    8.0918  -12.3780   19.8001 C   0  0  0  0  0  0  0  0  0  0  0  0
    8.2028  -13.8176   19.3714 C   0  0  2  0  0  0  0  0  0  0  0  0
    7.2518  -14.1078   18.3174 N   0  0  0  0  0  0  0  0  0  0  0  0
    7.9913  -14.7945   20.4477 C   0  0  0  0  0  0  0  0  0  0  0  0
    6.8272  -15.2596   20.6576 O   0  0  0  0  0  0  0  0  0  0  0  0
    8.9993  -15.2818   21.3020 N   0  0  0  0  0  0  0  0  0  0  0  0
    8.7631  -16.3243   22.3292 C   0  0  1  0  0  0  0  0  0  0  0  0
    9.7298  -17.4279   22.1363 C   0  0  0  0  0  0  0  0  0  0  0  0
    9.7044  -18.5526   23.0499 C   0  0  0  0  0  0  0  0  0  0  0  0
   10.6967  -19.1836   23.4266 O   0  0  0  0  0  0  0  0  0  0  0  0
    9.0286  -15.5664   23.6069 C   0  0  0  0  0  0  0  0  0  0  0  0
   10.1613  -14.9732   23.7481 O   0  0  0  0  0  0  0  0  0  0  0  0
    8.4813  -19.0156   23.5896 O   0  0  0  0  0  0  0  0  0  0  0  0
    8.2103  -11.8378   25.3704 C   0  0  0  0  0  0  0  0  0  0  0  0
    7.0464  -12.8200   25.5061 C   0  0  2  0  0  0  0  0  0  0  0  0
    5.8086  -12.0827   25.8760 C   0  0  0  0  0  0  0  0  0  0  0  0
    7.4313  -13.9240   26.4433 C   0  0  0  0  0  0  0  0  0  0  0  0
    8.5737  -14.7594   25.9052 C   0  0  2  0  0  0  0  0  0  0  0  0
    8.1538  -15.4289   24.6819 N   0  0  0  0  0  0  0  0  0  0  0  0
    8.9771  -15.8089   26.8691 C   0  0  0  0  0  0  0  0  0  0  0  0
    9.6563  -15.5765   28.0506 O   0  0  0  0  0  0  0  0  0  0  0  0
    8.6947  -17.0045   26.6168 O   0  0  0  0  0  0  0  0  0  0  0  0
  2  1  1  0
  3  4  1  6
  3  2  1  0
  5  6  2  0
  5  3  1  0
  7  5  1  0
  8  7  1  0
  8 12  1  0
  8  9  1  6
 10  9  1  0
 10 14  1  0
 11 10  2  0
 12 20  1  0
 13 12  2  0
 16 15  1  1
 16 17  1  0
 18 16  1  0
 19 18  1  1
 20 19  1  0
 21 22  1  0
 21 19  1  0
 23 21  2  0
M  END
$$$$
