SDL.pdb
     RDKit          3D

 23 22  0  0  1  0  0  0  0  0999 V2000
   10.1303  -12.3651   20.5035 O   0  0  0  0  0  0  0  0  0  0  0  0
   10.1740  -13.2726   19.4529 C   0  0  0  0  0  0  0  0  0  0  0  0
    8.8356  -13.9224   19.2182 C   0  0  2  0  0  0  0  0  0  0  0  0
    7.8415  -12.9260   18.8735 N   0  0  0  0  0  0  0  0  0  0  0  0
    8.3215  -14.6931   20.3580 C   0  0  0  0  0  0  0  0  0  0  0  0
    7.1925  -14.3977   20.8614 O   0  0  0  0  0  0  0  0  0  0  0  0
    8.9912  -15.7713   20.9683 N   0  0  0  0  0  0  0  0  0  0  0  0
    8.4022  -16.5838   22.0594 C   0  0  1  0  0  0  0  0  0  0  0  0
    9.0714  -17.9029   22.1020 C   0  0  0  0  0  0  0  0  0  0  0  0
    8.6981  -18.8477   23.1355 C   0  0  0  0  0  0  0  0  0  0  0  0
    7.5753  -18.9395   23.6413 O   0  0  0  0  0  0  0  0  0  0  0  0
    8.7287  -15.7526   23.2759 C   0  0  0  0  0  0  0  0  0  0  0  0
    9.9022  -15.2343   23.3719 O   0  0  0  0  0  0  0  0  0  0  0  0
    9.6447  -19.7644   23.6504 O   0  0  0  0  0  0  0  0  0  0  0  0
    5.7751  -12.0374   26.5874 C   0  0  0  0  0  0  0  0  0  0  0  0
    7.1140  -12.5696   26.0756 C   0  0  2  0  0  0  0  0  0  0  0  0
    7.3862  -12.0213   24.7199 C   0  0  0  0  0  0  0  0  0  0  0  0
    7.1258  -14.0650   26.1693 C   0  0  0  0  0  0  0  0  0  0  0  0
    8.3227  -14.6731   25.4691 C   0  0  2  0  0  0  0  0  0  0  0  0
    7.8718  -15.4707   24.3371 N   0  0  0  0  0  0  0  0  0  0  0  0
    9.0785  -15.5715   26.3718 C   0  0  0  0  0  0  0  0  0  0  0  0
    9.2626  -16.9259   26.1645 O   0  0  0  0  0  0  0  0  0  0  0  0
    9.5978  -15.0926   27.4080 O   0  0  0  0  0  0  0  0  0  0  0  0
  2  1  1  0
  3  4  1  1
  3  2  1  0
  5  6  2  0
  5  3  1  0
  7  5  1  0
  8  7  1  0
  8 12  1  0
  8  9  1  1
 10  9  1  0
 10 14  1  0
 11 10  2  0
 12 20  1  0
 13 12  2  0
 16 15  1  6
 16 17  1  0
 18 16  1  0
 19 18  1  1
 20 19  1  0
 21 22  1  0
 21 19  1  0
 23 21  2  0
M  END
$$$$
