FSF.pdb
     RDKit          3D

 29 30  0  0  1  0  0  0  0  0999 V2000
    5.5590  -18.0913   23.8926 N   0  0  0  0  0  0  0  0  0  0  0  0
    6.4380  -16.9820   24.1914 C   0  0  1  0  0  0  0  0  0  0  0  0
    6.2343  -16.4779   25.6085 C   0  0  0  0  0  0  0  0  0  0  0  0
    6.9554  -15.1913   25.7169 C   0  0  0  0  0  0  0  0  0  0  0  0
    7.1937  -14.6300   26.9493 C   0  0  0  0  0  0  0  0  0  0  0  0
    7.8699  -13.4201   27.0817 C   0  0  0  0  0  0  0  0  0  0  0  0
    8.3113  -12.7722   25.9224 C   0  0  0  0  0  0  0  0  0  0  0  0
    8.0794  -13.3229   24.6838 C   0  0  0  0  0  0  0  0  0  0  0  0
    7.4060  -14.5229   24.5943 C   0  0  0  0  0  0  0  0  0  0  0  0
    7.8503  -17.2891   23.9993 C   0  0  0  0  0  0  0  0  0  0  0  0
    8.4518  -18.0362   24.8027 O   0  0  0  0  0  0  0  0  0  0  0  0
    9.7923  -15.6431   20.7650 O   0  0  0  0  0  0  0  0  0  0  0  0
   10.1789  -16.9272   21.1507 C   0  0  0  0  0  0  0  0  0  0  0  0
    9.9263  -17.0508   22.6345 C   0  0  2  0  0  0  0  0  0  0  0  0
    8.5357  -16.7328   22.8925 N   0  0  0  0  0  0  0  0  0  0  0  0
   10.8419  -16.1374   23.3605 C   0  0  0  0  0  0  0  0  0  0  0  0
   11.1040  -14.9715   22.9616 O   0  0  0  0  0  0  0  0  0  0  0  0
   11.4409  -16.6168   24.5581 N   0  0  0  0  0  0  0  0  0  0  0  0
   12.5700  -15.9643   25.1804 C   0  0  1  0  0  0  0  0  0  0  0  0
   12.1244  -14.5620   25.5433 C   0  0  0  0  0  0  0  0  0  0  0  0
   11.1498  -14.6179   26.6540 C   0  0  0  0  0  0  0  0  0  0  0  0
   10.8994  -15.8198   27.2780 C   0  0  0  0  0  0  0  0  0  0  0  0
    9.9734  -15.8558   28.3271 C   0  0  0  0  0  0  0  0  0  0  0  0
    9.3267  -14.7107   28.7260 C   0  0  0  0  0  0  0  0  0  0  0  0
    9.5812  -13.5083   28.0975 C   0  0  0  0  0  0  0  0  0  0  0  0
   10.4893  -13.4616   27.0653 C   0  0  0  0  0  0  0  0  0  0  0  0
   12.9759  -16.7553   26.3627 C   0  0  0  0  0  0  0  0  0  0  0  0
   12.3409  -17.9214   26.7655 O   0  0  0  0  0  0  0  0  0  0  0  0
   13.9511  -16.3606   27.0522 O   0  0  0  0  0  0  0  0  0  0  0  0
  2  1  1  1
  2 10  1  0
  2  3  1  0
  3  4  1  0
  4  9  2  0
  5  6  2  0
  5  4  1  0
  6  7  1  0
  7  8  2  0
  9  8  1  0
 10 11  2  0
 14 13  1  6
 13 12  1  0
 15 14  1  0
 15 10  1  0
 16 18  1  0
 16 14  1  0
 17 16  2  0
 19 18  1  0
 19 20  1  1
 21 20  1  0
 21 22  2  0
 23 22  1  0
 24 23  2  0
 25 26  2  0
 25 24  1  0
 26 21  1  0
 27 19  1  0
 28 27  1  0
 29 27  2  0
M  END
$$$$
