FSF.pdb
     RDKit          3D

 29 30  0  0  1  0  0  0  0  0999 V2000
    6.6487  -17.7711   20.5911 N   0  0  0  0  0  0  0  0  0  0  0  0
    6.9151  -16.5938   21.3884 C   0  0  1  0  0  0  0  0  0  0  0  0
    6.0615  -15.4191   20.9469 C   0  0  0  0  0  0  0  0  0  0  0  0
    6.9664  -14.4502   20.2914 C   0  0  0  0  0  0  0  0  0  0  0  0
    7.1157  -14.4538   18.9245 C   0  0  0  0  0  0  0  0  0  0  0  0
    7.9603  -13.5536   18.2803 C   0  0  0  0  0  0  0  0  0  0  0  0
    8.6674  -12.6291   19.0574 C   0  0  0  0  0  0  0  0  0  0  0  0
    8.5270  -12.6150   20.4253 C   0  0  0  0  0  0  0  0  0  0  0  0
    7.6806  -13.5228   21.0261 C   0  0  0  0  0  0  0  0  0  0  0  0
    6.7248  -16.8031   22.8186 C   0  0  0  0  0  0  0  0  0  0  0  0
    6.2955  -15.8778   23.5433 O   0  0  0  0  0  0  0  0  0  0  0  0
    8.0249  -20.4064   24.4506 O   0  0  0  0  0  0  0  0  0  0  0  0
    7.0816  -19.6701   25.1683 C   0  0  0  0  0  0  0  0  0  0  0  0
    7.2668  -18.2165   24.8031 C   0  0  2  0  0  0  0  0  0  0  0  0
    7.0309  -18.0659   23.3806 N   0  0  0  0  0  0  0  0  0  0  0  0
    8.6370  -17.7921   25.1800 C   0  0  0  0  0  0  0  0  0  0  0  0
    9.6477  -18.0289   24.4662 O   0  0  0  0  0  0  0  0  0  0  0  0
    8.7970  -17.0876   26.4052 N   0  0  0  0  0  0  0  0  0  0  0  0
   10.0755  -16.5866   26.8551 C   0  0  1  0  0  0  0  0  0  0  0  0
   10.1978  -15.1655   26.3429 C   0  0  0  0  0  0  0  0  0  0  0  0
    9.0142  -14.3810   26.7553 C   0  0  0  0  0  0  0  0  0  0  0  0
    7.8901  -14.3785   25.9595 C   0  0  0  0  0  0  0  0  0  0  0  0
    6.7785  -13.6299   26.3637 C   0  0  0  0  0  0  0  0  0  0  0  0
    6.8103  -12.9108   27.5345 C   0  0  0  0  0  0  0  0  0  0  0  0
    7.9393  -12.9166   28.3286 C   0  0  0  0  0  0  0  0  0  0  0  0
    9.0374  -13.6488   27.9409 C   0  0  0  0  0  0  0  0  0  0  0  0
   10.1162  -16.6638   28.3319 C   0  0  0  0  0  0  0  0  0  0  0  0
   11.2303  -16.3355   29.0909 O   0  0  0  0  0  0  0  0  0  0  0  0
    9.0893  -17.0473   28.9488 O   0  0  0  0  0  0  0  0  0  0  0  0
  2  1  1  6
  2 10  1  0
  2  3  1  0
  3  4  1  0
  4  9  2  0
  5  6  2  0
  5  4  1  0
  6  7  1  0
  7  8  2  0
  9  8  1  0
 10 11  2  0
 14 13  1  6
 13 12  1  0
 15 14  1  0
 15 10  1  0
 16 18  1  0
 16 14  1  0
 17 16  2  0
 19 18  1  0
 19 20  1  1
 21 20  1  0
 21 22  2  0
 23 22  1  0
 24 23  2  0
 25 26  2  0
 25 24  1  0
 26 21  1  0
 27 19  1  0
 28 27  1  0
 29 27  2  0
M  END
$$$$
