FSF.pdb
     RDKit          3D

 29 30  0  0  1  0  0  0  0  0999 V2000
    8.0969  -17.1272   18.2810 N   0  0  0  0  0  0  0  0  0  0  0  0
    8.1311  -16.1561   19.3525 C   0  0  1  0  0  0  0  0  0  0  0  0
    7.0424  -15.1111   19.1902 C   0  0  0  0  0  0  0  0  0  0  0  0
    7.2474  -14.1051   20.2546 C   0  0  0  0  0  0  0  0  0  0  0  0
    8.0028  -12.9818   20.0129 C   0  0  0  0  0  0  0  0  0  0  0  0
    8.2128  -12.0182   20.9958 C   0  0  0  0  0  0  0  0  0  0  0  0
    7.6339  -12.2126   22.2551 C   0  0  0  0  0  0  0  0  0  0  0  0
    6.8763  -13.3316   22.5097 C   0  0  0  0  0  0  0  0  0  0  0  0
    6.6915  -14.2632   21.5100 C   0  0  0  0  0  0  0  0  0  0  0  0
    8.0209  -16.7487   20.6801 C   0  0  0  0  0  0  0  0  0  0  0  0
    7.1101  -17.5677   20.9353 O   0  0  0  0  0  0  0  0  0  0  0  0
   11.0770  -17.9470   22.1325 O   0  0  0  0  0  0  0  0  0  0  0  0
    9.8746  -18.3526   22.7129 C   0  0  0  0  0  0  0  0  0  0  0  0
    9.0357  -17.1159   22.9306 C   0  0  2  0  0  0  0  0  0  0  0  0
    8.9564  -16.3878   21.6795 N   0  0  0  0  0  0  0  0  0  0  0  0
    9.6483  -16.2966   24.0044 C   0  0  0  0  0  0  0  0  0  0  0  0
   10.5407  -15.4351   23.7836 O   0  0  0  0  0  0  0  0  0  0  0  0
    9.1953  -16.5071   25.3361 N   0  0  0  0  0  0  0  0  0  0  0  0
    9.8725  -15.9539   26.4865 C   0  0  1  0  0  0  0  0  0  0  0  0
    8.8030  -15.5990   27.4998 C   0  0  0  0  0  0  0  0  0  0  0  0
    8.0304  -14.4312   27.0246 C   0  0  0  0  0  0  0  0  0  0  0  0
    8.5609  -13.1671   27.1552 C   0  0  0  0  0  0  0  0  0  0  0  0
    7.8164  -12.0722   26.7010 C   0  0  0  0  0  0  0  0  0  0  0  0
    6.5779  -12.2577   26.1350 C   0  0  0  0  0  0  0  0  0  0  0  0
    6.0505  -13.5268   26.0062 C   0  0  0  0  0  0  0  0  0  0  0  0
    6.7736  -14.6098   26.4492 C   0  0  0  0  0  0  0  0  0  0  0  0
   10.8278  -16.9611   26.9977 C   0  0  0  0  0  0  0  0  0  0  0  0
   10.9630  -18.2355   26.4659 O   0  0  0  0  0  0  0  0  0  0  0  0
   11.5666  -16.6593   27.9700 O   0  0  0  0  0  0  0  0  0  0  0  0
  2  1  1  6
  2 10  1  0
  2  3  1  0
  3  4  1  0
  4  9  2  0
  5  6  2  0
  5  4  1  0
  6  7  1  0
  7  8  2  0
  9  8  1  0
 10 11  2  0
 14 13  1  6
 13 12  1  0
 15 14  1  0
 15 10  1  0
 16 18  1  0
 16 14  1  0
 17 16  2  0
 19 18  1  0
 19 20  1  1
 21 20  1  0
 21 22  2  0
 23 22  1  0
 24 23  2  0
 25 26  2  0
 25 24  1  0
 26 21  1  0
 27 19  1  0
 28 27  1  0
 29 27  2  0
M  END
$$$$
