FSF.pdb
     RDKit          3D

 29 30  0  0  1  0  0  0  0  0999 V2000
    6.6457  -17.7900   20.1080 N   0  0  0  0  0  0  0  0  0  0  0  0
    7.4349  -16.9729   21.0036 C   0  0  1  0  0  0  0  0  0  0  0  0
    6.6501  -15.7703   21.4952 C   0  0  0  0  0  0  0  0  0  0  0  0
    7.1870  -14.5867   20.7895 C   0  0  0  0  0  0  0  0  0  0  0  0
    6.8096  -14.3192   19.4947 C   0  0  0  0  0  0  0  0  0  0  0  0
    7.2988  -13.2126   18.8057 C   0  0  0  0  0  0  0  0  0  0  0  0
    8.1958  -12.3616   19.4613 C   0  0  0  0  0  0  0  0  0  0  0  0
    8.5813  -12.6178   20.7562 C   0  0  0  0  0  0  0  0  0  0  0  0
    8.0745  -13.7242   21.4048 C   0  0  0  0  0  0  0  0  0  0  0  0
    7.9502  -17.7020   22.1562 C   0  0  0  0  0  0  0  0  0  0  0  0
    7.4871  -18.8253   22.4549 O   0  0  0  0  0  0  0  0  0  0  0  0
   11.4052  -18.4693   22.5596 O   0  0  0  0  0  0  0  0  0  0  0  0
   10.3973  -19.0220   23.3506 C   0  0  0  0  0  0  0  0  0  0  0  0
    9.6400  -17.8795   23.9846 C   0  0  2  0  0  0  0  0  0  0  0  0
    8.9820  -17.1256   22.9356 N   0  0  0  0  0  0  0  0  0  0  0  0
   10.5872  -17.0370   24.7543 C   0  0  0  0  0  0  0  0  0  0  0  0
   11.5895  -16.4809   24.2313 O   0  0  0  0  0  0  0  0  0  0  0  0
   10.3365  -16.8608   26.1432 N   0  0  0  0  0  0  0  0  0  0  0  0
   11.1045  -15.9537   26.9650 C   0  0  1  0  0  0  0  0  0  0  0  0
   10.8782  -14.5601   26.4142 C   0  0  0  0  0  0  0  0  0  0  0  0
    9.5339  -14.0808   26.8011 C   0  0  0  0  0  0  0  0  0  0  0  0
    8.4306  -14.5144   26.1003 C   0  0  0  0  0  0  0  0  0  0  0  0
    7.1652  -14.0506   26.4787 C   0  0  0  0  0  0  0  0  0  0  0  0
    7.0286  -13.1778   27.5315 C   0  0  0  0  0  0  0  0  0  0  0  0
    8.1376  -12.7462   28.2309 C   0  0  0  0  0  0  0  0  0  0  0  0
    9.3858  -13.1957   27.8674 C   0  0  0  0  0  0  0  0  0  0  0  0
   10.6505  -16.0915   28.3661 C   0  0  0  0  0  0  0  0  0  0  0  0
   11.2360  -15.4287   29.4353 O   0  0  0  0  0  0  0  0  0  0  0  0
    9.6789  -16.8496   28.6183 O   0  0  0  0  0  0  0  0  0  0  0  0
  2  1  1  1
  2 10  1  0
  2  3  1  0
  3  4  1  0
  4  9  2  0
  5  6  2  0
  5  4  1  0
  6  7  1  0
  7  8  2  0
  9  8  1  0
 10 11  2  0
 14 13  1  6
 13 12  1  0
 15 14  1  0
 15 10  1  0
 16 18  1  0
 16 14  1  0
 17 16  2  0
 19 18  1  0
 19 20  1  6
 21 20  1  0
 21 22  2  0
 23 22  1  0
 24 23  2  0
 25 26  2  0
 25 24  1  0
 26 21  1  0
 27 19  1  0
 28 27  1  0
 29 27  2  0
M  END
$$$$
