FSF.pdb
     RDKit          3D

 29 30  0  0  1  0  0  0  0  0999 V2000
    6.6482  -17.1252   20.8066 N   0  0  0  0  0  0  0  0  0  0  0  0
    7.6018  -16.4112   21.6273 C   0  0  1  0  0  0  0  0  0  0  0  0
    7.0936  -15.0290   21.9944 C   0  0  0  0  0  0  0  0  0  0  0  0
    7.4673  -14.1233   20.8866 C   0  0  0  0  0  0  0  0  0  0  0  0
    8.7647  -13.6883   20.7522 C   0  0  0  0  0  0  0  0  0  0  0  0
    9.1452  -12.8356   19.7194 C   0  0  0  0  0  0  0  0  0  0  0  0
    8.1714  -12.4204   18.8041 C   0  0  0  0  0  0  0  0  0  0  0  0
    6.8703  -12.8482   18.9272 C   0  0  0  0  0  0  0  0  0  0  0  0
    6.5329  -13.6925   19.9640 C   0  0  0  0  0  0  0  0  0  0  0  0
    7.9649  -17.1194   22.8490 C   0  0  0  0  0  0  0  0  0  0  0  0
    7.0876  -17.6860   23.5380 O   0  0  0  0  0  0  0  0  0  0  0  0
   11.7350  -18.1466   23.4495 O   0  0  0  0  0  0  0  0  0  0  0  0
   10.8075  -18.7106   24.3262 C   0  0  0  0  0  0  0  0  0  0  0  0
    9.7088  -17.6966   24.5387 C   0  0  2  0  0  0  0  0  0  0  0  0
    9.3224  -17.1598   23.2486 N   0  0  0  0  0  0  0  0  0  0  0  0
   10.1982  -16.6344   25.4506 C   0  0  0  0  0  0  0  0  0  0  0  0
   10.9142  -15.6738   25.0609 O   0  0  0  0  0  0  0  0  0  0  0  0
    9.8327  -16.7211   26.8225 N   0  0  0  0  0  0  0  0  0  0  0  0
   10.4134  -15.8740   27.8389 C   0  0  1  0  0  0  0  0  0  0  0  0
    9.2632  -15.2461   28.6002 C   0  0  0  0  0  0  0  0  0  0  0  0
    8.5288  -14.3136   27.7184 C   0  0  0  0  0  0  0  0  0  0  0  0
    7.3858  -14.7407   27.0798 C   0  0  0  0  0  0  0  0  0  0  0  0
    6.7027  -13.8458   26.2479 C   0  0  0  0  0  0  0  0  0  0  0  0
    7.1663  -12.5639   26.0729 C   0  0  0  0  0  0  0  0  0  0  0  0
    8.3124  -12.1406   26.7153 C   0  0  0  0  0  0  0  0  0  0  0  0
    8.9914  -13.0118   27.5351 C   0  0  0  0  0  0  0  0  0  0  0  0
   11.2803  -16.7049   28.7030 C   0  0  0  0  0  0  0  0  0  0  0  0
   12.1622  -16.1844   29.6392 O   0  0  0  0  0  0  0  0  0  0  0  0
   11.2257  -17.9568   28.5941 O   0  0  0  0  0  0  0  0  0  0  0  0
  2  1  1  1
  2 10  1  0
  2  3  1  0
  3  4  1  0
  4  9  2  0
  5  6  2  0
  5  4  1  0
  6  7  1  0
  7  8  2  0
  9  8  1  0
 10 11  2  0
 14 13  1  6
 13 12  1  0
 15 14  1  0
 15 10  1  0
 16 18  1  0
 16 14  1  0
 17 16  2  0
 19 18  1  0
 19 20  1  1
 21 20  1  0
 21 22  2  0
 23 22  1  0
 24 23  2  0
 25 26  2  0
 25 24  1  0
 26 21  1  0
 27 19  1  0
 28 27  1  0
 29 27  2  0
M  END
$$$$
