FSF.pdb
     RDKit          3D

 29 30  0  0  1  0  0  0  0  0999 V2000
    5.6070  -17.7603   20.9743 N   0  0  0  0  0  0  0  0  0  0  0  0
    6.5143  -16.6599   21.2159 C   0  0  1  0  0  0  0  0  0  0  0  0
    5.7715  -15.3406   21.3229 C   0  0  0  0  0  0  0  0  0  0  0  0
    6.7852  -14.2667   21.2435 C   0  0  0  0  0  0  0  0  0  0  0  0
    7.2572  -13.8457   20.0226 C   0  0  0  0  0  0  0  0  0  0  0  0
    8.2113  -12.8371   19.9174 C   0  0  0  0  0  0  0  0  0  0  0  0
    8.6914  -12.2477   21.0925 C   0  0  0  0  0  0  0  0  0  0  0  0
    8.2275  -12.6596   22.3198 C   0  0  0  0  0  0  0  0  0  0  0  0
    7.2823  -13.6617   22.3823 C   0  0  0  0  0  0  0  0  0  0  0  0
    7.3383  -16.8343   22.4061 C   0  0  0  0  0  0  0  0  0  0  0  0
    6.8071  -17.0273   23.5223 O   0  0  0  0  0  0  0  0  0  0  0  0
   11.4097  -16.8254   21.9096 O   0  0  0  0  0  0  0  0  0  0  0  0
   10.8666  -17.8365   22.7031 C   0  0  0  0  0  0  0  0  0  0  0  0
    9.6090  -17.2905   23.3363 C   0  0  2  0  0  0  0  0  0  0  0  0
    8.7480  -16.7832   22.2860 N   0  0  0  0  0  0  0  0  0  0  0  0
    9.9749  -16.2298   24.3060 C   0  0  0  0  0  0  0  0  0  0  0  0
   10.4845  -15.1311   23.9590 O   0  0  0  0  0  0  0  0  0  0  0  0
    9.7322  -16.4824   25.6846 N   0  0  0  0  0  0  0  0  0  0  0  0
   10.2107  -15.6106   26.7329 C   0  0  1  0  0  0  0  0  0  0  0  0
    9.0420  -15.3571   27.6638 C   0  0  0  0  0  0  0  0  0  0  0  0
    8.1213  -14.3729   27.0553 C   0  0  0  0  0  0  0  0  0  0  0  0
    6.9800  -14.8119   26.4219 C   0  0  0  0  0  0  0  0  0  0  0  0
    6.1193  -13.8674   25.8503 C   0  0  0  0  0  0  0  0  0  0  0  0
    6.4101  -12.5261   25.9212 C   0  0  0  0  0  0  0  0  0  0  0  0
    7.5553  -12.0911   26.5573 C   0  0  0  0  0  0  0  0  0  0  0  0
    8.4080  -13.0107   27.1224 C   0  0  0  0  0  0  0  0  0  0  0  0
   11.3452  -16.2733   27.4127 C   0  0  0  0  0  0  0  0  0  0  0  0
   12.2425  -15.6115   28.2387 O   0  0  0  0  0  0  0  0  0  0  0  0
   11.5192  -17.5072   27.2417 O   0  0  0  0  0  0  0  0  0  0  0  0
  2  1  1  1
  2 10  1  0
  2  3  1  0
  3  4  1  0
  4  9  2  0
  5  6  2  0
  5  4  1  0
  6  7  1  0
  7  8  2  0
  9  8  1  0
 10 11  2  0
 14 13  1  6
 13 12  1  0
 15 14  1  0
 15 10  1  0
 16 18  1  0
 16 14  1  0
 17 16  2  0
 19 18  1  0
 19 20  1  1
 21 20  1  0
 21 22  2  0
 23 22  1  0
 24 23  2  0
 25 26  2  0
 25 24  1  0
 26 21  1  0
 27 19  1  0
 28 27  1  0
 29 27  2  0
M  END
$$$$
