FSF.pdb
     RDKit          3D

 29 30  0  0  1  0  0  0  0  0999 V2000
    6.2961  -17.0689   21.1127 N   0  0  0  0  0  0  0  0  0  0  0  0
    7.3275  -16.2824   21.7531 C   0  0  1  0  0  0  0  0  0  0  0  0
    6.8071  -14.9198   22.1727 C   0  0  0  0  0  0  0  0  0  0  0  0
    7.3257  -13.9396   21.1943 C   0  0  0  0  0  0  0  0  0  0  0  0
    6.6137  -13.6535   20.0532 C   0  0  0  0  0  0  0  0  0  0  0  0
    7.0774  -12.7354   19.1148 C   0  0  0  0  0  0  0  0  0  0  0  0
    8.2995  -12.0967   19.3536 C   0  0  0  0  0  0  0  0  0  0  0  0
    9.0213  -12.3738   20.4908 C   0  0  0  0  0  0  0  0  0  0  0  0
    8.5284  -13.2895   21.3965 C   0  0  0  0  0  0  0  0  0  0  0  0
    7.9240  -16.9360   22.9119 C   0  0  0  0  0  0  0  0  0  0  0  0
    7.2078  -17.5594   23.7268 O   0  0  0  0  0  0  0  0  0  0  0  0
   11.8967  -17.2610   22.9673 O   0  0  0  0  0  0  0  0  0  0  0  0
   11.2270  -18.1403   23.8191 C   0  0  0  0  0  0  0  0  0  0  0  0
    9.9548  -17.4595   24.2651 C   0  0  2  0  0  0  0  0  0  0  0  0
    9.3241  -16.8584   23.1064 N   0  0  0  0  0  0  0  0  0  0  0  0
   10.2825  -16.4474   25.2984 C   0  0  0  0  0  0  0  0  0  0  0  0
   10.8545  -15.3570   25.0316 O   0  0  0  0  0  0  0  0  0  0  0  0
    9.9274  -16.7384   26.6446 N   0  0  0  0  0  0  0  0  0  0  0  0
   10.3181  -15.8978   27.7530 C   0  0  1  0  0  0  0  0  0  0  0  0
    9.0424  -15.3666   28.3753 C   0  0  0  0  0  0  0  0  0  0  0  0
    8.3973  -14.4071   27.4535 C   0  0  0  0  0  0  0  0  0  0  0  0
    7.3533  -14.8258   26.6589 C   0  0  0  0  0  0  0  0  0  0  0  0
    6.7540  -13.9054   25.7911 C   0  0  0  0  0  0  0  0  0  0  0  0
    7.2012  -12.6071   25.7346 C   0  0  0  0  0  0  0  0  0  0  0  0
    8.2480  -12.1923   26.5331 C   0  0  0  0  0  0  0  0  0  0  0  0
    8.8441  -13.0886   27.3895 C   0  0  0  0  0  0  0  0  0  0  0  0
   11.1163  -16.7089   28.6982 C   0  0  0  0  0  0  0  0  0  0  0  0
   11.4001  -18.0542   28.5112 O   0  0  0  0  0  0  0  0  0  0  0  0
   11.5706  -16.1614   29.7355 O   0  0  0  0  0  0  0  0  0  0  0  0
  2  1  1  1
  2 10  1  0
  2  3  1  0
  3  4  1  0
  4  9  2  0
  5  6  2  0
  5  4  1  0
  6  7  1  0
  7  8  2  0
  9  8  1  0
 10 11  2  0
 14 13  1  6
 13 12  1  0
 15 14  1  0
 15 10  1  0
 16 18  1  0
 16 14  1  0
 17 16  2  0
 19 18  1  0
 19 20  1  1
 21 20  1  0
 21 22  2  0
 23 22  1  0
 24 23  2  0
 25 26  2  0
 25 24  1  0
 26 21  1  0
 27 19  1  0
 28 27  1  0
 29 27  2  0
M  END
$$$$
