FSF.pdb
     RDKit          3D

 29 30  0  0  1  0  0  0  0  0999 V2000
    8.4883  -16.8971   20.1713 N   0  0  0  0  0  0  0  0  0  0  0  0
    9.5650  -16.5775   21.0829 C   0  0  1  0  0  0  0  0  0  0  0  0
   10.1195  -15.1888   20.8224 C   0  0  0  0  0  0  0  0  0  0  0  0
    8.9667  -14.3135   20.5191 C   0  0  0  0  0  0  0  0  0  0  0  0
    7.6849  -14.8076   20.5775 C   0  0  0  0  0  0  0  0  0  0  0  0
    6.5807  -14.0070   20.2972 C   0  0  0  0  0  0  0  0  0  0  0  0
    6.7980  -12.6690   19.9492 C   0  0  0  0  0  0  0  0  0  0  0  0
    8.0749  -12.1624   19.8873 C   0  0  0  0  0  0  0  0  0  0  0  0
    9.1426  -12.9874   20.1720 C   0  0  0  0  0  0  0  0  0  0  0  0
    9.1887  -16.6784   22.4879 C   0  0  0  0  0  0  0  0  0  0  0  0
    8.2403  -15.9993   22.9406 O   0  0  0  0  0  0  0  0  0  0  0  0
   11.3492  -19.2078   24.8156 O   0  0  0  0  0  0  0  0  0  0  0  0
   10.0147  -19.0682   25.1985 C   0  0  0  0  0  0  0  0  0  0  0  0
    9.5484  -17.7096   24.7321 C   0  0  2  0  0  0  0  0  0  0  0  0
    9.9081  -17.5540   23.3364 N   0  0  0  0  0  0  0  0  0  0  0  0
   10.1728  -16.6648   25.5794 C   0  0  0  0  0  0  0  0  0  0  0  0
   11.1661  -15.9848   25.2074 O   0  0  0  0  0  0  0  0  0  0  0  0
    9.6114  -16.4346   26.8659 N   0  0  0  0  0  0  0  0  0  0  0  0
   10.2812  -15.6533   27.8802 C   0  0  1  0  0  0  0  0  0  0  0  0
    9.2106  -14.8679   28.6109 C   0  0  0  0  0  0  0  0  0  0  0  0
    8.4415  -14.0526   27.6465 C   0  0  0  0  0  0  0  0  0  0  0  0
    8.9267  -12.8240   27.2569 C   0  0  0  0  0  0  0  0  0  0  0  0
    8.1860  -12.0642   26.3439 C   0  0  0  0  0  0  0  0  0  0  0  0
    6.9958  -12.5379   25.8461 C   0  0  0  0  0  0  0  0  0  0  0  0
    6.5138  -13.7700   26.2396 C   0  0  0  0  0  0  0  0  0  0  0  0
    7.2336  -14.5249   27.1364 C   0  0  0  0  0  0  0  0  0  0  0  0
   11.0179  -16.5753   28.7722 C   0  0  0  0  0  0  0  0  0  0  0  0
   10.9625  -17.9578   28.6680 O   0  0  0  0  0  0  0  0  0  0  0  0
   11.7401  -16.0929   29.6821 O   0  0  0  0  0  0  0  0  0  0  0  0
  2  1  1  6
  2 10  1  0
  2  3  1  0
  3  4  1  0
  4  9  2  0
  5  6  2  0
  5  4  1  0
  6  7  1  0
  7  8  2  0
  9  8  1  0
 10 11  2  0
 14 13  1  1
 13 12  1  0
 15 14  1  0
 15 10  1  0
 16 18  1  0
 16 14  1  0
 17 16  2  0
 19 18  1  0
 19 20  1  1
 21 20  1  0
 21 22  2  0
 23 22  1  0
 24 23  2  0
 25 26  2  0
 25 24  1  0
 26 21  1  0
 27 19  1  0
 28 27  1  0
 29 27  2  0
M  END
$$$$
