FSF.pdb
     RDKit          3D

 29 30  0  0  1  0  0  0  0  0999 V2000
    6.2019  -17.1138   19.2241 N   0  0  0  0  0  0  0  0  0  0  0  0
    7.5303  -17.4468   19.6899 C   0  0  1  0  0  0  0  0  0  0  0  0
    8.5812  -16.5531   19.0569 C   0  0  0  0  0  0  0  0  0  0  0  0
    8.3261  -15.1785   19.5391 C   0  0  0  0  0  0  0  0  0  0  0  0
    9.3345  -14.4486   20.1231 C   0  0  0  0  0  0  0  0  0  0  0  0
    9.1232  -13.1526   20.5861 C   0  0  0  0  0  0  0  0  0  0  0  0
    7.8479  -12.5937   20.4461 C   0  0  0  0  0  0  0  0  0  0  0  0
    6.8307  -13.3130   19.8638 C   0  0  0  0  0  0  0  0  0  0  0  0
    7.0797  -14.5939   19.4178 C   0  0  0  0  0  0  0  0  0  0  0  0
    7.6719  -17.3863   21.1397 C   0  0  0  0  0  0  0  0  0  0  0  0
    6.8908  -16.6890   21.8246 O   0  0  0  0  0  0  0  0  0  0  0  0
   10.6045  -19.6702   22.9365 O   0  0  0  0  0  0  0  0  0  0  0  0
    9.3885  -19.5149   23.6030 C   0  0  0  0  0  0  0  0  0  0  0  0
    8.8241  -18.1703   23.2103 C   0  0  2  0  0  0  0  0  0  0  0  0
    8.7038  -18.1259   21.7663 N   0  0  0  0  0  0  0  0  0  0  0  0
    9.7173  -17.1014   23.7196 C   0  0  0  0  0  0  0  0  0  0  0  0
   10.7533  -16.7261   23.1088 O   0  0  0  0  0  0  0  0  0  0  0  0
    9.3724  -16.4845   24.9539 N   0  0  0  0  0  0  0  0  0  0  0  0
   10.2873  -15.6377   25.6845 C   0  0  1  0  0  0  0  0  0  0  0  0
    9.9866  -14.2090   25.2780 C   0  0  0  0  0  0  0  0  0  0  0  0
    8.6591  -13.8105   25.7932 C   0  0  0  0  0  0  0  0  0  0  0  0
    8.5760  -13.0344   26.9279 C   0  0  0  0  0  0  0  0  0  0  0  0
    7.3117  -12.6665   27.4031 C   0  0  0  0  0  0  0  0  0  0  0  0
    6.1747  -13.0736   26.7472 C   0  0  0  0  0  0  0  0  0  0  0  0
    6.2633  -13.8512   25.6102 C   0  0  0  0  0  0  0  0  0  0  0  0
    7.5006  -14.2186   25.1346 C   0  0  0  0  0  0  0  0  0  0  0  0
   10.0879  -15.8704   27.1318 C   0  0  0  0  0  0  0  0  0  0  0  0
    9.1324  -16.7330   27.6497 O   0  0  0  0  0  0  0  0  0  0  0  0
   10.8191  -15.2584   27.9520 O   0  0  0  0  0  0  0  0  0  0  0  0
  2  1  1  1
  2 10  1  0
  2  3  1  0
  3  4  1  0
  4  9  2  0
  5  6  2  0
  5  4  1  0
  6  7  1  0
  7  8  2  0
  9  8  1  0
 10 11  2  0
 14 13  1  6
 13 12  1  0
 15 14  1  0
 15 10  1  0
 16 18  1  0
 16 14  1  0
 17 16  2  0
 19 18  1  0
 19 20  1  1
 21 20  1  0
 21 22  2  0
 23 22  1  0
 24 23  2  0
 25 26  2  0
 25 24  1  0
 26 21  1  0
 27 19  1  0
 28 27  1  0
 29 27  2  0
M  END
$$$$
