VEW.pdb
     RDKit          3D

 31 32  0  0  1  0  0  0  0  0999 V2000
   29.2450  -17.9270  -17.0985 C   0  0  0  0  0  0  0  0  0  0  0  0
   28.1094  -18.0549  -16.1117 C   0  0  1  0  0  0  0  0  0  0  0  0
   26.7959  -18.2656  -16.7911 C   0  0  0  0  0  0  0  0  0  0  0  0
   28.4130  -19.0488  -15.0100 C   0  0  2  0  0  0  0  0  0  0  0  0
   28.6186  -20.3723  -15.6196 N   0  0  0  0  0  0  0  0  0  0  0  0
   27.3610  -19.1292  -13.9764 C   0  0  0  0  0  0  0  0  0  0  0  0
   27.0322  -18.0991  -13.3006 O   0  0  0  0  0  0  0  0  0  0  0  0
   26.6652  -20.3116  -13.6707 N   0  0  0  0  0  0  0  0  0  0  0  0
   25.6173  -20.3767  -12.6639 C   0  0  1  0  0  0  0  0  0  0  0  0
   24.3996  -21.0731  -13.1397 C   0  0  0  0  0  0  0  0  0  0  0  0
   23.4633  -20.1041  -13.7937 C   0  0  0  0  0  0  0  0  0  0  0  0
   22.3617  -19.7613  -12.8835 C   0  0  0  0  0  0  0  0  0  0  0  0
   22.0325  -18.5915  -12.5963 O   0  0  0  0  0  0  0  0  0  0  0  0
   26.1635  -21.0712  -11.4285 C   0  0  0  0  0  0  0  0  0  0  0  0
   27.2263  -21.7069  -11.5208 O   0  0  0  0  0  0  0  0  0  0  0  0
   21.5929  -20.7625  -12.2668 O   0  0  0  0  0  0  0  0  0  0  0  0
   25.5025  -21.0164  -10.1781 N   0  0  0  0  0  0  0  0  0  0  0  0
   26.0341  -21.5898   -8.9512 C   0  0  1  0  0  0  0  0  0  0  0  0
   27.4349  -21.1549   -8.6951 C   0  0  0  0  0  0  0  0  0  0  0  0
   27.5002  -20.1189   -7.6507 C   0  0  0  0  0  0  0  0  0  0  0  0
   26.8568  -18.8731   -7.6554 C   0  0  0  0  0  0  0  0  0  0  0  0
   27.1979  -18.2014   -6.5431 N   0  0  0  0  0  0  0  0  0  0  0  0
   28.0361  -18.9272   -5.7873 C   0  0  0  0  0  0  0  0  0  0  0  0
   28.6392  -18.6818   -4.5677 C   0  0  0  0  0  0  0  0  0  0  0  0
   29.4523  -19.6380   -4.0048 C   0  0  0  0  0  0  0  0  0  0  0  0
   29.6627  -20.8434   -4.6640 C   0  0  0  0  0  0  0  0  0  0  0  0
   29.0482  -21.0512   -5.8718 C   0  0  0  0  0  0  0  0  0  0  0  0
   28.2225  -20.1063   -6.4669 C   0  0  0  0  0  0  0  0  0  0  0  0
   25.1201  -21.5439   -7.8365 C   0  0  0  0  0  0  0  0  0  0  0  0
   25.4345  -22.2625   -6.8116 O   0  0  0  0  0  0  0  0  0  0  0  0
   23.9629  -20.8301   -7.7253 O   0  0  0  0  0  0  0  0  0  0  0  0
  2  1  1  6
  2  3  1  0
  4  2  1  0
  4  5  1  6
  6  4  1  0
  6  7  2  0
  8  6  1  0
  9  8  1  0
  9 10  1  6
 11 10  1  0
 12 13  2  0
 12 11  1  0
 14  9  1  0
 15 14  2  0
 16 12  1  0
 17 14  1  0
 18 19  1  1
 18 17  1  0
 20 19  1  0
 21 20  2  0
 22 23  1  0
 22 21  1  0
 23 28  2  0
 24 25  2  0
 24 23  1  0
 25 26  1  0
 26 27  2  0
 28 20  1  0
 28 27  1  0
 29 18  1  0
 30 29  2  0
 31 29  1  0
M  END
$$$$
