VEW.pdb
     RDKit          3D

 31 32  0  0  1  0  0  0  0  0999 V2000
   28.5386  -18.8412  -13.8223 C   0  0  0  0  0  0  0  0  0  0  0  0
   27.1605  -18.7400  -14.4309 C   0  0  1  0  0  0  0  0  0  0  0  0
   26.5965  -17.3614  -14.3183 C   0  0  0  0  0  0  0  0  0  0  0  0
   27.1016  -19.3306  -15.8242 C   0  0  2  0  0  0  0  0  0  0  0  0
   28.0565  -18.6066  -16.6784 N   0  0  0  0  0  0  0  0  0  0  0  0
   25.7549  -19.2908  -16.4295 C   0  0  0  0  0  0  0  0  0  0  0  0
   25.3576  -18.2601  -17.0665 O   0  0  0  0  0  0  0  0  0  0  0  0
   24.8393  -20.3544  -16.3507 N   0  0  0  0  0  0  0  0  0  0  0  0
   23.4746  -20.2636  -16.8459 C   0  0  1  0  0  0  0  0  0  0  0  0
   23.1540  -21.3010  -17.8534 C   0  0  0  0  0  0  0  0  0  0  0  0
   23.7842  -20.9656  -19.1701 C   0  0  0  0  0  0  0  0  0  0  0  0
   23.4816  -22.0053  -20.1634 C   0  0  0  0  0  0  0  0  0  0  0  0
   24.3404  -22.5457  -20.8913 O   0  0  0  0  0  0  0  0  0  0  0  0
   22.5165  -20.3662  -15.6718 C   0  0  0  0  0  0  0  0  0  0  0  0
   22.9367  -20.8212  -14.5955 O   0  0  0  0  0  0  0  0  0  0  0  0
   22.1676  -22.4641  -20.3552 O   0  0  0  0  0  0  0  0  0  0  0  0
   21.1639  -19.9599  -15.7643 N   0  0  0  0  0  0  0  0  0  0  0  0
   20.2434  -19.9344  -14.6379 C   0  0  1  0  0  0  0  0  0  0  0  0
   20.7654  -19.1126  -13.5112 C   0  0  0  0  0  0  0  0  0  0  0  0
   20.7423  -17.6753  -13.8304 C   0  0  0  0  0  0  0  0  0  0  0  0
   21.7435  -16.9378  -14.4783 C   0  0  0  0  0  0  0  0  0  0  0  0
   21.3626  -15.6514  -14.5473 N   0  0  0  0  0  0  0  0  0  0  0  0
   20.1576  -15.4811  -13.9818 C   0  0  0  0  0  0  0  0  0  0  0  0
   19.3519  -14.3687  -13.8246 C   0  0  0  0  0  0  0  0  0  0  0  0
   18.1273  -14.4954  -13.2113 C   0  0  0  0  0  0  0  0  0  0  0  0
   17.7072  -15.7388  -12.7537 C   0  0  0  0  0  0  0  0  0  0  0  0
   18.5332  -16.8192  -12.9268 C   0  0  0  0  0  0  0  0  0  0  0  0
   19.7752  -16.7246  -13.5410 C   0  0  0  0  0  0  0  0  0  0  0  0
   18.8643  -19.7348  -15.0099 C   0  0  0  0  0  0  0  0  0  0  0  0
   18.6514  -19.3485  -16.2228 O   0  0  0  0  0  0  0  0  0  0  0  0
   17.7511  -19.9083  -14.2408 O   0  0  0  0  0  0  0  0  0  0  0  0
  2  1  1  6
  2  3  1  0
  4  2  1  0
  4  5  1  6
  6  4  1  0
  6  7  2  0
  8  6  1  0
  9  8  1  0
  9 10  1  6
 11 10  1  0
 12 13  2  0
 12 11  1  0
 14  9  1  0
 15 14  2  0
 16 12  1  0
 17 14  1  0
 18 19  1  1
 18 17  1  0
 20 19  1  0
 21 20  2  0
 22 23  1  0
 22 21  1  0
 23 28  2  0
 24 25  2  0
 24 23  1  0
 25 26  1  0
 26 27  2  0
 28 20  1  0
 28 27  1  0
 29 18  1  0
 30 29  2  0
 31 29  1  0
M  END
$$$$
