VEW.pdb
     RDKit          3D

 31 32  0  0  1  0  0  0  0  0999 V2000
   28.9027  -17.4256  -15.3991 C   0  0  0  0  0  0  0  0  0  0  0  0
   29.1521  -18.7283  -16.1206 C   0  0  1  0  0  0  0  0  0  0  0  0
   29.3869  -19.8591  -15.1732 C   0  0  0  0  0  0  0  0  0  0  0  0
   28.1102  -19.0063  -17.1840 C   0  0  2  0  0  0  0  0  0  0  0  0
   28.1129  -17.8898  -18.1427 N   0  0  0  0  0  0  0  0  0  0  0  0
   26.7492  -19.2029  -16.6448 C   0  0  0  0  0  0  0  0  0  0  0  0
   25.9844  -18.2060  -16.4284 O   0  0  0  0  0  0  0  0  0  0  0  0
   26.2127  -20.4658  -16.3400 N   0  0  0  0  0  0  0  0  0  0  0  0
   24.8762  -20.6486  -15.7956 C   0  0  1  0  0  0  0  0  0  0  0  0
   23.9732  -21.3829  -16.7118 C   0  0  0  0  0  0  0  0  0  0  0  0
   22.6232  -21.5593  -16.0876 C   0  0  0  0  0  0  0  0  0  0  0  0
   21.7464  -22.3382  -16.9729 C   0  0  0  0  0  0  0  0  0  0  0  0
   21.3074  -21.9195  -18.0644 O   0  0  0  0  0  0  0  0  0  0  0  0
   24.9802  -21.3828  -14.4701 C   0  0  0  0  0  0  0  0  0  0  0  0
   25.8371  -22.2729  -14.3454 O   0  0  0  0  0  0  0  0  0  0  0  0
   21.3407  -23.6388  -16.6299 O   0  0  0  0  0  0  0  0  0  0  0  0
   24.1349  -21.0852  -13.3746 N   0  0  0  0  0  0  0  0  0  0  0  0
   24.5391  -21.1967  -11.9814 C   0  0  1  0  0  0  0  0  0  0  0  0
   25.9074  -20.6552  -11.7540 C   0  0  0  0  0  0  0  0  0  0  0  0
   26.1799  -20.4506  -10.3215 C   0  0  0  0  0  0  0  0  0  0  0  0
   25.2845  -19.9812   -9.3499 C   0  0  0  0  0  0  0  0  0  0  0  0
   25.9235  -19.8979   -8.1712 N   0  0  0  0  0  0  0  0  0  0  0  0
   27.2018  -20.2869   -8.2945 C   0  0  0  0  0  0  0  0  0  0  0  0
   28.2346  -20.3934   -7.3818 C   0  0  0  0  0  0  0  0  0  0  0  0
   29.4637  -20.8534   -7.7939 C   0  0  0  0  0  0  0  0  0  0  0  0
   29.6602  -21.2080   -9.1234 C   0  0  0  0  0  0  0  0  0  0  0  0
   28.6129  -21.0887  -10.0000 C   0  0  0  0  0  0  0  0  0  0  0  0
   27.3606  -20.6272   -9.6158 C   0  0  0  0  0  0  0  0  0  0  0  0
   23.5171  -20.8103  -11.0399 C   0  0  0  0  0  0  0  0  0  0  0  0
   22.8415  -19.7511  -11.3350 O   0  0  0  0  0  0  0  0  0  0  0  0
   23.1688  -21.4281   -9.8746 O   0  0  0  0  0  0  0  0  0  0  0  0
  2  1  1  1
  2  3  1  0
  4  2  1  0
  4  5  1  6
  6  4  1  0
  6  7  2  0
  8  6  1  0
  9  8  1  0
  9 10  1  6
 11 10  1  0
 12 13  2  0
 12 11  1  0
 14  9  1  0
 15 14  2  0
 16 12  1  0
 17 14  1  0
 18 19  1  6
 18 17  1  0
 20 19  1  0
 21 20  2  0
 22 23  1  0
 22 21  1  0
 23 28  2  0
 24 25  2  0
 24 23  1  0
 25 26  1  0
 26 27  2  0
 28 20  1  0
 28 27  1  0
 29 18  1  0
 30 29  2  0
 31 29  1  0
M  END
$$$$
