VEW.pdb
     RDKit          3D

 31 32  0  0  1  0  0  0  0  0999 V2000
   19.1917  -12.2811  -15.4696 C   0  0  0  0  0  0  0  0  0  0  0  0
   19.5777  -13.7262  -15.2636 C   0  0  1  0  0  0  0  0  0  0  0  0
   18.4375  -14.5449  -14.7527 C   0  0  0  0  0  0  0  0  0  0  0  0
   20.2801  -14.3123  -16.4706 C   0  0  2  0  0  0  0  0  0  0  0  0
   19.3455  -14.2970  -17.6072 N   0  0  0  0  0  0  0  0  0  0  0  0
   20.7873  -15.6826  -16.2550 C   0  0  0  0  0  0  0  0  0  0  0  0
   20.0052  -16.6864  -16.3347 O   0  0  0  0  0  0  0  0  0  0  0  0
   22.1297  -15.9727  -15.9553 N   0  0  0  0  0  0  0  0  0  0  0  0
   22.6244  -17.3274  -15.7654 C   0  0  1  0  0  0  0  0  0  0  0  0
   24.1034  -17.4060  -15.7440 C   0  0  0  0  0  0  0  0  0  0  0  0
   24.5503  -18.8217  -15.5456 C   0  0  0  0  0  0  0  0  0  0  0  0
   24.8897  -19.4382  -16.8356 C   0  0  0  0  0  0  0  0  0  0  0  0
   24.8494  -18.8357  -17.9287 O   0  0  0  0  0  0  0  0  0  0  0  0
   22.0559  -17.8826  -14.4710 C   0  0  0  0  0  0  0  0  0  0  0  0
   22.1504  -17.2024  -13.4364 O   0  0  0  0  0  0  0  0  0  0  0  0
   25.2915  -20.7822  -16.9133 O   0  0  0  0  0  0  0  0  0  0  0  0
   21.4225  -19.1467  -14.4063 N   0  0  0  0  0  0  0  0  0  0  0  0
   20.8147  -19.6913  -13.2019 C   0  0  1  0  0  0  0  0  0  0  0  0
   19.9266  -18.7024  -12.5308 C   0  0  0  0  0  0  0  0  0  0  0  0
   18.5338  -19.1762  -12.4696 C   0  0  0  0  0  0  0  0  0  0  0  0
   18.0100  -20.1503  -11.6077 C   0  0  0  0  0  0  0  0  0  0  0  0
   16.7085  -20.3276  -11.8888 N   0  0  0  0  0  0  0  0  0  0  0  0
   16.3251  -19.5249  -12.8935 C   0  0  0  0  0  0  0  0  0  0  0  0
   15.1066  -19.3314  -13.5173 C   0  0  0  0  0  0  0  0  0  0  0  0
   14.9979  -18.4043  -14.5276 C   0  0  0  0  0  0  0  0  0  0  0  0
   16.1114  -17.6683  -14.9151 C   0  0  0  0  0  0  0  0  0  0  0  0
   17.3032  -17.8877  -14.2738 C   0  0  0  0  0  0  0  0  0  0  0  0
   17.4462  -18.8164  -13.2512 C   0  0  0  0  0  0  0  0  0  0  0  0
   20.3044  -21.0315  -13.3551 C   0  0  0  0  0  0  0  0  0  0  0  0
   19.8548  -21.5960  -12.2852 O   0  0  0  0  0  0  0  0  0  0  0  0
   20.2313  -21.7796  -14.4935 O   0  0  0  0  0  0  0  0  0  0  0  0
  2  1  1  6
  2  3  1  0
  4  2  1  0
  4  5  1  6
  6  4  1  0
  6  7  2  0
  8  6  1  0
  9  8  1  0
  9 10  1  1
 11 10  1  0
 12 13  2  0
 12 11  1  0
 14  9  1  0
 15 14  2  0
 16 12  1  0
 17 14  1  0
 18 19  1  6
 18 17  1  0
 20 19  1  0
 21 20  2  0
 22 23  1  0
 22 21  1  0
 23 28  2  0
 24 25  2  0
 24 23  1  0
 25 26  1  0
 26 27  2  0
 28 20  1  0
 28 27  1  0
 29 18  1  0
 30 29  2  0
 31 29  1  0
M  END
$$$$
