VEW.pdb
     RDKit          3D

 31 32  0  0  1  0  0  0  0  0999 V2000
   29.3855  -20.1483  -12.8486 C   0  0  0  0  0  0  0  0  0  0  0  0
   28.7487  -19.7422  -14.1561 C   0  0  1  0  0  0  0  0  0  0  0  0
   29.5925  -20.1143  -15.3312 C   0  0  0  0  0  0  0  0  0  0  0  0
   27.3039  -20.1853  -14.2551 C   0  0  2  0  0  0  0  0  0  0  0  0
   26.7711  -19.7511  -15.5563 N   0  0  0  0  0  0  0  0  0  0  0  0
   26.4495  -19.6720  -13.1651 C   0  0  0  0  0  0  0  0  0  0  0  0
   25.9508  -18.5001  -13.2257 O   0  0  0  0  0  0  0  0  0  0  0  0
   26.1322  -20.4154  -12.0151 N   0  0  0  0  0  0  0  0  0  0  0  0
   25.2225  -19.9347  -10.9867 C   0  0  1  0  0  0  0  0  0  0  0  0
   23.8344  -19.7649  -11.4749 C   0  0  0  0  0  0  0  0  0  0  0  0
   23.4765  -20.8621  -12.4296 C   0  0  0  0  0  0  0  0  0  0  0  0
   22.1037  -20.6853  -12.9231 C   0  0  0  0  0  0  0  0  0  0  0  0
   21.3498  -19.7547  -12.5696 O   0  0  0  0  0  0  0  0  0  0  0  0
   25.2467  -20.9022   -9.8162 C   0  0  0  0  0  0  0  0  0  0  0  0
   25.4569  -22.1056  -10.0395 O   0  0  0  0  0  0  0  0  0  0  0  0
   21.5456  -21.5816  -13.8498 O   0  0  0  0  0  0  0  0  0  0  0  0
   25.0392  -20.4774   -8.4821 N   0  0  0  0  0  0  0  0  0  0  0  0
   25.0093  -21.3754   -7.3378 C   0  0  1  0  0  0  0  0  0  0  0  0
   25.3712  -20.6774   -6.0733 C   0  0  0  0  0  0  0  0  0  0  0  0
   26.5967  -19.8756   -6.2265 C   0  0  0  0  0  0  0  0  0  0  0  0
   26.8736  -18.9400   -7.2335 C   0  0  0  0  0  0  0  0  0  0  0  0
   28.1104  -18.4503   -7.0463 N   0  0  0  0  0  0  0  0  0  0  0  0
   28.6830  -19.0041   -5.9665 C   0  0  0  0  0  0  0  0  0  0  0  0
   29.9145  -18.8170   -5.3667 C   0  0  0  0  0  0  0  0  0  0  0  0
   30.2323  -19.5215   -4.2288 C   0  0  0  0  0  0  0  0  0  0  0  0
   29.3155  -20.4159   -3.6891 C   0  0  0  0  0  0  0  0  0  0  0  0
   28.1044  -20.5755   -4.3116 C   0  0  0  0  0  0  0  0  0  0  0  0
   27.7534  -19.8803   -5.4614 C   0  0  0  0  0  0  0  0  0  0  0  0
   23.8573  -22.2424   -7.3006 C   0  0  0  0  0  0  0  0  0  0  0  0
   22.8613  -21.8990   -8.0458 O   0  0  0  0  0  0  0  0  0  0  0  0
   23.6882  -23.3874   -6.5785 O   0  0  0  0  0  0  0  0  0  0  0  0
  2  1  1  1
  2  3  1  0
  4  2  1  0
  4  5  1  6
  6  4  1  0
  6  7  2  0
  8  6  1  0
  9  8  1  0
  9 10  1  6
 11 10  1  0
 12 13  2  0
 12 11  1  0
 14  9  1  0
 15 14  2  0
 16 12  1  0
 17 14  1  0
 18 19  1  1
 18 17  1  0
 20 19  1  0
 21 20  2  0
 22 23  1  0
 22 21  1  0
 23 28  2  0
 24 25  2  0
 24 23  1  0
 25 26  1  0
 26 27  2  0
 28 20  1  0
 28 27  1  0
 29 18  1  0
 30 29  2  0
 31 29  1  0
M  END
$$$$
