VEW.pdb
     RDKit          3D

 31 32  0  0  1  0  0  0  0  0999 V2000
   17.8341  -20.6898    2.6538 C   0  0  0  0  0  0  0  0  0  0  0  0
   16.5516  -20.0986    2.1194 C   0  0  1  0  0  0  0  0  0  0  0  0
   16.3358  -20.4335    0.6798 C   0  0  0  0  0  0  0  0  0  0  0  0
   15.3662  -20.3888    3.0161 C   0  0  2  0  0  0  0  0  0  0  0  0
   14.1903  -19.6880    2.4761 N   0  0  0  0  0  0  0  0  0  0  0  0
   15.5790  -20.0018    4.4256 C   0  0  0  0  0  0  0  0  0  0  0  0
   15.4276  -18.7919    4.7984 O   0  0  0  0  0  0  0  0  0  0  0  0
   15.9526  -20.9114    5.4299 N   0  0  0  0  0  0  0  0  0  0  0  0
   16.2179  -20.5110    6.8030 C   0  0  1  0  0  0  0  0  0  0  0  0
   16.2053  -21.6493    7.7507 C   0  0  0  0  0  0  0  0  0  0  0  0
   14.8023  -21.9716    8.1644 C   0  0  0  0  0  0  0  0  0  0  0  0
   14.7859  -23.1388    9.0570 C   0  0  0  0  0  0  0  0  0  0  0  0
   13.7858  -23.8642    9.2384 O   0  0  0  0  0  0  0  0  0  0  0  0
   17.5605  -19.8031    6.8592 C   0  0  0  0  0  0  0  0  0  0  0  0
   18.4624  -20.1700    6.0885 O   0  0  0  0  0  0  0  0  0  0  0  0
   15.9311  -23.5158    9.7783 O   0  0  0  0  0  0  0  0  0  0  0  0
   17.8158  -18.7406    7.7587 N   0  0  0  0  0  0  0  0  0  0  0  0
   19.0551  -17.9789    7.7871 C   0  0  1  0  0  0  0  0  0  0  0  0
   19.4286  -17.4735    6.4372 C   0  0  0  0  0  0  0  0  0  0  0  0
   18.8467  -16.1468    6.1733 C   0  0  0  0  0  0  0  0  0  0  0  0
   18.5346  -15.1584    7.1175 C   0  0  0  0  0  0  0  0  0  0  0  0
   17.9860  -14.1080    6.4849 N   0  0  0  0  0  0  0  0  0  0  0  0
   17.9120  -14.3337    5.1642 C   0  0  0  0  0  0  0  0  0  0  0  0
   17.4518  -13.5634    4.1125 C   0  0  0  0  0  0  0  0  0  0  0  0
   17.5202  -14.0523    2.8286 C   0  0  0  0  0  0  0  0  0  0  0  0
   18.0506  -15.3158    2.5960 C   0  0  0  0  0  0  0  0  0  0  0  0
   18.4967  -16.0510    3.6637 C   0  0  0  0  0  0  0  0  0  0  0  0
   18.4410  -15.5866    4.9713 C   0  0  0  0  0  0  0  0  0  0  0  0
   19.1475  -17.0469    8.8839 C   0  0  0  0  0  0  0  0  0  0  0  0
   20.2911  -16.4719    9.0484 O   0  0  0  0  0  0  0  0  0  0  0  0
   18.1737  -16.6904    9.7701 O   0  0  0  0  0  0  0  0  0  0  0  0
  2  1  1  1
  2  3  1  0
  4  2  1  0
  4  5  1  6
  6  4  1  0
  6  7  2  0
  8  6  1  0
  9  8  1  0
  9 10  1  1
 11 10  1  0
 12 13  2  0
 12 11  1  0
 14  9  1  0
 15 14  2  0
 16 12  1  0
 17 14  1  0
 18 19  1  6
 18 17  1  0
 20 19  1  0
 21 20  2  0
 22 23  1  0
 22 21  1  0
 23 28  2  0
 24 25  2  0
 24 23  1  0
 25 26  1  0
 26 27  2  0
 28 20  1  0
 28 27  1  0
 29 18  1  0
 30 29  2  0
 31 29  1  0
M  END
$$$$
