VEW.pdb
     RDKit          3D

 31 32  0  0  1  0  0  0  0  0999 V2000
   15.7677  -14.0998    4.9060 C   0  0  0  0  0  0  0  0  0  0  0  0
   14.3212  -13.8919    5.2859 C   0  0  1  0  0  0  0  0  0  0  0  0
   13.5355  -13.2621    4.1826 C   0  0  0  0  0  0  0  0  0  0  0  0
   13.6941  -15.1406    5.8698 C   0  0  2  0  0  0  0  0  0  0  0  0
   12.3482  -14.8016    6.3590 N   0  0  0  0  0  0  0  0  0  0  0  0
   14.4859  -15.7498    6.9577 C   0  0  0  0  0  0  0  0  0  0  0  0
   14.4545  -15.2644    8.1363 O   0  0  0  0  0  0  0  0  0  0  0  0
   15.3078  -16.8761    6.7794 N   0  0  0  0  0  0  0  0  0  0  0  0
   16.1191  -17.4419    7.8461 C   0  0  1  0  0  0  0  0  0  0  0  0
   15.7078  -18.8148    8.2203 C   0  0  0  0  0  0  0  0  0  0  0  0
   16.6206  -19.3674    9.2713 C   0  0  0  0  0  0  0  0  0  0  0  0
   15.9797  -19.3045   10.5922 C   0  0  0  0  0  0  0  0  0  0  0  0
   14.7452  -19.3606   10.7719 O   0  0  0  0  0  0  0  0  0  0  0  0
   17.5751  -17.4355    7.4138 C   0  0  0  0  0  0  0  0  0  0  0  0
   17.8618  -17.8334    6.2730 O   0  0  0  0  0  0  0  0  0  0  0  0
   16.7445  -19.1741   11.7635 O   0  0  0  0  0  0  0  0  0  0  0  0
   18.6132  -16.9905    8.2669 N   0  0  0  0  0  0  0  0  0  0  0  0
   20.0254  -17.0312    7.9193 C   0  0  1  0  0  0  0  0  0  0  0  0
   20.7015  -15.7316    8.1858 C   0  0  0  0  0  0  0  0  0  0  0  0
   20.2679  -14.6892    7.2404 C   0  0  0  0  0  0  0  0  0  0  0  0
   19.2474  -14.7880    6.2840 C   0  0  0  0  0  0  0  0  0  0  0  0
   19.1847  -13.6383    5.5922 N   0  0  0  0  0  0  0  0  0  0  0  0
   20.1073  -12.7682    6.0308 C   0  0  0  0  0  0  0  0  0  0  0  0
   20.4182  -11.4739    5.6574 C   0  0  0  0  0  0  0  0  0  0  0  0
   21.4219  -10.7983    6.3117 C   0  0  0  0  0  0  0  0  0  0  0  0
   22.1167  -11.4192    7.3430 C   0  0  0  0  0  0  0  0  0  0  0  0
   21.7808  -12.7036    7.6854 C   0  0  0  0  0  0  0  0  0  0  0  0
   20.7736  -13.4130    7.0443 C   0  0  0  0  0  0  0  0  0  0  0  0
   20.7049  -18.2250    8.3586 C   0  0  0  0  0  0  0  0  0  0  0  0
   19.9896  -19.0828    9.0053 O   0  0  0  0  0  0  0  0  0  0  0  0
   22.0123  -18.5668    8.1720 O   0  0  0  0  0  0  0  0  0  0  0  0
  2  1  1  6
  2  3  1  0
  4  2  1  0
  4  5  1  1
  6  4  1  0
  6  7  2  0
  8  6  1  0
  9  8  1  0
  9 10  1  6
 11 10  1  0
 12 13  2  0
 12 11  1  0
 14  9  1  0
 15 14  2  0
 16 12  1  0
 17 14  1  0
 18 19  1  1
 18 17  1  0
 20 19  1  0
 21 20  2  0
 22 23  1  0
 22 21  1  0
 23 28  2  0
 24 25  2  0
 24 23  1  0
 25 26  1  0
 26 27  2  0
 28 20  1  0
 28 27  1  0
 29 18  1  0
 30 29  2  0
 31 29  1  0
M  END
$$$$
