VEW.pdb
     RDKit          3D

 31 32  0  0  1  0  0  0  0  0999 V2000
   29.8276  -23.8233  -18.4565 C   0  0  0  0  0  0  0  0  0  0  0  0
   29.0781  -23.0748  -17.3805 C   0  0  1  0  0  0  0  0  0  0  0  0
   29.8042  -23.0910  -16.0752 C   0  0  0  0  0  0  0  0  0  0  0  0
   28.6367  -21.6997  -17.8364 C   0  0  2  0  0  0  0  0  0  0  0  0
   29.8222  -20.9568  -18.2926 N   0  0  0  0  0  0  0  0  0  0  0  0
   27.9293  -20.9275  -16.7948 C   0  0  0  0  0  0  0  0  0  0  0  0
   28.5519  -20.0727  -16.0826 O   0  0  0  0  0  0  0  0  0  0  0  0
   26.5585  -21.0734  -16.5203 N   0  0  0  0  0  0  0  0  0  0  0  0
   25.8645  -20.2886  -15.5111 C   0  0  1  0  0  0  0  0  0  0  0  0
   24.5739  -19.7414  -15.9896 C   0  0  0  0  0  0  0  0  0  0  0  0
   23.8660  -19.0233  -14.8821 C   0  0  0  0  0  0  0  0  0  0  0  0
   22.4577  -19.4383  -14.8193 C   0  0  0  0  0  0  0  0  0  0  0  0
   21.8793  -20.0817  -15.7198 O   0  0  0  0  0  0  0  0  0  0  0  0
   25.6386  -21.1539  -14.2834 C   0  0  0  0  0  0  0  0  0  0  0  0
   25.4414  -22.3702  -14.4374 O   0  0  0  0  0  0  0  0  0  0  0  0
   21.6586  -19.1246  -13.7072 O   0  0  0  0  0  0  0  0  0  0  0  0
   25.6468  -20.6201  -12.9726 N   0  0  0  0  0  0  0  0  0  0  0  0
   25.3846  -21.4022  -11.7742 C   0  0  1  0  0  0  0  0  0  0  0  0
   26.6186  -21.6174  -10.9692 C   0  0  0  0  0  0  0  0  0  0  0  0
   26.6068  -20.8188   -9.7321 C   0  0  0  0  0  0  0  0  0  0  0  0
   25.5794  -19.9793   -9.2784 C   0  0  0  0  0  0  0  0  0  0  0  0
   25.9651  -19.3987   -8.1301 N   0  0  0  0  0  0  0  0  0  0  0  0
   27.1972  -19.8018   -7.7836 C   0  0  0  0  0  0  0  0  0  0  0  0
   28.0030  -19.5062   -6.6998 C   0  0  0  0  0  0  0  0  0  0  0  0
   29.2401  -20.0972   -6.5890 C   0  0  0  0  0  0  0  0  0  0  0  0
   29.6726  -20.9868   -7.5655 C   0  0  0  0  0  0  0  0  0  0  0  0
   28.8464  -21.2554   -8.6261 C   0  0  0  0  0  0  0  0  0  0  0  0
   27.5926  -20.6750   -8.7674 C   0  0  0  0  0  0  0  0  0  0  0  0
   24.1977  -21.0023  -11.0590 C   0  0  0  0  0  0  0  0  0  0  0  0
   23.7207  -19.8394  -11.3516 O   0  0  0  0  0  0  0  0  0  0  0  0
   23.5091  -21.7025  -10.1122 O   0  0  0  0  0  0  0  0  0  0  0  0
  2  1  1  6
  2  3  1  0
  4  2  1  0
  4  5  1  1
  6  4  1  0
  6  7  2  0
  8  6  1  0
  9  8  1  0
  9 10  1  6
 11 10  1  0
 12 13  2  0
 12 11  1  0
 14  9  1  0
 15 14  2  0
 16 12  1  0
 17 14  1  0
 18 19  1  1
 18 17  1  0
 20 19  1  0
 21 20  2  0
 22 23  1  0
 22 21  1  0
 23 28  2  0
 24 25  2  0
 24 23  1  0
 25 26  1  0
 26 27  2  0
 28 20  1  0
 28 27  1  0
 29 18  1  0
 30 29  2  0
 31 29  1  0
M  END
$$$$
