TLE.pdb
     RDKit          3D

 25 24  0  0  1  0  0  0  0  0999 V2000
    6.8147  -17.9106   22.3813 C   0  0  0  0  0  0  0  0  0  0  0  0
    7.6637  -17.4094   21.2365 C   0  0  1  0  0  0  0  0  0  0  0  0
    7.3727  -18.1028   20.0734 O   0  0  0  0  0  0  0  0  0  0  0  0
    7.5035  -15.9313   21.0599 C   0  0  2  0  0  0  0  0  0  0  0  0
    8.1306  -15.5084   19.8435 N   0  0  0  0  0  0  0  0  0  0  0  0
    8.0023  -15.2443   22.2621 C   0  0  0  0  0  0  0  0  0  0  0  0
    9.2225  -14.8754   22.2003 O   0  0  0  0  0  0  0  0  0  0  0  0
    5.8979  -12.2049   27.1913 C   0  0  0  0  0  0  0  0  0  0  0  0
    7.0853  -12.7505   26.4833 C   0  0  2  0  0  0  0  0  0  0  0  0
    8.0853  -11.6091   26.2077 C   0  0  0  0  0  0  0  0  0  0  0  0
    6.8328  -13.4771   25.2361 C   0  0  0  0  0  0  0  0  0  0  0  0
    7.8850  -14.2069   24.5248 C   0  0  2  0  0  0  0  0  0  0  0  0
    7.2778  -14.9767   23.4135 N   0  0  0  0  0  0  0  0  0  0  0  0
    8.7647  -15.0771   25.3038 C   0  0  0  0  0  0  0  0  0  0  0  0
    9.7917  -14.6847   25.9405 O   0  0  0  0  0  0  0  0  0  0  0  0
    8.4481  -16.4866   25.3566 N   0  0  0  0  0  0  0  0  0  0  0  0
    9.5127  -17.4242   25.7522 C   0  0  1  0  0  0  0  0  0  0  0  0
   10.6312  -17.3471   24.7647 C   0  0  0  0  0  0  0  0  0  0  0  0
   11.8245  -18.1198   25.1781 C   0  0  0  0  0  0  0  0  0  0  0  0
   12.9504  -18.1454   24.2484 C   0  0  0  0  0  0  0  0  0  0  0  0
   14.1468  -18.1225   24.6083 O   0  0  0  0  0  0  0  0  0  0  0  0
    9.9160  -17.1494   27.1558 C   0  0  0  0  0  0  0  0  0  0  0  0
    9.4743  -16.1839   27.8129 O   0  0  0  0  0  0  0  0  0  0  0  0
   12.6801  -18.1983   22.8884 O   0  0  0  0  0  0  0  0  0  0  0  0
   10.8265  -17.9818   27.8078 O   0  0  0  0  0  0  0  0  0  0  0  0
  2  1  1  1
  3  2  1  0
  4  6  1  0
  4  2  1  0
  4  5  1  6
  6 13  1  0
  7  6  2  0
  9  8  1  6
  9 11  1  0
 10  9  1  0
 12 11  1  1
 13 12  1  0
 14 15  2  0
 14 12  1  0
 16 14  1  0
 17 16  1  0
 17 22  1  0
 17 18  1  6
 19 18  1  0
 20 19  1  0
 20 21  2  0
 22 25  1  0
 23 22  2  0
 24 20  1  0
M  END
$$$$
