TLE.pdb
     RDKit          3D

 25 24  0  0  1  0  0  0  0  0999 V2000
    7.1118  -17.0328   19.1599 C   0  0  0  0  0  0  0  0  0  0  0  0
    7.5827  -16.6948   20.5551 C   0  0  1  0  0  0  0  0  0  0  0  0
    8.4787  -17.6472   21.0117 O   0  0  0  0  0  0  0  0  0  0  0  0
    8.1620  -15.3150   20.6037 C   0  0  2  0  0  0  0  0  0  0  0  0
    9.3116  -15.2318   19.7534 N   0  0  0  0  0  0  0  0  0  0  0  0
    8.4251  -14.9507   22.0052 C   0  0  0  0  0  0  0  0  0  0  0  0
    9.6293  -15.1301   22.3879 O   0  0  0  0  0  0  0  0  0  0  0  0
    5.6271  -12.4663   26.9296 C   0  0  0  0  0  0  0  0  0  0  0  0
    6.8984  -12.9820   26.3580 C   0  0  2  0  0  0  0  0  0  0  0  0
    8.0362  -11.9858   26.6605 C   0  0  0  0  0  0  0  0  0  0  0  0
    6.9001  -13.2896   24.9253 C   0  0  0  0  0  0  0  0  0  0  0  0
    7.8900  -14.1794   24.3135 C   0  0  2  0  0  0  0  0  0  0  0  0
    7.5018  -14.4470   22.9085 N   0  0  0  0  0  0  0  0  0  0  0  0
    8.1915  -15.4402   24.9899 C   0  0  0  0  0  0  0  0  0  0  0  0
    7.3869  -16.4183   25.0895 O   0  0  0  0  0  0  0  0  0  0  0  0
    9.4978  -15.5901   25.5905 N   0  0  0  0  0  0  0  0  0  0  0  0
    9.8502  -16.8966   26.1718 C   0  0  1  0  0  0  0  0  0  0  0  0
   10.8642  -17.5666   25.3029 C   0  0  0  0  0  0  0  0  0  0  0  0
   12.0564  -16.7266   25.0486 C   0  0  0  0  0  0  0  0  0  0  0  0
   13.1182  -17.3140   24.2360 C   0  0  0  0  0  0  0  0  0  0  0  0
   12.9123  -18.1263   23.3090 O   0  0  0  0  0  0  0  0  0  0  0  0
   10.2810  -16.7095   27.5817 C   0  0  0  0  0  0  0  0  0  0  0  0
   10.6663  -17.6514   28.3050 O   0  0  0  0  0  0  0  0  0  0  0  0
   14.4303  -16.9519   24.5054 O   0  0  0  0  0  0  0  0  0  0  0  0
   10.2707  -15.4414   28.1638 O   0  0  0  0  0  0  0  0  0  0  0  0
  2  1  1  6
  3  2  1  0
  4  6  1  0
  4  2  1  0
  4  5  1  6
  6 13  1  0
  7  6  2  0
  9  8  1  6
  9 11  1  0
 10  9  1  0
 12 11  1  1
 13 12  1  0
 14 15  2  0
 14 12  1  0
 16 14  1  0
 17 16  1  0
 17 22  1  0
 17 18  1  6
 19 18  1  0
 20 19  1  0
 20 21  2  0
 22 25  1  0
 23 22  2  0
 24 20  1  0
M  END
$$$$
