TLE.pdb
     RDKit          3D

 25 24  0  0  1  0  0  0  0  0999 V2000
    7.0234  -17.9639   22.0814 C   0  0  0  0  0  0  0  0  0  0  0  0
    7.9745  -17.4880   21.0083 C   0  0  1  0  0  0  0  0  0  0  0  0
    7.6772  -18.0838   19.7938 O   0  0  0  0  0  0  0  0  0  0  0  0
    7.9681  -15.9939   20.9133 C   0  0  2  0  0  0  0  0  0  0  0  0
    8.7577  -15.5666   19.7972 N   0  0  0  0  0  0  0  0  0  0  0  0
    8.3950  -15.4260   22.2023 C   0  0  0  0  0  0  0  0  0  0  0  0
    9.6569  -15.4206   22.3932 O   0  0  0  0  0  0  0  0  0  0  0  0
    6.1972  -12.2598   27.0058 C   0  0  0  0  0  0  0  0  0  0  0  0
    7.4096  -12.7960   26.3341 C   0  0  2  0  0  0  0  0  0  0  0  0
    8.4801  -11.6887   26.2512 C   0  0  0  0  0  0  0  0  0  0  0  0
    7.2219  -13.3806   25.0036 C   0  0  0  0  0  0  0  0  0  0  0  0
    8.1312  -14.3883   24.4524 C   0  0  2  0  0  0  0  0  0  0  0  0
    7.5649  -14.9158   23.1886 N   0  0  0  0  0  0  0  0  0  0  0  0
    8.5299  -15.4995   25.3151 C   0  0  0  0  0  0  0  0  0  0  0  0
    7.7788  -16.4729   25.6347 O   0  0  0  0  0  0  0  0  0  0  0  0
    9.8745  -15.4952   25.8457 N   0  0  0  0  0  0  0  0  0  0  0  0
   10.3555  -16.7064   26.5316 C   0  0  1  0  0  0  0  0  0  0  0  0
   11.6934  -17.0854   25.9852 C   0  0  0  0  0  0  0  0  0  0  0  0
   11.6119  -18.0656   24.8787 C   0  0  0  0  0  0  0  0  0  0  0  0
   12.8629  -18.4152   24.2115 C   0  0  0  0  0  0  0  0  0  0  0  0
   13.9914  -18.2394   24.7187 O   0  0  0  0  0  0  0  0  0  0  0  0
   10.3359  -16.4826   28.0006 C   0  0  0  0  0  0  0  0  0  0  0  0
   10.6745  -17.3565   28.8255 O   0  0  0  0  0  0  0  0  0  0  0  0
   12.7987  -18.9744   22.9432 O   0  0  0  0  0  0  0  0  0  0  0  0
    9.9280  -15.2557   28.5253 O   0  0  0  0  0  0  0  0  0  0  0  0
  2  1  1  1
  3  2  1  0
  4  6  1  0
  4  2  1  0
  4  5  1  6
  6 13  1  0
  7  6  2  0
  9  8  1  6
  9 11  1  0
 10  9  1  0
 12 11  1  1
 13 12  1  0
 14 15  2  0
 14 12  1  0
 16 14  1  0
 17 16  1  0
 17 22  1  0
 17 18  1  6
 19 18  1  0
 20 19  1  0
 20 21  2  0
 22 25  1  0
 23 22  2  0
 24 20  1  0
M  END
$$$$
