TLE.pdb
     RDKit          3D

 25 24  0  0  1  0  0  0  0  0999 V2000
    6.2075  -16.0535   19.5135 C   0  0  0  0  0  0  0  0  0  0  0  0
    6.8925  -16.0365   20.8600 C   0  0  1  0  0  0  0  0  0  0  0  0
    7.7734  -17.0994   20.9725 O   0  0  0  0  0  0  0  0  0  0  0  0
    7.5698  -14.7228   21.0983 C   0  0  2  0  0  0  0  0  0  0  0  0
    8.5757  -14.4981   20.1036 N   0  0  0  0  0  0  0  0  0  0  0  0
    8.0738  -14.6828   22.4806 C   0  0  0  0  0  0  0  0  0  0  0  0
    9.3301  -14.8737   22.5980 O   0  0  0  0  0  0  0  0  0  0  0  0
    8.0649  -11.4595   25.9988 C   0  0  0  0  0  0  0  0  0  0  0  0
    6.8855  -12.3425   25.8034 C   0  0  2  0  0  0  0  0  0  0  0  0
    5.7704  -11.9311   26.7862 C   0  0  0  0  0  0  0  0  0  0  0  0
    7.1160  -13.7850   25.9178 C   0  0  0  0  0  0  0  0  0  0  0  0
    7.9446  -14.5267   24.9642 C   0  0  2  0  0  0  0  0  0  0  0  0
    7.3188  -14.4624   23.6224 N   0  0  0  0  0  0  0  0  0  0  0  0
    8.2858  -15.9124   25.2827 C   0  0  0  0  0  0  0  0  0  0  0  0
    7.4567  -16.8746   25.3061 O   0  0  0  0  0  0  0  0  0  0  0  0
    9.6645  -16.2151   25.5944 N   0  0  0  0  0  0  0  0  0  0  0  0
   10.0099  -17.6033   25.9441 C   0  0  1  0  0  0  0  0  0  0  0  0
   11.0134  -18.1240   24.9673 C   0  0  0  0  0  0  0  0  0  0  0  0
   12.2100  -17.2604   24.8489 C   0  0  0  0  0  0  0  0  0  0  0  0
   13.2025  -17.6395   23.8470 C   0  0  0  0  0  0  0  0  0  0  0  0
   13.2245  -17.1802   22.6850 O   0  0  0  0  0  0  0  0  0  0  0  0
   10.4503  -17.6602   27.3623 C   0  0  0  0  0  0  0  0  0  0  0  0
   10.5211  -16.6500   28.0926 O   0  0  0  0  0  0  0  0  0  0  0  0
   14.1775  -18.5609   24.2018 O   0  0  0  0  0  0  0  0  0  0  0  0
   10.8099  -18.8761   27.9447 O   0  0  0  0  0  0  0  0  0  0  0  0
  2  1  1  6
  3  2  1  0
  4  6  1  0
  4  2  1  0
  4  5  1  6
  6 13  1  0
  7  6  2  0
  9  8  1  1
  9 11  1  0
 10  9  1  0
 12 11  1  1
 13 12  1  0
 14 15  2  0
 14 12  1  0
 16 14  1  0
 17 16  1  0
 17 22  1  0
 17 18  1  6
 19 18  1  0
 20 19  1  0
 20 21  2  0
 22 25  1  0
 23 22  2  0
 24 20  1  0
M  END
$$$$
