CEE.pdb
     RDKit          3D

 25 24  0  0  1  0  0  0  0  0999 V2000
   15.2894  -13.0115  -11.8017 N   0  0  0  0  0  0  0  0  0  0  0  0
   14.6488  -11.7897  -12.2102 C   0  0  1  0  0  0  0  0  0  0  0  0
   13.2248  -11.6908  -11.6842 C   0  0  0  0  0  0  0  0  0  0  0  0
   12.2372  -13.0721  -12.3487 S   0  0  0  0  0  0  0  0  0  0  0  0
   15.4066  -10.6441  -11.6524 C   0  0  0  0  0  0  0  0  0  0  0  0
   15.9101  -10.7028  -10.5260 O   0  0  0  0  0  0  0  0  0  0  0  0
   15.5827   -9.4342  -12.3926 N   0  0  0  0  0  0  0  0  0  0  0  0
   16.4068   -8.3549  -11.9590 C   0  0  1  0  0  0  0  0  0  0  0  0
   17.4986   -8.0129  -12.9388 C   0  0  0  0  0  0  0  0  0  0  0  0
   18.6354   -8.9982  -12.8609 C   0  0  0  0  0  0  0  0  0  0  0  0
   19.7704   -8.5957  -13.7317 C   0  0  0  0  0  0  0  0  0  0  0  0
   20.5583   -7.7143  -13.3104 O   0  0  0  0  0  0  0  0  0  0  0  0
   15.6291   -7.1733  -11.5387 C   0  0  0  0  0  0  0  0  0  0  0  0
   14.6597   -6.8189  -12.2362 O   0  0  0  0  0  0  0  0  0  0  0  0
   19.9885   -9.1501  -14.9763 O   0  0  0  0  0  0  0  0  0  0  0  0
   15.9593   -6.4518  -10.3824 N   0  0  0  0  0  0  0  0  0  0  0  0
   15.0794   -5.3261   -9.9883 C   0  0  1  0  0  0  0  0  0  0  0  0
   14.6620   -5.5030   -8.5756 C   0  0  0  0  0  0  0  0  0  0  0  0
   13.8612   -4.4095   -7.9760 C   0  0  0  0  0  0  0  0  0  0  0  0
   13.4716   -4.5967   -6.5725 C   0  0  0  0  0  0  0  0  0  0  0  0
   13.3112   -5.7259   -6.0028 O   0  0  0  0  0  0  0  0  0  0  0  0
   15.7282   -4.0946  -10.3893 C   0  0  0  0  0  0  0  0  0  0  0  0
   15.0016   -2.9411  -10.6422 O   0  0  0  0  0  0  0  0  0  0  0  0
   13.2584   -3.4611   -5.7937 O   0  0  0  0  0  0  0  0  0  0  0  0
   16.9757   -4.0345  -10.5205 O   0  0  0  0  0  0  0  0  0  0  0  0
  2  5  1  0
  2  1  1  1
  3  2  1  0
  4  3  1  0
  5  6  2  0
  7  8  1  0
  7  5  1  0
  8  9  1  6
  9 10  1  0
 10 11  1  0
 11 15  1  0
 11 12  2  0
 13  8  1  0
 14 13  2  0
 16 13  1  0
 17 18  1  1
 17 16  1  0
 18 19  1  0
 20 19  1  0
 20 21  2  0
 22 23  1  0
 22 17  1  0
 24 20  1  0
 25 22  2  0
M  END
$$$$
