CEE.pdb
     RDKit          3D

 25 24  0  0  1  0  0  0  0  0999 V2000
   18.0881  -11.8410  -14.9678 N   0  0  0  0  0  0  0  0  0  0  0  0
   18.1084  -10.7508  -15.9064 C   0  0  1  0  0  0  0  0  0  0  0  0
   16.7442  -10.0912  -16.0415 C   0  0  0  0  0  0  0  0  0  0  0  0
   15.6047  -11.2284  -16.8978 S   0  0  0  0  0  0  0  0  0  0  0  0
   19.0523   -9.7175  -15.4170 C   0  0  0  0  0  0  0  0  0  0  0  0
   18.8426   -9.1145  -14.3596 O   0  0  0  0  0  0  0  0  0  0  0  0
   20.2348   -9.3815  -16.1461 N   0  0  0  0  0  0  0  0  0  0  0  0
   21.1449   -8.3589  -15.7485 C   0  0  1  0  0  0  0  0  0  0  0  0
   22.5677   -8.6424  -16.1534 C   0  0  0  0  0  0  0  0  0  0  0  0
   23.4982   -7.5510  -15.6927 C   0  0  0  0  0  0  0  0  0  0  0  0
   24.8880   -7.7788  -16.1671 C   0  0  0  0  0  0  0  0  0  0  0  0
   25.5119   -6.8099  -16.6639 O   0  0  0  0  0  0  0  0  0  0  0  0
   20.6989   -7.0093  -16.1448 C   0  0  0  0  0  0  0  0  0  0  0  0
   19.9731   -6.8927  -17.1505 O   0  0  0  0  0  0  0  0  0  0  0  0
   25.5129   -9.0062  -16.0828 O   0  0  0  0  0  0  0  0  0  0  0  0
   21.0742   -5.8703  -15.4177 N   0  0  0  0  0  0  0  0  0  0  0  0
   20.4523   -4.5751  -15.7815 C   0  0  1  0  0  0  0  0  0  0  0  0
   18.9768   -4.7298  -15.8024 C   0  0  0  0  0  0  0  0  0  0  0  0
   18.1797   -3.4911  -15.9663 C   0  0  0  0  0  0  0  0  0  0  0  0
   16.8574   -3.4915  -15.3273 C   0  0  0  0  0  0  0  0  0  0  0  0
   15.7449   -3.4827  -15.9498 O   0  0  0  0  0  0  0  0  0  0  0  0
   21.0480   -3.5482  -14.9515 C   0  0  0  0  0  0  0  0  0  0  0  0
   21.0198   -2.2116  -15.3191 O   0  0  0  0  0  0  0  0  0  0  0  0
   16.8016   -3.5024  -13.9351 O   0  0  0  0  0  0  0  0  0  0  0  0
   21.6111   -3.8397  -13.8675 O   0  0  0  0  0  0  0  0  0  0  0  0
  2  5  1  0
  2  1  1  1
  3  2  1  0
  4  3  1  0
  5  6  2  0
  7  8  1  0
  7  5  1  0
  8  9  1  6
  9 10  1  0
 10 11  1  0
 11 15  1  0
 11 12  2  0
 13  8  1  0
 14 13  2  0
 16 13  1  0
 17 18  1  1
 17 16  1  0
 18 19  1  0
 20 19  1  0
 20 21  2  0
 22 23  1  0
 22 17  1  0
 24 20  1  0
 25 22  2  0
M  END
$$$$
