CEE.pdb
     RDKit          3D

 25 24  0  0  1  0  0  0  0  0999 V2000
   20.7115  -12.3474  -16.0177 N   0  0  0  0  0  0  0  0  0  0  0  0
   20.0297  -11.3076  -16.7414 C   0  0  1  0  0  0  0  0  0  0  0  0
   18.7107  -11.7914  -17.3248 C   0  0  0  0  0  0  0  0  0  0  0  0
   17.8963  -10.4156  -18.2017 S   0  0  0  0  0  0  0  0  0  0  0  0
   19.7193  -10.2000  -15.8060 C   0  0  0  0  0  0  0  0  0  0  0  0
   19.0448  -10.3962  -14.7899 O   0  0  0  0  0  0  0  0  0  0  0  0
   20.1862   -8.8700  -16.0426 N   0  0  0  0  0  0  0  0  0  0  0  0
   19.8684   -7.7601  -15.2066 C   0  0  1  0  0  0  0  0  0  0  0  0
   21.0862   -7.0340  -14.6981 C   0  0  0  0  0  0  0  0  0  0  0  0
   20.7094   -5.9262  -13.7494 C   0  0  0  0  0  0  0  0  0  0  0  0
   21.9095   -5.2750  -13.1626 C   0  0  0  0  0  0  0  0  0  0  0  0
   22.3915   -4.2774  -13.7520 O   0  0  0  0  0  0  0  0  0  0  0  0
   18.8765   -6.8514  -15.8133 C   0  0  0  0  0  0  0  0  0  0  0  0
   19.0217   -6.5210  -17.0056 O   0  0  0  0  0  0  0  0  0  0  0  0
   22.5090   -5.7229  -12.0033 O   0  0  0  0  0  0  0  0  0  0  0  0
   17.7874   -6.3597  -15.0792 N   0  0  0  0  0  0  0  0  0  0  0  0
   16.8398   -5.4487  -15.7640 C   0  0  1  0  0  0  0  0  0  0  0  0
   15.4582   -5.7548  -15.3179 C   0  0  0  0  0  0  0  0  0  0  0  0
   14.3922   -4.8299  -15.7703 C   0  0  0  0  0  0  0  0  0  0  0  0
   13.0395   -5.1233  -15.2798 C   0  0  0  0  0  0  0  0  0  0  0  0
   12.0044   -4.4207  -15.5256 O   0  0  0  0  0  0  0  0  0  0  0  0
   17.3475   -4.0986  -15.6306 C   0  0  0  0  0  0  0  0  0  0  0  0
   17.7885   -3.6067  -14.4115 O   0  0  0  0  0  0  0  0  0  0  0  0
   12.8608   -6.2532  -14.4841 O   0  0  0  0  0  0  0  0  0  0  0  0
   17.4038   -3.3286  -16.6211 O   0  0  0  0  0  0  0  0  0  0  0  0
  2  5  1  0
  2  1  1  1
  3  2  1  0
  4  3  1  0
  5  6  2  0
  7  8  1  0
  7  5  1  0
  8  9  1  6
  9 10  1  0
 10 11  1  0
 11 15  1  0
 11 12  2  0
 13  8  1  0
 14 13  2  0
 16 13  1  0
 17 18  1  1
 17 16  1  0
 18 19  1  0
 20 19  1  0
 20 21  2  0
 22 23  1  0
 22 17  1  0
 24 20  1  0
 25 22  2  0
M  END
$$$$
