CEE.pdb
     RDKit          3D

 25 24  0  0  1  0  0  0  0  0999 V2000
   28.0041  -15.4006  -20.2080 N   0  0  0  0  0  0  0  0  0  0  0  0
   26.8914  -15.4341  -19.2966 C   0  0  1  0  0  0  0  0  0  0  0  0
   25.7730  -14.4982  -19.7297 C   0  0  0  0  0  0  0  0  0  0  0  0
   26.3575  -12.7735  -19.6364 S   0  0  0  0  0  0  0  0  0  0  0  0
   26.3343  -16.8078  -19.2741 C   0  0  0  0  0  0  0  0  0  0  0  0
   26.0318  -17.3884  -20.3216 O   0  0  0  0  0  0  0  0  0  0  0  0
   26.1271  -17.5093  -18.0462 N   0  0  0  0  0  0  0  0  0  0  0  0
   25.6874  -18.8634  -17.9738 C   0  0  1  0  0  0  0  0  0  0  0  0
   26.7091  -19.7857  -17.3620 C   0  0  0  0  0  0  0  0  0  0  0  0
   26.2133  -21.2077  -17.3246 C   0  0  0  0  0  0  0  0  0  0  0  0
   27.2222  -22.1248  -16.7335 C   0  0  0  0  0  0  0  0  0  0  0  0
   26.9245  -23.3382  -16.6156 O   0  0  0  0  0  0  0  0  0  0  0  0
   24.3547  -19.0005  -17.3552 C   0  0  0  0  0  0  0  0  0  0  0  0
   24.0867  -18.3060  -16.3564 O   0  0  0  0  0  0  0  0  0  0  0  0
   28.4641  -21.6954  -16.3123 O   0  0  0  0  0  0  0  0  0  0  0  0
   23.3972  -19.8887  -17.8664 N   0  0  0  0  0  0  0  0  0  0  0  0
   22.0834  -19.9652  -17.1845 C   0  0  1  0  0  0  0  0  0  0  0  0
   22.2975  -20.2025  -15.7356 C   0  0  0  0  0  0  0  0  0  0  0  0
   21.0888  -20.2202  -14.8782 C   0  0  0  0  0  0  0  0  0  0  0  0
   21.3287  -20.3642  -13.4365 C   0  0  0  0  0  0  0  0  0  0  0  0
   21.4437  -21.4753  -12.8221 O   0  0  0  0  0  0  0  0  0  0  0  0
   21.2959  -18.8263  -17.6099 C   0  0  0  0  0  0  0  0  0  0  0  0
   19.9565  -18.9550  -17.9445 O   0  0  0  0  0  0  0  0  0  0  0  0
   21.4412  -19.2052  -12.6712 O   0  0  0  0  0  0  0  0  0  0  0  0
   21.8058  -17.6814  -17.6889 O   0  0  0  0  0  0  0  0  0  0  0  0
  2  5  1  0
  2  1  1  6
  3  2  1  0
  4  3  1  0
  5  6  2  0
  7  8  1  0
  7  5  1  0
  8  9  1  1
  9 10  1  0
 10 11  1  0
 11 15  1  0
 11 12  2  0
 13  8  1  0
 14 13  2  0
 16 13  1  0
 17 18  1  1
 17 16  1  0
 18 19  1  0
 20 19  1  0
 20 21  2  0
 22 23  1  0
 22 17  1  0
 24 20  1  0
 25 22  2  0
M  END
$$$$
