LEY.pdb
     RDKit          3D

 30 30  0  0  1  0  0  0  0  0999 V2000
   25.8092  -13.9429  -18.1518 C   0  0  0  0  0  0  0  0  0  0  0  0
   26.8556  -12.8362  -18.2898 C   0  0  1  0  0  0  0  0  0  0  0  0
   26.8983  -12.4975  -19.7903 C   0  0  0  0  0  0  0  0  0  0  0  0
   26.3118  -11.6306  -17.5339 C   0  0  0  0  0  0  0  0  0  0  0  0
   27.2481  -10.4427  -17.5816 C   0  0  2  0  0  0  0  0  0  0  0  0
   28.4293  -10.7666  -16.7562 N   0  0  0  0  0  0  0  0  0  0  0  0
   26.6841   -9.2107  -17.0261 C   0  0  0  0  0  0  0  0  0  0  0  0
   26.7130   -8.9443  -15.8009 O   0  0  0  0  0  0  0  0  0  0  0  0
   26.0635   -8.2381  -17.8908 N   0  0  0  0  0  0  0  0  0  0  0  0
   25.4409   -7.0341  -17.3807 C   0  0  1  0  0  0  0  0  0  0  0  0
   25.4311   -5.9352  -18.4380 C   0  0  0  0  0  0  0  0  0  0  0  0
   24.7122   -4.7036  -17.9160 C   0  0  0  0  0  0  0  0  0  0  0  0
   24.8350   -3.6814  -19.0180 C   0  0  0  0  0  0  0  0  0  0  0  0
   23.9486   -3.5827  -19.9100 O   0  0  0  0  0  0  0  0  0  0  0  0
   24.0290   -7.3153  -17.0680 C   0  0  0  0  0  0  0  0  0  0  0  0
   23.3826   -8.1067  -17.7810 O   0  0  0  0  0  0  0  0  0  0  0  0
   25.9366   -2.8115  -19.0795 O   0  0  0  0  0  0  0  0  0  0  0  0
   17.6100  -11.6789  -15.7552 O   0  0  0  0  0  0  0  0  0  0  0  0
   18.7156  -10.8654  -15.5453 C   0  0  0  0  0  0  0  0  0  0  0  0
   19.5636  -10.5560  -16.5927 C   0  0  0  0  0  0  0  0  0  0  0  0
   20.6719   -9.7442  -16.4001 C   0  0  0  0  0  0  0  0  0  0  0  0
   20.9265   -9.2422  -15.1463 C   0  0  0  0  0  0  0  0  0  0  0  0
   22.0802   -8.3879  -14.9026 C   0  0  0  0  0  0  0  0  0  0  0  0
   22.0382   -7.0409  -15.5494 C   0  0  2  0  0  0  0  0  0  0  0  0
   23.3880   -6.6952  -15.9625 N   0  0  0  0  0  0  0  0  0  0  0  0
   21.5859   -5.9717  -14.6250 C   0  0  0  0  0  0  0  0  0  0  0  0
   22.3779   -5.1591  -14.0520 O   0  0  0  0  0  0  0  0  0  0  0  0
   20.0915   -9.5332  -14.0662 C   0  0  0  0  0  0  0  0  0  0  0  0
   18.9797  -10.3558  -14.2897 C   0  0  0  0  0  0  0  0  0  0  0  0
   20.2451   -5.7869  -14.3195 O   0  0  0  0  0  0  0  0  0  0  0  0
  2  3  1  6
  2  1  1  0
  4  2  1  0
  5  7  1  0
  5  4  1  0
  5  6  1  1
  7  8  2  0
  9 10  1  0
  9  7  1  0
 10 11  1  6
 12 11  1  0
 13 12  1  0
 13 17  1  0
 14 13  2  0
 15 16  2  0
 15 10  1  0
 19 20  2  0
 19 18  1  0
 21 20  1  0
 22 21  2  0
 23 22  1  0
 24 23  1  1
 24 25  1  0
 25 15  1  0
 26 24  1  0
 26 30  1  0
 27 26  2  0
 28 22  1  0
 28 29  2  0
 29 19  1  0
M  END
$$$$
