LEY.pdb
     RDKit          3D

 30 30  0  0  1  0  0  0  0  0999 V2000
   24.4712  -12.0891  -15.1798 C   0  0  0  0  0  0  0  0  0  0  0  0
   23.4407  -11.3053  -15.9936 C   0  0  1  0  0  0  0  0  0  0  0  0
   22.5249  -12.3674  -16.6269 C   0  0  0  0  0  0  0  0  0  0  0  0
   22.6265  -10.4943  -14.9936 C   0  0  0  0  0  0  0  0  0  0  0  0
   21.5507   -9.6624  -15.6574 C   0  0  2  0  0  0  0  0  0  0  0  0
   22.1390   -9.0434  -16.8624 N   0  0  0  0  0  0  0  0  0  0  0  0
   21.0490   -8.5608  -14.8330 C   0  0  0  0  0  0  0  0  0  0  0  0
   20.5441   -8.7384  -13.6989 O   0  0  0  0  0  0  0  0  0  0  0  0
   21.1228   -7.2017  -15.3088 N   0  0  0  0  0  0  0  0  0  0  0  0
   20.7104   -6.0743  -14.4987 C   0  0  1  0  0  0  0  0  0  0  0  0
   21.6383   -4.8827  -14.7097 C   0  0  0  0  0  0  0  0  0  0  0  0
   21.2646   -3.7473  -13.7730 C   0  0  0  0  0  0  0  0  0  0  0  0
   22.1391   -2.5914  -14.1895 C   0  0  0  0  0  0  0  0  0  0  0  0
   21.7241   -1.4033  -14.1045 O   0  0  0  0  0  0  0  0  0  0  0  0
   19.3722   -5.6336  -14.9290 C   0  0  0  0  0  0  0  0  0  0  0  0
   18.7551   -4.7835  -14.2589 O   0  0  0  0  0  0  0  0  0  0  0  0
   23.4380   -2.8060  -14.6803 O   0  0  0  0  0  0  0  0  0  0  0  0
   17.7427  -11.9068  -18.2422 O   0  0  0  0  0  0  0  0  0  0  0  0
   17.4295  -10.6486  -17.7452 C   0  0  0  0  0  0  0  0  0  0  0  0
   17.1674  -10.4752  -16.3987 C   0  0  0  0  0  0  0  0  0  0  0  0
   16.8537   -9.2249  -15.8860 C   0  0  0  0  0  0  0  0  0  0  0  0
   16.8039   -8.1448  -16.7344 C   0  0  0  0  0  0  0  0  0  0  0  0
   16.4768   -6.8163  -16.2357 C   0  0  0  0  0  0  0  0  0  0  0  0
   17.4599   -5.7395  -16.5649 C   0  0  2  0  0  0  0  0  0  0  0  0
   18.7695   -6.1651  -16.1002 N   0  0  0  0  0  0  0  0  0  0  0  0
   17.1591   -4.4565  -15.8825 C   0  0  0  0  0  0  0  0  0  0  0  0
   18.0215   -3.7933  -15.2249 O   0  0  0  0  0  0  0  0  0  0  0  0
   17.0635   -8.2828  -18.0989 C   0  0  0  0  0  0  0  0  0  0  0  0
   17.3774   -9.5572  -18.5891 C   0  0  0  0  0  0  0  0  0  0  0  0
   15.8941   -3.8876  -15.9173 O   0  0  0  0  0  0  0  0  0  0  0  0
  2  3  1  1
  2  1  1  0
  4  2  1  0
  5  7  1  0
  5  4  1  0
  5  6  1  6
  7  8  2  0
  9 10  1  0
  9  7  1  0
 10 11  1  6
 12 11  1  0
 13 12  1  0
 13 17  1  0
 14 13  2  0
 15 16  2  0
 15 10  1  0
 19 20  2  0
 19 18  1  0
 21 20  1  0
 22 21  2  0
 23 22  1  0
 24 23  1  1
 24 25  1  0
 25 15  1  0
 26 24  1  0
 26 30  1  0
 27 26  2  0
 28 22  1  0
 28 29  2  0
 29 19  1  0
M  END
$$$$
