LEY.pdb
     RDKit          3D

 30 30  0  0  1  0  0  0  0  0999 V2000
   28.8884  -22.5137  -18.5679 C   0  0  0  0  0  0  0  0  0  0  0  0
   29.3981  -23.0794  -17.2418 C   0  0  1  0  0  0  0  0  0  0  0  0
   30.3660  -22.0187  -16.6888 C   0  0  0  0  0  0  0  0  0  0  0  0
   28.1910  -23.1665  -16.3165 C   0  0  0  0  0  0  0  0  0  0  0  0
   27.3881  -21.8842  -16.2847 C   0  0  2  0  0  0  0  0  0  0  0  0
   28.2842  -20.8028  -15.8277 N   0  0  0  0  0  0  0  0  0  0  0  0
   26.2600  -21.9049  -15.3511 C   0  0  0  0  0  0  0  0  0  0  0  0
   25.2347  -22.6014  -15.5423 O   0  0  0  0  0  0  0  0  0  0  0  0
   26.2923  -21.1072  -14.1505 N   0  0  0  0  0  0  0  0  0  0  0  0
   25.2158  -21.1219  -13.1819 C   0  0  1  0  0  0  0  0  0  0  0  0
   25.6356  -20.4302  -11.8893 C   0  0  0  0  0  0  0  0  0  0  0  0
   24.5188  -20.5017  -10.8628 C   0  0  0  0  0  0  0  0  0  0  0  0
   25.1943  -20.9045   -9.5760 C   0  0  0  0  0  0  0  0  0  0  0  0
   26.4408  -20.7762   -9.4325 O   0  0  0  0  0  0  0  0  0  0  0  0
   24.0789  -20.3485  -13.7108 C   0  0  0  0  0  0  0  0  0  0  0  0
   24.2257  -19.1423  -13.9868 O   0  0  0  0  0  0  0  0  0  0  0  0
   24.4545  -21.4302   -8.5034 O   0  0  0  0  0  0  0  0  0  0  0  0
   17.0881  -18.1426  -18.3777 O   0  0  0  0  0  0  0  0  0  0  0  0
   18.2021  -18.6960  -17.7605 C   0  0  0  0  0  0  0  0  0  0  0  0
   18.2029  -20.0266  -17.3844 C   0  0  0  0  0  0  0  0  0  0  0  0
   19.3078  -20.5951  -16.7676 C   0  0  0  0  0  0  0  0  0  0  0  0
   20.4167  -19.8189  -16.5289 C   0  0  0  0  0  0  0  0  0  0  0  0
   21.5958  -20.3777  -15.8824 C   0  0  0  0  0  0  0  0  0  0  0  0
   21.6593  -20.2168  -14.3977 C   0  0  2  0  0  0  0  0  0  0  0  0
   22.8114  -20.9570  -13.9112 N   0  0  0  0  0  0  0  0  0  0  0  0
   20.4695  -20.7729  -13.7065 C   0  0  0  0  0  0  0  0  0  0  0  0
   19.4245  -20.0945  -13.4545 O   0  0  0  0  0  0  0  0  0  0  0  0
   20.4512  -18.4726  -16.8957 C   0  0  0  0  0  0  0  0  0  0  0  0
   19.3210  -17.9249  -17.5168 C   0  0  0  0  0  0  0  0  0  0  0  0
   20.4200  -22.0928  -13.2816 O   0  0  0  0  0  0  0  0  0  0  0  0
  2  3  1  1
  2  1  1  0
  4  2  1  0
  5  7  1  0
  5  4  1  0
  5  6  1  1
  7  8  2  0
  9 10  1  0
  9  7  1  0
 10 11  1  1
 12 11  1  0
 13 12  1  0
 13 17  1  0
 14 13  2  0
 15 16  2  0
 15 10  1  0
 19 20  2  0
 19 18  1  0
 21 20  1  0
 22 21  2  0
 23 22  1  0
 24 23  1  6
 24 25  1  0
 25 15  1  0
 26 24  1  0
 26 30  1  0
 27 26  2  0
 28 22  1  0
 28 29  2  0
 29 19  1  0
M  END
$$$$
