LEY.pdb
     RDKit          3D

 30 30  0  0  1  0  0  0  0  0999 V2000
   29.0689  -11.9158  -17.1317 C   0  0  0  0  0  0  0  0  0  0  0  0
   27.6646  -12.3712  -16.7329 C   0  0  1  0  0  0  0  0  0  0  0  0
   27.8272  -13.0454  -15.3592 C   0  0  0  0  0  0  0  0  0  0  0  0
   26.8332  -11.1066  -16.5591 C   0  0  0  0  0  0  0  0  0  0  0  0
   25.4179  -11.3976  -16.1094 C   0  0  2  0  0  0  0  0  0  0  0  0
   24.8813  -12.4677  -16.9744 N   0  0  0  0  0  0  0  0  0  0  0  0
   24.5005  -10.2638  -16.2418 C   0  0  0  0  0  0  0  0  0  0  0  0
   24.7371   -9.1385  -15.7410 O   0  0  0  0  0  0  0  0  0  0  0  0
   23.2655  -10.4064  -16.9719 N   0  0  0  0  0  0  0  0  0  0  0  0
   22.3789   -9.2884  -17.2195 C   0  0  1  0  0  0  0  0  0  0  0  0
   21.1494   -9.7310  -18.0057 C   0  0  0  0  0  0  0  0  0  0  0  0
   20.2214   -8.5533  -18.2459 C   0  0  0  0  0  0  0  0  0  0  0  0
   19.0349   -9.1314  -18.9755 C   0  0  0  0  0  0  0  0  0  0  0  0
   17.8784   -9.0763  -18.4749 O   0  0  0  0  0  0  0  0  0  0  0  0
   21.8796   -8.7731  -15.9328 C   0  0  0  0  0  0  0  0  0  0  0  0
   21.5196   -9.5695  -15.0447 O   0  0  0  0  0  0  0  0  0  0  0  0
   19.1848   -9.7437  -20.2312 O   0  0  0  0  0  0  0  0  0  0  0  0
   24.4357   -1.7222  -16.7292 O   0  0  0  0  0  0  0  0  0  0  0  0
   23.9513   -2.8025  -16.0037 C   0  0  0  0  0  0  0  0  0  0  0  0
   24.5135   -4.0562  -16.1592 C   0  0  0  0  0  0  0  0  0  0  0  0
   24.0419   -5.1457  -15.4415 C   0  0  0  0  0  0  0  0  0  0  0  0
   22.9991   -4.9707  -14.5634 C   0  0  0  0  0  0  0  0  0  0  0  0
   22.4744   -6.0892  -13.7927 C   0  0  0  0  0  0  0  0  0  0  0  0
   21.3396   -6.8334  -14.4195 C   0  0  2  0  0  0  0  0  0  0  0  0
   21.7998   -7.3766  -15.6865 N   0  0  0  0  0  0  0  0  0  0  0  0
   20.1773   -5.9622  -14.7236 C   0  0  0  0  0  0  0  0  0  0  0  0
   19.5089   -5.3491  -13.8330 O   0  0  0  0  0  0  0  0  0  0  0  0
   22.4082   -3.7194  -14.3807 C   0  0  0  0  0  0  0  0  0  0  0  0
   22.9046   -2.6370  -15.1189 C   0  0  0  0  0  0  0  0  0  0  0  0
   19.7358   -5.7574  -16.0229 O   0  0  0  0  0  0  0  0  0  0  0  0
  2  3  1  1
  2  1  1  0
  4  2  1  0
  5  7  1  0
  5  4  1  0
  5  6  1  6
  7  8  2  0
  9 10  1  0
  9  7  1  0
 10 11  1  6
 12 11  1  0
 13 12  1  0
 13 17  1  0
 14 13  2  0
 15 16  2  0
 15 10  1  0
 19 20  2  0
 19 18  1  0
 21 20  1  0
 22 21  2  0
 23 22  1  0
 24 23  1  6
 24 25  1  0
 25 15  1  0
 26 24  1  0
 26 30  1  0
 27 26  2  0
 28 22  1  0
 28 29  2  0
 29 19  1  0
M  END
$$$$
