LEY.pdb
     RDKit          3D

 30 30  0  0  1  0  0  0  0  0999 V2000
   14.2218  -17.3069  -24.6139 C   0  0  0  0  0  0  0  0  0  0  0  0
   15.6410  -17.8546  -24.7701 C   0  0  1  0  0  0  0  0  0  0  0  0
   16.5029  -16.6481  -25.1816 C   0  0  0  0  0  0  0  0  0  0  0  0
   16.0804  -18.3175  -23.3868 C   0  0  0  0  0  0  0  0  0  0  0  0
   17.5280  -18.7570  -23.3525 C   0  0  2  0  0  0  0  0  0  0  0  0
   17.6231  -20.0500  -24.0600 N   0  0  0  0  0  0  0  0  0  0  0  0
   18.0544  -18.9863  -22.0053 C   0  0  0  0  0  0  0  0  0  0  0  0
   17.8654  -20.0549  -21.3766 O   0  0  0  0  0  0  0  0  0  0  0  0
   18.8282  -17.9669  -21.3414 N   0  0  0  0  0  0  0  0  0  0  0  0
   19.4331  -18.1768  -20.0425 C   0  0  1  0  0  0  0  0  0  0  0  0
   20.6210  -17.2429  -19.8365 C   0  0  0  0  0  0  0  0  0  0  0  0
   21.3153  -17.5502  -18.5215 C   0  0  0  0  0  0  0  0  0  0  0  0
   22.5309  -16.6577  -18.5020 C   0  0  0  0  0  0  0  0  0  0  0  0
   22.7987  -15.9086  -19.4808 O   0  0  0  0  0  0  0  0  0  0  0  0
   18.4564  -17.8360  -18.9935 C   0  0  0  0  0  0  0  0  0  0  0  0
   17.9526  -16.6968  -18.9634 O   0  0  0  0  0  0  0  0  0  0  0  0
   23.3948  -16.6348  -17.3942 O   0  0  0  0  0  0  0  0  0  0  0  0
   11.6704  -18.9353  -13.5690 O   0  0  0  0  0  0  0  0  0  0  0  0
   12.6922  -18.9780  -14.5082 C   0  0  0  0  0  0  0  0  0  0  0  0
   13.9169  -18.3974  -14.2344 C   0  0  0  0  0  0  0  0  0  0  0  0
   14.9484  -18.4318  -15.1614 C   0  0  0  0  0  0  0  0  0  0  0  0
   14.7444  -19.0542  -16.3697 C   0  0  0  0  0  0  0  0  0  0  0  0
   15.8012  -19.1105  -17.3699 C   0  0  0  0  0  0  0  0  0  0  0  0
   17.1035  -18.4934  -16.9733 C   0  0  2  0  0  0  0  0  0  0  0  0
   18.0783  -18.7883  -18.0100 N   0  0  0  0  0  0  0  0  0  0  0  0
   17.6427  -19.0495  -15.7074 C   0  0  0  0  0  0  0  0  0  0  0  0
   18.3872  -20.0785  -15.6548 O   0  0  0  0  0  0  0  0  0  0  0  0
   13.5214  -19.6514  -16.6796 C   0  0  0  0  0  0  0  0  0  0  0  0
   12.4975  -19.6012  -15.7247 C   0  0  0  0  0  0  0  0  0  0  0  0
   17.3633  -18.4729  -14.4767 O   0  0  0  0  0  0  0  0  0  0  0  0
  2  3  1  1
  2  1  1  0
  4  2  1  0
  5  7  1  0
  5  4  1  0
  5  6  1  6
  7  8  2  0
  9 10  1  0
  9  7  1  0
 10 11  1  6
 12 11  1  0
 13 12  1  0
 13 17  1  0
 14 13  2  0
 15 16  2  0
 15 10  1  0
 19 20  2  0
 19 18  1  0
 21 20  1  0
 22 21  2  0
 23 22  1  0
 24 23  1  6
 24 25  1  0
 25 15  1  0
 26 24  1  0
 26 30  1  0
 27 26  2  0
 28 22  1  0
 28 29  2  0
 29 19  1  0
M  END
$$$$
