LEY.pdb
     RDKit          3D

 30 30  0  0  1  0  0  0  0  0999 V2000
   33.3463  -33.6932  -21.1289 C   0  0  0  0  0  0  0  0  0  0  0  0
   33.8400  -32.4205  -20.4398 C   0  0  1  0  0  0  0  0  0  0  0  0
   33.9277  -31.3603  -21.5516 C   0  0  0  0  0  0  0  0  0  0  0  0
   32.7490  -32.0087  -19.4595 C   0  0  0  0  0  0  0  0  0  0  0  0
   33.2019  -30.9242  -18.5063 C   0  0  2  0  0  0  0  0  0  0  0  0
   34.1093  -31.5425  -17.5186 N   0  0  0  0  0  0  0  0  0  0  0  0
   32.1176  -30.3081  -17.7385 C   0  0  0  0  0  0  0  0  0  0  0  0
   31.7295  -30.7570  -16.6336 O   0  0  0  0  0  0  0  0  0  0  0  0
   31.4451  -29.1349  -18.2386 N   0  0  0  0  0  0  0  0  0  0  0  0
   30.2895  -28.5642  -17.5782 C   0  0  1  0  0  0  0  0  0  0  0  0
   29.9159  -27.2211  -18.1964 C   0  0  0  0  0  0  0  0  0  0  0  0
   28.8427  -26.5365  -17.3684 C   0  0  0  0  0  0  0  0  0  0  0  0
   28.1025  -25.6521  -18.3401 C   0  0  0  0  0  0  0  0  0  0  0  0
   26.8472  -25.5409  -18.2859 O   0  0  0  0  0  0  0  0  0  0  0  0
   29.1291  -29.4480  -17.7848 C   0  0  0  0  0  0  0  0  0  0  0  0
   29.1243  -30.2511  -18.7375 O   0  0  0  0  0  0  0  0  0  0  0  0
   28.7898  -24.9276  -19.3284 O   0  0  0  0  0  0  0  0  0  0  0  0
   22.8823  -35.2187  -16.1958 O   0  0  0  0  0  0  0  0  0  0  0  0
   23.9214  -34.2977  -16.2059 C   0  0  0  0  0  0  0  0  0  0  0  0
   24.0240  -33.3500  -15.2043 C   0  0  0  0  0  0  0  0  0  0  0  0
   25.0563  -32.4233  -15.1991 C   0  0  0  0  0  0  0  0  0  0  0  0
   25.9891  -32.4519  -16.2081 C   0  0  0  0  0  0  0  0  0  0  0  0
   27.0868  -31.4955  -16.2395 C   0  0  0  0  0  0  0  0  0  0  0  0
   26.8594  -30.2740  -17.0704 C   0  0  2  0  0  0  0  0  0  0  0  0
   28.0090  -29.3991  -16.9128 N   0  0  0  0  0  0  0  0  0  0  0  0
   25.6688  -29.4988  -16.6414 C   0  0  0  0  0  0  0  0  0  0  0  0
   25.7165  -28.5533  -15.7931 O   0  0  0  0  0  0  0  0  0  0  0  0
   25.9171  -33.3949  -17.2347 C   0  0  0  0  0  0  0  0  0  0  0  0
   24.8637  -34.3185  -17.2147 C   0  0  0  0  0  0  0  0  0  0  0  0
   24.4033  -29.7611  -17.1462 O   0  0  0  0  0  0  0  0  0  0  0  0
  2  3  1  6
  2  1  1  0
  4  2  1  0
  5  7  1  0
  5  4  1  0
  5  6  1  1
  7  8  2  0
  9 10  1  0
  9  7  1  0
 10 11  1  6
 12 11  1  0
 13 12  1  0
 13 17  1  0
 14 13  2  0
 15 16  2  0
 15 10  1  0
 19 20  2  0
 19 18  1  0
 21 20  1  0
 22 21  2  0
 23 22  1  0
 24 23  1  1
 24 25  1  0
 25 15  1  0
 26 24  1  0
 26 30  1  0
 27 26  2  0
 28 22  1  0
 28 29  2  0
 29 19  1  0
M  END
$$$$
