LEY.pdb
     RDKit          3D

 30 30  0  0  1  0  0  0  0  0999 V2000
   13.5999   -7.7777   -8.2142 C   0  0  0  0  0  0  0  0  0  0  0  0
   13.4138   -8.5202   -9.5381 C   0  0  1  0  0  0  0  0  0  0  0  0
   12.8360   -7.4798  -10.5136 C   0  0  0  0  0  0  0  0  0  0  0  0
   14.8071   -8.9120  -10.0135 C   0  0  0  0  0  0  0  0  0  0  0  0
   14.7900   -9.6032  -11.3595 C   0  0  2  0  0  0  0  0  0  0  0  0
   14.2129  -10.9491  -11.1677 N   0  0  0  0  0  0  0  0  0  0  0  0
   16.1158   -9.8048  -11.9480 C   0  0  0  0  0  0  0  0  0  0  0  0
   16.9200  -10.6700  -11.5265 O   0  0  0  0  0  0  0  0  0  0  0  0
   16.5505   -8.9971  -13.0604 N   0  0  0  0  0  0  0  0  0  0  0  0
   17.8343   -9.1897  -13.7023 C   0  0  1  0  0  0  0  0  0  0  0  0
   17.6670   -9.8349  -15.0739 C   0  0  0  0  0  0  0  0  0  0  0  0
   16.3540   -9.4062  -15.7049 C   0  0  0  0  0  0  0  0  0  0  0  0
   16.3365  -10.0663  -17.0607 C   0  0  0  0  0  0  0  0  0  0  0  0
   15.3841  -10.8202  -17.4004 O   0  0  0  0  0  0  0  0  0  0  0  0
   18.4579   -7.8763  -13.9399 C   0  0  0  0  0  0  0  0  0  0  0  0
   17.7440   -6.8923  -14.2132 O   0  0  0  0  0  0  0  0  0  0  0  0
   17.3773   -9.8579  -17.9812 O   0  0  0  0  0  0  0  0  0  0  0  0
   17.5743   -3.9026   -8.9572 O   0  0  0  0  0  0  0  0  0  0  0  0
   18.4516   -4.4211   -9.9004 C   0  0  0  0  0  0  0  0  0  0  0  0
   18.8173   -3.6688  -11.0014 C   0  0  0  0  0  0  0  0  0  0  0  0
   19.6933   -4.1715  -11.9524 C   0  0  0  0  0  0  0  0  0  0  0  0
   20.2026   -5.4381  -11.7929 C   0  0  0  0  0  0  0  0  0  0  0  0
   21.1235   -6.0025  -12.7696 C   0  0  0  0  0  0  0  0  0  0  0  0
   20.5137   -6.4266  -14.0668 C   0  0  2  0  0  0  0  0  0  0  0  0
   19.8666   -7.7119  -13.8637 N   0  0  0  0  0  0  0  0  0  0  0  0
   21.5197   -6.6181  -15.1409 C   0  0  0  0  0  0  0  0  0  0  0  0
   21.8063   -7.7521  -15.6387 O   0  0  0  0  0  0  0  0  0  0  0  0
   19.8559   -6.2252  -10.6936 C   0  0  0  0  0  0  0  0  0  0  0  0
   18.9691   -5.6920   -9.7490 C   0  0  0  0  0  0  0  0  0  0  0  0
   22.2264   -5.5531  -15.6806 O   0  0  0  0  0  0  0  0  0  0  0  0
  2  3  1  6
  2  1  1  0
  4  2  1  0
  5  7  1  0
  5  4  1  0
  5  6  1  1
  7  8  2  0
  9 10  1  0
  9  7  1  0
 10 11  1  6
 12 11  1  0
 13 12  1  0
 13 17  1  0
 14 13  2  0
 15 16  2  0
 15 10  1  0
 19 20  2  0
 19 18  1  0
 21 20  1  0
 22 21  2  0
 23 22  1  0
 24 23  1  1
 24 25  1  0
 25 15  1  0
 26 24  1  0
 26 30  1  0
 27 26  2  0
 28 22  1  0
 28 29  2  0
 29 19  1  0
M  END
$$$$
