LEY.pdb
     RDKit          3D

 30 30  0  0  1  0  0  0  0  0999 V2000
   20.5246  -15.9289  -20.0418 C   0  0  0  0  0  0  0  0  0  0  0  0
   19.6169  -15.4629  -18.9027 C   0  0  1  0  0  0  0  0  0  0  0  0
   19.6107  -16.6173  -17.8853 C   0  0  0  0  0  0  0  0  0  0  0  0
   20.3022  -14.2590  -18.2688 C   0  0  0  0  0  0  0  0  0  0  0  0
   19.4923  -13.6542  -17.1427 C   0  0  2  0  0  0  0  0  0  0  0  0
   18.0653  -13.7534  -17.5103 N   0  0  0  0  0  0  0  0  0  0  0  0
   19.7580  -12.2334  -16.9075 C   0  0  0  0  0  0  0  0  0  0  0  0
   20.9113  -11.7839  -16.7055 O   0  0  0  0  0  0  0  0  0  0  0  0
   18.6762  -11.2803  -16.9025 N   0  0  0  0  0  0  0  0  0  0  0  0
   18.8969   -9.8594  -16.7300 C   0  0  1  0  0  0  0  0  0  0  0  0
   17.6795   -9.0595  -17.1815 C   0  0  0  0  0  0  0  0  0  0  0  0
   17.6466   -8.9537  -18.6960 C   0  0  0  0  0  0  0  0  0  0  0  0
   16.4183   -8.1353  -19.0053 C   0  0  0  0  0  0  0  0  0  0  0  0
   15.2640   -8.6261  -18.8722 O   0  0  0  0  0  0  0  0  0  0  0  0
   19.0709   -9.5677  -15.2965 C   0  0  0  0  0  0  0  0  0  0  0  0
   18.4878  -10.2682  -14.4469 O   0  0  0  0  0  0  0  0  0  0  0  0
   16.5261   -6.8058  -19.4469 O   0  0  0  0  0  0  0  0  0  0  0  0
   23.5033   -3.4265  -16.0595 O   0  0  0  0  0  0  0  0  0  0  0  0
   23.0397   -4.5462  -15.3816 C   0  0  0  0  0  0  0  0  0  0  0  0
   23.1105   -5.7964  -15.9680 C   0  0  0  0  0  0  0  0  0  0  0  0
   22.6526   -6.9251  -15.3040 C   0  0  0  0  0  0  0  0  0  0  0  0
   22.1211   -6.7930  -14.0435 C   0  0  0  0  0  0  0  0  0  0  0  0
   21.6282   -7.9529  -13.3141 C   0  0  0  0  0  0  0  0  0  0  0  0
   20.1682   -8.2386  -13.4598 C   0  0  2  0  0  0  0  0  0  0  0  0
   19.8953   -8.4950  -14.8639 N   0  0  0  0  0  0  0  0  0  0  0  0
   19.3142   -7.0928  -13.0595 C   0  0  0  0  0  0  0  0  0  0  0  0
   18.6735   -6.3729  -13.8884 O   0  0  0  0  0  0  0  0  0  0  0  0
   22.0346   -5.5467  -13.4207 C   0  0  0  0  0  0  0  0  0  0  0  0
   22.5045   -4.4240  -14.1149 C   0  0  0  0  0  0  0  0  0  0  0  0
   19.1577   -6.7252  -11.7307 O   0  0  0  0  0  0  0  0  0  0  0  0
  2  3  1  1
  2  1  1  0
  4  2  1  0
  5  7  1  0
  5  4  1  0
  5  6  1  6
  7  8  2  0
  9 10  1  0
  9  7  1  0
 10 11  1  1
 12 11  1  0
 13 12  1  0
 13 17  1  0
 14 13  2  0
 15 16  2  0
 15 10  1  0
 19 20  2  0
 19 18  1  0
 21 20  1  0
 22 21  2  0
 23 22  1  0
 24 23  1  6
 24 25  1  0
 25 15  1  0
 26 24  1  0
 26 30  1  0
 27 26  2  0
 28 22  1  0
 28 29  2  0
 29 19  1  0
M  END
$$$$
