WNK.pdb
     RDKit          3D

 32 33  0  0  1  0  0  0  0  0999 V2000
   20.8440  -12.6753  -16.5338 N   0  0  0  0  0  0  0  0  0  0  0  0
   21.0645  -11.2310  -16.6331 C   0  0  1  0  0  0  0  0  0  0  0  0
   22.0897  -10.9323  -17.7045 C   0  0  0  0  0  0  0  0  0  0  0  0
   23.3117  -11.7300  -17.4560 C   0  0  0  0  0  0  0  0  0  0  0  0
   24.0688  -11.7910  -16.3073 C   0  0  0  0  0  0  0  0  0  0  0  0
   25.1124  -12.6370  -16.4954 N   0  0  0  0  0  0  0  0  0  0  0  0
   25.0708  -13.1376  -17.7304 C   0  0  0  0  0  0  0  0  0  0  0  0
   25.8919  -14.0242  -18.3934 C   0  0  0  0  0  0  0  0  0  0  0  0
   25.5686  -14.3457  -19.6933 C   0  0  0  0  0  0  0  0  0  0  0  0
   24.4636  -13.8037  -20.3163 C   0  0  0  0  0  0  0  0  0  0  0  0
   23.6539  -12.9160  -19.6315 C   0  0  0  0  0  0  0  0  0  0  0  0
   23.9573  -12.5858  -18.3453 C   0  0  0  0  0  0  0  0  0  0  0  0
   19.8069  -10.5362  -16.9898 C   0  0  0  0  0  0  0  0  0  0  0  0
   18.9306  -11.1189  -17.6363 O   0  0  0  0  0  0  0  0  0  0  0  0
   15.5114   -7.4385  -14.8408 N   0  0  0  0  0  0  0  0  0  0  0  0
   16.1716   -7.9173  -15.9856 C   0  0  0  0  0  0  0  0  0  0  0  0
   15.7010   -7.6691  -17.1146 O   0  0  0  0  0  0  0  0  0  0  0  0
   17.4042   -8.7034  -15.8655 C   0  0  0  0  0  0  0  0  0  0  0  0
   18.4603   -8.4032  -16.8663 C   0  0  2  0  0  0  0  0  0  0  0  0
   19.6326   -9.1948  -16.5757 N   0  0  0  0  0  0  0  0  0  0  0  0
   18.8818   -6.9836  -16.8753 C   0  0  0  0  0  0  0  0  0  0  0  0
   19.6265   -6.5431  -15.9665 O   0  0  0  0  0  0  0  0  0  0  0  0
   18.4889   -6.0582  -17.8719 N   0  0  0  0  0  0  0  0  0  0  0  0
   18.8348   -4.6197  -17.7845 C   0  0  1  0  0  0  0  0  0  0  0  0
   18.4537   -3.9231  -19.0410 C   0  0  0  0  0  0  0  0  0  0  0  0
   18.7568   -2.4558  -18.9546 C   0  0  0  0  0  0  0  0  0  0  0  0
   18.3700   -1.7653  -20.2613 C   0  0  0  0  0  0  0  0  0  0  0  0
   18.4983   -0.2753  -20.1556 C   0  0  0  0  0  0  0  0  0  0  0  0
   19.8908    0.0874  -20.1200 N   0  0  0  0  0  0  0  0  0  0  0  0
   18.0815   -4.0842  -16.6382 C   0  0  0  0  0  0  0  0  0  0  0  0
   16.8950   -4.3878  -16.3401 O   0  0  0  0  0  0  0  0  0  0  0  0
   18.7164   -3.1561  -15.7911 O   0  0  0  0  0  0  0  0  0  0  0  0
  2  1  1  6
  2  3  1  0
  3  4  1  0
  4  5  2  0
  5  6  1  0
  7  8  2  0
  7  6  1  0
  9  8  1  0
 10  9  2  0
 11 10  1  0
 11 12  2  0
 12  4  1  0
 12  7  1  0
 13  2  1  0
 13 20  1  0
 14 13  2  0
 15 16  1  0
 16 18  1  0
 16 17  2  0
 19 20  1  0
 19 18  1  1
 21 19  1  0
 22 21  2  0
 23 21  1  0
 24 23  1  0
 24 25  1  6
 25 26  1  0
 27 26  1  0
 27 28  1  0
 28 29  1  0
 30 24  1  0
 30 32  1  0
 31 30  2  0
M  END
$$$$
