WNK.pdb
     RDKit          3D

 32 33  0  0  1  0  0  0  0  0999 V2000
   27.9023  -21.9461  -13.2089 N   0  0  0  0  0  0  0  0  0  0  0  0
   26.7774  -21.5067  -12.3807 C   0  0  1  0  0  0  0  0  0  0  0  0
   27.0947  -20.1770  -11.7329 C   0  0  0  0  0  0  0  0  0  0  0  0
   28.0905  -20.3766  -10.6560 C   0  0  0  0  0  0  0  0  0  0  0  0
   29.4351  -20.6465  -10.7801 C   0  0  0  0  0  0  0  0  0  0  0  0
   29.9903  -20.7650   -9.5481 N   0  0  0  0  0  0  0  0  0  0  0  0
   29.0576  -20.5825   -8.6131 C   0  0  0  0  0  0  0  0  0  0  0  0
   29.1169  -20.6024   -7.2362 C   0  0  0  0  0  0  0  0  0  0  0  0
   27.9493  -20.3716   -6.5425 C   0  0  0  0  0  0  0  0  0  0  0  0
   26.7589  -20.1284   -7.1957 C   0  0  0  0  0  0  0  0  0  0  0  0
   26.7231  -20.1132   -8.5781 C   0  0  0  0  0  0  0  0  0  0  0  0
   27.8675  -20.3393   -9.2817 C   0  0  0  0  0  0  0  0  0  0  0  0
   25.5587  -21.3405  -13.2047 C   0  0  0  0  0  0  0  0  0  0  0  0
   25.6159  -20.7757  -14.3016 O   0  0  0  0  0  0  0  0  0  0  0  0
   20.8328  -23.7593  -14.9344 N   0  0  0  0  0  0  0  0  0  0  0  0
   20.9625  -23.1283  -13.6851 C   0  0  0  0  0  0  0  0  0  0  0  0
   19.9491  -22.6645  -13.1233 O   0  0  0  0  0  0  0  0  0  0  0  0
   22.2738  -23.0104  -13.0383 C   0  0  0  0  0  0  0  0  0  0  0  0
   23.0978  -21.8478  -13.4587 C   0  0  2  0  0  0  0  0  0  0  0  0
   24.3319  -21.8409  -12.7089 N   0  0  0  0  0  0  0  0  0  0  0  0
   22.4392  -20.5412  -13.2301 C   0  0  0  0  0  0  0  0  0  0  0  0
   22.3900  -20.0557  -12.0740 O   0  0  0  0  0  0  0  0  0  0  0  0
   21.8411  -19.7768  -14.2605 N   0  0  0  0  0  0  0  0  0  0  0  0
   21.1747  -18.4813  -13.9882 C   0  0  1  0  0  0  0  0  0  0  0  0
   21.4881  -17.5066  -15.0656 C   0  0  0  0  0  0  0  0  0  0  0  0
   20.8378  -17.9070  -16.3576 C   0  0  0  0  0  0  0  0  0  0  0  0
   21.2934  -16.9776  -17.4811 C   0  0  0  0  0  0  0  0  0  0  0  0
   20.6092  -17.3015  -18.7753 C   0  0  0  0  0  0  0  0  0  0  0  0
   21.0366  -16.3758  -19.7914 N   0  0  0  0  0  0  0  0  0  0  0  0
   19.7304  -18.7636  -13.9395 C   0  0  0  0  0  0  0  0  0  0  0  0
   18.8685  -18.0539  -13.3548 O   0  0  0  0  0  0  0  0  0  0  0  0
   19.2482  -19.9143  -14.5919 O   0  0  0  0  0  0  0  0  0  0  0  0
  2  1  1  6
  2  3  1  0
  3  4  1  0
  4  5  2  0
  5  6  1  0
  7  8  2  0
  7  6  1  0
  9  8  1  0
 10  9  2  0
 11 10  1  0
 11 12  2  0
 12  4  1  0
 12  7  1  0
 13  2  1  0
 13 20  1  0
 14 13  2  0
 15 16  1  0
 16 18  1  0
 16 17  2  0
 19 20  1  0
 19 18  1  1
 21 19  1  0
 22 21  2  0
 23 21  1  0
 24 23  1  0
 24 25  1  6
 25 26  1  0
 27 26  1  0
 27 28  1  0
 28 29  1  0
 30 24  1  0
 30 32  1  0
 31 30  2  0
M  END
$$$$
