WNK.pdb
     RDKit          3D

 32 33  0  0  1  0  0  0  0  0999 V2000
   25.2615  -33.5585  -11.9610 N   0  0  0  0  0  0  0  0  0  0  0  0
   24.9804  -32.9094  -10.6788 C   0  0  1  0  0  0  0  0  0  0  0  0
   23.5009  -32.9800  -10.3716 C   0  0  0  0  0  0  0  0  0  0  0  0
   22.7638  -32.0701  -11.2771 C   0  0  0  0  0  0  0  0  0  0  0  0
   22.2602  -32.3409  -12.5298 C   0  0  0  0  0  0  0  0  0  0  0  0
   21.6581  -31.2316  -13.0270 N   0  0  0  0  0  0  0  0  0  0  0  0
   21.7467  -30.2360  -12.1448 C   0  0  0  0  0  0  0  0  0  0  0  0
   21.3002  -28.9325  -12.1785 C   0  0  0  0  0  0  0  0  0  0  0  0
   21.5578  -28.1397  -11.0818 C   0  0  0  0  0  0  0  0  0  0  0  0
   22.2379  -28.6260   -9.9847 C   0  0  0  0  0  0  0  0  0  0  0  0
   22.6766  -29.9375   -9.9728 C   0  0  0  0  0  0  0  0  0  0  0  0
   22.4315  -30.7370  -11.0481 C   0  0  0  0  0  0  0  0  0  0  0  0
   25.7129  -33.5835   -9.5830 C   0  0  0  0  0  0  0  0  0  0  0  0
   26.3827  -34.5967   -9.8073 O   0  0  0  0  0  0  0  0  0  0  0  0
   28.3269  -33.2921   -4.4567 N   0  0  0  0  0  0  0  0  0  0  0  0
   28.0391  -34.0486   -5.6058 C   0  0  0  0  0  0  0  0  0  0  0  0
   28.2737  -35.2744   -5.6087 O   0  0  0  0  0  0  0  0  0  0  0  0
   27.4675  -33.4122   -6.7976 C   0  0  0  0  0  0  0  0  0  0  0  0
   26.0471  -33.7396   -7.0846 C   0  0  2  0  0  0  0  0  0  0  0  0
   25.6283  -33.0433   -8.2783 N   0  0  0  0  0  0  0  0  0  0  0  0
   25.1179  -33.3476   -6.0002 C   0  0  0  0  0  0  0  0  0  0  0  0
   25.0022  -32.1407   -5.6771 O   0  0  0  0  0  0  0  0  0  0  0  0
   24.3248  -34.2719   -5.2787 N   0  0  0  0  0  0  0  0  0  0  0  0
   23.5224  -33.8634   -4.1014 C   0  0  1  0  0  0  0  0  0  0  0  0
   22.4632  -34.8696   -3.8283 C   0  0  0  0  0  0  0  0  0  0  0  0
   21.2323  -34.5872   -4.6392 C   0  0  0  0  0  0  0  0  0  0  0  0
   20.2003  -33.8549   -3.7833 C   0  0  0  0  0  0  0  0  0  0  0  0
   18.8892  -33.7188   -4.4978 C   0  0  0  0  0  0  0  0  0  0  0  0
   17.9323  -33.0810   -3.6322 N   0  0  0  0  0  0  0  0  0  0  0  0
   24.4641  -33.7731   -2.9730 C   0  0  0  0  0  0  0  0  0  0  0  0
   25.5729  -34.3677   -2.8999 O   0  0  0  0  0  0  0  0  0  0  0  0
   24.1206  -32.9626   -1.8743 O   0  0  0  0  0  0  0  0  0  0  0  0
  2  1  1  6
  2  3  1  0
  3  4  1  0
  4  5  2  0
  5  6  1  0
  7  8  2  0
  7  6  1  0
  9  8  1  0
 10  9  2  0
 11 10  1  0
 11 12  2  0
 12  4  1  0
 12  7  1  0
 13  2  1  0
 13 20  1  0
 14 13  2  0
 15 16  1  0
 16 18  1  0
 16 17  2  0
 19 20  1  0
 19 18  1  1
 21 19  1  0
 22 21  2  0
 23 21  1  0
 24 23  1  0
 24 25  1  1
 25 26  1  0
 27 26  1  0
 27 28  1  0
 28 29  1  0
 30 24  1  0
 30 32  1  0
 31 30  2  0
M  END
$$$$
