WNK.pdb
     RDKit          3D

 32 33  0  0  1  0  0  0  0  0999 V2000
   28.1215  -21.6651  -10.2769 N   0  0  0  0  0  0  0  0  0  0  0  0
   26.8536  -21.0423   -9.8911 C   0  0  1  0  0  0  0  0  0  0  0  0
   27.0984  -19.9432   -8.8810 C   0  0  0  0  0  0  0  0  0  0  0  0
   28.2047  -20.3370   -7.9798 C   0  0  0  0  0  0  0  0  0  0  0  0
   29.3119  -21.1006   -8.2754 C   0  0  0  0  0  0  0  0  0  0  0  0
   30.0809  -21.2343   -7.1659 N   0  0  0  0  0  0  0  0  0  0  0  0
   29.5192  -20.5846   -6.1462 C   0  0  0  0  0  0  0  0  0  0  0  0
   29.9038  -20.4230   -4.8325 C   0  0  0  0  0  0  0  0  0  0  0  0
   29.0847  -19.6775   -4.0134 C   0  0  0  0  0  0  0  0  0  0  0  0
   27.9190  -19.1094   -4.4840 C   0  0  0  0  0  0  0  0  0  0  0  0
   27.5529  -19.2848   -5.8061 C   0  0  0  0  0  0  0  0  0  0  0  0
   28.3500  -20.0189   -6.6315 C   0  0  0  0  0  0  0  0  0  0  0  0
   26.1868  -20.4460  -11.0708 C   0  0  0  0  0  0  0  0  0  0  0  0
   26.8403  -19.8160  -11.9082 O   0  0  0  0  0  0  0  0  0  0  0  0
   26.3263  -21.0411  -14.2394 N   0  0  0  0  0  0  0  0  0  0  0  0
   25.5631  -22.1850  -13.9483 C   0  0  0  0  0  0  0  0  0  0  0  0
   25.8716  -23.2773  -14.4672 O   0  0  0  0  0  0  0  0  0  0  0  0
   24.4112  -22.1064  -13.0435 C   0  0  0  0  0  0  0  0  0  0  0  0
   24.1194  -20.7602  -12.4868 C   0  0  2  0  0  0  0  0  0  0  0  0
   24.7896  -20.6132  -11.2162 N   0  0  0  0  0  0  0  0  0  0  0  0
   22.6777  -20.5157  -12.2523 C   0  0  0  0  0  0  0  0  0  0  0  0
   22.0375  -21.2455  -11.4572 O   0  0  0  0  0  0  0  0  0  0  0  0
   21.9477  -19.4810  -12.8848 N   0  0  0  0  0  0  0  0  0  0  0  0
   20.4900  -19.3116  -12.6774 C   0  0  1  0  0  0  0  0  0  0  0  0
   19.9748  -18.2099  -13.5317 C   0  0  0  0  0  0  0  0  0  0  0  0
   18.5023  -18.0107  -13.3210 C   0  0  0  0  0  0  0  0  0  0  0  0
   18.0013  -16.8605  -14.1927 C   0  0  0  0  0  0  0  0  0  0  0  0
   16.5443  -16.5904  -13.9639 C   0  0  0  0  0  0  0  0  0  0  0  0
   16.1145  -15.5119  -14.8148 N   0  0  0  0  0  0  0  0  0  0  0  0
   19.8701  -20.5954  -13.0459 C   0  0  0  0  0  0  0  0  0  0  0  0
   20.2360  -21.3342  -13.9992 O   0  0  0  0  0  0  0  0  0  0  0  0
   18.7781  -21.0569  -12.2866 O   0  0  0  0  0  0  0  0  0  0  0  0
  2  1  1  6
  2  3  1  0
  3  4  1  0
  4  5  2  0
  5  6  1  0
  7  8  2  0
  7  6  1  0
  9  8  1  0
 10  9  2  0
 11 10  1  0
 11 12  2  0
 12  4  1  0
 12  7  1  0
 13  2  1  0
 13 20  1  0
 14 13  2  0
 15 16  1  0
 16 18  1  0
 16 17  2  0
 19 20  1  0
 19 18  1  1
 21 19  1  0
 22 21  2  0
 23 21  1  0
 24 23  1  0
 24 25  1  6
 25 26  1  0
 27 26  1  0
 27 28  1  0
 28 29  1  0
 30 24  1  0
 30 32  1  0
 31 30  2  0
M  END
$$$$
