ENT.pdb
     RDKit          3D

 25 24  0  0  1  0  0  0  0  0999 V2000
    6.8661  -16.3151   21.0154 N   0  0  0  0  0  0  0  0  0  0  0  0
    8.1374  -15.6831   20.9637 C   0  0  1  0  0  0  0  0  0  0  0  0
    8.4093  -14.7600   19.8345 C   0  0  0  0  0  0  0  0  0  0  0  0
    7.4339  -14.6932   18.7317 C   0  0  0  0  0  0  0  0  0  0  0  0
    7.8404  -13.7797   17.6540 C   0  0  0  0  0  0  0  0  0  0  0  0
    7.7984  -12.5308   17.6653 O   0  0  0  0  0  0  0  0  0  0  0  0
    8.3185  -14.9485   22.2625 C   0  0  0  0  0  0  0  0  0  0  0  0
    9.3812  -14.3735   22.5345 O   0  0  0  0  0  0  0  0  0  0  0  0
    8.3439  -14.3204   16.4438 O   0  0  0  0  0  0  0  0  0  0  0  0
    7.5055  -12.6391   26.8628 N   0  0  0  0  0  0  0  0  0  0  0  0
    6.2860  -12.7437   26.1286 C   0  0  0  0  0  0  0  0  0  0  0  0
    5.3149  -12.1064   26.6087 O   0  0  0  0  0  0  0  0  0  0  0  0
    6.1789  -13.5489   24.8874 C   0  0  0  0  0  0  0  0  0  0  0  0
    7.4191  -14.2594   24.5232 C   0  0  2  0  0  0  0  0  0  0  0  0
    7.2777  -14.8836   23.2310 N   0  0  0  0  0  0  0  0  0  0  0  0
    7.9640  -15.1616   25.5469 C   0  0  0  0  0  0  0  0  0  0  0  0
    8.0494  -14.7239   26.7241 O   0  0  0  0  0  0  0  0  0  0  0  0
    6.7868  -18.7024   26.3138 C   0  0  0  0  0  0  0  0  0  0  0  0
    8.3092  -18.7846   26.1364 C   0  0  1  0  0  0  0  0  0  0  0  0
    8.4970  -19.2402   24.8196 O   0  0  0  0  0  0  0  0  0  0  0  0
    8.8425  -17.4111   26.2818 C   0  0  2  0  0  0  0  0  0  0  0  0
    8.3921  -16.4688   25.3006 N   0  0  0  0  0  0  0  0  0  0  0  0
   10.3333  -17.4330   26.3182 C   0  0  0  0  0  0  0  0  0  0  0  0
   11.0403  -18.2174   27.2162 O   0  0  0  0  0  0  0  0  0  0  0  0
   11.0110  -16.7271   25.5203 O   0  0  0  0  0  0  0  0  0  0  0  0
  2  7  1  0
  2  1  1  6
  3  2  1  0
  4  3  1  0
  5  6  2  0
  5  4  1  0
  7  8  2  0
  9  5  1  0
 10 11  1  0
 11 12  2  0
 14 13  1  1
 13 11  1  0
 15 14  1  0
 15  7  1  0
 16 17  2  0
 16 14  1  0
 19 18  1  6
 19 21  1  0
 20 19  1  0
 21 23  1  0
 21 22  1  6
 22 16  1  0
 23 24  1  0
 25 23  2  0
M  END
$$$$
