ENT.pdb
     RDKit          3D

 25 24  0  0  1  0  0  0  0  0999 V2000
   12.1161  -18.0944   19.8502 N   0  0  0  0  0  0  0  0  0  0  0  0
   12.9983  -16.9828   19.9155 C   0  0  1  0  0  0  0  0  0  0  0  0
   13.8711  -16.7185   18.7452 C   0  0  0  0  0  0  0  0  0  0  0  0
   13.3033  -16.8809   17.3950 C   0  0  0  0  0  0  0  0  0  0  0  0
   14.2824  -16.6477   16.3234 C   0  0  0  0  0  0  0  0  0  0  0  0
   14.2671  -15.7342   15.4708 O   0  0  0  0  0  0  0  0  0  0  0  0
   12.1583  -15.7681   20.1950 C   0  0  0  0  0  0  0  0  0  0  0  0
   12.6702  -14.6489   20.3330 O   0  0  0  0  0  0  0  0  0  0  0  0
   15.3881  -17.5259   16.1955 O   0  0  0  0  0  0  0  0  0  0  0  0
    8.0053  -12.3267   19.2248 N   0  0  0  0  0  0  0  0  0  0  0  0
    7.8110  -13.5706   19.8972 C   0  0  0  0  0  0  0  0  0  0  0  0
    6.8162  -13.6157   20.6639 O   0  0  0  0  0  0  0  0  0  0  0  0
    8.7222  -14.7245   19.7008 C   0  0  0  0  0  0  0  0  0  0  0  0
    9.8893  -14.7290   20.6028 C   0  0  2  0  0  0  0  0  0  0  0  0
   10.7425  -15.8545   20.3121 N   0  0  0  0  0  0  0  0  0  0  0  0
    9.5924  -14.5802   22.0341 C   0  0  0  0  0  0  0  0  0  0  0  0
    9.5038  -13.4112   22.4927 O   0  0  0  0  0  0  0  0  0  0  0  0
    6.7626  -15.0443   24.1496 C   0  0  0  0  0  0  0  0  0  0  0  0
    7.7926  -16.0145   24.7443 C   0  0  1  0  0  0  0  0  0  0  0  0
    7.5040  -17.2572   24.1532 O   0  0  0  0  0  0  0  0  0  0  0  0
    9.1317  -15.5467   24.3200 C   0  0  2  0  0  0  0  0  0  0  0  0
    9.4027  -15.6470   22.9164 N   0  0  0  0  0  0  0  0  0  0  0  0
   10.1969  -16.2470   25.0942 C   0  0  0  0  0  0  0  0  0  0  0  0
   10.1926  -16.2983   26.4795 O   0  0  0  0  0  0  0  0  0  0  0  0
   11.1521  -16.8250   24.5046 O   0  0  0  0  0  0  0  0  0  0  0  0
  2  7  1  0
  2  1  1  6
  3  2  1  0
  4  3  1  0
  5  6  2  0
  5  4  1  0
  7  8  2  0
  9  5  1  0
 10 11  1  0
 11 12  2  0
 14 13  1  6
 13 11  1  0
 15 14  1  0
 15  7  1  0
 16 17  2  0
 16 14  1  0
 19 18  1  6
 19 21  1  0
 20 19  1  0
 21 23  1  0
 21 22  1  6
 22 16  1  0
 23 24  1  0
 25 23  2  0
M  END
$$$$
