ENT.pdb
     RDKit          3D

 25 24  0  0  1  0  0  0  0  0999 V2000
   10.1226  -15.9040   17.5870 N   0  0  0  0  0  0  0  0  0  0  0  0
    9.5200  -16.7525   18.5540 C   0  0  1  0  0  0  0  0  0  0  0  0
    9.8548  -18.1974   18.5159 C   0  0  0  0  0  0  0  0  0  0  0  0
   11.2685  -18.5869   18.3686 C   0  0  0  0  0  0  0  0  0  0  0  0
   11.4608  -20.0409   18.2680 C   0  0  0  0  0  0  0  0  0  0  0  0
   11.6214  -20.7121   17.2262 O   0  0  0  0  0  0  0  0  0  0  0  0
    9.8664  -16.1963   19.9067 C   0  0  0  0  0  0  0  0  0  0  0  0
   10.9825  -15.7116   20.1373 O   0  0  0  0  0  0  0  0  0  0  0  0
   11.4744  -20.8191   19.4531 O   0  0  0  0  0  0  0  0  0  0  0  0
    9.5259  -14.6825   24.9353 N   0  0  0  0  0  0  0  0  0  0  0  0
    8.3121  -14.4504   24.2212 C   0  0  0  0  0  0  0  0  0  0  0  0
    7.4366  -13.8026   24.8485 O   0  0  0  0  0  0  0  0  0  0  0  0
    8.1048  -14.9416   22.8369 C   0  0  0  0  0  0  0  0  0  0  0  0
    9.2241  -15.7451   22.3106 C   0  0  2  0  0  0  0  0  0  0  0  0
    8.9272  -16.2037   20.9760 N   0  0  0  0  0  0  0  0  0  0  0  0
    9.7180  -16.8104   23.1938 C   0  0  0  0  0  0  0  0  0  0  0  0
    8.9864  -17.8225   23.3521 O   0  0  0  0  0  0  0  0  0  0  0  0
   13.2782  -18.2431   23.0245 C   0  0  0  0  0  0  0  0  0  0  0  0
   12.9793  -18.0002   24.5103 C   0  0  1  0  0  0  0  0  0  0  0  0
   13.6319  -16.7936   24.8192 O   0  0  0  0  0  0  0  0  0  0  0  0
   11.5138  -17.8355   24.6416 C   0  0  2  0  0  0  0  0  0  0  0  0
   10.9418  -16.7740   23.8672 N   0  0  0  0  0  0  0  0  0  0  0  0
   11.1342  -17.6797   26.0755 C   0  0  0  0  0  0  0  0  0  0  0  0
   11.5354  -18.5808   27.0494 O   0  0  0  0  0  0  0  0  0  0  0  0
   10.4241  -16.7073   26.4554 O   0  0  0  0  0  0  0  0  0  0  0  0
  2  7  1  0
  2  1  1  6
  3  2  1  0
  4  3  1  0
  5  6  2  0
  5  4  1  0
  7  8  2  0
  9  5  1  0
 10 11  1  0
 11 12  2  0
 14 13  1  1
 13 11  1  0
 15 14  1  0
 15  7  1  0
 16 17  2  0
 16 14  1  0
 19 18  1  6
 19 21  1  0
 20 19  1  0
 21 23  1  0
 21 22  1  6
 22 16  1  0
 23 24  1  0
 25 23  2  0
M  END
$$$$
