ENT.pdb
     RDKit          3D

 25 24  0  0  1  0  0  0  0  0999 V2000
   11.5301  -19.0479   21.3313 N   0  0  0  0  0  0  0  0  0  0  0  0
   11.2174  -17.6690   21.1933 C   0  0  1  0  0  0  0  0  0  0  0  0
   10.7645  -17.1887   19.8646 C   0  0  0  0  0  0  0  0  0  0  0  0
   10.8260  -18.1191   18.7233 C   0  0  0  0  0  0  0  0  0  0  0  0
   10.3173  -17.5361   17.4732 C   0  0  0  0  0  0  0  0  0  0  0  0
    9.8756  -16.3796   17.3031 O   0  0  0  0  0  0  0  0  0  0  0  0
   10.1700  -17.3485   22.2225 C   0  0  0  0  0  0  0  0  0  0  0  0
    9.1411  -16.7277   21.9228 O   0  0  0  0  0  0  0  0  0  0  0  0
   10.3027  -18.3286   16.2977 O   0  0  0  0  0  0  0  0  0  0  0  0
    7.4300  -17.0985   26.6773 N   0  0  0  0  0  0  0  0  0  0  0  0
    7.4039  -18.2721   25.8653 C   0  0  0  0  0  0  0  0  0  0  0  0
    6.4776  -19.0816   26.1230 O   0  0  0  0  0  0  0  0  0  0  0  0
    8.4020  -18.5132   24.7947 C   0  0  0  0  0  0  0  0  0  0  0  0
    9.3742  -17.4176   24.6218 C   0  0  2  0  0  0  0  0  0  0  0  0
   10.3176  -17.7448   23.5814 N   0  0  0  0  0  0  0  0  0  0  0  0
   10.0129  -16.9288   25.8515 C   0  0  0  0  0  0  0  0  0  0  0  0
   10.9957  -17.5779   26.2958 O   0  0  0  0  0  0  0  0  0  0  0  0
   10.0269  -12.9386   27.1074 C   0  0  0  0  0  0  0  0  0  0  0  0
    9.6916  -13.9621   28.2011 C   0  0  1  0  0  0  0  0  0  0  0  0
    8.2868  -13.9870   28.2563 O   0  0  0  0  0  0  0  0  0  0  0  0
   10.2075  -15.2736   27.7474 C   0  0  2  0  0  0  0  0  0  0  0  0
    9.6024  -15.7949   26.5576 N   0  0  0  0  0  0  0  0  0  0  0  0
   10.1144  -16.2777   28.8464 C   0  0  0  0  0  0  0  0  0  0  0  0
   10.7458  -16.0991   30.0674 O   0  0  0  0  0  0  0  0  0  0  0  0
    9.4473  -17.3395   28.6986 O   0  0  0  0  0  0  0  0  0  0  0  0
  2  7  1  0
  2  1  1  6
  3  2  1  0
  4  3  1  0
  5  6  2  0
  5  4  1  0
  7  8  2  0
  9  5  1  0
 10 11  1  0
 11 12  2  0
 14 13  1  1
 13 11  1  0
 15 14  1  0
 15  7  1  0
 16 17  2  0
 16 14  1  0
 19 18  1  6
 19 21  1  0
 20 19  1  0
 21 23  1  0
 21 22  1  6
 22 16  1  0
 23 24  1  0
 25 23  2  0
M  END
$$$$
