ENT.pdb
     RDKit          3D

 25 24  0  0  1  0  0  0  0  0999 V2000
   10.8862  -15.3846   15.4572 N   0  0  0  0  0  0  0  0  0  0  0  0
   10.3212  -16.3614   16.3204 C   0  0  1  0  0  0  0  0  0  0  0  0
   10.8457  -17.7469   16.2398 C   0  0  0  0  0  0  0  0  0  0  0  0
   12.2436  -17.9926   16.6366 C   0  0  0  0  0  0  0  0  0  0  0  0
   12.6579  -19.3920   16.4600 C   0  0  0  0  0  0  0  0  0  0  0  0
   13.7852  -19.8812   16.6870 O   0  0  0  0  0  0  0  0  0  0  0  0
   10.4755  -15.8511   17.7257 C   0  0  0  0  0  0  0  0  0  0  0  0
   11.5653  -15.4389   18.1453 O   0  0  0  0  0  0  0  0  0  0  0  0
   11.7146  -20.3362   15.9815 O   0  0  0  0  0  0  0  0  0  0  0  0
    7.1014  -13.3426   18.4489 N   0  0  0  0  0  0  0  0  0  0  0  0
    8.0168  -13.3744   19.5435 C   0  0  0  0  0  0  0  0  0  0  0  0
    8.6148  -12.2933   19.7737 O   0  0  0  0  0  0  0  0  0  0  0  0
    8.2418  -14.5999   20.3485 C   0  0  0  0  0  0  0  0  0  0  0  0
    9.4652  -15.3402   19.9869 C   0  0  2  0  0  0  0  0  0  0  0  0
    9.3770  -15.8208   18.6302 N   0  0  0  0  0  0  0  0  0  0  0  0
    9.8947  -16.3716   20.9411 C   0  0  0  0  0  0  0  0  0  0  0  0
    9.3673  -17.5106   20.8452 O   0  0  0  0  0  0  0  0  0  0  0  0
   12.4030  -18.4044   21.0243 C   0  0  0  0  0  0  0  0  0  0  0  0
   12.6306  -17.8033   22.4182 C   0  0  1  0  0  0  0  0  0  0  0  0
   13.6217  -16.8233   22.2333 O   0  0  0  0  0  0  0  0  0  0  0  0
   11.3590  -17.1703   22.8358 C   0  0  2  0  0  0  0  0  0  0  0  0
   10.8465  -16.1720   21.9445 N   0  0  0  0  0  0  0  0  0  0  0  0
   11.4854  -16.6067   24.2109 C   0  0  0  0  0  0  0  0  0  0  0  0
   11.8739  -17.3791   25.2945 O   0  0  0  0  0  0  0  0  0  0  0  0
   11.2390  -15.3892   24.4370 O   0  0  0  0  0  0  0  0  0  0  0  0
  2  7  1  0
  2  1  1  6
  3  2  1  0
  4  3  1  0
  5  6  2  0
  5  4  1  0
  7  8  2  0
  9  5  1  0
 10 11  1  0
 11 12  2  0
 14 13  1  1
 13 11  1  0
 15 14  1  0
 15  7  1  0
 16 17  2  0
 16 14  1  0
 19 18  1  6
 19 21  1  0
 20 19  1  0
 21 23  1  0
 21 22  1  6
 22 16  1  0
 23 24  1  0
 25 23  2  0
M  END
$$$$
