ENT.pdb
     RDKit          3D

 25 24  0  0  1  0  0  0  0  0999 V2000
    9.7719  -17.9254   16.3207 N   0  0  0  0  0  0  0  0  0  0  0  0
    8.6731  -17.5909   17.1568 C   0  0  1  0  0  0  0  0  0  0  0  0
    7.7852  -18.6895   17.6104 C   0  0  0  0  0  0  0  0  0  0  0  0
    8.3995  -19.9652   18.0193 C   0  0  0  0  0  0  0  0  0  0  0  0
    7.4123  -20.9994   18.3620 C   0  0  0  0  0  0  0  0  0  0  0  0
    7.3773  -21.6978   19.3976 O   0  0  0  0  0  0  0  0  0  0  0  0
    9.2315  -16.8747   18.3545 C   0  0  0  0  0  0  0  0  0  0  0  0
   10.3977  -17.0581   18.7288 O   0  0  0  0  0  0  0  0  0  0  0  0
    6.3603  -21.2777   17.4531 O   0  0  0  0  0  0  0  0  0  0  0  0
    6.6013  -12.5576   18.9091 N   0  0  0  0  0  0  0  0  0  0  0  0
    7.8675  -13.1455   19.2062 C   0  0  0  0  0  0  0  0  0  0  0  0
    8.7793  -12.9024   18.3760 O   0  0  0  0  0  0  0  0  0  0  0  0
    8.0854  -13.9829   20.4111 C   0  0  0  0  0  0  0  0  0  0  0  0
    8.9596  -15.1487   20.1825 C   0  0  2  0  0  0  0  0  0  0  0  0
    8.4440  -15.9579   19.1061 N   0  0  0  0  0  0  0  0  0  0  0  0
    9.3122  -15.9282   21.3771 C   0  0  0  0  0  0  0  0  0  0  0  0
    8.3727  -16.3065   22.1247 O   0  0  0  0  0  0  0  0  0  0  0  0
   10.3930  -19.1852   21.8119 C   0  0  0  0  0  0  0  0  0  0  0  0
   11.5190  -18.4271   22.5284 C   0  0  1  0  0  0  0  0  0  0  0  0
   12.5514  -18.3286   21.5790 O   0  0  0  0  0  0  0  0  0  0  0  0
   10.9999  -17.0804   22.8589 C   0  0  2  0  0  0  0  0  0  0  0  0
   10.6170  -16.2759   21.7366 N   0  0  0  0  0  0  0  0  0  0  0  0
   11.9788  -16.3388   23.7051 C   0  0  0  0  0  0  0  0  0  0  0  0
   12.3743  -16.7958   24.9526 O   0  0  0  0  0  0  0  0  0  0  0  0
   12.4873  -15.2537   23.3072 O   0  0  0  0  0  0  0  0  0  0  0  0
  2  7  1  0
  2  1  1  1
  3  2  1  0
  4  3  1  0
  5  6  2  0
  5  4  1  0
  7  8  2  0
  9  5  1  0
 10 11  1  0
 11 12  2  0
 14 13  1  1
 13 11  1  0
 15 14  1  0
 15  7  1  0
 16 17  2  0
 16 14  1  0
 19 18  1  6
 19 21  1  0
 20 19  1  0
 21 23  1  0
 21 22  1  6
 22 16  1  0
 23 24  1  0
 25 23  2  0
M  END
$$$$
