ENT.pdb
     RDKit          3D

 25 24  0  0  1  0  0  0  0  0999 V2000
    6.2567  -18.7826   19.9403 N   0  0  0  0  0  0  0  0  0  0  0  0
    7.4255  -18.5468   20.7127 C   0  0  1  0  0  0  0  0  0  0  0  0
    8.4596  -17.6436   20.1507 C   0  0  0  0  0  0  0  0  0  0  0  0
    8.0347  -16.3396   19.6113 C   0  0  0  0  0  0  0  0  0  0  0  0
    9.1069  -15.6316   18.8968 C   0  0  0  0  0  0  0  0  0  0  0  0
   10.2169  -16.0904   18.5521 O   0  0  0  0  0  0  0  0  0  0  0  0
    6.9747  -18.0195   22.0461 C   0  0  0  0  0  0  0  0  0  0  0  0
    5.8732  -17.4701   22.1825 O   0  0  0  0  0  0  0  0  0  0  0  0
    8.9151  -14.2747   18.5330 O   0  0  0  0  0  0  0  0  0  0  0  0
    8.1961  -18.6826   27.9311 N   0  0  0  0  0  0  0  0  0  0  0  0
    7.2425  -18.5287   26.8803 C   0  0  0  0  0  0  0  0  0  0  0  0
    6.1198  -18.0892   27.2355 O   0  0  0  0  0  0  0  0  0  0  0  0
    7.5601  -18.8653   25.4710 C   0  0  0  0  0  0  0  0  0  0  0  0
    7.3708  -17.7465   24.5287 C   0  0  2  0  0  0  0  0  0  0  0  0
    7.7940  -18.1300   23.2046 N   0  0  0  0  0  0  0  0  0  0  0  0
    7.9119  -16.4497   24.9580 C   0  0  0  0  0  0  0  0  0  0  0  0
    9.1488  -16.2600   24.8216 O   0  0  0  0  0  0  0  0  0  0  0  0
    7.3285  -11.8261   26.5874 C   0  0  0  0  0  0  0  0  0  0  0  0
    6.6020  -13.1434   26.2824 C   0  0  1  0  0  0  0  0  0  0  0  0
    5.8285  -12.8750   25.1393 O   0  0  0  0  0  0  0  0  0  0  0  0
    7.6383  -14.1539   25.9713 C   0  0  2  0  0  0  0  0  0  0  0  0
    7.1465  -15.4169   25.5059 N   0  0  0  0  0  0  0  0  0  0  0  0
    8.5340  -14.3593   27.1460 C   0  0  0  0  0  0  0  0  0  0  0  0
    9.4100  -13.3805   27.5889 O   0  0  0  0  0  0  0  0  0  0  0  0
    8.5238  -15.4479   27.7856 O   0  0  0  0  0  0  0  0  0  0  0  0
  2  7  1  0
  2  1  1  6
  3  2  1  0
  4  3  1  0
  5  6  2  0
  5  4  1  0
  7  8  2  0
  9  5  1  0
 10 11  1  0
 11 12  2  0
 14 13  1  1
 13 11  1  0
 15 14  1  0
 15  7  1  0
 16 17  2  0
 16 14  1  0
 19 18  1  6
 19 21  1  0
 20 19  1  0
 21 23  1  0
 21 22  1  1
 22 16  1  0
 23 24  1  0
 25 23  2  0
M  END
$$$$
