ENT.pdb
     RDKit          3D

 25 24  0  0  1  0  0  0  0  0999 V2000
   10.4502  -19.2591   20.4338 N   0  0  0  0  0  0  0  0  0  0  0  0
   11.4940  -18.3720   20.0575 C   0  0  1  0  0  0  0  0  0  0  0  0
   12.1159  -18.5566   18.7232 C   0  0  0  0  0  0  0  0  0  0  0  0
   11.2493  -18.9257   17.5897 C   0  0  0  0  0  0  0  0  0  0  0  0
   11.7411  -18.4248   16.2980 C   0  0  0  0  0  0  0  0  0  0  0  0
   12.6377  -18.9241   15.5852 O   0  0  0  0  0  0  0  0  0  0  0  0
   10.9469  -16.9760   20.1634 C   0  0  0  0  0  0  0  0  0  0  0  0
   11.6578  -15.9869   19.9397 O   0  0  0  0  0  0  0  0  0  0  0  0
   11.1706  -17.2473   15.7518 O   0  0  0  0  0  0  0  0  0  0  0  0
    7.6835  -12.8017   19.5710 N   0  0  0  0  0  0  0  0  0  0  0  0
    7.1201  -13.9467   20.2104 C   0  0  0  0  0  0  0  0  0  0  0  0
    6.0766  -13.7293   20.8764 O   0  0  0  0  0  0  0  0  0  0  0  0
    7.7278  -15.2948   20.0933 C   0  0  0  0  0  0  0  0  0  0  0  0
    9.0416  -15.4209   20.7516 C   0  0  2  0  0  0  0  0  0  0  0  0
    9.5916  -16.7344   20.5243 N   0  0  0  0  0  0  0  0  0  0  0  0
    9.0942  -15.0055   22.1600 C   0  0  0  0  0  0  0  0  0  0  0  0
    9.5148  -13.8457   22.4105 O   0  0  0  0  0  0  0  0  0  0  0  0
    6.6120  -14.2638   24.7355 C   0  0  0  0  0  0  0  0  0  0  0  0
    7.4174  -15.4419   25.3004 C   0  0  1  0  0  0  0  0  0  0  0  0
    6.6865  -16.5875   24.9394 O   0  0  0  0  0  0  0  0  0  0  0  0
    8.7324  -15.4405   24.6200 C   0  0  2  0  0  0  0  0  0  0  0  0
    8.7096  -15.8102   23.2357 N   0  0  0  0  0  0  0  0  0  0  0  0
    9.7016  -16.2999   25.3593 C   0  0  0  0  0  0  0  0  0  0  0  0
    9.9608  -16.1297   26.7104 O   0  0  0  0  0  0  0  0  0  0  0  0
   10.3275  -17.2247   24.7701 O   0  0  0  0  0  0  0  0  0  0  0  0
  2  7  1  0
  2  1  1  6
  3  2  1  0
  4  3  1  0
  5  6  2  0
  5  4  1  0
  7  8  2  0
  9  5  1  0
 10 11  1  0
 11 12  2  0
 14 13  1  1
 13 11  1  0
 15 14  1  0
 15  7  1  0
 16 17  2  0
 16 14  1  0
 19 18  1  6
 19 21  1  0
 20 19  1  0
 21 23  1  0
 21 22  1  6
 22 16  1  0
 23 24  1  0
 25 23  2  0
M  END
$$$$
