ENT.pdb
     RDKit          3D

 25 24  0  0  1  0  0  0  0  0999 V2000
    9.4864  -17.3937   19.0936 N   0  0  0  0  0  0  0  0  0  0  0  0
   10.1348  -17.4099   20.3576 C   0  0  1  0  0  0  0  0  0  0  0  0
   11.4236  -16.6865   20.4868 C   0  0  0  0  0  0  0  0  0  0  0  0
   11.4681  -15.2601   20.1191 C   0  0  0  0  0  0  0  0  0  0  0  0
   12.8051  -14.6662   20.2648 C   0  0  0  0  0  0  0  0  0  0  0  0
   13.3361  -13.8088   19.5269 O   0  0  0  0  0  0  0  0  0  0  0  0
    9.1568  -16.8690   21.3627 C   0  0  0  0  0  0  0  0  0  0  0  0
    8.1771  -16.1978   21.0113 O   0  0  0  0  0  0  0  0  0  0  0  0
   13.6279  -15.0744   21.3449 O   0  0  0  0  0  0  0  0  0  0  0  0
    6.8242  -18.3600   26.7155 N   0  0  0  0  0  0  0  0  0  0  0  0
    6.7717  -17.7796   25.4126 C   0  0  0  0  0  0  0  0  0  0  0  0
    5.7663  -17.0601   25.1865 O   0  0  0  0  0  0  0  0  0  0  0  0
    7.8318  -18.0129   24.4016 C   0  0  0  0  0  0  0  0  0  0  0  0
    8.3186  -16.7841   23.7469 C   0  0  2  0  0  0  0  0  0  0  0  0
    9.3165  -17.1059   22.7569 N   0  0  0  0  0  0  0  0  0  0  0  0
    8.7245  -15.6968   24.6479 C   0  0  0  0  0  0  0  0  0  0  0  0
    9.9575  -15.5218   24.8321 O   0  0  0  0  0  0  0  0  0  0  0  0
    6.6186  -12.1003   25.3115 C   0  0  0  0  0  0  0  0  0  0  0  0
    7.0663  -12.8693   26.5622 C   0  0  1  0  0  0  0  0  0  0  0  0
    5.9525  -13.6448   26.9295 O   0  0  0  0  0  0  0  0  0  0  0  0
    8.1884  -13.7472   26.1590 C   0  0  2  0  0  0  0  0  0  0  0  0
    7.8352  -14.8474   25.3114 N   0  0  0  0  0  0  0  0  0  0  0  0
    8.9169  -14.2455   27.3611 C   0  0  0  0  0  0  0  0  0  0  0  0
    9.1420  -15.5952   27.5834 O   0  0  0  0  0  0  0  0  0  0  0  0
    9.3594  -13.4426   28.2293 O   0  0  0  0  0  0  0  0  0  0  0  0
  2  7  1  0
  2  1  1  6
  3  2  1  0
  4  3  1  0
  5  6  2  0
  5  4  1  0
  7  8  2  0
  9  5  1  0
 10 11  1  0
 11 12  2  0
 14 13  1  1
 13 11  1  0
 15 14  1  0
 15  7  1  0
 16 17  2  0
 16 14  1  0
 19 18  1  6
 19 21  1  0
 20 19  1  0
 21 23  1  0
 21 22  1  1
 22 16  1  0
 23 24  1  0
 25 23  2  0
M  END
$$$$
