KRG.pdb
     RDKit          3D

 25 24  0  0  1  0  0  0  0  0999 V2000
    7.7055  -20.4283   22.3693 N   0  0  0  0  0  0  0  0  0  0  0  0
    8.2446  -20.4478   21.0526 C   0  0  1  0  0  0  0  0  0  0  0  0
    7.2285  -20.3619   19.9570 C   0  0  0  0  0  0  0  0  0  0  0  0
    6.5512  -21.6146   19.5731 C   0  0  0  0  0  0  0  0  0  0  0  0
    5.6100  -21.4476   18.4242 C   0  0  0  0  0  0  0  0  0  0  0  0
    5.0232  -22.7818   18.0519 C   0  0  0  0  0  0  0  0  0  0  0  0
    4.0764  -22.6380   16.9374 N   0  0  0  0  0  0  0  0  0  0  0  0
    9.2694  -19.4285   20.7975 C   0  0  0  0  0  0  0  0  0  0  0  0
    9.8510  -19.4068   19.6837 O   0  0  0  0  0  0  0  0  0  0  0  0
    7.4681  -12.7034   22.4309 N   0  0  0  0  0  0  0  0  0  0  0  0
    7.6980  -13.1487   21.1130 C   0  0  0  0  0  0  0  0  0  0  0  0
    7.8057  -12.3240   20.1298 N   0  0  0  0  0  0  0  0  0  0  0  0
    7.8262  -14.5466   20.7887 N   0  0  0  0  0  0  0  0  0  0  0  0
    7.7704  -15.5547   21.8215 C   0  0  0  0  0  0  0  0  0  0  0  0
    9.1707  -15.7745   22.3490 C   0  0  0  0  0  0  0  0  0  0  0  0
   10.0552  -16.1908   21.2090 C   0  0  0  0  0  0  0  0  0  0  0  0
   10.6678  -17.5343   21.5270 C   0  0  2  0  0  0  0  0  0  0  0  0
    9.6104  -18.4774   21.7755 N   0  0  0  0  0  0  0  0  0  0  0  0
   11.5932  -17.4024   22.6618 C   0  0  0  0  0  0  0  0  0  0  0  0
   11.2078  -17.3068   23.8705 O   0  0  0  0  0  0  0  0  0  0  0  0
    7.9369  -12.5558   19.1451 N   0  0  0  0  0  0  0  0  0  0  0  0
   12.9904  -17.3783   22.4184 C   0  0  0  0  0  0  0  0  0  0  0  0
   13.9094  -17.3861   23.5387 C   0  0  0  0  0  0  0  0  0  0  0  0
   14.6337  -16.1150   23.6005 O   0  0  0  0  0  0  0  0  0  0  0  0
   15.5393  -15.8863   24.6194 O   0  0  0  0  0  0  0  0  0  0  0  0
  2  1  1  1
  3  2  1  0
  4  3  1  0
  5  4  1  0
  5  6  1  0
  7  6  1  0
  8  2  1  0
  8  9  2  0
 10 11  1  0
 11 12  2  0
 13 11  1  0
 13 14  1  0
 15 14  1  0
 17 16  1  1
 16 15  1  0
 17 18  1  0
 18  8  1  0
 19 17  1  0
 20 19  2  0
 21 19  1  0
 22 21  1  0
 23 22  1  0
 24 23  1  0
 25 23  2  0
M  END
$$$$
