KRG.pdb
     RDKit          3D

 25 24  0  0  1  0  0  0  0  0999 V2000
   11.9025  -19.8957   18.2669 N   0  0  0  0  0  0  0  0  0  0  0  0
   11.0620  -19.5600   19.3648 C   0  0  1  0  0  0  0  0  0  0  0  0
   11.1056  -20.5261   20.5072 C   0  0  0  0  0  0  0  0  0  0  0  0
   10.8535  -21.9449   20.1932 C   0  0  0  0  0  0  0  0  0  0  0  0
   10.8919  -22.8307   21.3964 C   0  0  0  0  0  0  0  0  0  0  0  0
    9.5406  -22.8465   22.0572 C   0  0  0  0  0  0  0  0  0  0  0  0
    9.5496  -23.7279   23.2330 N   0  0  0  0  0  0  0  0  0  0  0  0
   11.2744  -18.2123   19.9062 C   0  0  0  0  0  0  0  0  0  0  0  0
   12.3290  -17.5930   19.6174 O   0  0  0  0  0  0  0  0  0  0  0  0
    6.6160  -14.7812   18.4443 N   0  0  0  0  0  0  0  0  0  0  0  0
    7.3317  -13.5795   18.2668 C   0  0  0  0  0  0  0  0  0  0  0  0
    7.4997  -13.0585   17.1011 N   0  0  0  0  0  0  0  0  0  0  0  0
    7.9149  -12.8651   19.3737 N   0  0  0  0  0  0  0  0  0  0  0  0
    7.8830  -13.4145   20.7091 C   0  0  0  0  0  0  0  0  0  0  0  0
    9.2194  -14.0651   20.9888 C   0  0  0  0  0  0  0  0  0  0  0  0
    9.0938  -15.5433   20.7556 C   0  0  0  0  0  0  0  0  0  0  0  0
   10.4209  -16.2020   21.0489 C   0  0  2  0  0  0  0  0  0  0  0  0
   10.3198  -17.6033   20.7401 N   0  0  0  0  0  0  0  0  0  0  0  0
   10.8018  -15.9517   22.4468 C   0  0  0  0  0  0  0  0  0  0  0  0
   10.8765  -14.7870   22.9530 O   0  0  0  0  0  0  0  0  0  0  0  0
    8.0342  -12.2198   16.8743 N   0  0  0  0  0  0  0  0  0  0  0  0
   11.1053  -17.0508   23.2905 C   0  0  0  0  0  0  0  0  0  0  0  0
   11.4747  -16.8092   24.6707 C   0  0  0  0  0  0  0  0  0  0  0  0
   12.9277  -16.6653   24.7820 O   0  0  0  0  0  0  0  0  0  0  0  0
   13.5060  -16.4453   26.0179 O   0  0  0  0  0  0  0  0  0  0  0  0
  2  1  1  6
  3  2  1  0
  4  3  1  0
  5  4  1  0
  5  6  1  0
  7  6  1  0
  8  2  1  0
  8  9  2  0
 10 11  1  0
 11 12  2  0
 13 11  1  0
 13 14  1  0
 15 14  1  0
 17 16  1  1
 16 15  1  0
 17 18  1  0
 18  8  1  0
 19 17  1  0
 20 19  2  0
 21 19  1  0
 22 21  1  0
 23 22  1  0
 24 23  1  0
 25 23  2  0
M  END
$$$$
