KRG.pdb
     RDKit          3D

 25 24  0  0  1  0  0  0  0  0999 V2000
    4.8930  -16.6132   20.3791 N   0  0  0  0  0  0  0  0  0  0  0  0
    6.1401  -16.7323   21.0538 C   0  0  1  0  0  0  0  0  0  0  0  0
    6.9903  -15.5009   21.0236 C   0  0  0  0  0  0  0  0  0  0  0  0
    7.2886  -14.9264   19.6985 C   0  0  0  0  0  0  0  0  0  0  0  0
    8.2136  -13.7540   19.7590 C   0  0  0  0  0  0  0  0  0  0  0  0
    8.4994  -13.2617   18.3665 C   0  0  0  0  0  0  0  0  0  0  0  0
    9.3723  -12.0802   18.4042 N   0  0  0  0  0  0  0  0  0  0  0  0
    6.0391  -17.1760   22.4493 C   0  0  0  0  0  0  0  0  0  0  0  0
    5.0890  -16.7606   23.1591 O   0  0  0  0  0  0  0  0  0  0  0  0
    7.6714  -23.7980   26.8364 N   0  0  0  0  0  0  0  0  0  0  0  0
    6.6083  -23.2507   27.5836 C   0  0  0  0  0  0  0  0  0  0  0  0
    6.3555  -23.6400   28.7848 N   0  0  0  0  0  0  0  0  0  0  0  0
    5.7454  -22.2273   27.0508 N   0  0  0  0  0  0  0  0  0  0  0  0
    5.8995  -21.7618   25.6923 C   0  0  0  0  0  0  0  0  0  0  0  0
    6.8913  -20.6200   25.6894 C   0  0  0  0  0  0  0  0  0  0  0  0
    6.9978  -20.0778   24.2930 C   0  0  0  0  0  0  0  0  0  0  0  0
    6.7907  -18.5822   24.3290 C   0  0  2  0  0  0  0  0  0  0  0  0
    6.9848  -18.0565   23.0042 N   0  0  0  0  0  0  0  0  0  0  0  0
    7.6939  -17.9790   25.3202 C   0  0  0  0  0  0  0  0  0  0  0  0
    8.8900  -17.6346   25.0573 O   0  0  0  0  0  0  0  0  0  0  0  0
    5.6644  -23.2484   29.4248 N   0  0  0  0  0  0  0  0  0  0  0  0
    7.2275  -17.7619   26.6421 C   0  0  0  0  0  0  0  0  0  0  0  0
    8.0289  -16.9791   27.5611 C   0  0  0  0  0  0  0  0  0  0  0  0
    8.6156  -17.8509   28.5809 O   0  0  0  0  0  0  0  0  0  0  0  0
    9.3337  -17.3021   29.6267 O   0  0  0  0  0  0  0  0  0  0  0  0
  2  1  1  1
  3  2  1  0
  4  3  1  0
  5  4  1  0
  5  6  1  0
  7  6  1  0
  8  2  1  0
  8  9  2  0
 10 11  1  0
 11 12  2  0
 13 11  1  0
 13 14  1  0
 15 14  1  0
 17 16  1  6
 16 15  1  0
 17 18  1  0
 18  8  1  0
 19 17  1  0
 20 19  2  0
 21 19  1  0
 22 21  1  0
 23 22  1  0
 24 23  1  0
 25 23  2  0
M  END
$$$$
