KRG.pdb
     RDKit          3D

 25 24  0  0  1  0  0  0  0  0999 V2000
    5.4253  -23.2725   18.1237 N   0  0  0  0  0  0  0  0  0  0  0  0
    5.6117  -23.6605   19.4800 C   0  0  1  0  0  0  0  0  0  0  0  0
    6.9754  -24.1874   19.8004 C   0  0  0  0  0  0  0  0  0  0  0  0
    7.5446  -25.1800   18.8698 C   0  0  0  0  0  0  0  0  0  0  0  0
    8.8892  -25.6790   19.2904 C   0  0  0  0  0  0  0  0  0  0  0  0
    9.4088  -26.6556   18.2709 C   0  0  0  0  0  0  0  0  0  0  0  0
   10.7784  -27.0714   18.6034 N   0  0  0  0  0  0  0  0  0  0  0  0
    5.2888  -22.6190   20.4626 C   0  0  0  0  0  0  0  0  0  0  0  0
    5.7809  -21.4708   20.3256 O   0  0  0  0  0  0  0  0  0  0  0  0
   -2.0822  -19.9246   23.2428 N   0  0  0  0  0  0  0  0  0  0  0  0
   -1.1659  -19.6530   22.2062 C   0  0  0  0  0  0  0  0  0  0  0  0
   -1.5534  -19.2149   21.0589 N   0  0  0  0  0  0  0  0  0  0  0  0
    0.2525  -19.8477   22.3676 N   0  0  0  0  0  0  0  0  0  0  0  0
    0.7872  -20.4317   23.5756 C   0  0  0  0  0  0  0  0  0  0  0  0
    2.2906  -20.5208   23.4368 C   0  0  0  0  0  0  0  0  0  0  0  0
    2.6286  -21.7436   22.6332 C   0  0  0  0  0  0  0  0  0  0  0  0
    4.1294  -21.8413   22.4940 C   0  0  2  0  0  0  0  0  0  0  0  0
    4.4395  -22.8831   21.5518 N   0  0  0  0  0  0  0  0  0  0  0  0
    4.7374  -22.0658   23.8137 C   0  0  0  0  0  0  0  0  0  0  0  0
    4.3315  -22.9549   24.6280 O   0  0  0  0  0  0  0  0  0  0  0  0
   -0.9689  -19.0233   20.2451 N   0  0  0  0  0  0  0  0  0  0  0  0
    5.8330  -21.2610   24.2187 C   0  0  0  0  0  0  0  0  0  0  0  0
    6.4354  -21.4788   25.5185 C   0  0  0  0  0  0  0  0  0  0  0  0
    7.6926  -22.2147   25.3703 O   0  0  0  0  0  0  0  0  0  0  0  0
    8.5222  -22.3889   26.4620 O   0  0  0  0  0  0  0  0  0  0  0  0
  2  1  1  6
  3  2  1  0
  4  3  1  0
  5  4  1  0
  5  6  1  0
  7  6  1  0
  8  2  1  0
  8  9  2  0
 10 11  1  0
 11 12  2  0
 13 11  1  0
 13 14  1  0
 15 14  1  0
 17 16  1  1
 16 15  1  0
 17 18  1  0
 18  8  1  0
 19 17  1  0
 20 19  2  0
 21 19  1  0
 22 21  1  0
 23 22  1  0
 24 23  1  0
 25 23  2  0
M  END
$$$$
