KRG.pdb
     RDKit          3D

 25 24  0  0  1  0  0  0  0  0999 V2000
   10.4651  -18.5878   17.9965 N   0  0  0  0  0  0  0  0  0  0  0  0
   10.3646  -18.7538   19.4062 C   0  0  1  0  0  0  0  0  0  0  0  0
   11.1277  -19.9174   19.9572 C   0  0  0  0  0  0  0  0  0  0  0  0
   12.3009  -20.3726   19.1881 C   0  0  0  0  0  0  0  0  0  0  0  0
   12.9662  -21.5718   19.7823 C   0  0  0  0  0  0  0  0  0  0  0  0
   14.2145  -21.8947   19.0075 C   0  0  0  0  0  0  0  0  0  0  0  0
   14.9434  -23.0035   19.6389 N   0  0  0  0  0  0  0  0  0  0  0  0
   10.7279  -17.5658   20.1879 C   0  0  0  0  0  0  0  0  0  0  0  0
   11.6918  -16.8531   19.8111 O   0  0  0  0  0  0  0  0  0  0  0  0
    8.6823  -12.1834   18.8350 N   0  0  0  0  0  0  0  0  0  0  0  0
    7.6239  -13.0369   18.4618 C   0  0  0  0  0  0  0  0  0  0  0  0
    7.2585  -13.1635   17.2334 N   0  0  0  0  0  0  0  0  0  0  0  0
    6.8916  -13.8158   19.4277 N   0  0  0  0  0  0  0  0  0  0  0  0
    7.3906  -13.9881   20.7720 C   0  0  0  0  0  0  0  0  0  0  0  0
    8.6664  -14.7977   20.7066 C   0  0  0  0  0  0  0  0  0  0  0  0
    9.0974  -15.1315   22.1059 C   0  0  0  0  0  0  0  0  0  0  0  0
   10.3351  -15.9951   22.0465 C   0  0  2  0  0  0  0  0  0  0  0  0
   10.0168  -17.2119   21.3484 N   0  0  0  0  0  0  0  0  0  0  0  0
   10.8410  -16.2329   23.4063 C   0  0  0  0  0  0  0  0  0  0  0  0
   11.2315  -15.3012   24.1796 O   0  0  0  0  0  0  0  0  0  0  0  0
    6.5279  -13.7755   16.8698 N   0  0  0  0  0  0  0  0  0  0  0  0
   10.9052  -17.5611   23.9002 C   0  0  0  0  0  0  0  0  0  0  0  0
   12.1241  -18.3262   23.7314 C   0  0  0  0  0  0  0  0  0  0  0  0
   13.2277  -17.6714   24.4370 O   0  0  0  0  0  0  0  0  0  0  0  0
   13.6558  -16.4197   24.0365 O   0  0  0  0  0  0  0  0  0  0  0  0
  2  1  1  6
  3  2  1  0
  4  3  1  0
  5  4  1  0
  5  6  1  0
  7  6  1  0
  8  2  1  0
  8  9  2  0
 10 11  1  0
 11 12  2  0
 13 11  1  0
 13 14  1  0
 15 14  1  0
 17 16  1  1
 16 15  1  0
 17 18  1  0
 18  8  1  0
 19 17  1  0
 20 19  2  0
 21 19  1  0
 22 21  1  0
 23 22  1  0
 24 23  1  0
 25 23  2  0
M  END
$$$$
