KRG.pdb
     RDKit          3D

 25 24  0  0  1  0  0  0  0  0999 V2000
    7.2417  -21.3307   21.6527 N   0  0  0  0  0  0  0  0  0  0  0  0
    8.0838  -20.4977   22.4411 C   0  0  1  0  0  0  0  0  0  0  0  0
    9.3004  -21.1749   22.9901 C   0  0  0  0  0  0  0  0  0  0  0  0
   10.1916  -21.8385   22.0202 C   0  0  0  0  0  0  0  0  0  0  0  0
    9.4954  -22.8656   21.1870 C   0  0  0  0  0  0  0  0  0  0  0  0
   10.4900  -23.5469   20.2872 C   0  0  0  0  0  0  0  0  0  0  0  0
    9.8230  -24.5468   19.4417 N   0  0  0  0  0  0  0  0  0  0  0  0
    8.5170  -19.2633   21.7756 C   0  0  0  0  0  0  0  0  0  0  0  0
    8.8249  -19.2970   20.5577 O   0  0  0  0  0  0  0  0  0  0  0  0
    8.3259  -12.9105   17.6279 N   0  0  0  0  0  0  0  0  0  0  0  0
    8.0359  -12.8503   19.0064 C   0  0  0  0  0  0  0  0  0  0  0  0
    8.5011  -11.9112   19.7547 N   0  0  0  0  0  0  0  0  0  0  0  0
    7.2049  -13.8308   19.6574 N   0  0  0  0  0  0  0  0  0  0  0  0
    7.1351  -13.9035   21.0982 C   0  0  0  0  0  0  0  0  0  0  0  0
    8.4533  -14.4375   21.6127 C   0  0  0  0  0  0  0  0  0  0  0  0
    8.1906  -15.6835   22.4087 C   0  0  0  0  0  0  0  0  0  0  0  0
    8.9403  -16.8350   21.7816 C   0  0  2  0  0  0  0  0  0  0  0  0
    8.5924  -18.0460   22.4756 N   0  0  0  0  0  0  0  0  0  0  0  0
   10.3843  -16.5590   21.8041 C   0  0  0  0  0  0  0  0  0  0  0  0
   10.9203  -15.5895   21.1786 O   0  0  0  0  0  0  0  0  0  0  0  0
    8.4176  -11.8354   20.7686 N   0  0  0  0  0  0  0  0  0  0  0  0
   11.2406  -17.4046   22.5550 C   0  0  0  0  0  0  0  0  0  0  0  0
   12.6526  -17.0914   22.6439 C   0  0  0  0  0  0  0  0  0  0  0  0
   12.9842  -16.6576   24.0026 O   0  0  0  0  0  0  0  0  0  0  0  0
   14.2760  -16.2715   24.3070 O   0  0  0  0  0  0  0  0  0  0  0  0
  2  1  1  6
  3  2  1  0
  4  3  1  0
  5  4  1  0
  5  6  1  0
  7  6  1  0
  8  2  1  0
  8  9  2  0
 10 11  1  0
 11 12  2  0
 13 11  1  0
 13 14  1  0
 15 14  1  0
 17 16  1  1
 16 15  1  0
 17 18  1  0
 18  8  1  0
 19 17  1  0
 20 19  2  0
 21 19  1  0
 22 21  1  0
 23 22  1  0
 24 23  1  0
 25 23  2  0
M  END
$$$$
