KRG.pdb
     RDKit          3D

 25 24  0  0  1  0  0  0  0  0999 V2000
    6.3489  -22.4740   18.8498 N   0  0  0  0  0  0  0  0  0  0  0  0
    5.9990  -23.1846   20.0319 C   0  0  1  0  0  0  0  0  0  0  0  0
    6.7571  -24.4570   20.2470 C   0  0  0  0  0  0  0  0  0  0  0  0
    6.2881  -25.6473   19.5133 C   0  0  0  0  0  0  0  0  0  0  0  0
    7.3970  -26.5607   19.1013 C   0  0  0  0  0  0  0  0  0  0  0  0
    7.1634  -27.9318   19.6744 C   0  0  0  0  0  0  0  0  0  0  0  0
    8.2307  -28.8539   19.2621 N   0  0  0  0  0  0  0  0  0  0  0  0
    6.0842  -22.3951   21.2663 C   0  0  0  0  0  0  0  0  0  0  0  0
    7.0082  -21.5532   21.3951 O   0  0  0  0  0  0  0  0  0  0  0  0
   -0.8900  -19.5844   22.7402 N   0  0  0  0  0  0  0  0  0  0  0  0
   -0.1637  -19.6821   21.5356 C   0  0  0  0  0  0  0  0  0  0  0  0
   -0.6960  -19.3906   20.3997 N   0  0  0  0  0  0  0  0  0  0  0  0
    1.2113  -20.1110   21.5033 N   0  0  0  0  0  0  0  0  0  0  0  0
    1.7612  -20.9164   22.5687 C   0  0  0  0  0  0  0  0  0  0  0  0
    3.1887  -20.4783   22.8090 C   0  0  0  0  0  0  0  0  0  0  0  0
    3.7908  -21.3574   23.8672 C   0  0  0  0  0  0  0  0  0  0  0  0
    5.2020  -21.7150   23.4652 C   0  0  2  0  0  0  0  0  0  0  0  0
    5.1512  -22.5638   22.3049 N   0  0  0  0  0  0  0  0  0  0  0  0
    5.8987  -22.3398   24.5992 C   0  0  0  0  0  0  0  0  0  0  0  0
    5.7193  -23.5497   24.9489 O   0  0  0  0  0  0  0  0  0  0  0  0
   -0.2400  -19.3996   19.4873 N   0  0  0  0  0  0  0  0  0  0  0  0
    6.8216  -21.5719   25.3547 C   0  0  0  0  0  0  0  0  0  0  0  0
    7.4228  -22.1456   26.5418 C   0  0  0  0  0  0  0  0  0  0  0  0
    8.7553  -22.6647   26.2268 O   0  0  0  0  0  0  0  0  0  0  0  0
    9.8489  -22.2486   26.9624 O   0  0  0  0  0  0  0  0  0  0  0  0
  2  1  1  6
  3  2  1  0
  4  3  1  0
  5  4  1  0
  5  6  1  0
  7  6  1  0
  8  2  1  0
  8  9  2  0
 10 11  1  0
 11 12  2  0
 13 11  1  0
 13 14  1  0
 15 14  1  0
 17 16  1  1
 16 15  1  0
 17 18  1  0
 18  8  1  0
 19 17  1  0
 20 19  2  0
 21 19  1  0
 22 21  1  0
 23 22  1  0
 24 23  1  0
 25 23  2  0
M  END
$$$$
