KRG.pdb
     RDKit          3D

 25 24  0  0  1  0  0  0  0  0999 V2000
    8.1957  -13.4117   16.6119 N   0  0  0  0  0  0  0  0  0  0  0  0
    8.7745  -13.3567   17.9107 C   0  0  1  0  0  0  0  0  0  0  0  0
    7.7999  -13.1271   19.0231 C   0  0  0  0  0  0  0  0  0  0  0  0
    8.3509  -13.0439   20.3886 C   0  0  0  0  0  0  0  0  0  0  0  0
    7.4444  -13.6230   21.4263 C   0  0  0  0  0  0  0  0  0  0  0  0
    8.0297  -13.3969   22.7935 C   0  0  0  0  0  0  0  0  0  0  0  0
    7.0909  -13.8319   23.8369 N   0  0  0  0  0  0  0  0  0  0  0  0
    9.5943  -14.5221   18.2633 C   0  0  0  0  0  0  0  0  0  0  0  0
    9.4484  -15.5929   17.6221 O   0  0  0  0  0  0  0  0  0  0  0  0
   12.7277  -14.7668   13.3328 N   0  0  0  0  0  0  0  0  0  0  0  0
   12.1376  -16.0292   13.5481 C   0  0  0  0  0  0  0  0  0  0  0  0
   11.4104  -16.5975   12.6501 N   0  0  0  0  0  0  0  0  0  0  0  0
   12.3127  -16.7560   14.7797 N   0  0  0  0  0  0  0  0  0  0  0  0
   13.0801  -16.1960   15.8677 C   0  0  0  0  0  0  0  0  0  0  0  0
   12.2916  -16.3706   17.1464 C   0  0  0  0  0  0  0  0  0  0  0  0
   12.4151  -15.1168   17.9636 C   0  0  0  0  0  0  0  0  0  0  0  0
   11.6968  -15.3134   19.2776 C   0  0  2  0  0  0  0  0  0  0  0  0
   10.5386  -14.4607   19.3035 N   0  0  0  0  0  0  0  0  0  0  0  0
   12.6203  -15.0555   20.3923 C   0  0  0  0  0  0  0  0  0  0  0  0
   13.2233  -13.9477   20.5583 O   0  0  0  0  0  0  0  0  0  0  0  0
   11.1062  -17.5711   12.6316 N   0  0  0  0  0  0  0  0  0  0  0  0
   12.8653  -16.0807   21.3415 C   0  0  0  0  0  0  0  0  0  0  0  0
   13.3916  -15.7332   22.6461 C   0  0  0  0  0  0  0  0  0  0  0  0
   13.7382  -16.9486   23.3857 O   0  0  0  0  0  0  0  0  0  0  0  0
   14.4900  -16.8610   24.5423 O   0  0  0  0  0  0  0  0  0  0  0  0
  2  1  1  6
  3  2  1  0
  4  3  1  0
  5  4  1  0
  5  6  1  0
  7  6  1  0
  8  2  1  0
  8  9  2  0
 10 11  1  0
 11 12  2  0
 13 11  1  0
 13 14  1  0
 15 14  1  0
 17 16  1  6
 16 15  1  0
 17 18  1  0
 18  8  1  0
 19 17  1  0
 20 19  2  0
 21 19  1  0
 22 21  1  0
 23 22  1  0
 24 23  1  0
 25 23  2  0
M  END
$$$$
