KRG.pdb
     RDKit          3D

 25 24  0  0  1  0  0  0  0  0999 V2000
    8.1214  -17.9868   18.1433 N   0  0  0  0  0  0  0  0  0  0  0  0
    7.8505  -18.3294   19.4976 C   0  0  1  0  0  0  0  0  0  0  0  0
    8.3103  -19.6946   19.9038 C   0  0  0  0  0  0  0  0  0  0  0  0
    7.5872  -20.8431   19.3267 C   0  0  0  0  0  0  0  0  0  0  0  0
    8.0764  -22.1619   19.8320 C   0  0  0  0  0  0  0  0  0  0  0  0
    7.3078  -23.2740   19.1722 C   0  0  0  0  0  0  0  0  0  0  0  0
    7.7542  -24.5808   19.6746 N   0  0  0  0  0  0  0  0  0  0  0  0
    8.3615  -17.3699   20.4838 C   0  0  0  0  0  0  0  0  0  0  0  0
    9.2867  -16.5852   20.1558 O   0  0  0  0  0  0  0  0  0  0  0  0
    5.5658  -11.7025   25.5199 N   0  0  0  0  0  0  0  0  0  0  0  0
    6.7662  -12.1695   26.0934 C   0  0  0  0  0  0  0  0  0  0  0  0
    7.7606  -11.3818   26.3154 N   0  0  0  0  0  0  0  0  0  0  0  0
    6.9514  -13.5492   26.4644 N   0  0  0  0  0  0  0  0  0  0  0  0
    6.5185  -14.6155   25.5916 C   0  0  0  0  0  0  0  0  0  0  0  0
    7.6389  -14.9235   24.6236 C   0  0  0  0  0  0  0  0  0  0  0  0
    7.1711  -15.9815   23.6660 C   0  0  0  0  0  0  0  0  0  0  0  0
    8.2912  -16.3062   22.7062 C   0  0  2  0  0  0  0  0  0  0  0  0
    7.8344  -17.3132   21.7862 N   0  0  0  0  0  0  0  0  0  0  0  0
    9.4856  -16.7193   23.4576 C   0  0  0  0  0  0  0  0  0  0  0  0
    9.6155  -17.8690   23.9865 O   0  0  0  0  0  0  0  0  0  0  0  0
    8.6714  -11.6353   26.6985 N   0  0  0  0  0  0  0  0  0  0  0  0
   10.5585  -15.8045   23.6124 C   0  0  0  0  0  0  0  0  0  0  0  0
   11.9103  -16.3080   23.7496 C   0  0  0  0  0  0  0  0  0  0  0  0
   12.1034  -16.8646   25.0902 O   0  0  0  0  0  0  0  0  0  0  0  0
   13.3737  -17.1949   25.5231 O   0  0  0  0  0  0  0  0  0  0  0  0
  2  1  1  6
  3  2  1  0
  4  3  1  0
  5  4  1  0
  5  6  1  0
  7  6  1  0
  8  2  1  0
  8  9  2  0
 10 11  1  0
 11 12  2  0
 13 11  1  0
 13 14  1  0
 15 14  1  0
 17 16  1  1
 16 15  1  0
 17 18  1  0
 18  8  1  0
 19 17  1  0
 20 19  2  0
 21 19  1  0
 22 21  1  0
 23 22  1  0
 24 23  1  0
 25 23  2  0
M  END
$$$$
