KRG.pdb
     RDKit          3D

 25 24  0  0  1  0  0  0  0  0999 V2000
   10.2657  -19.2819   19.9050 N   0  0  0  0  0  0  0  0  0  0  0  0
   11.2738  -18.2798   19.8394 C   0  0  1  0  0  0  0  0  0  0  0  0
   11.4905  -17.6954   18.4786 C   0  0  0  0  0  0  0  0  0  0  0  0
   10.2870  -17.3845   17.6848 C   0  0  0  0  0  0  0  0  0  0  0  0
   10.5936  -17.0161   16.2691 C   0  0  0  0  0  0  0  0  0  0  0  0
    9.3113  -16.8055   15.5113 C   0  0  0  0  0  0  0  0  0  0  0  0
    9.5891  -16.4167   14.1217 N   0  0  0  0  0  0  0  0  0  0  0  0
   11.0934  -17.1699   20.7828 C   0  0  0  0  0  0  0  0  0  0  0  0
   11.9974  -16.3040   20.8934 O   0  0  0  0  0  0  0  0  0  0  0  0
    7.3220  -14.7815   18.1193 N   0  0  0  0  0  0  0  0  0  0  0  0
    7.7092  -13.4443   18.3432 C   0  0  0  0  0  0  0  0  0  0  0  0
    8.1660  -12.7046   17.3932 N   0  0  0  0  0  0  0  0  0  0  0  0
    7.6167  -12.8279   19.6421 N   0  0  0  0  0  0  0  0  0  0  0  0
    7.4444  -13.6288   20.8316 C   0  0  0  0  0  0  0  0  0  0  0  0
    8.7086  -14.4283   21.0550 C   0  0  0  0  0  0  0  0  0  0  0  0
    8.5476  -15.2450   22.3049 C   0  0  0  0  0  0  0  0  0  0  0  0
    9.8196  -16.0208   22.5527 C   0  0  2  0  0  0  0  0  0  0  0  0
    9.9285  -17.0587   21.5627 N   0  0  0  0  0  0  0  0  0  0  0  0
    9.8245  -16.5411   23.9279 C   0  0  0  0  0  0  0  0  0  0  0  0
    8.9218  -17.3110   24.3870 O   0  0  0  0  0  0  0  0  0  0  0  0
    8.4767  -11.7356   17.4644 N   0  0  0  0  0  0  0  0  0  0  0  0
   10.8801  -16.1782   24.8031 C   0  0  0  0  0  0  0  0  0  0  0  0
   10.8258  -16.5854   26.1927 C   0  0  0  0  0  0  0  0  0  0  0  0
   11.6581  -17.7724   26.3992 O   0  0  0  0  0  0  0  0  0  0  0  0
   11.9020  -18.2288   27.6808 O   0  0  0  0  0  0  0  0  0  0  0  0
  2  1  1  6
  3  2  1  0
  4  3  1  0
  5  4  1  0
  5  6  1  0
  7  6  1  0
  8  2  1  0
  8  9  2  0
 10 11  1  0
 11 12  2  0
 13 11  1  0
 13 14  1  0
 15 14  1  0
 17 16  1  6
 16 15  1  0
 17 18  1  0
 18  8  1  0
 19 17  1  0
 20 19  2  0
 21 19  1  0
 22 21  1  0
 23 22  1  0
 24 23  1  0
 25 23  2  0
M  END
$$$$
