DRR.pdb
     RDKit          3D

 31 30  0  0  1  0  0  0  0  0999 V2000
   11.7181  -18.5348   14.2142 N   0  0  0  0  0  0  0  0  0  0  0  0
   12.7937  -17.7135   14.7030 C   0  0  1  0  0  0  0  0  0  0  0  0
   12.7452  -16.3223   14.1338 C   0  0  0  0  0  0  0  0  0  0  0  0
   13.1354  -16.3248   12.7091 C   0  0  0  0  0  0  0  0  0  0  0  0
   13.4100  -17.4359   12.1517 O   0  0  0  0  0  0  0  0  0  0  0  0
   12.6932  -17.6895   16.1997 C   0  0  0  0  0  0  0  0  0  0  0  0
   11.6177  -17.4070   16.7797 O   0  0  0  0  0  0  0  0  0  0  0  0
   13.2193  -15.1783   11.9421 O   0  0  0  0  0  0  0  0  0  0  0  0
   17.7436  -19.9554   21.9917 N   0  0  0  0  0  0  0  0  0  0  0  0
   16.6757  -20.4575   22.7820 C   0  0  0  0  0  0  0  0  0  0  0  0
   16.8451  -20.7181   24.0325 N   0  0  0  0  0  0  0  0  0  0  0  0
   15.3783  -20.6981   22.2475 N   0  0  0  0  0  0  0  0  0  0  0  0
   15.1667  -20.6745   20.8209 C   0  0  0  0  0  0  0  0  0  0  0  0
   14.4756  -19.3677   20.4568 C   0  0  0  0  0  0  0  0  0  0  0  0
   14.4697  -19.2248   18.9700 C   0  0  0  0  0  0  0  0  0  0  0  0
   13.7415  -18.0003   18.4843 C   0  0  2  0  0  0  0  0  0  0  0  0
   13.8060  -17.9835   17.0288 N   0  0  0  0  0  0  0  0  0  0  0  0
   14.2816  -16.7202   19.0419 C   0  0  0  0  0  0  0  0  0  0  0  0
   15.5138  -16.5450   19.2135 O   0  0  0  0  0  0  0  0  0  0  0  0
   16.0493  -21.0768   24.5772 N   0  0  0  0  0  0  0  0  0  0  0  0
    7.9036  -13.2935   21.3924 C   0  0  0  0  0  0  0  0  0  0  0  0
    8.0291  -13.0407   19.9960 N   0  0  0  0  0  0  0  0  0  0  0  0
    7.5510  -11.9846   19.4566 N   0  0  0  0  0  0  0  0  0  0  0  0
    8.7047  -14.0024   19.2146 C   0  0  0  0  0  0  0  0  0  0  0  0
    9.3608  -15.1310   19.9406 C   0  0  0  0  0  0  0  0  0  0  0  0
   10.6698  -14.6312   20.4107 C   0  0  0  0  0  0  0  0  0  0  0  0
   11.6644  -15.4762   21.0730 C   0  0  2  0  0  0  0  0  0  0  0  0
   13.0806  -15.2950   20.7974 N   0  0  0  0  0  0  0  0  0  0  0  0
   13.4351  -15.6455   19.4043 C   0  0  0  0  0  0  0  0  0  0  0  0
   14.1240  -15.7065   21.7151 O   0  0  0  0  0  0  0  0  0  0  0  0
   14.4470  -16.9866   21.7690 O   0  0  0  0  0  0  0  0  0  0  0  0
  2  1  1  6
  3  2  1  0
  3  4  1  0
  4  8  1  0
  4  5  2  0
  6  7  2  0
  6  2  1  0
  9 10  1  0
 10 12  1  0
 11 10  2  0
 12 13  1  0
 13 14  1  0
 14 15  1  0
 16 15  1  1
 16 17  1  0
 17  6  1  0
 18 19  2  0
 18 16  1  0
 20 21  1  0
 21 23  1  0
 21 22  2  0
 23 24  1  0
 25 24  1  0
 25 26  1  0
 27 26  1  6
 27 29  1  0
 27 28  1  0
 28 18  1  0
 29 31  1  0
 30 29  2  0
M  END
$$$$
