DRR.pdb
     RDKit          3D

 31 30  0  0  1  0  0  0  0  0999 V2000
    8.4160  -19.7400   18.2830 N   0  0  0  0  0  0  0  0  0  0  0  0
    8.2693  -18.3440   18.5987 C   0  0  1  0  0  0  0  0  0  0  0  0
    7.1959  -17.6884   17.7742 C   0  0  0  0  0  0  0  0  0  0  0  0
    7.5417  -17.7251   16.3386 C   0  0  0  0  0  0  0  0  0  0  0  0
    6.8187  -17.0735   15.5179 O   0  0  0  0  0  0  0  0  0  0  0  0
    7.9611  -18.2470   20.0638 C   0  0  0  0  0  0  0  0  0  0  0  0
    7.7549  -17.1411   20.6182 O   0  0  0  0  0  0  0  0  0  0  0  0
    8.6156  -18.4332   15.8334 O   0  0  0  0  0  0  0  0  0  0  0  0
    5.6969  -22.9888   28.0988 N   0  0  0  0  0  0  0  0  0  0  0  0
    6.4989  -23.2545   26.9572 C   0  0  0  0  0  0  0  0  0  0  0  0
    6.6833  -24.4615   26.5456 N   0  0  0  0  0  0  0  0  0  0  0  0
    7.1351  -22.2201   26.2140 N   0  0  0  0  0  0  0  0  0  0  0  0
    6.8820  -22.0825   24.8007 C   0  0  0  0  0  0  0  0  0  0  0  0
    7.7085  -20.9178   24.2732 C   0  0  0  0  0  0  0  0  0  0  0  0
    7.4310  -20.7527   22.8148 C   0  0  0  0  0  0  0  0  0  0  0  0
    7.6165  -19.3431   22.3209 C   0  0  2  0  0  0  0  0  0  0  0  0
    7.8889  -19.3973   20.8906 N   0  0  0  0  0  0  0  0  0  0  0  0
    8.7054  -18.5979   23.0282 C   0  0  0  0  0  0  0  0  0  0  0  0
    9.8868  -18.5962   22.6009 O   0  0  0  0  0  0  0  0  0  0  0  0
    7.2519  -24.6172   25.7023 N   0  0  0  0  0  0  0  0  0  0  0  0
    7.5944  -11.8350   19.6437 C   0  0  0  0  0  0  0  0  0  0  0  0
    8.8746  -12.4213   19.8597 N   0  0  0  0  0  0  0  0  0  0  0  0
    9.8244  -12.2970   19.0128 N   0  0  0  0  0  0  0  0  0  0  0  0
    9.0670  -13.1535   21.0508 C   0  0  0  0  0  0  0  0  0  0  0  0
    7.8539  -13.4539   21.8691 C   0  0  0  0  0  0  0  0  0  0  0  0
    8.3105  -14.2390   23.0349 C   0  0  0  0  0  0  0  0  0  0  0  0
    8.1562  -15.6907   23.1392 C   0  0  2  0  0  0  0  0  0  0  0  0
    8.6150  -16.3932   24.3269 N   0  0  0  0  0  0  0  0  0  0  0  0
    8.4613  -17.8603   24.2111 C   0  0  0  0  0  0  0  0  0  0  0  0
    8.3183  -15.9474   25.6735 O   0  0  0  0  0  0  0  0  0  0  0  0
    7.2767  -16.4709   26.2956 O   0  0  0  0  0  0  0  0  0  0  0  0
  2  1  1  6
  3  2  1  0
  3  4  1  0
  4  8  1  0
  4  5  2  0
  6  7  2  0
  6  2  1  0
  9 10  1  0
 10 12  1  0
 11 10  2  0
 12 13  1  0
 13 14  1  0
 14 15  1  0
 16 15  1  1
 16 17  1  0
 17  6  1  0
 18 19  2  0
 18 16  1  0
 20 21  1  0
 21 23  1  0
 21 22  2  0
 23 24  1  0
 25 24  1  0
 25 26  1  0
 27 26  1  6
 27 29  1  0
 27 28  1  0
 28 18  1  0
 29 31  1  0
 30 29  2  0
M  END
$$$$
