DRR.pdb
     RDKit          3D

 31 30  0  0  1  0  0  0  0  0999 V2000
   10.4292  -18.3590   20.1240 N   0  0  0  0  0  0  0  0  0  0  0  0
   11.5654  -17.5808   20.5407 C   0  0  1  0  0  0  0  0  0  0  0  0
   12.2949  -16.9765   19.3726 C   0  0  0  0  0  0  0  0  0  0  0  0
   13.1730  -17.9751   18.7294 C   0  0  0  0  0  0  0  0  0  0  0  0
   12.8249  -19.1995   18.7493 O   0  0  0  0  0  0  0  0  0  0  0  0
   11.0619  -16.5183   21.4725 C   0  0  0  0  0  0  0  0  0  0  0  0
   11.8298  -15.9284   22.2697 O   0  0  0  0  0  0  0  0  0  0  0  0
   14.3609  -17.6507   18.1020 O   0  0  0  0  0  0  0  0  0  0  0  0
    7.8613  -15.0127   17.6805 N   0  0  0  0  0  0  0  0  0  0  0  0
    7.5475  -13.6336   17.5517 C   0  0  0  0  0  0  0  0  0  0  0  0
    7.7794  -13.0030   16.4522 N   0  0  0  0  0  0  0  0  0  0  0  0
    6.9685  -12.8805   18.6122 N   0  0  0  0  0  0  0  0  0  0  0  0
    6.7620  -13.4884   19.9039 C   0  0  0  0  0  0  0  0  0  0  0  0
    8.1122  -13.9309   20.4506 C   0  0  0  0  0  0  0  0  0  0  0  0
    7.9056  -14.5642   21.7876 C   0  0  0  0  0  0  0  0  0  0  0  0
    9.1675  -15.1139   22.3966 C   0  0  2  0  0  0  0  0  0  0  0  0
    9.6976  -16.1308   21.4978 N   0  0  0  0  0  0  0  0  0  0  0  0
    8.9735  -15.6838   23.7673 C   0  0  0  0  0  0  0  0  0  0  0  0
    8.5257  -16.8449   23.9402 O   0  0  0  0  0  0  0  0  0  0  0  0
    7.5522  -12.0010   16.3970 N   0  0  0  0  0  0  0  0  0  0  0  0
   11.4725  -21.3351   29.5380 C   0  0  0  0  0  0  0  0  0  0  0  0
   11.2407  -20.0022   29.0917 N   0  0  0  0  0  0  0  0  0  0  0  0
   11.1413  -19.0251   29.9103 N   0  0  0  0  0  0  0  0  0  0  0  0
   11.1219  -19.7884   27.7018 C   0  0  0  0  0  0  0  0  0  0  0  0
   11.8905  -18.6474   27.1199 C   0  0  0  0  0  0  0  0  0  0  0  0
   11.0219  -17.4556   27.2166 C   0  0  0  0  0  0  0  0  0  0  0  0
   10.5104  -16.7346   26.0501 C   0  0  1  0  0  0  0  0  0  0  0  0
    9.6810  -15.5529   26.2244 N   0  0  0  0  0  0  0  0  0  0  0  0
    9.2824  -14.9464   24.9351 C   0  0  0  0  0  0  0  0  0  0  0  0
    9.9596  -14.5299   27.2124 O   0  0  0  0  0  0  0  0  0  0  0  0
   10.5184  -14.8917   28.3538 O   0  0  0  0  0  0  0  0  0  0  0  0
  2  1  1  6
  3  2  1  0
  3  4  1  0
  4  8  1  0
  4  5  2  0
  6  7  2  0
  6  2  1  0
  9 10  1  0
 10 12  1  0
 11 10  2  0
 12 13  1  0
 13 14  1  0
 14 15  1  0
 16 15  1  6
 16 17  1  0
 17  6  1  0
 18 19  2  0
 18 16  1  0
 20 21  1  0
 21 23  1  0
 21 22  2  0
 23 24  1  0
 25 24  1  0
 25 26  1  0
 27 26  1  6
 27 29  1  0
 27 28  1  0
 28 18  1  0
 29 31  1  0
 30 29  2  0
M  END
$$$$
