DRR.pdb
     RDKit          3D

 31 30  0  0  1  0  0  0  0  0999 V2000
   12.4253  -19.1814   19.1020 N   0  0  0  0  0  0  0  0  0  0  0  0
   13.2582  -18.0089   19.1395 C   0  0  1  0  0  0  0  0  0  0  0  0
   13.6507  -17.5509   17.7617 C   0  0  0  0  0  0  0  0  0  0  0  0
   14.7409  -18.3885   17.2216 C   0  0  0  0  0  0  0  0  0  0  0  0
   14.8522  -19.5882   17.6326 O   0  0  0  0  0  0  0  0  0  0  0  0
   12.4953  -16.9417   19.8675 C   0  0  0  0  0  0  0  0  0  0  0  0
   12.9478  -15.7781   19.9860 O   0  0  0  0  0  0  0  0  0  0  0  0
   15.6539  -17.9378   16.2871 O   0  0  0  0  0  0  0  0  0  0  0  0
    7.7886  -13.5448   16.5131 N   0  0  0  0  0  0  0  0  0  0  0  0
    7.8183  -13.4901   17.9320 C   0  0  0  0  0  0  0  0  0  0  0  0
    7.9923  -12.3710   18.5465 N   0  0  0  0  0  0  0  0  0  0  0  0
    7.6606  -14.6490   18.7438 N   0  0  0  0  0  0  0  0  0  0  0  0
    7.2042  -14.5226   20.1062 C   0  0  0  0  0  0  0  0  0  0  0  0
    8.3693  -14.8314   21.0363 C   0  0  0  0  0  0  0  0  0  0  0  0
    9.2732  -15.8132   20.3653 C   0  0  0  0  0  0  0  0  0  0  0  0
   10.4707  -16.1950   21.1934 C   0  0  2  0  0  0  0  0  0  0  0  0
   11.2299  -17.1962   20.4557 N   0  0  0  0  0  0  0  0  0  0  0  0
   10.1195  -16.7099   22.5546 C   0  0  0  0  0  0  0  0  0  0  0  0
    9.2094  -17.5596   22.7224 O   0  0  0  0  0  0  0  0  0  0  0  0
    8.0528  -12.3728   19.5737 N   0  0  0  0  0  0  0  0  0  0  0  0
    4.5733  -11.9619   26.7844 C   0  0  0  0  0  0  0  0  0  0  0  0
    5.9874  -11.9498   26.9576 N   0  0  0  0  0  0  0  0  0  0  0  0
    6.6440  -10.8577   27.0635 N   0  0  0  0  0  0  0  0  0  0  0  0
    6.6514  -13.1940   27.0089 C   0  0  0  0  0  0  0  0  0  0  0  0
    8.0897  -13.2156   26.6060 C   0  0  0  0  0  0  0  0  0  0  0  0
    8.3815  -14.5883   26.1428 C   0  0  0  0  0  0  0  0  0  0  0  0
    9.2360  -14.8860   24.9924 C   0  0  1  0  0  0  0  0  0  0  0  0
   10.1341  -16.0293   25.0227 N   0  0  0  0  0  0  0  0  0  0  0  0
   10.7914  -16.2669   23.7186 C   0  0  0  0  0  0  0  0  0  0  0  0
    9.7973  -17.2827   25.6675 O   0  0  0  0  0  0  0  0  0  0  0  0
    9.7359  -18.3756   24.9273 O   0  0  0  0  0  0  0  0  0  0  0  0
  2  1  1  6
  3  2  1  0
  3  4  1  0
  4  8  1  0
  4  5  2  0
  6  7  2  0
  6  2  1  0
  9 10  1  0
 10 12  1  0
 11 10  2  0
 12 13  1  0
 13 14  1  0
 14 15  1  0
 16 15  1  6
 16 17  1  0
 17  6  1  0
 18 19  2  0
 18 16  1  0
 20 21  1  0
 21 23  1  0
 21 22  2  0
 23 24  1  0
 25 24  1  0
 25 26  1  0
 27 26  1  1
 27 29  1  0
 27 28  1  0
 28 18  1  0
 29 31  1  0
 30 29  2  0
M  END
$$$$
