DRR.pdb
     RDKit          3D

 31 30  0  0  1  0  0  0  0  0999 V2000
   15.4537  -16.2622   17.7632 N   0  0  0  0  0  0  0  0  0  0  0  0
   15.4297  -15.2576   18.7930 C   0  0  1  0  0  0  0  0  0  0  0  0
   15.5001  -13.8663   18.2262 C   0  0  0  0  0  0  0  0  0  0  0  0
   16.8479  -13.5859   17.6908 C   0  0  0  0  0  0  0  0  0  0  0  0
   17.4525  -14.5011   17.0446 O   0  0  0  0  0  0  0  0  0  0  0  0
   14.1698  -15.4570   19.5827 C   0  0  0  0  0  0  0  0  0  0  0  0
   13.8714  -14.7052   20.5412 O   0  0  0  0  0  0  0  0  0  0  0  0
   17.4937  -12.3750   17.8540 O   0  0  0  0  0  0  0  0  0  0  0  0
    8.3245  -21.3660   17.5257 N   0  0  0  0  0  0  0  0  0  0  0  0
    8.4039  -19.9694   17.2806 C   0  0  0  0  0  0  0  0  0  0  0  0
    7.9970  -19.4703   16.1644 N   0  0  0  0  0  0  0  0  0  0  0  0
    8.9290  -19.0552   18.2374 N   0  0  0  0  0  0  0  0  0  0  0  0
    9.4901  -19.5430   19.4735 C   0  0  0  0  0  0  0  0  0  0  0  0
   10.1345  -18.3740   20.2057 C   0  0  0  0  0  0  0  0  0  0  0  0
   11.3532  -17.9487   19.4541 C   0  0  0  0  0  0  0  0  0  0  0  0
   12.0486  -16.7574   20.0564 C   0  0  2  0  0  0  0  0  0  0  0  0
   13.2581  -16.5022   19.2851 N   0  0  0  0  0  0  0  0  0  0  0  0
   12.3841  -16.9277   21.5055 C   0  0  0  0  0  0  0  0  0  0  0  0
   13.4555  -17.4709   21.8737 O   0  0  0  0  0  0  0  0  0  0  0  0
    8.1122  -18.4611   16.0004 N   0  0  0  0  0  0  0  0  0  0  0  0
   10.5097  -15.4379   29.7864 C   0  0  0  0  0  0  0  0  0  0  0  0
   10.1581  -14.3584   28.9258 N   0  0  0  0  0  0  0  0  0  0  0  0
   10.3074  -13.1386   29.2790 N   0  0  0  0  0  0  0  0  0  0  0  0
    9.6329  -14.6781   27.6555 C   0  0  0  0  0  0  0  0  0  0  0  0
    9.8119  -16.0822   27.1781 C   0  0  0  0  0  0  0  0  0  0  0  0
   10.9886  -16.0812   26.2841 C   0  0  0  0  0  0  0  0  0  0  0  0
   10.8952  -15.9520   24.8292 C   0  0  2  0  0  0  0  0  0  0  0  0
   11.6788  -16.8196   23.9644 N   0  0  0  0  0  0  0  0  0  0  0  0
   11.5144  -16.4881   22.5318 C   0  0  0  0  0  0  0  0  0  0  0  0
   11.7705  -18.2531   24.1558 O   0  0  0  0  0  0  0  0  0  0  0  0
   10.9065  -19.0296   23.5259 O   0  0  0  0  0  0  0  0  0  0  0  0
  2  1  1  6
  3  2  1  0
  3  4  1  0
  4  8  1  0
  4  5  2  0
  6  7  2  0
  6  2  1  0
  9 10  1  0
 10 12  1  0
 11 10  2  0
 12 13  1  0
 13 14  1  0
 14 15  1  0
 16 15  1  6
 16 17  1  0
 17  6  1  0
 18 19  2  0
 18 16  1  0
 20 21  1  0
 21 23  1  0
 21 22  2  0
 23 24  1  0
 25 24  1  0
 25 26  1  0
 27 26  1  1
 27 29  1  0
 27 28  1  0
 28 18  1  0
 29 31  1  0
 30 29  2  0
M  END
$$$$
