DRR.pdb
     RDKit          3D

 31 30  0  0  1  0  0  0  0  0999 V2000
   13.8044  -18.0212   19.2815 N   0  0  0  0  0  0  0  0  0  0  0  0
   12.4447  -18.3865   19.5783 C   0  0  1  0  0  0  0  0  0  0  0  0
   12.3665  -19.6024   20.4601 C   0  0  0  0  0  0  0  0  0  0  0  0
   12.7517  -20.8172   19.7133 C   0  0  0  0  0  0  0  0  0  0  0  0
   13.1366  -20.6972   18.5058 O   0  0  0  0  0  0  0  0  0  0  0  0
   11.7960  -17.2019   20.2314 C   0  0  0  0  0  0  0  0  0  0  0  0
   12.3345  -16.6093   21.1967 O   0  0  0  0  0  0  0  0  0  0  0  0
   12.7171  -22.0870   20.2578 O   0  0  0  0  0  0  0  0  0  0  0  0
    6.8716  -11.9317   16.1827 N   0  0  0  0  0  0  0  0  0  0  0  0
    7.5228  -13.1885   16.2981 C   0  0  0  0  0  0  0  0  0  0  0  0
    7.8351  -13.8696   15.2497 N   0  0  0  0  0  0  0  0  0  0  0  0
    7.8624  -13.7594   17.5574 N   0  0  0  0  0  0  0  0  0  0  0  0
    7.4733  -13.1004   18.7801 C   0  0  0  0  0  0  0  0  0  0  0  0
    8.1349  -13.8193   19.9477 C   0  0  0  0  0  0  0  0  0  0  0  0
    8.9164  -14.9773   19.4190 C   0  0  0  0  0  0  0  0  0  0  0  0
    9.8646  -15.5747   20.4237 C   0  0  2  0  0  0  0  0  0  0  0  0
   10.5458  -16.6966   19.7911 N   0  0  0  0  0  0  0  0  0  0  0  0
    9.1974  -16.0194   21.6879 C   0  0  0  0  0  0  0  0  0  0  0  0
    8.4349  -17.0176   21.7139 O   0  0  0  0  0  0  0  0  0  0  0  0
    8.3372  -14.7600   15.3673 N   0  0  0  0  0  0  0  0  0  0  0  0
   10.3572  -18.2855   29.4178 C   0  0  0  0  0  0  0  0  0  0  0  0
   11.1830  -18.4574   28.2697 N   0  0  0  0  0  0  0  0  0  0  0  0
   12.4543  -18.5577   28.3627 N   0  0  0  0  0  0  0  0  0  0  0  0
   10.5493  -18.5140   27.0099 C   0  0  0  0  0  0  0  0  0  0  0  0
    9.1765  -17.9337   26.9113 C   0  0  0  0  0  0  0  0  0  0  0  0
    9.3406  -16.5124   26.5410 C   0  0  0  0  0  0  0  0  0  0  0  0
    9.7638  -16.0697   25.2117 C   0  0  2  0  0  0  0  0  0  0  0  0
    8.7735  -15.7438   24.1979 N   0  0  0  0  0  0  0  0  0  0  0  0
    9.3896  -15.3402   22.9146 C   0  0  0  0  0  0  0  0  0  0  0  0
    7.5897  -14.9547   24.4735 O   0  0  0  0  0  0  0  0  0  0  0  0
    7.4703  -13.7737   23.8929 O   0  0  0  0  0  0  0  0  0  0  0  0
  2  1  1  1
  3  2  1  0
  3  4  1  0
  4  8  1  0
  4  5  2  0
  6  7  2  0
  6  2  1  0
  9 10  1  0
 10 12  1  0
 11 10  2  0
 12 13  1  0
 13 14  1  0
 14 15  1  0
 16 15  1  6
 16 17  1  0
 17  6  1  0
 18 19  2  0
 18 16  1  0
 20 21  1  0
 21 23  1  0
 21 22  2  0
 23 24  1  0
 25 24  1  0
 25 26  1  0
 27 26  1  6
 27 29  1  0
 27 28  1  0
 28 18  1  0
 29 31  1  0
 30 29  2  0
M  END
$$$$
