DRR.pdb
     RDKit          3D

 31 30  0  0  1  0  0  0  0  0999 V2000
   11.1986  -17.5700   23.6164 N   0  0  0  0  0  0  0  0  0  0  0  0
   11.6206  -17.0296   22.3514 C   0  0  1  0  0  0  0  0  0  0  0  0
   11.9528  -18.1096   21.3588 C   0  0  0  0  0  0  0  0  0  0  0  0
   11.0380  -19.2595   21.5094 C   0  0  0  0  0  0  0  0  0  0  0  0
   10.7113  -19.9217   20.4723 O   0  0  0  0  0  0  0  0  0  0  0  0
   10.5119  -16.1537   21.8472 C   0  0  0  0  0  0  0  0  0  0  0  0
   10.5492  -15.6434   20.7022 O   0  0  0  0  0  0  0  0  0  0  0  0
   10.5132  -19.6593   22.7238 O   0  0  0  0  0  0  0  0  0  0  0  0
    6.3231  -13.1013   17.4555 N   0  0  0  0  0  0  0  0  0  0  0  0
    7.4134  -13.7683   16.8362 C   0  0  0  0  0  0  0  0  0  0  0  0
    8.0193  -13.2463   15.8258 N   0  0  0  0  0  0  0  0  0  0  0  0
    7.8917  -15.0309   17.2878 N   0  0  0  0  0  0  0  0  0  0  0  0
    7.3835  -15.6029   18.5106 C   0  0  0  0  0  0  0  0  0  0  0  0
    8.0769  -14.9262   19.6849 C   0  0  0  0  0  0  0  0  0  0  0  0
    7.6912  -15.6326   20.9432 C   0  0  0  0  0  0  0  0  0  0  0  0
    8.2750  -15.0149   22.1854 C   0  0  2  0  0  0  0  0  0  0  0  0
    9.3716  -15.8606   22.6384 N   0  0  0  0  0  0  0  0  0  0  0  0
    7.2784  -14.8244   23.2863 C   0  0  0  0  0  0  0  0  0  0  0  0
    6.3826  -15.6744   23.5176 O   0  0  0  0  0  0  0  0  0  0  0  0
    8.8017  -13.7589   15.3970 N   0  0  0  0  0  0  0  0  0  0  0  0
   12.2353  -17.2472   28.8252 C   0  0  0  0  0  0  0  0  0  0  0  0
   11.5598  -16.3024   29.6501 N   0  0  0  0  0  0  0  0  0  0  0  0
   11.7920  -16.2152   30.9044 N   0  0  0  0  0  0  0  0  0  0  0  0
   10.6138  -15.4546   29.0352 C   0  0  0  0  0  0  0  0  0  0  0  0
   10.3174  -15.6985   27.5916 C   0  0  0  0  0  0  0  0  0  0  0  0
    9.2573  -14.7431   27.2073 C   0  0  0  0  0  0  0  0  0  0  0  0
    8.7143  -14.6445   25.8518 C   0  0  1  0  0  0  0  0  0  0  0  0
    7.6507  -13.6982   25.5552 N   0  0  0  0  0  0  0  0  0  0  0  0
    7.2932  -13.6806   24.1196 C   0  0  0  0  0  0  0  0  0  0  0  0
    7.6008  -12.3630   26.1165 O   0  0  0  0  0  0  0  0  0  0  0  0
    8.0974  -11.3633   25.4094 O   0  0  0  0  0  0  0  0  0  0  0  0
  2  1  1  1
  3  2  1  0
  3  4  1  0
  4  8  1  0
  4  5  2  0
  6  7  2  0
  6  2  1  0
  9 10  1  0
 10 12  1  0
 11 10  2  0
 12 13  1  0
 13 14  1  0
 14 15  1  0
 16 15  1  6
 16 17  1  0
 17  6  1  0
 18 19  2  0
 18 16  1  0
 20 21  1  0
 21 23  1  0
 21 22  2  0
 23 24  1  0
 25 24  1  0
 25 26  1  0
 27 26  1  1
 27 29  1  0
 27 28  1  0
 28 18  1  0
 29 31  1  0
 30 29  2  0
M  END
$$$$
