WGT.pdb
     RDKit          3D

 26 27  0  0  1  0  0  0  0  0999 V2000
   25.2201  -20.0786   -9.7002 N   0  0  0  0  0  0  0  0  0  0  0  0
   26.6059  -20.4718   -9.9026 C   0  0  1  0  0  0  0  0  0  0  0  0
   27.0567  -21.1398   -8.6177 C   0  0  0  0  0  0  0  0  0  0  0  0
   27.2053  -20.1899   -7.5021 C   0  0  0  0  0  0  0  0  0  0  0  0
   26.5007  -19.0316   -7.3046 C   0  0  0  0  0  0  0  0  0  0  0  0
   26.9082  -18.4184   -6.1750 N   0  0  0  0  0  0  0  0  0  0  0  0
   27.8874  -19.1852   -5.6324 C   0  0  0  0  0  0  0  0  0  0  0  0
   28.6303  -19.0027   -4.4797 C   0  0  0  0  0  0  0  0  0  0  0  0
   29.5847  -19.9377   -4.1326 C   0  0  0  0  0  0  0  0  0  0  0  0
   29.8009  -21.0425   -4.9196 C   0  0  0  0  0  0  0  0  0  0  0  0
   29.0394  -21.1906   -6.0635 C   0  0  0  0  0  0  0  0  0  0  0  0
   28.0826  -20.2905   -6.4476 C   0  0  0  0  0  0  0  0  0  0  0  0
   26.7681  -21.3482  -11.0722 C   0  0  0  0  0  0  0  0  0  0  0  0
   26.0993  -22.4073  -11.1463 O   0  0  0  0  0  0  0  0  0  0  0  0
   27.6587  -21.0409  -12.1292 N   0  0  0  0  0  0  0  0  0  0  0  0
   27.6672  -21.7201  -13.3966 C   0  0  0  0  0  0  0  0  0  0  0  0
   26.4032  -21.4613  -14.1212 C   0  0  0  0  0  0  0  0  0  0  0  0
   26.3943  -20.6915  -15.1529 O   0  0  0  0  0  0  0  0  0  0  0  0
   22.5155  -23.0967  -13.0518 C   0  0  0  0  0  0  0  0  0  0  0  0
   22.9503  -22.8631  -14.4749 C   0  0  1  0  0  0  0  0  0  0  0  0
   21.8037  -22.5829  -15.2171 O   0  0  0  0  0  0  0  0  0  0  0  0
   23.9403  -21.7196  -14.5768 C   0  0  2  0  0  0  0  0  0  0  0  0
   25.1371  -21.9946  -13.7938 N   0  0  0  0  0  0  0  0  0  0  0  0
   23.3339  -20.4280  -14.2242 C   0  0  0  0  0  0  0  0  0  0  0  0
   22.3397  -19.8156  -14.9638 O   0  0  0  0  0  0  0  0  0  0  0  0
   23.7377  -19.8381  -13.1898 O   0  0  0  0  0  0  0  0  0  0  0  0
  2  1  1  1
  3  2  1  0
  4  3  1  0
  5  4  2  0
  6  7  1  0
  6  5  1  0
  7 12  2  0
  8  7  1  0
  8  9  2  0
  9 10  1  0
 10 11  2  0
 12  4  1  0
 12 11  1  0
 13 15  1  0
 13  2  1  0
 14 13  2  0
 16 15  1  0
 17 16  1  0
 18 17  2  0
 20 19  1  1
 20 22  1  0
 21 20  1  0
 22 24  1  0
 22 23  1  1
 23 17  1  0
 24 25  1  0
 26 24  2  0
M  END
$$$$
