WGT.pdb
     RDKit          3D

 26 27  0  0  1  0  0  0  0  0999 V2000
   26.5385  -22.6598  -11.8952 N   0  0  0  0  0  0  0  0  0  0  0  0
   25.9043  -21.4136  -11.4944 C   0  0  1  0  0  0  0  0  0  0  0  0
   27.0157  -20.3923  -11.3461 C   0  0  0  0  0  0  0  0  0  0  0  0
   27.9897  -20.7561  -10.3030 C   0  0  0  0  0  0  0  0  0  0  0  0
   29.2228  -21.3241  -10.4868 C   0  0  0  0  0  0  0  0  0  0  0  0
   29.8358  -21.5149   -9.3011 N   0  0  0  0  0  0  0  0  0  0  0  0
   28.9931  -21.0667   -8.3365 C   0  0  0  0  0  0  0  0  0  0  0  0
   29.1438  -21.0358   -6.9616 C   0  0  0  0  0  0  0  0  0  0  0  0
   28.1287  -20.5229   -6.1793 C   0  0  0  0  0  0  0  0  0  0  0  0
   26.9759  -20.0454   -6.7532 C   0  0  0  0  0  0  0  0  0  0  0  0
   26.8616  -20.0927   -8.1298 C   0  0  0  0  0  0  0  0  0  0  0  0
   27.8408  -20.5918   -8.9455 C   0  0  0  0  0  0  0  0  0  0  0  0
   24.8759  -20.9818  -12.4527 C   0  0  0  0  0  0  0  0  0  0  0  0
   25.2257  -20.5199  -13.5657 O   0  0  0  0  0  0  0  0  0  0  0  0
   23.4919  -21.0677  -12.1660 N   0  0  0  0  0  0  0  0  0  0  0  0
   22.4578  -20.5912  -13.0442 C   0  0  0  0  0  0  0  0  0  0  0  0
   21.1301  -20.7905  -12.4220 C   0  0  0  0  0  0  0  0  0  0  0  0
   21.0293  -21.3986  -11.2919 O   0  0  0  0  0  0  0  0  0  0  0  0
   17.9716  -18.1805  -12.5853 C   0  0  0  0  0  0  0  0  0  0  0  0
   17.5666  -19.6179  -12.7819 C   0  0  1  0  0  0  0  0  0  0  0  0
   17.3609  -19.8068  -14.1479 O   0  0  0  0  0  0  0  0  0  0  0  0
   18.6262  -20.5728  -12.2685 C   0  0  2  0  0  0  0  0  0  0  0  0
   19.8937  -20.3630  -12.9544 N   0  0  0  0  0  0  0  0  0  0  0  0
   18.1881  -21.9743  -12.3334 C   0  0  0  0  0  0  0  0  0  0  0  0
   17.2714  -22.5364  -11.4650 O   0  0  0  0  0  0  0  0  0  0  0  0
   18.6709  -22.7129  -13.2291 O   0  0  0  0  0  0  0  0  0  0  0  0
  2  1  1  6
  3  2  1  0
  4  3  1  0
  5  4  2  0
  6  7  1  0
  6  5  1  0
  7 12  2  0
  8  7  1  0
  8  9  2  0
  9 10  1  0
 10 11  2  0
 12  4  1  0
 12 11  1  0
 13 15  1  0
 13  2  1  0
 14 13  2  0
 16 15  1  0
 17 16  1  0
 18 17  2  0
 20 19  1  6
 20 22  1  0
 21 20  1  0
 22 24  1  0
 22 23  1  6
 23 17  1  0
 24 25  1  0
 26 24  2  0
M  END
$$$$
