WGT.pdb
     RDKit          3D

 26 27  0  0  1  0  0  0  0  0999 V2000
   26.6162  -18.1114  -16.8424 N   0  0  0  0  0  0  0  0  0  0  0  0
   25.9555  -19.0699  -15.9703 C   0  0  1  0  0  0  0  0  0  0  0  0
   24.9705  -19.8326  -16.8355 C   0  0  0  0  0  0  0  0  0  0  0  0
   23.9296  -18.9664  -17.4145 C   0  0  0  0  0  0  0  0  0  0  0  0
   22.8395  -18.4424  -16.7710 C   0  0  0  0  0  0  0  0  0  0  0  0
   22.1046  -17.6957  -17.6198 N   0  0  0  0  0  0  0  0  0  0  0  0
   22.7227  -17.7342  -18.8272 C   0  0  0  0  0  0  0  0  0  0  0  0
   22.3784  -17.1379  -20.0272 C   0  0  0  0  0  0  0  0  0  0  0  0
   23.1806  -17.3289  -21.1342 C   0  0  0  0  0  0  0  0  0  0  0  0
   24.3125  -18.1028  -21.0534 C   0  0  0  0  0  0  0  0  0  0  0  0
   24.6240  -18.6821  -19.8378 C   0  0  0  0  0  0  0  0  0  0  0  0
   23.8595  -18.5211  -18.7141 C   0  0  0  0  0  0  0  0  0  0  0  0
   26.9138  -19.9614  -15.2999 C   0  0  0  0  0  0  0  0  0  0  0  0
   27.8780  -20.4314  -15.9510 O   0  0  0  0  0  0  0  0  0  0  0  0
   26.7901  -20.3140  -13.9341 N   0  0  0  0  0  0  0  0  0  0  0  0
   27.7614  -21.0915  -13.2132 C   0  0  0  0  0  0  0  0  0  0  0  0
   27.4320  -21.1065  -11.7706 C   0  0  0  0  0  0  0  0  0  0  0  0
   28.1300  -21.8164  -10.9545 O   0  0  0  0  0  0  0  0  0  0  0  0
   27.0835  -20.1917   -8.3469 C   0  0  0  0  0  0  0  0  0  0  0  0
   25.6541  -20.2325   -8.8202 C   0  0  1  0  0  0  0  0  0  0  0  0
   25.2264  -18.9127   -8.9587 O   0  0  0  0  0  0  0  0  0  0  0  0
   25.5214  -20.9735  -10.1359 C   0  0  2  0  0  0  0  0  0  0  0  0
   26.3841  -20.3887  -11.1532 N   0  0  0  0  0  0  0  0  0  0  0  0
   24.1241  -21.0651  -10.5825 C   0  0  0  0  0  0  0  0  0  0  0  0
   23.1182  -21.6658   -9.8491 O   0  0  0  0  0  0  0  0  0  0  0  0
   23.8166  -20.5700  -11.6966 O   0  0  0  0  0  0  0  0  0  0  0  0
  2  1  1  6
  3  2  1  0
  4  3  1  0
  5  4  2  0
  6  7  1  0
  6  5  1  0
  7 12  2  0
  8  7  1  0
  8  9  2  0
  9 10  1  0
 10 11  2  0
 12  4  1  0
 12 11  1  0
 13 15  1  0
 13  2  1  0
 14 13  2  0
 16 15  1  0
 17 16  1  0
 18 17  2  0
 20 19  1  6
 20 22  1  0
 21 20  1  0
 22 24  1  0
 22 23  1  6
 23 17  1  0
 24 25  1  0
 26 24  2  0
M  END
$$$$
