WGT.pdb
     RDKit          3D

 26 27  0  0  1  0  0  0  0  0999 V2000
   26.8867  -21.9399  -11.2236 N   0  0  0  0  0  0  0  0  0  0  0  0
   26.1269  -20.8361  -10.6579 C   0  0  1  0  0  0  0  0  0  0  0  0
   27.1374  -19.7811  -10.2503 C   0  0  0  0  0  0  0  0  0  0  0  0
   28.0888  -20.2640   -9.2352 C   0  0  0  0  0  0  0  0  0  0  0  0
   29.2635  -20.9333   -9.4568 C   0  0  0  0  0  0  0  0  0  0  0  0
   29.8728  -21.2166   -8.2878 N   0  0  0  0  0  0  0  0  0  0  0  0
   29.0868  -20.7268   -7.2960 C   0  0  0  0  0  0  0  0  0  0  0  0
   29.2581  -20.7545   -5.9235 C   0  0  0  0  0  0  0  0  0  0  0  0
   28.3037  -20.1790   -5.1090 C   0  0  0  0  0  0  0  0  0  0  0  0
   27.1906  -19.5821   -5.6488 C   0  0  0  0  0  0  0  0  0  0  0  0
   27.0541  -19.5741   -7.0242 C   0  0  0  0  0  0  0  0  0  0  0  0
   27.9735  -20.1316   -7.8709 C   0  0  0  0  0  0  0  0  0  0  0  0
   25.1251  -20.3131  -11.5989 C   0  0  0  0  0  0  0  0  0  0  0  0
   25.3163  -19.2010  -12.1475 O   0  0  0  0  0  0  0  0  0  0  0  0
   23.9408  -21.0225  -11.9135 N   0  0  0  0  0  0  0  0  0  0  0  0
   22.9248  -20.5351  -12.8067 C   0  0  0  0  0  0  0  0  0  0  0  0
   21.7858  -21.4791  -12.8454 C   0  0  0  0  0  0  0  0  0  0  0  0
   21.7643  -22.4326  -13.7099 O   0  0  0  0  0  0  0  0  0  0  0  0
   19.8284  -23.3571   -9.8118 C   0  0  0  0  0  0  0  0  0  0  0  0
   18.9058  -22.6409  -10.7629 C   0  0  1  0  0  0  0  0  0  0  0  0
   18.5602  -21.4276  -10.1693 O   0  0  0  0  0  0  0  0  0  0  0  0
   19.5631  -22.4045  -12.1084 C   0  0  2  0  0  0  0  0  0  0  0  0
   20.6600  -21.4535  -11.9930 N   0  0  0  0  0  0  0  0  0  0  0  0
   18.5923  -22.0061  -13.1375 C   0  0  0  0  0  0  0  0  0  0  0  0
   17.5876  -22.8297  -13.6096 O   0  0  0  0  0  0  0  0  0  0  0  0
   18.6733  -20.8490  -13.6228 O   0  0  0  0  0  0  0  0  0  0  0  0
  2  1  1  6
  3  2  1  0
  4  3  1  0
  5  4  2  0
  6  7  1  0
  6  5  1  0
  7 12  2  0
  8  7  1  0
  8  9  2  0
  9 10  1  0
 10 11  2  0
 12  4  1  0
 12 11  1  0
 13 15  1  0
 13  2  1  0
 14 13  2  0
 16 15  1  0
 17 16  1  0
 18 17  2  0
 20 19  1  1
 20 22  1  0
 21 20  1  0
 22 24  1  0
 22 23  1  1
 23 17  1  0
 24 25  1  0
 26 24  2  0
M  END
$$$$
