WGT.pdb
     RDKit          3D

 26 27  0  0  1  0  0  0  0  0999 V2000
   25.4791  -20.9150   -9.2660 N   0  0  0  0  0  0  0  0  0  0  0  0
   26.6895  -20.3263   -9.8176 C   0  0  1  0  0  0  0  0  0  0  0  0
   27.8169  -20.6915   -8.8710 C   0  0  0  0  0  0  0  0  0  0  0  0
   27.7672  -19.9380   -7.6066 C   0  0  0  0  0  0  0  0  0  0  0  0
   26.9980  -18.8385   -7.3304 C   0  0  0  0  0  0  0  0  0  0  0  0
   27.2152  -18.4157   -6.0686 N   0  0  0  0  0  0  0  0  0  0  0  0
   28.1347  -19.2484   -5.5185 C   0  0  0  0  0  0  0  0  0  0  0  0
   28.6966  -19.2496   -4.2543 C   0  0  0  0  0  0  0  0  0  0  0  0
   29.6260  -20.2161   -3.9261 C   0  0  0  0  0  0  0  0  0  0  0  0
   29.9950  -21.1717   -4.8410 C   0  0  0  0  0  0  0  0  0  0  0  0
   29.4121  -21.1384   -6.0937 C   0  0  0  0  0  0  0  0  0  0  0  0
   28.4870  -20.2003   -6.4641 C   0  0  0  0  0  0  0  0  0  0  0  0
   26.9488  -20.7784  -11.1927 C   0  0  0  0  0  0  0  0  0  0  0  0
   27.1957  -21.9899  -11.4069 O   0  0  0  0  0  0  0  0  0  0  0  0
   26.9307  -19.8913  -12.2961 N   0  0  0  0  0  0  0  0  0  0  0  0
   27.2344  -20.2812  -13.6464 C   0  0  0  0  0  0  0  0  0  0  0  0
   26.0025  -20.7209  -14.3384 C   0  0  0  0  0  0  0  0  0  0  0  0
   26.0184  -20.9514  -15.6047 O   0  0  0  0  0  0  0  0  0  0  0  0
   24.1881  -23.7693  -14.2776 C   0  0  0  0  0  0  0  0  0  0  0  0
   23.1168  -22.7350  -14.0505 C   0  0  1  0  0  0  0  0  0  0  0  0
   22.8161  -22.7429  -12.6890 O   0  0  0  0  0  0  0  0  0  0  0  0
   23.5702  -21.3553  -14.4851 C   0  0  2  0  0  0  0  0  0  0  0  0
   24.7435  -20.9312  -13.7339 N   0  0  0  0  0  0  0  0  0  0  0  0
   22.4838  -20.3676  -14.4172 C   0  0  0  0  0  0  0  0  0  0  0  0
   21.2729  -20.5075  -15.0689 O   0  0  0  0  0  0  0  0  0  0  0  0
   22.6579  -19.3308  -13.7276 O   0  0  0  0  0  0  0  0  0  0  0  0
  2  1  1  1
  3  2  1  0
  4  3  1  0
  5  4  2  0
  6  7  1  0
  6  5  1  0
  7 12  2  0
  8  7  1  0
  8  9  2  0
  9 10  1  0
 10 11  2  0
 12  4  1  0
 12 11  1  0
 13 15  1  0
 13  2  1  0
 14 13  2  0
 16 15  1  0
 17 16  1  0
 18 17  2  0
 20 19  1  1
 20 22  1  0
 21 20  1  0
 22 24  1  0
 22 23  1  1
 23 17  1  0
 24 25  1  0
 26 24  2  0
M  END
$$$$
