WGT.pdb
     RDKit          3D

 26 27  0  0  1  0  0  0  0  0999 V2000
   26.9713  -21.7087  -12.5165 N   0  0  0  0  0  0  0  0  0  0  0  0
   25.8345  -21.4764  -11.6392 C   0  0  1  0  0  0  0  0  0  0  0  0
   26.2850  -20.4576  -10.6099 C   0  0  0  0  0  0  0  0  0  0  0  0
   27.5704  -20.8096   -9.9832 C   0  0  0  0  0  0  0  0  0  0  0  0
   28.5765  -21.5625  -10.5291 C   0  0  0  0  0  0  0  0  0  0  0  0
   29.6040  -21.6755   -9.6634 N   0  0  0  0  0  0  0  0  0  0  0  0
   29.2631  -20.9895   -8.5434 C   0  0  0  0  0  0  0  0  0  0  0  0
   29.9633  -20.7956   -7.3660 C   0  0  0  0  0  0  0  0  0  0  0  0
   29.3957  -20.0466   -6.3548 C   0  0  0  0  0  0  0  0  0  0  0  0
   28.1472  -19.4953   -6.5084 C   0  0  0  0  0  0  0  0  0  0  0  0
   27.4783  -19.7106   -7.6986 C   0  0  0  0  0  0  0  0  0  0  0  0
   28.0005  -20.4455   -8.7284 C   0  0  0  0  0  0  0  0  0  0  0  0
   24.6449  -21.0307  -12.3798 C   0  0  0  0  0  0  0  0  0  0  0  0
   24.6963  -19.9695  -13.0475 O   0  0  0  0  0  0  0  0  0  0  0  0
   23.4308  -21.7593  -12.3691 N   0  0  0  0  0  0  0  0  0  0  0  0
   22.1294  -21.1549  -12.4617 C   0  0  0  0  0  0  0  0  0  0  0  0
   21.0901  -22.2010  -12.5850 C   0  0  0  0  0  0  0  0  0  0  0  0
   21.3756  -23.3378  -13.1173 O   0  0  0  0  0  0  0  0  0  0  0  0
   16.6448  -24.0863  -11.4043 C   0  0  0  0  0  0  0  0  0  0  0  0
   17.4957  -22.8553  -11.5760 C   0  0  1  0  0  0  0  0  0  0  0  0
   17.7822  -22.3692  -10.3010 O   0  0  0  0  0  0  0  0  0  0  0  0
   18.7766  -23.1611  -12.3269 C   0  0  2  0  0  0  0  0  0  0  0  0
   19.7483  -22.0893  -12.1585 N   0  0  0  0  0  0  0  0  0  0  0  0
   18.5299  -23.4658  -13.7434 C   0  0  0  0  0  0  0  0  0  0  0  0
   18.5496  -22.5191  -14.7504 O   0  0  0  0  0  0  0  0  0  0  0  0
   18.2857  -24.6558  -14.0674 O   0  0  0  0  0  0  0  0  0  0  0  0
  2  1  1  6
  3  2  1  0
  4  3  1  0
  5  4  2  0
  6  7  1  0
  6  5  1  0
  7 12  2  0
  8  7  1  0
  8  9  2  0
  9 10  1  0
 10 11  2  0
 12  4  1  0
 12 11  1  0
 13 15  1  0
 13  2  1  0
 14 13  2  0
 16 15  1  0
 17 16  1  0
 18 17  2  0
 20 19  1  1
 20 22  1  0
 21 20  1  0
 22 24  1  0
 22 23  1  6
 23 17  1  0
 24 25  1  0
 26 24  2  0
M  END
$$$$
