WGT.pdb
     RDKit          3D

 26 27  0  0  1  0  0  0  0  0999 V2000
   27.1454  -22.1972  -10.4058 N   0  0  0  0  0  0  0  0  0  0  0  0
   26.3456  -21.2259   -9.6759 C   0  0  1  0  0  0  0  0  0  0  0  0
   27.2723  -20.0756   -9.3317 C   0  0  0  0  0  0  0  0  0  0  0  0
   28.3461  -20.4661   -8.4025 C   0  0  0  0  0  0  0  0  0  0  0  0
   29.4953  -21.1467   -8.7079 C   0  0  0  0  0  0  0  0  0  0  0  0
   30.2451  -21.3267   -7.6018 N   0  0  0  0  0  0  0  0  0  0  0  0
   29.5772  -20.7576   -6.5667 C   0  0  0  0  0  0  0  0  0  0  0  0
   29.9130  -20.6674   -5.2277 C   0  0  0  0  0  0  0  0  0  0  0  0
   29.0553  -20.0287   -4.3547 C   0  0  0  0  0  0  0  0  0  0  0  0
   27.8767  -19.4849   -4.8038 C   0  0  0  0  0  0  0  0  0  0  0  0
   27.5753  -19.5948   -6.1482 C   0  0  0  0  0  0  0  0  0  0  0  0
   28.3941  -20.2183   -7.0504 C   0  0  0  0  0  0  0  0  0  0  0  0
   25.1723  -20.7845  -10.4445 C   0  0  0  0  0  0  0  0  0  0  0  0
   24.9133  -19.5593  -10.5248 O   0  0  0  0  0  0  0  0  0  0  0  0
   24.3141  -21.6970  -11.1045 N   0  0  0  0  0  0  0  0  0  0  0  0
   23.8616  -21.5385  -12.4602 C   0  0  0  0  0  0  0  0  0  0  0  0
   22.6053  -20.7571  -12.4893 C   0  0  0  0  0  0  0  0  0  0  0  0
   21.9940  -20.4729  -11.3926 O   0  0  0  0  0  0  0  0  0  0  0  0
   21.6733  -17.5225  -14.7904 C   0  0  0  0  0  0  0  0  0  0  0  0
   20.5996  -18.5788  -14.7912 C   0  0  1  0  0  0  0  0  0  0  0  0
   20.7277  -19.2981  -15.9787 O   0  0  0  0  0  0  0  0  0  0  0  0
   20.7231  -19.5029  -13.5958 C   0  0  2  0  0  0  0  0  0  0  0  0
   21.9679  -20.2572  -13.6462 N   0  0  0  0  0  0  0  0  0  0  0  0
   19.5519  -20.3786  -13.4484 C   0  0  0  0  0  0  0  0  0  0  0  0
   19.5986  -21.7549  -13.5670 O   0  0  0  0  0  0  0  0  0  0  0  0
   18.4372  -19.8528  -13.1995 O   0  0  0  0  0  0  0  0  0  0  0  0
  2  1  1  6
  3  2  1  0
  4  3  1  0
  5  4  2  0
  6  7  1  0
  6  5  1  0
  7 12  2  0
  8  7  1  0
  8  9  2  0
  9 10  1  0
 10 11  2  0
 12  4  1  0
 12 11  1  0
 13 15  1  0
 13  2  1  0
 14 13  2  0
 16 15  1  0
 17 16  1  0
 18 17  2  0
 20 19  1  1
 20 22  1  0
 21 20  1  0
 22 24  1  0
 22 23  1  6
 23 17  1  0
 24 25  1  0
 26 24  2  0
M  END
$$$$
