WGT.pdb
     RDKit          3D

 26 27  0  0  1  0  0  0  0  0999 V2000
   26.6519  -22.5984  -11.8806 N   0  0  0  0  0  0  0  0  0  0  0  0
   25.9434  -21.3435  -11.6830 C   0  0  1  0  0  0  0  0  0  0  0  0
   27.0032  -20.2739  -11.5007 C   0  0  0  0  0  0  0  0  0  0  0  0
   27.9304  -20.5716  -10.3959 C   0  0  0  0  0  0  0  0  0  0  0  0
   29.1425  -21.2042  -10.4829 C   0  0  0  0  0  0  0  0  0  0  0  0
   29.7126  -21.3012   -9.2648 N   0  0  0  0  0  0  0  0  0  0  0  0
   28.8629  -20.7261   -8.3767 C   0  0  0  0  0  0  0  0  0  0  0  0
   28.9755  -20.5654   -7.0072 C   0  0  0  0  0  0  0  0  0  0  0  0
   27.9617  -19.9371   -6.3123 C   0  0  0  0  0  0  0  0  0  0  0  0
   26.8475  -19.4727   -6.9676 C   0  0  0  0  0  0  0  0  0  0  0  0
   26.7706  -19.6514   -8.3359 C   0  0  0  0  0  0  0  0  0  0  0  0
   27.7501  -20.2678   -9.0665 C   0  0  0  0  0  0  0  0  0  0  0  0
   25.0323  -21.0401  -12.7966 C   0  0  0  0  0  0  0  0  0  0  0  0
   25.2751  -21.5060  -13.9361 O   0  0  0  0  0  0  0  0  0  0  0  0
   23.8795  -20.2344  -12.6321 N   0  0  0  0  0  0  0  0  0  0  0  0
   23.0780  -19.7456  -13.7213 C   0  0  0  0  0  0  0  0  0  0  0  0
   21.6561  -20.0918  -13.5021 C   0  0  0  0  0  0  0  0  0  0  0  0
   21.0495  -19.6945  -12.4384 O   0  0  0  0  0  0  0  0  0  0  0  0
   18.7979  -19.8094  -16.3375 C   0  0  0  0  0  0  0  0  0  0  0  0
   18.7044  -21.0873  -15.5456 C   0  0  1  0  0  0  0  0  0  0  0  0
   19.2915  -22.0930  -16.3123 O   0  0  0  0  0  0  0  0  0  0  0  0
   19.4022  -20.9670  -14.2052 C   0  0  2  0  0  0  0  0  0  0  0  0
   20.8435  -20.8467  -14.3764 N   0  0  0  0  0  0  0  0  0  0  0  0
   19.0437  -22.0624  -13.2930 C   0  0  0  0  0  0  0  0  0  0  0  0
   17.8093  -22.1851  -12.6833 O   0  0  0  0  0  0  0  0  0  0  0  0
   19.9051  -22.9448  -13.0473 O   0  0  0  0  0  0  0  0  0  0  0  0
  2  1  1  6
  3  2  1  0
  4  3  1  0
  5  4  2  0
  6  7  1  0
  6  5  1  0
  7 12  2  0
  8  7  1  0
  8  9  2  0
  9 10  1  0
 10 11  2  0
 12  4  1  0
 12 11  1  0
 13 15  1  0
 13  2  1  0
 14 13  2  0
 16 15  1  0
 17 16  1  0
 18 17  2  0
 20 19  1  6
 20 22  1  0
 21 20  1  0
 22 24  1  0
 22 23  1  6
 23 17  1  0
 24 25  1  0
 26 24  2  0
M  END
$$$$
