TYD.pdb
     RDKit          3D

 28 28  0  0  1  0  0  0  0  0999 V2000
    7.0546  -16.2338   19.9802 C   0  0  0  0  0  0  0  0  0  0  0  0
    7.6342  -15.0026   19.2916 C   0  0  1  0  0  0  0  0  0  0  0  0
    7.0515  -14.7739   18.0499 O   0  0  0  0  0  0  0  0  0  0  0  0
    7.3348  -13.7688   20.1496 C   0  0  2  0  0  0  0  0  0  0  0  0
    7.6214  -12.5728   19.3650 N   0  0  0  0  0  0  0  0  0  0  0  0
    8.1646  -13.7158   21.3682 C   0  0  0  0  0  0  0  0  0  0  0  0
    9.3312  -13.2025   21.3393 O   0  0  0  0  0  0  0  0  0  0  0  0
   10.5853  -14.7375   29.9029 O   0  0  0  0  0  0  0  0  0  0  0  0
    9.8811  -14.6301   28.7057 C   0  0  0  0  0  0  0  0  0  0  0  0
    9.4496  -15.7502   28.0192 C   0  0  0  0  0  0  0  0  0  0  0  0
    8.7523  -15.6463   26.8336 C   0  0  0  0  0  0  0  0  0  0  0  0
    8.4538  -14.4108   26.2788 C   0  0  0  0  0  0  0  0  0  0  0  0
    7.7068  -14.3261   25.0101 C   0  0  0  0  0  0  0  0  0  0  0  0
    8.6191  -14.2764   23.8035 C   0  0  2  0  0  0  0  0  0  0  0  0
    7.7678  -14.2080   22.6414 N   0  0  0  0  0  0  0  0  0  0  0  0
    9.5954  -15.3776   23.7455 C   0  0  0  0  0  0  0  0  0  0  0  0
   10.5111  -15.4156   24.5971 O   0  0  0  0  0  0  0  0  0  0  0  0
    8.8787  -13.2924   26.9543 C   0  0  0  0  0  0  0  0  0  0  0  0
    9.5852  -13.4006   28.1557 C   0  0  0  0  0  0  0  0  0  0  0  0
    9.5339  -16.3937   22.7636 N   0  0  0  0  0  0  0  0  0  0  0  0
   10.4868  -17.5145   22.8250 C   0  0  1  0  0  0  0  0  0  0  0  0
    9.8133  -18.7339   22.2229 C   0  0  0  0  0  0  0  0  0  0  0  0
    8.7417  -19.2724   23.0882 C   0  0  0  0  0  0  0  0  0  0  0  0
    7.5680  -19.5052   22.7088 O   0  0  0  0  0  0  0  0  0  0  0  0
   11.6981  -17.1662   22.0452 C   0  0  0  0  0  0  0  0  0  0  0  0
   11.7939  -16.0966   21.3951 O   0  0  0  0  0  0  0  0  0  0  0  0
    9.0455  -19.5446   24.4216 O   0  0  0  0  0  0  0  0  0  0  0  0
   12.8195  -18.0099   21.9827 O   0  0  0  0  0  0  0  0  0  0  0  0
  2  1  1  1
  2  3  1  0
  4  2  1  0
  4  5  1  6
  6  4  1  0
  6  7  2  0
  8  9  1  0
  9 10  2  0
 10 11  1  0
 12 13  1  0
 12 11  2  0
 14 13  1  1
 14 15  1  0
 15  6  1  0
 16 14  1  0
 17 16  2  0
 18 12  1  0
 19 18  2  0
 19  9  1  0
 20 16  1  0
 21 20  1  0
 21 25  1  0
 21 22  1  6
 23 22  1  0
 24 23  2  0
 25 26  2  0
 25 28  1  0
 27 23  1  0
M  END
$$$$
