TYD.pdb
     RDKit          3D

 28 28  0  0  1  0  0  0  0  0999 V2000
    6.1936  -14.0341   18.3479 C   0  0  0  0  0  0  0  0  0  0  0  0
    6.9152  -14.4507   19.6253 C   0  0  1  0  0  0  0  0  0  0  0  0
    7.9517  -15.3431   19.3743 O   0  0  0  0  0  0  0  0  0  0  0  0
    7.5503  -13.2100   20.2621 C   0  0  2  0  0  0  0  0  0  0  0  0
    8.4930  -12.6279   19.3130 N   0  0  0  0  0  0  0  0  0  0  0  0
    8.2941  -13.5286   21.4956 C   0  0  0  0  0  0  0  0  0  0  0  0
    9.5224  -13.8663   21.4460 O   0  0  0  0  0  0  0  0  0  0  0  0
   10.0420  -14.5535   30.2011 O   0  0  0  0  0  0  0  0  0  0  0  0
    9.4597  -14.2693   28.9678 C   0  0  0  0  0  0  0  0  0  0  0  0
    8.0870  -14.1993   28.8168 C   0  0  0  0  0  0  0  0  0  0  0  0
    7.5083  -13.9180   27.5968 C   0  0  0  0  0  0  0  0  0  0  0  0
    8.2808  -13.6930   26.4672 C   0  0  0  0  0  0  0  0  0  0  0  0
    7.6382  -13.3940   25.1740 C   0  0  0  0  0  0  0  0  0  0  0  0
    8.4207  -13.9394   23.9989 C   0  0  2  0  0  0  0  0  0  0  0  0
    7.7442  -13.4931   22.8060 N   0  0  0  0  0  0  0  0  0  0  0  0
    8.6252  -15.3973   24.0409 C   0  0  0  0  0  0  0  0  0  0  0  0
    7.7890  -16.1388   23.4783 O   0  0  0  0  0  0  0  0  0  0  0  0
    9.6458  -13.7606   26.6081 C   0  0  0  0  0  0  0  0  0  0  0  0
   10.2297  -14.0458   27.8458 C   0  0  0  0  0  0  0  0  0  0  0  0
    9.7328  -15.9886   24.6920 N   0  0  0  0  0  0  0  0  0  0  0  0
   10.0273  -17.4131   24.4638 C   0  0  1  0  0  0  0  0  0  0  0  0
   10.2017  -17.6208   22.9707 C   0  0  0  0  0  0  0  0  0  0  0  0
   10.5060  -19.0267   22.6276 C   0  0  0  0  0  0  0  0  0  0  0  0
   10.5993  -19.9604   23.4616 O   0  0  0  0  0  0  0  0  0  0  0  0
   11.2768  -17.7715   25.1760 C   0  0  0  0  0  0  0  0  0  0  0  0
   12.2498  -16.9832   25.2634 O   0  0  0  0  0  0  0  0  0  0  0  0
   10.7053  -19.3495   21.2858 O   0  0  0  0  0  0  0  0  0  0  0  0
   11.4544  -19.0170   25.8008 O   0  0  0  0  0  0  0  0  0  0  0  0
  2  1  1  6
  2  3  1  0
  4  2  1  0
  4  5  1  6
  6  4  1  0
  6  7  2  0
  8  9  1  0
  9 10  2  0
 10 11  1  0
 12 13  1  0
 12 11  2  0
 14 13  1  1
 14 15  1  0
 15  6  1  0
 16 14  1  0
 17 16  2  0
 18 12  1  0
 19 18  2  0
 19  9  1  0
 20 16  1  0
 21 20  1  0
 21 25  1  0
 21 22  1  6
 23 22  1  0
 24 23  2  0
 25 26  2  0
 25 28  1  0
 27 23  1  0
M  END
$$$$
