TYD.pdb
     RDKit          3D

 28 28  0  0  1  0  0  0  0  0999 V2000
    6.2203  -14.6368   18.3507 C   0  0  0  0  0  0  0  0  0  0  0  0
    7.1301  -14.8940   19.5475 C   0  0  1  0  0  0  0  0  0  0  0  0
    8.3831  -15.3582   19.1627 O   0  0  0  0  0  0  0  0  0  0  0  0
    7.3612  -13.5717   20.2867 C   0  0  2  0  0  0  0  0  0  0  0  0
    8.0543  -12.6509   19.3923 N   0  0  0  0  0  0  0  0  0  0  0  0
    8.1945  -13.7391   21.4924 C   0  0  0  0  0  0  0  0  0  0  0  0
    9.4578  -13.5769   21.4381 O   0  0  0  0  0  0  0  0  0  0  0  0
   10.3043  -15.2506   30.0444 O   0  0  0  0  0  0  0  0  0  0  0  0
    9.6448  -14.9850   28.8464 C   0  0  0  0  0  0  0  0  0  0  0  0
    9.0266  -15.9896   28.1247 C   0  0  0  0  0  0  0  0  0  0  0  0
    8.3731  -15.7289   26.9383 C   0  0  0  0  0  0  0  0  0  0  0  0
    8.3082  -14.4450   26.4181 C   0  0  0  0  0  0  0  0  0  0  0  0
    7.6032  -14.1920   25.1477 C   0  0  0  0  0  0  0  0  0  0  0  0
    8.5147  -14.3140   23.9456 C   0  0  2  0  0  0  0  0  0  0  0  0
    7.6983  -14.0819   22.7797 N   0  0  0  0  0  0  0  0  0  0  0  0
    9.2636  -15.5809   23.8885 C   0  0  0  0  0  0  0  0  0  0  0  0
    8.6888  -16.6006   23.4467 O   0  0  0  0  0  0  0  0  0  0  0  0
    8.9197  -13.4406   27.1286 C   0  0  0  0  0  0  0  0  0  0  0  0
    9.5813  -13.7076   28.3308 C   0  0  0  0  0  0  0  0  0  0  0  0
   10.6088  -15.6857   24.3130 N   0  0  0  0  0  0  0  0  0  0  0  0
   11.3349  -16.9493   24.1030 C   0  0  1  0  0  0  0  0  0  0  0  0
   12.5042  -16.6679   23.1776 C   0  0  0  0  0  0  0  0  0  0  0  0
   13.3384  -17.8659   22.9408 C   0  0  0  0  0  0  0  0  0  0  0  0
   12.9251  -18.9315   22.4217 O   0  0  0  0  0  0  0  0  0  0  0  0
   11.8287  -17.4492   25.4080 C   0  0  0  0  0  0  0  0  0  0  0  0
   11.8993  -16.7163   26.4248 O   0  0  0  0  0  0  0  0  0  0  0  0
   14.6803  -17.8197   23.3169 O   0  0  0  0  0  0  0  0  0  0  0  0
   12.2495  -18.7764   25.5934 O   0  0  0  0  0  0  0  0  0  0  0  0
  2  1  1  6
  2  3  1  0
  4  2  1  0
  4  5  1  6
  6  4  1  0
  6  7  2  0
  8  9  1  0
  9 10  2  0
 10 11  1  0
 12 13  1  0
 12 11  2  0
 14 13  1  1
 14 15  1  0
 15  6  1  0
 16 14  1  0
 17 16  2  0
 18 12  1  0
 19 18  2  0
 19  9  1  0
 20 16  1  0
 21 20  1  0
 21 25  1  0
 21 22  1  6
 23 22  1  0
 24 23  2  0
 25 26  2  0
 25 28  1  0
 27 23  1  0
M  END
$$$$
