TYD.pdb
     RDKit          3D

 28 28  0  0  1  0  0  0  0  0999 V2000
    7.7202  -18.7951   20.0652 C   0  0  0  0  0  0  0  0  0  0  0  0
    8.9773  -18.4431   19.2765 C   0  0  1  0  0  0  0  0  0  0  0  0
    8.9400  -18.9448   17.9802 O   0  0  0  0  0  0  0  0  0  0  0  0
    9.0736  -16.9187   19.1534 C   0  0  2  0  0  0  0  0  0  0  0  0
   10.2248  -16.5887   18.3202 N   0  0  0  0  0  0  0  0  0  0  0  0
    9.2610  -16.2592   20.4596 C   0  0  0  0  0  0  0  0  0  0  0  0
   10.3819  -16.3192   21.0641 O   0  0  0  0  0  0  0  0  0  0  0  0
    6.9573  -12.1719   28.0756 O   0  0  0  0  0  0  0  0  0  0  0  0
    7.0129  -12.6493   26.7680 C   0  0  0  0  0  0  0  0  0  0  0  0
    6.3562  -13.8073   26.3939 C   0  0  0  0  0  0  0  0  0  0  0  0
    6.4100  -14.2817   25.0999 C   0  0  0  0  0  0  0  0  0  0  0  0
    7.1267  -13.6157   24.1170 C   0  0  0  0  0  0  0  0  0  0  0  0
    7.1687  -14.1433   22.7405 C   0  0  0  0  0  0  0  0  0  0  0  0
    8.3817  -15.0132   22.4908 C   0  0  2  0  0  0  0  0  0  0  0  0
    8.2584  -15.5225   21.1472 N   0  0  0  0  0  0  0  0  0  0  0  0
    8.5780  -16.0699   23.4977 C   0  0  0  0  0  0  0  0  0  0  0  0
    7.9277  -17.1333   23.3890 O   0  0  0  0  0  0  0  0  0  0  0  0
    7.7824  -12.4641   24.4799 C   0  0  0  0  0  0  0  0  0  0  0  0
    7.7262  -11.9855   25.7922 C   0  0  0  0  0  0  0  0  0  0  0  0
    9.4759  -15.9267   24.5812 N   0  0  0  0  0  0  0  0  0  0  0  0
    9.7692  -17.0910   25.4334 C   0  0  1  0  0  0  0  0  0  0  0  0
   10.7606  -17.9719   24.6958 C   0  0  0  0  0  0  0  0  0  0  0  0
   10.3607  -19.3957   24.6964 C   0  0  0  0  0  0  0  0  0  0  0  0
    9.3425  -19.8504   25.2729 O   0  0  0  0  0  0  0  0  0  0  0  0
   10.3579  -16.6229   26.7106 C   0  0  0  0  0  0  0  0  0  0  0  0
   10.9586  -15.5252   26.8108 O   0  0  0  0  0  0  0  0  0  0  0  0
   11.1642  -20.3063   24.0112 O   0  0  0  0  0  0  0  0  0  0  0  0
   10.2816  -17.3765   27.8936 O   0  0  0  0  0  0  0  0  0  0  0  0
  2  1  1  1
  2  3  1  0
  4  2  1  0
  4  5  1  6
  6  4  1  0
  6  7  2  0
  8  9  1  0
  9 10  2  0
 10 11  1  0
 12 13  1  0
 12 11  2  0
 14 13  1  1
 14 15  1  0
 15  6  1  0
 16 14  1  0
 17 16  2  0
 18 12  1  0
 19 18  2  0
 19  9  1  0
 20 16  1  0
 21 20  1  0
 21 25  1  0
 21 22  1  6
 23 22  1  0
 24 23  2  0
 25 26  2  0
 25 28  1  0
 27 23  1  0
M  END
$$$$
