TYD.pdb
     RDKit          3D

 28 28  0  0  1  0  0  0  0  0999 V2000
    6.2161  -14.2545   18.6512 C   0  0  0  0  0  0  0  0  0  0  0  0
    7.0221  -14.6420   19.8866 C   0  0  1  0  0  0  0  0  0  0  0  0
    8.0994  -15.4633   19.5728 O   0  0  0  0  0  0  0  0  0  0  0  0
    7.6076  -13.3723   20.5138 C   0  0  2  0  0  0  0  0  0  0  0  0
    8.4709  -12.7220   19.5339 N   0  0  0  0  0  0  0  0  0  0  0  0
    8.4225  -13.6594   21.7096 C   0  0  0  0  0  0  0  0  0  0  0  0
    9.6892  -13.7739   21.6218 O   0  0  0  0  0  0  0  0  0  0  0  0
   10.3352  -15.7383   30.1884 O   0  0  0  0  0  0  0  0  0  0  0  0
    9.7332  -15.2884   29.0154 C   0  0  0  0  0  0  0  0  0  0  0  0
    8.9335  -16.1177   28.2506 C   0  0  0  0  0  0  0  0  0  0  0  0
    8.3365  -15.6745   27.0889 C   0  0  0  0  0  0  0  0  0  0  0  0
    8.5136  -14.3751   26.6377 C   0  0  0  0  0  0  0  0  0  0  0  0
    7.8643  -13.9251   25.3924 C   0  0  0  0  0  0  0  0  0  0  0  0
    8.6659  -14.2834   24.1596 C   0  0  2  0  0  0  0  0  0  0  0  0
    7.9042  -13.8296   23.0222 N   0  0  0  0  0  0  0  0  0  0  0  0
    9.0382  -15.7061   24.0803 C   0  0  0  0  0  0  0  0  0  0  0  0
    8.3129  -16.4822   23.4192 O   0  0  0  0  0  0  0  0  0  0  0  0
    9.3067  -13.5441   27.3914 C   0  0  0  0  0  0  0  0  0  0  0  0
    9.9105  -13.9959   28.5685 C   0  0  0  0  0  0  0  0  0  0  0  0
   10.1863  -16.2258   24.7225 N   0  0  0  0  0  0  0  0  0  0  0  0
   10.7368  -17.5180   24.2808 C   0  0  1  0  0  0  0  0  0  0  0  0
   11.0827  -17.3995   22.8079 C   0  0  0  0  0  0  0  0  0  0  0  0
   11.7380  -18.6164   22.2818 C   0  0  0  0  0  0  0  0  0  0  0  0
   12.9363  -18.6784   21.9128 O   0  0  0  0  0  0  0  0  0  0  0  0
   11.9567  -17.8209   25.0663 C   0  0  0  0  0  0  0  0  0  0  0  0
   12.6331  -18.8622   24.8817 O   0  0  0  0  0  0  0  0  0  0  0  0
   10.9809  -19.7832   22.1846 O   0  0  0  0  0  0  0  0  0  0  0  0
   12.4369  -16.9622   26.0689 O   0  0  0  0  0  0  0  0  0  0  0  0
  2  1  1  6
  2  3  1  0
  4  2  1  0
  4  5  1  6
  6  4  1  0
  6  7  2  0
  8  9  1  0
  9 10  2  0
 10 11  1  0
 12 13  1  0
 12 11  2  0
 14 13  1  1
 14 15  1  0
 15  6  1  0
 16 14  1  0
 17 16  2  0
 18 12  1  0
 19 18  2  0
 19  9  1  0
 20 16  1  0
 21 20  1  0
 21 25  1  0
 21 22  1  6
 23 22  1  0
 24 23  2  0
 25 26  2  0
 25 28  1  0
 27 23  1  0
M  END
$$$$
