WLQ.pdb
     RDKit          3D

 32 33  0  0  1  0  0  0  0  0999 V2000
   10.5031  -14.9107   21.5919 N   0  0  0  0  0  0  0  0  0  0  0  0
    9.2282  -15.0303   22.2490 C   0  0  1  0  0  0  0  0  0  0  0  0
    8.4557  -16.1625   21.6456 C   0  0  0  0  0  0  0  0  0  0  0  0
    7.8972  -15.7277   20.3426 C   0  0  0  0  0  0  0  0  0  0  0  0
    7.2110  -16.5348   19.4200 C   0  0  0  0  0  0  0  0  0  0  0  0
    6.8157  -15.8056   18.3683 N   0  0  0  0  0  0  0  0  0  0  0  0
    7.2087  -14.5252   18.5391 C   0  0  0  0  0  0  0  0  0  0  0  0
    7.0501  -13.4023   17.7355 C   0  0  0  0  0  0  0  0  0  0  0  0
    7.5644  -12.1872   18.1365 C   0  0  0  0  0  0  0  0  0  0  0  0
    8.2268  -12.1425   19.3429 C   0  0  0  0  0  0  0  0  0  0  0  0
    8.3824  -13.2715   20.1443 C   0  0  0  0  0  0  0  0  0  0  0  0
    7.8728  -14.4774   19.7502 C   0  0  0  0  0  0  0  0  0  0  0  0
    9.4015  -15.1922   23.7230 C   0  0  0  0  0  0  0  0  0  0  0  0
   10.5004  -15.5897   24.1788 O   0  0  0  0  0  0  0  0  0  0  0  0
    8.2472  -12.1555   27.1383 C   0  0  0  0  0  0  0  0  0  0  0  0
    7.1144  -12.9559   26.5400 C   0  0  2  0  0  0  0  0  0  0  0  0
    5.8053  -12.3553   26.8882 C   0  0  0  0  0  0  0  0  0  0  0  0
    7.2521  -14.4163   26.6276 C   0  0  0  0  0  0  0  0  0  0  0  0
    8.4282  -15.1011   26.0677 C   0  0  2  0  0  0  0  0  0  0  0  0
    8.3672  -14.9118   24.6135 N   0  0  0  0  0  0  0  0  0  0  0  0
    8.6542  -16.5137   26.4000 C   0  0  0  0  0  0  0  0  0  0  0  0
    7.8189  -17.4340   26.2566 O   0  0  0  0  0  0  0  0  0  0  0  0
   12.6450  -19.9551   24.1193 N   0  0  0  0  0  0  0  0  0  0  0  0
   12.2968  -20.8027   25.1873 C   0  0  0  0  0  0  0  0  0  0  0  0
   12.4774  -22.0288   25.1007 O   0  0  0  0  0  0  0  0  0  0  0  0
   11.7028  -20.2474   26.4486 C   0  0  0  0  0  0  0  0  0  0  0  0
   11.3900  -18.7864   26.2924 C   0  0  0  0  0  0  0  0  0  0  0  0
   10.2540  -18.3607   27.1269 C   0  0  2  0  0  0  0  0  0  0  0  0
    9.9278  -16.9476   26.9455 N   0  0  0  0  0  0  0  0  0  0  0  0
   10.3707  -18.7269   28.5318 C   0  0  0  0  0  0  0  0  0  0  0  0
   10.3302  -17.9045   29.4619 O   0  0  0  0  0  0  0  0  0  0  0  0
   10.5428  -20.0713   28.9466 O   0  0  0  0  0  0  0  0  0  0  0  0
  2  1  1  6
  2 13  1  0
  3  2  1  0
  4  3  1  0
  5  4  2  0
  6  5  1  0
  7  6  1  0
  7 12  2  0
  8  7  1  0
  9  8  2  0
  9 10  1  0
 10 11  2  0
 11 12  1  0
 12  4  1  0
 13 14  2  0
 13 20  1  0
 16 18  1  0
 16 15  1  1
 16 17  1  0
 19 18  1  1
 19 21  1  0
 20 19  1  0
 21 29  1  0
 22 21  2  0
 24 23  1  0
 25 24  2  0
 26 24  1  0
 27 26  1  0
 28 27  1  6
 28 30  1  0
 29 28  1  0
 30 31  2  0
 30 32  1  0
M  END
$$$$
