WLQ.pdb
     RDKit          3D

 32 33  0  0  1  0  0  0  0  0999 V2000
    6.4421  -19.8396   26.7476 N   0  0  0  0  0  0  0  0  0  0  0  0
    7.3209  -18.7208   26.9653 C   0  0  1  0  0  0  0  0  0  0  0  0
    8.6925  -19.2171   27.3045 C   0  0  0  0  0  0  0  0  0  0  0  0
    9.2833  -18.3373   28.3415 C   0  0  0  0  0  0  0  0  0  0  0  0
    9.4150  -18.6337   29.7083 C   0  0  0  0  0  0  0  0  0  0  0  0
   10.0268  -17.6268   30.3455 N   0  0  0  0  0  0  0  0  0  0  0  0
   10.3185  -16.6495   29.4607 C   0  0  0  0  0  0  0  0  0  0  0  0
   10.9350  -15.4151   29.6280 C   0  0  0  0  0  0  0  0  0  0  0  0
   11.1081  -14.5768   28.5468 C   0  0  0  0  0  0  0  0  0  0  0  0
   10.6510  -15.0125   27.3231 C   0  0  0  0  0  0  0  0  0  0  0  0
   10.0340  -16.2512   27.1614 C   0  0  0  0  0  0  0  0  0  0  0  0
    9.8618  -17.0851   28.2311 C   0  0  0  0  0  0  0  0  0  0  0  0
    7.3302  -17.8121   25.7808 C   0  0  0  0  0  0  0  0  0  0  0  0
    7.5518  -18.2825   24.6393 O   0  0  0  0  0  0  0  0  0  0  0  0
    6.5166  -11.6635   25.2932 C   0  0  0  0  0  0  0  0  0  0  0  0
    7.0636  -12.9105   24.6394 C   0  0  2  0  0  0  0  0  0  0  0  0
    6.7722  -12.9133   23.1865 C   0  0  0  0  0  0  0  0  0  0  0  0
    6.8667  -14.1596   25.3881 C   0  0  0  0  0  0  0  0  0  0  0  0
    7.4157  -15.4327   24.8949 C   0  0  2  0  0  0  0  0  0  0  0  0
    7.0978  -16.4443   25.9097 N   0  0  0  0  0  0  0  0  0  0  0  0
    8.8344  -15.4984   24.5207 C   0  0  0  0  0  0  0  0  0  0  0  0
    9.7953  -15.2204   25.2722 O   0  0  0  0  0  0  0  0  0  0  0  0
    9.3655  -17.9031   19.4169 N   0  0  0  0  0  0  0  0  0  0  0  0
    9.1847  -18.7007   20.5621 C   0  0  0  0  0  0  0  0  0  0  0  0
    8.4643  -19.7119   20.5159 O   0  0  0  0  0  0  0  0  0  0  0  0
    9.8546  -18.3497   21.8582 C   0  0  0  0  0  0  0  0  0  0  0  0
   10.7219  -17.1336   21.6979 C   0  0  0  0  0  0  0  0  0  0  0  0
   10.6139  -16.2097   22.8394 C   0  0  2  0  0  0  0  0  0  0  0  0
    9.2256  -15.9100   23.1844 N   0  0  0  0  0  0  0  0  0  0  0  0
   11.4269  -15.0074   22.7174 C   0  0  0  0  0  0  0  0  0  0  0  0
   12.6390  -15.0221   22.4459 O   0  0  0  0  0  0  0  0  0  0  0  0
   10.8848  -13.7110   22.9038 O   0  0  0  0  0  0  0  0  0  0  0  0
  2  1  1  6
  2 13  1  0
  3  2  1  0
  4  3  1  0
  5  4  2  0
  6  5  1  0
  7  6  1  0
  7 12  2  0
  8  7  1  0
  9  8  2  0
  9 10  1  0
 10 11  2  0
 11 12  1  0
 12  4  1  0
 13 14  2  0
 13 20  1  0
 16 18  1  0
 16 15  1  1
 16 17  1  0
 19 18  1  1
 19 21  1  0
 20 19  1  0
 21 29  1  0
 22 21  2  0
 24 23  1  0
 25 24  2  0
 26 24  1  0
 27 26  1  0
 28 27  1  6
 28 30  1  0
 29 28  1  0
 30 31  2  0
 30 32  1  0
M  END
$$$$
