WLQ.pdb
     RDKit          3D

 32 33  0  0  1  0  0  0  0  0999 V2000
    6.1590  -18.4729   24.8130 N   0  0  0  0  0  0  0  0  0  0  0  0
    6.6297  -17.1165   24.7131 C   0  0  1  0  0  0  0  0  0  0  0  0
    7.2490  -16.7021   26.0122 C   0  0  0  0  0  0  0  0  0  0  0  0
    6.7792  -15.3394   26.3599 C   0  0  0  0  0  0  0  0  0  0  0  0
    5.4443  -14.9383   26.5344 C   0  0  0  0  0  0  0  0  0  0  0  0
    5.3887  -13.6452   26.8793 N   0  0  0  0  0  0  0  0  0  0  0  0
    6.6416  -13.1462   26.9464 C   0  0  0  0  0  0  0  0  0  0  0  0
    7.1062  -11.8720   27.2500 C   0  0  0  0  0  0  0  0  0  0  0  0
    8.4598  -11.6088   27.2383 C   0  0  0  0  0  0  0  0  0  0  0  0
    9.3077  -12.6457   26.9185 C   0  0  0  0  0  0  0  0  0  0  0  0
    8.8361  -13.9211   26.6153 C   0  0  0  0  0  0  0  0  0  0  0  0
    7.4948  -14.1856   26.6271 C   0  0  0  0  0  0  0  0  0  0  0  0
    7.5744  -16.9632   23.5672 C   0  0  0  0  0  0  0  0  0  0  0  0
    8.3151  -17.9215   23.2411 O   0  0  0  0  0  0  0  0  0  0  0  0
    8.4956  -12.1882   19.7192 C   0  0  0  0  0  0  0  0  0  0  0  0
    8.6555  -13.6701   19.9646 C   0  0  2  0  0  0  0  0  0  0  0  0
    8.0759  -14.4534   18.8482 C   0  0  0  0  0  0  0  0  0  0  0  0
    8.3889  -14.1196   21.3382 C   0  0  0  0  0  0  0  0  0  0  0  0
    8.5704  -15.5284   21.7227 C   0  0  2  0  0  0  0  0  0  0  0  0
    7.6566  -15.7749   22.8444 N   0  0  0  0  0  0  0  0  0  0  0  0
    9.9214  -16.0121   22.0356 C   0  0  0  0  0  0  0  0  0  0  0  0
   10.5698  -15.7322   23.0683 O   0  0  0  0  0  0  0  0  0  0  0  0
   15.3117  -19.2540   18.5212 N   0  0  0  0  0  0  0  0  0  0  0  0
   14.3351  -19.6338   19.4605 C   0  0  0  0  0  0  0  0  0  0  0  0
   13.8218  -20.7641   19.4108 O   0  0  0  0  0  0  0  0  0  0  0  0
   13.8940  -18.6869   20.5379 C   0  0  0  0  0  0  0  0  0  0  0  0
   12.5159  -18.1605   20.2538 C   0  0  0  0  0  0  0  0  0  0  0  0
   12.0056  -17.3029   21.3364 C   0  0  2  0  0  0  0  0  0  0  0  0
   10.6217  -16.8889   21.1142 N   0  0  0  0  0  0  0  0  0  0  0  0
   12.8724  -16.1819   21.6733 C   0  0  0  0  0  0  0  0  0  0  0  0
   13.7105  -16.2125   22.5897 O   0  0  0  0  0  0  0  0  0  0  0  0
   12.8210  -14.9532   20.9684 O   0  0  0  0  0  0  0  0  0  0  0  0
  2  1  1  1
  2 13  1  0
  3  2  1  0
  4  3  1  0
  5  4  2  0
  6  5  1  0
  7  6  1  0
  7 12  2  0
  8  7  1  0
  9  8  2  0
  9 10  1  0
 10 11  2  0
 11 12  1  0
 12  4  1  0
 13 14  2  0
 13 20  1  0
 16 18  1  0
 16 15  1  1
 16 17  1  0
 19 18  1  1
 19 21  1  0
 20 19  1  0
 21 29  1  0
 22 21  2  0
 24 23  1  0
 25 24  2  0
 26 24  1  0
 27 26  1  0
 28 27  1  6
 28 30  1  0
 29 28  1  0
 30 31  2  0
 30 32  1  0
M  END
$$$$
