WLQ.pdb
     RDKit          3D

 32 33  0  0  1  0  0  0  0  0999 V2000
    6.1337  -18.1760   24.5682 N   0  0  0  0  0  0  0  0  0  0  0  0
    6.6658  -18.0071   23.2417 C   0  0  1  0  0  0  0  0  0  0  0  0
    5.7160  -18.5894   22.2409 C   0  0  0  0  0  0  0  0  0  0  0  0
    5.4828  -20.0168   22.5679 C   0  0  0  0  0  0  0  0  0  0  0  0
    4.3430  -20.5529   23.1898 C   0  0  0  0  0  0  0  0  0  0  0  0
    4.4543  -21.8834   23.2969 N   0  0  0  0  0  0  0  0  0  0  0  0
    5.6332  -22.2772   22.7695 C   0  0  0  0  0  0  0  0  0  0  0  0
    6.2099  -23.5362   22.6509 C   0  0  0  0  0  0  0  0  0  0  0  0
    7.4542  -23.6748   22.0728 C   0  0  0  0  0  0  0  0  0  0  0  0
    8.0818  -22.5320   21.6297 C   0  0  0  0  0  0  0  0  0  0  0  0
    7.4985  -21.2725   21.7510 C   0  0  0  0  0  0  0  0  0  0  0  0
    6.2646  -21.1319   22.3226 C   0  0  0  0  0  0  0  0  0  0  0  0
    6.9609  -16.5700   22.9648 C   0  0  0  0  0  0  0  0  0  0  0  0
    7.1874  -16.1984   21.7884 O   0  0  0  0  0  0  0  0  0  0  0  0
    5.6899  -12.7341   26.5210 C   0  0  0  0  0  0  0  0  0  0  0  0
    7.0680  -13.1341   26.0491 C   0  0  2  0  0  0  0  0  0  0  0  0
    8.1107  -12.3332   26.7327 C   0  0  0  0  0  0  0  0  0  0  0  0
    7.2044  -13.3601   24.6035 C   0  0  0  0  0  0  0  0  0  0  0  0
    7.9520  -14.5167   24.0850 C   0  0  2  0  0  0  0  0  0  0  0  0
    6.9921  -15.6226   23.9859 N   0  0  0  0  0  0  0  0  0  0  0  0
    9.1713  -14.9463   24.7820 C   0  0  0  0  0  0  0  0  0  0  0  0
   10.2065  -14.2577   24.9217 O   0  0  0  0  0  0  0  0  0  0  0  0
   11.5693  -17.2947   30.6556 N   0  0  0  0  0  0  0  0  0  0  0  0
   11.3508  -16.4264   29.5700 C   0  0  0  0  0  0  0  0  0  0  0  0
   10.9241  -15.2755   29.7622 O   0  0  0  0  0  0  0  0  0  0  0  0
   11.6272  -16.8688   28.1628 C   0  0  0  0  0  0  0  0  0  0  0  0
   10.3454  -17.0701   27.4058 C   0  0  0  0  0  0  0  0  0  0  0  0
   10.4872  -16.7787   25.9694 C   0  0  2  0  0  0  0  0  0  0  0  0
    9.2516  -16.2670   25.3799 N   0  0  0  0  0  0  0  0  0  0  0  0
   11.0646  -17.8656   25.1906 C   0  0  0  0  0  0  0  0  0  0  0  0
   10.3895  -18.6660   24.5220 O   0  0  0  0  0  0  0  0  0  0  0  0
   12.4626  -18.0936   25.1389 O   0  0  0  0  0  0  0  0  0  0  0  0
  2  1  1  1
  2 13  1  0
  3  2  1  0
  4  3  1  0
  5  4  2  0
  6  5  1  0
  7  6  1  0
  7 12  2  0
  8  7  1  0
  9  8  2  0
  9 10  1  0
 10 11  2  0
 11 12  1  0
 12  4  1  0
 13 14  2  0
 13 20  1  0
 16 18  1  0
 16 15  1  6
 16 17  1  0
 19 18  1  1
 19 21  1  0
 20 19  1  0
 21 29  1  0
 22 21  2  0
 24 23  1  0
 25 24  2  0
 26 24  1  0
 27 26  1  0
 28 27  1  1
 28 30  1  0
 29 28  1  0
 30 31  2  0
 30 32  1  0
M  END
$$$$
