WLQ.pdb
     RDKit          3D

 32 33  0  0  1  0  0  0  0  0999 V2000
    7.1669  -18.2027   22.5902 N   0  0  0  0  0  0  0  0  0  0  0  0
    7.8048  -17.0467   22.0173 C   0  0  1  0  0  0  0  0  0  0  0  0
    6.8046  -16.2596   21.2281 C   0  0  0  0  0  0  0  0  0  0  0  0
    7.5214  -15.2752   20.3822 C   0  0  0  0  0  0  0  0  0  0  0  0
    8.0350  -15.5018   19.0944 C   0  0  0  0  0  0  0  0  0  0  0  0
    8.5883  -14.3819   18.6109 N   0  0  0  0  0  0  0  0  0  0  0  0
    8.4715  -13.3949   19.5249 C   0  0  0  0  0  0  0  0  0  0  0  0
    8.8889  -12.0694   19.5017 C   0  0  0  0  0  0  0  0  0  0  0  0
    8.6560  -11.2523   20.5879 C   0  0  0  0  0  0  0  0  0  0  0  0
    8.0054  -11.8012   21.6703 C   0  0  0  0  0  0  0  0  0  0  0  0
    7.5890  -13.1307   21.6877 C   0  0  0  0  0  0  0  0  0  0  0  0
    7.8174  -13.9431   20.6120 C   0  0  0  0  0  0  0  0  0  0  0  0
    8.4603  -16.2210   23.0744 C   0  0  0  0  0  0  0  0  0  0  0  0
    9.5227  -15.6076   22.8131 O   0  0  0  0  0  0  0  0  0  0  0  0
    8.8939  -12.4902   25.7333 C   0  0  0  0  0  0  0  0  0  0  0  0
    7.6026  -13.2734   25.7612 C   0  0  2  0  0  0  0  0  0  0  0  0
    6.5012  -12.4514   26.3153 C   0  0  0  0  0  0  0  0  0  0  0  0
    7.7154  -14.6701   26.2041 C   0  0  0  0  0  0  0  0  0  0  0  0
    8.6320  -15.6056   25.5331 C   0  0  2  0  0  0  0  0  0  0  0  0
    7.9199  -16.1126   24.3541 N   0  0  0  0  0  0  0  0  0  0  0  0
    9.2120  -16.7113   26.3065 C   0  0  0  0  0  0  0  0  0  0  0  0
    8.7228  -17.2008   27.3488 O   0  0  0  0  0  0  0  0  0  0  0  0
   13.3194  -20.8987   24.2828 N   0  0  0  0  0  0  0  0  0  0  0  0
   13.3705  -21.1612   25.6644 C   0  0  0  0  0  0  0  0  0  0  0  0
   13.8795  -22.2135   26.0855 O   0  0  0  0  0  0  0  0  0  0  0  0
   12.8143  -20.1809   26.6553 C   0  0  0  0  0  0  0  0  0  0  0  0
   12.2563  -18.9742   25.9558 C   0  0  0  0  0  0  0  0  0  0  0  0
   11.0637  -18.4335   26.6291 C   0  0  2  0  0  0  0  0  0  0  0  0
   10.4548  -17.3327   25.8852 N   0  0  0  0  0  0  0  0  0  0  0  0
   11.2635  -18.1091   28.0349 C   0  0  0  0  0  0  0  0  0  0  0  0
   11.2707  -18.9581   28.9418 O   0  0  0  0  0  0  0  0  0  0  0  0
   11.4665  -16.7781   28.4780 O   0  0  0  0  0  0  0  0  0  0  0  0
  2  1  1  1
  2 13  1  0
  3  2  1  0
  4  3  1  0
  5  4  2  0
  6  5  1  0
  7  6  1  0
  7 12  2  0
  8  7  1  0
  9  8  2  0
  9 10  1  0
 10 11  2  0
 11 12  1  0
 12  4  1  0
 13 14  2  0
 13 20  1  0
 16 18  1  0
 16 15  1  1
 16 17  1  0
 19 18  1  1
 19 21  1  0
 20 19  1  0
 21 29  1  0
 22 21  2  0
 24 23  1  0
 25 24  2  0
 26 24  1  0
 27 26  1  0
 28 27  1  6
 28 30  1  0
 29 28  1  0
 30 31  2  0
 30 32  1  0
M  END
$$$$
