WLQ.pdb
     RDKit          3D

 32 33  0  0  1  0  0  0  0  0999 V2000
    6.5248  -18.1533   24.3698 N   0  0  0  0  0  0  0  0  0  0  0  0
    7.0543  -16.8600   24.0257 C   0  0  1  0  0  0  0  0  0  0  0  0
    7.8006  -16.2948   25.1946 C   0  0  0  0  0  0  0  0  0  0  0  0
    6.9961  -15.2084   25.8036 C   0  0  0  0  0  0  0  0  0  0  0  0
    5.6358  -15.2730   26.1487 C   0  0  0  0  0  0  0  0  0  0  0  0
    5.2436  -14.1221   26.7104 N   0  0  0  0  0  0  0  0  0  0  0  0
    6.2899  -13.2701   26.7613 C   0  0  0  0  0  0  0  0  0  0  0  0
    6.3902  -11.9684   27.2380 C   0  0  0  0  0  0  0  0  0  0  0  0
    7.5918  -11.2958   27.1637 C   0  0  0  0  0  0  0  0  0  0  0  0
    8.6612  -11.9614   26.6071 C   0  0  0  0  0  0  0  0  0  0  0  0
    8.5546  -13.2665   26.1311 C   0  0  0  0  0  0  0  0  0  0  0  0
    7.3651  -13.9364   26.2044 C   0  0  0  0  0  0  0  0  0  0  0  0
    7.9063  -16.9413   22.8023 C   0  0  0  0  0  0  0  0  0  0  0  0
    8.3709  -18.0493   22.4421 O   0  0  0  0  0  0  0  0  0  0  0  0
    6.6087  -14.3669   19.5245 C   0  0  0  0  0  0  0  0  0  0  0  0
    7.7471  -13.6563   20.2180 C   0  0  2  0  0  0  0  0  0  0  0  0
    7.8218  -12.2399   19.7892 C   0  0  0  0  0  0  0  0  0  0  0  0
    9.0009  -14.4156   20.3230 C   0  0  0  0  0  0  0  0  0  0  0  0
    9.0077  -15.8018   20.8170 C   0  0  2  0  0  0  0  0  0  0  0  0
    8.2020  -15.8106   22.0438 N   0  0  0  0  0  0  0  0  0  0  0  0
   10.2956  -16.4732   21.0350 C   0  0  0  0  0  0  0  0  0  0  0  0
   10.7968  -17.3397   20.2844 O   0  0  0  0  0  0  0  0  0  0  0  0
   15.4064  -15.7277   19.5457 N   0  0  0  0  0  0  0  0  0  0  0  0
   15.2144  -15.0084   20.7399 C   0  0  0  0  0  0  0  0  0  0  0  0
   16.1048  -14.2565   21.1703 O   0  0  0  0  0  0  0  0  0  0  0  0
   13.9361  -15.1326   21.5162 C   0  0  0  0  0  0  0  0  0  0  0  0
   13.3845  -16.5262   21.4158 C   0  0  0  0  0  0  0  0  0  0  0  0
   12.3839  -16.8130   22.4572 C   0  0  2  0  0  0  0  0  0  0  0  0
   11.1050  -16.1549   22.1976 N   0  0  0  0  0  0  0  0  0  0  0  0
   12.8542  -16.5935   23.8181 C   0  0  0  0  0  0  0  0  0  0  0  0
   12.3250  -15.7934   24.6074 O   0  0  0  0  0  0  0  0  0  0  0  0
   13.9695  -17.2883   24.3495 O   0  0  0  0  0  0  0  0  0  0  0  0
  2  1  1  1
  2 13  1  0
  3  2  1  0
  4  3  1  0
  5  4  2  0
  6  5  1  0
  7  6  1  0
  7 12  2  0
  8  7  1  0
  9  8  2  0
  9 10  1  0
 10 11  2  0
 11 12  1  0
 12  4  1  0
 13 14  2  0
 13 20  1  0
 16 18  1  0
 16 15  1  6
 16 17  1  0
 19 18  1  1
 19 21  1  0
 20 19  1  0
 21 29  1  0
 22 21  2  0
 24 23  1  0
 25 24  2  0
 26 24  1  0
 27 26  1  0
 28 27  1  6
 28 30  1  0
 29 28  1  0
 30 31  2  0
 30 32  1  0
M  END
$$$$
