WLQ.pdb
     RDKit          3D

 32 33  0  0  1  0  0  0  0  0999 V2000
   10.1507  -16.1361   21.8054 N   0  0  0  0  0  0  0  0  0  0  0  0
    9.1538  -15.3488   22.4819 C   0  0  1  0  0  0  0  0  0  0  0  0
    7.7946  -15.9147   22.2074 C   0  0  0  0  0  0  0  0  0  0  0  0
    7.3151  -15.4099   20.8983 C   0  0  0  0  0  0  0  0  0  0  0  0
    6.2390  -15.9198   20.1529 C   0  0  0  0  0  0  0  0  0  0  0  0
    6.0631  -15.1991   19.0377 N   0  0  0  0  0  0  0  0  0  0  0  0
    6.9834  -14.2121   18.9935 C   0  0  0  0  0  0  0  0  0  0  0  0
    7.2191  -13.2195   18.0496 C   0  0  0  0  0  0  0  0  0  0  0  0
    8.2493  -12.3214   18.2333 C   0  0  0  0  0  0  0  0  0  0  0  0
    9.0145  -12.4536   19.3706 C   0  0  0  0  0  0  0  0  0  0  0  0
    8.7733  -13.4505   20.3136 C   0  0  0  0  0  0  0  0  0  0  0  0
    7.7520  -14.3417   20.1348 C   0  0  0  0  0  0  0  0  0  0  0  0
    9.4421  -15.2662   23.9444 C   0  0  0  0  0  0  0  0  0  0  0  0
   10.5717  -15.6018   24.3742 O   0  0  0  0  0  0  0  0  0  0  0  0
    7.9326  -11.6406   26.2418 C   0  0  0  0  0  0  0  0  0  0  0  0
    6.9547  -12.7914   26.2734 C   0  0  2  0  0  0  0  0  0  0  0  0
    5.6149  -12.3310   26.7078 C   0  0  0  0  0  0  0  0  0  0  0  0
    7.4703  -14.0488   26.8326 C   0  0  0  0  0  0  0  0  0  0  0  0
    8.6917  -14.6711   26.2973 C   0  0  2  0  0  0  0  0  0  0  0  0
    8.4827  -14.8232   24.8525 N   0  0  0  0  0  0  0  0  0  0  0  0
    9.1684  -15.9277   26.8896 C   0  0  0  0  0  0  0  0  0  0  0  0
    9.4941  -16.0861   28.0871 O   0  0  0  0  0  0  0  0  0  0  0  0
   10.9831  -21.1464   23.6108 N   0  0  0  0  0  0  0  0  0  0  0  0
   11.1186  -21.5429   24.9542 C   0  0  0  0  0  0  0  0  0  0  0  0
   11.5684  -22.6665   25.2352 O   0  0  0  0  0  0  0  0  0  0  0  0
   10.7252  -20.6222   26.0720 C   0  0  0  0  0  0  0  0  0  0  0  0
   10.2133  -19.3170   25.5325 C   0  0  0  0  0  0  0  0  0  0  0  0
    9.8755  -18.3597   26.5991 C   0  0  2  0  0  0  0  0  0  0  0  0
    9.2984  -17.1231   26.0758 N   0  0  0  0  0  0  0  0  0  0  0  0
   10.9538  -18.1110   27.5461 C   0  0  0  0  0  0  0  0  0  0  0  0
   10.8512  -18.3006   28.7695 O   0  0  0  0  0  0  0  0  0  0  0  0
   12.2199  -17.6255   27.1335 O   0  0  0  0  0  0  0  0  0  0  0  0
  2  1  1  6
  2 13  1  0
  3  2  1  0
  4  3  1  0
  5  4  2  0
  6  5  1  0
  7  6  1  0
  7 12  2  0
  8  7  1  0
  9  8  2  0
  9 10  1  0
 10 11  2  0
 11 12  1  0
 12  4  1  0
 13 14  2  0
 13 20  1  0
 16 18  1  0
 16 15  1  1
 16 17  1  0
 19 18  1  1
 19 21  1  0
 20 19  1  0
 21 29  1  0
 22 21  2  0
 24 23  1  0
 25 24  2  0
 26 24  1  0
 27 26  1  0
 28 27  1  6
 28 30  1  0
 29 28  1  0
 30 31  2  0
 30 32  1  0
M  END
$$$$
