WLQ.pdb
     RDKit          3D

 32 33  0  0  1  0  0  0  0  0999 V2000
    5.8510  -17.9591   23.5384 N   0  0  0  0  0  0  0  0  0  0  0  0
    6.6779  -16.7818   23.5794 C   0  0  1  0  0  0  0  0  0  0  0  0
    7.3880  -16.7116   24.8961 C   0  0  0  0  0  0  0  0  0  0  0  0
    6.8371  -15.5828   25.6840 C   0  0  0  0  0  0  0  0  0  0  0  0
    5.6548  -15.5958   26.4426 C   0  0  0  0  0  0  0  0  0  0  0  0
    5.4811  -14.4163   27.0530 N   0  0  0  0  0  0  0  0  0  0  0  0
    6.5051  -13.5947   26.7376 C   0  0  0  0  0  0  0  0  0  0  0  0
    6.7747  -12.2820   27.1063 C   0  0  0  0  0  0  0  0  0  0  0  0
    7.9031  -11.6482   26.6303 C   0  0  0  0  0  0  0  0  0  0  0  0
    8.7294  -12.3628   25.7919 C   0  0  0  0  0  0  0  0  0  0  0  0
    8.4542  -13.6786   25.4260 C   0  0  0  0  0  0  0  0  0  0  0  0
    7.3369  -14.3102   25.8971 C   0  0  0  0  0  0  0  0  0  0  0  0
    7.6277  -16.7573   22.4278 C   0  0  0  0  0  0  0  0  0  0  0  0
    7.9163  -17.8263   21.8385 O   0  0  0  0  0  0  0  0  0  0  0  0
    7.0187  -14.5778   18.7808 C   0  0  0  0  0  0  0  0  0  0  0  0
    7.6631  -13.6624   19.7951 C   0  0  2  0  0  0  0  0  0  0  0  0
    7.5115  -12.2440   19.3942 C   0  0  0  0  0  0  0  0  0  0  0  0
    8.9678  -14.1016   20.3095 C   0  0  0  0  0  0  0  0  0  0  0  0
    9.1471  -15.4524   20.8651 C   0  0  2  0  0  0  0  0  0  0  0  0
    8.2074  -15.5697   21.9864 N   0  0  0  0  0  0  0  0  0  0  0  0
   10.4925  -15.8842   21.2657 C   0  0  0  0  0  0  0  0  0  0  0  0
   11.5146  -15.8305   20.5462 O   0  0  0  0  0  0  0  0  0  0  0  0
   11.9338  -18.3307   26.9986 N   0  0  0  0  0  0  0  0  0  0  0  0
   11.1904  -17.1707   26.7124 C   0  0  0  0  0  0  0  0  0  0  0  0
   10.5311  -16.6112   27.6045 O   0  0  0  0  0  0  0  0  0  0  0  0
   11.1775  -16.5861   25.3303 C   0  0  0  0  0  0  0  0  0  0  0  0
   12.0455  -17.3891   24.4037 C   0  0  0  0  0  0  0  0  0  0  0  0
   12.0546  -16.8519   23.0328 C   0  0  2  0  0  0  0  0  0  0  0  0
   10.7271  -16.4299   22.5906 N   0  0  0  0  0  0  0  0  0  0  0  0
   12.7181  -17.7065   22.0576 C   0  0  0  0  0  0  0  0  0  0  0  0
   12.1530  -18.1704   21.0533 O   0  0  0  0  0  0  0  0  0  0  0  0
   14.0799  -18.0780   22.1866 O   0  0  0  0  0  0  0  0  0  0  0  0
  2  1  1  1
  2 13  1  0
  3  2  1  0
  4  3  1  0
  5  4  2  0
  6  5  1  0
  7  6  1  0
  7 12  2  0
  8  7  1  0
  9  8  2  0
  9 10  1  0
 10 11  2  0
 11 12  1  0
 12  4  1  0
 13 14  2  0
 13 20  1  0
 16 18  1  0
 16 15  1  6
 16 17  1  0
 19 18  1  1
 19 21  1  0
 20 19  1  0
 21 29  1  0
 22 21  2  0
 24 23  1  0
 25 24  2  0
 26 24  1  0
 27 26  1  0
 28 27  1  1
 28 30  1  0
 29 28  1  0
 30 31  2  0
 30 32  1  0
M  END
$$$$
