SDY.pdb
     RDKit          3D

 27 27  0  0  1  0  0  0  0  0999 V2000
    6.9638  -13.7594   22.7549 O   0  0  0  0  0  0  0  0  0  0  0  0
    7.4631  -13.9294   21.4676 C   0  0  0  0  0  0  0  0  0  0  0  0
    7.5346  -15.4005   21.0921 C   0  0  2  0  0  0  0  0  0  0  0  0
    6.1808  -15.9182   21.0580 N   0  0  0  0  0  0  0  0  0  0  0  0
    8.3659  -16.1322   22.0851 C   0  0  0  0  0  0  0  0  0  0  0  0
    7.8257  -16.8928   22.9067 O   0  0  0  0  0  0  0  0  0  0  0  0
    9.7798  -15.9821   22.1190 N   0  0  0  0  0  0  0  0  0  0  0  0
   10.6053  -16.6945   23.0675 C   0  0  1  0  0  0  0  0  0  0  0  0
   12.0244  -16.8389   22.6265 C   0  0  0  0  0  0  0  0  0  0  0  0
   12.1831  -17.4852   21.3100 C   0  0  0  0  0  0  0  0  0  0  0  0
   11.8607  -18.6780   21.1656 O   0  0  0  0  0  0  0  0  0  0  0  0
   10.5829  -16.0611   24.4101 C   0  0  0  0  0  0  0  0  0  0  0  0
   11.0440  -14.9354   24.6592 O   0  0  0  0  0  0  0  0  0  0  0  0
   12.6868  -16.7614   20.2543 O   0  0  0  0  0  0  0  0  0  0  0  0
    6.2143  -11.2029   25.6673 O   0  0  0  0  0  0  0  0  0  0  0  0
    6.7572  -12.4319   26.0367 C   0  0  0  0  0  0  0  0  0  0  0  0
    6.2869  -13.6301   25.5416 C   0  0  0  0  0  0  0  0  0  0  0  0
    6.8414  -14.8268   25.9235 C   0  0  0  0  0  0  0  0  0  0  0  0
    7.8998  -14.8558   26.8273 C   0  0  0  0  0  0  0  0  0  0  0  0
    8.5322  -16.0885   27.2835 C   0  0  0  0  0  0  0  0  0  0  0  0
    9.9683  -16.2451   26.8375 C   0  0  2  0  0  0  0  0  0  0  0  0
    9.9966  -16.7871   25.4807 N   0  0  0  0  0  0  0  0  0  0  0  0
   10.6662  -17.1913   27.7097 C   0  0  0  0  0  0  0  0  0  0  0  0
   10.9448  -16.8514   29.0144 O   0  0  0  0  0  0  0  0  0  0  0  0
    8.3639  -13.6375   27.3184 C   0  0  0  0  0  0  0  0  0  0  0  0
    7.8104  -12.4572   26.9360 C   0  0  0  0  0  0  0  0  0  0  0  0
   11.0169  -18.3089   27.2863 O   0  0  0  0  0  0  0  0  0  0  0  0
  1  2  1  0
  3  2  1  0
  3  4  1  1
  5  3  1  0
  5  7  1  0
  6  5  2  0
  7  8  1  0
  8  9  1  6
  9 10  1  0
 10 14  1  0
 11 10  2  0
 12  8  1  0
 13 12  2  0
 16 15  1  0
 16 17  2  0
 18 17  1  0
 19 18  2  0
 20 19  1  0
 21 22  1  0
 21 20  1  1
 22 12  1  0
 23 21  1  0
 24 23  1  0
 25 26  2  0
 25 19  1  0
 26 16  1  0
 27 23  2  0
M  END
$$$$
