SDY.pdb
     RDKit          3D

 27 27  0  0  1  0  0  0  0  0999 V2000
    6.3051  -14.3166   22.1464 O   0  0  0  0  0  0  0  0  0  0  0  0
    6.9247  -14.3642   20.9018 C   0  0  0  0  0  0  0  0  0  0  0  0
    7.2402  -15.7944   20.4956 C   0  0  2  0  0  0  0  0  0  0  0  0
    5.9878  -16.5190   20.4057 N   0  0  0  0  0  0  0  0  0  0  0  0
    8.1488  -16.4122   21.4983 C   0  0  0  0  0  0  0  0  0  0  0  0
    7.7162  -17.2795   22.2767 O   0  0  0  0  0  0  0  0  0  0  0  0
    9.5161  -16.0314   21.5903 N   0  0  0  0  0  0  0  0  0  0  0  0
   10.4235  -16.6482   22.5310 C   0  0  1  0  0  0  0  0  0  0  0  0
   11.8601  -16.4988   22.1530 C   0  0  0  0  0  0  0  0  0  0  0  0
   12.2179  -17.1476   20.8773 C   0  0  0  0  0  0  0  0  0  0  0  0
   11.8654  -18.3210   20.6620 O   0  0  0  0  0  0  0  0  0  0  0  0
   10.2341  -16.1284   23.9087 C   0  0  0  0  0  0  0  0  0  0  0  0
   10.5402  -14.9808   24.2707 O   0  0  0  0  0  0  0  0  0  0  0  0
   12.9384  -16.4474   19.9378 O   0  0  0  0  0  0  0  0  0  0  0  0
    6.8265  -10.8238   26.1879 O   0  0  0  0  0  0  0  0  0  0  0  0
    7.0849  -12.1895   26.2869 C   0  0  0  0  0  0  0  0  0  0  0  0
    6.0949  -13.1159   26.5392 C   0  0  0  0  0  0  0  0  0  0  0  0
    6.3787  -14.4562   26.6316 C   0  0  0  0  0  0  0  0  0  0  0  0
    7.6841  -14.9121   26.4711 C   0  0  0  0  0  0  0  0  0  0  0  0
    8.0603  -16.3184   26.5637 C   0  0  0  0  0  0  0  0  0  0  0  0
    9.5194  -16.5856   26.2718 C   0  0  2  0  0  0  0  0  0  0  0  0
    9.6658  -16.9977   24.8775 N   0  0  0  0  0  0  0  0  0  0  0  0
   10.0093  -17.6789   27.1133 C   0  0  0  0  0  0  0  0  0  0  0  0
   10.3675  -17.4369   28.4204 O   0  0  0  0  0  0  0  0  0  0  0  0
    8.6730  -13.9644   26.2166 C   0  0  0  0  0  0  0  0  0  0  0  0
    8.3849  -12.6399   26.1265 C   0  0  0  0  0  0  0  0  0  0  0  0
   10.1099  -18.8351   26.6611 O   0  0  0  0  0  0  0  0  0  0  0  0
  1  2  1  0
  3  2  1  0
  3  4  1  1
  5  3  1  0
  5  7  1  0
  6  5  2  0
  7  8  1  0
  8  9  1  6
  9 10  1  0
 10 14  1  0
 11 10  2  0
 12  8  1  0
 13 12  2  0
 16 15  1  0
 16 17  2  0
 18 17  1  0
 19 18  2  0
 20 19  1  0
 21 22  1  0
 21 20  1  1
 22 12  1  0
 23 21  1  0
 24 23  1  0
 25 26  2  0
 25 19  1  0
 26 16  1  0
 27 23  2  0
M  END
$$$$
