SDY.pdb
     RDKit          3D

 27 27  0  0  1  0  0  0  0  0999 V2000
    8.0610  -14.2073   18.3583 O   0  0  0  0  0  0  0  0  0  0  0  0
    8.9653  -15.0262   17.6898 C   0  0  0  0  0  0  0  0  0  0  0  0
    8.6078  -16.4943   17.8541 C   0  0  2  0  0  0  0  0  0  0  0  0
    7.2479  -16.6772   17.3862 N   0  0  0  0  0  0  0  0  0  0  0  0
    8.7430  -16.8871   19.2825 C   0  0  0  0  0  0  0  0  0  0  0  0
    7.7292  -17.0086   19.9914 O   0  0  0  0  0  0  0  0  0  0  0  0
   10.0178  -17.1301   19.8646 N   0  0  0  0  0  0  0  0  0  0  0  0
   10.1688  -17.5166   21.2489 C   0  0  1  0  0  0  0  0  0  0  0  0
   11.4763  -18.1759   21.5404 C   0  0  0  0  0  0  0  0  0  0  0  0
   11.7839  -19.3190   20.6602 C   0  0  0  0  0  0  0  0  0  0  0  0
   10.8837  -20.1209   20.3533 O   0  0  0  0  0  0  0  0  0  0  0  0
    9.9972  -16.3648   22.1699 C   0  0  0  0  0  0  0  0  0  0  0  0
   10.6055  -15.2877   22.0622 O   0  0  0  0  0  0  0  0  0  0  0  0
   13.0646  -19.4867   20.1872 O   0  0  0  0  0  0  0  0  0  0  0  0
    6.1297  -11.0248   27.9538 O   0  0  0  0  0  0  0  0  0  0  0  0
    6.4184  -12.0377   27.0415 C   0  0  0  0  0  0  0  0  0  0  0  0
    5.9733  -13.3328   27.2046 C   0  0  0  0  0  0  0  0  0  0  0  0
    6.2732  -14.3111   26.2890 C   0  0  0  0  0  0  0  0  0  0  0  0
    7.0405  -14.0132   25.1663 C   0  0  0  0  0  0  0  0  0  0  0  0
    7.4044  -15.0019   24.1574 C   0  0  0  0  0  0  0  0  0  0  0  0
    8.8587  -15.4130   24.1951 C   0  0  2  0  0  0  0  0  0  0  0  0
    9.0784  -16.5007   23.2443 N   0  0  0  0  0  0  0  0  0  0  0  0
    9.2073  -15.9091   25.5277 C   0  0  0  0  0  0  0  0  0  0  0  0
    9.6383  -15.0341   26.4993 O   0  0  0  0  0  0  0  0  0  0  0  0
    7.4826  -12.7008   25.0152 C   0  0  0  0  0  0  0  0  0  0  0  0
    7.1818  -11.7379   25.9252 C   0  0  0  0  0  0  0  0  0  0  0  0
    9.1212  -17.1218   25.7988 O   0  0  0  0  0  0  0  0  0  0  0  0
  1  2  1  0
  3  2  1  0
  3  4  1  1
  5  3  1  0
  5  7  1  0
  6  5  2  0
  7  8  1  0
  8  9  1  6
  9 10  1  0
 10 14  1  0
 11 10  2  0
 12  8  1  0
 13 12  2  0
 16 15  1  0
 16 17  2  0
 18 17  1  0
 19 18  2  0
 20 19  1  0
 21 22  1  0
 21 20  1  1
 22 12  1  0
 23 21  1  0
 24 23  1  0
 25 26  2  0
 25 19  1  0
 26 16  1  0
 27 23  2  0
M  END
$$$$
