SDY.pdb
     RDKit          3D

 27 27  0  0  1  0  0  0  0  0999 V2000
    7.2659  -13.2475   22.1952 O   0  0  0  0  0  0  0  0  0  0  0  0
    7.7901  -13.6092   20.9584 C   0  0  0  0  0  0  0  0  0  0  0  0
    7.5894  -15.0907   20.6847 C   0  0  2  0  0  0  0  0  0  0  0  0
    6.1634  -15.3515   20.6657 N   0  0  0  0  0  0  0  0  0  0  0  0
    8.2692  -15.8922   21.7373 C   0  0  0  0  0  0  0  0  0  0  0  0
    7.5962  -16.4796   22.6018 O   0  0  0  0  0  0  0  0  0  0  0  0
    9.6863  -16.0051   21.7805 N   0  0  0  0  0  0  0  0  0  0  0  0
   10.3603  -16.8556   22.7350 C   0  0  1  0  0  0  0  0  0  0  0  0
   11.7579  -17.1997   22.3381 C   0  0  0  0  0  0  0  0  0  0  0  0
   11.8655  -17.8597   21.0232 C   0  0  0  0  0  0  0  0  0  0  0  0
   11.1641  -18.8565   20.7743 O   0  0  0  0  0  0  0  0  0  0  0  0
   10.3814  -16.2585   24.0941 C   0  0  0  0  0  0  0  0  0  0  0  0
   10.9769  -15.2090   24.3869 O   0  0  0  0  0  0  0  0  0  0  0  0
   12.7413  -17.3655   20.0848 O   0  0  0  0  0  0  0  0  0  0  0  0
    6.2348  -11.1701   25.7014 O   0  0  0  0  0  0  0  0  0  0  0  0
    6.7308  -12.4391   25.9933 C   0  0  0  0  0  0  0  0  0  0  0  0
    6.3589  -13.5625   25.2852 C   0  0  0  0  0  0  0  0  0  0  0  0
    6.8641  -14.8011   25.5953 C   0  0  0  0  0  0  0  0  0  0  0  0
    7.7708  -14.9500   26.6410 C   0  0  0  0  0  0  0  0  0  0  0  0
    8.3420  -16.2342   27.0315 C   0  0  0  0  0  0  0  0  0  0  0  0
    9.7429  -16.4675   26.5133 C   0  0  2  0  0  0  0  0  0  0  0  0
    9.6755  -16.9287   25.1283 N   0  0  0  0  0  0  0  0  0  0  0  0
   10.4029  -17.5119   27.2989 C   0  0  0  0  0  0  0  0  0  0  0  0
   10.7058  -17.2919   28.6237 O   0  0  0  0  0  0  0  0  0  0  0  0
    8.1369  -13.8061   27.3468 C   0  0  0  0  0  0  0  0  0  0  0  0
    7.6331  -12.5838   27.0344 C   0  0  0  0  0  0  0  0  0  0  0  0
   10.6992  -18.6061   26.7828 O   0  0  0  0  0  0  0  0  0  0  0  0
  1  2  1  0
  3  2  1  0
  3  4  1  1
  5  3  1  0
  5  7  1  0
  6  5  2  0
  7  8  1  0
  8  9  1  6
  9 10  1  0
 10 14  1  0
 11 10  2  0
 12  8  1  0
 13 12  2  0
 16 15  1  0
 16 17  2  0
 18 17  1  0
 19 18  2  0
 20 19  1  0
 21 22  1  0
 21 20  1  1
 22 12  1  0
 23 21  1  0
 24 23  1  0
 25 26  2  0
 25 19  1  0
 26 16  1  0
 27 23  2  0
M  END
$$$$
