SDY.pdb
     RDKit          3D

 27 27  0  0  1  0  0  0  0  0999 V2000
    6.8119  -16.2148   18.4073 O   0  0  0  0  0  0  0  0  0  0  0  0
    6.5378  -16.5027   19.7404 C   0  0  0  0  0  0  0  0  0  0  0  0
    7.2504  -15.5367   20.6726 C   0  0  2  0  0  0  0  0  0  0  0  0
    8.0189  -14.6160   19.8580 N   0  0  0  0  0  0  0  0  0  0  0  0
    8.1292  -16.2938   21.6039 C   0  0  0  0  0  0  0  0  0  0  0  0
    7.6396  -17.1478   22.3630 O   0  0  0  0  0  0  0  0  0  0  0  0
    9.5319  -16.0628   21.6484 N   0  0  0  0  0  0  0  0  0  0  0  0
   10.4017  -16.7889   22.5456 C   0  0  1  0  0  0  0  0  0  0  0  0
   11.8255  -16.8163   22.0970 C   0  0  0  0  0  0  0  0  0  0  0  0
   12.6471  -17.8447   22.7630 C   0  0  0  0  0  0  0  0  0  0  0  0
   12.1152  -18.6386   23.5595 O   0  0  0  0  0  0  0  0  0  0  0  0
   10.3455  -16.2536   23.9292 C   0  0  0  0  0  0  0  0  0  0  0  0
   10.9591  -15.2447   24.3133 O   0  0  0  0  0  0  0  0  0  0  0  0
   13.9946  -17.9152   22.4962 O   0  0  0  0  0  0  0  0  0  0  0  0
    6.1706  -10.9470   25.7355 O   0  0  0  0  0  0  0  0  0  0  0  0
    6.6420  -12.2352   25.9801 C   0  0  0  0  0  0  0  0  0  0  0  0
    7.6015  -12.5062   26.9329 C   0  0  0  0  0  0  0  0  0  0  0  0
    8.0475  -13.7862   27.1526 C   0  0  0  0  0  0  0  0  0  0  0  0
    7.5357  -14.8471   26.4107 C   0  0  0  0  0  0  0  0  0  0  0  0
    7.9674  -16.2296   26.5839 C   0  0  0  0  0  0  0  0  0  0  0  0
    9.4241  -16.4652   26.2551 C   0  0  2  0  0  0  0  0  0  0  0  0
    9.5383  -16.9372   24.8769 N   0  0  0  0  0  0  0  0  0  0  0  0
    9.9760  -17.5025   27.1284 C   0  0  0  0  0  0  0  0  0  0  0  0
   10.3231  -17.2000   28.4259 O   0  0  0  0  0  0  0  0  0  0  0  0
    6.5671  -14.5576   25.4522 C   0  0  0  0  0  0  0  0  0  0  0  0
    6.1305  -13.2887   25.2404 C   0  0  0  0  0  0  0  0  0  0  0  0
   10.1399  -18.6650   26.7122 O   0  0  0  0  0  0  0  0  0  0  0  0
  1  2  1  0
  3  2  1  0
  3  4  1  6
  5  3  1  0
  5  7  1  0
  6  5  2  0
  7  8  1  0
  8  9  1  6
  9 10  1  0
 10 14  1  0
 11 10  2  0
 12  8  1  0
 13 12  2  0
 16 15  1  0
 16 17  2  0
 18 17  1  0
 19 18  2  0
 20 19  1  0
 21 22  1  0
 21 20  1  1
 22 12  1  0
 23 21  1  0
 24 23  1  0
 25 26  2  0
 25 19  1  0
 26 16  1  0
 27 23  2  0
M  END
$$$$
