SDY.pdb
     RDKit          3D

 27 27  0  0  1  0  0  0  0  0999 V2000
    8.6086  -18.7654   16.5961 O   0  0  0  0  0  0  0  0  0  0  0  0
    7.9312  -18.5364   17.7894 C   0  0  0  0  0  0  0  0  0  0  0  0
    8.5324  -17.3663   18.5506 C   0  0  2  0  0  0  0  0  0  0  0  0
    9.6083  -16.8179   17.7484 N   0  0  0  0  0  0  0  0  0  0  0  0
    9.0300  -17.8304   19.8734 C   0  0  0  0  0  0  0  0  0  0  0  0
    8.2283  -18.2499   20.7258 O   0  0  0  0  0  0  0  0  0  0  0  0
   10.4161  -17.8061   20.1916 N   0  0  0  0  0  0  0  0  0  0  0  0
   10.9053  -18.1112   21.5168 C   0  0  1  0  0  0  0  0  0  0  0  0
   12.3182  -18.5935   21.5300 C   0  0  0  0  0  0  0  0  0  0  0  0
   12.5652  -19.7582   20.6590 C   0  0  0  0  0  0  0  0  0  0  0  0
   11.8517  -20.7715   20.7672 O   0  0  0  0  0  0  0  0  0  0  0  0
   10.7868  -16.9500   22.4343 C   0  0  0  0  0  0  0  0  0  0  0  0
   11.5580  -15.9768   22.4326 O   0  0  0  0  0  0  0  0  0  0  0  0
   13.5831  -19.7118   19.7351 O   0  0  0  0  0  0  0  0  0  0  0  0
    7.2263  -13.5355   18.6730 O   0  0  0  0  0  0  0  0  0  0  0  0
    7.4737  -13.9228   19.9884 C   0  0  0  0  0  0  0  0  0  0  0  0
    8.3968  -13.2837   20.7894 C   0  0  0  0  0  0  0  0  0  0  0  0
    8.6200  -13.6873   22.0827 C   0  0  0  0  0  0  0  0  0  0  0  0
    7.9126  -14.7604   22.6174 C   0  0  0  0  0  0  0  0  0  0  0  0
    8.1026  -15.2486   23.9787 C   0  0  0  0  0  0  0  0  0  0  0  0
    9.4842  -15.8008   24.2471 C   0  0  2  0  0  0  0  0  0  0  0  0
    9.7234  -16.9492   23.3757 N   0  0  0  0  0  0  0  0  0  0  0  0
    9.5806  -16.2650   25.6323 C   0  0  0  0  0  0  0  0  0  0  0  0
    9.8140  -17.5952   25.9000 O   0  0  0  0  0  0  0  0  0  0  0  0
    6.9836  -15.3956   21.7962 C   0  0  0  0  0  0  0  0  0  0  0  0
    6.7679  -14.9908   20.5175 C   0  0  0  0  0  0  0  0  0  0  0  0
    9.4521  -15.4690   26.5815 O   0  0  0  0  0  0  0  0  0  0  0  0
  1  2  1  0
  3  2  1  0
  3  4  1  6
  5  3  1  0
  5  7  1  0
  6  5  2  0
  7  8  1  0
  8  9  1  6
  9 10  1  0
 10 14  1  0
 11 10  2  0
 12  8  1  0
 13 12  2  0
 16 15  1  0
 16 17  2  0
 18 17  1  0
 19 18  2  0
 20 19  1  0
 21 22  1  0
 21 20  1  6
 22 12  1  0
 23 21  1  0
 24 23  1  0
 25 26  2  0
 25 19  1  0
 26 16  1  0
 27 23  2  0
M  END
$$$$
