SDY.pdb
     RDKit          3D

 27 27  0  0  1  0  0  0  0  0999 V2000
    8.0717  -14.9014   19.3094 O   0  0  0  0  0  0  0  0  0  0  0  0
    8.8523  -15.5389   18.3504 C   0  0  0  0  0  0  0  0  0  0  0  0
    8.8285  -17.0477   18.5320 C   0  0  2  0  0  0  0  0  0  0  0  0
    7.4640  -17.4985   18.3403 N   0  0  0  0  0  0  0  0  0  0  0  0
    9.3253  -17.3978   19.8897 C   0  0  0  0  0  0  0  0  0  0  0  0
    8.5296  -17.7938   20.7588 O   0  0  0  0  0  0  0  0  0  0  0  0
   10.7038  -17.2896   20.2229 N   0  0  0  0  0  0  0  0  0  0  0  0
   11.1849  -17.4797   21.5723 C   0  0  1  0  0  0  0  0  0  0  0  0
   12.6641  -17.6665   21.6528 C   0  0  0  0  0  0  0  0  0  0  0  0
   13.1737  -18.7923   20.8472 C   0  0  0  0  0  0  0  0  0  0  0  0
   12.5364  -19.8599   20.8065 O   0  0  0  0  0  0  0  0  0  0  0  0
   10.7942  -16.3596   22.4650 C   0  0  0  0  0  0  0  0  0  0  0  0
   11.1566  -15.1824   22.3083 O   0  0  0  0  0  0  0  0  0  0  0  0
   14.3498  -18.6498   20.1483 O   0  0  0  0  0  0  0  0  0  0  0  0
    5.8438  -10.9204   26.9151 O   0  0  0  0  0  0  0  0  0  0  0  0
    6.3650  -11.9880   26.1869 C   0  0  0  0  0  0  0  0  0  0  0  0
    5.8365  -13.2601   26.2529 C   0  0  0  0  0  0  0  0  0  0  0  0
    6.3709  -14.2936   25.5238 C   0  0  0  0  0  0  0  0  0  0  0  0
    7.4681  -14.0768   24.6949 C   0  0  0  0  0  0  0  0  0  0  0  0
    8.0924  -15.1273   23.8984 C   0  0  0  0  0  0  0  0  0  0  0  0
    9.4321  -15.5866   24.4274 C   0  0  2  0  0  0  0  0  0  0  0  0
    9.9512  -16.6503   23.5704 N   0  0  0  0  0  0  0  0  0  0  0  0
    9.2797  -16.1356   25.7760 C   0  0  0  0  0  0  0  0  0  0  0  0
    9.6061  -15.3713   26.8735 O   0  0  0  0  0  0  0  0  0  0  0  0
    7.9907  -12.7866   24.6387 C   0  0  0  0  0  0  0  0  0  0  0  0
    7.4566  -11.7688   25.3629 C   0  0  0  0  0  0  0  0  0  0  0  0
    8.8571  -17.2945   25.9482 O   0  0  0  0  0  0  0  0  0  0  0  0
  1  2  1  0
  3  2  1  0
  3  4  1  1
  5  3  1  0
  5  7  1  0
  6  5  2  0
  7  8  1  0
  8  9  1  6
  9 10  1  0
 10 14  1  0
 11 10  2  0
 12  8  1  0
 13 12  2  0
 16 15  1  0
 16 17  2  0
 18 17  1  0
 19 18  2  0
 20 19  1  0
 21 22  1  0
 21 20  1  6
 22 12  1  0
 23 21  1  0
 24 23  1  0
 25 26  2  0
 25 19  1  0
 26 16  1  0
 27 23  2  0
M  END
$$$$
