SDY.pdb
     RDKit          3D

 27 27  0  0  1  0  0  0  0  0999 V2000
    7.3104  -13.1203   22.3361 O   0  0  0  0  0  0  0  0  0  0  0  0
    7.9183  -13.5794   21.1721 C   0  0  0  0  0  0  0  0  0  0  0  0
    7.6940  -15.0707   20.9824 C   0  0  2  0  0  0  0  0  0  0  0  0
    6.2638  -15.3056   20.9479 N   0  0  0  0  0  0  0  0  0  0  0  0
    8.3360  -15.8205   22.0952 C   0  0  0  0  0  0  0  0  0  0  0  0
    7.6377  -16.2974   23.0064 O   0  0  0  0  0  0  0  0  0  0  0  0
    9.7450  -16.0079   22.1438 N   0  0  0  0  0  0  0  0  0  0  0  0
   10.3737  -16.8524   23.1339 C   0  0  1  0  0  0  0  0  0  0  0  0
   11.7595  -17.2672   22.7645 C   0  0  0  0  0  0  0  0  0  0  0  0
   11.8670  -17.8880   21.4306 C   0  0  0  0  0  0  0  0  0  0  0  0
   11.1621  -18.8740   21.1506 O   0  0  0  0  0  0  0  0  0  0  0  0
   10.4065  -16.2106   24.4723 C   0  0  0  0  0  0  0  0  0  0  0  0
   10.9344  -15.1115   24.7072 O   0  0  0  0  0  0  0  0  0  0  0  0
   12.7466  -17.3694   20.5090 O   0  0  0  0  0  0  0  0  0  0  0  0
    6.4095  -11.1986   25.8807 O   0  0  0  0  0  0  0  0  0  0  0  0
    6.9109  -12.4425   26.2589 C   0  0  0  0  0  0  0  0  0  0  0  0
    6.3193  -13.6285   25.8775 C   0  0  0  0  0  0  0  0  0  0  0  0
    6.8356  -14.8403   26.2652 C   0  0  0  0  0  0  0  0  0  0  0  0
    7.9776  -14.8976   27.0592 C   0  0  0  0  0  0  0  0  0  0  0  0
    8.5766  -16.1470   27.5149 C   0  0  0  0  0  0  0  0  0  0  0  0
    9.9434  -16.4233   26.9308 C   0  0  2  0  0  0  0  0  0  0  0  0
    9.7950  -16.8954   25.5558 N   0  0  0  0  0  0  0  0  0  0  0  0
   10.6135  -17.4777   27.6939 C   0  0  0  0  0  0  0  0  0  0  0  0
   10.9264  -18.6746   27.0899 O   0  0  0  0  0  0  0  0  0  0  0  0
    8.5638  -13.6913   27.4362 C   0  0  0  0  0  0  0  0  0  0  0  0
    8.0475  -12.4959   27.0487 C   0  0  0  0  0  0  0  0  0  0  0  0
   10.9063  -17.3087   28.8927 O   0  0  0  0  0  0  0  0  0  0  0  0
  1  2  1  0
  3  2  1  0
  3  4  1  1
  5  3  1  0
  5  7  1  0
  6  5  2  0
  7  8  1  0
  8  9  1  6
  9 10  1  0
 10 14  1  0
 11 10  2  0
 12  8  1  0
 13 12  2  0
 16 15  1  0
 16 17  2  0
 18 17  1  0
 19 18  2  0
 20 19  1  0
 21 22  1  0
 21 20  1  1
 22 12  1  0
 23 21  1  0
 24 23  1  0
 25 26  2  0
 25 19  1  0
 26 16  1  0
 27 23  2  0
M  END
$$$$
