SDY.pdb
     RDKit          3D

 27 27  0  0  1  0  0  0  0  0999 V2000
    5.9766  -15.6977   21.7213 O   0  0  0  0  0  0  0  0  0  0  0  0
    6.7096  -14.8905   20.8574 C   0  0  0  0  0  0  0  0  0  0  0  0
    7.5897  -15.7211   19.9378 C   0  0  2  0  0  0  0  0  0  0  0  0
    6.7328  -16.6284   19.2001 N   0  0  0  0  0  0  0  0  0  0  0  0
    8.5954  -16.4651   20.7427 C   0  0  0  0  0  0  0  0  0  0  0  0
    8.4627  -17.6876   20.9255 O   0  0  0  0  0  0  0  0  0  0  0  0
    9.7181  -15.8059   21.3152 N   0  0  0  0  0  0  0  0  0  0  0  0
   10.6505  -16.4897   22.1822 C   0  0  1  0  0  0  0  0  0  0  0  0
   12.0697  -16.3764   21.7325 C   0  0  0  0  0  0  0  0  0  0  0  0
   12.6658  -17.6521   21.2926 C   0  0  0  0  0  0  0  0  0  0  0  0
   12.0273  -18.4014   20.5321 O   0  0  0  0  0  0  0  0  0  0  0  0
   10.5536  -16.0171   23.5863 C   0  0  0  0  0  0  0  0  0  0  0  0
   11.1688  -15.0375   24.0376 O   0  0  0  0  0  0  0  0  0  0  0  0
   13.9231  -18.0002   21.7285 O   0  0  0  0  0  0  0  0  0  0  0  0
    6.4996  -10.7177   25.7201 O   0  0  0  0  0  0  0  0  0  0  0  0
    6.8936  -12.0445   25.8819 C   0  0  0  0  0  0  0  0  0  0  0  0
    7.1242  -12.6046   27.1208 C   0  0  0  0  0  0  0  0  0  0  0  0
    7.5118  -13.9154   27.2504 C   0  0  0  0  0  0  0  0  0  0  0  0
    7.6819  -14.7140   26.1229 C   0  0  0  0  0  0  0  0  0  0  0  0
    8.0989  -16.1105   26.1838 C   0  0  0  0  0  0  0  0  0  0  0  0
    9.5617  -16.3301   25.8715 C   0  0  2  0  0  0  0  0  0  0  0  0
    9.7027  -16.7292   24.4728 N   0  0  0  0  0  0  0  0  0  0  0  0
   10.0965  -17.4124   26.6996 C   0  0  0  0  0  0  0  0  0  0  0  0
   10.5365  -18.5777   26.1131 O   0  0  0  0  0  0  0  0  0  0  0  0
    7.4451  -14.1341   24.8785 C   0  0  0  0  0  0  0  0  0  0  0  0
    7.0617  -12.8364   24.7580 C   0  0  0  0  0  0  0  0  0  0  0  0
   10.1589  -17.2958   27.9381 O   0  0  0  0  0  0  0  0  0  0  0  0
  1  2  1  0
  3  2  1  0
  3  4  1  1
  5  3  1  0
  5  7  1  0
  6  5  2  0
  7  8  1  0
  8  9  1  6
  9 10  1  0
 10 14  1  0
 11 10  2  0
 12  8  1  0
 13 12  2  0
 16 15  1  0
 16 17  2  0
 18 17  1  0
 19 18  2  0
 20 19  1  0
 21 22  1  0
 21 20  1  1
 22 12  1  0
 23 21  1  0
 24 23  1  0
 25 26  2  0
 25 19  1  0
 26 16  1  0
 27 23  2  0
M  END
$$$$
