SDY.pdb
     RDKit          3D

 27 27  0  0  1  0  0  0  0  0999 V2000
    9.5017  -12.3320   19.6335 O   0  0  0  0  0  0  0  0  0  0  0  0
    9.5523  -13.0572   18.4474 C   0  0  0  0  0  0  0  0  0  0  0  0
    8.4767  -14.1304   18.4094 C   0  0  2  0  0  0  0  0  0  0  0  0
    7.1885  -13.4687   18.3429 N   0  0  0  0  0  0  0  0  0  0  0  0
    8.5797  -14.9875   19.6208 C   0  0  0  0  0  0  0  0  0  0  0  0
    7.6768  -14.9661   20.4749 O   0  0  0  0  0  0  0  0  0  0  0  0
    9.6982  -15.8411   19.8292 N   0  0  0  0  0  0  0  0  0  0  0  0
    9.7401  -16.8025   20.9074 C   0  0  1  0  0  0  0  0  0  0  0  0
   10.8609  -17.7813   20.7848 C   0  0  0  0  0  0  0  0  0  0  0  0
   10.8665  -18.8243   21.8280 C   0  0  0  0  0  0  0  0  0  0  0  0
    9.7992  -19.3708   22.1595 O   0  0  0  0  0  0  0  0  0  0  0  0
    9.8214  -16.1450   22.2360 C   0  0  0  0  0  0  0  0  0  0  0  0
   10.6770  -15.3003   22.5462 O   0  0  0  0  0  0  0  0  0  0  0  0
   12.0532  -19.1823   22.4242 O   0  0  0  0  0  0  0  0  0  0  0  0
    6.4227  -10.5778   27.2781 O   0  0  0  0  0  0  0  0  0  0  0  0
    6.6072  -11.8142   26.6625 C   0  0  0  0  0  0  0  0  0  0  0  0
    5.6691  -12.3706   25.8184 C   0  0  0  0  0  0  0  0  0  0  0  0
    5.8778  -13.5913   25.2253 C   0  0  0  0  0  0  0  0  0  0  0  0
    7.0517  -14.2996   25.4663 C   0  0  0  0  0  0  0  0  0  0  0  0
    7.3375  -15.6034   24.8780 C   0  0  0  0  0  0  0  0  0  0  0  0
    8.7873  -15.8026   24.4981 C   0  0  2  0  0  0  0  0  0  0  0  0
    8.8595  -16.5031   23.2177 N   0  0  0  0  0  0  0  0  0  0  0  0
    9.4605  -16.6328   25.4986 C   0  0  0  0  0  0  0  0  0  0  0  0
    9.9130  -16.0706   26.6710 O   0  0  0  0  0  0  0  0  0  0  0  0
    7.9896  -13.7247   26.3210 C   0  0  0  0  0  0  0  0  0  0  0  0
    7.7765  -12.5163   26.9042 C   0  0  0  0  0  0  0  0  0  0  0  0
    9.6338  -17.8508   25.3038 O   0  0  0  0  0  0  0  0  0  0  0  0
  1  2  1  0
  3  2  1  0
  3  4  1  1
  5  3  1  0
  5  7  1  0
  6  5  2  0
  7  8  1  0
  8  9  1  6
  9 10  1  0
 10 14  1  0
 11 10  2  0
 12  8  1  0
 13 12  2  0
 16 15  1  0
 16 17  2  0
 18 17  1  0
 19 18  2  0
 20 19  1  0
 21 22  1  0
 21 20  1  1
 22 12  1  0
 23 21  1  0
 24 23  1  0
 25 26  2  0
 25 19  1  0
 26 16  1  0
 27 23  2  0
M  END
$$$$
