SDY.pdb
     RDKit          3D

 27 27  0  0  1  0  0  0  0  0999 V2000
    6.9499  -15.7209   19.2979 O   0  0  0  0  0  0  0  0  0  0  0  0
    7.9930  -15.8130   18.3820 C   0  0  0  0  0  0  0  0  0  0  0  0
    8.6390  -17.1883   18.4164 C   0  0  2  0  0  0  0  0  0  0  0  0
    7.6279  -18.1649   18.0616 N   0  0  0  0  0  0  0  0  0  0  0  0
    9.1885  -17.4511   19.7735 C   0  0  0  0  0  0  0  0  0  0  0  0
    8.5714  -18.1891   20.5608 O   0  0  0  0  0  0  0  0  0  0  0  0
   10.4164  -16.8726   20.1984 N   0  0  0  0  0  0  0  0  0  0  0  0
   10.9815  -17.1409   21.5011 C   0  0  1  0  0  0  0  0  0  0  0  0
   12.4691  -17.2677   21.4866 C   0  0  0  0  0  0  0  0  0  0  0  0
   13.0646  -17.5249   22.8115 C   0  0  0  0  0  0  0  0  0  0  0  0
   12.4945  -18.2949   23.6050 O   0  0  0  0  0  0  0  0  0  0  0  0
   10.5985  -16.1083   22.4968 C   0  0  0  0  0  0  0  0  0  0  0  0
   11.0104  -14.9370   22.4823 O   0  0  0  0  0  0  0  0  0  0  0  0
   14.2456  -16.9098   23.1563 O   0  0  0  0  0  0  0  0  0  0  0  0
    6.0013  -11.1920   27.9293 O   0  0  0  0  0  0  0  0  0  0  0  0
    6.4586  -12.1402   27.0164 C   0  0  0  0  0  0  0  0  0  0  0  0
    6.0103  -13.4444   27.0134 C   0  0  0  0  0  0  0  0  0  0  0  0
    6.4788  -14.3579   26.1015 C   0  0  0  0  0  0  0  0  0  0  0  0
    7.4254  -13.9830   25.1522 C   0  0  0  0  0  0  0  0  0  0  0  0
    7.9732  -14.9004   24.1592 C   0  0  0  0  0  0  0  0  0  0  0  0
    9.2906  -15.5250   24.5591 C   0  0  2  0  0  0  0  0  0  0  0  0
    9.7029  -16.4814   23.5341 N   0  0  0  0  0  0  0  0  0  0  0  0
    9.1389  -16.2583   25.8172 C   0  0  0  0  0  0  0  0  0  0  0  0
    9.3958  -15.6326   27.0163 O   0  0  0  0  0  0  0  0  0  0  0  0
    7.8684  -12.6623   25.1677 C   0  0  0  0  0  0  0  0  0  0  0  0
    7.4003  -11.7639   26.0729 C   0  0  0  0  0  0  0  0  0  0  0  0
    8.7794  -17.4508   25.8203 O   0  0  0  0  0  0  0  0  0  0  0  0
  1  2  1  0
  3  2  1  0
  3  4  1  1
  5  3  1  0
  5  7  1  0
  6  5  2  0
  7  8  1  0
  8  9  1  6
  9 10  1  0
 10 14  1  0
 11 10  2  0
 12  8  1  0
 13 12  2  0
 16 15  1  0
 16 17  2  0
 18 17  1  0
 19 18  2  0
 20 19  1  0
 21 22  1  0
 21 20  1  6
 22 12  1  0
 23 21  1  0
 24 23  1  0
 25 26  2  0
 25 19  1  0
 26 16  1  0
 27 23  2  0
M  END
$$$$
