SDY.pdb
     RDKit          3D

 27 27  0  0  1  0  0  0  0  0999 V2000
    6.6779  -19.0624   24.6247 O   0  0  0  0  0  0  0  0  0  0  0  0
    6.2260  -18.7124   23.3564 C   0  0  0  0  0  0  0  0  0  0  0  0
    7.1681  -19.2159   22.2753 C   0  0  2  0  0  0  0  0  0  0  0  0
    7.2010  -20.6633   22.3511 N   0  0  0  0  0  0  0  0  0  0  0  0
    8.5224  -18.6354   22.4793 C   0  0  0  0  0  0  0  0  0  0  0  0
    9.4592  -19.3618   22.8537 O   0  0  0  0  0  0  0  0  0  0  0  0
    8.7759  -17.2541   22.2544 N   0  0  0  0  0  0  0  0  0  0  0  0
   10.0691  -16.6597   22.5055 C   0  0  1  0  0  0  0  0  0  0  0  0
   10.3362  -15.4493   21.6731 C   0  0  0  0  0  0  0  0  0  0  0  0
   10.4407  -15.7236   20.2274 C   0  0  0  0  0  0  0  0  0  0  0  0
   11.2400  -16.5849   19.8193 O   0  0  0  0  0  0  0  0  0  0  0  0
   10.2507  -16.3070   23.9361 C   0  0  0  0  0  0  0  0  0  0  0  0
   11.2625  -15.7535   24.3962 O   0  0  0  0  0  0  0  0  0  0  0  0
    9.6520  -15.0232   19.3445 O   0  0  0  0  0  0  0  0  0  0  0  0
    6.4360  -10.6327   26.1837 O   0  0  0  0  0  0  0  0  0  0  0  0
    6.8508  -11.9488   26.3772 C   0  0  0  0  0  0  0  0  0  0  0  0
    7.9300  -12.2781   27.1702 C   0  0  0  0  0  0  0  0  0  0  0  0
    8.3164  -13.5843   27.3430 C   0  0  0  0  0  0  0  0  0  0  0  0
    7.6203  -14.6133   26.7149 C   0  0  0  0  0  0  0  0  0  0  0  0
    7.9780  -16.0213   26.8462 C   0  0  0  0  0  0  0  0  0  0  0  0
    9.3331  -16.3680   26.2724 C   0  0  2  0  0  0  0  0  0  0  0  0
    9.2007  -16.6214   24.8393 N   0  0  0  0  0  0  0  0  0  0  0  0
    9.8460  -17.5896   26.8952 C   0  0  0  0  0  0  0  0  0  0  0  0
    9.9954  -18.7357   26.1471 O   0  0  0  0  0  0  0  0  0  0  0  0
    6.5325  -14.2650   25.9173 C   0  0  0  0  0  0  0  0  0  0  0  0
    6.1559  -12.9703   25.7511 C   0  0  0  0  0  0  0  0  0  0  0  0
   10.1508  -17.6098   28.1027 O   0  0  0  0  0  0  0  0  0  0  0  0
  1  2  1  0
  3  2  1  0
  3  4  1  1
  5  3  1  0
  5  7  1  0
  6  5  2  0
  7  8  1  0
  8  9  1  6
  9 10  1  0
 10 14  1  0
 11 10  2  0
 12  8  1  0
 13 12  2  0
 16 15  1  0
 16 17  2  0
 18 17  1  0
 19 18  2  0
 20 19  1  0
 21 22  1  0
 21 20  1  1
 22 12  1  0
 23 21  1  0
 24 23  1  0
 25 26  2  0
 25 19  1  0
 26 16  1  0
 27 23  2  0
M  END
$$$$
