FIS.pdb
     RDKit          3D

 26 26  0  0  1  0  0  0  0  0999 V2000
    9.8745  -15.6587   21.1878 N   0  0  0  0  0  0  0  0  0  0  0  0
    8.8993  -14.9005   21.9248 C   0  0  1  0  0  0  0  0  0  0  0  0
    7.5352  -15.0592   21.2900 C   0  0  0  0  0  0  0  0  0  0  0  0
    7.3741  -14.2936   20.0540 C   0  0  0  0  0  0  0  0  0  0  0  0
    7.4147  -12.9049   20.1310 C   0  0  0  0  0  0  0  0  0  0  0  0
    7.2746  -12.0923   19.0343 C   0  0  0  0  0  0  0  0  0  0  0  0
    7.0837  -12.6890   17.7927 C   0  0  0  0  0  0  0  0  0  0  0  0
    7.0388  -14.0489   17.6815 C   0  0  0  0  0  0  0  0  0  0  0  0
    7.1853  -14.8457   18.8202 C   0  0  0  0  0  0  0  0  0  0  0  0
    8.7956  -15.4429   23.3075 C   0  0  0  0  0  0  0  0  0  0  0  0
    9.6096  -16.3247   23.7066 O   0  0  0  0  0  0  0  0  0  0  0  0
    6.4042  -11.5586   26.4279 C   0  0  0  0  0  0  0  0  0  0  0  0
    7.2843  -12.5718   25.7431 C   0  0  0  0  0  0  0  0  0  0  0  0
    7.3009  -13.9179   26.3592 C   0  0  2  0  0  0  0  0  0  0  0  0
    7.8006  -13.8432   27.8000 C   0  0  0  0  0  0  0  0  0  0  0  0
    8.0440  -14.9859   25.6348 C   0  0  2  0  0  0  0  0  0  0  0  0
    7.8061  -15.0121   24.2259 N   0  0  0  0  0  0  0  0  0  0  0  0
    7.8731  -16.3318   26.2569 C   0  0  0  0  0  0  0  0  0  0  0  0
    6.7459  -16.7885   26.5021 O   0  0  0  0  0  0  0  0  0  0  0  0
   10.6640  -19.2275   25.8502 O   0  0  0  0  0  0  0  0  0  0  0  0
    9.3977  -19.5602   26.3219 C   0  0  0  0  0  0  0  0  0  0  0  0
    8.8514  -18.4646   27.2099 C   0  0  2  0  0  0  0  0  0  0  0  0
    8.9957  -17.1571   26.6004 N   0  0  0  0  0  0  0  0  0  0  0  0
    9.6325  -18.5030   28.4698 C   0  0  0  0  0  0  0  0  0  0  0  0
   10.3071  -17.4999   28.8037 O   0  0  0  0  0  0  0  0  0  0  0  0
    9.6596  -19.5961   29.3085 O   0  0  0  0  0  0  0  0  0  0  0  0
  2  1  1  6
  3  2  1  0
  4  5  2  0
  4  3  1  0
  6  5  1  0
  7  6  2  0
  8  7  1  0
  8  9  2  0
  9  4  1  0
 10 17  1  0
 10  2  1  0
 11 10  2  0
 13 12  1  0
 14 16  1  0
 14 13  1  0
 14 15  1  1
 16 17  1  6
 18 16  1  0
 19 18  2  0
 21 20  1  0
 22 21  1  6
 22 23  1  0
 23 18  1  0
 24 22  1  0
 25 24  2  0
 26 24  1  0
M  END
$$$$
