FIS.pdb
     RDKit          3D

 26 26  0  0  1  0  0  0  0  0999 V2000
    6.0445  -18.0499   25.7673 N   0  0  0  0  0  0  0  0  0  0  0  0
    6.3413  -16.6529   25.5956 C   0  0  1  0  0  0  0  0  0  0  0  0
    7.1256  -16.1422   26.7844 C   0  0  0  0  0  0  0  0  0  0  0  0
    7.1432  -14.6832   26.8887 C   0  0  0  0  0  0  0  0  0  0  0  0
    8.3771  -14.0407   26.9105 C   0  0  0  0  0  0  0  0  0  0  0  0
    8.5074  -12.6780   27.0056 C   0  0  0  0  0  0  0  0  0  0  0  0
    7.3507  -11.9099   27.0835 C   0  0  0  0  0  0  0  0  0  0  0  0
    6.1237  -12.5082   27.0647 C   0  0  0  0  0  0  0  0  0  0  0  0
    6.0289  -13.8990   26.9668 C   0  0  0  0  0  0  0  0  0  0  0  0
    7.2105  -16.4771   24.3996 C   0  0  0  0  0  0  0  0  0  0  0  0
    8.0596  -17.3638   24.0956 O   0  0  0  0  0  0  0  0  0  0  0  0
    7.9293  -12.6995   19.4224 C   0  0  0  0  0  0  0  0  0  0  0  0
    8.3154  -13.8960   20.2527 C   0  0  0  0  0  0  0  0  0  0  0  0
    7.6180  -14.0183   21.5529 C   0  0  2  0  0  0  0  0  0  0  0  0
    7.8162  -12.7567   22.3896 C   0  0  0  0  0  0  0  0  0  0  0  0
    7.9345  -15.2141   22.3821 C   0  0  2  0  0  0  0  0  0  0  0  0
    7.1354  -15.3378   23.5603 N   0  0  0  0  0  0  0  0  0  0  0  0
    9.3919  -15.3423   22.6776 C   0  0  0  0  0  0  0  0  0  0  0  0
    9.9411  -14.6253   23.5283 O   0  0  0  0  0  0  0  0  0  0  0  0
   11.2295  -18.7976   22.2059 O   0  0  0  0  0  0  0  0  0  0  0  0
   11.9526  -17.8037   22.8588 C   0  0  0  0  0  0  0  0  0  0  0  0
   11.6377  -16.4430   22.2788 C   0  0  2  0  0  0  0  0  0  0  0  0
   10.2235  -16.2933   21.9969 N   0  0  0  0  0  0  0  0  0  0  0  0
   12.4010  -16.3284   21.0127 C   0  0  0  0  0  0  0  0  0  0  0  0
   11.7789  -16.2069   19.9306 O   0  0  0  0  0  0  0  0  0  0  0  0
   13.7778  -16.3481   20.9564 O   0  0  0  0  0  0  0  0  0  0  0  0
  2  1  1  1
  3  2  1  0
  4  5  2  0
  4  3  1  0
  6  5  1  0
  7  6  2  0
  8  7  1  0
  8  9  2  0
  9  4  1  0
 10 17  1  0
 10  2  1  0
 11 10  2  0
 13 12  1  0
 14 16  1  0
 14 13  1  0
 14 15  1  1
 16 17  1  1
 18 16  1  0
 19 18  2  0
 21 20  1  0
 22 21  1  6
 22 23  1  0
 23 18  1  0
 24 22  1  0
 25 24  2  0
 26 24  1  0
M  END
$$$$
