FIS.pdb
     RDKit          3D

 26 26  0  0  1  0  0  0  0  0999 V2000
    6.2526  -16.7433   25.5790 N   0  0  0  0  0  0  0  0  0  0  0  0
    6.7486  -15.6060   24.8512 C   0  0  1  0  0  0  0  0  0  0  0  0
    7.9204  -14.9937   25.5870 C   0  0  0  0  0  0  0  0  0  0  0  0
    7.5722  -13.7878   26.3381 C   0  0  0  0  0  0  0  0  0  0  0  0
    6.7950  -12.8217   25.7066 C   0  0  0  0  0  0  0  0  0  0  0  0
    6.4119  -11.6549   26.3187 C   0  0  0  0  0  0  0  0  0  0  0  0
    6.8217  -11.4335   27.6291 C   0  0  0  0  0  0  0  0  0  0  0  0
    7.5850  -12.3608   28.2783 C   0  0  0  0  0  0  0  0  0  0  0  0
    7.9566  -13.5381   27.6236 C   0  0  0  0  0  0  0  0  0  0  0  0
    7.2595  -16.0533   23.5262 C   0  0  0  0  0  0  0  0  0  0  0  0
    7.2022  -17.2746   23.2027 O   0  0  0  0  0  0  0  0  0  0  0  0
    7.3027  -12.2629   19.9893 C   0  0  0  0  0  0  0  0  0  0  0  0
    7.0697  -13.7436   20.1414 C   0  0  0  0  0  0  0  0  0  0  0  0
    8.2928  -14.5709   20.2503 C   0  0  2  0  0  0  0  0  0  0  0  0
    8.6235  -15.2198   18.9085 C   0  0  0  0  0  0  0  0  0  0  0  0
    8.3167  -15.6081   21.3185 C   0  0  2  0  0  0  0  0  0  0  0  0
    7.8221  -15.1591   22.5818 N   0  0  0  0  0  0  0  0  0  0  0  0
    9.6446  -16.2782   21.4428 C   0  0  0  0  0  0  0  0  0  0  0  0
   10.5751  -15.7502   22.0711 O   0  0  0  0  0  0  0  0  0  0  0  0
   10.3445  -20.2370   21.9103 O   0  0  0  0  0  0  0  0  0  0  0  0
   11.0588  -19.7218   20.8327 C   0  0  0  0  0  0  0  0  0  0  0  0
   11.1935  -18.2199   20.9477 C   0  0  2  0  0  0  0  0  0  0  0  0
    9.9087  -17.5559   20.8454 N   0  0  0  0  0  0  0  0  0  0  0  0
   12.0596  -17.7790   19.8279 C   0  0  0  0  0  0  0  0  0  0  0  0
   11.5481  -17.1619   18.8633 O   0  0  0  0  0  0  0  0  0  0  0  0
   13.4171  -18.0126   19.7858 O   0  0  0  0  0  0  0  0  0  0  0  0
  2  1  1  1
  3  2  1  0
  4  5  2  0
  4  3  1  0
  6  5  1  0
  7  6  2  0
  8  7  1  0
  8  9  2  0
  9  4  1  0
 10 17  1  0
 10  2  1  0
 11 10  2  0
 13 12  1  0
 14 16  1  0
 14 13  1  0
 14 15  1  6
 16 17  1  1
 18 16  1  0
 19 18  2  0
 21 20  1  0
 22 21  1  6
 22 23  1  0
 23 18  1  0
 24 22  1  0
 25 24  2  0
 26 24  1  0
M  END
$$$$
