FIS.pdb
     RDKit          3D

 26 26  0  0  1  0  0  0  0  0999 V2000
    9.4521  -16.8608   21.1886 N   0  0  0  0  0  0  0  0  0  0  0  0
    8.8905  -15.6983   21.8229 C   0  0  1  0  0  0  0  0  0  0  0  0
    7.4925  -15.4500   21.3001 C   0  0  0  0  0  0  0  0  0  0  0  0
    7.3696  -14.2145   20.5267 C   0  0  0  0  0  0  0  0  0  0  0  0
    7.1589  -14.3160   19.1551 C   0  0  0  0  0  0  0  0  0  0  0  0
    7.0295  -13.2219   18.3370 C   0  0  0  0  0  0  0  0  0  0  0  0
    7.1137  -11.9577   18.9100 C   0  0  0  0  0  0  0  0  0  0  0  0
    7.3198  -11.8221   20.2528 C   0  0  0  0  0  0  0  0  0  0  0  0
    7.4470  -12.9588   21.0558 C   0  0  0  0  0  0  0  0  0  0  0  0
    8.7645  -15.9472   23.2853 C   0  0  0  0  0  0  0  0  0  0  0  0
    9.3868  -16.9086   23.8220 O   0  0  0  0  0  0  0  0  0  0  0  0
    6.4191  -11.6237   25.9672 C   0  0  0  0  0  0  0  0  0  0  0  0
    7.4611  -12.5960   25.4782 C   0  0  0  0  0  0  0  0  0  0  0  0
    7.5019  -13.8939   26.1894 C   0  0  2  0  0  0  0  0  0  0  0  0
    8.0321  -13.7118   27.6095 C   0  0  0  0  0  0  0  0  0  0  0  0
    8.2377  -15.0066   25.5276 C   0  0  2  0  0  0  0  0  0  0  0  0
    7.9623  -15.1422   24.1319 N   0  0  0  0  0  0  0  0  0  0  0  0
    8.0993  -16.3029   26.2544 C   0  0  0  0  0  0  0  0  0  0  0  0
    6.9848  -16.7469   26.5711 O   0  0  0  0  0  0  0  0  0  0  0  0
   10.8713  -19.2213   25.9535 O   0  0  0  0  0  0  0  0  0  0  0  0
    9.6296  -19.5116   26.5108 C   0  0  0  0  0  0  0  0  0  0  0  0
    9.1276  -18.3486   27.3370 C   0  0  2  0  0  0  0  0  0  0  0  0
    9.2398  -17.0930   26.6209 N   0  0  0  0  0  0  0  0  0  0  0  0
    9.9710  -18.2910   28.5552 C   0  0  0  0  0  0  0  0  0  0  0  0
    9.9693  -19.2623   29.3485 O   0  0  0  0  0  0  0  0  0  0  0  0
   10.7699  -17.2133   28.8705 O   0  0  0  0  0  0  0  0  0  0  0  0
  2  1  1  6
  3  2  1  0
  4  5  2  0
  4  3  1  0
  6  5  1  0
  7  6  2  0
  8  7  1  0
  8  9  2  0
  9  4  1  0
 10 17  1  0
 10  2  1  0
 11 10  2  0
 13 12  1  0
 14 16  1  0
 14 13  1  0
 14 15  1  1
 16 17  1  6
 18 16  1  0
 19 18  2  0
 21 20  1  0
 22 21  1  6
 22 23  1  0
 23 18  1  0
 24 22  1  0
 25 24  2  0
 26 24  1  0
M  END
$$$$
