FIS.pdb
     RDKit          3D

 26 26  0  0  1  0  0  0  0  0999 V2000
    5.7902  -17.9789   25.3189 N   0  0  0  0  0  0  0  0  0  0  0  0
    6.2087  -16.6028   25.2987 C   0  0  1  0  0  0  0  0  0  0  0  0
    6.7511  -16.2086   26.6550 C   0  0  0  0  0  0  0  0  0  0  0  0
    6.9641  -14.7689   26.8023 C   0  0  0  0  0  0  0  0  0  0  0  0
    8.2685  -14.3098   26.9562 C   0  0  0  0  0  0  0  0  0  0  0  0
    8.5798  -12.9814   27.1020 C   0  0  0  0  0  0  0  0  0  0  0  0
    7.5408  -12.0571   27.0949 C   0  0  0  0  0  0  0  0  0  0  0  0
    6.2492  -12.4734   26.9460 C   0  0  0  0  0  0  0  0  0  0  0  0
    5.9691  -13.8347   26.7999 C   0  0  0  0  0  0  0  0  0  0  0  0
    7.3243  -16.4412   24.3261 C   0  0  0  0  0  0  0  0  0  0  0  0
    8.1606  -17.3750   24.1578 O   0  0  0  0  0  0  0  0  0  0  0  0
    6.9974  -12.3751   20.3415 C   0  0  0  0  0  0  0  0  0  0  0  0
    7.1212  -13.6988   21.0505 C   0  0  0  0  0  0  0  0  0  0  0  0
    8.4246  -13.9480   21.7070 C   0  0  2  0  0  0  0  0  0  0  0  0
    9.5512  -13.9611   20.6767 C   0  0  0  0  0  0  0  0  0  0  0  0
    8.5296  -15.1589   22.5674 C   0  0  2  0  0  0  0  0  0  0  0  0
    7.5045  -15.2644   23.5575 N   0  0  0  0  0  0  0  0  0  0  0  0
    9.8921  -15.3362   23.1506 C   0  0  0  0  0  0  0  0  0  0  0  0
   10.3054  -14.5956   24.0561 O   0  0  0  0  0  0  0  0  0  0  0  0
   11.6614  -18.8571   22.9835 O   0  0  0  0  0  0  0  0  0  0  0  0
   12.3629  -17.9229   23.7399 C   0  0  0  0  0  0  0  0  0  0  0  0
   12.1281  -16.5238   23.2161 C   0  0  2  0  0  0  0  0  0  0  0  0
   10.7846  -16.3636   22.6952 N   0  0  0  0  0  0  0  0  0  0  0  0
   13.1037  -16.3055   22.1210 C   0  0  0  0  0  0  0  0  0  0  0  0
   12.6834  -16.0944   20.9584 O   0  0  0  0  0  0  0  0  0  0  0  0
   14.4685  -16.3215   22.3111 O   0  0  0  0  0  0  0  0  0  0  0  0
  2  1  1  1
  3  2  1  0
  4  5  2  0
  4  3  1  0
  6  5  1  0
  7  6  2  0
  8  7  1  0
  8  9  2  0
  9  4  1  0
 10 17  1  0
 10  2  1  0
 11 10  2  0
 13 12  1  0
 14 16  1  0
 14 13  1  0
 14 15  1  6
 16 17  1  1
 18 16  1  0
 19 18  2  0
 21 20  1  0
 22 21  1  6
 22 23  1  0
 23 18  1  0
 24 22  1  0
 25 24  2  0
 26 24  1  0
M  END
$$$$
