PWD.pdb
     RDKit          3D

 30 32  0  0  1  0  0  0  0  0999 V2000
   27.9072  -18.9928  -13.5485 N   0  0  0  0  0  0  0  0  0  0  0  0
   29.0191  -18.6170  -14.3686 C   0  0  0  0  0  0  0  0  0  0  0  0
   29.7984  -19.8541  -14.7005 C   0  0  0  0  0  0  0  0  0  0  0  0
   29.2039  -20.8729  -13.7250 C   0  0  0  0  0  0  0  0  0  0  0  0
   27.7435  -20.4062  -13.7259 C   0  0  1  0  0  0  0  0  0  0  0  0
   26.9892  -21.0388  -12.6151 C   0  0  0  0  0  0  0  0  0  0  0  0
   26.6926  -22.2586  -12.6507 O   0  0  0  0  0  0  0  0  0  0  0  0
   26.5879  -20.2876  -11.4947 N   0  0  0  0  0  0  0  0  0  0  0  0
   25.6163  -20.6786  -10.5321 C   0  0  1  0  0  0  0  0  0  0  0  0
   25.9548  -20.1491   -9.1779 C   0  0  0  0  0  0  0  0  0  0  0  0
   27.2985  -20.4880   -8.6876 C   0  0  0  0  0  0  0  0  0  0  0  0
   28.2666  -21.2158   -9.3591 C   0  0  0  0  0  0  0  0  0  0  0  0
   29.3663  -21.2917   -8.6118 N   0  0  0  0  0  0  0  0  0  0  0  0
   29.1335  -20.6275   -7.4645 C   0  0  0  0  0  0  0  0  0  0  0  0
   29.9019  -20.3976   -6.3569 C   0  0  0  0  0  0  0  0  0  0  0  0
   29.4822  -19.6893   -5.2555 C   0  0  0  0  0  0  0  0  0  0  0  0
   28.1924  -19.1891   -5.3008 C   0  0  0  0  0  0  0  0  0  0  0  0
   27.3925  -19.3967   -6.3896 C   0  0  0  0  0  0  0  0  0  0  0  0
   27.8458  -20.1181   -7.4927 C   0  0  0  0  0  0  0  0  0  0  0  0
   24.2331  -20.3514  -10.9129 C   0  0  0  0  0  0  0  0  0  0  0  0
   23.8763  -19.1323  -10.9227 O   0  0  0  0  0  0  0  0  0  0  0  0
   23.2778  -21.3359  -11.2702 N   0  0  0  0  0  0  0  0  0  0  0  0
   21.9534  -21.0018  -11.7745 C   0  0  1  0  0  0  0  0  0  0  0  0
   21.5165  -21.9402  -12.8552 C   0  0  0  0  0  0  0  0  0  0  0  0
   20.9324  -21.1890  -13.9677 C   0  0  0  0  0  0  0  0  0  0  0  0
   19.8994  -20.4715  -13.8256 O   0  0  0  0  0  0  0  0  0  0  0  0
   20.9819  -20.8279  -10.6838 C   0  0  0  0  0  0  0  0  0  0  0  0
   19.8085  -20.1366  -10.7716 O   0  0  0  0  0  0  0  0  0  0  0  0
   21.5329  -21.2641  -15.2310 O   0  0  0  0  0  0  0  0  0  0  0  0
   21.2597  -21.3684   -9.5597 O   0  0  0  0  0  0  0  0  0  0  0  0
  1  2  1  0
  1  5  1  0
  2  3  1  0
  3  4  1  0
  5  4  1  0
  6  7  2  0
  5  6  1  1
  8  6  1  0
  9  8  1  0
  9 10  1  1
 10 11  1  0
 11 12  2  0
 11 19  1  0
 12 13  1  0
 13 14  1  0
 14 15  2  0
 15 16  1  0
 17 16  2  0
 18 17  1  0
 19 18  2  0
 19 14  1  0
 20  9  1  0
 21 20  2  0
 22 20  1  0
 23 22  1  0
 24 25  1  0
 23 24  1  6
 25 29  1  0
 26 25  2  0
 27 28  1  0
 27 23  1  0
 30 27  2  0
M  END
$$$$
