PWD.pdb
     RDKit          3D

 30 32  0  0  1  0  0  0  0  0999 V2000
   28.4433  -20.6000  -16.2017 N   0  0  0  0  0  0  0  0  0  0  0  0
   29.4622  -20.7748  -17.1923 C   0  0  0  0  0  0  0  0  0  0  0  0
   29.6652  -22.2451  -17.4043 C   0  0  0  0  0  0  0  0  0  0  0  0
   28.9090  -22.8428  -16.2151 C   0  0  0  0  0  0  0  0  0  0  0  0
   27.7443  -21.8496  -16.1272 C   0  0  1  0  0  0  0  0  0  0  0  0
   27.0064  -22.0174  -14.8503 C   0  0  0  0  0  0  0  0  0  0  0  0
   26.2068  -22.9723  -14.6891 O   0  0  0  0  0  0  0  0  0  0  0  0
   27.1845  -21.1106  -13.7887 N   0  0  0  0  0  0  0  0  0  0  0  0
   26.5696  -21.1929  -12.5086 C   0  0  1  0  0  0  0  0  0  0  0  0
   27.4904  -20.7133  -11.4358 C   0  0  0  0  0  0  0  0  0  0  0  0
   26.8723  -20.5195  -10.1163 C   0  0  0  0  0  0  0  0  0  0  0  0
   25.5269  -20.3256   -9.8517 C   0  0  0  0  0  0  0  0  0  0  0  0
   25.3413  -20.2197   -8.5373 N   0  0  0  0  0  0  0  0  0  0  0  0
   26.5410  -20.3401   -7.9390 C   0  0  0  0  0  0  0  0  0  0  0  0
   26.9284  -20.3030   -6.6281 C   0  0  0  0  0  0  0  0  0  0  0  0
   28.2279  -20.4392   -6.1994 C   0  0  0  0  0  0  0  0  0  0  0  0
   29.1838  -20.6245   -7.1832 C   0  0  0  0  0  0  0  0  0  0  0  0
   28.8375  -20.6678   -8.5048 C   0  0  0  0  0  0  0  0  0  0  0  0
   27.5111  -20.5277   -8.9096 C   0  0  0  0  0  0  0  0  0  0  0  0
   25.2570  -20.5320  -12.4332 C   0  0  0  0  0  0  0  0  0  0  0  0
   25.1862  -19.2883  -12.6815 O   0  0  0  0  0  0  0  0  0  0  0  0
   24.0648  -21.2206  -12.0952 N   0  0  0  0  0  0  0  0  0  0  0  0
   22.7523  -20.8000  -12.5648 C   0  0  1  0  0  0  0  0  0  0  0  0
   22.3128  -21.5825  -13.7623 C   0  0  0  0  0  0  0  0  0  0  0  0
   20.9718  -21.1626  -14.1730 C   0  0  0  0  0  0  0  0  0  0  0  0
   20.7594  -20.0504  -14.7387 O   0  0  0  0  0  0  0  0  0  0  0  0
   21.7708  -20.7514  -11.4702 C   0  0  0  0  0  0  0  0  0  0  0  0
   20.7485  -19.8537  -11.3631 O   0  0  0  0  0  0  0  0  0  0  0  0
   19.8870  -22.0158  -13.9340 O   0  0  0  0  0  0  0  0  0  0  0  0
   21.8850  -21.6215  -10.5415 O   0  0  0  0  0  0  0  0  0  0  0  0
  1  2  1  0
  1  5  1  0
  2  3  1  0
  3  4  1  0
  5  4  1  0
  6  7  2  0
  5  6  1  1
  8  6  1  0
  9  8  1  0
  9 10  1  1
 10 11  1  0
 11 12  2  0
 11 19  1  0
 12 13  1  0
 13 14  1  0
 14 15  2  0
 15 16  1  0
 17 16  2  0
 18 17  1  0
 19 18  2  0
 19 14  1  0
 20  9  1  0
 21 20  2  0
 22 20  1  0
 23 22  1  0
 24 25  1  0
 23 24  1  6
 25 29  1  0
 26 25  2  0
 27 28  1  0
 27 23  1  0
 30 27  2  0
M  END
$$$$
