PWD.pdb
     RDKit          3D

 30 32  0  0  1  0  0  0  0  0999 V2000
   18.3000  -11.3863  -17.4921 N   0  0  0  0  0  0  0  0  0  0  0  0
   17.5692  -12.5613  -17.8603 C   0  0  0  0  0  0  0  0  0  0  0  0
   17.6716  -13.5501  -16.7380 C   0  0  0  0  0  0  0  0  0  0  0  0
   18.7848  -12.9415  -15.8816 C   0  0  0  0  0  0  0  0  0  0  0  0
   18.4678  -11.4533  -16.0698 C   0  0  1  0  0  0  0  0  0  0  0  0
   19.5906  -10.6119  -15.5857 C   0  0  0  0  0  0  0  0  0  0  0  0
   19.9219  -10.6146  -14.3743 O   0  0  0  0  0  0  0  0  0  0  0  0
   20.3118   -9.7902  -16.4722 N   0  0  0  0  0  0  0  0  0  0  0  0
   21.3977   -8.9393  -16.1252 C   0  0  1  0  0  0  0  0  0  0  0  0
   22.6100   -9.2530  -16.9379 C   0  0  0  0  0  0  0  0  0  0  0  0
   23.3674  -10.4369  -16.5070 C   0  0  0  0  0  0  0  0  0  0  0  0
   22.9098  -11.7432  -16.4645 C   0  0  0  0  0  0  0  0  0  0  0  0
   23.8888  -12.5457  -16.0508 N   0  0  0  0  0  0  0  0  0  0  0  0
   24.9767  -11.7871  -15.8218 C   0  0  0  0  0  0  0  0  0  0  0  0
   26.2374  -12.0865  -15.3848 C   0  0  0  0  0  0  0  0  0  0  0  0
   27.2347  -11.1580  -15.1993 C   0  0  0  0  0  0  0  0  0  0  0  0
   26.9104   -9.8424  -15.4817 C   0  0  0  0  0  0  0  0  0  0  0  0
   25.6615   -9.5018  -15.9210 C   0  0  0  0  0  0  0  0  0  0  0  0
   24.6706  -10.4654  -16.1008 C   0  0  0  0  0  0  0  0  0  0  0  0
   21.0703   -7.5054  -16.1696 C   0  0  0  0  0  0  0  0  0  0  0  0
   20.3238   -7.0797  -17.1051 O   0  0  0  0  0  0  0  0  0  0  0  0
   21.5507   -6.5744  -15.2145 N   0  0  0  0  0  0  0  0  0  0  0  0
   21.2677   -5.1484  -15.2932 C   0  0  1  0  0  0  0  0  0  0  0  0
   21.4671   -4.4680  -13.9753 C   0  0  0  0  0  0  0  0  0  0  0  0
   21.1058   -3.0532  -14.0800 C   0  0  0  0  0  0  0  0  0  0  0  0
   20.1685   -2.6524  -14.8303 O   0  0  0  0  0  0  0  0  0  0  0  0
   21.9661   -4.5148  -16.4221 C   0  0  0  0  0  0  0  0  0  0  0  0
   21.4184   -3.6100  -17.2845 O   0  0  0  0  0  0  0  0  0  0  0  0
   21.8174   -2.1101  -13.3275 O   0  0  0  0  0  0  0  0  0  0  0  0
   23.1874   -4.8390  -16.6122 O   0  0  0  0  0  0  0  0  0  0  0  0
  1  2  1  0
  1  5  1  0
  2  3  1  0
  3  4  1  0
  5  4  1  0
  6  7  2  0
  5  6  1  6
  8  6  1  0
  9  8  1  0
  9 10  1  6
 10 11  1  0
 11 12  2  0
 11 19  1  0
 12 13  1  0
 13 14  1  0
 14 15  2  0
 15 16  1  0
 17 16  2  0
 18 17  1  0
 19 18  2  0
 19 14  1  0
 20  9  1  0
 21 20  2  0
 22 20  1  0
 23 22  1  0
 24 25  1  0
 23 24  1  1
 25 29  1  0
 26 25  2  0
 27 28  1  0
 27 23  1  0
 30 27  2  0
M  END
$$$$
