PWD.pdb
     RDKit          3D

 30 32  0  0  1  0  0  0  0  0999 V2000
   28.3118  -19.4920  -14.6796 N   0  0  0  0  0  0  0  0  0  0  0  0
   29.3317  -19.3454  -15.6738 C   0  0  0  0  0  0  0  0  0  0  0  0
   29.8754  -20.7053  -15.9943 C   0  0  0  0  0  0  0  0  0  0  0  0
   29.2966  -21.5525  -14.8584 C   0  0  0  0  0  0  0  0  0  0  0  0
   27.9305  -20.8739  -14.7037 C   0  0  1  0  0  0  0  0  0  0  0  0
   27.2683  -21.3069  -13.4479 C   0  0  0  0  0  0  0  0  0  0  0  0
   26.6191  -22.3809  -13.3992 O   0  0  0  0  0  0  0  0  0  0  0  0
   27.3515  -20.5247  -12.2807 N   0  0  0  0  0  0  0  0  0  0  0  0
   26.6915  -20.7907  -11.0490 C   0  0  1  0  0  0  0  0  0  0  0  0
   27.4867  -20.2857   -9.8908 C   0  0  0  0  0  0  0  0  0  0  0  0
   26.8385  -20.4158   -8.5779 C   0  0  0  0  0  0  0  0  0  0  0  0
   25.5372  -20.8207   -8.3326 C   0  0  0  0  0  0  0  0  0  0  0  0
   25.3178  -20.8464   -7.0193 N   0  0  0  0  0  0  0  0  0  0  0  0
   26.4519  -20.4649   -6.4029 C   0  0  0  0  0  0  0  0  0  0  0  0
   26.7803  -20.3094   -5.0846 C   0  0  0  0  0  0  0  0  0  0  0  0
   28.0123  -19.8942   -4.6363 C   0  0  0  0  0  0  0  0  0  0  0  0
   28.9610  -19.6237   -5.6072 C   0  0  0  0  0  0  0  0  0  0  0  0
   28.6723  -19.7671   -6.9356 C   0  0  0  0  0  0  0  0  0  0  0  0
   27.4143  -20.1909   -7.3605 C   0  0  0  0  0  0  0  0  0  0  0  0
   25.3004  -20.3136  -11.0018 C   0  0  0  0  0  0  0  0  0  0  0  0
   25.0796  -19.0677  -11.1135 O   0  0  0  0  0  0  0  0  0  0  0  0
   24.1921  -21.1821  -10.8370 N   0  0  0  0  0  0  0  0  0  0  0  0
   22.8435  -20.8259  -11.2546 C   0  0  1  0  0  0  0  0  0  0  0  0
   22.3337  -21.7378  -12.3260 C   0  0  0  0  0  0  0  0  0  0  0  0
   21.6638  -20.9612  -13.3707 C   0  0  0  0  0  0  0  0  0  0  0  0
   20.4365  -20.6593  -13.3014 O   0  0  0  0  0  0  0  0  0  0  0  0
   21.9403  -20.6662  -10.1046 C   0  0  0  0  0  0  0  0  0  0  0  0
   20.9585  -19.7248   -9.9940 O   0  0  0  0  0  0  0  0  0  0  0  0
   22.4009  -20.5367  -14.4835 O   0  0  0  0  0  0  0  0  0  0  0  0
   22.0875  -21.4756   -9.1268 O   0  0  0  0  0  0  0  0  0  0  0  0
  1  2  1  0
  1  5  1  0
  2  3  1  0
  3  4  1  0
  5  4  1  0
  6  7  2  0
  5  6  1  1
  8  6  1  0
  9  8  1  0
  9 10  1  1
 10 11  1  0
 11 12  2  0
 11 19  1  0
 12 13  1  0
 13 14  1  0
 14 15  2  0
 15 16  1  0
 17 16  2  0
 18 17  1  0
 19 18  2  0
 19 14  1  0
 20  9  1  0
 21 20  2  0
 22 20  1  0
 23 22  1  0
 24 25  1  0
 23 24  1  6
 25 29  1  0
 26 25  2  0
 27 28  1  0
 27 23  1  0
 30 27  2  0
M  END
$$$$
