PWD.pdb
     RDKit          3D

 30 32  0  0  1  0  0  0  0  0999 V2000
   28.2355  -19.9486  -15.4451 N   0  0  0  0  0  0  0  0  0  0  0  0
   29.4376  -19.8980  -16.2212 C   0  0  0  0  0  0  0  0  0  0  0  0
   29.9981  -21.2856  -16.3118 C   0  0  0  0  0  0  0  0  0  0  0  0
   29.1807  -22.0261  -15.2503 C   0  0  0  0  0  0  0  0  0  0  0  0
   27.8300  -21.3238  -15.4315 C   0  0  1  0  0  0  0  0  0  0  0  0
   26.9180  -21.6405  -14.3041 C   0  0  0  0  0  0  0  0  0  0  0  0
   26.5426  -22.8199  -14.0910 O   0  0  0  0  0  0  0  0  0  0  0  0
   26.4515  -20.6271  -13.4460 N   0  0  0  0  0  0  0  0  0  0  0  0
   25.5695  -20.8067  -12.3445 C   0  0  1  0  0  0  0  0  0  0  0  0
   26.0242  -20.0256  -11.1562 C   0  0  0  0  0  0  0  0  0  0  0  0
   27.2158  -20.5523  -10.4754 C   0  0  0  0  0  0  0  0  0  0  0  0
   28.2943  -21.1890  -11.0663 C   0  0  0  0  0  0  0  0  0  0  0  0
   29.1961  -21.4959  -10.1357 N   0  0  0  0  0  0  0  0  0  0  0  0
   28.7256  -21.0719   -8.9480 C   0  0  0  0  0  0  0  0  0  0  0  0
   29.2302  -21.1329   -7.6785 C   0  0  0  0  0  0  0  0  0  0  0  0
   28.5888  -20.6435   -6.5649 C   0  0  0  0  0  0  0  0  0  0  0  0
   27.3531  -20.0563   -6.7752 C   0  0  0  0  0  0  0  0  0  0  0  0
   26.8141  -19.9753   -8.0288 C   0  0  0  0  0  0  0  0  0  0  0  0
   27.4883  -20.4796   -9.1395 C   0  0  0  0  0  0  0  0  0  0  0  0
   24.1573  -20.5410  -12.6610 C   0  0  0  0  0  0  0  0  0  0  0  0
   23.8640  -19.4784  -13.2921 O   0  0  0  0  0  0  0  0  0  0  0  0
   23.1059  -21.4180  -12.2931 N   0  0  0  0  0  0  0  0  0  0  0  0
   21.7190  -21.1872  -12.6714 C   0  0  1  0  0  0  0  0  0  0  0  0
   21.0979  -22.4053  -13.2794 C   0  0  0  0  0  0  0  0  0  0  0  0
   19.6943  -22.1454  -13.6042 C   0  0  0  0  0  0  0  0  0  0  0  0
   19.3545  -21.4019  -14.5707 O   0  0  0  0  0  0  0  0  0  0  0  0
   20.9460  -20.5885  -11.5723 C   0  0  0  0  0  0  0  0  0  0  0  0
   19.8719  -19.7596  -11.7199 O   0  0  0  0  0  0  0  0  0  0  0  0
   18.6929  -22.7364  -12.8234 O   0  0  0  0  0  0  0  0  0  0  0  0
   21.3107  -20.8667  -10.3797 O   0  0  0  0  0  0  0  0  0  0  0  0
  1  2  1  0
  1  5  1  0
  2  3  1  0
  3  4  1  0
  5  4  1  0
  6  7  2  0
  5  6  1  1
  8  6  1  0
  9  8  1  0
  9 10  1  1
 10 11  1  0
 11 12  2  0
 11 19  1  0
 12 13  1  0
 13 14  1  0
 14 15  2  0
 15 16  1  0
 17 16  2  0
 18 17  1  0
 19 18  2  0
 19 14  1  0
 20  9  1  0
 21 20  2  0
 22 20  1  0
 23 22  1  0
 24 25  1  0
 23 24  1  1
 25 29  1  0
 26 25  2  0
 27 28  1  0
 27 23  1  0
 30 27  2  0
M  END
$$$$
