PWD.pdb
     RDKit          3D

 30 32  0  0  1  0  0  0  0  0999 V2000
   27.3668  -19.6544  -12.5934 N   0  0  0  0  0  0  0  0  0  0  0  0
   28.3167  -18.9781  -13.4244 C   0  0  0  0  0  0  0  0  0  0  0  0
   29.6244  -19.7056  -13.3325 C   0  0  0  0  0  0  0  0  0  0  0  0
   29.3884  -20.6291  -12.1347 C   0  0  0  0  0  0  0  0  0  0  0  0
   27.9078  -20.9606  -12.3550 C   0  0  1  0  0  0  0  0  0  0  0  0
   27.3300  -21.6084  -11.1510 C   0  0  0  0  0  0  0  0  0  0  0  0
   27.5559  -22.8178  -10.8993 O   0  0  0  0  0  0  0  0  0  0  0  0
   26.5147  -20.8833  -10.2619 N   0  0  0  0  0  0  0  0  0  0  0  0
   25.3231  -21.3577   -9.6465 C   0  0  1  0  0  0  0  0  0  0  0  0
   25.3529  -21.1358   -8.1705 C   0  0  0  0  0  0  0  0  0  0  0  0
   26.2361  -20.0528   -7.7146 C   0  0  0  0  0  0  0  0  0  0  0  0
   26.2933  -18.7634   -8.2164 C   0  0  0  0  0  0  0  0  0  0  0  0
   27.1914  -18.0575   -7.5318 N   0  0  0  0  0  0  0  0  0  0  0  0
   27.7221  -18.8628   -6.5929 C   0  0  0  0  0  0  0  0  0  0  0  0
   28.6770  -18.6619   -5.6349 C   0  0  0  0  0  0  0  0  0  0  0  0
   29.1047  -19.6260   -4.7524 C   0  0  0  0  0  0  0  0  0  0  0  0
   28.5110  -20.8711   -4.8665 C   0  0  0  0  0  0  0  0  0  0  0  0
   27.5524  -21.1124   -5.8107 C   0  0  0  0  0  0  0  0  0  0  0  0
   27.1380  -20.1148   -6.6914 C   0  0  0  0  0  0  0  0  0  0  0  0
   24.0889  -20.8307  -10.2501 C   0  0  0  0  0  0  0  0  0  0  0  0
   23.0039  -20.9220   -9.5959 O   0  0  0  0  0  0  0  0  0  0  0  0
   24.0544  -20.2244  -11.5311 N   0  0  0  0  0  0  0  0  0  0  0  0
   22.8349  -19.6823  -12.1132 C   0  0  1  0  0  0  0  0  0  0  0  0
   23.1090  -18.4771  -12.9568 C   0  0  0  0  0  0  0  0  0  0  0  0
   23.6510  -18.8842  -14.2544 C   0  0  0  0  0  0  0  0  0  0  0  0
   23.1110  -18.5402  -15.3463 O   0  0  0  0  0  0  0  0  0  0  0  0
   22.0357  -20.7250  -12.7750 C   0  0  0  0  0  0  0  0  0  0  0  0
   22.4945  -21.9535  -13.1526 O   0  0  0  0  0  0  0  0  0  0  0  0
   24.8034  -19.6794  -14.2930 O   0  0  0  0  0  0  0  0  0  0  0  0
   20.8098  -20.4584  -13.0176 O   0  0  0  0  0  0  0  0  0  0  0  0
  1  2  1  0
  1  5  1  0
  2  3  1  0
  3  4  1  0
  5  4  1  0
  6  7  2  0
  5  6  1  1
  8  6  1  0
  9  8  1  0
  9 10  1  1
 10 11  1  0
 11 12  2  0
 11 19  1  0
 12 13  1  0
 13 14  1  0
 14 15  2  0
 15 16  1  0
 17 16  2  0
 18 17  1  0
 19 18  2  0
 19 14  1  0
 20  9  1  0
 21 20  2  0
 22 20  1  0
 23 22  1  0
 24 25  1  0
 23 24  1  6
 25 29  1  0
 26 25  2  0
 27 28  1  0
 27 23  1  0
 30 27  2  0
M  END
$$$$
