QAW.pdb
     RDKit          3D

 29 30  0  0  1  0  0  0  0  0999 V2000
   24.6864  -20.7417  -19.1813 N   0  0  0  0  0  0  0  0  0  0  0  0
   25.7780  -20.1975  -19.8763 C   0  0  0  0  0  0  0  0  0  0  0  0
   25.7133  -19.0096  -20.2842 O   0  0  0  0  0  0  0  0  0  0  0  0
   27.0143  -20.9574  -20.1492 C   0  0  0  0  0  0  0  0  0  0  0  0
   27.8137  -21.3043  -18.9318 C   0  0  0  0  0  0  0  0  0  0  0  0
   28.5823  -20.1890  -18.3313 C   0  0  2  0  0  0  0  0  0  0  0  0
   30.0184  -20.3602  -18.6848 N   0  0  0  0  0  0  0  0  0  0  0  0
   28.4868  -19.9841  -16.8920 C   0  0  0  0  0  0  0  0  0  0  0  0
   29.1907  -20.6606  -16.0643 O   0  0  0  0  0  0  0  0  0  0  0  0
   26.8676  -17.4899  -14.6556 C   0  0  0  0  0  0  0  0  0  0  0  0
   27.5625  -18.8059  -14.9036 C   0  0  2  0  0  0  0  0  0  0  0  0
   27.6051  -19.0204  -16.3361 N   0  0  0  0  0  0  0  0  0  0  0  0
   26.8710  -19.9402  -14.2654 C   0  0  0  0  0  0  0  0  0  0  0  0
   26.1155  -20.6804  -14.9435 O   0  0  0  0  0  0  0  0  0  0  0  0
   27.0048  -20.2648  -12.8900 N   0  0  0  0  0  0  0  0  0  0  0  0
   26.2362  -21.3388  -12.2961 C   0  0  1  0  0  0  0  0  0  0  0  0
   27.0807  -21.8311  -11.1114 C   0  0  0  0  0  0  0  0  0  0  0  0
   26.6494  -21.0413   -9.9290 C   0  0  0  0  0  0  0  0  0  0  0  0
   25.4243  -20.4168   -9.7205 C   0  0  0  0  0  0  0  0  0  0  0  0
   25.4582  -19.8125   -8.5246 N   0  0  0  0  0  0  0  0  0  0  0  0
   26.6470  -19.9948   -7.9077 C   0  0  0  0  0  0  0  0  0  0  0  0
   27.1574  -19.5804   -6.6890 C   0  0  0  0  0  0  0  0  0  0  0  0
   28.4371  -19.9305   -6.3208 C   0  0  0  0  0  0  0  0  0  0  0  0
   29.1797  -20.6955   -7.1944 C   0  0  0  0  0  0  0  0  0  0  0  0
   28.6683  -21.1078   -8.4098 C   0  0  0  0  0  0  0  0  0  0  0  0
   27.3852  -20.7622   -8.7892 C   0  0  0  0  0  0  0  0  0  0  0  0
   24.9157  -20.8854  -11.8240 C   0  0  0  0  0  0  0  0  0  0  0  0
   23.9114  -21.8136  -11.6023 O   0  0  0  0  0  0  0  0  0  0  0  0
   24.6707  -19.6732  -11.6146 O   0  0  0  0  0  0  0  0  0  0  0  0
  2  3  2  0
  2  1  1  0
  4  2  1  0
  5  6  1  0
  5  4  1  0
  6  7  1  1
  8 12  1  0
  8  6  1  0
  9  8  2  0
 11 10  1  6
 11 13  1  0
 11 12  1  0
 13 14  2  0
 15 16  1  0
 15 13  1  0
 16 17  1  1
 18 17  1  0
 19 18  2  0
 20 19  1  0
 21 20  1  0
 21 26  2  0
 22 23  2  0
 22 21  1  0
 23 24  1  0
 24 25  2  0
 26 25  1  0
 26 18  1  0
 27 16  1  0
 27 28  1  0
 29 27  2  0
M  END
$$$$
