QAW.pdb
     RDKit          3D

 29 30  0  0  1  0  0  0  0  0999 V2000
   28.9826  -18.3918  -19.3996 N   0  0  0  0  0  0  0  0  0  0  0  0
   29.8916  -19.4584  -19.3163 C   0  0  0  0  0  0  0  0  0  0  0  0
   31.0061  -19.2711  -18.7642 O   0  0  0  0  0  0  0  0  0  0  0  0
   29.5979  -20.8054  -19.8448 C   0  0  0  0  0  0  0  0  0  0  0  0
   29.4881  -21.8736  -18.8015 C   0  0  0  0  0  0  0  0  0  0  0  0
   28.2503  -21.8489  -17.9876 C   0  0  2  0  0  0  0  0  0  0  0  0
   27.2180  -21.0654  -18.7206 N   0  0  0  0  0  0  0  0  0  0  0  0
   28.3322  -21.3367  -16.6262 C   0  0  0  0  0  0  0  0  0  0  0  0
   29.0935  -21.8713  -15.7471 O   0  0  0  0  0  0  0  0  0  0  0  0
   27.3783  -18.2824  -14.8156 C   0  0  0  0  0  0  0  0  0  0  0  0
   27.6123  -19.7728  -14.8283 C   0  0  2  0  0  0  0  0  0  0  0  0
   27.5688  -20.2155  -16.2075 N   0  0  0  0  0  0  0  0  0  0  0  0
   26.6008  -20.5113  -14.0515 C   0  0  0  0  0  0  0  0  0  0  0  0
   25.5328  -20.8828  -14.5991 O   0  0  0  0  0  0  0  0  0  0  0  0
   26.7559  -20.8430  -12.6801 N   0  0  0  0  0  0  0  0  0  0  0  0
   25.7608  -21.6313  -11.9833 C   0  0  1  0  0  0  0  0  0  0  0  0
   26.4784  -22.1784  -10.7404 C   0  0  0  0  0  0  0  0  0  0  0  0
   26.5557  -21.0560   -9.7698 C   0  0  0  0  0  0  0  0  0  0  0  0
   25.5324  -20.2052   -9.3657 C   0  0  0  0  0  0  0  0  0  0  0  0
   26.0351  -19.3332   -8.4804 N   0  0  0  0  0  0  0  0  0  0  0  0
   27.3515  -19.5486   -8.2614 C   0  0  0  0  0  0  0  0  0  0  0  0
   28.2931  -18.9310   -7.4556 C   0  0  0  0  0  0  0  0  0  0  0  0
   29.5933  -19.3840   -7.4404 C   0  0  0  0  0  0  0  0  0  0  0  0
   29.9185  -20.4565   -8.2427 C   0  0  0  0  0  0  0  0  0  0  0  0
   28.9772  -21.0712   -9.0459 C   0  0  0  0  0  0  0  0  0  0  0  0
   27.6696  -20.6246   -9.0688 C   0  0  0  0  0  0  0  0  0  0  0  0
   24.5927  -20.8273  -11.5818 C   0  0  0  0  0  0  0  0  0  0  0  0
   23.3857  -21.4553  -11.3204 O   0  0  0  0  0  0  0  0  0  0  0  0
   24.6581  -19.5798  -11.4683 O   0  0  0  0  0  0  0  0  0  0  0  0
  2  3  2  0
  2  1  1  0
  4  2  1  0
  5  6  1  0
  5  4  1  0
  6  7  1  6
  8 12  1  0
  8  6  1  0
  9  8  2  0
 11 10  1  6
 11 13  1  0
 11 12  1  0
 13 14  2  0
 15 16  1  0
 15 13  1  0
 16 17  1  1
 18 17  1  0
 19 18  2  0
 20 19  1  0
 21 20  1  0
 21 26  2  0
 22 23  2  0
 22 21  1  0
 23 24  1  0
 24 25  2  0
 26 25  1  0
 26 18  1  0
 27 16  1  0
 27 28  1  0
 29 27  2  0
M  END
$$$$
