QAW.pdb
     RDKit          3D

 29 30  0  0  1  0  0  0  0  0999 V2000
   23.0860  -19.4969  -18.9130 N   0  0  0  0  0  0  0  0  0  0  0  0
   23.3965  -18.3985  -18.0958 C   0  0  0  0  0  0  0  0  0  0  0  0
   24.1775  -17.5136  -18.5304 O   0  0  0  0  0  0  0  0  0  0  0  0
   22.8402  -18.2259  -16.7390 C   0  0  0  0  0  0  0  0  0  0  0  0
   23.8346  -17.7871  -15.7093 C   0  0  0  0  0  0  0  0  0  0  0  0
   24.8371  -18.8036  -15.3133 C   0  0  2  0  0  0  0  0  0  0  0  0
   24.4458  -20.1108  -15.9090 N   0  0  0  0  0  0  0  0  0  0  0  0
   25.0883  -19.0052  -13.8924 C   0  0  0  0  0  0  0  0  0  0  0  0
   25.3702  -18.0317  -13.1107 O   0  0  0  0  0  0  0  0  0  0  0  0
   24.4997  -21.6273  -11.3925 C   0  0  0  0  0  0  0  0  0  0  0  0
   25.3312  -20.4742  -11.8976 C   0  0  2  0  0  0  0  0  0  0  0  0
   25.0319  -20.2959  -13.3043 N   0  0  0  0  0  0  0  0  0  0  0  0
   26.7778  -20.7063  -11.7369 C   0  0  0  0  0  0  0  0  0  0  0  0
   27.4429  -21.2136  -12.6743 O   0  0  0  0  0  0  0  0  0  0  0  0
   27.4954  -20.3849  -10.5552 N   0  0  0  0  0  0  0  0  0  0  0  0
   28.9172  -20.6393  -10.4502 C   0  0  1  0  0  0  0  0  0  0  0  0
   29.4020  -19.7472   -9.2977 C   0  0  0  0  0  0  0  0  0  0  0  0
   28.4386  -19.9380   -8.1827 C   0  0  0  0  0  0  0  0  0  0  0  0
   27.0879  -20.2587   -8.2673 C   0  0  0  0  0  0  0  0  0  0  0  0
   26.5939  -20.3315   -7.0234 N   0  0  0  0  0  0  0  0  0  0  0  0
   27.5425  -20.0761   -6.0949 C   0  0  0  0  0  0  0  0  0  0  0  0
   27.5285  -20.0318   -4.7110 C   0  0  0  0  0  0  0  0  0  0  0  0
   28.6809  -19.7372   -4.0174 C   0  0  0  0  0  0  0  0  0  0  0  0
   29.8299  -19.4921   -4.7381 C   0  0  0  0  0  0  0  0  0  0  0  0
   29.8415  -19.5369   -6.1189 C   0  0  0  0  0  0  0  0  0  0  0  0
   28.6906  -19.8315   -6.8250 C   0  0  0  0  0  0  0  0  0  0  0  0
   29.2109  -22.0531  -10.1553 C   0  0  0  0  0  0  0  0  0  0  0  0
   30.5215  -22.5014  -10.1855 O   0  0  0  0  0  0  0  0  0  0  0  0
   28.3022  -22.8711   -9.8752 O   0  0  0  0  0  0  0  0  0  0  0  0
  2  3  2  0
  2  1  1  0
  4  2  1  0
  5  6  1  0
  5  4  1  0
  6  7  1  1
  8 12  1  0
  8  6  1  0
  9  8  2  0
 11 10  1  6
 11 13  1  0
 11 12  1  0
 13 14  2  0
 15 16  1  0
 15 13  1  0
 16 17  1  1
 18 17  1  0
 19 18  2  0
 20 19  1  0
 21 20  1  0
 21 26  2  0
 22 23  2  0
 22 21  1  0
 23 24  1  0
 24 25  2  0
 26 25  1  0
 26 18  1  0
 27 16  1  0
 27 28  1  0
 29 27  2  0
M  END
$$$$
