QAW.pdb
     RDKit          3D

 29 30  0  0  1  0  0  0  0  0999 V2000
   31.1338  -24.2163  -14.5443 N   0  0  0  0  0  0  0  0  0  0  0  0
   30.9504  -23.9335  -15.9071 C   0  0  0  0  0  0  0  0  0  0  0  0
   31.7216  -24.4587  -16.7504 O   0  0  0  0  0  0  0  0  0  0  0  0
   29.8810  -23.0454  -16.4049 C   0  0  0  0  0  0  0  0  0  0  0  0
   29.0153  -22.4535  -15.3364 C   0  0  0  0  0  0  0  0  0  0  0  0
   27.8509  -21.6723  -15.8153 C   0  0  2  0  0  0  0  0  0  0  0  0
   28.2995  -20.7875  -16.9255 N   0  0  0  0  0  0  0  0  0  0  0  0
   27.1226  -20.8607  -14.8492 C   0  0  0  0  0  0  0  0  0  0  0  0
   27.6900  -19.9209  -14.1910 O   0  0  0  0  0  0  0  0  0  0  0  0
   23.6328  -20.0863  -14.0599 C   0  0  0  0  0  0  0  0  0  0  0  0
   25.0537  -20.2815  -13.5920 C   0  0  2  0  0  0  0  0  0  0  0  0
   25.7432  -21.0738  -14.5905 N   0  0  0  0  0  0  0  0  0  0  0  0
   25.1318  -20.9693  -12.2909 C   0  0  0  0  0  0  0  0  0  0  0  0
   25.0397  -22.2210  -12.2329 O   0  0  0  0  0  0  0  0  0  0  0  0
   25.3101  -20.2913  -11.0566 N   0  0  0  0  0  0  0  0  0  0  0  0
   24.9580  -20.9190   -9.8000 C   0  0  1  0  0  0  0  0  0  0  0  0
   25.6088  -20.0454   -8.7172 C   0  0  0  0  0  0  0  0  0  0  0  0
   27.0220  -20.4913   -8.6085 C   0  0  0  0  0  0  0  0  0  0  0  0
   27.7403  -21.2768   -9.5037 C   0  0  0  0  0  0  0  0  0  0  0  0
   28.9788  -21.4423   -9.0185 N   0  0  0  0  0  0  0  0  0  0  0  0
   29.1395  -20.8075   -7.8360 C   0  0  0  0  0  0  0  0  0  0  0  0
   30.2072  -20.6830   -6.9630 C   0  0  0  0  0  0  0  0  0  0  0  0
   30.0702  -19.9530   -5.8036 C   0  0  0  0  0  0  0  0  0  0  0  0
   28.8524  -19.3605   -5.5474 C   0  0  0  0  0  0  0  0  0  0  0  0
   27.7886  -19.4861   -6.4198 C   0  0  0  0  0  0  0  0  0  0  0  0
   27.9151  -20.2165   -7.5862 C   0  0  0  0  0  0  0  0  0  0  0  0
   23.4997  -20.9785   -9.5950 C   0  0  0  0  0  0  0  0  0  0  0  0
   22.9711  -21.8874   -8.6928 O   0  0  0  0  0  0  0  0  0  0  0  0
   22.7147  -20.2245  -10.2182 O   0  0  0  0  0  0  0  0  0  0  0  0
  2  3  2  0
  2  1  1  0
  4  2  1  0
  5  6  1  0
  5  4  1  0
  6  7  1  6
  8 12  1  0
  8  6  1  0
  9  8  2  0
 11 10  1  6
 11 13  1  0
 11 12  1  0
 13 14  2  0
 15 16  1  0
 15 13  1  0
 16 17  1  1
 18 17  1  0
 19 18  2  0
 20 19  1  0
 21 20  1  0
 21 26  2  0
 22 23  2  0
 22 21  1  0
 23 24  1  0
 24 25  2  0
 26 25  1  0
 26 18  1  0
 27 16  1  0
 27 28  1  0
 29 27  2  0
M  END
$$$$
