QAW.pdb
     RDKit          3D

 29 30  0  0  1  0  0  0  0  0999 V2000
   31.6334  -21.1231  -19.7565 N   0  0  0  0  0  0  0  0  0  0  0  0
   30.9216  -22.3000  -20.0377 C   0  0  0  0  0  0  0  0  0  0  0  0
   30.6408  -22.5749  -21.2324 O   0  0  0  0  0  0  0  0  0  0  0  0
   30.4873  -23.2443  -18.9889 C   0  0  0  0  0  0  0  0  0  0  0  0
   30.2838  -22.6268  -17.6403 C   0  0  0  0  0  0  0  0  0  0  0  0
   28.8997  -22.1943  -17.3363 C   0  0  2  0  0  0  0  0  0  0  0  0
   28.4758  -21.2067  -18.3668 N   0  0  0  0  0  0  0  0  0  0  0  0
   28.6288  -21.6283  -16.0215 C   0  0  0  0  0  0  0  0  0  0  0  0
   28.9060  -22.2597  -14.9432 O   0  0  0  0  0  0  0  0  0  0  0  0
   27.5096  -18.3126  -14.7325 C   0  0  0  0  0  0  0  0  0  0  0  0
   27.8645  -19.7681  -14.5546 C   0  0  2  0  0  0  0  0  0  0  0  0
   28.0423  -20.3443  -15.8723 N   0  0  0  0  0  0  0  0  0  0  0  0
   26.8220  -20.5211  -13.8346 C   0  0  0  0  0  0  0  0  0  0  0  0
   25.8610  -21.0280  -14.4655 O   0  0  0  0  0  0  0  0  0  0  0  0
   26.8295  -20.7195  -12.4291 N   0  0  0  0  0  0  0  0  0  0  0  0
   25.7992  -21.5014  -11.7778 C   0  0  1  0  0  0  0  0  0  0  0  0
   26.4751  -22.1051  -10.5377 C   0  0  0  0  0  0  0  0  0  0  0  0
   26.4722  -21.0443   -9.4973 C   0  0  0  0  0  0  0  0  0  0  0  0
   25.4506  -20.1513   -9.1919 C   0  0  0  0  0  0  0  0  0  0  0  0
   25.8659  -19.3632   -8.1904 N   0  0  0  0  0  0  0  0  0  0  0  0
   27.1212  -19.6759   -7.7982 C   0  0  0  0  0  0  0  0  0  0  0  0
   27.9672  -19.1657   -6.8279 C   0  0  0  0  0  0  0  0  0  0  0  0
   29.2230  -19.7030   -6.6543 C   0  0  0  0  0  0  0  0  0  0  0  0
   29.6014  -20.7496   -7.4674 C   0  0  0  0  0  0  0  0  0  0  0  0
   28.7556  -21.2570   -8.4348 C   0  0  0  0  0  0  0  0  0  0  0  0
   27.4932  -20.7252   -8.6176 C   0  0  0  0  0  0  0  0  0  0  0  0
   24.6443  -20.6787  -11.3761 C   0  0  0  0  0  0  0  0  0  0  0  0
   23.4381  -21.2908  -11.0764 O   0  0  0  0  0  0  0  0  0  0  0  0
   24.7204  -19.4292  -11.2963 O   0  0  0  0  0  0  0  0  0  0  0  0
  2  3  2  0
  2  1  1  0
  4  2  1  0
  5  6  1  0
  5  4  1  0
  6  7  1  6
  8 12  1  0
  8  6  1  0
  9  8  2  0
 11 10  1  6
 11 13  1  0
 11 12  1  0
 13 14  2  0
 15 16  1  0
 15 13  1  0
 16 17  1  1
 18 17  1  0
 19 18  2  0
 20 19  1  0
 21 20  1  0
 21 26  2  0
 22 23  2  0
 22 21  1  0
 23 24  1  0
 24 25  2  0
 26 25  1  0
 26 18  1  0
 27 16  1  0
 27 28  1  0
 29 27  2  0
M  END
$$$$
