QAW.pdb
     RDKit          3D

 29 30  0  0  1  0  0  0  0  0999 V2000
   31.3383  -18.6786  -17.6882 N   0  0  0  0  0  0  0  0  0  0  0  0
   30.3247  -18.5313  -18.6483 C   0  0  0  0  0  0  0  0  0  0  0  0
   30.5945  -18.7357  -19.8596 O   0  0  0  0  0  0  0  0  0  0  0  0
   28.9409  -18.1505  -18.3014 C   0  0  0  0  0  0  0  0  0  0  0  0
   28.7685  -17.6318  -16.9075 C   0  0  0  0  0  0  0  0  0  0  0  0
   28.6527  -18.6633  -15.8502 C   0  0  2  0  0  0  0  0  0  0  0  0
   28.4307  -19.9841  -16.5005 N   0  0  0  0  0  0  0  0  0  0  0  0
   27.6368  -18.4831  -14.8217 C   0  0  0  0  0  0  0  0  0  0  0  0
   27.5232  -17.3888  -14.1675 O   0  0  0  0  0  0  0  0  0  0  0  0
   24.3708  -19.6649  -14.0835 C   0  0  0  0  0  0  0  0  0  0  0  0
   25.7060  -19.3031  -13.4815 C   0  0  2  0  0  0  0  0  0  0  0  0
   26.7202  -19.5165  -14.4943 N   0  0  0  0  0  0  0  0  0  0  0  0
   26.0303  -20.1142  -12.2944 C   0  0  0  0  0  0  0  0  0  0  0  0
   26.9604  -20.9574  -12.3419 O   0  0  0  0  0  0  0  0  0  0  0  0
   25.3400  -20.0041  -11.0590 N   0  0  0  0  0  0  0  0  0  0  0  0
   25.7997  -20.7071   -9.8794 C   0  0  1  0  0  0  0  0  0  0  0  0
   27.0147  -19.9094   -9.3828 C   0  0  0  0  0  0  0  0  0  0  0  0
   27.4804  -20.5795   -8.1411 C   0  0  0  0  0  0  0  0  0  0  0  0
   27.5987  -21.9443   -7.9009 C   0  0  0  0  0  0  0  0  0  0  0  0
   28.0525  -22.1137   -6.6510 N   0  0  0  0  0  0  0  0  0  0  0  0
   28.2493  -20.9305   -6.0277 C   0  0  0  0  0  0  0  0  0  0  0  0
   28.6969  -20.5867   -4.7633 C   0  0  0  0  0  0  0  0  0  0  0  0
   28.7966  -19.2618   -4.4022 C   0  0  0  0  0  0  0  0  0  0  0  0
   28.4408  -18.3058   -5.3291 C   0  0  0  0  0  0  0  0  0  0  0  0
   27.9943  -18.6512   -6.5901 C   0  0  0  0  0  0  0  0  0  0  0  0
   27.8904  -19.9778   -6.9629 C   0  0  0  0  0  0  0  0  0  0  0  0
   24.7684  -20.7674   -8.8282 C   0  0  0  0  0  0  0  0  0  0  0  0
   24.7487  -21.8373   -7.9481 O   0  0  0  0  0  0  0  0  0  0  0  0
   23.8996  -19.8713   -8.7044 O   0  0  0  0  0  0  0  0  0  0  0  0
  2  3  2  0
  2  1  1  0
  4  2  1  0
  5  6  1  0
  5  4  1  0
  6  7  1  6
  8 12  1  0
  8  6  1  0
  9  8  2  0
 11 10  1  6
 11 13  1  0
 11 12  1  0
 13 14  2  0
 15 16  1  0
 15 13  1  0
 16 17  1  1
 18 17  1  0
 19 18  2  0
 20 19  1  0
 21 20  1  0
 21 26  2  0
 22 23  2  0
 22 21  1  0
 23 24  1  0
 24 25  2  0
 26 25  1  0
 26 18  1  0
 27 16  1  0
 27 28  1  0
 29 27  2  0
M  END
$$$$
