QAW.pdb
     RDKit          3D

 29 30  0  0  1  0  0  0  0  0999 V2000
   27.2416  -17.0961  -16.2906 N   0  0  0  0  0  0  0  0  0  0  0  0
   27.4035  -18.3430  -16.9151 C   0  0  0  0  0  0  0  0  0  0  0  0
   26.9088  -18.5245  -18.0570 O   0  0  0  0  0  0  0  0  0  0  0  0
   28.1395  -19.4617  -16.2930 C   0  0  0  0  0  0  0  0  0  0  0  0
   28.7612  -19.1391  -14.9699 C   0  0  0  0  0  0  0  0  0  0  0  0
   28.4430  -20.0763  -13.8673 C   0  0  2  0  0  0  0  0  0  0  0  0
   27.9991  -21.3686  -14.4585 N   0  0  0  0  0  0  0  0  0  0  0  0
   27.4576  -19.6639  -12.8766 C   0  0  0  0  0  0  0  0  0  0  0  0
   27.5667  -18.5639  -12.2314 O   0  0  0  0  0  0  0  0  0  0  0  0
   23.9667  -20.2233  -12.2733 C   0  0  0  0  0  0  0  0  0  0  0  0
   25.3196  -19.9956  -11.6457 C   0  0  2  0  0  0  0  0  0  0  0  0
   26.3245  -20.4652  -12.5783 N   0  0  0  0  0  0  0  0  0  0  0  0
   25.4772  -20.7092  -10.3657 C   0  0  0  0  0  0  0  0  0  0  0  0
   25.9849  -21.8581  -10.3428 O   0  0  0  0  0  0  0  0  0  0  0  0
   25.0810  -20.1686   -9.1145 N   0  0  0  0  0  0  0  0  0  0  0  0
   25.0921  -20.9765   -7.9127 C   0  0  1  0  0  0  0  0  0  0  0  0
   25.3371  -19.9866   -6.7641 C   0  0  0  0  0  0  0  0  0  0  0  0
   26.7950  -19.6999   -6.7583 C   0  0  0  0  0  0  0  0  0  0  0  0
   27.5501  -19.0967   -7.7585 C   0  0  0  0  0  0  0  0  0  0  0  0
   28.8236  -19.0349   -7.3449 N   0  0  0  0  0  0  0  0  0  0  0  0
   28.9732  -19.5667   -6.1112 C   0  0  0  0  0  0  0  0  0  0  0  0
   30.0644  -19.7325   -5.2750 C   0  0  0  0  0  0  0  0  0  0  0  0
   29.9061  -20.3238   -4.0416 C   0  0  0  0  0  0  0  0  0  0  0  0
   28.6436  -20.7381   -3.6754 C   0  0  0  0  0  0  0  0  0  0  0  0
   27.5564  -20.5718   -4.5115 C   0  0  0  0  0  0  0  0  0  0  0  0
   27.7039  -19.9795   -5.7513 C   0  0  0  0  0  0  0  0  0  0  0  0
   23.8177  -21.6875   -7.7063 C   0  0  0  0  0  0  0  0  0  0  0  0
   23.6924  -22.5775   -6.6519 O   0  0  0  0  0  0  0  0  0  0  0  0
   22.8333  -21.5101   -8.4632 O   0  0  0  0  0  0  0  0  0  0  0  0
  2  3  2  0
  2  1  1  0
  4  2  1  0
  5  6  1  0
  5  4  1  0
  6  7  1  6
  8 12  1  0
  8  6  1  0
  9  8  2  0
 11 10  1  6
 11 13  1  0
 11 12  1  0
 13 14  2  0
 15 16  1  0
 15 13  1  0
 16 17  1  1
 18 17  1  0
 19 18  2  0
 20 19  1  0
 21 20  1  0
 21 26  2  0
 22 23  2  0
 22 21  1  0
 23 24  1  0
 24 25  2  0
 26 25  1  0
 26 18  1  0
 27 16  1  0
 27 28  1  0
 29 27  2  0
M  END
$$$$
