PLN.pdb
     RDKit          3D

 24 24  0  0  1  0  0  0  0  0999 V2000
   22.2408  -11.4910  -19.4204 N   0  0  0  0  0  0  0  0  0  0  0  0
   22.7176  -12.6641  -20.1041 C   0  0  0  0  0  0  0  0  0  0  0  0
   21.7463  -13.7793  -19.8155 C   0  0  0  0  0  0  0  0  0  0  0  0
   21.0898  -13.3690  -18.5186 C   0  0  0  0  0  0  0  0  0  0  0  0
   21.2524  -11.8719  -18.4701 C   0  0  1  0  0  0  0  0  0  0  0  0
   21.5941  -11.3625  -17.1193 C   0  0  0  0  0  0  0  0  0  0  0  0
   20.7610  -11.5298  -16.1710 O   0  0  0  0  0  0  0  0  0  0  0  0
   26.7811  -11.5287  -15.6265 C   0  0  0  0  0  0  0  0  0  0  0  0
   25.2842  -11.5205  -15.7796 C   0  0  1  0  0  0  0  0  0  0  0  0
   24.7830  -12.7288  -14.9712 C   0  0  0  0  0  0  0  0  0  0  0  0
   24.5939  -10.3245  -15.2193 C   0  0  0  0  0  0  0  0  0  0  0  0
   23.1409  -10.1912  -15.4998 C   0  0  2  0  0  0  0  0  0  0  0  0
   22.7853  -10.6997  -16.8019 N   0  0  0  0  0  0  0  0  0  0  0  0
   22.6758   -8.8198  -15.2312 C   0  0  0  0  0  0  0  0  0  0  0  0
   22.7708   -8.3775  -14.0646 O   0  0  0  0  0  0  0  0  0  0  0  0
   20.6128   -4.0861  -15.5492 N   0  0  0  0  0  0  0  0  0  0  0  0
   21.0765   -4.4178  -16.8529 C   0  0  0  0  0  0  0  0  0  0  0  0
   21.0324   -3.5532  -17.7425 O   0  0  0  0  0  0  0  0  0  0  0  0
   21.6171   -5.7661  -17.2030 C   0  0  0  0  0  0  0  0  0  0  0  0
   21.5814   -6.6521  -15.9730 C   0  0  2  0  0  0  0  0  0  0  0  0
   22.1166   -7.9602  -16.2344 N   0  0  0  0  0  0  0  0  0  0  0  0
   20.1474   -6.7957  -15.5962 C   0  0  0  0  0  0  0  0  0  0  0  0
   19.4664   -7.7836  -15.9835 O   0  0  0  0  0  0  0  0  0  0  0  0
   19.4882   -5.8627  -14.8081 O   0  0  0  0  0  0  0  0  0  0  0  0
  2  1  1  0
  3  2  1  0
  4  3  1  0
  4  5  1  0
  5  6  1  1
  5  1  1  0
  6  7  2  0
  9  8  1  1
  9 10  1  0
 11  9  1  0
 12 11  1  6
 13 12  1  0
 13  6  1  0
 14 15  2  0
 14 12  1  0
 16 17  1  0
 17 19  1  0
 17 18  2  0
 20 19  1  6
 20 21  1  0
 21 14  1  0
 22 20  1  0
 22 24  1  0
 23 22  2  0
M  END
$$$$
