PLN.pdb
     RDKit          3D

 24 24  0  0  1  0  0  0  0  0999 V2000
   26.7190  -18.6666  -15.8710 N   0  0  0  0  0  0  0  0  0  0  0  0
   27.9945  -18.0645  -15.5855 C   0  0  0  0  0  0  0  0  0  0  0  0
   29.0527  -19.1038  -15.8519 C   0  0  0  0  0  0  0  0  0  0  0  0
   28.3224  -20.4179  -15.7066 C   0  0  0  0  0  0  0  0  0  0  0  0
   26.8775  -20.0777  -15.9647 C   0  0  1  0  0  0  0  0  0  0  0  0
   25.9386  -20.7765  -15.0532 C   0  0  0  0  0  0  0  0  0  0  0  0
   25.7589  -22.0286  -15.1987 O   0  0  0  0  0  0  0  0  0  0  0  0
   25.9399  -20.2407   -9.7167 C   0  0  0  0  0  0  0  0  0  0  0  0
   25.7562  -20.7352  -11.1260 C   0  0  1  0  0  0  0  0  0  0  0  0
   25.8474  -22.2677  -11.0378 C   0  0  0  0  0  0  0  0  0  0  0  0
   24.4341  -20.4275  -11.7409 C   0  0  0  0  0  0  0  0  0  0  0  0
   24.2533  -20.7926  -13.1698 C   0  0  2  0  0  0  0  0  0  0  0  0
   25.2218  -20.1523  -14.0257 N   0  0  0  0  0  0  0  0  0  0  0  0
   22.8529  -20.6099  -13.5876 C   0  0  0  0  0  0  0  0  0  0  0  0
   22.3200  -19.4920  -13.4085 O   0  0  0  0  0  0  0  0  0  0  0  0
   18.7155  -21.1879  -17.1945 N   0  0  0  0  0  0  0  0  0  0  0  0
   18.9847  -22.2110  -16.2430 C   0  0  0  0  0  0  0  0  0  0  0  0
   18.0419  -22.8983  -15.8192 O   0  0  0  0  0  0  0  0  0  0  0  0
   20.3573  -22.4984  -15.7273 C   0  0  0  0  0  0  0  0  0  0  0  0
   20.7280  -21.4569  -14.6894 C   0  0  2  0  0  0  0  0  0  0  0  0
   22.0621  -21.6449  -14.1887 N   0  0  0  0  0  0  0  0  0  0  0  0
   19.7718  -21.6259  -13.5598 C   0  0  0  0  0  0  0  0  0  0  0  0
   18.6142  -21.1281  -13.6043 O   0  0  0  0  0  0  0  0  0  0  0  0
   20.0964  -22.3315  -12.4096 O   0  0  0  0  0  0  0  0  0  0  0  0
  2  1  1  0
  3  2  1  0
  4  3  1  0
  4  5  1  0
  5  6  1  1
  5  1  1  0
  6  7  2  0
  9  8  1  1
  9 10  1  0
 11  9  1  0
 12 11  1  1
 13 12  1  0
 13  6  1  0
 14 15  2  0
 14 12  1  0
 16 17  1  0
 17 19  1  0
 17 18  2  0
 20 19  1  6
 20 21  1  0
 21 14  1  0
 22 20  1  0
 22 24  1  0
 23 22  2  0
M  END
$$$$
