PLN.pdb
     RDKit          3D

 24 24  0  0  1  0  0  0  0  0999 V2000
   26.7968  -19.3630  -13.1128 N   0  0  0  0  0  0  0  0  0  0  0  0
   27.6857  -18.4838  -13.8253 C   0  0  0  0  0  0  0  0  0  0  0  0
   28.7096  -19.3444  -14.5193 C   0  0  0  0  0  0  0  0  0  0  0  0
   28.7283  -20.6192  -13.7094 C   0  0  0  0  0  0  0  0  0  0  0  0
   27.3817  -20.6579  -13.0346 C   0  0  1  0  0  0  0  0  0  0  0  0
   27.4438  -21.1255  -11.6281 C   0  0  0  0  0  0  0  0  0  0  0  0
   27.9015  -22.2891  -11.3874 O   0  0  0  0  0  0  0  0  0  0  0  0
   27.8535  -18.4318   -6.9105 C   0  0  0  0  0  0  0  0  0  0  0  0
   27.7691  -19.4532   -8.0123 C   0  0  1  0  0  0  0  0  0  0  0  0
   28.7436  -20.5723   -7.6091 C   0  0  0  0  0  0  0  0  0  0  0  0
   26.4361  -20.0975   -8.1817 C   0  0  0  0  0  0  0  0  0  0  0  0
   26.2057  -20.8497   -9.4421 C   0  0  2  0  0  0  0  0  0  0  0  0
   27.0299  -20.3706  -10.5246 N   0  0  0  0  0  0  0  0  0  0  0  0
   24.7686  -20.9259   -9.7555 C   0  0  0  0  0  0  0  0  0  0  0  0
   23.9804  -21.2779   -8.8497 O   0  0  0  0  0  0  0  0  0  0  0  0
   20.1237  -20.6788  -12.0248 N   0  0  0  0  0  0  0  0  0  0  0  0
   20.8542  -19.4727  -12.2155 C   0  0  0  0  0  0  0  0  0  0  0  0
   20.2652  -18.4820  -12.6765 O   0  0  0  0  0  0  0  0  0  0  0  0
   22.3054  -19.3422  -11.8846 C   0  0  0  0  0  0  0  0  0  0  0  0
   22.8186  -20.6697  -11.3612 C   0  0  2  0  0  0  0  0  0  0  0  0
   24.2199  -20.6199  -11.0451 N   0  0  0  0  0  0  0  0  0  0  0  0
   22.6162  -21.6620  -12.4535 C   0  0  0  0  0  0  0  0  0  0  0  0
   21.4616  -21.9410  -12.8766 O   0  0  0  0  0  0  0  0  0  0  0  0
   23.6728  -22.3272  -13.0596 O   0  0  0  0  0  0  0  0  0  0  0  0
  2  1  1  0
  3  2  1  0
  4  3  1  0
  4  5  1  0
  5  6  1  1
  5  1  1  0
  6  7  2  0
  9  8  1  1
  9 10  1  0
 11  9  1  0
 12 11  1  1
 13 12  1  0
 13  6  1  0
 14 15  2  0
 14 12  1  0
 16 17  1  0
 17 19  1  0
 17 18  2  0
 20 19  1  6
 20 21  1  0
 21 14  1  0
 22 20  1  0
 22 24  1  0
 23 22  2  0
M  END
$$$$
