PLN.pdb
     RDKit          3D

 24 24  0  0  1  0  0  0  0  0999 V2000
   17.6980   -4.5692  -15.8483 N   0  0  0  0  0  0  0  0  0  0  0  0
   17.7886   -3.2231  -15.3477 C   0  0  0  0  0  0  0  0  0  0  0  0
   18.5577   -2.4165  -16.3618 C   0  0  0  0  0  0  0  0  0  0  0  0
   19.3784   -3.4446  -17.1038 C   0  0  0  0  0  0  0  0  0  0  0  0
   18.6276   -4.7368  -16.9126 C   0  0  1  0  0  0  0  0  0  0  0  0
   19.5148   -5.8990  -16.6612 C   0  0  0  0  0  0  0  0  0  0  0  0
   20.3506   -6.2392  -17.5595 O   0  0  0  0  0  0  0  0  0  0  0  0
   21.4290   -6.5274  -11.7597 C   0  0  0  0  0  0  0  0  0  0  0  0
   21.0158   -6.4793  -13.2058 C   0  0  1  0  0  0  0  0  0  0  0  0
   22.1194   -5.6824  -13.9211 C   0  0  0  0  0  0  0  0  0  0  0  0
   20.9407   -7.8009  -13.8903 C   0  0  0  0  0  0  0  0  0  0  0  0
   20.3179   -7.8276  -15.2390 C   0  0  2  0  0  0  0  0  0  0  0  0
   19.5029   -6.6642  -15.4894 N   0  0  0  0  0  0  0  0  0  0  0  0
   19.6401   -9.1125  -15.4813 C   0  0  0  0  0  0  0  0  0  0  0  0
   20.3116  -10.1647  -15.3942 O   0  0  0  0  0  0  0  0  0  0  0  0
   16.1712  -12.8374  -16.4319 N   0  0  0  0  0  0  0  0  0  0  0  0
   16.0349  -12.1768  -15.1790 C   0  0  0  0  0  0  0  0  0  0  0  0
   15.3156  -12.6892  -14.3066 O   0  0  0  0  0  0  0  0  0  0  0  0
   16.7213  -10.8879  -14.8625 C   0  0  0  0  0  0  0  0  0  0  0  0
   17.5718  -10.4722  -16.0472 C   0  0  2  0  0  0  0  0  0  0  0  0
   18.2493   -9.2261  -15.8143 N   0  0  0  0  0  0  0  0  0  0  0  0
   16.6400  -10.2952  -17.1958 C   0  0  0  0  0  0  0  0  0  0  0  0
   15.9222  -11.2469  -17.6068 O   0  0  0  0  0  0  0  0  0  0  0  0
   16.5106   -9.0890  -17.8698 O   0  0  0  0  0  0  0  0  0  0  0  0
  2  1  1  0
  3  2  1  0
  4  3  1  0
  4  5  1  0
  5  6  1  1
  5  1  1  0
  6  7  2  0
  9  8  1  1
  9 10  1  0
 11  9  1  0
 12 11  1  1
 13 12  1  0
 13  6  1  0
 14 15  2  0
 14 12  1  0
 16 17  1  0
 17 19  1  0
 17 18  2  0
 20 19  1  1
 20 21  1  0
 21 14  1  0
 22 20  1  0
 22 24  1  0
 23 22  2  0
M  END
$$$$
