PLN.pdb
     RDKit          3D

 24 24  0  0  1  0  0  0  0  0999 V2000
   28.3094  -19.8748  -12.5231 N   0  0  0  0  0  0  0  0  0  0  0  0
   29.7167  -19.5840  -12.5983 C   0  0  0  0  0  0  0  0  0  0  0  0
   30.4310  -20.8826  -12.8703 C   0  0  0  0  0  0  0  0  0  0  0  0
   29.4823  -21.9391  -12.3553 C   0  0  0  0  0  0  0  0  0  0  0  0
   28.1279  -21.2800  -12.3904 C   0  0  1  0  0  0  0  0  0  0  0  0
   27.2913  -21.5952  -11.2066 C   0  0  0  0  0  0  0  0  0  0  0  0
   26.9316  -22.8011  -11.0123 O   0  0  0  0  0  0  0  0  0  0  0  0
   27.6868  -18.4911   -6.8371 C   0  0  0  0  0  0  0  0  0  0  0  0
   27.5410  -19.6034   -7.8399 C   0  0  1  0  0  0  0  0  0  0  0  0
   28.4003  -20.7582   -7.2988 C   0  0  0  0  0  0  0  0  0  0  0  0
   26.1607  -20.1434   -7.9949 C   0  0  0  0  0  0  0  0  0  0  0  0
   25.8588  -20.8721   -9.2540 C   0  0  2  0  0  0  0  0  0  0  0  0
   26.8594  -20.6501  -10.2690 N   0  0  0  0  0  0  0  0  0  0  0  0
   24.4762  -20.6166   -9.6924 C   0  0  0  0  0  0  0  0  0  0  0  0
   23.5524  -20.7610   -8.8609 O   0  0  0  0  0  0  0  0  0  0  0  0
   20.6379  -17.7986  -12.8615 N   0  0  0  0  0  0  0  0  0  0  0  0
   21.3245  -19.0010  -13.1895 C   0  0  0  0  0  0  0  0  0  0  0  0
   20.7209  -19.8823  -13.8218 O   0  0  0  0  0  0  0  0  0  0  0  0
   22.7464  -19.2536  -12.8061 C   0  0  0  0  0  0  0  0  0  0  0  0
   22.7827  -19.9707  -11.4705 C   0  0  2  0  0  0  0  0  0  0  0  0
   24.1274  -20.2119  -11.0238 N   0  0  0  0  0  0  0  0  0  0  0  0
   22.1113  -21.2843  -11.6771 C   0  0  0  0  0  0  0  0  0  0  0  0
   22.7149  -22.2473  -12.2231 O   0  0  0  0  0  0  0  0  0  0  0  0
   20.8008  -21.5197  -11.2855 O   0  0  0  0  0  0  0  0  0  0  0  0
  2  1  1  0
  3  2  1  0
  4  3  1  0
  4  5  1  0
  5  6  1  1
  5  1  1  0
  6  7  2  0
  9  8  1  1
  9 10  1  0
 11  9  1  0
 12 11  1  1
 13 12  1  0
 13  6  1  0
 14 15  2  0
 14 12  1  0
 16 17  1  0
 17 19  1  0
 17 18  2  0
 20 19  1  6
 20 21  1  0
 21 14  1  0
 22 20  1  0
 22 24  1  0
 23 22  2  0
M  END
$$$$
