PLN.pdb
     RDKit          3D

 24 24  0  0  1  0  0  0  0  0999 V2000
   26.6347  -18.9512  -14.5146 N   0  0  0  0  0  0  0  0  0  0  0  0
   27.9628  -18.4095  -14.3973 C   0  0  0  0  0  0  0  0  0  0  0  0
   28.9193  -19.4420  -14.9352 C   0  0  0  0  0  0  0  0  0  0  0  0
   28.1728  -20.7468  -14.7888 C   0  0  0  0  0  0  0  0  0  0  0  0
   26.7196  -20.3497  -14.7635 C   0  0  1  0  0  0  0  0  0  0  0  0
   25.9204  -21.1122  -13.7731 C   0  0  0  0  0  0  0  0  0  0  0  0
   25.6796  -22.3427  -13.9948 O   0  0  0  0  0  0  0  0  0  0  0  0
   26.2796  -19.3133   -8.9903 C   0  0  0  0  0  0  0  0  0  0  0  0
   26.2687  -20.4145  -10.0158 C   0  0  1  0  0  0  0  0  0  0  0  0
   27.1825  -21.5129   -9.4474 C   0  0  0  0  0  0  0  0  0  0  0  0
   24.9421  -21.0514  -10.2512 C   0  0  0  0  0  0  0  0  0  0  0  0
   24.5342  -21.2577  -11.6649 C   0  0  2  0  0  0  0  0  0  0  0  0
   25.4013  -20.5715  -12.5911 N   0  0  0  0  0  0  0  0  0  0  0  0
   23.1001  -20.9754  -11.8464 C   0  0  0  0  0  0  0  0  0  0  0  0
   22.5196  -20.2718  -10.9898 O   0  0  0  0  0  0  0  0  0  0  0  0
   19.6008  -19.1822  -15.2075 N   0  0  0  0  0  0  0  0  0  0  0  0
   20.9675  -18.7866  -15.1859 C   0  0  0  0  0  0  0  0  0  0  0  0
   21.3130  -17.7893  -15.8392 O   0  0  0  0  0  0  0  0  0  0  0  0
   22.0120  -19.5199  -14.4089 C   0  0  0  0  0  0  0  0  0  0  0  0
   21.3661  -20.6806  -13.6775 C   0  0  2  0  0  0  0  0  0  0  0  0
   22.3284  -21.4643  -12.9524 N   0  0  0  0  0  0  0  0  0  0  0  0
   20.7435  -21.5438  -14.7196 C   0  0  0  0  0  0  0  0  0  0  0  0
   21.4422  -22.3155  -15.4310 O   0  0  0  0  0  0  0  0  0  0  0  0
   19.3773  -21.5476  -14.9637 O   0  0  0  0  0  0  0  0  0  0  0  0
  2  1  1  0
  3  2  1  0
  4  3  1  0
  4  5  1  0
  5  6  1  1
  5  1  1  0
  6  7  2  0
  9  8  1  1
  9 10  1  0
 11  9  1  0
 12 11  1  1
 13 12  1  0
 13  6  1  0
 14 15  2  0
 14 12  1  0
 16 17  1  0
 17 19  1  0
 17 18  2  0
 20 19  1  6
 20 21  1  0
 21 14  1  0
 22 20  1  0
 22 24  1  0
 23 22  2  0
M  END
$$$$
