HHY.pdb
     RDKit          3D

 33 35  0  0  1  0  0  0  0  0999 V2000
   21.3521  -15.4585  -20.3501 N   0  0  0  0  0  0  0  0  0  0  0  0
   21.1901  -14.0261  -20.3704 C   0  0  1  0  0  0  0  0  0  0  0  0
   19.6872  -13.7363  -20.2616 C   0  0  0  0  0  0  0  0  0  0  0  0
   18.9501  -14.2327  -21.4342 C   0  0  0  0  0  0  0  0  0  0  0  0
   18.1173  -15.3159  -21.4916 C   0  0  0  0  0  0  0  0  0  0  0  0
   17.6372  -15.4333  -22.7549 N   0  0  0  0  0  0  0  0  0  0  0  0
   18.1680  -14.4324  -23.4717 C   0  0  0  0  0  0  0  0  0  0  0  0
   18.9754  -13.6940  -22.6596 N   0  0  0  0  0  0  0  0  0  0  0  0
   21.8467  -13.4060  -19.2134 C   0  0  0  0  0  0  0  0  0  0  0  0
   21.6938  -13.8833  -18.0425 O   0  0  0  0  0  0  0  0  0  0  0  0
   22.6582  -12.2642  -19.4083 N   0  0  0  0  0  0  0  0  0  0  0  0
   23.3298  -11.6713  -18.2823 C   0  0  1  0  0  0  0  0  0  0  0  0
   24.8418  -11.7945  -18.4511 C   0  0  0  0  0  0  0  0  0  0  0  0
   25.5598  -11.1288  -17.3466 C   0  0  0  0  0  0  0  0  0  0  0  0
   26.1536  -11.7240  -16.2260 C   0  0  0  0  0  0  0  0  0  0  0  0
   26.7008  -10.7631  -15.4667 N   0  0  0  0  0  0  0  0  0  0  0  0
   26.4795   -9.5817  -16.0582 C   0  0  0  0  0  0  0  0  0  0  0  0
   25.7916   -9.8120  -17.1899 N   0  0  0  0  0  0  0  0  0  0  0  0
   22.9924  -10.2035  -18.2915 C   0  0  0  0  0  0  0  0  0  0  0  0
   22.9744   -9.5373  -19.3550 O   0  0  0  0  0  0  0  0  0  0  0  0
   19.0450   -8.8587  -11.8816 O   0  0  0  0  0  0  0  0  0  0  0  0
   19.5331   -8.6070  -13.1468 C   0  0  0  0  0  0  0  0  0  0  0  0
   19.3370   -9.5044  -14.1832 C   0  0  0  0  0  0  0  0  0  0  0  0
   19.8260   -9.2521  -15.4502 C   0  0  0  0  0  0  0  0  0  0  0  0
   20.5179   -8.0775  -15.6570 C   0  0  0  0  0  0  0  0  0  0  0  0
   21.0501   -7.8039  -17.0070 C   0  0  0  0  0  0  0  0  0  0  0  0
   22.5504   -8.0598  -17.1203 C   0  0  2  0  0  0  0  0  0  0  0  0
   22.6796   -9.5096  -17.0952 N   0  0  0  0  0  0  0  0  0  0  0  0
   23.3121   -7.4131  -16.0506 C   0  0  0  0  0  0  0  0  0  0  0  0
   23.9241   -8.0383  -15.1288 O   0  0  0  0  0  0  0  0  0  0  0  0
   20.7069   -7.1933  -14.6208 C   0  0  0  0  0  0  0  0  0  0  0  0
   20.2234   -7.4332  -13.3493 C   0  0  0  0  0  0  0  0  0  0  0  0
   23.3943   -6.0317  -16.0080 O   0  0  0  0  0  0  0  0  0  0  0  0
  2  1  1  1
  2  3  1  0
  3  4  1  0
  4  8  1  0
  5  6  1  0
  5  4  2  0
  6  7  1  0
  7  8  2  0
  9  2  1  0
  9 10  2  0
 11  9  1  0
 12 11  1  0
 12 13  1  6
 13 14  1  0
 14 15  2  0
 14 18  1  0
 15 16  1  0
 16 17  1  0
 18 17  2  0
 19 12  1  0
 20 19  2  0
 22 23  2  0
 22 21  1  0
 24 23  1  0
 25 24  2  0
 27 26  1  1
 26 25  1  0
 27 28  1  0
 28 19  1  0
 29 27  1  0
 29 33  1  0
 30 29  2  0
 31 25  1  0
 31 32  2  0
 32 22  1  0
M  END
$$$$
