HHY.pdb
     RDKit          3D

 33 35  0  0  1  0  0  0  0  0999 V2000
   23.6595  -15.6167  -20.6388 N   0  0  0  0  0  0  0  0  0  0  0  0
   23.6481  -15.3528  -19.2215 C   0  0  1  0  0  0  0  0  0  0  0  0
   22.3577  -14.5823  -18.9122 C   0  0  0  0  0  0  0  0  0  0  0  0
   22.4014  -13.2107  -19.4426 C   0  0  0  0  0  0  0  0  0  0  0  0
   23.1430  -12.1631  -18.9706 C   0  0  0  0  0  0  0  0  0  0  0  0
   22.8987  -11.0718  -19.7384 N   0  0  0  0  0  0  0  0  0  0  0  0
   22.0144  -11.4410  -20.6762 C   0  0  0  0  0  0  0  0  0  0  0  0
   21.7086  -12.7563  -20.4943 N   0  0  0  0  0  0  0  0  0  0  0  0
   23.6134  -16.6033  -18.4539 C   0  0  0  0  0  0  0  0  0  0  0  0
   22.9611  -17.6118  -18.8778 O   0  0  0  0  0  0  0  0  0  0  0  0
   24.3155  -16.6826  -17.2288 N   0  0  0  0  0  0  0  0  0  0  0  0
   24.3576  -17.9317  -16.5155 C   0  0  1  0  0  0  0  0  0  0  0  0
   25.7051  -18.0890  -15.8160 C   0  0  0  0  0  0  0  0  0  0  0  0
   26.7551  -18.5084  -16.7648 C   0  0  0  0  0  0  0  0  0  0  0  0
   26.6275  -18.7376  -18.1410 C   0  0  0  0  0  0  0  0  0  0  0  0
   27.8220  -19.1034  -18.6296 N   0  0  0  0  0  0  0  0  0  0  0  0
   28.7036  -19.1163  -17.6210 C   0  0  0  0  0  0  0  0  0  0  0  0
   28.0518  -18.7566  -16.5018 N   0  0  0  0  0  0  0  0  0  0  0  0
   23.2989  -17.8640  -15.4465 C   0  0  0  0  0  0  0  0  0  0  0  0
   23.1930  -16.8723  -14.6846 O   0  0  0  0  0  0  0  0  0  0  0  0
   15.6653  -16.4664  -12.3036 O   0  0  0  0  0  0  0  0  0  0  0  0
   16.8692  -16.7139  -12.9295 C   0  0  0  0  0  0  0  0  0  0  0  0
   18.0580  -16.2190  -12.4199 C   0  0  0  0  0  0  0  0  0  0  0  0
   19.2635  -16.4671  -13.0470 C   0  0  0  0  0  0  0  0  0  0  0  0
   19.2523  -17.2241  -14.1993 C   0  0  0  0  0  0  0  0  0  0  0  0
   20.5362  -17.4876  -14.8796 C   0  0  0  0  0  0  0  0  0  0  0  0
   21.2459  -18.7322  -14.3538 C   0  0  2  0  0  0  0  0  0  0  0  0
   22.3738  -18.9212  -15.2547 N   0  0  0  0  0  0  0  0  0  0  0  0
   20.3668  -19.9017  -14.3073 C   0  0  0  0  0  0  0  0  0  0  0  0
   19.6718  -20.2351  -13.2969 O   0  0  0  0  0  0  0  0  0  0  0  0
   18.0660  -17.7107  -14.6967 C   0  0  0  0  0  0  0  0  0  0  0  0
   16.8538  -17.4702  -14.0798 C   0  0  0  0  0  0  0  0  0  0  0  0
   20.2589  -20.7212  -15.4180 O   0  0  0  0  0  0  0  0  0  0  0  0
  2  1  1  6
  2  3  1  0
  3  4  1  0
  4  8  1  0
  5  6  1  0
  5  4  2  0
  6  7  1  0
  7  8  2  0
  9  2  1  0
  9 10  2  0
 11  9  1  0
 12 11  1  0
 12 13  1  1
 13 14  1  0
 14 15  2  0
 14 18  1  0
 15 16  1  0
 16 17  1  0
 18 17  2  0
 19 12  1  0
 20 19  2  0
 22 23  2  0
 22 21  1  0
 24 23  1  0
 25 24  2  0
 27 26  1  6
 26 25  1  0
 27 28  1  0
 28 19  1  0
 29 27  1  0
 29 33  1  0
 30 29  2  0
 31 25  1  0
 31 32  2  0
 32 22  1  0
M  END
$$$$
