HHY.pdb
     RDKit          3D

 33 35  0  0  1  0  0  0  0  0999 V2000
   27.7641  -22.4402  -17.3988 N   0  0  0  0  0  0  0  0  0  0  0  0
   26.4389  -22.3083  -17.9510 C   0  0  1  0  0  0  0  0  0  0  0  0
   25.8034  -23.7050  -17.9482 C   0  0  0  0  0  0  0  0  0  0  0  0
   26.4854  -24.6160  -18.8807 C   0  0  0  0  0  0  0  0  0  0  0  0
   27.4845  -24.3049  -19.7611 C   0  0  0  0  0  0  0  0  0  0  0  0
   27.8387  -25.4267  -20.4367 N   0  0  0  0  0  0  0  0  0  0  0  0
   27.0659  -26.4219  -19.9785 C   0  0  0  0  0  0  0  0  0  0  0  0
   26.2337  -25.9234  -19.0216 N   0  0  0  0  0  0  0  0  0  0  0  0
   25.6041  -21.4390  -17.1134 C   0  0  0  0  0  0  0  0  0  0  0  0
   25.7568  -21.4080  -15.8493 O   0  0  0  0  0  0  0  0  0  0  0  0
   24.6195  -20.6281  -17.7242 N   0  0  0  0  0  0  0  0  0  0  0  0
   23.7799  -19.7944  -16.9052 C   0  0  1  0  0  0  0  0  0  0  0  0
   23.0548  -18.7695  -17.7733 C   0  0  0  0  0  0  0  0  0  0  0  0
   22.2165  -17.8719  -16.9547 C   0  0  0  0  0  0  0  0  0  0  0  0
   21.9822  -17.9365  -15.5749 C   0  0  0  0  0  0  0  0  0  0  0  0
   21.1619  -16.9330  -15.2296 N   0  0  0  0  0  0  0  0  0  0  0  0
   20.8650  -16.2330  -16.3325 C   0  0  0  0  0  0  0  0  0  0  0  0
   21.5048  -16.8061  -17.3666 N   0  0  0  0  0  0  0  0  0  0  0  0
   22.7340  -20.6890  -16.2935 C   0  0  0  0  0  0  0  0  0  0  0  0
   22.1281  -21.5546  -16.9707 O   0  0  0  0  0  0  0  0  0  0  0  0
   25.0509  -26.4522  -15.3925 O   0  0  0  0  0  0  0  0  0  0  0  0
   24.2976  -25.4161  -14.8812 C   0  0  0  0  0  0  0  0  0  0  0  0
   24.8967  -24.2715  -14.3824 C   0  0  0  0  0  0  0  0  0  0  0  0
   24.1420  -23.2340  -13.8704 C   0  0  0  0  0  0  0  0  0  0  0  0
   22.7697  -23.3685  -13.8689 C   0  0  0  0  0  0  0  0  0  0  0  0
   21.9563  -22.2668  -13.3166 C   0  0  0  0  0  0  0  0  0  0  0  0
   21.3039  -21.4074  -14.3958 C   0  0  2  0  0  0  0  0  0  0  0  0
   22.3883  -20.5909  -14.9219 N   0  0  0  0  0  0  0  0  0  0  0  0
   20.1982  -20.6000  -13.8777 C   0  0  0  0  0  0  0  0  0  0  0  0
   20.2776  -19.3576  -13.6218 O   0  0  0  0  0  0  0  0  0  0  0  0
   22.1852  -24.5095  -14.3667 C   0  0  0  0  0  0  0  0  0  0  0  0
   22.9278  -25.5542  -14.8815 C   0  0  0  0  0  0  0  0  0  0  0  0
   18.9705  -21.1938  -13.6393 O   0  0  0  0  0  0  0  0  0  0  0  0
  2  1  1  1
  2  3  1  0
  3  4  1  0
  4  8  1  0
  5  6  1  0
  5  4  2  0
  6  7  1  0
  7  8  2  0
  9  2  1  0
  9 10  2  0
 11  9  1  0
 12 11  1  0
 12 13  1  6
 13 14  1  0
 14 15  2  0
 14 18  1  0
 15 16  1  0
 16 17  1  0
 18 17  2  0
 19 12  1  0
 20 19  2  0
 22 23  2  0
 22 21  1  0
 24 23  1  0
 25 24  2  0
 27 26  1  1
 26 25  1  0
 27 28  1  0
 28 19  1  0
 29 27  1  0
 29 33  1  0
 30 29  2  0
 31 25  1  0
 31 32  2  0
 32 22  1  0
M  END
$$$$
