HHY.pdb
     RDKit          3D

 33 35  0  0  1  0  0  0  0  0999 V2000
   23.2028  -14.9737  -19.8960 N   0  0  0  0  0  0  0  0  0  0  0  0
   22.5099  -15.0890  -18.6370 C   0  0  1  0  0  0  0  0  0  0  0  0
   21.0252  -14.8108  -18.9073 C   0  0  0  0  0  0  0  0  0  0  0  0
   20.7957  -13.4119  -19.3011 C   0  0  0  0  0  0  0  0  0  0  0  0
   20.3176  -12.9561  -20.4985 C   0  0  0  0  0  0  0  0  0  0  0  0
   20.2543  -11.6016  -20.4583 N   0  0  0  0  0  0  0  0  0  0  0  0
   20.6892  -11.2235  -19.2478 C   0  0  0  0  0  0  0  0  0  0  0  0
   21.0221  -12.3367  -18.5361 N   0  0  0  0  0  0  0  0  0  0  0  0
   22.6159  -16.4513  -18.1012 C   0  0  0  0  0  0  0  0  0  0  0  0
   22.5172  -17.4639  -18.8675 O   0  0  0  0  0  0  0  0  0  0  0  0
   22.8303  -16.6348  -16.7154 N   0  0  0  0  0  0  0  0  0  0  0  0
   23.0347  -17.9624  -16.1994 C   0  0  1  0  0  0  0  0  0  0  0  0
   24.3150  -18.0095  -15.3697 C   0  0  0  0  0  0  0  0  0  0  0  0
   25.5105  -18.0718  -16.2331 C   0  0  0  0  0  0  0  0  0  0  0  0
   25.5621  -18.0359  -17.6327 C   0  0  0  0  0  0  0  0  0  0  0  0
   26.8440  -18.1178  -18.0190 N   0  0  0  0  0  0  0  0  0  0  0  0
   27.6095  -18.2042  -16.9230 C   0  0  0  0  0  0  0  0  0  0  0  0
   26.7975  -18.1757  -15.8522 N   0  0  0  0  0  0  0  0  0  0  0  0
   21.8846  -18.2562  -15.2724 C   0  0  0  0  0  0  0  0  0  0  0  0
   21.7534  -17.6618  -14.1748 O   0  0  0  0  0  0  0  0  0  0  0  0
   17.8840  -13.4236  -14.6890 O   0  0  0  0  0  0  0  0  0  0  0  0
   18.0571  -14.7810  -14.8617 C   0  0  0  0  0  0  0  0  0  0  0  0
   18.5551  -15.2958  -16.0470 C   0  0  0  0  0  0  0  0  0  0  0  0
   18.7283  -16.6553  -16.2197 C   0  0  0  0  0  0  0  0  0  0  0  0
   18.3909  -17.4905  -15.1759 C   0  0  0  0  0  0  0  0  0  0  0  0
   18.5664  -18.9457  -15.3554 C   0  0  0  0  0  0  0  0  0  0  0  0
   19.8155  -19.4860  -14.6649 C   0  0  2  0  0  0  0  0  0  0  0  0
   20.8981  -19.2200  -15.6013 N   0  0  0  0  0  0  0  0  0  0  0  0
   19.7022  -20.9069  -14.3319 C   0  0  0  0  0  0  0  0  0  0  0  0
   18.8988  -21.3776  -13.4669 O   0  0  0  0  0  0  0  0  0  0  0  0
   17.8972  -16.9687  -14.0031 C   0  0  0  0  0  0  0  0  0  0  0  0
   17.7190  -15.6116  -13.8172 C   0  0  0  0  0  0  0  0  0  0  0  0
   20.5060  -21.8281  -14.9816 O   0  0  0  0  0  0  0  0  0  0  0  0
  2  1  1  6
  2  3  1  0
  3  4  1  0
  4  8  1  0
  5  6  1  0
  5  4  2  0
  6  7  1  0
  7  8  2  0
  9  2  1  0
  9 10  2  0
 11  9  1  0
 12 11  1  0
 12 13  1  1
 13 14  1  0
 14 15  2  0
 14 18  1  0
 15 16  1  0
 16 17  1  0
 18 17  2  0
 19 12  1  0
 20 19  2  0
 22 23  2  0
 22 21  1  0
 24 23  1  0
 25 24  2  0
 27 26  1  6
 26 25  1  0
 27 28  1  0
 28 19  1  0
 29 27  1  0
 29 33  1  0
 30 29  2  0
 31 25  1  0
 31 32  2  0
 32 22  1  0
M  END
$$$$
