HHY.pdb
     RDKit          3D

 33 35  0  0  1  0  0  0  0  0999 V2000
   23.6774  -17.7585  -20.1244 N   0  0  0  0  0  0  0  0  0  0  0  0
   23.4255  -17.3839  -18.7552 C   0  0  1  0  0  0  0  0  0  0  0  0
   22.0260  -16.7566  -18.7048 C   0  0  0  0  0  0  0  0  0  0  0  0
   21.9984  -15.4333  -19.3473 C   0  0  0  0  0  0  0  0  0  0  0  0
   23.0494  -14.5767  -19.5255 C   0  0  0  0  0  0  0  0  0  0  0  0
   22.6047  -13.4632  -20.1600 N   0  0  0  0  0  0  0  0  0  0  0  0
   21.2914  -13.6296  -20.3721 C   0  0  0  0  0  0  0  0  0  0  0  0
   20.9185  -14.8411  -19.8724 N   0  0  0  0  0  0  0  0  0  0  0  0
   23.4154  -18.5626  -17.8807 C   0  0  0  0  0  0  0  0  0  0  0  0
   23.0606  -19.7023  -18.3251 O   0  0  0  0  0  0  0  0  0  0  0  0
   23.8059  -18.4241  -16.5285 N   0  0  0  0  0  0  0  0  0  0  0  0
   23.8157  -19.5801  -15.6716 C   0  0  1  0  0  0  0  0  0  0  0  0
   25.1984  -19.7587  -15.0503 C   0  0  0  0  0  0  0  0  0  0  0  0
   26.0669  -20.5897  -15.9070 C   0  0  0  0  0  0  0  0  0  0  0  0
   25.7448  -21.1903  -17.1310 C   0  0  0  0  0  0  0  0  0  0  0  0
   26.8185  -21.8575  -17.5794 N   0  0  0  0  0  0  0  0  0  0  0  0
   27.8099  -21.7059  -16.6913 C   0  0  0  0  0  0  0  0  0  0  0  0
   27.3477  -20.9408  -15.6874 N   0  0  0  0  0  0  0  0  0  0  0  0
   22.8488  -19.3047  -14.5501 C   0  0  0  0  0  0  0  0  0  0  0  0
   23.0063  -18.3379  -13.7655 O   0  0  0  0  0  0  0  0  0  0  0  0
   16.6588  -18.4595  -17.9585 O   0  0  0  0  0  0  0  0  0  0  0  0
   17.5541  -18.4359  -16.9096 C   0  0  0  0  0  0  0  0  0  0  0  0
   18.8679  -18.0398  -17.0964 C   0  0  0  0  0  0  0  0  0  0  0  0
   19.7643  -18.0162  -16.0457 C   0  0  0  0  0  0  0  0  0  0  0  0
   19.3146  -18.3993  -14.7999 C   0  0  0  0  0  0  0  0  0  0  0  0
   20.2688  -18.3839  -13.6730 C   0  0  0  0  0  0  0  0  0  0  0  0
   20.7626  -19.7761  -13.2899 C   0  0  2  0  0  0  0  0  0  0  0  0
   21.7156  -20.1287  -14.3324 N   0  0  0  0  0  0  0  0  0  0  0  0
   19.6727  -20.7470  -13.1787 C   0  0  0  0  0  0  0  0  0  0  0  0
   19.5488  -21.7721  -13.9196 O   0  0  0  0  0  0  0  0  0  0  0  0
   18.0079  -18.7910  -14.6255 C   0  0  0  0  0  0  0  0  0  0  0  0
   17.1013  -18.8191  -15.6673 C   0  0  0  0  0  0  0  0  0  0  0  0
   18.6949  -20.5705  -12.2145 O   0  0  0  0  0  0  0  0  0  0  0  0
  2  1  1  6
  2  3  1  0
  3  4  1  0
  4  8  1  0
  5  6  1  0
  5  4  2  0
  6  7  1  0
  7  8  2  0
  9  2  1  0
  9 10  2  0
 11  9  1  0
 12 11  1  0
 12 13  1  1
 13 14  1  0
 14 15  2  0
 14 18  1  0
 15 16  1  0
 16 17  1  0
 18 17  2  0
 19 12  1  0
 20 19  2  0
 22 23  2  0
 22 21  1  0
 24 23  1  0
 25 24  2  0
 27 26  1  6
 26 25  1  0
 27 28  1  0
 28 19  1  0
 29 27  1  0
 29 33  1  0
 30 29  2  0
 31 25  1  0
 31 32  2  0
 32 22  1  0
M  END
$$$$
