HHY.pdb
     RDKit          3D

 33 35  0  0  1  0  0  0  0  0999 V2000
   43.3580   -9.8218   -6.9104 N   0  0  0  0  0  0  0  0  0  0  0  0
   42.2108   -9.1654   -6.3346 C   0  0  1  0  0  0  0  0  0  0  0  0
   42.7329   -8.0054   -5.4766 C   0  0  0  0  0  0  0  0  0  0  0  0
   43.3160   -8.4818   -4.2126 C   0  0  0  0  0  0  0  0  0  0  0  0
   43.3691   -9.7706   -3.7585 C   0  0  0  0  0  0  0  0  0  0  0  0
   43.9877   -9.7850   -2.5513 N   0  0  0  0  0  0  0  0  0  0  0  0
   44.3140   -8.5173   -2.2617 C   0  0  0  0  0  0  0  0  0  0  0  0
   43.9010   -7.7158   -3.2833 N   0  0  0  0  0  0  0  0  0  0  0  0
   41.3526   -8.5938   -7.3791 C   0  0  0  0  0  0  0  0  0  0  0  0
   41.8539   -8.1250   -8.4520 O   0  0  0  0  0  0  0  0  0  0  0  0
   39.9519   -8.5664   -7.1854 N   0  0  0  0  0  0  0  0  0  0  0  0
   39.1114   -7.9457   -8.1748 C   0  0  1  0  0  0  0  0  0  0  0  0
   38.1900   -8.9865   -8.8052 C   0  0  0  0  0  0  0  0  0  0  0  0
   38.9255   -9.8516   -9.7483 C   0  0  0  0  0  0  0  0  0  0  0  0
   39.3945  -11.1539   -9.5323 C   0  0  0  0  0  0  0  0  0  0  0  0
   40.0098  -11.5806  -10.6453 N   0  0  0  0  0  0  0  0  0  0  0  0
   39.9513  -10.6034  -11.5598 C   0  0  0  0  0  0  0  0  0  0  0  0
   39.2964   -9.5661  -11.0104 N   0  0  0  0  0  0  0  0  0  0  0  0
   38.2417   -6.9510   -7.4521 C   0  0  0  0  0  0  0  0  0  0  0  0
   37.3765   -7.3141   -6.6185 O   0  0  0  0  0  0  0  0  0  0  0  0
   36.1511   -1.4251   -1.5309 O   0  0  0  0  0  0  0  0  0  0  0  0
   36.6430   -2.2883   -2.4877 C   0  0  0  0  0  0  0  0  0  0  0  0
   36.0057   -3.4848   -2.7703 C   0  0  0  0  0  0  0  0  0  0  0  0
   36.4986   -4.3491   -3.7286 C   0  0  0  0  0  0  0  0  0  0  0  0
   37.6474   -3.9873   -4.3998 C   0  0  0  0  0  0  0  0  0  0  0  0
   38.1847   -4.9092   -5.4206 C   0  0  0  0  0  0  0  0  0  0  0  0
   37.6533   -4.6230   -6.8222 C   0  0  2  0  0  0  0  0  0  0  0  0
   38.3637   -5.5575   -7.6833 N   0  0  0  0  0  0  0  0  0  0  0  0
   37.8543   -3.2300   -7.2247 C   0  0  0  0  0  0  0  0  0  0  0  0
   38.9192   -2.7852   -7.7570 O   0  0  0  0  0  0  0  0  0  0  0  0
   38.2723   -2.7967   -4.1112 C   0  0  0  0  0  0  0  0  0  0  0  0
   37.7903   -1.9235   -3.1556 C   0  0  0  0  0  0  0  0  0  0  0  0
   36.8401   -2.3081   -7.0290 O   0  0  0  0  0  0  0  0  0  0  0  0
  2  1  1  6
  2  3  1  0
  3  4  1  0
  4  8  1  0
  5  6  1  0
  5  4  2  0
  6  7  1  0
  7  8  2  0
  9  2  1  0
  9 10  2  0
 11  9  1  0
 12 11  1  0
 12 13  1  1
 13 14  1  0
 14 15  2  0
 14 18  1  0
 15 16  1  0
 16 17  1  0
 18 17  2  0
 19 12  1  0
 20 19  2  0
 22 23  2  0
 22 21  1  0
 24 23  1  0
 25 24  2  0
 27 26  1  1
 26 25  1  0
 27 28  1  0
 28 19  1  0
 29 27  1  0
 29 33  1  0
 30 29  2  0
 31 25  1  0
 31 32  2  0
 32 22  1  0
M  END
$$$$
