PMV.pdb
     RDKit          3D

 23 23  0  0  1  0  0  0  0  0999 V2000
    7.4483  -15.9945   20.4815 N   0  0  0  0  0  0  0  0  0  0  0  0
    7.1606  -15.9515   19.0598 C   0  0  0  0  0  0  0  0  0  0  0  0
    7.5155  -14.5519   18.5951 C   0  0  0  0  0  0  0  0  0  0  0  0
    8.1360  -13.9005   19.8380 C   0  0  0  0  0  0  0  0  0  0  0  0
    8.6123  -15.1337   20.5833 C   0  0  1  0  0  0  0  0  0  0  0  0
    8.9604  -14.8366   21.9897 C   0  0  0  0  0  0  0  0  0  0  0  0
   10.1043  -14.3614   22.2089 O   0  0  0  0  0  0  0  0  0  0  0  0
    5.5795  -10.7324   26.3743 C   0  0  0  0  0  0  0  0  0  0  0  0
    5.3309  -12.5377   26.4495 S   0  0  0  0  0  0  0  0  0  0  0  0
    6.9693  -13.3592   26.2689 C   0  0  0  0  0  0  0  0  0  0  0  0
    6.9739  -13.9868   24.9162 C   0  0  0  0  0  0  0  0  0  0  0  0
    8.2975  -14.4463   24.4033 C   0  0  2  0  0  0  0  0  0  0  0  0
    8.1059  -15.0477   23.0901 N   0  0  0  0  0  0  0  0  0  0  0  0
    8.9724  -15.3731   25.3298 C   0  0  0  0  0  0  0  0  0  0  0  0
    8.7956  -16.6025   25.1999 O   0  0  0  0  0  0  0  0  0  0  0  0
   10.9407  -13.7102   28.5889 C   0  0  0  0  0  0  0  0  0  0  0  0
   10.6500  -15.1727   28.6594 C   0  0  2  0  0  0  0  0  0  0  0  0
   11.6777  -15.9142   29.4703 C   0  0  0  0  0  0  0  0  0  0  0  0
   10.5072  -15.8045   27.2907 C   0  0  2  0  0  0  0  0  0  0  0  0
    9.8257  -14.9312   26.3779 N   0  0  0  0  0  0  0  0  0  0  0  0
    9.8679  -17.1177   27.4500 C   0  0  0  0  0  0  0  0  0  0  0  0
   10.6619  -18.2354   27.5442 O   0  0  0  0  0  0  0  0  0  0  0  0
    8.6200  -17.2833   27.5061 O   0  0  0  0  0  0  0  0  0  0  0  0
  1  5  1  0
  2  3  1  0
  2  1  1  0
  3  4  1  0
  4  5  1  0
  5  6  1  1
  6  7  2  0
  9 10  1  0
  9  8  1  0
 10 11  1  0
 12 11  1  1
 12 14  1  0
 13  6  1  0
 13 12  1  0
 14 15  2  0
 17 16  1  6
 17 18  1  0
 17 19  1  0
 19 21  1  0
 19 20  1  6
 20 14  1  0
 21 23  2  0
 21 22  1  0
M  END
$$$$
