PMV.pdb
     RDKit          3D

 23 23  0  0  1  0  0  0  0  0999 V2000
    7.4040  -16.3701   20.8119 N   0  0  0  0  0  0  0  0  0  0  0  0
    6.9947  -16.3528   19.4197 C   0  0  0  0  0  0  0  0  0  0  0  0
    7.2974  -14.9591   18.9034 C   0  0  0  0  0  0  0  0  0  0  0  0
    8.0174  -14.2829   20.0775 C   0  0  0  0  0  0  0  0  0  0  0  0
    8.5657  -15.5003   20.7988 C   0  0  1  0  0  0  0  0  0  0  0  0
    9.0313  -15.1773   22.1651 C   0  0  0  0  0  0  0  0  0  0  0  0
   10.2620  -14.9647   22.3158 O   0  0  0  0  0  0  0  0  0  0  0  0
    5.2560  -11.9031   26.5514 C   0  0  0  0  0  0  0  0  0  0  0  0
    7.0547  -11.7850   26.8300 S   0  0  0  0  0  0  0  0  0  0  0  0
    7.7794  -13.4713   26.6793 C   0  0  0  0  0  0  0  0  0  0  0  0
    7.5416  -13.9028   25.2718 C   0  0  0  0  0  0  0  0  0  0  0  0
    8.6472  -14.6592   24.6147 C   0  0  2  0  0  0  0  0  0  0  0  0
    8.1981  -15.0925   23.2981 N   0  0  0  0  0  0  0  0  0  0  0  0
    9.1160  -15.7959   25.4278 C   0  0  0  0  0  0  0  0  0  0  0  0
    8.3912  -16.8067   25.5392 O   0  0  0  0  0  0  0  0  0  0  0  0
   13.0509  -18.0431   27.4990 C   0  0  0  0  0  0  0  0  0  0  0  0
   12.4335  -16.8306   26.8849 C   0  0  2  0  0  0  0  0  0  0  0  0
   12.8085  -15.5724   27.6195 C   0  0  0  0  0  0  0  0  0  0  0  0
   10.9277  -16.9398   26.7681 C   0  0  2  0  0  0  0  0  0  0  0  0
   10.3688  -15.7986   26.1005 N   0  0  0  0  0  0  0  0  0  0  0  0
   10.3741  -17.1777   28.1080 C   0  0  0  0  0  0  0  0  0  0  0  0
    9.5417  -16.2335   28.6595 O   0  0  0  0  0  0  0  0  0  0  0  0
   10.6194  -18.2079   28.7909 O   0  0  0  0  0  0  0  0  0  0  0  0
  1  5  1  0
  2  3  1  0
  2  1  1  0
  3  4  1  0
  4  5  1  0
  5  6  1  1
  6  7  2  0
  9 10  1  0
  9  8  1  0
 10 11  1  0
 12 11  1  1
 12 14  1  0
 13  6  1  0
 13 12  1  0
 14 15  2  0
 17 16  1  1
 17 18  1  0
 17 19  1  0
 19 21  1  0
 19 20  1  1
 20 14  1  0
 21 23  2  0
 21 22  1  0
M  END
$$$$
