PMV.pdb
     RDKit          3D

 23 23  0  0  1  0  0  0  0  0999 V2000
    7.5796  -15.3950   20.3498 N   0  0  0  0  0  0  0  0  0  0  0  0
    7.3895  -15.2191   18.9219 C   0  0  0  0  0  0  0  0  0  0  0  0
    7.8525  -13.8110   18.6003 C   0  0  0  0  0  0  0  0  0  0  0  0
    8.4250  -13.3020   19.9297 C   0  0  0  0  0  0  0  0  0  0  0  0
    8.7809  -14.6185   20.5953 C   0  0  1  0  0  0  0  0  0  0  0  0
    9.0513  -14.4585   22.0406 C   0  0  0  0  0  0  0  0  0  0  0  0
   10.1936  -14.0452   22.3676 O   0  0  0  0  0  0  0  0  0  0  0  0
    5.5896  -10.8677   26.0796 C   0  0  0  0  0  0  0  0  0  0  0  0
    5.3548  -12.5820   26.6566 S   0  0  0  0  0  0  0  0  0  0  0  0
    6.9375  -13.4954   26.4278 C   0  0  0  0  0  0  0  0  0  0  0  0
    6.9638  -13.9330   25.0025 C   0  0  0  0  0  0  0  0  0  0  0  0
    8.2946  -14.3267   24.4545 C   0  0  2  0  0  0  0  0  0  0  0  0
    8.1253  -14.7348   23.0661 N   0  0  0  0  0  0  0  0  0  0  0  0
    8.9455  -15.3811   25.2530 C   0  0  0  0  0  0  0  0  0  0  0  0
    8.7717  -16.5778   24.9414 O   0  0  0  0  0  0  0  0  0  0  0  0
   10.2620  -14.8241   29.3104 C   0  0  0  0  0  0  0  0  0  0  0  0
   11.1772  -15.4806   28.3307 C   0  0  2  0  0  0  0  0  0  0  0  0
   12.2392  -14.5391   27.8315 C   0  0  0  0  0  0  0  0  0  0  0  0
   10.4350  -16.0987   27.1645 C   0  0  2  0  0  0  0  0  0  0  0  0
    9.7722  -15.0995   26.3752 N   0  0  0  0  0  0  0  0  0  0  0  0
    9.5384  -17.1401   27.6842 C   0  0  0  0  0  0  0  0  0  0  0  0
   10.0851  -18.2350   28.3093 O   0  0  0  0  0  0  0  0  0  0  0  0
    8.2829  -17.0895   27.5902 O   0  0  0  0  0  0  0  0  0  0  0  0
  1  5  1  0
  2  3  1  0
  2  1  1  0
  3  4  1  0
  4  5  1  0
  5  6  1  1
  6  7  2  0
  9 10  1  0
  9  8  1  0
 10 11  1  0
 12 11  1  1
 12 14  1  0
 13  6  1  0
 13 12  1  0
 14 15  2  0
 17 16  1  1
 17 18  1  0
 17 19  1  0
 19 21  1  0
 19 20  1  1
 20 14  1  0
 21 23  2  0
 21 22  1  0
M  END
$$$$
