PMV.pdb
     RDKit          3D

 23 23  0  0  1  0  0  0  0  0999 V2000
    8.2057  -16.7234   20.5287 N   0  0  0  0  0  0  0  0  0  0  0  0
    8.0377  -16.8004   19.0893 C   0  0  0  0  0  0  0  0  0  0  0  0
    7.8870  -15.3724   18.6006 C   0  0  0  0  0  0  0  0  0  0  0  0
    8.1211  -14.5284   19.8603 C   0  0  0  0  0  0  0  0  0  0  0  0
    8.9575  -15.4916   20.6824 C   0  0  1  0  0  0  0  0  0  0  0  0
    9.0571  -15.0765   22.0986 C   0  0  0  0  0  0  0  0  0  0  0  0
   10.0906  -14.4456   22.4395 O   0  0  0  0  0  0  0  0  0  0  0  0
    5.2985  -11.5049   25.7598 C   0  0  0  0  0  0  0  0  0  0  0  0
    6.8394  -12.3489   26.2499 S   0  0  0  0  0  0  0  0  0  0  0  0
    6.5174  -14.1612   26.3087 C   0  0  0  0  0  0  0  0  0  0  0  0
    6.6950  -14.6614   24.9152 C   0  0  0  0  0  0  0  0  0  0  0  0
    8.0996  -14.7687   24.4235 C   0  0  2  0  0  0  0  0  0  0  0  0
    8.0823  -15.3372   23.0820 N   0  0  0  0  0  0  0  0  0  0  0  0
    8.9584  -15.5503   25.3315 C   0  0  0  0  0  0  0  0  0  0  0  0
    9.0702  -16.7817   25.1568 O   0  0  0  0  0  0  0  0  0  0  0  0
    9.9835  -14.9629   29.6502 C   0  0  0  0  0  0  0  0  0  0  0  0
   10.9265  -14.8419   28.4993 C   0  0  2  0  0  0  0  0  0  0  0  0
   11.1129  -13.4121   28.0699 C   0  0  0  0  0  0  0  0  0  0  0  0
   10.5149  -15.6943   27.3174 C   0  0  2  0  0  0  0  0  0  0  0  0
    9.6755  -14.9640   26.4105 N   0  0  0  0  0  0  0  0  0  0  0  0
    9.9086  -16.9320   27.8264 C   0  0  0  0  0  0  0  0  0  0  0  0
   10.7231  -17.8932   28.3752 O   0  0  0  0  0  0  0  0  0  0  0  0
    8.6714  -17.1685   27.7898 O   0  0  0  0  0  0  0  0  0  0  0  0
  1  5  1  0
  2  3  1  0
  2  1  1  0
  3  4  1  0
  4  5  1  0
  5  6  1  1
  6  7  2  0
  9 10  1  0
  9  8  1  0
 10 11  1  0
 12 11  1  1
 12 14  1  0
 13  6  1  0
 13 12  1  0
 14 15  2  0
 17 16  1  1
 17 18  1  0
 17 19  1  0
 19 21  1  0
 19 20  1  6
 20 14  1  0
 21 23  2  0
 21 22  1  0
M  END
$$$$
