PMV.pdb
     RDKit          3D

 23 23  0  0  1  0  0  0  0  0999 V2000
    7.7771  -15.6299   20.2859 N   0  0  0  0  0  0  0  0  0  0  0  0
    7.5920  -15.4543   18.8573 C   0  0  0  0  0  0  0  0  0  0  0  0
    7.6531  -13.9608   18.5996 C   0  0  0  0  0  0  0  0  0  0  0  0
    8.0170  -13.3686   19.9675 C   0  0  0  0  0  0  0  0  0  0  0  0
    8.7049  -14.5609   20.6066 C   0  0  1  0  0  0  0  0  0  0  0  0
    8.8726  -14.3924   22.0665 C   0  0  0  0  0  0  0  0  0  0  0  0
    9.9602  -13.9020   22.4655 O   0  0  0  0  0  0  0  0  0  0  0  0
    5.4614  -11.1503   26.0078 C   0  0  0  0  0  0  0  0  0  0  0  0
    6.9210  -12.1191   26.5154 S   0  0  0  0  0  0  0  0  0  0  0  0
    6.4913  -13.9079   26.4299 C   0  0  0  0  0  0  0  0  0  0  0  0
    6.6070  -14.2961   24.9947 C   0  0  0  0  0  0  0  0  0  0  0  0
    7.9898  -14.3816   24.4407 C   0  0  2  0  0  0  0  0  0  0  0  0
    7.9064  -14.7406   23.0311 N   0  0  0  0  0  0  0  0  0  0  0  0
    8.8417  -15.3232   25.1895 C   0  0  0  0  0  0  0  0  0  0  0  0
    8.8822  -16.5211   24.8388 O   0  0  0  0  0  0  0  0  0  0  0  0
    9.9672  -15.3762   29.3733 C   0  0  0  0  0  0  0  0  0  0  0  0
   10.9965  -15.1995   28.3067 C   0  0  2  0  0  0  0  0  0  0  0  0
   11.3904  -13.7576   28.1354 C   0  0  0  0  0  0  0  0  0  0  0  0
   10.5655  -15.7860   26.9788 C   0  0  2  0  0  0  0  0  0  0  0  0
    9.6300  -14.9302   26.3059 N   0  0  0  0  0  0  0  0  0  0  0  0
   10.0667  -17.1480   27.2129 C   0  0  0  0  0  0  0  0  0  0  0  0
   10.9545  -18.1223   27.6014 O   0  0  0  0  0  0  0  0  0  0  0  0
    8.8590  -17.4810   27.0772 O   0  0  0  0  0  0  0  0  0  0  0  0
  1  5  1  0
  2  3  1  0
  2  1  1  0
  3  4  1  0
  4  5  1  0
  5  6  1  1
  6  7  2  0
  9 10  1  0
  9  8  1  0
 10 11  1  0
 12 11  1  1
 12 14  1  0
 13  6  1  0
 13 12  1  0
 14 15  2  0
 17 16  1  1
 17 18  1  0
 17 19  1  0
 19 21  1  0
 19 20  1  1
 20 14  1  0
 21 23  2  0
 21 22  1  0
M  END
$$$$
