PMV.pdb
     RDKit          3D

 23 23  0  0  1  0  0  0  0  0999 V2000
    7.6729  -16.3425   20.6640 N   0  0  0  0  0  0  0  0  0  0  0  0
    7.4449  -16.3867   19.2316 C   0  0  0  0  0  0  0  0  0  0  0  0
    7.7503  -14.9963   18.7080 C   0  0  0  0  0  0  0  0  0  0  0  0
    8.2841  -14.2515   19.9386 C   0  0  0  0  0  0  0  0  0  0  0  0
    8.7879  -15.4191   20.7668 C   0  0  1  0  0  0  0  0  0  0  0  0
    9.0602  -15.0333   22.1685 C   0  0  0  0  0  0  0  0  0  0  0  0
   10.1567  -14.4631   22.4032 O   0  0  0  0  0  0  0  0  0  0  0  0
    6.4146  -10.8667   26.0324 C   0  0  0  0  0  0  0  0  0  0  0  0
    5.6025  -12.4614   26.3849 S   0  0  0  0  0  0  0  0  0  0  0  0
    6.8973  -13.7684   26.4686 C   0  0  0  0  0  0  0  0  0  0  0  0
    6.9575  -14.3829   25.1113 C   0  0  0  0  0  0  0  0  0  0  0  0
    8.3199  -14.6361   24.5582 C   0  0  2  0  0  0  0  0  0  0  0  0
    8.1835  -15.2590   23.2481 N   0  0  0  0  0  0  0  0  0  0  0  0
    9.1541  -15.4504   25.4604 C   0  0  0  0  0  0  0  0  0  0  0  0
    9.2204  -16.6847   25.2824 O   0  0  0  0  0  0  0  0  0  0  0  0
   10.1159  -14.7722   29.6602 C   0  0  0  0  0  0  0  0  0  0  0  0
   11.1764  -14.8344   28.6115 C   0  0  2  0  0  0  0  0  0  0  0  0
   11.6285  -13.4647   28.1837 C   0  0  0  0  0  0  0  0  0  0  0  0
   10.7556  -15.6476   27.4055 C   0  0  2  0  0  0  0  0  0  0  0  0
    9.8968  -14.8931   26.5374 N   0  0  0  0  0  0  0  0  0  0  0  0
   10.1678  -16.9085   27.8779 C   0  0  0  0  0  0  0  0  0  0  0  0
    8.8110  -17.0929   27.7614 O   0  0  0  0  0  0  0  0  0  0  0  0
   10.8408  -17.8427   28.3898 O   0  0  0  0  0  0  0  0  0  0  0  0
  1  5  1  0
  2  3  1  0
  2  1  1  0
  3  4  1  0
  4  5  1  0
  5  6  1  1
  6  7  2  0
  9 10  1  0
  9  8  1  0
 10 11  1  0
 12 11  1  1
 12 14  1  0
 13  6  1  0
 13 12  1  0
 14 15  2  0
 17 16  1  1
 17 18  1  0
 17 19  1  0
 19 21  1  0
 19 20  1  1
 20 14  1  0
 21 23  2  0
 21 22  1  0
M  END
$$$$
