PMV.pdb
     RDKit          3D

 23 23  0  0  1  0  0  0  0  0999 V2000
    7.4138  -15.5115   20.0967 N   0  0  0  0  0  0  0  0  0  0  0  0
    7.2321  -15.2087   18.6891 C   0  0  0  0  0  0  0  0  0  0  0  0
    7.5350  -13.7312   18.5281 C   0  0  0  0  0  0  0  0  0  0  0  0
    8.0189  -13.3036   19.9199 C   0  0  0  0  0  0  0  0  0  0  0  0
    8.5121  -14.6342   20.4579 C   0  0  1  0  0  0  0  0  0  0  0  0
    8.7342  -14.5979   21.9197 C   0  0  0  0  0  0  0  0  0  0  0  0
    9.9099  -14.3892   22.3157 O   0  0  0  0  0  0  0  0  0  0  0  0
    7.0013  -11.2229   27.5211 C   0  0  0  0  0  0  0  0  0  0  0  0
    5.8103  -12.1695   26.5148 S   0  0  0  0  0  0  0  0  0  0  0  0
    6.4457  -13.8874   26.3230 C   0  0  0  0  0  0  0  0  0  0  0  0
    6.5147  -14.1447   24.8558 C   0  0  0  0  0  0  0  0  0  0  0  0
    7.8696  -14.4184   24.2940 C   0  0  2  0  0  0  0  0  0  0  0  0
    7.7282  -14.7793   22.8894 N   0  0  0  0  0  0  0  0  0  0  0  0
    8.5959  -15.4556   25.0488 C   0  0  0  0  0  0  0  0  0  0  0  0
    8.3551  -16.6592   24.8188 O   0  0  0  0  0  0  0  0  0  0  0  0
   12.5588  -16.3823   27.9721 C   0  0  0  0  0  0  0  0  0  0  0  0
   11.5504  -15.4222   27.4337 C   0  0  2  0  0  0  0  0  0  0  0  0
   10.9027  -14.6130   28.5242 C   0  0  0  0  0  0  0  0  0  0  0  0
   10.4942  -16.1011   26.5874 C   0  0  2  0  0  0  0  0  0  0  0  0
    9.5698  -15.1497   26.0388 N   0  0  0  0  0  0  0  0  0  0  0  0
    9.8598  -17.1535   27.3926 C   0  0  0  0  0  0  0  0  0  0  0  0
   10.5817  -18.2826   27.6966 O   0  0  0  0  0  0  0  0  0  0  0  0
    8.6790  -17.0826   27.8268 O   0  0  0  0  0  0  0  0  0  0  0  0
  1  5  1  0
  2  3  1  0
  2  1  1  0
  3  4  1  0
  4  5  1  0
  5  6  1  1
  6  7  2  0
  9 10  1  0
  9  8  1  0
 10 11  1  0
 12 11  1  1
 12 14  1  0
 13  6  1  0
 13 12  1  0
 14 15  2  0
 17 16  1  1
 17 18  1  0
 17 19  1  0
 19 21  1  0
 19 20  1  1
 20 14  1  0
 21 23  2  0
 21 22  1  0
M  END
$$$$
