PMV.pdb
     RDKit          3D

 23 23  0  0  1  0  0  0  0  0999 V2000
    7.3262  -15.2178   20.1644 N   0  0  0  0  0  0  0  0  0  0  0  0
    7.0796  -14.8321   18.7873 C   0  0  0  0  0  0  0  0  0  0  0  0
    7.5072  -13.3817   18.6676 C   0  0  0  0  0  0  0  0  0  0  0  0
    8.1209  -13.0673   20.0382 C   0  0  0  0  0  0  0  0  0  0  0  0
    8.5231  -14.4613   20.4832 C   0  0  1  0  0  0  0  0  0  0  0  0
    8.8451  -14.5159   21.9258 C   0  0  0  0  0  0  0  0  0  0  0  0
   10.0619  -14.4806   22.2431 O   0  0  0  0  0  0  0  0  0  0  0  0
    5.3555  -11.3128   26.6982 C   0  0  0  0  0  0  0  0  0  0  0  0
    7.0550  -11.9585   26.8456 S   0  0  0  0  0  0  0  0  0  0  0  0
    7.0177  -13.7732   26.5338 C   0  0  0  0  0  0  0  0  0  0  0  0
    6.9370  -13.9402   25.0542 C   0  0  0  0  0  0  0  0  0  0  0  0
    8.1861  -14.3819   24.3680 C   0  0  2  0  0  0  0  0  0  0  0  0
    7.8907  -14.6040   22.9586 N   0  0  0  0  0  0  0  0  0  0  0  0
    8.7811  -15.5779   24.9913 C   0  0  0  0  0  0  0  0  0  0  0  0
    8.2031  -16.6788   24.8744 O   0  0  0  0  0  0  0  0  0  0  0  0
   12.4399  -15.3489   27.4125 C   0  0  0  0  0  0  0  0  0  0  0  0
   12.0715  -16.5153   26.5567 C   0  0  2  0  0  0  0  0  0  0  0  0
   12.7344  -16.4573   25.2073 C   0  0  0  0  0  0  0  0  0  0  0  0
   10.5737  -16.6710   26.3981 C   0  0  2  0  0  0  0  0  0  0  0  0
    9.9963  -15.5400   25.7288 N   0  0  0  0  0  0  0  0  0  0  0  0
    9.9927  -16.9428   27.7198 C   0  0  0  0  0  0  0  0  0  0  0  0
    9.0872  -16.0512   28.2429 O   0  0  0  0  0  0  0  0  0  0  0  0
   10.2779  -17.9567   28.4116 O   0  0  0  0  0  0  0  0  0  0  0  0
  1  5  1  0
  2  3  1  0
  2  1  1  0
  3  4  1  0
  4  5  1  0
  5  6  1  1
  6  7  2  0
  9 10  1  0
  9  8  1  0
 10 11  1  0
 12 11  1  1
 12 14  1  0
 13  6  1  0
 13 12  1  0
 14 15  2  0
 17 16  1  6
 17 18  1  0
 17 19  1  0
 19 21  1  0
 19 20  1  1
 20 14  1  0
 21 23  2  0
 21 22  1  0
M  END
$$$$
