PMV.pdb
     RDKit          3D

 23 23  0  0  1  0  0  0  0  0999 V2000
    7.5740  -16.7042   20.7062 N   0  0  0  0  0  0  0  0  0  0  0  0
    7.4112  -16.8419   19.2708 C   0  0  0  0  0  0  0  0  0  0  0  0
    7.7432  -15.4884   18.6720 C   0  0  0  0  0  0  0  0  0  0  0  0
    8.2221  -14.6645   19.8745 C   0  0  0  0  0  0  0  0  0  0  0  0
    8.6851  -15.7751   20.7992 C   0  0  1  0  0  0  0  0  0  0  0  0
    8.8942  -15.2985   22.1836 C   0  0  0  0  0  0  0  0  0  0  0  0
    9.9718  -14.6961   22.4257 O   0  0  0  0  0  0  0  0  0  0  0  0
    6.5030  -11.0318   26.4893 C   0  0  0  0  0  0  0  0  0  0  0  0
    5.5154  -12.5582   26.3420 S   0  0  0  0  0  0  0  0  0  0  0  0
    6.6539  -14.0015   26.4532 C   0  0  0  0  0  0  0  0  0  0  0  0
    6.7302  -14.5788   25.0804 C   0  0  0  0  0  0  0  0  0  0  0  0
    8.0988  -14.8321   24.5430 C   0  0  2  0  0  0  0  0  0  0  0  0
    7.9775  -15.4717   23.2395 N   0  0  0  0  0  0  0  0  0  0  0  0
    8.9285  -15.6312   25.4628 C   0  0  0  0  0  0  0  0  0  0  0  0
    8.9784  -16.8707   25.3191 O   0  0  0  0  0  0  0  0  0  0  0  0
    9.7841  -14.8619   29.5786 C   0  0  0  0  0  0  0  0  0  0  0  0
   10.9211  -14.9872   28.6193 C   0  0  2  0  0  0  0  0  0  0  0  0
   11.4746  -13.6460   28.2214 C   0  0  0  0  0  0  0  0  0  0  0  0
   10.5581  -15.7903   27.3880 C   0  0  2  0  0  0  0  0  0  0  0  0
    9.6848  -15.0533   26.5193 N   0  0  0  0  0  0  0  0  0  0  0  0
   10.0152  -17.0849   27.8214 C   0  0  0  0  0  0  0  0  0  0  0  0
   10.8604  -17.9962   28.4076 O   0  0  0  0  0  0  0  0  0  0  0  0
    8.8065  -17.4143   27.6865 O   0  0  0  0  0  0  0  0  0  0  0  0
  1  5  1  0
  2  3  1  0
  2  1  1  0
  3  4  1  0
  4  5  1  0
  5  6  1  1
  6  7  2  0
  9 10  1  0
  9  8  1  0
 10 11  1  0
 12 11  1  1
 12 14  1  0
 13  6  1  0
 13 12  1  0
 14 15  2  0
 17 16  1  1
 17 18  1  0
 17 19  1  0
 19 21  1  0
 19 20  1  1
 20 14  1  0
 21 23  2  0
 21 22  1  0
M  END
$$$$
