PMV.pdb
     RDKit          3D

 23 23  0  0  1  0  0  0  0  0999 V2000
    7.6622  -15.6684   20.1407 N   0  0  0  0  0  0  0  0  0  0  0  0
    7.5250  -15.5041   18.7054 C   0  0  0  0  0  0  0  0  0  0  0  0
    7.8514  -14.0528   18.4090 C   0  0  0  0  0  0  0  0  0  0  0  0
    8.3007  -13.4949   19.7659 C   0  0  0  0  0  0  0  0  0  0  0  0
    8.7609  -14.7708   20.4466 C   0  0  1  0  0  0  0  0  0  0  0  0
    8.9414  -14.5927   21.9037 C   0  0  0  0  0  0  0  0  0  0  0  0
    9.9286  -13.9094   22.2796 O   0  0  0  0  0  0  0  0  0  0  0  0
    6.1379  -11.5891   27.5860 C   0  0  0  0  0  0  0  0  0  0  0  0
    6.4232  -12.3246   25.9414 S   0  0  0  0  0  0  0  0  0  0  0  0
    6.3789  -14.1582   26.1078 C   0  0  0  0  0  0  0  0  0  0  0  0
    6.6349  -14.7066   24.7449 C   0  0  0  0  0  0  0  0  0  0  0  0
    8.0502  -14.6762   24.2734 C   0  0  2  0  0  0  0  0  0  0  0  0
    8.0911  -15.1310   22.8898 N   0  0  0  0  0  0  0  0  0  0  0  0
    8.9490  -15.4699   25.1308 C   0  0  0  0  0  0  0  0  0  0  0  0
    9.1799  -16.6612   24.8355 O   0  0  0  0  0  0  0  0  0  0  0  0
    9.7294  -14.6075   29.3163 C   0  0  0  0  0  0  0  0  0  0  0  0
   10.8519  -14.8699   28.3678 C   0  0  2  0  0  0  0  0  0  0  0  0
   11.5159  -13.5986   27.9133 C   0  0  0  0  0  0  0  0  0  0  0  0
   10.4229  -15.6933   27.1716 C   0  0  2  0  0  0  0  0  0  0  0  0
    9.5745  -14.9397   26.2926 N   0  0  0  0  0  0  0  0  0  0  0  0
    9.8192  -16.9408   27.6593 C   0  0  0  0  0  0  0  0  0  0  0  0
   10.6179  -17.8601   28.2961 O   0  0  0  0  0  0  0  0  0  0  0  0
    8.5981  -17.2225   27.5273 O   0  0  0  0  0  0  0  0  0  0  0  0
  1  5  1  0
  2  3  1  0
  2  1  1  0
  3  4  1  0
  4  5  1  0
  5  6  1  1
  6  7  2  0
  9 10  1  0
  9  8  1  0
 10 11  1  0
 12 11  1  1
 12 14  1  0
 13  6  1  0
 13 12  1  0
 14 15  2  0
 17 16  1  6
 17 18  1  0
 17 19  1  0
 19 21  1  0
 19 20  1  1
 20 14  1  0
 21 23  2  0
 21 22  1  0
M  END
$$$$
