PMV.pdb
     RDKit          3D

 23 23  0  0  1  0  0  0  0  0999 V2000
    7.4889  -16.1646   20.8528 N   0  0  0  0  0  0  0  0  0  0  0  0
    7.3220  -16.1855   19.4114 C   0  0  0  0  0  0  0  0  0  0  0  0
    7.7393  -14.8148   18.9137 C   0  0  0  0  0  0  0  0  0  0  0  0
    8.2650  -14.1133   20.1730 C   0  0  0  0  0  0  0  0  0  0  0  0
    8.6554  -15.3160   21.0123 C   0  0  1  0  0  0  0  0  0  0  0  0
    8.8898  -14.9568   22.4278 C   0  0  0  0  0  0  0  0  0  0  0  0
    9.9302  -14.2992   22.6874 O   0  0  0  0  0  0  0  0  0  0  0  0
    6.6219  -11.1727   26.6984 C   0  0  0  0  0  0  0  0  0  0  0  0
    5.4085  -12.4722   26.2913 S   0  0  0  0  0  0  0  0  0  0  0  0
    6.0465  -13.4362   24.8576 C   0  0  0  0  0  0  0  0  0  0  0  0
    6.8271  -14.5697   25.4318 C   0  0  0  0  0  0  0  0  0  0  0  0
    8.1841  -14.7990   24.8555 C   0  0  2  0  0  0  0  0  0  0  0  0
    8.0351  -15.2980   23.4948 N   0  0  0  0  0  0  0  0  0  0  0  0
    9.0019  -15.7080   25.6788 C   0  0  0  0  0  0  0  0  0  0  0  0
    9.0848  -16.9125   25.3595 O   0  0  0  0  0  0  0  0  0  0  0  0
   10.3202  -14.8902   29.7260 C   0  0  0  0  0  0  0  0  0  0  0  0
   11.3019  -15.3037   28.6800 C   0  0  2  0  0  0  0  0  0  0  0  0
   12.0705  -14.1321   28.1323 C   0  0  0  0  0  0  0  0  0  0  0  0
   10.6574  -16.0810   27.5516 C   0  0  2  0  0  0  0  0  0  0  0  0
    9.7103  -15.2760   26.8337 N   0  0  0  0  0  0  0  0  0  0  0  0
   10.0908  -17.3185   28.1047 C   0  0  0  0  0  0  0  0  0  0  0  0
    8.7348  -17.5243   28.0181 O   0  0  0  0  0  0  0  0  0  0  0  0
   10.7815  -18.2139   28.6606 O   0  0  0  0  0  0  0  0  0  0  0  0
  1  5  1  0
  2  3  1  0
  2  1  1  0
  3  4  1  0
  4  5  1  0
  5  6  1  1
  6  7  2  0
  9 10  1  0
  9  8  1  0
 10 11  1  0
 12 11  1  1
 12 14  1  0
 13  6  1  0
 13 12  1  0
 14 15  2  0
 17 16  1  1
 17 18  1  0
 17 19  1  0
 19 21  1  0
 19 20  1  1
 20 14  1  0
 21 23  2  0
 21 22  1  0
M  END
$$$$
