PMV.pdb
     RDKit          3D

 23 23  0  0  1  0  0  0  0  0999 V2000
    7.7469  -16.6549   21.0035 N   0  0  0  0  0  0  0  0  0  0  0  0
    7.4213  -16.7665   19.5937 C   0  0  0  0  0  0  0  0  0  0  0  0
    7.5314  -15.3673   19.0184 C   0  0  0  0  0  0  0  0  0  0  0  0
    8.0676  -14.5323   20.1886 C   0  0  0  0  0  0  0  0  0  0  0  0
    8.7570  -15.6127   21.0014 C   0  0  1  0  0  0  0  0  0  0  0  0
    9.0864  -15.1578   22.3696 C   0  0  0  0  0  0  0  0  0  0  0  0
   10.2825  -14.8402   22.5956 O   0  0  0  0  0  0  0  0  0  0  0  0
    5.3349  -11.7885   25.1460 C   0  0  0  0  0  0  0  0  0  0  0  0
    6.0511  -12.0382   26.8047 S   0  0  0  0  0  0  0  0  0  0  0  0
    7.3475  -13.3412   26.6892 C   0  0  0  0  0  0  0  0  0  0  0  0
    7.2277  -13.9283   25.3237 C   0  0  0  0  0  0  0  0  0  0  0  0
    8.4726  -14.5072   24.7396 C   0  0  2  0  0  0  0  0  0  0  0  0
    8.1604  -15.0569   23.4269 N   0  0  0  0  0  0  0  0  0  0  0  0
    9.0917  -15.5178   25.6162 C   0  0  0  0  0  0  0  0  0  0  0  0
    8.7504  -16.7139   25.5048 O   0  0  0  0  0  0  0  0  0  0  0  0
   10.8580  -14.8117   29.4936 C   0  0  0  0  0  0  0  0  0  0  0  0
   11.6500  -15.4943   28.4282 C   0  0  2  0  0  0  0  0  0  0  0  0
   12.6258  -14.5611   27.7645 C   0  0  0  0  0  0  0  0  0  0  0  0
   10.7739  -16.1618   27.3890 C   0  0  2  0  0  0  0  0  0  0  0  0
   10.0709  -15.1942   26.5953 N   0  0  0  0  0  0  0  0  0  0  0  0
    9.8980  -17.1251   28.0696 C   0  0  0  0  0  0  0  0  0  0  0  0
   10.4598  -18.2335   28.6565 O   0  0  0  0  0  0  0  0  0  0  0  0
    8.6472  -16.9949   28.1488 O   0  0  0  0  0  0  0  0  0  0  0  0
  1  5  1  0
  2  3  1  0
  2  1  1  0
  3  4  1  0
  4  5  1  0
  5  6  1  1
  6  7  2  0
  9 10  1  0
  9  8  1  0
 10 11  1  0
 12 11  1  1
 12 14  1  0
 13  6  1  0
 13 12  1  0
 14 15  2  0
 17 16  1  1
 17 18  1  0
 17 19  1  0
 19 21  1  0
 19 20  1  1
 20 14  1  0
 21 23  2  0
 21 22  1  0
M  END
$$$$
