LQD.pdb
     RDKit          3D

 26 25  0  0  1  0  0  0  0  0999 V2000
   16.8705  -15.5547  -17.0623 C   0  0  0  0  0  0  0  0  0  0  0  0
   17.1225  -14.5396  -15.9768 C   0  0  1  0  0  0  0  0  0  0  0  0
   18.3557  -14.9537  -15.2155 C   0  0  0  0  0  0  0  0  0  0  0  0
   17.3233  -13.1549  -16.5255 C   0  0  0  0  0  0  0  0  0  0  0  0
   17.5494  -12.1574  -15.4339 C   0  0  2  0  0  0  0  0  0  0  0  0
   16.4237  -11.9999  -14.5552 N   0  0  0  0  0  0  0  0  0  0  0  0
   17.8538  -10.8248  -16.0353 C   0  0  0  0  0  0  0  0  0  0  0  0
   18.7713  -10.6875  -16.8654 O   0  0  0  0  0  0  0  0  0  0  0  0
   13.8699   -6.4886  -17.6377 N   0  0  0  0  0  0  0  0  0  0  0  0
   13.8371   -7.0211  -16.3164 C   0  0  0  0  0  0  0  0  0  0  0  0
   12.7950   -6.8156  -15.6409 O   0  0  0  0  0  0  0  0  0  0  0  0
   14.9887   -7.7913  -15.7530 C   0  0  0  0  0  0  0  0  0  0  0  0
   16.1187   -7.7369  -16.7497 C   0  0  0  0  0  0  0  0  0  0  0  0
   17.3552   -8.4303  -16.2323 C   0  0  2  0  0  0  0  0  0  0  0  0
   17.0796   -9.7087  -15.6467 N   0  0  0  0  0  0  0  0  0  0  0  0
   17.9710   -7.5320  -15.2117 C   0  0  0  0  0  0  0  0  0  0  0  0
   17.5836   -7.5283  -14.0048 O   0  0  0  0  0  0  0  0  0  0  0  0
   19.0226   -6.6326  -15.5312 N   0  0  0  0  0  0  0  0  0  0  0  0
   19.6288   -5.7509  -14.5797 C   0  0  1  0  0  0  0  0  0  0  0  0
   21.1129   -6.0734  -14.5182 C   0  0  0  0  0  0  0  0  0  0  0  0
   21.8417   -5.2247  -13.5795 C   0  0  0  0  0  0  0  0  0  0  0  0
   21.2859   -4.3287  -12.9003 O   0  0  0  0  0  0  0  0  0  0  0  0
   19.3834   -4.3354  -14.8257 C   0  0  0  0  0  0  0  0  0  0  0  0
   19.3709   -3.8721  -15.9866 O   0  0  0  0  0  0  0  0  0  0  0  0
   23.2061   -5.4004  -13.4174 O   0  0  0  0  0  0  0  0  0  0  0  0
   19.1565   -3.4590  -13.7843 O   0  0  0  0  0  0  0  0  0  0  0  0
  2  3  1  6
  2  1  1  0
  4  2  1  0
  5  4  1  0
  5  6  1  6
  7  5  1  0
  8  7  2  0
 10 12  1  0
 10  9  1  0
 11 10  2  0
 14 13  1  1
 13 12  1  0
 14 15  1  0
 15  7  1  0
 16 14  1  0
 17 16  2  0
 18 16  1  0
 19 23  1  0
 19 18  1  0
 19 20  1  6
 21 20  1  0
 21 25  1  0
 22 21  2  0
 23 26  1  0
 24 23  2  0
M  END
$$$$
