LQD.pdb
     RDKit          3D

 26 25  0  0  1  0  0  0  0  0999 V2000
   17.7556  -14.1015  -14.4683 C   0  0  0  0  0  0  0  0  0  0  0  0
   17.7154  -12.9128  -15.3943 C   0  0  1  0  0  0  0  0  0  0  0  0
   16.2751  -12.5209  -15.6030 C   0  0  0  0  0  0  0  0  0  0  0  0
   18.4723  -11.7359  -14.8456 C   0  0  0  0  0  0  0  0  0  0  0  0
   18.4373  -10.5722  -15.7850 C   0  0  2  0  0  0  0  0  0  0  0  0
   19.0320  -10.8460  -17.0638 N   0  0  0  0  0  0  0  0  0  0  0  0
   19.1668   -9.4207  -15.1751 C   0  0  0  0  0  0  0  0  0  0  0  0
   18.8924   -9.0186  -14.0293 O   0  0  0  0  0  0  0  0  0  0  0  0
   24.8562   -7.2211  -16.6338 N   0  0  0  0  0  0  0  0  0  0  0  0
   24.4062   -6.3611  -15.5906 C   0  0  0  0  0  0  0  0  0  0  0  0
   25.2485   -5.5640  -15.1009 O   0  0  0  0  0  0  0  0  0  0  0  0
   22.9953   -6.4007  -15.0959 C   0  0  0  0  0  0  0  0  0  0  0  0
   22.2714   -7.4957  -15.8377 C   0  0  0  0  0  0  0  0  0  0  0  0
   20.8442   -7.6402  -15.3692 C   0  0  2  0  0  0  0  0  0  0  0  0
   20.1840   -8.7854  -15.9222 N   0  0  0  0  0  0  0  0  0  0  0  0
   20.1193   -6.3990  -15.7716 C   0  0  0  0  0  0  0  0  0  0  0  0
   19.8509   -6.1460  -16.9842 O   0  0  0  0  0  0  0  0  0  0  0  0
   19.6897   -5.4328  -14.8236 N   0  0  0  0  0  0  0  0  0  0  0  0
   19.0440   -4.2052  -15.1792 C   0  0  1  0  0  0  0  0  0  0  0  0
   17.7350   -4.1223  -14.4111 C   0  0  0  0  0  0  0  0  0  0  0  0
   16.9628   -2.9244  -14.7296 C   0  0  0  0  0  0  0  0  0  0  0  0
   17.3209   -2.0961  -15.6007 O   0  0  0  0  0  0  0  0  0  0  0  0
   19.8654   -3.0152  -14.9961 C   0  0  0  0  0  0  0  0  0  0  0  0
   20.3516   -2.7289  -13.8806 O   0  0  0  0  0  0  0  0  0  0  0  0
   15.7809   -2.6735  -14.0520 O   0  0  0  0  0  0  0  0  0  0  0  0
   20.1339   -2.1645  -16.0488 O   0  0  0  0  0  0  0  0  0  0  0  0
  2  3  1  1
  2  1  1  0
  4  2  1  0
  5  4  1  0
  5  6  1  6
  7  5  1  0
  8  7  2  0
 10 12  1  0
 10  9  1  0
 11 10  2  0
 14 13  1  6
 13 12  1  0
 14 15  1  0
 15  7  1  0
 16 14  1  0
 17 16  2  0
 18 16  1  0
 19 23  1  0
 19 18  1  0
 19 20  1  1
 21 20  1  0
 21 25  1  0
 22 21  2  0
 23 26  1  0
 24 23  2  0
M  END
$$$$
