LQD.pdb
     RDKit          3D

 26 25  0  0  1  0  0  0  0  0999 V2000
   28.9312  -12.4431  -16.9353 C   0  0  0  0  0  0  0  0  0  0  0  0
   27.5563  -12.8398  -16.4618 C   0  0  1  0  0  0  0  0  0  0  0  0
   27.5525  -12.8348  -14.9546 C   0  0  0  0  0  0  0  0  0  0  0  0
   26.4892  -11.9065  -16.9609 C   0  0  0  0  0  0  0  0  0  0  0  0
   25.1229  -12.3715  -16.5674 C   0  0  2  0  0  0  0  0  0  0  0  0
   24.7664  -13.6475  -17.1230 N   0  0  0  0  0  0  0  0  0  0  0  0
   24.1096  -11.3727  -17.0210 C   0  0  0  0  0  0  0  0  0  0  0  0
   24.2669  -10.7288  -18.0748 O   0  0  0  0  0  0  0  0  0  0  0  0
   20.9079  -14.3450  -18.0331 N   0  0  0  0  0  0  0  0  0  0  0  0
   20.4737  -13.2276  -17.2629 C   0  0  0  0  0  0  0  0  0  0  0  0
   20.1413  -13.4483  -16.0691 O   0  0  0  0  0  0  0  0  0  0  0  0
   20.4140  -11.8508  -17.8440 C   0  0  0  0  0  0  0  0  0  0  0  0
   20.5693  -10.8615  -16.7169 C   0  0  0  0  0  0  0  0  0  0  0  0
   21.9505  -10.2541  -16.6916 C   0  0  2  0  0  0  0  0  0  0  0  0
   22.9567  -11.1644  -16.2311 N   0  0  0  0  0  0  0  0  0  0  0  0
   21.8947   -9.0673  -15.7881 C   0  0  0  0  0  0  0  0  0  0  0  0
   22.5567   -9.0186  -14.7083 O   0  0  0  0  0  0  0  0  0  0  0  0
   21.1002   -7.9279  -16.0838 N   0  0  0  0  0  0  0  0  0  0  0  0
   21.0418   -6.7641  -15.2518 C   0  0  1  0  0  0  0  0  0  0  0  0
   22.4629   -6.2729  -15.0293 C   0  0  0  0  0  0  0  0  0  0  0  0
   22.5226   -5.0289  -14.2667 C   0  0  0  0  0  0  0  0  0  0  0  0
   21.8025   -4.8113  -13.2631 O   0  0  0  0  0  0  0  0  0  0  0  0
   20.1669   -5.7095  -15.7485 C   0  0  0  0  0  0  0  0  0  0  0  0
   19.7233   -5.7323  -16.9169 O   0  0  0  0  0  0  0  0  0  0  0  0
   23.4056   -4.0334  -14.6517 O   0  0  0  0  0  0  0  0  0  0  0  0
   19.7988   -4.6501  -14.9447 O   0  0  0  0  0  0  0  0  0  0  0  0
  2  3  1  1
  2  1  1  0
  4  2  1  0
  5  4  1  0
  5  6  1  6
  7  5  1  0
  8  7  2  0
 10 12  1  0
 10  9  1  0
 11 10  2  0
 14 13  1  1
 13 12  1  0
 14 15  1  0
 15  7  1  0
 16 14  1  0
 17 16  2  0
 18 16  1  0
 19 23  1  0
 19 18  1  0
 19 20  1  6
 21 20  1  0
 21 25  1  0
 22 21  2  0
 23 26  1  0
 24 23  2  0
M  END
$$$$
