LQD.pdb
     RDKit          3D

 26 25  0  0  1  0  0  0  0  0999 V2000
   14.6455  -24.1942  -14.0319 C   0  0  0  0  0  0  0  0  0  0  0  0
   15.8529  -24.3254  -13.1390 C   0  0  1  0  0  0  0  0  0  0  0  0
   16.6216  -25.5529  -13.5559 C   0  0  0  0  0  0  0  0  0  0  0  0
   16.7559  -23.1267  -13.2201 C   0  0  0  0  0  0  0  0  0  0  0  0
   17.8695  -23.2078  -12.2246 C   0  0  2  0  0  0  0  0  0  0  0  0
   17.4431  -23.0161  -10.8662 N   0  0  0  0  0  0  0  0  0  0  0  0
   18.8914  -22.1648  -12.5378 C   0  0  0  0  0  0  0  0  0  0  0  0
   18.6995  -20.9687  -12.2510 O   0  0  0  0  0  0  0  0  0  0  0  0
   25.0082  -22.9932  -13.8279 N   0  0  0  0  0  0  0  0  0  0  0  0
   24.7892  -21.6193  -14.1358 C   0  0  0  0  0  0  0  0  0  0  0  0
   25.7952  -20.9378  -14.4645 O   0  0  0  0  0  0  0  0  0  0  0  0
   23.4249  -21.0097  -14.0723 C   0  0  0  0  0  0  0  0  0  0  0  0
   22.4528  -22.0840  -13.6550 C   0  0  0  0  0  0  0  0  0  0  0  0
   21.0454  -21.5515  -13.5405 C   0  0  2  0  0  0  0  0  0  0  0  0
   20.0925  -22.5557  -13.1709 N   0  0  0  0  0  0  0  0  0  0  0  0
   20.6809  -20.9771  -14.8690 C   0  0  0  0  0  0  0  0  0  0  0  0
   19.8024  -21.5124  -15.6094 O   0  0  0  0  0  0  0  0  0  0  0  0
   21.2943  -19.8024  -15.3795 N   0  0  0  0  0  0  0  0  0  0  0  0
   20.7260  -18.9986  -16.4193 C   0  0  1  0  0  0  0  0  0  0  0  0
   19.3917  -18.4643  -15.9249 C   0  0  0  0  0  0  0  0  0  0  0  0
   18.2477  -19.1345  -16.5372 C   0  0  0  0  0  0  0  0  0  0  0  0
   18.2693  -19.5833  -17.7082 O   0  0  0  0  0  0  0  0  0  0  0  0
   21.5972  -17.9365  -16.9065 C   0  0  0  0  0  0  0  0  0  0  0  0
   21.2452  -17.1887  -17.8443 O   0  0  0  0  0  0  0  0  0  0  0  0
   17.0789  -19.2917  -15.8106 O   0  0  0  0  0  0  0  0  0  0  0  0
   22.8405  -17.7211  -16.3483 O   0  0  0  0  0  0  0  0  0  0  0  0
  2  3  1  6
  2  1  1  0
  4  2  1  0
  5  4  1  0
  5  6  1  1
  7  5  1  0
  8  7  2  0
 10 12  1  0
 10  9  1  0
 11 10  2  0
 14 13  1  6
 13 12  1  0
 14 15  1  0
 15  7  1  0
 16 14  1  0
 17 16  2  0
 18 16  1  0
 19 23  1  0
 19 18  1  0
 19 20  1  1
 21 20  1  0
 21 25  1  0
 22 21  2  0
 23 26  1  0
 24 23  2  0
M  END
$$$$
