LQD.pdb
     RDKit          3D

 26 25  0  0  1  0  0  0  0  0999 V2000
   25.1937  -22.7400  -16.5794 C   0  0  0  0  0  0  0  0  0  0  0  0
   24.8983  -24.1178  -16.0441 C   0  0  1  0  0  0  0  0  0  0  0  0
   25.5520  -24.2533  -14.6929 C   0  0  0  0  0  0  0  0  0  0  0  0
   23.4235  -24.3727  -15.9064 C   0  0  0  0  0  0  0  0  0  0  0  0
   23.1493  -25.7376  -15.3591 C   0  0  2  0  0  0  0  0  0  0  0  0
   23.3967  -26.7956  -16.2991 N   0  0  0  0  0  0  0  0  0  0  0  0
   21.7201  -25.8237  -14.9349 C   0  0  0  0  0  0  0  0  0  0  0  0
   20.8148  -26.0394  -15.7617 O   0  0  0  0  0  0  0  0  0  0  0  0
   19.6073  -27.0224   -9.1887 N   0  0  0  0  0  0  0  0  0  0  0  0
   19.5783  -28.0029  -10.2222 C   0  0  0  0  0  0  0  0  0  0  0  0
   19.4577  -29.2050   -9.8690 O   0  0  0  0  0  0  0  0  0  0  0  0
   19.6862  -27.6243  -11.6651 C   0  0  0  0  0  0  0  0  0  0  0  0
   19.8278  -26.1253  -11.7448 C   0  0  0  0  0  0  0  0  0  0  0  0
   20.0283  -25.6568  -13.1653 C   0  0  2  0  0  0  0  0  0  0  0  0
   21.4034  -25.6555  -13.5682 N   0  0  0  0  0  0  0  0  0  0  0  0
   19.4765  -24.2729  -13.2561 C   0  0  0  0  0  0  0  0  0  0  0  0
   20.0632  -23.2840  -12.7230 O   0  0  0  0  0  0  0  0  0  0  0  0
   18.2669  -23.9842  -13.9419 N   0  0  0  0  0  0  0  0  0  0  0  0
   17.6835  -22.6781  -14.0054 C   0  0  1  0  0  0  0  0  0  0  0  0
   17.7522  -22.2015  -15.4471 C   0  0  0  0  0  0  0  0  0  0  0  0
   18.7288  -21.1346  -15.6482 C   0  0  0  0  0  0  0  0  0  0  0  0
   19.4134  -20.6543  -14.7135 O   0  0  0  0  0  0  0  0  0  0  0  0
   16.3339  -22.5921  -13.4615 C   0  0  0  0  0  0  0  0  0  0  0  0
   15.7654  -21.4893  -13.3101 O   0  0  0  0  0  0  0  0  0  0  0  0
   18.9229  -20.6168  -16.9183 O   0  0  0  0  0  0  0  0  0  0  0  0
   15.6385  -23.7263  -13.0955 O   0  0  0  0  0  0  0  0  0  0  0  0
  2  3  1  1
  2  1  1  0
  4  2  1  0
  5  4  1  0
  5  6  1  6
  7  5  1  0
  8  7  2  0
 10 12  1  0
 10  9  1  0
 11 10  2  0
 14 13  1  1
 13 12  1  0
 14 15  1  0
 15  7  1  0
 16 14  1  0
 17 16  2  0
 18 16  1  0
 19 23  1  0
 19 18  1  0
 19 20  1  6
 21 20  1  0
 21 25  1  0
 22 21  2  0
 23 26  1  0
 24 23  2  0
M  END
$$$$
