LQD.pdb
     RDKit          3D

 26 25  0  0  1  0  0  0  0  0999 V2000
   20.0978  -16.0134  -20.4100 C   0  0  0  0  0  0  0  0  0  0  0  0
   20.9353  -15.1551  -19.4967 C   0  0  1  0  0  0  0  0  0  0  0  0
   22.2769  -14.9365  -20.1476 C   0  0  0  0  0  0  0  0  0  0  0  0
   20.2973  -13.8224  -19.2218 C   0  0  0  0  0  0  0  0  0  0  0  0
   21.1611  -12.9679  -18.3491 C   0  0  2  0  0  0  0  0  0  0  0  0
   21.4565  -13.5601  -17.0740 N   0  0  0  0  0  0  0  0  0  0  0  0
   20.4795  -11.6621  -18.1033 C   0  0  0  0  0  0  0  0  0  0  0  0
   20.0645  -10.9645  -19.0473 O   0  0  0  0  0  0  0  0  0  0  0  0
   15.9426  -10.6428  -14.4534 N   0  0  0  0  0  0  0  0  0  0  0  0
   16.2831   -9.2990  -14.7828 C   0  0  0  0  0  0  0  0  0  0  0  0
   15.4723   -8.4006  -14.4366 O   0  0  0  0  0  0  0  0  0  0  0  0
   17.5479   -8.9662  -15.5084 C   0  0  0  0  0  0  0  0  0  0  0  0
   18.3039  -10.2499  -15.7411 C   0  0  0  0  0  0  0  0  0  0  0  0
   19.5735  -10.0178  -16.5231 C   0  0  2  0  0  0  0  0  0  0  0  0
   20.3090  -11.2222  -16.7715 N   0  0  0  0  0  0  0  0  0  0  0  0
   20.4127   -9.0703  -15.7321 C   0  0  0  0  0  0  0  0  0  0  0  0
   21.0789   -9.4510  -14.7233 O   0  0  0  0  0  0  0  0  0  0  0  0
   20.5135   -7.6926  -16.0617 N   0  0  0  0  0  0  0  0  0  0  0  0
   21.4354   -6.7929  -15.4365 C   0  0  1  0  0  0  0  0  0  0  0  0
   21.5049   -5.5297  -16.2790 C   0  0  0  0  0  0  0  0  0  0  0  0
   22.4041   -4.5227  -15.7222 C   0  0  0  0  0  0  0  0  0  0  0  0
   22.1991   -3.9639  -14.6182 O   0  0  0  0  0  0  0  0  0  0  0  0
   21.1446   -6.5055  -14.0374 C   0  0  0  0  0  0  0  0  0  0  0  0
   21.9753   -5.9194  -13.3101 O   0  0  0  0  0  0  0  0  0  0  0  0
   23.5378   -4.1544  -16.4278 O   0  0  0  0  0  0  0  0  0  0  0  0
   19.9417   -6.8712  -13.4690 O   0  0  0  0  0  0  0  0  0  0  0  0
  2  3  1  6
  2  1  1  0
  4  2  1  0
  5  4  1  0
  5  6  1  1
  7  5  1  0
  8  7  2  0
 10 12  1  0
 10  9  1  0
 11 10  2  0
 14 13  1  1
 13 12  1  0
 14 15  1  0
 15  7  1  0
 16 14  1  0
 17 16  2  0
 18 16  1  0
 19 23  1  0
 19 18  1  0
 19 20  1  6
 21 20  1  0
 21 25  1  0
 22 21  2  0
 23 26  1  0
 24 23  2  0
M  END
$$$$
