LQD.pdb
     RDKit          3D

 26 25  0  0  1  0  0  0  0  0999 V2000
   28.7720  -20.6185   -7.0260 C   0  0  0  0  0  0  0  0  0  0  0  0
   27.3352  -20.4755   -7.4586 C   0  0  1  0  0  0  0  0  0  0  0  0
   26.8608  -19.0949   -7.0836 C   0  0  0  0  0  0  0  0  0  0  0  0
   27.1625  -20.6713   -8.9387 C   0  0  0  0  0  0  0  0  0  0  0  0
   25.8193  -20.2042   -9.4030 C   0  0  2  0  0  0  0  0  0  0  0  0
   24.7337  -21.0269   -8.9462 N   0  0  0  0  0  0  0  0  0  0  0  0
   25.7886  -20.1887  -10.8960 C   0  0  0  0  0  0  0  0  0  0  0  0
   26.7030  -19.6582  -11.5534 O   0  0  0  0  0  0  0  0  0  0  0  0
   23.2173  -24.4592  -14.5592 N   0  0  0  0  0  0  0  0  0  0  0  0
   24.5838  -24.4177  -14.1572 C   0  0  0  0  0  0  0  0  0  0  0  0
   25.2725  -25.4519  -14.3586 O   0  0  0  0  0  0  0  0  0  0  0  0
   25.1776  -23.2003  -13.5230 C   0  0  0  0  0  0  0  0  0  0  0  0
   24.1441  -22.1031  -13.5612 C   0  0  0  0  0  0  0  0  0  0  0  0
   24.6786  -20.8108  -12.9942 C   0  0  2  0  0  0  0  0  0  0  0  0
   24.6970  -20.7903  -11.5616 N   0  0  0  0  0  0  0  0  0  0  0  0
   23.8060  -19.7113  -13.5016 C   0  0  0  0  0  0  0  0  0  0  0  0
   22.7884  -19.3156  -12.8578 O   0  0  0  0  0  0  0  0  0  0  0  0
   24.0633  -19.0468  -14.7300 N   0  0  0  0  0  0  0  0  0  0  0  0
   23.2582  -17.9766  -15.2367 C   0  0  1  0  0  0  0  0  0  0  0  0
   24.1550  -17.0571  -16.0494 C   0  0  0  0  0  0  0  0  0  0  0  0
   23.4301  -15.9423  -16.6530 C   0  0  0  0  0  0  0  0  0  0  0  0
   22.6105  -15.2390  -16.0152 O   0  0  0  0  0  0  0  0  0  0  0  0
   22.0856  -18.4061  -15.9883 C   0  0  0  0  0  0  0  0  0  0  0  0
   22.1631  -19.3075  -16.8509 O   0  0  0  0  0  0  0  0  0  0  0  0
   23.6422  -15.6315  -17.9861 O   0  0  0  0  0  0  0  0  0  0  0  0
   20.8497  -17.8316  -15.7723 O   0  0  0  0  0  0  0  0  0  0  0  0
  2  3  1  6
  2  1  1  0
  4  2  1  0
  5  4  1  0
  5  6  1  6
  7  5  1  0
  8  7  2  0
 10 12  1  0
 10  9  1  0
 11 10  2  0
 14 13  1  1
 13 12  1  0
 14 15  1  0
 15  7  1  0
 16 14  1  0
 17 16  2  0
 18 16  1  0
 19 23  1  0
 19 18  1  0
 19 20  1  6
 21 20  1  0
 21 25  1  0
 22 21  2  0
 23 26  1  0
 24 23  2  0
M  END
$$$$
