LQD.pdb
     RDKit          3D

 26 25  0  0  1  0  0  0  0  0999 V2000
   26.5964  -16.7073  -17.3714 C   0  0  0  0  0  0  0  0  0  0  0  0
   27.3356  -17.7745  -16.6054 C   0  0  1  0  0  0  0  0  0  0  0  0
   28.2416  -17.1017  -15.6064 C   0  0  0  0  0  0  0  0  0  0  0  0
   26.4046  -18.7044  -15.8791 C   0  0  0  0  0  0  0  0  0  0  0  0
   27.1546  -19.7586  -15.1280 C   0  0  2  0  0  0  0  0  0  0  0  0
   27.8977  -20.6504  -15.9744 N   0  0  0  0  0  0  0  0  0  0  0  0
   26.1938  -20.5762  -14.3289 C   0  0  0  0  0  0  0  0  0  0  0  0
   25.6902  -21.6153  -14.7940 O   0  0  0  0  0  0  0  0  0  0  0  0
   25.3916  -20.5224   -8.0982 N   0  0  0  0  0  0  0  0  0  0  0  0
   26.5501  -20.7995   -8.8801 C   0  0  0  0  0  0  0  0  0  0  0  0
   27.6522  -20.8510   -8.2741 O   0  0  0  0  0  0  0  0  0  0  0  0
   26.4646  -21.0202  -10.3569 C   0  0  0  0  0  0  0  0  0  0  0  0
   25.0443  -20.7537  -10.7870 C   0  0  0  0  0  0  0  0  0  0  0  0
   24.8778  -20.8862  -12.2810 C   0  0  2  0  0  0  0  0  0  0  0  0
   25.8589  -20.1517  -13.0235 N   0  0  0  0  0  0  0  0  0  0  0  0
   23.5129  -20.3860  -12.6195 C   0  0  0  0  0  0  0  0  0  0  0  0
   23.2115  -19.1579  -12.5332 O   0  0  0  0  0  0  0  0  0  0  0  0
   22.4761  -21.2528  -13.0562 N   0  0  0  0  0  0  0  0  0  0  0  0
   21.2147  -20.7929  -13.5536 C   0  0  1  0  0  0  0  0  0  0  0  0
   21.4811  -19.8748  -14.7353 C   0  0  0  0  0  0  0  0  0  0  0  0
   21.3916  -20.5613  -16.0212 C   0  0  0  0  0  0  0  0  0  0  0  0
   21.0415  -21.7609  -16.1288 O   0  0  0  0  0  0  0  0  0  0  0  0
   20.2719  -21.8544  -13.8835 C   0  0  0  0  0  0  0  0  0  0  0  0
   19.0696  -21.6039  -14.1164 O   0  0  0  0  0  0  0  0  0  0  0  0
   21.7022  -19.8761  -17.1843 O   0  0  0  0  0  0  0  0  0  0  0  0
   20.6756  -23.1721  -13.9497 O   0  0  0  0  0  0  0  0  0  0  0  0
  2  3  1  1
  2  1  1  0
  4  2  1  0
  5  4  1  0
  5  6  1  6
  7  5  1  0
  8  7  2  0
 10 12  1  0
 10  9  1  0
 11 10  2  0
 14 13  1  1
 13 12  1  0
 14 15  1  0
 15  7  1  0
 16 14  1  0
 17 16  2  0
 18 16  1  0
 19 23  1  0
 19 18  1  0
 19 20  1  6
 21 20  1  0
 21 25  1  0
 22 21  2  0
 23 26  1  0
 24 23  2  0
M  END
$$$$
