LQD.pdb
     RDKit          3D

 26 25  0  0  1  0  0  0  0  0999 V2000
   14.2927  -12.0755  -16.0581 C   0  0  0  0  0  0  0  0  0  0  0  0
   15.7217  -11.7127  -16.3717 C   0  0  1  0  0  0  0  0  0  0  0  0
   15.7444  -10.9491  -17.6709 C   0  0  0  0  0  0  0  0  0  0  0  0
   16.3468  -10.8718  -15.2942 C   0  0  0  0  0  0  0  0  0  0  0  0
   17.7642  -10.5225  -15.6211 C   0  0  2  0  0  0  0  0  0  0  0  0
   18.6619  -11.6426  -15.5620 N   0  0  0  0  0  0  0  0  0  0  0  0
   18.2541   -9.4889  -14.6609 C   0  0  0  0  0  0  0  0  0  0  0  0
   18.0707   -9.6098  -13.4356 O   0  0  0  0  0  0  0  0  0  0  0  0
   23.5300   -6.5284  -14.5851 N   0  0  0  0  0  0  0  0  0  0  0  0
   22.7782   -5.7399  -13.6667 C   0  0  0  0  0  0  0  0  0  0  0  0
   23.4021   -4.8527  -13.0278 O   0  0  0  0  0  0  0  0  0  0  0  0
   21.3114   -5.9539  -13.4676 C   0  0  0  0  0  0  0  0  0  0  0  0
   20.8639   -7.0338  -14.4201 C   0  0  0  0  0  0  0  0  0  0  0  0
   19.3999   -7.3581  -14.2505 C   0  0  2  0  0  0  0  0  0  0  0  0
   18.9360   -8.3588  -15.1652 N   0  0  0  0  0  0  0  0  0  0  0  0
   18.6393   -6.0916  -14.4628 C   0  0  0  0  0  0  0  0  0  0  0  0
   18.7129   -5.1240  -13.6475 O   0  0  0  0  0  0  0  0  0  0  0  0
   17.7922   -5.8970  -15.5859 N   0  0  0  0  0  0  0  0  0  0  0  0
   17.0192   -4.7109  -15.8003 C   0  0  1  0  0  0  0  0  0  0  0  0
   17.5758   -4.0011  -17.0237 C   0  0  0  0  0  0  0  0  0  0  0  0
   16.9026   -2.7357  -17.3033 C   0  0  0  0  0  0  0  0  0  0  0  0
   16.1084   -2.1952  -16.4969 O   0  0  0  0  0  0  0  0  0  0  0  0
   15.5826   -4.9359  -15.9012 C   0  0  0  0  0  0  0  0  0  0  0  0
   15.1245   -5.9711  -16.4313 O   0  0  0  0  0  0  0  0  0  0  0  0
   17.1373   -2.0882  -18.5051 O   0  0  0  0  0  0  0  0  0  0  0  0
   14.6799   -4.0129  -15.4144 O   0  0  0  0  0  0  0  0  0  0  0  0
  2  3  1  6
  2  1  1  0
  4  2  1  0
  5  4  1  0
  5  6  1  1
  7  5  1  0
  8  7  2  0
 10 12  1  0
 10  9  1  0
 11 10  2  0
 14 13  1  6
 13 12  1  0
 14 15  1  0
 15  7  1  0
 16 14  1  0
 17 16  2  0
 18 16  1  0
 19 23  1  0
 19 18  1  0
 19 20  1  6
 21 20  1  0
 21 25  1  0
 22 21  2  0
 23 26  1  0
 24 23  2  0
M  END
$$$$
