VWD.pdb
     RDKit          3D

 30 31  0  0  1  0  0  0  0  0999 V2000
    7.0887  -13.4444   18.8785 C   0  0  0  0  0  0  0  0  0  0  0  0
    8.0103  -13.6006   20.0561 C   0  0  1  0  0  0  0  0  0  0  0  0
    7.3083  -13.0203   21.2704 C   0  0  0  0  0  0  0  0  0  0  0  0
    8.3172  -15.0473   20.3734 C   0  0  2  0  0  0  0  0  0  0  0  0
    7.0673  -15.7487   20.4574 N   0  0  0  0  0  0  0  0  0  0  0  0
    9.1424  -15.1849   21.5951 C   0  0  0  0  0  0  0  0  0  0  0  0
   10.2774  -14.6477   21.5904 O   0  0  0  0  0  0  0  0  0  0  0  0
    8.6627  -15.9026   22.7350 N   0  0  0  0  0  0  0  0  0  0  0  0
    9.4363  -15.9540   23.9431 C   0  0  1  0  0  0  0  0  0  0  0  0
    8.4928  -16.3750   25.0775 C   0  0  0  0  0  0  0  0  0  0  0  0
    7.4000  -15.3817   25.2392 C   0  0  0  0  0  0  0  0  0  0  0  0
    6.0830  -15.5671   24.9055 C   0  0  0  0  0  0  0  0  0  0  0  0
    5.4274  -14.4398   25.2054 N   0  0  0  0  0  0  0  0  0  0  0  0
    6.2716  -13.5388   25.7182 C   0  0  0  0  0  0  0  0  0  0  0  0
    6.1075  -12.2367   26.1830 C   0  0  0  0  0  0  0  0  0  0  0  0
    7.1749  -11.5116   26.6730 C   0  0  0  0  0  0  0  0  0  0  0  0
    8.4282  -12.0764   26.7072 C   0  0  0  0  0  0  0  0  0  0  0  0
    8.5919  -13.3659   26.2472 C   0  0  0  0  0  0  0  0  0  0  0  0
    7.5168  -14.1107   25.7482 C   0  0  0  0  0  0  0  0  0  0  0  0
   10.6012  -16.8440   23.8632 C   0  0  0  0  0  0  0  0  0  0  0  0
   10.5003  -17.8944   23.1737 O   0  0  0  0  0  0  0  0  0  0  0  0
   11.8155  -16.5314   24.5457 N   0  0  0  0  0  0  0  0  0  0  0  0
   12.9367  -17.4216   24.4012 C   0  0  1  0  0  0  0  0  0  0  0  0
   14.1329  -16.6427   23.9280 C   0  0  0  0  0  0  0  0  0  0  0  0
   15.3600  -17.4743   23.8648 C   0  0  0  0  0  0  0  0  0  0  0  0
   15.2718  -18.6912   23.5161 O   0  0  0  0  0  0  0  0  0  0  0  0
   13.2895  -18.0038   25.7274 C   0  0  0  0  0  0  0  0  0  0  0  0
   14.2025  -19.0377   25.7506 O   0  0  0  0  0  0  0  0  0  0  0  0
   16.6347  -17.0198   24.1647 O   0  0  0  0  0  0  0  0  0  0  0  0
   12.7959  -17.5927   26.7846 O   0  0  0  0  0  0  0  0  0  0  0  0
  2  1  1  6
  2  3  1  0
  2  4  1  0
  4  5  1  1
  6  4  1  0
  6  7  2  0
  8  6  1  0
  9  8  1  0
  9 20  1  0
  9 10  1  1
 11 10  1  0
 11 12  2  0
 13 12  1  0
 14 19  2  0
 14 13  1  0
 15 14  1  0
 16 17  1  0
 16 15  2  0
 17 18  2  0
 18 19  1  0
 19 11  1  0
 20 21  2  0
 20 22  1  0
 22 23  1  0
 23 27  1  0
 23 24  1  1
 25 24  1  0
 26 25  2  0
 27 30  2  0
 27 28  1  0
 29 25  1  0
M  END
$$$$
