VWD.pdb
     RDKit          3D

 30 31  0  0  1  0  0  0  0  0999 V2000
    9.1565  -19.0500   20.4167 C   0  0  0  0  0  0  0  0  0  0  0  0
    9.3171  -18.0248   19.3289 C   0  0  1  0  0  0  0  0  0  0  0  0
    8.6699  -18.5803   18.0733 C   0  0  0  0  0  0  0  0  0  0  0  0
    8.6196  -16.7203   19.6444 C   0  0  2  0  0  0  0  0  0  0  0  0
    8.3968  -16.0347   18.4028 N   0  0  0  0  0  0  0  0  0  0  0  0
    9.3753  -15.9097   20.6265 C   0  0  0  0  0  0  0  0  0  0  0  0
   10.6284  -15.9237   20.5464 O   0  0  0  0  0  0  0  0  0  0  0  0
    8.7015  -15.1415   21.6267 N   0  0  0  0  0  0  0  0  0  0  0  0
    8.8986  -15.4250   23.0200 C   0  0  1  0  0  0  0  0  0  0  0  0
    7.6131  -16.0785   23.5442 C   0  0  0  0  0  0  0  0  0  0  0  0
    7.0532  -15.2905   24.6723 C   0  0  0  0  0  0  0  0  0  0  0  0
    6.0604  -15.6953   25.5271 C   0  0  0  0  0  0  0  0  0  0  0  0
    5.8465  -14.7020   26.3977 N   0  0  0  0  0  0  0  0  0  0  0  0
    6.6629  -13.6761   26.1354 C   0  0  0  0  0  0  0  0  0  0  0  0
    6.8438  -12.4282   26.7256 C   0  0  0  0  0  0  0  0  0  0  0  0
    7.7806  -11.5369   26.2426 C   0  0  0  0  0  0  0  0  0  0  0  0
    8.5549  -11.8779   25.1586 C   0  0  0  0  0  0  0  0  0  0  0  0
    8.3765  -13.1135   24.5733 C   0  0  0  0  0  0  0  0  0  0  0  0
    7.4298  -14.0254   25.0545 C   0  0  0  0  0  0  0  0  0  0  0  0
   10.0712  -16.2651   23.2935 C   0  0  0  0  0  0  0  0  0  0  0  0
   10.1624  -17.3709   22.6953 O   0  0  0  0  0  0  0  0  0  0  0  0
   11.0815  -15.8444   24.2103 N   0  0  0  0  0  0  0  0  0  0  0  0
   12.1659  -16.7440   24.5020 C   0  0  1  0  0  0  0  0  0  0  0  0
   13.4710  -16.0744   24.1700 C   0  0  0  0  0  0  0  0  0  0  0  0
   14.6391  -16.9494   24.4371 C   0  0  0  0  0  0  0  0  0  0  0  0
   14.6300  -18.1474   24.0191 O   0  0  0  0  0  0  0  0  0  0  0  0
   12.1878  -17.0472   25.9613 C   0  0  0  0  0  0  0  0  0  0  0  0
   13.0479  -18.0334   26.3978 O   0  0  0  0  0  0  0  0  0  0  0  0
   15.7750  -16.5560   25.1272 O   0  0  0  0  0  0  0  0  0  0  0  0
   11.4705  -16.4503   26.7735 O   0  0  0  0  0  0  0  0  0  0  0  0
  2  1  1  1
  2  3  1  0
  2  4  1  0
  4  5  1  6
  6  4  1  0
  6  7  2  0
  8  6  1  0
  9  8  1  0
  9 20  1  0
  9 10  1  6
 11 10  1  0
 11 12  2  0
 13 12  1  0
 14 19  2  0
 14 13  1  0
 15 14  1  0
 16 17  1  0
 16 15  2  0
 17 18  2  0
 18 19  1  0
 19 11  1  0
 20 21  2  0
 20 22  1  0
 22 23  1  0
 23 27  1  0
 23 24  1  1
 25 24  1  0
 26 25  2  0
 27 30  2  0
 27 28  1  0
 29 25  1  0
M  END
$$$$
