VWD.pdb
     RDKit          3D

 30 31  0  0  1  0  0  0  0  0999 V2000
    8.7790  -16.6302   18.5973 C   0  0  0  0  0  0  0  0  0  0  0  0
    8.7981  -15.2431   18.0180 C   0  0  1  0  0  0  0  0  0  0  0  0
    8.2868  -15.3327   16.5915 C   0  0  0  0  0  0  0  0  0  0  0  0
    7.8861  -14.2870   18.7541 C   0  0  2  0  0  0  0  0  0  0  0  0
    7.9640  -13.0151   18.0925 N   0  0  0  0  0  0  0  0  0  0  0  0
    8.2098  -14.2106   20.1970 C   0  0  0  0  0  0  0  0  0  0  0  0
    9.2615  -13.6069   20.5230 O   0  0  0  0  0  0  0  0  0  0  0  0
    7.3557  -14.8024   21.1793 N   0  0  0  0  0  0  0  0  0  0  0  0
    7.7690  -14.8836   22.5515 C   0  0  1  0  0  0  0  0  0  0  0  0
    6.5123  -15.1242   23.3984 C   0  0  0  0  0  0  0  0  0  0  0  0
    6.8407  -15.0548   24.8456 C   0  0  0  0  0  0  0  0  0  0  0  0
    7.1512  -16.1164   25.6560 C   0  0  0  0  0  0  0  0  0  0  0  0
    7.3808  -15.6347   26.8831 N   0  0  0  0  0  0  0  0  0  0  0  0
    7.2299  -14.3063   26.8919 C   0  0  0  0  0  0  0  0  0  0  0  0
    7.3501  -13.3409   27.8879 C   0  0  0  0  0  0  0  0  0  0  0  0
    7.1337  -12.0044   27.6193 C   0  0  0  0  0  0  0  0  0  0  0  0
    6.7926  -11.6082   26.3475 C   0  0  0  0  0  0  0  0  0  0  0  0
    6.6733  -12.5633   25.3604 C   0  0  0  0  0  0  0  0  0  0  0  0
    6.8904  -13.9214   25.6210 C   0  0  0  0  0  0  0  0  0  0  0  0
    8.7850  -15.9128   22.8043 C   0  0  0  0  0  0  0  0  0  0  0  0
    8.6304  -17.0441   22.2703 O   0  0  0  0  0  0  0  0  0  0  0  0
    9.9173  -15.6433   23.6309 N   0  0  0  0  0  0  0  0  0  0  0  0
   10.9592  -16.6320   23.7172 C   0  0  1  0  0  0  0  0  0  0  0  0
   12.2275  -16.0705   23.1359 C   0  0  0  0  0  0  0  0  0  0  0  0
   13.3463  -17.0441   23.1743 C   0  0  0  0  0  0  0  0  0  0  0  0
   13.0942  -18.2868   23.1244 O   0  0  0  0  0  0  0  0  0  0  0  0
   11.2349  -16.9471   25.1478 C   0  0  0  0  0  0  0  0  0  0  0  0
   10.4677  -16.3127   26.1027 O   0  0  0  0  0  0  0  0  0  0  0  0
   14.6860  -16.6998   23.2637 O   0  0  0  0  0  0  0  0  0  0  0  0
   12.1144  -17.7455   25.4935 O   0  0  0  0  0  0  0  0  0  0  0  0
  2  1  1  1
  2  3  1  0
  2  4  1  0
  4  5  1  6
  6  4  1  0
  6  7  2  0
  8  6  1  0
  9  8  1  0
  9 20  1  0
  9 10  1  1
 11 10  1  0
 11 12  2  0
 13 12  1  0
 14 19  2  0
 14 13  1  0
 15 14  1  0
 16 17  1  0
 16 15  2  0
 17 18  2  0
 18 19  1  0
 19 11  1  0
 20 21  2  0
 20 22  1  0
 22 23  1  0
 23 27  1  0
 23 24  1  1
 25 24  1  0
 26 25  2  0
 27 30  2  0
 27 28  1  0
 29 25  1  0
M  END
$$$$
