VWD.pdb
     RDKit          3D

 30 31  0  0  1  0  0  0  0  0999 V2000
    9.0369  -17.6112   19.9810 C   0  0  0  0  0  0  0  0  0  0  0  0
    8.1344  -16.4430   19.6962 C   0  0  1  0  0  0  0  0  0  0  0  0
    7.1799  -16.8571   18.5911 C   0  0  0  0  0  0  0  0  0  0  0  0
    7.2876  -16.0517   20.8868 C   0  0  2  0  0  0  0  0  0  0  0  0
    6.4021  -15.0032   20.4650 N   0  0  0  0  0  0  0  0  0  0  0  0
    8.1139  -15.6769   22.0570 C   0  0  0  0  0  0  0  0  0  0  0  0
    8.6970  -14.5653   22.0214 O   0  0  0  0  0  0  0  0  0  0  0  0
    8.2411  -16.5491   23.1829 N   0  0  0  0  0  0  0  0  0  0  0  0
    9.1509  -16.2367   24.2483 C   0  0  1  0  0  0  0  0  0  0  0  0
    8.3709  -16.3380   25.5658 C   0  0  0  0  0  0  0  0  0  0  0  0
    7.3255  -15.2845   25.6322 C   0  0  0  0  0  0  0  0  0  0  0  0
    5.9916  -15.4509   25.3616 C   0  0  0  0  0  0  0  0  0  0  0  0
    5.3930  -14.2670   25.5360 N   0  0  0  0  0  0  0  0  0  0  0  0
    6.2899  -13.3478   25.9077 C   0  0  0  0  0  0  0  0  0  0  0  0
    6.1947  -11.9921   26.2099 C   0  0  0  0  0  0  0  0  0  0  0  0
    7.3066  -11.2602   26.5748 C   0  0  0  0  0  0  0  0  0  0  0  0
    8.5363  -11.8718   26.6443 C   0  0  0  0  0  0  0  0  0  0  0  0
    8.6317  -13.2144   26.3454 C   0  0  0  0  0  0  0  0  0  0  0  0
    7.5111  -13.9666   25.9742 C   0  0  0  0  0  0  0  0  0  0  0  0
   10.3481  -17.0863   24.2732 C   0  0  0  0  0  0  0  0  0  0  0  0
   10.1966  -18.3305   24.1388 O   0  0  0  0  0  0  0  0  0  0  0  0
   11.6484  -16.5224   24.4443 N   0  0  0  0  0  0  0  0  0  0  0  0
   12.7777  -17.4092   24.5384 C   0  0  1  0  0  0  0  0  0  0  0  0
   14.0382  -16.6423   24.2471 C   0  0  0  0  0  0  0  0  0  0  0  0
   14.0688  -16.1104   22.8624 C   0  0  0  0  0  0  0  0  0  0  0  0
   13.6858  -16.8465   21.9024 O   0  0  0  0  0  0  0  0  0  0  0  0
   12.8930  -17.9292   25.9306 C   0  0  0  0  0  0  0  0  0  0  0  0
   11.9712  -17.4882   26.8573 O   0  0  0  0  0  0  0  0  0  0  0  0
   14.4947  -14.8370   22.5181 O   0  0  0  0  0  0  0  0  0  0  0  0
   13.7743  -18.7285   26.2692 O   0  0  0  0  0  0  0  0  0  0  0  0
  2  1  1  1
  2  3  1  0
  2  4  1  0
  4  5  1  6
  6  4  1  0
  6  7  2  0
  8  6  1  0
  9  8  1  0
  9 20  1  0
  9 10  1  1
 11 10  1  0
 11 12  2  0
 13 12  1  0
 14 19  2  0
 14 13  1  0
 15 14  1  0
 16 17  1  0
 16 15  2  0
 17 18  2  0
 18 19  1  0
 19 11  1  0
 20 21  2  0
 20 22  1  0
 22 23  1  0
 23 27  1  0
 23 24  1  1
 25 24  1  0
 26 25  2  0
 27 30  2  0
 27 28  1  0
 29 25  1  0
M  END
$$$$
