VWD.pdb
     RDKit          3D

 30 31  0  0  1  0  0  0  0  0999 V2000
    7.6570  -13.2097   17.0834 C   0  0  0  0  0  0  0  0  0  0  0  0
    8.2495  -13.1948   18.4650 C   0  0  1  0  0  0  0  0  0  0  0  0
    7.2008  -12.6367   19.4098 C   0  0  0  0  0  0  0  0  0  0  0  0
    8.6041  -14.5770   18.9664 C   0  0  2  0  0  0  0  0  0  0  0  0
    7.5306  -15.4594   18.6053 N   0  0  0  0  0  0  0  0  0  0  0  0
    8.8961  -14.5833   20.4181 C   0  0  0  0  0  0  0  0  0  0  0  0
    9.9717  -14.0557   20.7943 O   0  0  0  0  0  0  0  0  0  0  0  0
    7.9863  -15.1683   21.3533 N   0  0  0  0  0  0  0  0  0  0  0  0
    8.2817  -15.1646   22.7581 C   0  0  1  0  0  0  0  0  0  0  0  0
    6.9601  -15.3786   23.5079 C   0  0  0  0  0  0  0  0  0  0  0  0
    7.1335  -15.0955   24.9559 C   0  0  0  0  0  0  0  0  0  0  0  0
    7.3433  -16.0250   25.9420 C   0  0  0  0  0  0  0  0  0  0  0  0
    7.4467  -15.3669   27.1025 N   0  0  0  0  0  0  0  0  0  0  0  0
    7.3117  -14.0523   26.8999 C   0  0  0  0  0  0  0  0  0  0  0  0
    7.3367  -12.9503   27.7505 C   0  0  0  0  0  0  0  0  0  0  0  0
    7.1661  -11.6687   27.2669 C   0  0  0  0  0  0  0  0  0  0  0  0
    6.9670  -11.4655   25.9216 C   0  0  0  0  0  0  0  0  0  0  0  0
    6.9421  -12.5561   25.0784 C   0  0  0  0  0  0  0  0  0  0  0  0
    7.1139  -13.8601   25.5573 C   0  0  0  0  0  0  0  0  0  0  0  0
    9.2849  -16.1603   23.1551 C   0  0  0  0  0  0  0  0  0  0  0  0
    9.1392  -17.3449   22.7497 O   0  0  0  0  0  0  0  0  0  0  0  0
   10.3954  -15.8003   23.9768 N   0  0  0  0  0  0  0  0  0  0  0  0
   11.4263  -16.7768   24.2096 C   0  0  1  0  0  0  0  0  0  0  0  0
   12.7726  -16.1171   24.0909 C   0  0  0  0  0  0  0  0  0  0  0  0
   13.8870  -17.0487   24.3935 C   0  0  0  0  0  0  0  0  0  0  0  0
   13.9337  -18.1756   23.8122 O   0  0  0  0  0  0  0  0  0  0  0  0
   11.3163  -17.3009   25.6007 C   0  0  0  0  0  0  0  0  0  0  0  0
   11.8315  -18.5549   25.8553 O   0  0  0  0  0  0  0  0  0  0  0  0
   14.9135  -16.7834   25.2864 O   0  0  0  0  0  0  0  0  0  0  0  0
   10.7867  -16.6546   26.5130 O   0  0  0  0  0  0  0  0  0  0  0  0
  2  1  1  6
  2  3  1  0
  2  4  1  0
  4  5  1  1
  6  4  1  0
  6  7  2  0
  8  6  1  0
  9  8  1  0
  9 20  1  0
  9 10  1  1
 11 10  1  0
 11 12  2  0
 13 12  1  0
 14 19  2  0
 14 13  1  0
 15 14  1  0
 16 17  1  0
 16 15  2  0
 17 18  2  0
 18 19  1  0
 19 11  1  0
 20 21  2  0
 20 22  1  0
 22 23  1  0
 23 27  1  0
 23 24  1  1
 25 24  1  0
 26 25  2  0
 27 30  2  0
 27 28  1  0
 29 25  1  0
M  END
$$$$
