VWD.pdb
     RDKit          3D

 30 31  0  0  1  0  0  0  0  0999 V2000
    9.0677  -15.9813   19.2228 C   0  0  0  0  0  0  0  0  0  0  0  0
    8.1238  -14.8146   19.3115 C   0  0  1  0  0  0  0  0  0  0  0  0
    7.2057  -14.8722   18.1041 C   0  0  0  0  0  0  0  0  0  0  0  0
    7.2417  -14.8653   20.5391 C   0  0  2  0  0  0  0  0  0  0  0  0
    6.2741  -13.8109   20.4234 N   0  0  0  0  0  0  0  0  0  0  0  0
    8.0284  -14.7951   21.7916 C   0  0  0  0  0  0  0  0  0  0  0  0
    8.6027  -13.7097   22.0542 O   0  0  0  0  0  0  0  0  0  0  0  0
    8.1286  -15.9216   22.6666 N   0  0  0  0  0  0  0  0  0  0  0  0
    8.9882  -15.8786   23.8154 C   0  0  1  0  0  0  0  0  0  0  0  0
    8.1514  -16.2919   25.0334 C   0  0  0  0  0  0  0  0  0  0  0  0
    7.1773  -15.2250   25.3798 C   0  0  0  0  0  0  0  0  0  0  0  0
    5.8169  -15.2893   25.2200 C   0  0  0  0  0  0  0  0  0  0  0  0
    5.3042  -14.1304   25.6495 N   0  0  0  0  0  0  0  0  0  0  0  0
    6.2816  -13.3254   26.0786 C   0  0  0  0  0  0  0  0  0  0  0  0
    6.2908  -12.0393   26.6119 C   0  0  0  0  0  0  0  0  0  0  0  0
    7.4708  -11.4259   26.9813 C   0  0  0  0  0  0  0  0  0  0  0  0
    8.6654  -12.0885   26.8239 C   0  0  0  0  0  0  0  0  0  0  0  0
    8.6575  -13.3622   26.2959 C   0  0  0  0  0  0  0  0  0  0  0  0
    7.4671  -13.9942   25.9178 C   0  0  0  0  0  0  0  0  0  0  0  0
   10.1892  -16.7134   23.6882 C   0  0  0  0  0  0  0  0  0  0  0  0
   10.0799  -17.8274   23.1086 O   0  0  0  0  0  0  0  0  0  0  0  0
   11.4470  -16.2785   24.2049 N   0  0  0  0  0  0  0  0  0  0  0  0
   12.5957  -17.1268   24.0281 C   0  0  1  0  0  0  0  0  0  0  0  0
   13.7602  -16.2970   23.5621 C   0  0  0  0  0  0  0  0  0  0  0  0
   14.9918  -17.1038   23.3793 C   0  0  0  0  0  0  0  0  0  0  0  0
   14.9240  -18.3694   23.4424 O   0  0  0  0  0  0  0  0  0  0  0  0
   12.9818  -17.7280   25.3364 C   0  0  0  0  0  0  0  0  0  0  0  0
   13.9627  -18.6979   25.3310 O   0  0  0  0  0  0  0  0  0  0  0  0
   16.2502  -16.5749   23.1385 O   0  0  0  0  0  0  0  0  0  0  0  0
   12.4571  -17.3870   26.4035 O   0  0  0  0  0  0  0  0  0  0  0  0
  2  1  1  1
  2  3  1  0
  2  4  1  0
  4  5  1  6
  6  4  1  0
  6  7  2  0
  8  6  1  0
  9  8  1  0
  9 20  1  0
  9 10  1  1
 11 10  1  0
 11 12  2  0
 13 12  1  0
 14 19  2  0
 14 13  1  0
 15 14  1  0
 16 17  1  0
 16 15  2  0
 17 18  2  0
 18 19  1  0
 19 11  1  0
 20 21  2  0
 20 22  1  0
 22 23  1  0
 23 27  1  0
 23 24  1  1
 25 24  1  0
 26 25  2  0
 27 30  2  0
 27 28  1  0
 29 25  1  0
M  END
$$$$
