VWD.pdb
     RDKit          3D

 30 31  0  0  1  0  0  0  0  0999 V2000
    8.0554  -12.4319   20.1315 C   0  0  0  0  0  0  0  0  0  0  0  0
    7.2565  -13.6892   20.3343 C   0  0  1  0  0  0  0  0  0  0  0  0
    6.4067  -13.9000   19.0944 C   0  0  0  0  0  0  0  0  0  0  0  0
    8.1249  -14.9180   20.4880 C   0  0  2  0  0  0  0  0  0  0  0  0
    7.2653  -16.0670   20.4400 N   0  0  0  0  0  0  0  0  0  0  0  0
    8.9520  -14.8638   21.7150 C   0  0  0  0  0  0  0  0  0  0  0  0
    9.9026  -14.0436   21.7364 O   0  0  0  0  0  0  0  0  0  0  0  0
    8.6764  -15.7139   22.8312 N   0  0  0  0  0  0  0  0  0  0  0  0
    9.5634  -15.7469   23.9594 C   0  0  1  0  0  0  0  0  0  0  0  0
    8.7595  -16.2552   25.1635 C   0  0  0  0  0  0  0  0  0  0  0  0
    7.6501  -15.3190   25.4793 C   0  0  0  0  0  0  0  0  0  0  0  0
    6.3107  -15.5747   25.3353 C   0  0  0  0  0  0  0  0  0  0  0  0
    5.6460  -14.4811   25.7261 N   0  0  0  0  0  0  0  0  0  0  0  0
    6.5059  -13.5342   26.1152 C   0  0  0  0  0  0  0  0  0  0  0  0
    6.3412  -12.2394   26.5999 C   0  0  0  0  0  0  0  0  0  0  0  0
    7.4278  -11.4567   26.9346 C   0  0  0  0  0  0  0  0  0  0  0  0
    8.7011  -11.9554   26.7904 C   0  0  0  0  0  0  0  0  0  0  0  0
    8.8654  -13.2375   26.3105 C   0  0  0  0  0  0  0  0  0  0  0  0
    7.7711  -14.0404   25.9680 C   0  0  0  0  0  0  0  0  0  0  0  0
   10.7670  -16.5593   23.7431 C   0  0  0  0  0  0  0  0  0  0  0  0
   10.6900  -17.5359   22.9498 O   0  0  0  0  0  0  0  0  0  0  0  0
   11.9916  -16.2544   24.4104 N   0  0  0  0  0  0  0  0  0  0  0  0
   13.1365  -17.0914   24.1672 C   0  0  1  0  0  0  0  0  0  0  0  0
   14.3446  -16.2266   23.9343 C   0  0  0  0  0  0  0  0  0  0  0  0
   15.5915  -17.0204   23.8053 C   0  0  0  0  0  0  0  0  0  0  0  0
   16.5717  -16.7719   24.5719 O   0  0  0  0  0  0  0  0  0  0  0  0
   13.4173  -17.9208   25.3734 C   0  0  0  0  0  0  0  0  0  0  0  0
   12.9295  -17.4756   26.5846 O   0  0  0  0  0  0  0  0  0  0  0  0
   15.7820  -18.0424   22.8884 O   0  0  0  0  0  0  0  0  0  0  0  0
   14.0620  -18.9752   25.3180 O   0  0  0  0  0  0  0  0  0  0  0  0
  2  1  1  6
  2  3  1  0
  2  4  1  0
  4  5  1  1
  6  4  1  0
  6  7  2  0
  8  6  1  0
  9  8  1  0
  9 20  1  0
  9 10  1  1
 11 10  1  0
 11 12  2  0
 13 12  1  0
 14 19  2  0
 14 13  1  0
 15 14  1  0
 16 17  1  0
 16 15  2  0
 17 18  2  0
 18 19  1  0
 19 11  1  0
 20 21  2  0
 20 22  1  0
 22 23  1  0
 23 27  1  0
 23 24  1  1
 25 24  1  0
 26 25  2  0
 27 30  2  0
 27 28  1  0
 29 25  1  0
M  END
$$$$
