VWD.pdb
     RDKit          3D

 30 31  0  0  1  0  0  0  0  0999 V2000
    9.2332  -16.5923   19.6745 C   0  0  0  0  0  0  0  0  0  0  0  0
    8.1330  -15.5679   19.6928 C   0  0  1  0  0  0  0  0  0  0  0  0
    7.1958  -15.8781   18.5398 C   0  0  0  0  0  0  0  0  0  0  0  0
    7.3065  -15.6169   20.9586 C   0  0  2  0  0  0  0  0  0  0  0  0
    6.2309  -14.6773   20.8124 N   0  0  0  0  0  0  0  0  0  0  0  0
    8.1269  -15.3754   22.1674 C   0  0  0  0  0  0  0  0  0  0  0  0
    8.5558  -14.2098   22.3523 O   0  0  0  0  0  0  0  0  0  0  0  0
    8.4179  -16.4309   23.0871 N   0  0  0  0  0  0  0  0  0  0  0  0
    9.2764  -16.2001   24.2142 C   0  0  1  0  0  0  0  0  0  0  0  0
    8.4483  -16.4448   25.4826 C   0  0  0  0  0  0  0  0  0  0  0  0
    7.3920  -15.4094   25.6205 C   0  0  0  0  0  0  0  0  0  0  0  0
    6.0559  -15.5781   25.3621 C   0  0  0  0  0  0  0  0  0  0  0  0
    5.4464  -14.4125   25.6078 N   0  0  0  0  0  0  0  0  0  0  0  0
    6.3384  -13.5030   26.0135 C   0  0  0  0  0  0  0  0  0  0  0  0
    6.2322  -12.1662   26.3880 C   0  0  0  0  0  0  0  0  0  0  0  0
    7.3412  -11.4406   26.7737 C   0  0  0  0  0  0  0  0  0  0  0  0
    8.5789  -12.0396   26.7920 C   0  0  0  0  0  0  0  0  0  0  0  0
    8.6852  -13.3633   26.4213 C   0  0  0  0  0  0  0  0  0  0  0  0
    7.5676  -14.1091   26.0285 C   0  0  0  0  0  0  0  0  0  0  0  0
   10.4945  -17.0197   24.2087 C   0  0  0  0  0  0  0  0  0  0  0  0
   10.3921  -18.2340   23.8866 O   0  0  0  0  0  0  0  0  0  0  0  0
   11.7607  -16.4601   24.5575 N   0  0  0  0  0  0  0  0  0  0  0  0
   12.9046  -17.3305   24.6238 C   0  0  1  0  0  0  0  0  0  0  0  0
   14.1610  -16.5045   24.5921 C   0  0  0  0  0  0  0  0  0  0  0  0
   14.4695  -15.9971   23.2324 C   0  0  0  0  0  0  0  0  0  0  0  0
   13.8181  -16.4410   22.2380 O   0  0  0  0  0  0  0  0  0  0  0  0
   12.8987  -18.0695   25.9183 C   0  0  0  0  0  0  0  0  0  0  0  0
   12.1716  -17.5312   26.9598 O   0  0  0  0  0  0  0  0  0  0  0  0
   15.4405  -15.0497   22.9478 O   0  0  0  0  0  0  0  0  0  0  0  0
   13.5151  -19.1299   26.0796 O   0  0  0  0  0  0  0  0  0  0  0  0
  2  1  1  1
  2  3  1  0
  2  4  1  0
  4  5  1  6
  6  4  1  0
  6  7  2  0
  8  6  1  0
  9  8  1  0
  9 20  1  0
  9 10  1  1
 11 10  1  0
 11 12  2  0
 13 12  1  0
 14 19  2  0
 14 13  1  0
 15 14  1  0
 16 17  1  0
 16 15  2  0
 17 18  2  0
 18 19  1  0
 19 11  1  0
 20 21  2  0
 20 22  1  0
 22 23  1  0
 23 27  1  0
 23 24  1  1
 25 24  1  0
 26 25  2  0
 27 30  2  0
 27 28  1  0
 29 25  1  0
M  END
$$$$
