HME.pdb
     RDKit          3D

 28 28  0  0  1  0  0  0  0  0999 V2000
    9.3605  -14.8407   19.8693 N   0  0  0  0  0  0  0  0  0  0  0  0
    8.4366  -15.5217   20.7523 C   0  0  1  0  0  0  0  0  0  0  0  0
    8.4073  -16.9791   20.3405 C   0  0  0  0  0  0  0  0  0  0  0  0
    7.7346  -17.0813   19.0197 C   0  0  0  0  0  0  0  0  0  0  0  0
    7.3527  -16.0639   18.1618 C   0  0  0  0  0  0  0  0  0  0  0  0
    6.7725  -16.5992   17.0701 N   0  0  0  0  0  0  0  0  0  0  0  0
    6.7797  -17.9243   17.2192 C   0  0  0  0  0  0  0  0  0  0  0  0
    7.3570  -18.2162   18.3893 N   0  0  0  0  0  0  0  0  0  0  0  0
    8.8959  -15.3475   22.1432 C   0  0  0  0  0  0  0  0  0  0  0  0
   10.1362  -15.2668   22.3579 O   0  0  0  0  0  0  0  0  0  0  0  0
    6.2190  -10.5846   26.3389 C   0  0  0  0  0  0  0  0  0  0  0  0
    6.1850  -12.3931   26.5171 S   0  0  0  0  0  0  0  0  0  0  0  0
    7.3810  -13.0509   25.2985 C   0  0  0  0  0  0  0  0  0  0  0  0
    7.5357  -14.5360   25.4585 C   0  0  0  0  0  0  0  0  0  0  0  0
    8.5686  -15.1710   24.5837 C   0  0  2  0  0  0  0  0  0  0  0  0
    7.9961  -15.2674   23.2475 N   0  0  0  0  0  0  0  0  0  0  0  0
    8.9355  -16.5113   25.0934 C   0  0  0  0  0  0  0  0  0  0  0  0
    8.1414  -17.4775   25.0954 O   0  0  0  0  0  0  0  0  0  0  0  0
   10.2350  -16.7975   25.6235 N   0  0  0  0  0  0  0  0  0  0  0  0
   10.6603  -18.0492   26.1490 C   0  0  1  0  0  0  0  0  0  0  0  0
   12.0729  -18.4166   25.9692 C   0  0  0  0  0  0  0  0  0  0  0  0
   12.5464  -18.7455   24.6035 C   0  0  0  0  0  0  0  0  0  0  0  0
   13.7136  -17.9950   24.1217 C   0  0  0  0  0  0  0  0  0  0  0  0
   14.2300  -18.3291   23.0262 O   0  0  0  0  0  0  0  0  0  0  0  0
   10.2237  -18.1976   27.5587 C   0  0  0  0  0  0  0  0  0  0  0  0
    9.6355  -17.2719   28.1900 O   0  0  0  0  0  0  0  0  0  0  0  0
   14.2960  -16.9284   24.7975 O   0  0  0  0  0  0  0  0  0  0  0  0
   10.4383  -19.3712   28.2706 O   0  0  0  0  0  0  0  0  0  0  0  0
  2  1  1  6
  3  4  1  0
  3  2  1  0
  4  5  2  0
  4  8  1  0
  5  6  1  0
  6  7  1  0
  8  7  2  0
  9  2  1  0
  9 10  2  0
 11 12  1  0
 13 12  1  0
 14 13  1  0
 15 16  1  0
 15 14  1  1
 16  9  1  0
 17 15  1  0
 18 17  2  0
 19 17  1  0
 20 19  1  0
 20 21  1  1
 22 21  1  0
 22 23  1  0
 23 27  1  0
 23 24  2  0
 25 20  1  0
 25 28  1  0
 26 25  2  0
M  END
$$$$
