HME.pdb
     RDKit          3D

 28 28  0  0  1  0  0  0  0  0999 V2000
    7.7315  -15.8023   20.6010 N   0  0  0  0  0  0  0  0  0  0  0  0
    8.5584  -14.6295   20.7954 C   0  0  1  0  0  0  0  0  0  0  0  0
    7.8991  -13.4829   20.0571 C   0  0  0  0  0  0  0  0  0  0  0  0
    7.8377  -13.8265   18.6130 C   0  0  0  0  0  0  0  0  0  0  0  0
    7.7632  -12.9759   17.5232 C   0  0  0  0  0  0  0  0  0  0  0  0
    7.7256  -13.7069   16.3922 N   0  0  0  0  0  0  0  0  0  0  0  0
    7.7745  -14.9927   16.7421 C   0  0  0  0  0  0  0  0  0  0  0  0
    7.8418  -15.0671   18.0753 N   0  0  0  0  0  0  0  0  0  0  0  0
    8.6721  -14.3652   22.2422 C   0  0  0  0  0  0  0  0  0  0  0  0
    9.4603  -13.4577   22.6244 O   0  0  0  0  0  0  0  0  0  0  0  0
    7.4956  -11.0019   26.8958 C   0  0  0  0  0  0  0  0  0  0  0  0
    6.7830  -12.6557   27.1428 S   0  0  0  0  0  0  0  0  0  0  0  0
    6.3159  -13.2659   25.4821 C   0  0  0  0  0  0  0  0  0  0  0  0
    6.8180  -14.6655   25.2730 C   0  0  0  0  0  0  0  0  0  0  0  0
    8.1596  -14.7749   24.6221 C   0  0  2  0  0  0  0  0  0  0  0  0
    7.9291  -15.0927   23.2191 N   0  0  0  0  0  0  0  0  0  0  0  0
    8.9726  -15.8283   25.2702 C   0  0  0  0  0  0  0  0  0  0  0  0
    9.2422  -15.8227   26.4914 O   0  0  0  0  0  0  0  0  0  0  0  0
    9.5111  -16.9360   24.5387 N   0  0  0  0  0  0  0  0  0  0  0  0
   10.3065  -17.9824   25.0827 C   0  0  1  0  0  0  0  0  0  0  0  0
   11.6203  -18.2262   24.4686 C   0  0  0  0  0  0  0  0  0  0  0  0
   12.7285  -17.2934   24.7834 C   0  0  0  0  0  0  0  0  0  0  0  0
   13.7723  -17.1548   23.7591 C   0  0  0  0  0  0  0  0  0  0  0  0
   13.5200  -16.4714   22.7355 O   0  0  0  0  0  0  0  0  0  0  0  0
   10.3989  -17.8536   26.5575 C   0  0  0  0  0  0  0  0  0  0  0  0
   10.0486  -16.8044   27.1722 O   0  0  0  0  0  0  0  0  0  0  0  0
   15.0350  -17.7315   23.8404 O   0  0  0  0  0  0  0  0  0  0  0  0
   10.8796  -18.8864   27.3527 O   0  0  0  0  0  0  0  0  0  0  0  0
  2  1  1  1
  3  4  1  0
  3  2  1  0
  4  5  2  0
  4  8  1  0
  5  6  1  0
  6  7  1  0
  8  7  2  0
  9  2  1  0
  9 10  2  0
 11 12  1  0
 13 12  1  0
 14 13  1  0
 15 16  1  0
 15 14  1  1
 16  9  1  0
 17 15  1  0
 18 17  2  0
 19 17  1  0
 20 19  1  0
 20 21  1  6
 22 21  1  0
 22 23  1  0
 23 27  1  0
 23 24  2  0
 25 20  1  0
 25 28  1  0
 26 25  2  0
M  END
$$$$
