HME.pdb
     RDKit          3D

 28 28  0  0  1  0  0  0  0  0999 V2000
    7.9504  -12.7663   19.8636 N   0  0  0  0  0  0  0  0  0  0  0  0
    8.0279  -14.1634   20.2364 C   0  0  1  0  0  0  0  0  0  0  0  0
    8.9786  -14.8383   19.2694 C   0  0  0  0  0  0  0  0  0  0  0  0
    8.3302  -14.8937   17.9338 C   0  0  0  0  0  0  0  0  0  0  0  0
    8.5650  -14.0999   16.8240 C   0  0  0  0  0  0  0  0  0  0  0  0
    7.7551  -14.4903   15.8207 N   0  0  0  0  0  0  0  0  0  0  0  0
    7.0187  -15.5071   16.2701 C   0  0  0  0  0  0  0  0  0  0  0  0
    7.3623  -15.7512   17.5388 N   0  0  0  0  0  0  0  0  0  0  0  0
    8.4979  -14.2555   21.6316 C   0  0  0  0  0  0  0  0  0  0  0  0
    9.7351  -14.1507   21.8542 O   0  0  0  0  0  0  0  0  0  0  0  0
    6.6019  -12.6711   27.8325 C   0  0  0  0  0  0  0  0  0  0  0  0
    7.1863  -11.7510   26.3779 S   0  0  0  0  0  0  0  0  0  0  0  0
    6.6729  -12.7239   24.9157 C   0  0  0  0  0  0  0  0  0  0  0  0
    7.1392  -14.1461   25.0370 C   0  0  0  0  0  0  0  0  0  0  0  0
    8.1951  -14.5600   24.0626 C   0  0  2  0  0  0  0  0  0  0  0  0
    7.6119  -14.4573   22.7315 N   0  0  0  0  0  0  0  0  0  0  0  0
    8.6433  -15.9447   24.3318 C   0  0  0  0  0  0  0  0  0  0  0  0
    8.2601  -16.9255   23.6571 O   0  0  0  0  0  0  0  0  0  0  0  0
    9.5543  -16.2602   25.3912 N   0  0  0  0  0  0  0  0  0  0  0  0
   10.2879  -17.4720   25.5222 C   0  0  1  0  0  0  0  0  0  0  0  0
   11.5629  -17.5758   24.7967 C   0  0  0  0  0  0  0  0  0  0  0  0
   11.5554  -17.3748   23.3280 C   0  0  0  0  0  0  0  0  0  0  0  0
   12.8474  -17.5232   22.6450 C   0  0  0  0  0  0  0  0  0  0  0  0
   13.5912  -18.4816   22.9720 O   0  0  0  0  0  0  0  0  0  0  0  0
   10.4313  -17.8422   26.9513 C   0  0  0  0  0  0  0  0  0  0  0  0
   10.9750  -18.9227   27.3231 O   0  0  0  0  0  0  0  0  0  0  0  0
   13.3135  -16.6703   21.6506 O   0  0  0  0  0  0  0  0  0  0  0  0
    9.9724  -17.0163   27.9698 O   0  0  0  0  0  0  0  0  0  0  0  0
  2  1  1  6
  3  4  1  0
  3  2  1  0
  4  5  2  0
  4  8  1  0
  5  6  1  0
  6  7  1  0
  8  7  2  0
  9  2  1  0
  9 10  2  0
 11 12  1  0
 13 12  1  0
 14 13  1  0
 15 16  1  0
 15 14  1  1
 16  9  1  0
 17 15  1  0
 18 17  2  0
 19 17  1  0
 20 19  1  0
 20 21  1  1
 22 21  1  0
 22 23  1  0
 23 27  1  0
 23 24  2  0
 25 20  1  0
 25 28  1  0
 26 25  2  0
M  END
$$$$
