HME.pdb
     RDKit          3D

 28 28  0  0  1  0  0  0  0  0999 V2000
    7.8209  -15.8393   20.6157 N   0  0  0  0  0  0  0  0  0  0  0  0
    8.5257  -14.5954   20.8458 C   0  0  1  0  0  0  0  0  0  0  0  0
    7.7246  -13.4920   20.1862 C   0  0  0  0  0  0  0  0  0  0  0  0
    7.7725  -13.6911   18.7147 C   0  0  0  0  0  0  0  0  0  0  0  0
    8.3596  -12.8886   17.7512 C   0  0  0  0  0  0  0  0  0  0  0  0
    8.1669  -13.4403   16.5374 N   0  0  0  0  0  0  0  0  0  0  0  0
    7.4752  -14.5669   16.7124 C   0  0  0  0  0  0  0  0  0  0  0  0
    7.2371  -14.7196   18.0191 N   0  0  0  0  0  0  0  0  0  0  0  0
    8.6600  -14.3898   22.3004 C   0  0  0  0  0  0  0  0  0  0  0  0
    9.5971  -13.6552   22.7166 O   0  0  0  0  0  0  0  0  0  0  0  0
    7.0344  -12.6753   27.7371 C   0  0  0  0  0  0  0  0  0  0  0  0
    6.7107  -12.0563   26.0590 S   0  0  0  0  0  0  0  0  0  0  0  0
    6.0451  -13.4720   25.1098 C   0  0  0  0  0  0  0  0  0  0  0  0
    6.8249  -14.7205   25.4066 C   0  0  0  0  0  0  0  0  0  0  0  0
    8.1123  -14.8650   24.6601 C   0  0  2  0  0  0  0  0  0  0  0  0
    7.7759  -14.9866   23.2478 N   0  0  0  0  0  0  0  0  0  0  0  0
    8.8570  -16.0567   25.1248 C   0  0  0  0  0  0  0  0  0  0  0  0
    8.3806  -17.2125   25.0866 O   0  0  0  0  0  0  0  0  0  0  0  0
   10.1852  -15.9690   25.6541 N   0  0  0  0  0  0  0  0  0  0  0  0
   11.1288  -17.0322   25.7099 C   0  0  1  0  0  0  0  0  0  0  0  0
   12.4977  -16.7499   25.2527 C   0  0  0  0  0  0  0  0  0  0  0  0
   13.5010  -17.8391   25.3200 C   0  0  0  0  0  0  0  0  0  0  0  0
   14.7752  -17.5928   24.6318 C   0  0  0  0  0  0  0  0  0  0  0  0
   15.3667  -16.5038   24.8385 O   0  0  0  0  0  0  0  0  0  0  0  0
   11.1118  -17.6740   27.0469 C   0  0  0  0  0  0  0  0  0  0  0  0
   11.7467  -18.7394   27.2985 O   0  0  0  0  0  0  0  0  0  0  0  0
   15.3823  -18.4875   23.7576 O   0  0  0  0  0  0  0  0  0  0  0  0
   10.3916  -17.1367   28.1065 O   0  0  0  0  0  0  0  0  0  0  0  0
  2  1  1  1
  3  4  1  0
  3  2  1  0
  4  5  2  0
  4  8  1  0
  5  6  1  0
  6  7  1  0
  8  7  2  0
  9  2  1  0
  9 10  2  0
 11 12  1  0
 13 12  1  0
 14 13  1  0
 15 16  1  0
 15 14  1  1
 16  9  1  0
 17 15  1  0
 18 17  2  0
 19 17  1  0
 20 19  1  0
 20 21  1  1
 22 21  1  0
 22 23  1  0
 23 27  1  0
 23 24  2  0
 25 20  1  0
 25 28  1  0
 26 25  2  0
M  END
$$$$
