HME.pdb
     RDKit          3D

 28 28  0  0  1  0  0  0  0  0999 V2000
    8.5582  -15.4599   19.1329 N   0  0  0  0  0  0  0  0  0  0  0  0
    7.7855  -16.0355   20.2139 C   0  0  1  0  0  0  0  0  0  0  0  0
    7.8985  -17.5417   20.0996 C   0  0  0  0  0  0  0  0  0  0  0  0
    7.2159  -17.9712   18.8518 C   0  0  0  0  0  0  0  0  0  0  0  0
    5.8590  -18.0267   18.5825 C   0  0  0  0  0  0  0  0  0  0  0  0
    5.6746  -18.4761   17.3259 N   0  0  0  0  0  0  0  0  0  0  0  0
    6.8782  -18.7041   16.7992 C   0  0  0  0  0  0  0  0  0  0  0  0
    7.8054  -18.4017   17.7137 N   0  0  0  0  0  0  0  0  0  0  0  0
    8.3184  -15.5350   21.4951 C   0  0  0  0  0  0  0  0  0  0  0  0
    9.5638  -15.5900   21.6873 O   0  0  0  0  0  0  0  0  0  0  0  0
    6.6734  -10.7033   26.7121 C   0  0  0  0  0  0  0  0  0  0  0  0
    6.1616  -12.4472   26.7346 S   0  0  0  0  0  0  0  0  0  0  0  0
    7.5012  -13.3853   25.9138 C   0  0  0  0  0  0  0  0  0  0  0  0
    7.0801  -13.8129   24.5373 C   0  0  0  0  0  0  0  0  0  0  0  0
    8.1248  -14.5255   23.7396 C   0  0  2  0  0  0  0  0  0  0  0  0
    7.4838  -14.9946   22.5183 N   0  0  0  0  0  0  0  0  0  0  0  0
    8.6853  -15.6613   24.5055 C   0  0  0  0  0  0  0  0  0  0  0  0
    8.0437  -16.7111   24.7301 O   0  0  0  0  0  0  0  0  0  0  0  0
   10.0114  -15.6375   25.0465 N   0  0  0  0  0  0  0  0  0  0  0  0
   10.7782  -16.7774   25.4159 C   0  0  1  0  0  0  0  0  0  0  0  0
   12.1588  -16.8583   24.9156 C   0  0  0  0  0  0  0  0  0  0  0  0
   12.9746  -18.0384   25.2887 C   0  0  0  0  0  0  0  0  0  0  0  0
   14.3633  -18.0464   24.8099 C   0  0  0  0  0  0  0  0  0  0  0  0
   14.9186  -16.9463   24.5649 O   0  0  0  0  0  0  0  0  0  0  0  0
   10.7048  -17.0023   26.8801 C   0  0  0  0  0  0  0  0  0  0  0  0
   10.2593  -16.1297   27.6811 O   0  0  0  0  0  0  0  0  0  0  0  0
   15.1178  -19.1963   24.6055 O   0  0  0  0  0  0  0  0  0  0  0  0
   11.1247  -18.1936   27.4585 O   0  0  0  0  0  0  0  0  0  0  0  0
  2  1  1  6
  3  4  1  0
  3  2  1  0
  4  5  2  0
  4  8  1  0
  5  6  1  0
  6  7  1  0
  8  7  2  0
  9  2  1  0
  9 10  2  0
 11 12  1  0
 13 12  1  0
 14 13  1  0
 15 16  1  0
 15 14  1  1
 16  9  1  0
 17 15  1  0
 18 17  2  0
 19 17  1  0
 20 19  1  0
 20 21  1  1
 22 21  1  0
 22 23  1  0
 23 27  1  0
 23 24  2  0
 25 20  1  0
 25 28  1  0
 26 25  2  0
M  END
$$$$
