HME.pdb
     RDKit          3D

 28 28  0  0  1  0  0  0  0  0999 V2000
    7.3777  -15.3250   20.5566 N   0  0  0  0  0  0  0  0  0  0  0  0
    8.7439  -14.8635   20.6884 C   0  0  1  0  0  0  0  0  0  0  0  0
    8.8247  -13.4962   20.0415 C   0  0  0  0  0  0  0  0  0  0  0  0
    8.4443  -13.6292   18.6115 C   0  0  0  0  0  0  0  0  0  0  0  0
    7.4725  -12.9396   17.9065 C   0  0  0  0  0  0  0  0  0  0  0  0
    7.4587  -13.3731   16.6311 N   0  0  0  0  0  0  0  0  0  0  0  0
    8.3949  -14.3157   16.5161 C   0  0  0  0  0  0  0  0  0  0  0  0
    8.9882  -14.4712   17.7041 N   0  0  0  0  0  0  0  0  0  0  0  0
    9.0929  -14.8208   22.1210 C   0  0  0  0  0  0  0  0  0  0  0  0
   10.2588  -14.4623   22.4423 O   0  0  0  0  0  0  0  0  0  0  0  0
    6.1533  -10.6947   26.4776 C   0  0  0  0  0  0  0  0  0  0  0  0
    6.1127  -12.5118   26.4981 S   0  0  0  0  0  0  0  0  0  0  0  0
    7.4341  -13.0669   25.3606 C   0  0  0  0  0  0  0  0  0  0  0  0
    7.5332  -14.5653   25.3571 C   0  0  0  0  0  0  0  0  0  0  0  0
    8.6403  -15.1327   24.5277 C   0  0  2  0  0  0  0  0  0  0  0  0
    8.1675  -15.1674   23.1501 N   0  0  0  0  0  0  0  0  0  0  0  0
    8.9997  -16.4915   24.9916 C   0  0  0  0  0  0  0  0  0  0  0  0
    8.1735  -17.4283   25.0537 O   0  0  0  0  0  0  0  0  0  0  0  0
   10.3287  -16.8310   25.4044 N   0  0  0  0  0  0  0  0  0  0  0  0
   10.7500  -18.1025   25.8836 C   0  0  1  0  0  0  0  0  0  0  0  0
   12.1170  -18.5334   25.5544 C   0  0  0  0  0  0  0  0  0  0  0  0
   12.7299  -18.0335   24.3005 C   0  0  0  0  0  0  0  0  0  0  0  0
   14.1151  -18.4493   24.0433 C   0  0  0  0  0  0  0  0  0  0  0  0
   14.5027  -18.5365   22.8514 O   0  0  0  0  0  0  0  0  0  0  0  0
   10.4603  -18.2354   27.3322 C   0  0  0  0  0  0  0  0  0  0  0  0
   10.6639  -19.3085   27.9712 O   0  0  0  0  0  0  0  0  0  0  0  0
   15.0405  -18.7572   25.0345 O   0  0  0  0  0  0  0  0  0  0  0  0
    9.9447  -17.1801   28.0742 O   0  0  0  0  0  0  0  0  0  0  0  0
  2  1  1  1
  3  4  1  0
  3  2  1  0
  4  5  2  0
  4  8  1  0
  5  6  1  0
  6  7  1  0
  8  7  2  0
  9  2  1  0
  9 10  2  0
 11 12  1  0
 13 12  1  0
 14 13  1  0
 15 16  1  0
 15 14  1  1
 16  9  1  0
 17 15  1  0
 18 17  2  0
 19 17  1  0
 20 19  1  0
 20 21  1  1
 22 21  1  0
 22 23  1  0
 23 27  1  0
 23 24  2  0
 25 20  1  0
 25 28  1  0
 26 25  2  0
M  END
$$$$
