HME.pdb
     RDKit          3D

 28 28  0  0  1  0  0  0  0  0999 V2000
    9.5289  -16.6795   19.9575 N   0  0  0  0  0  0  0  0  0  0  0  0
    8.6754  -17.0596   21.0638 C   0  0  1  0  0  0  0  0  0  0  0  0
    8.9280  -18.5258   21.3480 C   0  0  0  0  0  0  0  0  0  0  0  0
    8.2968  -19.3295   20.2695 C   0  0  0  0  0  0  0  0  0  0  0  0
    8.8950  -19.9317   19.1757 C   0  0  0  0  0  0  0  0  0  0  0  0
    7.9535  -20.5619   18.4468 N   0  0  0  0  0  0  0  0  0  0  0  0
    6.7811  -20.3721   19.0530 C   0  0  0  0  0  0  0  0  0  0  0  0
    6.9846  -19.6322   20.1478 N   0  0  0  0  0  0  0  0  0  0  0  0
    8.9963  -16.2065   22.2237 C   0  0  0  0  0  0  0  0  0  0  0  0
   10.2036  -15.9030   22.4272 O   0  0  0  0  0  0  0  0  0  0  0  0
    6.4421  -10.9751   27.4547 C   0  0  0  0  0  0  0  0  0  0  0  0
    5.9585  -12.2345   26.2365 S   0  0  0  0  0  0  0  0  0  0  0  0
    7.4759  -13.1796   25.8462 C   0  0  0  0  0  0  0  0  0  0  0  0
    7.2360  -14.1119   24.6937 C   0  0  0  0  0  0  0  0  0  0  0  0
    8.4351  -14.8704   24.2223 C   0  0  2  0  0  0  0  0  0  0  0  0
    7.9993  -15.7152   23.1182 N   0  0  0  0  0  0  0  0  0  0  0  0
    9.0004  -15.6908   25.3168 C   0  0  0  0  0  0  0  0  0  0  0  0
    8.4524  -16.7339   25.7360 O   0  0  0  0  0  0  0  0  0  0  0  0
   10.2237  -15.3450   25.9770 N   0  0  0  0  0  0  0  0  0  0  0  0
   10.9016  -16.1426   26.9404 C   0  0  1  0  0  0  0  0  0  0  0  0
   12.3694  -16.1942   26.8676 C   0  0  0  0  0  0  0  0  0  0  0  0
   13.0075  -16.2163   25.5297 C   0  0  0  0  0  0  0  0  0  0  0  0
   14.4702  -16.0829   25.5048 C   0  0  0  0  0  0  0  0  0  0  0  0
   15.1548  -16.8621   26.2138 O   0  0  0  0  0  0  0  0  0  0  0  0
   10.4249  -15.8242   28.3085 C   0  0  0  0  0  0  0  0  0  0  0  0
    9.6120  -14.8835   28.5441 O   0  0  0  0  0  0  0  0  0  0  0  0
   15.1613  -15.1459   24.7446 O   0  0  0  0  0  0  0  0  0  0  0  0
   10.8484  -16.5472   29.4166 O   0  0  0  0  0  0  0  0  0  0  0  0
  2  1  1  6
  3  4  1  0
  3  2  1  0
  4  5  2  0
  4  8  1  0
  5  6  1  0
  6  7  1  0
  8  7  2  0
  9  2  1  0
  9 10  2  0
 11 12  1  0
 13 12  1  0
 14 13  1  0
 15 16  1  0
 15 14  1  1
 16  9  1  0
 17 15  1  0
 18 17  2  0
 19 17  1  0
 20 19  1  0
 20 21  1  1
 22 21  1  0
 22 23  1  0
 23 27  1  0
 23 24  2  0
 25 20  1  0
 25 28  1  0
 26 25  2  0
M  END
$$$$
