WTV.pdb
     RDKit          3D

 29 30  0  0  1  0  0  0  0  0999 V2000
   28.7275  -25.8611  -16.2439 N   0  0  0  0  0  0  0  0  0  0  0  0
   27.6199  -26.6558  -16.6502 C   0  0  1  0  0  0  0  0  0  0  0  0
   26.5820  -25.8488  -17.3766 C   0  0  0  0  0  0  0  0  0  0  0  0
   25.9205  -24.8164  -16.5750 C   0  0  0  0  0  0  0  0  0  0  0  0
   26.2549  -23.4576  -16.5488 C   0  0  0  0  0  0  0  0  0  0  0  0
   25.4323  -22.7973  -15.7284 N   0  0  0  0  0  0  0  0  0  0  0  0
   24.5550  -23.6730  -15.2023 C   0  0  0  0  0  0  0  0  0  0  0  0
   23.5199  -23.5041  -14.3092 C   0  0  0  0  0  0  0  0  0  0  0  0
   22.7899  -24.6123  -13.9472 C   0  0  0  0  0  0  0  0  0  0  0  0
   23.0610  -25.8662  -14.4446 C   0  0  0  0  0  0  0  0  0  0  0  0
   24.1063  -26.0391  -15.3472 C   0  0  0  0  0  0  0  0  0  0  0  0
   24.8391  -24.9322  -15.7130 C   0  0  0  0  0  0  0  0  0  0  0  0
   28.0518  -27.7558  -17.5517 C   0  0  0  0  0  0  0  0  0  0  0  0
   29.0978  -27.5368  -18.2400 O   0  0  0  0  0  0  0  0  0  0  0  0
   29.0967  -30.7343  -16.2426 C   0  0  0  0  0  0  0  0  0  0  0  0
   29.2990  -30.3521  -17.6691 C   0  0  1  0  0  0  0  0  0  0  0  0
   30.0071  -31.4002  -18.2978 O   0  0  0  0  0  0  0  0  0  0  0  0
   27.9993  -30.0651  -18.3912 C   0  0  2  0  0  0  0  0  0  0  0  0
   27.3596  -28.9907  -17.6617 N   0  0  0  0  0  0  0  0  0  0  0  0
   27.1351  -31.2677  -18.4671 C   0  0  0  0  0  0  0  0  0  0  0  0
   26.5664  -31.6657  -17.4221 O   0  0  0  0  0  0  0  0  0  0  0  0
   25.5869  -32.3586  -22.0579 C   0  0  0  0  0  0  0  0  0  0  0  0
   25.0044  -33.0223  -20.8354 C   0  0  1  0  0  0  0  0  0  0  0  0
   24.5618  -34.4168  -21.2177 C   0  0  0  0  0  0  0  0  0  0  0  0
   25.9809  -33.1304  -19.7029 C   0  0  2  0  0  0  0  0  0  0  0  0
   26.9025  -32.0092  -19.6521 N   0  0  0  0  0  0  0  0  0  0  0  0
   26.7692  -34.3750  -19.8947 C   0  0  0  0  0  0  0  0  0  0  0  0
   26.2448  -35.6141  -19.4869 O   0  0  0  0  0  0  0  0  0  0  0  0
   27.9040  -34.3416  -20.4181 O   0  0  0  0  0  0  0  0  0  0  0  0
  2  1  1  6
  2 13  1  0
  2  3  1  0
  3  4  1  0
  4  5  2  0
  4 12  1  0
  5  6  1  0
  6  7  1  0
  7  8  2  0
  9  8  1  0
 10  9  2  0
 11 12  2  0
 11 10  1  0
 12  7  1  0
 13 14  2  0
 13 19  1  0
 16 15  1  1
 16 17  1  0
 18 16  1  0
 18 19  1  1
 20 21  2  0
 20 18  1  0
 23 22  1  6
 23 25  1  0
 24 23  1  0
 25 26  1  6
 26 20  1  0
 27 25  1  0
 28 27  1  0
 29 27  2  0
M  END
$$$$
