WTV.pdb
     RDKit          3D

 29 30  0  0  1  0  0  0  0  0999 V2000
   28.2861  -22.1692  -10.9741 N   0  0  0  0  0  0  0  0  0  0  0  0
   27.1604  -21.4391  -10.5020 C   0  0  1  0  0  0  0  0  0  0  0  0
   27.5589  -20.1462   -9.8495 C   0  0  0  0  0  0  0  0  0  0  0  0
   28.4092  -20.2813   -8.6642 C   0  0  0  0  0  0  0  0  0  0  0  0
   29.7049  -20.8098   -8.6392 C   0  0  0  0  0  0  0  0  0  0  0  0
   30.1978  -20.7604   -7.3981 N   0  0  0  0  0  0  0  0  0  0  0  0
   29.2708  -20.2146   -6.5882 C   0  0  0  0  0  0  0  0  0  0  0  0
   29.2807  -19.9499   -5.2364 C   0  0  0  0  0  0  0  0  0  0  0  0
   28.1584  -19.3820   -4.6797 C   0  0  0  0  0  0  0  0  0  0  0  0
   27.0428  -19.0756   -5.4244 C   0  0  0  0  0  0  0  0  0  0  0  0
   27.0306  -19.3420   -6.7904 C   0  0  0  0  0  0  0  0  0  0  0  0
   28.1523  -19.9098   -7.3520 C   0  0  0  0  0  0  0  0  0  0  0  0
   26.2263  -21.1174  -11.6126 C   0  0  0  0  0  0  0  0  0  0  0  0
   26.7510  -20.9773  -12.7618 O   0  0  0  0  0  0  0  0  0  0  0  0
   23.2795  -22.4155  -14.4983 C   0  0  0  0  0  0  0  0  0  0  0  0
   24.1455  -22.2707  -13.2937 C   0  0  1  0  0  0  0  0  0  0  0  0
   25.4819  -22.4846  -13.6979 O   0  0  0  0  0  0  0  0  0  0  0  0
   23.9916  -20.9248  -12.6170 C   0  0  2  0  0  0  0  0  0  0  0  0
   24.8255  -20.9685  -11.4345 N   0  0  0  0  0  0  0  0  0  0  0  0
   22.5764  -20.6370  -12.2803 C   0  0  0  0  0  0  0  0  0  0  0  0
   22.2001  -20.7823  -11.0923 O   0  0  0  0  0  0  0  0  0  0  0  0
   21.0297  -17.3262  -12.6621 C   0  0  0  0  0  0  0  0  0  0  0  0
   20.0464  -18.3071  -13.2498 C   0  0  1  0  0  0  0  0  0  0  0  0
   20.1551  -18.2432  -14.7567 C   0  0  0  0  0  0  0  0  0  0  0  0
   20.2959  -19.7208  -12.8175 C   0  0  2  0  0  0  0  0  0  0  0  0
   21.6058  -20.2035  -13.2174 N   0  0  0  0  0  0  0  0  0  0  0  0
   19.2661  -20.5829  -13.4529 C   0  0  0  0  0  0  0  0  0  0  0  0
   19.5979  -21.3799  -14.5626 O   0  0  0  0  0  0  0  0  0  0  0  0
   18.0957  -20.6138  -13.0147 O   0  0  0  0  0  0  0  0  0  0  0  0
  2  1  1  6
  2 13  1  0
  2  3  1  0
  3  4  1  0
  4  5  2  0
  4 12  1  0
  5  6  1  0
  6  7  1  0
  7  8  2  0
  9  8  1  0
 10  9  2  0
 11 12  2  0
 11 10  1  0
 12  7  1  0
 13 14  2  0
 13 19  1  0
 16 15  1  6
 16 17  1  0
 18 16  1  0
 18 19  1  1
 20 21  2  0
 20 18  1  0
 23 22  1  1
 23 25  1  0
 24 23  1  0
 25 26  1  6
 26 20  1  0
 27 25  1  0
 28 27  1  0
 29 27  2  0
M  END
$$$$
