WTV.pdb
     RDKit          3D

 29 30  0  0  1  0  0  0  0  0999 V2000
   28.3219  -21.1769   -9.6552 N   0  0  0  0  0  0  0  0  0  0  0  0
   26.9101  -21.3354   -9.5861 C   0  0  1  0  0  0  0  0  0  0  0  0
   26.3228  -20.6500   -8.3855 C   0  0  0  0  0  0  0  0  0  0  0  0
   27.2710  -19.8708   -7.5856 C   0  0  0  0  0  0  0  0  0  0  0  0
   28.1730  -18.9203   -8.0772 C   0  0  0  0  0  0  0  0  0  0  0  0
   28.8692  -18.3834   -7.0708 N   0  0  0  0  0  0  0  0  0  0  0  0
   28.4615  -18.9458   -5.9172 C   0  0  0  0  0  0  0  0  0  0  0  0
   28.8608  -18.7487   -4.6137 C   0  0  0  0  0  0  0  0  0  0  0  0
   28.2513  -19.4928   -3.6304 C   0  0  0  0  0  0  0  0  0  0  0  0
   27.2687  -20.4148   -3.9084 C   0  0  0  0  0  0  0  0  0  0  0  0
   26.8636  -20.6155   -5.2248 C   0  0  0  0  0  0  0  0  0  0  0  0
   27.4706  -19.8722   -6.2123 C   0  0  0  0  0  0  0  0  0  0  0  0
   26.2485  -20.7785  -10.7950 C   0  0  0  0  0  0  0  0  0  0  0  0
   26.7555  -19.7139  -11.2696 O   0  0  0  0  0  0  0  0  0  0  0  0
   26.1790  -22.4817  -13.8234 C   0  0  0  0  0  0  0  0  0  0  0  0
   24.7845  -21.9763  -13.6764 C   0  0  1  0  0  0  0  0  0  0  0  0
   23.9707  -23.0670  -13.2976 O   0  0  0  0  0  0  0  0  0  0  0  0
   24.6717  -20.8424  -12.6791 C   0  0  2  0  0  0  0  0  0  0  0  0
   25.1155  -21.3754  -11.4083 N   0  0  0  0  0  0  0  0  0  0  0  0
   23.2880  -20.3151  -12.5999 C   0  0  0  0  0  0  0  0  0  0  0  0
   22.6528  -20.4537  -11.5269 O   0  0  0  0  0  0  0  0  0  0  0  0
   21.2702  -18.5499  -15.9756 C   0  0  0  0  0  0  0  0  0  0  0  0
   20.9725  -18.0824  -14.5730 C   0  0  1  0  0  0  0  0  0  0  0  0
   19.5008  -17.7458  -14.4871 C   0  0  0  0  0  0  0  0  0  0  0  0
   21.2829  -19.1141  -13.5306 C   0  0  2  0  0  0  0  0  0  0  0  0
   22.6234  -19.6566  -13.6642 N   0  0  0  0  0  0  0  0  0  0  0  0
   20.3110  -20.2273  -13.6838 C   0  0  0  0  0  0  0  0  0  0  0  0
   20.6968  -21.4204  -14.3196 O   0  0  0  0  0  0  0  0  0  0  0  0
   19.1421  -20.1225  -13.2529 O   0  0  0  0  0  0  0  0  0  0  0  0
  2  1  1  6
  2 13  1  0
  2  3  1  0
  3  4  1  0
  4  5  2  0
  4 12  1  0
  5  6  1  0
  6  7  1  0
  7  8  2  0
  9  8  1  0
 10  9  2  0
 11 12  2  0
 11 10  1  0
 12  7  1  0
 13 14  2  0
 13 19  1  0
 16 15  1  1
 16 17  1  0
 18 16  1  0
 18 19  1  1
 20 21  2  0
 20 18  1  0
 23 22  1  6
 23 25  1  0
 24 23  1  0
 25 26  1  6
 26 20  1  0
 27 25  1  0
 28 27  1  0
 29 27  2  0
M  END
$$$$
