WTV.pdb
     RDKit          3D

 29 30  0  0  1  0  0  0  0  0999 V2000
   27.9221  -22.3033  -11.3928 N   0  0  0  0  0  0  0  0  0  0  0  0
   26.9073  -21.4651  -10.8534 C   0  0  1  0  0  0  0  0  0  0  0  0
   27.4706  -20.2023  -10.2665 C   0  0  0  0  0  0  0  0  0  0  0  0
   28.3556  -20.3901   -9.1144 C   0  0  0  0  0  0  0  0  0  0  0  0
   29.6647  -20.8836   -9.1565 C   0  0  0  0  0  0  0  0  0  0  0  0
   30.1894  -20.9006   -7.9277 N   0  0  0  0  0  0  0  0  0  0  0  0
   29.2710  -20.4333   -7.0609 C   0  0  0  0  0  0  0  0  0  0  0  0
   29.3105  -20.2557   -5.6955 C   0  0  0  0  0  0  0  0  0  0  0  0
   28.1896  -19.7555   -5.0749 C   0  0  0  0  0  0  0  0  0  0  0  0
   27.0468  -19.4325   -5.7697 C   0  0  0  0  0  0  0  0  0  0  0  0
   27.0046  -19.6109   -7.1494 C   0  0  0  0  0  0  0  0  0  0  0  0
   28.1249  -20.1107   -7.7748 C   0  0  0  0  0  0  0  0  0  0  0  0
   25.9204  -21.0798  -11.8959 C   0  0  0  0  0  0  0  0  0  0  0  0
   26.3824  -20.4468  -12.8967 O   0  0  0  0  0  0  0  0  0  0  0  0
   24.6073  -22.9675  -14.2294 C   0  0  0  0  0  0  0  0  0  0  0  0
   23.3895  -22.3259  -13.6574 C   0  0  1  0  0  0  0  0  0  0  0  0
   22.7781  -23.2608  -12.7928 O   0  0  0  0  0  0  0  0  0  0  0  0
   23.6921  -21.0319  -12.9315 C   0  0  2  0  0  0  0  0  0  0  0  0
   24.5364  -21.3849  -11.8097 N   0  0  0  0  0  0  0  0  0  0  0  0
   22.4535  -20.3453  -12.4916 C   0  0  0  0  0  0  0  0  0  0  0  0
   22.5024  -19.6103  -11.4761 O   0  0  0  0  0  0  0  0  0  0  0  0
   21.5181  -17.6172  -12.4079 C   0  0  0  0  0  0  0  0  0  0  0  0
   20.3077  -18.1751  -13.1137 C   0  0  1  0  0  0  0  0  0  0  0  0
   20.5181  -18.0296  -14.6041 C   0  0  0  0  0  0  0  0  0  0  0  0
   20.0648  -19.6230  -12.8100 C   0  0  2  0  0  0  0  0  0  0  0  0
   21.2018  -20.4618  -13.1457 N   0  0  0  0  0  0  0  0  0  0  0  0
   18.8996  -20.0711  -13.6153 C   0  0  0  0  0  0  0  0  0  0  0  0
   17.5975  -19.6873  -13.2494 O   0  0  0  0  0  0  0  0  0  0  0  0
   19.0562  -20.7919  -14.6248 O   0  0  0  0  0  0  0  0  0  0  0  0
  2  1  1  6
  2 13  1  0
  2  3  1  0
  3  4  1  0
  4  5  2  0
  4 12  1  0
  5  6  1  0
  6  7  1  0
  7  8  2  0
  9  8  1  0
 10  9  2  0
 11 12  2  0
 11 10  1  0
 12  7  1  0
 13 14  2  0
 13 19  1  0
 16 15  1  1
 16 17  1  0
 18 16  1  0
 18 19  1  1
 20 21  2  0
 20 18  1  0
 23 22  1  1
 23 25  1  0
 24 23  1  0
 25 26  1  6
 26 20  1  0
 27 25  1  0
 28 27  1  0
 29 27  2  0
M  END
$$$$
