WTV.pdb
     RDKit          3D

 29 30  0  0  1  0  0  0  0  0999 V2000
   28.4637  -21.7341  -10.5450 N   0  0  0  0  0  0  0  0  0  0  0  0
   27.1686  -21.3340  -10.1140 C   0  0  1  0  0  0  0  0  0  0  0  0
   27.2239  -20.1771   -9.1576 C   0  0  0  0  0  0  0  0  0  0  0  0
   28.2529  -20.2742   -8.1194 C   0  0  0  0  0  0  0  0  0  0  0  0
   29.5907  -20.6330   -8.3203 C   0  0  0  0  0  0  0  0  0  0  0  0
   30.2555  -20.5967   -7.1617 N   0  0  0  0  0  0  0  0  0  0  0  0
   29.4033  -20.2243   -6.1879 C   0  0  0  0  0  0  0  0  0  0  0  0
   29.5854  -20.0433   -4.8346 C   0  0  0  0  0  0  0  0  0  0  0  0
   28.5008  -19.6587   -4.0811 C   0  0  0  0  0  0  0  0  0  0  0  0
   27.2575  -19.4529   -4.6334 C   0  0  0  0  0  0  0  0  0  0  0  0
   27.0713  -19.6349   -6.0007 C   0  0  0  0  0  0  0  0  0  0  0  0
   28.1546  -20.0193   -6.7588 C   0  0  0  0  0  0  0  0  0  0  0  0
   26.3216  -20.9294  -11.2665 C   0  0  0  0  0  0  0  0  0  0  0  0
   26.9399  -20.6139  -12.3314 O   0  0  0  0  0  0  0  0  0  0  0  0
   23.7106  -22.0801  -14.5343 C   0  0  0  0  0  0  0  0  0  0  0  0
   24.4683  -22.0152  -13.2523 C   0  0  1  0  0  0  0  0  0  0  0  0
   25.8429  -22.1181  -13.5608 O   0  0  0  0  0  0  0  0  0  0  0  0
   24.1817  -20.7553  -12.4626 C   0  0  2  0  0  0  0  0  0  0  0  0
   24.9033  -20.8869  -11.2145 N   0  0  0  0  0  0  0  0  0  0  0  0
   22.7282  -20.5651  -12.2389 C   0  0  0  0  0  0  0  0  0  0  0  0
   22.1888  -21.1468  -11.2670 O   0  0  0  0  0  0  0  0  0  0  0  0
   20.9175  -16.9295  -12.9739 C   0  0  0  0  0  0  0  0  0  0  0  0
   20.0792  -18.1310  -13.3317 C   0  0  1  0  0  0  0  0  0  0  0  0
   20.1471  -18.3283  -14.8294 C   0  0  0  0  0  0  0  0  0  0  0  0
   20.5444  -19.3919  -12.6674 C   0  0  2  0  0  0  0  0  0  0  0  0
   21.8939  -19.7620  -13.0557 N   0  0  0  0  0  0  0  0  0  0  0  0
   19.6254  -20.4878  -13.0695 C   0  0  0  0  0  0  0  0  0  0  0  0
   18.3870  -20.6453  -12.4227 O   0  0  0  0  0  0  0  0  0  0  0  0
   19.9356  -21.2827  -13.9832 O   0  0  0  0  0  0  0  0  0  0  0  0
  2  1  1  6
  2 13  1  0
  2  3  1  0
  3  4  1  0
  4  5  2  0
  4 12  1  0
  5  6  1  0
  6  7  1  0
  7  8  2  0
  9  8  1  0
 10  9  2  0
 11 12  2  0
 11 10  1  0
 12  7  1  0
 13 14  2  0
 13 19  1  0
 16 15  1  6
 16 17  1  0
 18 16  1  0
 18 19  1  1
 20 21  2  0
 20 18  1  0
 23 22  1  6
 23 25  1  0
 24 23  1  0
 25 26  1  6
 26 20  1  0
 27 25  1  0
 28 27  1  0
 29 27  2  0
M  END
$$$$
