WTV.pdb
     RDKit          3D

 29 30  0  0  1  0  0  0  0  0999 V2000
   26.7643  -20.3883  -12.8009 N   0  0  0  0  0  0  0  0  0  0  0  0
   25.8713  -21.2674  -12.1279 C   0  0  1  0  0  0  0  0  0  0  0  0
   25.8057  -20.9864  -10.6539 C   0  0  0  0  0  0  0  0  0  0  0  0
   27.0847  -21.0718   -9.9446 C   0  0  0  0  0  0  0  0  0  0  0  0
   28.2702  -21.6156  -10.4522 C   0  0  0  0  0  0  0  0  0  0  0  0
   29.2488  -21.5092   -9.5485 N   0  0  0  0  0  0  0  0  0  0  0  0
   28.7552  -20.9101   -8.4482 C   0  0  0  0  0  0  0  0  0  0  0  0
   29.3434  -20.5764   -7.2481 C   0  0  0  0  0  0  0  0  0  0  0  0
   28.5644  -19.9657   -6.2930 C   0  0  0  0  0  0  0  0  0  0  0  0
   27.2339  -19.6831   -6.4999 C   0  0  0  0  0  0  0  0  0  0  0  0
   26.6376  -20.0191   -7.7118 C   0  0  0  0  0  0  0  0  0  0  0  0
   27.4139  -20.6300   -8.6710 C   0  0  0  0  0  0  0  0  0  0  0  0
   24.4934  -21.1521  -12.6733 C   0  0  0  0  0  0  0  0  0  0  0  0
   23.9755  -19.9917  -12.6436 O   0  0  0  0  0  0  0  0  0  0  0  0
   21.1519  -22.1730  -15.8496 C   0  0  0  0  0  0  0  0  0  0  0  0
   22.4875  -22.2745  -15.1956 C   0  0  1  0  0  0  0  0  0  0  0  0
   23.3519  -21.3632  -15.8417 O   0  0  0  0  0  0  0  0  0  0  0  0
   22.4345  -22.0096  -13.7056 C   0  0  2  0  0  0  0  0  0  0  0  0
   23.7702  -22.2531  -13.2033 N   0  0  0  0  0  0  0  0  0  0  0  0
   21.4296  -22.8657  -13.0301 C   0  0  0  0  0  0  0  0  0  0  0  0
   21.6994  -24.0768  -12.8449 O   0  0  0  0  0  0  0  0  0  0  0  0
   19.4243  -22.0503   -9.6869 C   0  0  0  0  0  0  0  0  0  0  0  0
   18.5063  -22.5545  -10.7720 C   0  0  1  0  0  0  0  0  0  0  0  0
   17.7814  -21.3693  -11.3692 C   0  0  0  0  0  0  0  0  0  0  0  0
   19.2325  -23.2679  -11.8726 C   0  0  2  0  0  0  0  0  0  0  0  0
   20.1693  -22.4069  -12.5725 N   0  0  0  0  0  0  0  0  0  0  0  0
   18.2230  -23.7516  -12.8494 C   0  0  0  0  0  0  0  0  0  0  0  0
   17.9767  -23.0274  -14.0291 O   0  0  0  0  0  0  0  0  0  0  0  0
   17.5802  -24.8033  -12.6404 O   0  0  0  0  0  0  0  0  0  0  0  0
  2  1  1  6
  2 13  1  0
  2  3  1  0
  3  4  1  0
  4  5  2  0
  4 12  1  0
  5  6  1  0
  6  7  1  0
  7  8  2  0
  9  8  1  0
 10  9  2  0
 11 12  2  0
 11 10  1  0
 12  7  1  0
 13 14  2  0
 13 19  1  0
 16 15  1  6
 16 17  1  0
 18 16  1  0
 18 19  1  1
 20 21  2  0
 20 18  1  0
 23 22  1  1
 23 25  1  0
 24 23  1  0
 25 26  1  6
 26 20  1  0
 27 25  1  0
 28 27  1  0
 29 27  2  0
M  END
$$$$
