WTV.pdb
     RDKit          3D

 29 30  0  0  1  0  0  0  0  0999 V2000
   28.2969  -20.7366  -11.8420 N   0  0  0  0  0  0  0  0  0  0  0  0
   27.1073  -21.4162  -11.4595 C   0  0  1  0  0  0  0  0  0  0  0  0
   26.4836  -20.8159  -10.2320 C   0  0  0  0  0  0  0  0  0  0  0  0
   27.3575  -20.7461   -9.0583 C   0  0  0  0  0  0  0  0  0  0  0  0
   27.0117  -20.2229   -7.8072 C   0  0  0  0  0  0  0  0  0  0  0  0
   28.0386  -20.3395   -6.9601 N   0  0  0  0  0  0  0  0  0  0  0  0
   29.0647  -20.9254   -7.6059 C   0  0  0  0  0  0  0  0  0  0  0  0
   30.3338  -21.2618   -7.1889 C   0  0  0  0  0  0  0  0  0  0  0  0
   31.1778  -21.8559   -8.0982 C   0  0  0  0  0  0  0  0  0  0  0  0
   30.7954  -22.1195   -9.3934 C   0  0  0  0  0  0  0  0  0  0  0  0
   29.5135  -21.7806   -9.8167 C   0  0  0  0  0  0  0  0  0  0  0  0
   28.6651  -21.1864   -8.9095 C   0  0  0  0  0  0  0  0  0  0  0  0
   26.0952  -21.3780  -12.5474 C   0  0  0  0  0  0  0  0  0  0  0  0
   26.2424  -20.4621  -13.4164 O   0  0  0  0  0  0  0  0  0  0  0  0
   25.2423  -24.0987  -14.8637 C   0  0  0  0  0  0  0  0  0  0  0  0
   23.9561  -23.5474  -14.3500 C   0  0  1  0  0  0  0  0  0  0  0  0
   23.4517  -24.4561  -13.3933 O   0  0  0  0  0  0  0  0  0  0  0  0
   24.1049  -22.1619  -13.7575 C   0  0  2  0  0  0  0  0  0  0  0  0
   25.0152  -22.2952  -12.6397 N   0  0  0  0  0  0  0  0  0  0  0  0
   22.7984  -21.6002  -13.3373 C   0  0  0  0  0  0  0  0  0  0  0  0
   22.4610  -21.6998  -12.1331 O   0  0  0  0  0  0  0  0  0  0  0  0
   21.3207  -18.0833  -13.5097 C   0  0  0  0  0  0  0  0  0  0  0  0
   20.3485  -19.0409  -14.1519 C   0  0  1  0  0  0  0  0  0  0  0  0
   20.4815  -18.9168  -15.6530 C   0  0  0  0  0  0  0  0  0  0  0  0
   20.5931  -20.4705  -13.7723 C   0  0  2  0  0  0  0  0  0  0  0  0
   21.8918  -20.9498  -14.2110 N   0  0  0  0  0  0  0  0  0  0  0  0
   19.5453  -21.3020  -14.4189 C   0  0  0  0  0  0  0  0  0  0  0  0
   19.8676  -22.1163  -15.5187 O   0  0  0  0  0  0  0  0  0  0  0  0
   18.3679  -21.2917  -13.9987 O   0  0  0  0  0  0  0  0  0  0  0  0
  2  1  1  6
  2 13  1  0
  2  3  1  0
  3  4  1  0
  4  5  2  0
  4 12  1  0
  5  6  1  0
  6  7  1  0
  7  8  2  0
  9  8  1  0
 10  9  2  0
 11 12  2  0
 11 10  1  0
 12  7  1  0
 13 14  2  0
 13 19  1  0
 16 15  1  1
 16 17  1  0
 18 16  1  0
 18 19  1  1
 20 21  2  0
 20 18  1  0
 23 22  1  1
 23 25  1  0
 24 23  1  0
 25 26  1  6
 26 20  1  0
 27 25  1  0
 28 27  1  0
 29 27  2  0
M  END
$$$$
