WTV.pdb
     RDKit          3D

 29 30  0  0  1  0  0  0  0  0999 V2000
   27.2823  -20.1312  -12.3637 N   0  0  0  0  0  0  0  0  0  0  0  0
   26.3502  -21.1338  -11.9774 C   0  0  1  0  0  0  0  0  0  0  0  0
   26.2295  -21.2477  -10.4846 C   0  0  0  0  0  0  0  0  0  0  0  0
   27.4989  -21.2420   -9.7534 C   0  0  0  0  0  0  0  0  0  0  0  0
   28.6843  -21.8639  -10.1618 C   0  0  0  0  0  0  0  0  0  0  0  0
   29.6533  -21.6376   -9.2698 N   0  0  0  0  0  0  0  0  0  0  0  0
   29.1532  -20.8820   -8.2736 C   0  0  0  0  0  0  0  0  0  0  0  0
   29.7307  -20.3846   -7.1261 C   0  0  0  0  0  0  0  0  0  0  0  0
   28.9472  -19.6358   -6.2792 C   0  0  0  0  0  0  0  0  0  0  0  0
   27.6224  -19.3737   -6.5422 C   0  0  0  0  0  0  0  0  0  0  0  0
   27.0369  -19.8750   -7.7011 C   0  0  0  0  0  0  0  0  0  0  0  0
   27.8178  -20.6246   -8.5522 C   0  0  0  0  0  0  0  0  0  0  0  0
   24.9972  -20.8456  -12.5211 C   0  0  0  0  0  0  0  0  0  0  0  0
   24.5844  -19.6506  -12.3893 O   0  0  0  0  0  0  0  0  0  0  0  0
   21.7062  -21.5558  -15.9214 C   0  0  0  0  0  0  0  0  0  0  0  0
   22.9416  -21.9164  -15.1693 C   0  0  1  0  0  0  0  0  0  0  0  0
   24.0461  -21.4145  -15.8927 O   0  0  0  0  0  0  0  0  0  0  0  0
   22.9394  -21.3922  -13.7486 C   0  0  2  0  0  0  0  0  0  0  0  0
   24.1875  -21.8242  -13.1558 N   0  0  0  0  0  0  0  0  0  0  0  0
   21.7687  -21.8839  -12.9826 C   0  0  0  0  0  0  0  0  0  0  0  0
   21.8321  -23.0187  -12.4514 O   0  0  0  0  0  0  0  0  0  0  0  0
   19.7981  -20.2475  -10.0548 C   0  0  0  0  0  0  0  0  0  0  0  0
   18.8353  -20.6903  -11.1279 C   0  0  1  0  0  0  0  0  0  0  0  0
   18.4125  -19.4724  -11.9181 C   0  0  0  0  0  0  0  0  0  0  0  0
   19.4299  -21.6866  -12.0772 C   0  0  2  0  0  0  0  0  0  0  0  0
   20.5675  -21.1533  -12.8055 N   0  0  0  0  0  0  0  0  0  0  0  0
   18.3819  -22.0654  -13.0599 C   0  0  0  0  0  0  0  0  0  0  0  0
   18.4608  -21.6113  -14.3882 O   0  0  0  0  0  0  0  0  0  0  0  0
   17.4193  -22.7891  -12.7245 O   0  0  0  0  0  0  0  0  0  0  0  0
  2  1  1  1
  2 13  1  0
  2  3  1  0
  3  4  1  0
  4  5  2  0
  4 12  1  0
  5  6  1  0
  6  7  1  0
  7  8  2  0
  9  8  1  0
 10  9  2  0
 11 12  2  0
 11 10  1  0
 12  7  1  0
 13 14  2  0
 13 19  1  0
 16 15  1  6
 16 17  1  0
 18 16  1  0
 18 19  1  1
 20 21  2  0
 20 18  1  0
 23 22  1  1
 23 25  1  0
 24 23  1  0
 25 26  1  6
 26 20  1  0
 27 25  1  0
 28 27  1  0
 29 27  2  0
M  END
$$$$
