RND.pdb
     RDKit          3D

 28 27  0  0  1  0  0  0  0  0999 V2000
   28.5170  -26.0359  -16.5912 N   0  0  0  0  0  0  0  0  0  0  0  0
   28.3131  -27.4399  -16.6044 C   0  0  0  0  0  0  0  0  0  0  0  0
   29.2573  -28.2712  -16.2698 N   0  0  0  0  0  0  0  0  0  0  0  0
   27.0738  -28.0337  -16.9804 N   0  0  0  0  0  0  0  0  0  0  0  0
   26.2556  -27.4356  -17.9975 C   0  0  0  0  0  0  0  0  0  0  0  0
   26.7068  -26.0975  -18.4480 C   0  0  0  0  0  0  0  0  0  0  0  0
   25.7841  -24.9568  -18.2123 C   0  0  0  0  0  0  0  0  0  0  0  0
   24.3951  -25.1345  -18.7586 C   0  0  2  0  0  0  0  0  0  0  0  0
   24.3178  -25.8804  -19.9735 N   0  0  0  0  0  0  0  0  0  0  0  0
   23.6585  -23.8502  -18.8191 C   0  0  0  0  0  0  0  0  0  0  0  0
   24.3210  -22.8062  -19.0260 O   0  0  0  0  0  0  0  0  0  0  0  0
   29.0139  -29.2904  -16.2297 N   0  0  0  0  0  0  0  0  0  0  0  0
   21.4679  -19.4742  -20.7488 C   0  0  0  0  0  0  0  0  0  0  0  0
   20.8268  -20.7075  -20.4324 O   0  0  0  0  0  0  0  0  0  0  0  0
   19.5732  -20.7384  -20.2686 C   0  0  0  0  0  0  0  0  0  0  0  0
   21.5714  -21.9778  -20.2833 C   0  0  1  0  0  0  0  0  0  0  0  0
   21.5483  -22.4813  -18.8630 N   0  0  0  0  0  0  0  0  0  0  0  0
   22.2567  -23.7091  -18.6608 C   0  0  0  0  0  0  0  0  0  0  0  0
   20.1109  -22.6532  -18.4667 O   0  0  0  0  0  0  0  0  0  0  0  0
   19.4546  -23.5962  -18.9638 N   0  0  0  0  0  0  0  0  0  0  0  0
   19.4743  -21.7898  -17.5542 C   0  0  1  0  0  0  0  0  0  0  0  0
   18.1077  -21.9424  -17.0774 C   0  0  0  0  0  0  0  0  0  0  0  0
   17.9687  -21.1585  -15.8073 C   0  0  0  0  0  0  0  0  0  0  0  0
   16.9108  -21.6419  -14.9057 O   0  0  0  0  0  0  0  0  0  0  0  0
   16.1654  -22.5864  -15.2673 C   0  0  0  0  0  0  0  0  0  0  0  0
   17.1447  -21.5011  -18.1116 O   0  0  0  0  0  0  0  0  0  0  0  0
   16.3197  -22.3159  -18.5618 O   0  0  0  0  0  0  0  0  0  0  0  0
   16.7103  -21.0891  -13.6710 O   0  0  0  0  0  0  0  0  0  0  0  0
  2  1  1  0
  3  2  2  0
  4  2  1  0
  5  4  1  0
  6  5  1  0
  7  6  1  0
  8  7  1  0
  8  9  1  6
 10 17  1  0
 10  8  1  0
 11 10  2  0
 13 12  1  0
 14 13  2  0
 16 15  1  1
 15 13  1  0
 16 17  1  0
 18 16  1  0
 19 18  2  0
 20 18  1  0
 21 20  1  0
 21 25  1  0
 21 22  1  6
 23 22  1  0
 24 23  2  0
 25 28  1  0
 26 25  2  0
 27 23  1  0
M  END
$$$$
