RND.pdb
     RDKit          3D

 28 27  0  0  1  0  0  0  0  0999 V2000
   26.6686  -17.1402  -16.6317 N   0  0  0  0  0  0  0  0  0  0  0  0
   27.6591  -16.6781  -17.5362 C   0  0  0  0  0  0  0  0  0  0  0  0
   27.5542  -15.5274  -18.1359 N   0  0  0  0  0  0  0  0  0  0  0  0
   28.8267  -17.4320  -17.8493 N   0  0  0  0  0  0  0  0  0  0  0  0
   28.9217  -18.8174  -17.4844 C   0  0  0  0  0  0  0  0  0  0  0  0
   27.8667  -19.6838  -18.0618 C   0  0  0  0  0  0  0  0  0  0  0  0
   26.9746  -20.3921  -17.1076 C   0  0  0  0  0  0  0  0  0  0  0  0
   27.6701  -21.3156  -16.1471 C   0  0  2  0  0  0  0  0  0  0  0  0
   28.2212  -22.4930  -16.7375 N   0  0  0  0  0  0  0  0  0  0  0  0
   26.8368  -21.6004  -14.9554 C   0  0  0  0  0  0  0  0  0  0  0  0
   25.9227  -22.4504  -15.0717 O   0  0  0  0  0  0  0  0  0  0  0  0
   28.2734  -15.2919  -18.8618 N   0  0  0  0  0  0  0  0  0  0  0  0
   24.3238  -21.4216  -10.4478 C   0  0  0  0  0  0  0  0  0  0  0  0
   25.4640  -20.5807  -10.2892 O   0  0  0  0  0  0  0  0  0  0  0  0
   25.7165  -20.0736   -9.1586 C   0  0  0  0  0  0  0  0  0  0  0  0
   26.3842  -20.2664  -11.4050 C   0  0  2  0  0  0  0  0  0  0  0  0
   25.9733  -20.9497  -12.6839 N   0  0  0  0  0  0  0  0  0  0  0  0
   26.9934  -20.9842  -13.6882 C   0  0  0  0  0  0  0  0  0  0  0  0
   24.7647  -20.2335  -13.2121 O   0  0  0  0  0  0  0  0  0  0  0  0
   24.8984  -19.4566  -14.1845 N   0  0  0  0  0  0  0  0  0  0  0  0
   23.4844  -20.4053  -12.6513 C   0  0  2  0  0  0  0  0  0  0  0  0
   22.2339  -20.0459  -13.3038 C   0  0  0  0  0  0  0  0  0  0  0  0
   22.5633  -19.2770  -14.5476 C   0  0  0  0  0  0  0  0  0  0  0  0
   21.3904  -18.8214  -15.3108 O   0  0  0  0  0  0  0  0  0  0  0  0
   20.4630  -18.2095  -14.7244 C   0  0  0  0  0  0  0  0  0  0  0  0
   21.4331  -21.2567  -13.5938 O   0  0  0  0  0  0  0  0  0  0  0  0
   21.8559  -22.3678  -13.2278 O   0  0  0  0  0  0  0  0  0  0  0  0
   21.2759  -19.0455  -16.6551 O   0  0  0  0  0  0  0  0  0  0  0  0
  2  1  1  0
  3  2  2  0
  4  2  1  0
  5  4  1  0
  6  5  1  0
  7  6  1  0
  8  7  1  0
  8  9  1  6
 10 17  1  0
 10  8  1  0
 11 10  2  0
 13 12  1  0
 14 13  2  0
 16 15  1  1
 15 13  1  0
 16 17  1  0
 18 16  1  0
 19 18  2  0
 20 18  1  0
 21 20  1  0
 21 25  1  0
 21 22  1  1
 23 22  1  0
 24 23  2  0
 25 28  1  0
 26 25  2  0
 27 23  1  0
M  END
$$$$
