RND.pdb
     RDKit          3D

 28 27  0  0  1  0  0  0  0  0999 V2000
   32.6848  -22.2654   -8.8938 N   0  0  0  0  0  0  0  0  0  0  0  0
   32.2040  -22.1411  -10.2228 C   0  0  0  0  0  0  0  0  0  0  0  0
   32.8646  -22.6210  -11.2367 N   0  0  0  0  0  0  0  0  0  0  0  0
   30.9772  -21.4895  -10.5393 N   0  0  0  0  0  0  0  0  0  0  0  0
   30.0442  -21.1453   -9.5036 C   0  0  0  0  0  0  0  0  0  0  0  0
   28.6914  -21.7279   -9.6699 C   0  0  0  0  0  0  0  0  0  0  0  0
   27.8451  -21.1750  -10.7590 C   0  0  0  0  0  0  0  0  0  0  0  0
   26.4588  -21.7494  -10.8457 C   0  0  2  0  0  0  0  0  0  0  0  0
   26.4008  -23.1262  -11.2195 N   0  0  0  0  0  0  0  0  0  0  0  0
   25.5566  -20.8921  -11.6498 C   0  0  0  0  0  0  0  0  0  0  0  0
   26.0231  -19.8232  -12.1096 O   0  0  0  0  0  0  0  0  0  0  0  0
   33.8029  -23.0483  -11.0453 N   0  0  0  0  0  0  0  0  0  0  0  0
   21.8913  -18.7208  -14.5173 C   0  0  0  0  0  0  0  0  0  0  0  0
   23.1235  -19.2589  -14.9907 O   0  0  0  0  0  0  0  0  0  0  0  0
   23.5389  -18.9525  -16.1453 C   0  0  0  0  0  0  0  0  0  0  0  0
   23.9563  -20.1762  -14.1812 C   0  0  2  0  0  0  0  0  0  0  0  0
   23.3783  -20.3976  -12.8071 N   0  0  0  0  0  0  0  0  0  0  0  0
   24.2010  -21.1876  -11.9414 C   0  0  0  0  0  0  0  0  0  0  0  0
   22.0414  -21.0580  -12.9791 O   0  0  0  0  0  0  0  0  0  0  0  0
   21.9381  -22.2843  -12.7498 N   0  0  0  0  0  0  0  0  0  0  0  0
   20.8983  -20.3454  -13.3897 C   0  0  1  0  0  0  0  0  0  0  0  0
   19.5559  -20.9012  -13.4746 C   0  0  0  0  0  0  0  0  0  0  0  0
   19.2172  -21.5027  -12.1441 C   0  0  0  0  0  0  0  0  0  0  0  0
   18.0461  -22.3938  -12.1586 O   0  0  0  0  0  0  0  0  0  0  0  0
   17.3574  -22.5030  -13.2036 C   0  0  0  0  0  0  0  0  0  0  0  0
   18.5862  -19.8573  -13.8763 O   0  0  0  0  0  0  0  0  0  0  0  0
   18.9571  -18.6712  -13.9309 O   0  0  0  0  0  0  0  0  0  0  0  0
   17.6787  -23.1163  -11.0571 O   0  0  0  0  0  0  0  0  0  0  0  0
  2  1  1  0
  3  2  2  0
  4  2  1  0
  5  4  1  0
  6  5  1  0
  7  6  1  0
  8  7  1  0
  8  9  1  6
 10 17  1  0
 10  8  1  0
 11 10  2  0
 13 12  1  0
 14 13  2  0
 16 15  1  1
 15 13  1  0
 16 17  1  0
 18 16  1  0
 19 18  2  0
 20 18  1  0
 21 20  1  0
 21 25  1  0
 21 22  1  6
 23 22  1  0
 24 23  2  0
 25 28  1  0
 26 25  2  0
 27 23  1  0
M  END
$$$$
