RND.pdb
     RDKit          3D

 28 27  0  0  1  0  0  0  0  0999 V2000
   26.6399  -20.8051  -10.7332 N   0  0  0  0  0  0  0  0  0  0  0  0
   26.4495  -21.7620  -11.7633 C   0  0  0  0  0  0  0  0  0  0  0  0
   26.2411  -23.0194  -11.4985 N   0  0  0  0  0  0  0  0  0  0  0  0
   26.4722  -21.4189  -13.1458 N   0  0  0  0  0  0  0  0  0  0  0  0
   27.1287  -20.2221  -13.5910 C   0  0  0  0  0  0  0  0  0  0  0  0
   26.5805  -18.9672  -13.0237 C   0  0  0  0  0  0  0  0  0  0  0  0
   25.5838  -18.2316  -13.8444 C   0  0  0  0  0  0  0  0  0  0  0  0
   25.6744  -18.4698  -15.3257 C   0  0  2  0  0  0  0  0  0  0  0  0
   26.6033  -17.6317  -16.0136 N   0  0  0  0  0  0  0  0  0  0  0  0
   24.3366  -18.4967  -15.9622 C   0  0  0  0  0  0  0  0  0  0  0  0
   23.4364  -19.1650  -15.4013 O   0  0  0  0  0  0  0  0  0  0  0  0
   26.1357  -23.6746  -12.3105 N   0  0  0  0  0  0  0  0  0  0  0  0
   21.2095  -19.8530  -16.1297 C   0  0  0  0  0  0  0  0  0  0  0  0
   21.2798  -18.4662  -15.8076 O   0  0  0  0  0  0  0  0  0  0  0  0
   21.0811  -18.0882  -14.6172 C   0  0  0  0  0  0  0  0  0  0  0  0
   21.5798  -17.4272  -16.8180 C   0  0  2  0  0  0  0  0  0  0  0  0
   22.6877  -17.8493  -17.7485 N   0  0  0  0  0  0  0  0  0  0  0  0
   23.9934  -17.8226  -17.1613 C   0  0  0  0  0  0  0  0  0  0  0  0
   22.6487  -16.9391  -18.9414 O   0  0  0  0  0  0  0  0  0  0  0  0
   21.6041  -16.8873  -19.6293 N   0  0  0  0  0  0  0  0  0  0  0  0
   23.7473  -16.1407  -19.3139 C   0  0  1  0  0  0  0  0  0  0  0  0
   23.7765  -15.2472  -20.4624 C   0  0  0  0  0  0  0  0  0  0  0  0
   24.4078  -13.9577  -20.0318 C   0  0  0  0  0  0  0  0  0  0  0  0
   23.7473  -13.3080  -18.8884 O   0  0  0  0  0  0  0  0  0  0  0  0
   22.7772  -13.8727  -18.3241 C   0  0  0  0  0  0  0  0  0  0  0  0
   24.5041  -15.8738  -21.5891 O   0  0  0  0  0  0  0  0  0  0  0  0
   24.9809  -17.0139  -21.4465 O   0  0  0  0  0  0  0  0  0  0  0  0
   24.1608  -12.0938  -18.4140 O   0  0  0  0  0  0  0  0  0  0  0  0
  2  1  1  0
  3  2  2  0
  4  2  1  0
  5  4  1  0
  6  5  1  0
  7  6  1  0
  8  7  1  0
  8  9  1  6
 10 17  1  0
 10  8  1  0
 11 10  2  0
 13 12  1  0
 14 13  2  0
 16 15  1  1
 15 13  1  0
 16 17  1  0
 18 16  1  0
 19 18  2  0
 20 18  1  0
 21 20  1  0
 21 25  1  0
 21 22  1  6
 23 22  1  0
 24 23  2  0
 25 28  1  0
 26 25  2  0
 27 23  1  0
M  END
$$$$
