RND.pdb
     RDKit          3D

 28 27  0  0  1  0  0  0  0  0999 V2000
   29.7943  -22.9897  -17.6304 N   0  0  0  0  0  0  0  0  0  0  0  0
   29.8314  -21.9453  -18.5899 C   0  0  0  0  0  0  0  0  0  0  0  0
   30.5812  -22.0183  -19.6515 N   0  0  0  0  0  0  0  0  0  0  0  0
   29.0590  -20.7551  -18.4617 N   0  0  0  0  0  0  0  0  0  0  0  0
   28.1086  -20.6120  -17.3951 C   0  0  0  0  0  0  0  0  0  0  0  0
   26.7870  -21.2305  -17.6558 C   0  0  0  0  0  0  0  0  0  0  0  0
   25.7537  -21.0922  -16.5969 C   0  0  0  0  0  0  0  0  0  0  0  0
   26.1216  -21.6808  -15.2637 C   0  0  2  0  0  0  0  0  0  0  0  0
   26.8395  -22.9132  -15.3281 N   0  0  0  0  0  0  0  0  0  0  0  0
   24.9598  -21.7341  -14.3456 C   0  0  0  0  0  0  0  0  0  0  0  0
   23.9701  -22.4195  -14.6954 O   0  0  0  0  0  0  0  0  0  0  0  0
   30.5130  -21.2372  -20.3477 N   0  0  0  0  0  0  0  0  0  0  0  0
   25.8700  -22.3733  -10.8761 C   0  0  0  0  0  0  0  0  0  0  0  0
   25.1390  -21.3511  -10.2030 O   0  0  0  0  0  0  0  0  0  0  0  0
   25.4602  -21.0232   -9.0246 C   0  0  0  0  0  0  0  0  0  0  0  0
   24.0008  -20.6414  -10.8284 C   0  0  2  0  0  0  0  0  0  0  0  0
   23.7393  -21.1228  -12.2324 N   0  0  0  0  0  0  0  0  0  0  0  0
   24.8796  -21.0679  -13.0967 C   0  0  0  0  0  0  0  0  0  0  0  0
   22.6313  -20.2842  -12.7997 O   0  0  0  0  0  0  0  0  0  0  0  0
   22.9236  -19.2673  -13.4688 N   0  0  0  0  0  0  0  0  0  0  0  0
   21.2732  -20.6018  -12.6054 C   0  0  1  0  0  0  0  0  0  0  0  0
   20.1728  -20.0777  -13.4010 C   0  0  0  0  0  0  0  0  0  0  0  0
   20.4634  -20.3665  -14.8429 C   0  0  0  0  0  0  0  0  0  0  0  0
   19.3961  -19.9629  -15.7722 O   0  0  0  0  0  0  0  0  0  0  0  0
   18.7900  -18.8771  -15.5934 C   0  0  0  0  0  0  0  0  0  0  0  0
   18.8881  -20.6688  -12.9632 O   0  0  0  0  0  0  0  0  0  0  0  0
   18.8729  -21.8307  -12.5194 O   0  0  0  0  0  0  0  0  0  0  0  0
   19.0382  -20.7416  -16.8380 O   0  0  0  0  0  0  0  0  0  0  0  0
  2  1  1  0
  3  2  2  0
  4  2  1  0
  5  4  1  0
  6  5  1  0
  7  6  1  0
  8  7  1  0
  8  9  1  6
 10 17  1  0
 10  8  1  0
 11 10  2  0
 13 12  1  0
 14 13  2  0
 16 15  1  1
 15 13  1  0
 16 17  1  0
 18 16  1  0
 19 18  2  0
 20 18  1  0
 21 20  1  0
 21 25  1  0
 21 22  1  1
 23 22  1  0
 24 23  2  0
 25 28  1  0
 26 25  2  0
 27 23  1  0
M  END
$$$$
