RND.pdb
     RDKit          3D

 28 27  0  0  1  0  0  0  0  0999 V2000
   24.0398  -21.1962   -7.1037 N   0  0  0  0  0  0  0  0  0  0  0  0
   23.7435  -21.4492   -8.4679 C   0  0  0  0  0  0  0  0  0  0  0  0
   22.5362  -21.3277   -8.9395 N   0  0  0  0  0  0  0  0  0  0  0  0
   24.7353  -21.8496   -9.4091 N   0  0  0  0  0  0  0  0  0  0  0  0
   25.9134  -21.0545   -9.6120 C   0  0  0  0  0  0  0  0  0  0  0  0
   25.7852  -20.0131  -10.6590 C   0  0  0  0  0  0  0  0  0  0  0  0
   27.0275  -19.6063  -11.3655 C   0  0  0  0  0  0  0  0  0  0  0  0
   27.3842  -20.4410  -12.5636 C   0  0  2  0  0  0  0  0  0  0  0  0
   28.5910  -21.1929  -12.4347 N   0  0  0  0  0  0  0  0  0  0  0  0
   27.3210  -19.6572  -13.8195 C   0  0  0  0  0  0  0  0  0  0  0  0
   28.1043  -18.6861  -13.9419 O   0  0  0  0  0  0  0  0  0  0  0  0
   22.3892  -21.5402   -9.9557 N   0  0  0  0  0  0  0  0  0  0  0  0
   26.1427  -17.3410  -18.2613 C   0  0  0  0  0  0  0  0  0  0  0  0
   26.5191  -18.7013  -18.4616 O   0  0  0  0  0  0  0  0  0  0  0  0
   26.7495  -19.1221  -19.6317 C   0  0  0  0  0  0  0  0  0  0  0  0
   26.6560  -19.6633  -17.3453 C   0  0  1  0  0  0  0  0  0  0  0  0
   26.2698  -19.0513  -16.0234 N   0  0  0  0  0  0  0  0  0  0  0  0
   26.4400  -19.9210  -14.8986 C   0  0  0  0  0  0  0  0  0  0  0  0
   24.8339  -18.6259  -16.1235 O   0  0  0  0  0  0  0  0  0  0  0  0
   23.9381  -19.4975  -16.0537 N   0  0  0  0  0  0  0  0  0  0  0  0
   24.4591  -17.2791  -16.2931 C   0  0  1  0  0  0  0  0  0  0  0  0
   23.0871  -16.7997  -16.3725 C   0  0  0  0  0  0  0  0  0  0  0  0
   23.0761  -15.3550  -15.9729 C   0  0  0  0  0  0  0  0  0  0  0  0
   21.7476  -14.7229  -16.0095 O   0  0  0  0  0  0  0  0  0  0  0  0
   20.7313  -15.4193  -16.2554 C   0  0  0  0  0  0  0  0  0  0  0  0
   22.5437  -17.0044  -17.7343 O   0  0  0  0  0  0  0  0  0  0  0  0
   23.2003  -16.6145  -18.7162 O   0  0  0  0  0  0  0  0  0  0  0  0
   21.5816  -13.3847  -15.7813 O   0  0  0  0  0  0  0  0  0  0  0  0
  2  1  1  0
  3  2  2  0
  4  2  1  0
  5  4  1  0
  6  5  1  0
  7  6  1  0
  8  7  1  0
  8  9  1  1
 10 17  1  0
 10  8  1  0
 11 10  2  0
 13 12  1  0
 14 13  2  0
 16 15  1  1
 15 13  1  0
 16 17  1  0
 18 16  1  0
 19 18  2  0
 20 18  1  0
 21 20  1  0
 21 25  1  0
 21 22  1  6
 23 22  1  0
 24 23  2  0
 25 28  1  0
 26 25  2  0
 27 23  1  0
M  END
$$$$
