RWN.pdb
     RDKit          3D

 34 35  0  0  1  0  0  0  0  0999 V2000
    8.9442  -14.9803   15.6545 N   0  0  0  0  0  0  0  0  0  0  0  0
    8.1877  -13.7812   15.7674 C   0  0  0  0  0  0  0  0  0  0  0  0
    8.2110  -12.8925   14.8368 N   0  0  0  0  0  0  0  0  0  0  0  0
    7.3753  -13.5022   16.9048 N   0  0  0  0  0  0  0  0  0  0  0  0
    7.1154  -14.5272   17.8747 C   0  0  0  0  0  0  0  0  0  0  0  0
    7.7721  -14.3582   19.1924 C   0  0  0  0  0  0  0  0  0  0  0  0
    7.0911  -14.8869   20.3911 C   0  0  0  0  0  0  0  0  0  0  0  0
    7.7210  -16.1336   20.9194 C   0  0  2  0  0  0  0  0  0  0  0  0
    6.6865  -17.0231   21.3982 N   0  0  0  0  0  0  0  0  0  0  0  0
    8.7065  -15.8282   22.0140 C   0  0  0  0  0  0  0  0  0  0  0  0
    9.7592  -15.2175   21.7171 O   0  0  0  0  0  0  0  0  0  0  0  0
    7.6421  -12.0318   14.9726 N   0  0  0  0  0  0  0  0  0  0  0  0
    8.4635  -16.2112   23.3338 C   0  0  1  0  0  0  0  0  0  0  0  0
    9.3162  -15.9547   24.4760 C   0  0  0  0  0  0  0  0  0  0  0  0
    8.5649  -16.1461   25.7964 C   0  0  0  0  0  0  0  0  0  0  0  0
    7.3836  -15.2522   25.8430 C   0  0  0  0  0  0  0  0  0  0  0  0
    6.0514  -15.5446   25.7286 N   0  0  0  0  0  0  0  0  0  0  0  0
    5.3511  -14.3980   25.8261 C   0  0  0  0  0  0  0  0  0  0  0  0
    6.1916  -13.3476   26.0036 C   0  0  0  0  0  0  0  0  0  0  0  0
    5.9904  -11.9985   26.1552 C   0  0  0  0  0  0  0  0  0  0  0  0
    7.0715  -11.1597   26.3208 C   0  0  0  0  0  0  0  0  0  0  0  0
    8.3595  -11.6416   26.3387 C   0  0  0  0  0  0  0  0  0  0  0  0
    8.5302  -13.0128   26.1828 C   0  0  0  0  0  0  0  0  0  0  0  0
    7.4651  -13.8749   26.0152 C   0  0  0  0  0  0  0  0  0  0  0  0
   10.4903  -16.8139   24.4863 O   0  0  0  0  0  0  0  0  0  0  0  0
   10.3860  -18.0590   24.2178 N   0  0  0  0  0  0  0  0  0  0  0  0
   15.2458  -18.8626   24.2618 C   0  0  0  0  0  0  0  0  0  0  0  0
   15.3612  -17.4755   24.0275 O   0  0  0  0  0  0  0  0  0  0  0  0
   16.4499  -17.0137   23.6278 C   0  0  0  0  0  0  0  0  0  0  0  0
   14.2267  -16.5555   24.2436 C   0  0  2  0  0  0  0  0  0  0  0  0
   12.9557  -17.2823   24.6406 N   0  0  0  0  0  0  0  0  0  0  0  0
   11.8297  -16.3813   24.7834 C   0  0  0  0  0  0  0  0  0  0  0  0
   13.2213  -18.0161   25.8984 O   0  0  0  0  0  0  0  0  0  0  0  0
   12.6353  -17.6601   26.9453 O   0  0  0  0  0  0  0  0  0  0  0  0
  2  3  2  0
  2  1  1  0
  4  2  1  0
  5  6  1  0
  5  4  1  0
  7  6  1  0
  8  9  1  1
  8  7  1  0
 10  8  1  0
 11 10  2  0
 12 10  1  0
 13 24  1  0
 13 12  1  0
 13 14  1  1
 15 14  1  0
 16 15  2  0
 17 18  1  0
 17 16  1  0
 18 23  2  0
 19 20  2  0
 19 18  1  0
 20 21  1  0
 21 22  2  0
 23 22  1  0
 23 15  1  0
 24 31  1  0
 25 24  2  0
 27 28  2  0
 27 26  1  0
 30 29  1  6
 29 27  1  0
 30 32  1  0
 31 30  1  0
 32 33  2  0
 32 34  1  0
M  END
$$$$
