RWN.pdb
     RDKit          3D

 34 35  0  0  1  0  0  0  0  0999 V2000
    9.2009  -12.9028   18.1117 N   0  0  0  0  0  0  0  0  0  0  0  0
    8.1253  -13.4732   17.3766 C   0  0  0  0  0  0  0  0  0  0  0  0
    7.9155  -13.1486   16.1490 N   0  0  0  0  0  0  0  0  0  0  0  0
    7.2315  -14.4214   17.9542 N   0  0  0  0  0  0  0  0  0  0  0  0
    7.4841  -14.9446   19.2662 C   0  0  0  0  0  0  0  0  0  0  0  0
    8.6720  -15.8205   19.4002 C   0  0  0  0  0  0  0  0  0  0  0  0
    9.5697  -15.6172   20.5547 C   0  0  0  0  0  0  0  0  0  0  0  0
    9.8180  -16.8693   21.3299 C   0  0  2  0  0  0  0  0  0  0  0  0
    8.7065  -17.7744   21.1401 N   0  0  0  0  0  0  0  0  0  0  0  0
   10.0209  -16.5776   22.7916 C   0  0  0  0  0  0  0  0  0  0  0  0
   11.0694  -15.9893   23.1436 O   0  0  0  0  0  0  0  0  0  0  0  0
    7.1087  -13.5889   15.6610 N   0  0  0  0  0  0  0  0  0  0  0  0
    9.0692  -16.9488   23.7424 C   0  0  1  0  0  0  0  0  0  0  0  0
    9.1721  -16.7772   25.1767 C   0  0  0  0  0  0  0  0  0  0  0  0
    7.7992  -16.5646   25.8204 C   0  0  0  0  0  0  0  0  0  0  0  0
    7.1392  -15.3767   25.2289 C   0  0  0  0  0  0  0  0  0  0  0  0
    6.4167  -15.2535   24.0729 N   0  0  0  0  0  0  0  0  0  0  0  0
    6.0224  -13.9715   23.9485 C   0  0  0  0  0  0  0  0  0  0  0  0
    6.4683  -13.2386   24.9999 C   0  0  0  0  0  0  0  0  0  0  0  0
    6.3437  -11.9156   25.3431 C   0  0  0  0  0  0  0  0  0  0  0  0
    6.9233  -11.4525   26.5046 C   0  0  0  0  0  0  0  0  0  0  0  0
    7.6303  -12.2873   27.3381 C   0  0  0  0  0  0  0  0  0  0  0  0
    7.7384  -13.6219   26.9628 C   0  0  0  0  0  0  0  0  0  0  0  0
    7.1678  -14.1116   25.8051 C   0  0  0  0  0  0  0  0  0  0  0  0
    9.8101  -17.9157   25.8197 O   0  0  0  0  0  0  0  0  0  0  0  0
    9.9210  -19.0306   25.2048 N   0  0  0  0  0  0  0  0  0  0  0  0
   13.4302  -20.9868   27.2028 C   0  0  0  0  0  0  0  0  0  0  0  0
   13.7085  -19.6358   26.9035 O   0  0  0  0  0  0  0  0  0  0  0  0
   14.8933  -19.2425   26.9079 C   0  0  0  0  0  0  0  0  0  0  0  0
   12.6338  -18.6746   26.5858 C   0  0  1  0  0  0  0  0  0  0  0  0
   11.4404  -18.8088   27.5127 N   0  0  0  0  0  0  0  0  0  0  0  0
   10.3595  -17.9145   27.1493 C   0  0  0  0  0  0  0  0  0  0  0  0
   11.9043  -18.5588   28.8960 O   0  0  0  0  0  0  0  0  0  0  0  0
   11.5138  -17.5297   29.4916 O   0  0  0  0  0  0  0  0  0  0  0  0
  2  3  2  0
  2  1  1  0
  4  2  1  0
  5  6  1  0
  5  4  1  0
  7  6  1  0
  8  9  1  1
  8  7  1  0
 10  8  1  0
 11 10  2  0
 12 10  1  0
 13 24  1  0
 13 12  1  0
 13 14  1  1
 15 14  1  0
 16 15  2  0
 17 18  1  0
 17 16  1  0
 18 23  2  0
 19 20  2  0
 19 18  1  0
 20 21  1  0
 21 22  2  0
 23 22  1  0
 23 15  1  0
 24 31  1  0
 25 24  2  0
 27 28  2  0
 27 26  1  0
 30 29  1  6
 29 27  1  0
 30 32  1  0
 31 30  1  0
 32 33  2  0
 32 34  1  0
M  END
$$$$
