RWN.pdb
     RDKit          3D

 34 35  0  0  1  0  0  0  0  0999 V2000
    6.9659  -13.8605   15.0569 N   0  0  0  0  0  0  0  0  0  0  0  0
    8.2459  -14.0461   15.6485 C   0  0  0  0  0  0  0  0  0  0  0  0
    8.9693  -15.0696   15.3561 N   0  0  0  0  0  0  0  0  0  0  0  0
    8.7879  -13.1209   16.5874 N   0  0  0  0  0  0  0  0  0  0  0  0
    8.5050  -13.2640   17.9868 C   0  0  0  0  0  0  0  0  0  0  0  0
    9.1991  -14.3742   18.6811 C   0  0  0  0  0  0  0  0  0  0  0  0
    8.9796  -14.5440   20.1313 C   0  0  0  0  0  0  0  0  0  0  0  0
    9.6378  -15.7657   20.6832 C   0  0  2  0  0  0  0  0  0  0  0  0
    8.8326  -16.9240   20.3664 N   0  0  0  0  0  0  0  0  0  0  0  0
    9.8440  -15.6531   22.1691 C   0  0  0  0  0  0  0  0  0  0  0  0
   10.6661  -14.8100   22.5962 O   0  0  0  0  0  0  0  0  0  0  0  0
    9.9040  -15.1486   15.8066 N   0  0  0  0  0  0  0  0  0  0  0  0
    9.1402  -16.4641   23.0605 C   0  0  1  0  0  0  0  0  0  0  0  0
    9.1461  -16.3633   24.5052 C   0  0  0  0  0  0  0  0  0  0  0  0
    7.7257  -16.2909   25.0724 C   0  0  0  0  0  0  0  0  0  0  0  0
    7.1267  -14.9683   24.7751 C   0  0  0  0  0  0  0  0  0  0  0  0
    6.5429  -14.5022   23.6281 N   0  0  0  0  0  0  0  0  0  0  0  0
    6.1523  -13.2295   23.8326 C   0  0  0  0  0  0  0  0  0  0  0  0
    6.4644  -12.8390   25.0942 C   0  0  0  0  0  0  0  0  0  0  0  0
    6.2864  -11.6672   25.7862 C   0  0  0  0  0  0  0  0  0  0  0  0
    6.7213  -11.5698   27.0904 C   0  0  0  0  0  0  0  0  0  0  0  0
    7.3349  -12.6248   27.7245 C   0  0  0  0  0  0  0  0  0  0  0  0
    7.5004  -13.7981   26.9968 C   0  0  0  0  0  0  0  0  0  0  0  0
    7.0743  -13.9222   25.6897 C   0  0  0  0  0  0  0  0  0  0  0  0
    9.8339  -17.4834   25.1291 O   0  0  0  0  0  0  0  0  0  0  0  0
    9.4321  -18.6811   24.9357 N   0  0  0  0  0  0  0  0  0  0  0  0
   13.0185  -18.8551   24.3445 C   0  0  0  0  0  0  0  0  0  0  0  0
   13.7181  -18.6237   25.5484 O   0  0  0  0  0  0  0  0  0  0  0  0
   14.9634  -18.5410   25.5231 C   0  0  0  0  0  0  0  0  0  0  0  0
   13.0146  -18.4775   26.8382 C   0  0  2  0  0  0  0  0  0  0  0  0
   11.5060  -18.5306   26.6875 N   0  0  0  0  0  0  0  0  0  0  0  0
   10.9830  -17.3744   25.9876 C   0  0  0  0  0  0  0  0  0  0  0  0
   10.9146  -18.6553   28.0388 O   0  0  0  0  0  0  0  0  0  0  0  0
   10.1324  -17.7667   28.4444 O   0  0  0  0  0  0  0  0  0  0  0  0
  2  3  2  0
  2  1  1  0
  4  2  1  0
  5  6  1  0
  5  4  1  0
  7  6  1  0
  8  9  1  1
  8  7  1  0
 10  8  1  0
 11 10  2  0
 12 10  1  0
 13 24  1  0
 13 12  1  0
 13 14  1  1
 15 14  1  0
 16 15  2  0
 17 18  1  0
 17 16  1  0
 18 23  2  0
 19 20  2  0
 19 18  1  0
 20 21  1  0
 21 22  2  0
 23 22  1  0
 23 15  1  0
 24 31  1  0
 25 24  2  0
 27 28  2  0
 27 26  1  0
 30 29  1  6
 29 27  1  0
 30 32  1  0
 31 30  1  0
 32 33  2  0
 32 34  1  0
M  END
$$$$
