RWN.pdb
     RDKit          3D

 34 35  0  0  1  0  0  0  0  0999 V2000
    7.9040  -12.8212   14.5801 N   0  0  0  0  0  0  0  0  0  0  0  0
    8.3155  -13.7131   15.6087 C   0  0  0  0  0  0  0  0  0  0  0  0
    8.9136  -14.8177   15.3283 N   0  0  0  0  0  0  0  0  0  0  0  0
    8.0878  -13.4356   16.9880 N   0  0  0  0  0  0  0  0  0  0  0  0
    8.5581  -14.3443   17.9939 C   0  0  0  0  0  0  0  0  0  0  0  0
    7.5295  -14.8884   18.9118 C   0  0  0  0  0  0  0  0  0  0  0  0
    7.7367  -14.7428   20.3665 C   0  0  0  0  0  0  0  0  0  0  0  0
    8.2401  -15.9912   21.0133 C   0  0  2  0  0  0  0  0  0  0  0  0
    7.1312  -16.8921   21.2355 N   0  0  0  0  0  0  0  0  0  0  0  0
    8.9474  -15.6914   22.3066 C   0  0  0  0  0  0  0  0  0  0  0  0
    9.8134  -14.7863   22.3182 O   0  0  0  0  0  0  0  0  0  0  0  0
    9.1661  -15.4473   16.1174 N   0  0  0  0  0  0  0  0  0  0  0  0
    8.6530  -16.3988   23.4730 C   0  0  1  0  0  0  0  0  0  0  0  0
    9.2827  -16.2281   24.7659 C   0  0  0  0  0  0  0  0  0  0  0  0
    8.2680  -16.3362   25.9075 C   0  0  0  0  0  0  0  0  0  0  0  0
    7.1932  -15.3315   25.7287 C   0  0  0  0  0  0  0  0  0  0  0  0
    5.8951  -15.4911   25.3251 N   0  0  0  0  0  0  0  0  0  0  0  0
    5.3006  -14.2825   25.3057 C   0  0  0  0  0  0  0  0  0  0  0  0
    6.1781  -13.3210   25.6891 C   0  0  0  0  0  0  0  0  0  0  0  0
    6.0763  -11.9601   25.8347 C   0  0  0  0  0  0  0  0  0  0  0  0
    7.1702  -11.2327   26.2512 C   0  0  0  0  0  0  0  0  0  0  0  0
    8.3736  -11.8384   26.5281 C   0  0  0  0  0  0  0  0  0  0  0  0
    8.4446  -13.2182   26.3711 C   0  0  0  0  0  0  0  0  0  0  0  0
    7.3644  -13.9704   25.9554 C   0  0  0  0  0  0  0  0  0  0  0  0
   10.3372  -17.2043   24.9941 O   0  0  0  0  0  0  0  0  0  0  0  0
   10.0696  -18.4535   25.0265 N   0  0  0  0  0  0  0  0  0  0  0  0
   13.2319  -17.0115   22.8628 C   0  0  0  0  0  0  0  0  0  0  0  0
   14.2905  -16.9867   23.7961 O   0  0  0  0  0  0  0  0  0  0  0  0
   15.4014  -16.5383   23.4454 C   0  0  0  0  0  0  0  0  0  0  0  0
   14.1180  -17.4785   25.1776 C   0  0  2  0  0  0  0  0  0  0  0  0
   12.6983  -17.9318   25.4608 N   0  0  0  0  0  0  0  0  0  0  0  0
   11.7262  -16.8898   25.1973 C   0  0  0  0  0  0  0  0  0  0  0  0
   12.6341  -18.3848   26.8686 O   0  0  0  0  0  0  0  0  0  0  0  0
   11.8580  -17.8032   27.6596 O   0  0  0  0  0  0  0  0  0  0  0  0
  2  3  2  0
  2  1  1  0
  4  2  1  0
  5  6  1  0
  5  4  1  0
  7  6  1  0
  8  9  1  1
  8  7  1  0
 10  8  1  0
 11 10  2  0
 12 10  1  0
 13 24  1  0
 13 12  1  0
 13 14  1  1
 15 14  1  0
 16 15  2  0
 17 18  1  0
 17 16  1  0
 18 23  2  0
 19 20  2  0
 19 18  1  0
 20 21  1  0
 21 22  2  0
 23 22  1  0
 23 15  1  0
 24 31  1  0
 25 24  2  0
 27 28  2  0
 27 26  1  0
 30 29  1  6
 29 27  1  0
 30 32  1  0
 31 30  1  0
 32 33  2  0
 32 34  1  0
M  END
$$$$
