RWN.pdb
     RDKit          3D

 34 35  0  0  1  0  0  0  0  0999 V2000
    9.2491  -15.4874   16.2111 N   0  0  0  0  0  0  0  0  0  0  0  0
    8.3542  -14.3966   16.0317 C   0  0  0  0  0  0  0  0  0  0  0  0
    8.0356  -13.9874   14.8538 N   0  0  0  0  0  0  0  0  0  0  0  0
    7.7718  -13.7052   17.1336 N   0  0  0  0  0  0  0  0  0  0  0  0
    7.6988  -14.3328   18.4219 C   0  0  0  0  0  0  0  0  0  0  0  0
    7.0419  -13.5467   19.4927 C   0  0  0  0  0  0  0  0  0  0  0  0
    6.9935  -14.1153   20.8545 C   0  0  0  0  0  0  0  0  0  0  0  0
    7.8917  -15.2958   21.0275 C   0  0  2  0  0  0  0  0  0  0  0  0
    7.0873  -16.4896   21.1625 N   0  0  0  0  0  0  0  0  0  0  0  0
    8.7949  -15.1272   22.2186 C   0  0  0  0  0  0  0  0  0  0  0  0
    9.5946  -14.1631   22.2304 O   0  0  0  0  0  0  0  0  0  0  0  0
    7.4076  -13.1608   14.7800 N   0  0  0  0  0  0  0  0  0  0  0  0
    8.7509  -16.0183   23.2917 C   0  0  1  0  0  0  0  0  0  0  0  0
    9.5829  -15.9814   24.4765 C   0  0  0  0  0  0  0  0  0  0  0  0
    8.7778  -16.2882   25.7422 C   0  0  0  0  0  0  0  0  0  0  0  0
    7.5596  -15.4453   25.7863 C   0  0  0  0  0  0  0  0  0  0  0  0
    6.2634  -15.7514   25.4704 N   0  0  0  0  0  0  0  0  0  0  0  0
    5.5053  -14.6544   25.6607 C   0  0  0  0  0  0  0  0  0  0  0  0
    6.2719  -13.6235   26.0976 C   0  0  0  0  0  0  0  0  0  0  0  0
    5.9939  -12.3216   26.4317 C   0  0  0  0  0  0  0  0  0  0  0  0
    7.0101  -11.4912   26.8528 C   0  0  0  0  0  0  0  0  0  0  0  0
    8.3084  -11.9350   26.9487 C   0  0  0  0  0  0  0  0  0  0  0  0
    8.5576  -13.2587   26.6033 C   0  0  0  0  0  0  0  0  0  0  0  0
    7.5585  -14.1114   26.1786 C   0  0  0  0  0  0  0  0  0  0  0  0
   10.6905  -16.9215   24.3969 O   0  0  0  0  0  0  0  0  0  0  0  0
   10.5049  -18.1080   23.9599 N   0  0  0  0  0  0  0  0  0  0  0  0
   15.2985  -14.8247   21.8513 C   0  0  0  0  0  0  0  0  0  0  0  0
   14.2185  -15.7332   21.8277 O   0  0  0  0  0  0  0  0  0  0  0  0
   14.2043  -16.6406   20.9705 C   0  0  0  0  0  0  0  0  0  0  0  0
   13.1038  -15.6379   22.7912 C   0  0  2  0  0  0  0  0  0  0  0  0
   13.1329  -16.7465   23.8263 N   0  0  0  0  0  0  0  0  0  0  0  0
   12.0475  -16.6359   24.7801 C   0  0  0  0  0  0  0  0  0  0  0  0
   14.4496  -16.7082   24.5018 O   0  0  0  0  0  0  0  0  0  0  0  0
   14.7373  -15.7225   25.2172 O   0  0  0  0  0  0  0  0  0  0  0  0
  2  3  2  0
  2  1  1  0
  4  2  1  0
  5  6  1  0
  5  4  1  0
  7  6  1  0
  8  9  1  1
  8  7  1  0
 10  8  1  0
 11 10  2  0
 12 10  1  0
 13 24  1  0
 13 12  1  0
 13 14  1  1
 15 14  1  0
 16 15  2  0
 17 18  1  0
 17 16  1  0
 18 23  2  0
 19 20  2  0
 19 18  1  0
 20 21  1  0
 21 22  2  0
 23 22  1  0
 23 15  1  0
 24 31  1  0
 25 24  2  0
 27 28  2  0
 27 26  1  0
 30 29  1  6
 29 27  1  0
 30 32  1  0
 31 30  1  0
 32 33  2  0
 32 34  1  0
M  END
$$$$
