RWN.pdb
     RDKit          3D

 34 35  0  0  1  0  0  0  0  0999 V2000
    8.0772  -13.2846   16.5828 N   0  0  0  0  0  0  0  0  0  0  0  0
    8.0103  -12.9842   17.9714 C   0  0  0  0  0  0  0  0  0  0  0  0
    7.9308  -11.7675   18.3834 N   0  0  0  0  0  0  0  0  0  0  0  0
    8.0301  -14.0023   18.9686 N   0  0  0  0  0  0  0  0  0  0  0  0
    8.2121  -15.3754   18.5942 C   0  0  0  0  0  0  0  0  0  0  0  0
    8.1231  -16.3668   19.6921 C   0  0  0  0  0  0  0  0  0  0  0  0
    8.3677  -15.9097   21.0747 C   0  0  0  0  0  0  0  0  0  0  0  0
    9.0242  -16.9465   21.9258 C   0  0  2  0  0  0  0  0  0  0  0  0
    8.0488  -17.9494   22.2910 N   0  0  0  0  0  0  0  0  0  0  0  0
    9.6428  -16.3361   23.1536 C   0  0  0  0  0  0  0  0  0  0  0  0
   10.5319  -15.4662   23.0054 O   0  0  0  0  0  0  0  0  0  0  0  0
    7.9494  -11.6001   19.4103 N   0  0  0  0  0  0  0  0  0  0  0  0
    9.2424  -16.7221   24.4336 C   0  0  1  0  0  0  0  0  0  0  0  0
    9.8295  -16.2928   25.6858 C   0  0  0  0  0  0  0  0  0  0  0  0
    8.7752  -16.1599   26.7882 C   0  0  0  0  0  0  0  0  0  0  0  0
    7.6043  -15.4048   26.2830 C   0  0  0  0  0  0  0  0  0  0  0  0
    6.4241  -15.8561   25.7567 N   0  0  0  0  0  0  0  0  0  0  0  0
    5.6667  -14.7918   25.4280 C   0  0  0  0  0  0  0  0  0  0  0  0
    6.3199  -13.6402   25.7257 C   0  0  0  0  0  0  0  0  0  0  0  0
    5.9948  -12.3137   25.5904 C   0  0  0  0  0  0  0  0  0  0  0  0
    6.8890  -11.3454   25.9934 C   0  0  0  0  0  0  0  0  0  0  0  0
    8.1105  -11.6744   26.5329 C   0  0  0  0  0  0  0  0  0  0  0  0
    8.4102  -13.0266   26.6569 C   0  0  0  0  0  0  0  0  0  0  0  0
    7.5330  -14.0163   26.2613 C   0  0  0  0  0  0  0  0  0  0  0  0
   10.8642  -17.2061   26.1467 O   0  0  0  0  0  0  0  0  0  0  0  0
   11.4098  -17.0447   27.2911 N   0  0  0  0  0  0  0  0  0  0  0  0
   10.1527  -21.4949   24.7908 C   0  0  0  0  0  0  0  0  0  0  0  0
   11.0274  -21.1090   25.8292 O   0  0  0  0  0  0  0  0  0  0  0  0
   10.6526  -21.2216   27.0146 C   0  0  0  0  0  0  0  0  0  0  0  0
   12.3751  -20.5748   25.5495 C   0  0  2  0  0  0  0  0  0  0  0  0
   12.4968  -19.0997   25.8820 N   0  0  0  0  0  0  0  0  0  0  0  0
   11.3622  -18.3341   25.4058 C   0  0  0  0  0  0  0  0  0  0  0  0
   13.7643  -18.6022   25.3014 O   0  0  0  0  0  0  0  0  0  0  0  0
   13.7244  -17.6881   24.4476 O   0  0  0  0  0  0  0  0  0  0  0  0
  2  3  2  0
  2  1  1  0
  4  2  1  0
  5  6  1  0
  5  4  1  0
  7  6  1  0
  8  9  1  1
  8  7  1  0
 10  8  1  0
 11 10  2  0
 12 10  1  0
 13 24  1  0
 13 12  1  0
 13 14  1  1
 15 14  1  0
 16 15  2  0
 17 18  1  0
 17 16  1  0
 18 23  2  0
 19 20  2  0
 19 18  1  0
 20 21  1  0
 21 22  2  0
 23 22  1  0
 23 15  1  0
 24 31  1  0
 25 24  2  0
 27 28  2  0
 27 26  1  0
 30 29  1  1
 29 27  1  0
 30 32  1  0
 31 30  1  0
 32 33  2  0
 32 34  1  0
M  END
$$$$
