RWN.pdb
     RDKit          3D

 34 35  0  0  1  0  0  0  0  0999 V2000
    8.1922  -12.6119   15.1042 N   0  0  0  0  0  0  0  0  0  0  0  0
    8.7526  -13.8226   14.6113 C   0  0  0  0  0  0  0  0  0  0  0  0
    9.3797  -13.8537   13.4878 N   0  0  0  0  0  0  0  0  0  0  0  0
    8.6485  -15.0516   15.3254 N   0  0  0  0  0  0  0  0  0  0  0  0
    7.3598  -15.5700   15.6853 C   0  0  0  0  0  0  0  0  0  0  0  0
    7.1669  -15.8979   17.1176 C   0  0  0  0  0  0  0  0  0  0  0  0
    8.1682  -15.4176   18.0906 C   0  0  0  0  0  0  0  0  0  0  0  0
    8.5956  -16.4716   19.0585 C   0  0  2  0  0  0  0  0  0  0  0  0
    7.5594  -17.4753   19.1568 N   0  0  0  0  0  0  0  0  0  0  0  0
    8.8956  -15.8847   20.4106 C   0  0  0  0  0  0  0  0  0  0  0  0
    9.8713  -15.1069   20.5213 O   0  0  0  0  0  0  0  0  0  0  0  0
    9.7032  -14.7786   13.1374 N   0  0  0  0  0  0  0  0  0  0  0  0
    8.1112  -16.1925   21.5231 C   0  0  1  0  0  0  0  0  0  0  0  0
    8.2940  -15.6938   22.8704 C   0  0  0  0  0  0  0  0  0  0  0  0
    6.9991  -15.7749   23.6836 C   0  0  0  0  0  0  0  0  0  0  0  0
    7.1894  -15.1356   25.0070 C   0  0  0  0  0  0  0  0  0  0  0  0
    7.4061  -15.6989   26.2356 N   0  0  0  0  0  0  0  0  0  0  0  0
    7.5090  -14.7126   27.1471 C   0  0  0  0  0  0  0  0  0  0  0  0
    7.3653  -13.5030   26.5490 C   0  0  0  0  0  0  0  0  0  0  0  0
    7.3861  -12.2139   27.0194 C   0  0  0  0  0  0  0  0  0  0  0  0
    7.2051  -11.1635   26.1456 C   0  0  0  0  0  0  0  0  0  0  0  0
    7.0022  -11.3730   24.8016 C   0  0  0  0  0  0  0  0  0  0  0  0
    6.9865  -12.6902   24.3561 C   0  0  0  0  0  0  0  0  0  0  0  0
    7.1651  -13.7602   25.2097 C   0  0  0  0  0  0  0  0  0  0  0  0
    9.3326  -16.4190   23.5861 O   0  0  0  0  0  0  0  0  0  0  0  0
    9.3528  -17.6969   23.5819 N   0  0  0  0  0  0  0  0  0  0  0  0
   15.0036  -16.9072   24.7850 C   0  0  0  0  0  0  0  0  0  0  0  0
   13.8737  -16.6059   25.5755 O   0  0  0  0  0  0  0  0  0  0  0  0
   13.8177  -17.0347   26.7466 C   0  0  0  0  0  0  0  0  0  0  0  0
   12.7550  -15.7965   25.0527 C   0  0  1  0  0  0  0  0  0  0  0  0
   11.4856  -16.6070   24.8710 N   0  0  0  0  0  0  0  0  0  0  0  0
   10.3977  -15.8114   24.3384 C   0  0  0  0  0  0  0  0  0  0  0  0
   11.1291  -17.1996   26.1798 O   0  0  0  0  0  0  0  0  0  0  0  0
   10.6411  -16.4646   27.0672 O   0  0  0  0  0  0  0  0  0  0  0  0
  2  3  2  0
  2  1  1  0
  4  2  1  0
  5  6  1  0
  5  4  1  0
  7  6  1  0
  8  9  1  1
  8  7  1  0
 10  8  1  0
 11 10  2  0
 12 10  1  0
 13 24  1  0
 13 12  1  0
 13 14  1  1
 15 14  1  0
 16 15  2  0
 17 18  1  0
 17 16  1  0
 18 23  2  0
 19 20  2  0
 19 18  1  0
 20 21  1  0
 21 22  2  0
 23 22  1  0
 23 15  1  0
 24 31  1  0
 25 24  2  0
 27 28  2  0
 27 26  1  0
 30 29  1  6
 29 27  1  0
 30 32  1  0
 31 30  1  0
 32 33  2  0
 32 34  1  0
M  END
$$$$
