ALM.pdb
     RDKit          3D

 22 21  0  0  1  0  0  0  0  0999 V2000
    8.9362  -17.8737   20.5752 C   0  0  0  0  0  0  0  0  0  0  0  0
    8.5235  -16.4259   20.6327 C   0  0  2  0  0  0  0  0  0  0  0  0
    9.0521  -15.6898   19.4977 N   0  0  0  0  0  0  0  0  0  0  0  0
    8.8725  -15.7906   21.9200 C   0  0  0  0  0  0  0  0  0  0  0  0
    9.9856  -15.2852   22.0848 O   0  0  0  0  0  0  0  0  0  0  0  0
    5.5940  -13.0954   25.9620 C   0  0  0  0  0  0  0  0  0  0  0  0
    6.5815  -13.3927   24.8163 C   0  0  1  0  0  0  0  0  0  0  0  0
    7.4441  -12.1934   24.6793 C   0  0  0  0  0  0  0  0  0  0  0  0
    7.2685  -14.6627   25.2024 C   0  0  0  0  0  0  0  0  0  0  0  0
    8.3095  -15.1761   24.2973 C   0  0  2  0  0  0  0  0  0  0  0  0
    7.9735  -15.7146   23.0420 N   0  0  0  0  0  0  0  0  0  0  0  0
    9.1099  -16.1833   25.0659 C   0  0  0  0  0  0  0  0  0  0  0  0
    9.2027  -17.3501   24.5586 O   0  0  0  0  0  0  0  0  0  0  0  0
    9.6020  -13.6135   29.1825 C   0  0  0  0  0  0  0  0  0  0  0  0
   11.3777  -13.8714   29.1282 S   0  0  0  0  0  0  0  0  0  0  0  0
   11.8576  -14.9800   27.7615 C   0  0  0  0  0  0  0  0  0  0  0  0
   11.3750  -16.3720   28.0359 C   0  0  0  0  0  0  0  0  0  0  0  0
   10.5676  -16.9327   26.9045 C   0  0  2  0  0  0  0  0  0  0  0  0
    9.7411  -15.8736   26.2975 N   0  0  0  0  0  0  0  0  0  0  0  0
    9.6304  -17.9787   27.3495 C   0  0  0  0  0  0  0  0  0  0  0  0
    8.3665  -17.7868   27.2902 O   0  0  0  0  0  0  0  0  0  0  0  0
   10.0362  -19.2085   27.8477 O   0  0  0  0  0  0  0  0  0  0  0  0
  2  4  1  0
  2  1  1  1
  2  3  1  0
  4  5  2  0
  7  6  1  1
  7  9  1  0
  7  8  1  0
 10  9  1  1
 10 12  1  0
 11 10  1  0
 11  4  1  0
 12 19  1  0
 13 12  2  0
 15 16  1  0
 15 14  1  0
 17 16  1  0
 18 17  1  1
 19 18  1  0
 20 22  1  0
 20 18  1  0
 21 20  2  0
M  END
$$$$
