ALM.pdb
     RDKit          3D

 22 21  0  0  1  0  0  0  0  0999 V2000
    8.7321  -17.2823   19.2492 C   0  0  0  0  0  0  0  0  0  0  0  0
    8.7667  -17.6109   20.7191 C   0  0  2  0  0  0  0  0  0  0  0  0
    7.5936  -18.3735   21.1084 N   0  0  0  0  0  0  0  0  0  0  0  0
    8.9560  -16.4116   21.5608 C   0  0  0  0  0  0  0  0  0  0  0  0
    9.9504  -15.6967   21.4137 O   0  0  0  0  0  0  0  0  0  0  0  0
    7.8826  -12.2098   24.6275 C   0  0  0  0  0  0  0  0  0  0  0  0
    7.5746  -13.4814   25.4427 C   0  0  1  0  0  0  0  0  0  0  0  0
    6.5172  -13.1140   26.4163 C   0  0  0  0  0  0  0  0  0  0  0  0
    7.2137  -14.5234   24.4338 C   0  0  0  0  0  0  0  0  0  0  0  0
    8.2638  -14.9583   23.4986 C   0  0  2  0  0  0  0  0  0  0  0  0
    8.0285  -15.9986   22.5815 N   0  0  0  0  0  0  0  0  0  0  0  0
    9.4774  -15.2871   24.3141 C   0  0  0  0  0  0  0  0  0  0  0  0
   10.4111  -14.4180   24.3288 O   0  0  0  0  0  0  0  0  0  0  0  0
   10.2956  -12.9492   29.1462 C   0  0  0  0  0  0  0  0  0  0  0  0
   10.4603  -14.6253   29.7677 S   0  0  0  0  0  0  0  0  0  0  0  0
   11.0274  -15.7743   28.4694 C   0  0  0  0  0  0  0  0  0  0  0  0
   10.0814  -15.7433   27.3074 C   0  0  0  0  0  0  0  0  0  0  0  0
   10.5912  -16.5207   26.1318 C   0  0  2  0  0  0  0  0  0  0  0  0
    9.6001  -16.4987   25.0408 N   0  0  0  0  0  0  0  0  0  0  0  0
   10.8143  -17.9410   26.4536 C   0  0  0  0  0  0  0  0  0  0  0  0
   11.6439  -18.2776   27.3681 O   0  0  0  0  0  0  0  0  0  0  0  0
   10.1616  -18.9832   25.8109 O   0  0  0  0  0  0  0  0  0  0  0  0
  2  4  1  0
  2  1  1  6
  2  3  1  0
  4  5  2  0
  7  6  1  6
  7  9  1  0
  7  8  1  0
 10  9  1  1
 10 12  1  0
 11 10  1  0
 11  4  1  0
 12 19  1  0
 13 12  2  0
 15 16  1  0
 15 14  1  0
 17 16  1  0
 18 17  1  1
 19 18  1  0
 20 22  1  0
 20 18  1  0
 21 20  2  0
M  END
$$$$
