ALM.pdb
     RDKit          3D

 22 21  0  0  1  0  0  0  0  0999 V2000
    9.0206  -19.9204   17.9335 C   0  0  0  0  0  0  0  0  0  0  0  0
    9.0324  -18.5095   17.4051 C   0  0  2  0  0  0  0  0  0  0  0  0
    9.7583  -18.4313   16.1496 N   0  0  0  0  0  0  0  0  0  0  0  0
    9.5336  -17.5390   18.3997 C   0  0  0  0  0  0  0  0  0  0  0  0
   10.7450  -17.3426   18.5243 O   0  0  0  0  0  0  0  0  0  0  0  0
    6.6475  -12.9886   20.6499 C   0  0  0  0  0  0  0  0  0  0  0  0
    7.6429  -13.8171   19.8138 C   0  0  1  0  0  0  0  0  0  0  0  0
    8.5934  -12.8519   19.2090 C   0  0  0  0  0  0  0  0  0  0  0  0
    8.2250  -14.8151   20.7620 C   0  0  0  0  0  0  0  0  0  0  0  0
    9.1349  -15.8306   20.2077 C   0  0  2  0  0  0  0  0  0  0  0  0
    8.6786  -16.7743   19.2697 N   0  0  0  0  0  0  0  0  0  0  0  0
    9.7571  -16.5500   21.3659 C   0  0  0  0  0  0  0  0  0  0  0  0
    9.1846  -17.6238   21.7485 O   0  0  0  0  0  0  0  0  0  0  0  0
   16.4118  -18.9988   24.5469 C   0  0  0  0  0  0  0  0  0  0  0  0
   15.5447  -17.7948   23.5363 S   0  0  0  0  0  0  0  0  0  0  0  0
   13.7421  -17.8575   23.8086 C   0  0  0  0  0  0  0  0  0  0  0  0
   13.0468  -16.9301   22.8586 C   0  0  0  0  0  0  0  0  0  0  0  0
   11.5550  -16.9847   22.9923 C   0  0  2  0  0  0  0  0  0  0  0  0
   10.9248  -16.0768   22.0168 N   0  0  0  0  0  0  0  0  0  0  0  0
   11.0950  -16.5421   24.3201 C   0  0  0  0  0  0  0  0  0  0  0  0
   10.5683  -15.3859   24.4732 O   0  0  0  0  0  0  0  0  0  0  0  0
   11.1946  -17.3214   25.4637 O   0  0  0  0  0  0  0  0  0  0  0  0
  2  4  1  0
  2  1  1  1
  2  3  1  0
  4  5  2  0
  7  6  1  1
  7  9  1  0
  7  8  1  0
 10  9  1  1
 10 12  1  0
 11 10  1  0
 11  4  1  0
 12 19  1  0
 13 12  2  0
 15 16  1  0
 15 14  1  0
 17 16  1  0
 18 17  1  1
 19 18  1  0
 20 22  1  0
 20 18  1  0
 21 20  2  0
M  END
$$$$
