ALM.pdb
     RDKit          3D

 22 21  0  0  1  0  0  0  0  0999 V2000
    8.4184  -19.6437   23.2200 C   0  0  0  0  0  0  0  0  0  0  0  0
    8.8632  -18.7099   22.1245 C   0  0  2  0  0  0  0  0  0  0  0  0
   10.1263  -19.1437   21.5537 N   0  0  0  0  0  0  0  0  0  0  0  0
    8.9067  -17.3012   22.5673 C   0  0  0  0  0  0  0  0  0  0  0  0
    9.8214  -16.9031   23.2928 O   0  0  0  0  0  0  0  0  0  0  0  0
    6.9093  -12.6922   19.7637 C   0  0  0  0  0  0  0  0  0  0  0  0
    7.8298  -13.7483   20.4069 C   0  0  1  0  0  0  0  0  0  0  0  0
    9.2173  -13.2424   20.2660 C   0  0  0  0  0  0  0  0  0  0  0  0
    7.3250  -13.9188   21.8033 C   0  0  0  0  0  0  0  0  0  0  0  0
    7.9357  -14.9773   22.6237 C   0  0  2  0  0  0  0  0  0  0  0  0
    7.9206  -16.3185   22.2000 N   0  0  0  0  0  0  0  0  0  0  0  0
    7.3284  -14.8868   23.9908 C   0  0  0  0  0  0  0  0  0  0  0  0
    7.1429  -15.9866   24.6098 O   0  0  0  0  0  0  0  0  0  0  0  0
   10.4523  -16.0195   28.5452 C   0  0  0  0  0  0  0  0  0  0  0  0
   10.1524  -14.2504   28.6012 S   0  0  0  0  0  0  0  0  0  0  0  0
    8.4615  -13.8346   28.0577 C   0  0  0  0  0  0  0  0  0  0  0  0
    8.3699  -13.9075   26.5636 C   0  0  0  0  0  0  0  0  0  0  0  0
    6.9961  -13.5877   26.0568 C   0  0  2  0  0  0  0  0  0  0  0  0
    6.9717  -13.6492   24.5842 N   0  0  0  0  0  0  0  0  0  0  0  0
    6.5696  -12.2243   26.4169 C   0  0  0  0  0  0  0  0  0  0  0  0
    7.0486  -11.2097   25.8012 O   0  0  0  0  0  0  0  0  0  0  0  0
    5.6466  -11.9496   27.4158 O   0  0  0  0  0  0  0  0  0  0  0  0
  2  4  1  0
  2  1  1  1
  2  3  1  0
  4  5  2  0
  7  6  1  6
  7  9  1  0
  7  8  1  0
 10  9  1  6
 10 12  1  0
 11 10  1  0
 11  4  1  0
 12 19  1  0
 13 12  2  0
 15 16  1  0
 15 14  1  0
 17 16  1  0
 18 17  1  6
 19 18  1  0
 20 22  1  0
 20 18  1  0
 21 20  2  0
M  END
$$$$
