ALM.pdb
     RDKit          3D

 22 21  0  0  1  0  0  0  0  0999 V2000
    8.5480  -16.7568   19.0737 C   0  0  0  0  0  0  0  0  0  0  0  0
    8.6415  -17.3880   20.4386 C   0  0  2  0  0  0  0  0  0  0  0  0
    7.4564  -18.1759   20.7286 N   0  0  0  0  0  0  0  0  0  0  0  0
    8.9264  -16.3994   21.4988 C   0  0  0  0  0  0  0  0  0  0  0  0
   10.0368  -15.8675   21.5739 O   0  0  0  0  0  0  0  0  0  0  0  0
    8.0064  -12.1417   24.5544 C   0  0  0  0  0  0  0  0  0  0  0  0
    7.4117  -13.3829   25.2486 C   0  0  1  0  0  0  0  0  0  0  0  0
    6.2718  -12.9036   26.0684 C   0  0  0  0  0  0  0  0  0  0  0  0
    7.0805  -14.3355   24.1455 C   0  0  0  0  0  0  0  0  0  0  0  0
    8.1999  -15.0175   23.4759 C   0  0  2  0  0  0  0  0  0  0  0  0
    7.9653  -15.9942   22.4912 N   0  0  0  0  0  0  0  0  0  0  0  0
    9.0714  -15.5993   24.5474 C   0  0  0  0  0  0  0  0  0  0  0  0
    8.5234  -16.4327   25.3427 O   0  0  0  0  0  0  0  0  0  0  0  0
   11.2185  -12.9681   29.0755 C   0  0  0  0  0  0  0  0  0  0  0  0
   10.7108  -14.5759   29.6917 S   0  0  0  0  0  0  0  0  0  0  0  0
   10.8190  -15.8592   28.3999 C   0  0  0  0  0  0  0  0  0  0  0  0
   10.2482  -15.3428   27.1141 C   0  0  0  0  0  0  0  0  0  0  0  0
   11.1074  -15.6734   25.9314 C   0  0  2  0  0  0  0  0  0  0  0  0
   10.4397  -15.2535   24.6861 N   0  0  0  0  0  0  0  0  0  0  0  0
   11.3462  -17.1213   25.7997 C   0  0  0  0  0  0  0  0  0  0  0  0
   12.5205  -17.5663   25.5530 O   0  0  0  0  0  0  0  0  0  0  0  0
   10.3487  -18.0767   25.9307 O   0  0  0  0  0  0  0  0  0  0  0  0
  2  4  1  0
  2  1  1  6
  2  3  1  0
  4  5  2  0
  7  6  1  6
  7  9  1  0
  7  8  1  0
 10  9  1  1
 10 12  1  0
 11 10  1  0
 11  4  1  0
 12 19  1  0
 13 12  2  0
 15 16  1  0
 15 14  1  0
 17 16  1  0
 18 17  1  1
 19 18  1  0
 20 22  1  0
 20 18  1  0
 21 20  2  0
M  END
$$$$
