ALM.pdb
     RDKit          3D

 22 21  0  0  1  0  0  0  0  0999 V2000
    8.6378  -18.6967   20.9160 C   0  0  0  0  0  0  0  0  0  0  0  0
    8.4852  -17.2353   20.5829 C   0  0  2  0  0  0  0  0  0  0  0  0
    9.2220  -16.8979   19.3776 N   0  0  0  0  0  0  0  0  0  0  0  0
    8.8410  -16.3582   21.7171 C   0  0  0  0  0  0  0  0  0  0  0  0
   10.0150  -16.0315   21.9089 O   0  0  0  0  0  0  0  0  0  0  0  0
    8.3295  -12.3282   25.0893 C   0  0  0  0  0  0  0  0  0  0  0  0
    7.5740  -13.5236   25.7030 C   0  0  1  0  0  0  0  0  0  0  0  0
    6.4873  -12.9542   26.5372 C   0  0  0  0  0  0  0  0  0  0  0  0
    7.1481  -14.3635   24.5425 C   0  0  0  0  0  0  0  0  0  0  0  0
    8.2027  -15.0242   23.7566 C   0  0  2  0  0  0  0  0  0  0  0  0
    7.8805  -15.8351   22.6533 N   0  0  0  0  0  0  0  0  0  0  0  0
    9.0452  -15.8102   24.7149 C   0  0  0  0  0  0  0  0  0  0  0  0
    8.4254  -16.4999   25.5910 O   0  0  0  0  0  0  0  0  0  0  0  0
   10.3420  -12.7579   30.0857 C   0  0  0  0  0  0  0  0  0  0  0  0
   10.8403  -14.3149   29.3441 S   0  0  0  0  0  0  0  0  0  0  0  0
   10.4882  -14.3540   27.5547 C   0  0  0  0  0  0  0  0  0  0  0  0
   10.3075  -15.7698   27.0978 C   0  0  0  0  0  0  0  0  0  0  0  0
   11.1720  -16.1076   25.9211 C   0  0  2  0  0  0  0  0  0  0  0  0
   10.4625  -15.8012   24.6658 N   0  0  0  0  0  0  0  0  0  0  0  0
   11.5048  -17.5417   25.8637 C   0  0  0  0  0  0  0  0  0  0  0  0
   12.6094  -17.9722   26.3457 O   0  0  0  0  0  0  0  0  0  0  0  0
   10.6717  -18.4990   25.3028 O   0  0  0  0  0  0  0  0  0  0  0  0
  2  4  1  0
  2  1  1  1
  2  3  1  0
  4  5  2  0
  7  6  1  6
  7  9  1  0
  7  8  1  0
 10  9  1  1
 10 12  1  0
 11 10  1  0
 11  4  1  0
 12 19  1  0
 13 12  2  0
 15 16  1  0
 15 14  1  0
 17 16  1  0
 18 17  1  1
 19 18  1  0
 20 22  1  0
 20 18  1  0
 21 20  2  0
M  END
$$$$
