ALM.pdb
     RDKit          3D

 22 21  0  0  1  0  0  0  0  0999 V2000
    9.9710  -15.8610   19.0139 C   0  0  0  0  0  0  0  0  0  0  0  0
    9.7505  -16.7924   20.1773 C   0  0  2  0  0  0  0  0  0  0  0  0
    8.5160  -17.5405   20.0167 N   0  0  0  0  0  0  0  0  0  0  0  0
    9.8139  -16.0950   21.4781 C   0  0  0  0  0  0  0  0  0  0  0  0
   10.8266  -15.4697   21.8020 O   0  0  0  0  0  0  0  0  0  0  0  0
    8.2379  -12.5968   24.8707 C   0  0  0  0  0  0  0  0  0  0  0  0
    7.6594  -13.9212   25.4069 C   0  0  1  0  0  0  0  0  0  0  0  0
    6.4020  -13.5777   26.1153 C   0  0  0  0  0  0  0  0  0  0  0  0
    7.5258  -14.8096   24.2124 C   0  0  0  0  0  0  0  0  0  0  0  0
    8.7580  -15.3894   23.6538 C   0  0  2  0  0  0  0  0  0  0  0  0
    8.7379  -16.0908   22.4346 N   0  0  0  0  0  0  0  0  0  0  0  0
    9.3590  -16.2624   24.7133 C   0  0  0  0  0  0  0  0  0  0  0  0
    9.4845  -17.5005   24.4330 O   0  0  0  0  0  0  0  0  0  0  0  0
    9.2896  -13.0811   29.2035 C   0  0  0  0  0  0  0  0  0  0  0  0
   11.0323  -13.5081   29.2590 S   0  0  0  0  0  0  0  0  0  0  0  0
   11.5000  -14.6166   27.8879 C   0  0  0  0  0  0  0  0  0  0  0  0
   10.9207  -15.9807   28.1100 C   0  0  0  0  0  0  0  0  0  0  0  0
   10.5570  -16.6653   26.8273 C   0  0  2  0  0  0  0  0  0  0  0  0
    9.7745  -15.7557   25.9710 N   0  0  0  0  0  0  0  0  0  0  0  0
    9.7106  -17.8513   27.0456 C   0  0  0  0  0  0  0  0  0  0  0  0
    8.4426  -17.7826   26.8873 O   0  0  0  0  0  0  0  0  0  0  0  0
   10.2102  -19.0889   27.4249 O   0  0  0  0  0  0  0  0  0  0  0  0
  2  4  1  0
  2  1  1  6
  2  3  1  0
  4  5  2  0
  7  6  1  6
  7  9  1  0
  7  8  1  0
 10  9  1  1
 10 12  1  0
 11 10  1  0
 11  4  1  0
 12 19  1  0
 13 12  2  0
 15 16  1  0
 15 14  1  0
 17 16  1  0
 18 17  1  1
 19 18  1  0
 20 22  1  0
 20 18  1  0
 21 20  2  0
M  END
$$$$
