ALM.pdb
     RDKit          3D

 22 21  0  0  1  0  0  0  0  0999 V2000
    8.5910  -19.2194   21.9981 C   0  0  0  0  0  0  0  0  0  0  0  0
    8.1114  -17.9763   21.2949 C   0  0  2  0  0  0  0  0  0  0  0  0
    8.5933  -17.9357   19.9255 N   0  0  0  0  0  0  0  0  0  0  0  0
    8.4431  -16.7439   22.0389 C   0  0  0  0  0  0  0  0  0  0  0  0
    9.5376  -16.1966   21.8833 O   0  0  0  0  0  0  0  0  0  0  0  0
    7.6413  -12.1426   24.6310 C   0  0  0  0  0  0  0  0  0  0  0  0
    7.3795  -13.3149   25.5972 C   0  0  1  0  0  0  0  0  0  0  0  0
    6.4109  -12.8225   26.6073 C   0  0  0  0  0  0  0  0  0  0  0  0
    6.9207  -14.4463   24.7351 C   0  0  0  0  0  0  0  0  0  0  0  0
    7.8852  -15.0040   23.7733 C   0  0  2  0  0  0  0  0  0  0  0  0
    7.5477  -16.1083   22.9700 N   0  0  0  0  0  0  0  0  0  0  0  0
    9.1410  -15.3128   24.5308 C   0  0  0  0  0  0  0  0  0  0  0  0
   10.0790  -14.4511   24.4616 O   0  0  0  0  0  0  0  0  0  0  0  0
   10.1577  -13.0110   29.1386 C   0  0  0  0  0  0  0  0  0  0  0  0
   10.9024  -14.5145   29.7768 S   0  0  0  0  0  0  0  0  0  0  0  0
   11.2303  -15.7219   28.4494 C   0  0  0  0  0  0  0  0  0  0  0  0
   10.1704  -15.6256   27.3944 C   0  0  0  0  0  0  0  0  0  0  0  0
   10.4314  -16.5376   26.2340 C   0  0  2  0  0  0  0  0  0  0  0  0
    9.2975  -16.4985   25.2930 N   0  0  0  0  0  0  0  0  0  0  0  0
   10.5715  -17.9446   26.6479 C   0  0  0  0  0  0  0  0  0  0  0  0
   11.5014  -18.2952   27.4543 O   0  0  0  0  0  0  0  0  0  0  0  0
    9.7324  -18.9588   26.2092 O   0  0  0  0  0  0  0  0  0  0  0  0
  2  4  1  0
  2  1  1  1
  2  3  1  0
  4  5  2  0
  7  6  1  6
  7  9  1  0
  7  8  1  0
 10  9  1  1
 10 12  1  0
 11 10  1  0
 11  4  1  0
 12 19  1  0
 13 12  2  0
 15 16  1  0
 15 14  1  0
 17 16  1  0
 18 17  1  1
 19 18  1  0
 20 22  1  0
 20 18  1  0
 21 20  2  0
M  END
$$$$
