ALM.pdb
     RDKit          3D

 22 21  0  0  1  0  0  0  0  0999 V2000
   10.9984  -19.4921   19.7441 C   0  0  0  0  0  0  0  0  0  0  0  0
   10.9178  -18.0993   19.1756 C   0  0  2  0  0  0  0  0  0  0  0  0
   12.0784  -17.8061   18.3533 N   0  0  0  0  0  0  0  0  0  0  0  0
   10.7015  -17.0759   20.2189 C   0  0  0  0  0  0  0  0  0  0  0  0
   11.6587  -16.4681   20.7046 O   0  0  0  0  0  0  0  0  0  0  0  0
    6.2108  -13.4731   20.7354 C   0  0  0  0  0  0  0  0  0  0  0  0
    7.6384  -14.0105   20.5128 C   0  0  1  0  0  0  0  0  0  0  0  0
    8.5274  -12.8260   20.4250 C   0  0  0  0  0  0  0  0  0  0  0  0
    7.8927  -14.9474   21.6492 C   0  0  0  0  0  0  0  0  0  0  0  0
    9.1670  -15.6840   21.6522 C   0  0  2  0  0  0  0  0  0  0  0  0
    9.4039  -16.7210   20.7318 N   0  0  0  0  0  0  0  0  0  0  0  0
    9.3776  -16.2029   23.0423 C   0  0  0  0  0  0  0  0  0  0  0  0
    9.5548  -17.4603   23.1644 O   0  0  0  0  0  0  0  0  0  0  0  0
   10.0030  -12.5560   28.3982 C   0  0  0  0  0  0  0  0  0  0  0  0
   10.3355  -14.1705   29.1089 S   0  0  0  0  0  0  0  0  0  0  0  0
   10.3132  -15.4834   27.8427 C   0  0  0  0  0  0  0  0  0  0  0  0
    9.8545  -14.9234   26.5305 C   0  0  0  0  0  0  0  0  0  0  0  0
    9.7360  -15.9742   25.4684 C   0  0  2  0  0  0  0  0  0  0  0  0
    9.3837  -15.3540   24.1783 N   0  0  0  0  0  0  0  0  0  0  0  0
    8.6689  -16.9473   25.7597 C   0  0  0  0  0  0  0  0  0  0  0  0
    7.4894  -16.7775   25.2929 O   0  0  0  0  0  0  0  0  0  0  0  0
    8.8587  -18.0825   26.5346 O   0  0  0  0  0  0  0  0  0  0  0  0
  2  4  1  0
  2  1  1  1
  2  3  1  0
  4  5  2  0
  7  6  1  1
  7  9  1  0
  7  8  1  0
 10  9  1  1
 10 12  1  0
 11 10  1  0
 11  4  1  0
 12 19  1  0
 13 12  2  0
 15 16  1  0
 15 14  1  0
 17 16  1  0
 18 17  1  1
 19 18  1  0
 20 22  1  0
 20 18  1  0
 21 20  2  0
M  END
$$$$
