ALM.pdb
     RDKit          3D

 22 21  0  0  1  0  0  0  0  0999 V2000
    8.6997  -19.1970   22.0905 C   0  0  0  0  0  0  0  0  0  0  0  0
    8.0627  -17.9842   21.4635 C   0  0  2  0  0  0  0  0  0  0  0  0
    8.3855  -17.9004   20.0500 N   0  0  0  0  0  0  0  0  0  0  0  0
    8.3919  -16.7378   22.1849 C   0  0  0  0  0  0  0  0  0  0  0  0
    9.3832  -16.0761   21.8670 O   0  0  0  0  0  0  0  0  0  0  0  0
    7.5222  -12.1168   24.7026 C   0  0  0  0  0  0  0  0  0  0  0  0
    7.3738  -13.2674   25.7177 C   0  0  1  0  0  0  0  0  0  0  0  0
    6.4323  -12.7922   26.7611 C   0  0  0  0  0  0  0  0  0  0  0  0
    6.9340  -14.4503   24.9170 C   0  0  0  0  0  0  0  0  0  0  0  0
    7.8988  -15.0255   23.9658 C   0  0  2  0  0  0  0  0  0  0  0  0
    7.6100  -16.2168   23.2758 N   0  0  0  0  0  0  0  0  0  0  0  0
    9.2005  -15.1813   24.6919 C   0  0  0  0  0  0  0  0  0  0  0  0
    9.7990  -14.1076   25.0329 O   0  0  0  0  0  0  0  0  0  0  0  0
   10.1210  -13.2204   28.9843 C   0  0  0  0  0  0  0  0  0  0  0  0
   11.5041  -14.3617   29.0662 S   0  0  0  0  0  0  0  0  0  0  0  0
   11.0271  -16.0402   28.5347 C   0  0  0  0  0  0  0  0  0  0  0  0
   10.1034  -15.9628   27.3571 C   0  0  0  0  0  0  0  0  0  0  0  0
   10.7239  -16.5040   26.1048 C   0  0  2  0  0  0  0  0  0  0  0  0
    9.7553  -16.4508   24.9948 N   0  0  0  0  0  0  0  0  0  0  0  0
   11.1151  -17.9180   26.2393 C   0  0  0  0  0  0  0  0  0  0  0  0
   10.3439  -18.8484   25.8180 O   0  0  0  0  0  0  0  0  0  0  0  0
   12.3094  -18.3307   26.8123 O   0  0  0  0  0  0  0  0  0  0  0  0
  2  4  1  0
  2  1  1  1
  2  3  1  0
  4  5  2  0
  7  6  1  6
  7  9  1  0
  7  8  1  0
 10  9  1  1
 10 12  1  0
 11 10  1  0
 11  4  1  0
 12 19  1  0
 13 12  2  0
 15 16  1  0
 15 14  1  0
 17 16  1  0
 18 17  1  1
 19 18  1  0
 20 22  1  0
 20 18  1  0
 21 20  2  0
M  END
$$$$
