ALM.pdb
     RDKit          3D

 22 21  0  0  1  0  0  0  0  0999 V2000
    9.0521  -16.3813   19.1070 C   0  0  0  0  0  0  0  0  0  0  0  0
    8.9572  -17.0082   20.4737 C   0  0  2  0  0  0  0  0  0  0  0  0
    7.7344  -17.7805   20.6068 N   0  0  0  0  0  0  0  0  0  0  0  0
    9.1122  -16.0190   21.5599 C   0  0  0  0  0  0  0  0  0  0  0  0
   10.0818  -15.2566   21.5758 O   0  0  0  0  0  0  0  0  0  0  0  0
    7.8746  -11.9931   24.6540 C   0  0  0  0  0  0  0  0  0  0  0  0
    7.2798  -13.2565   25.3069 C   0  0  1  0  0  0  0  0  0  0  0  0
    6.0535  -12.8257   26.0222 C   0  0  0  0  0  0  0  0  0  0  0  0
    7.0877  -14.2296   24.1889 C   0  0  0  0  0  0  0  0  0  0  0  0
    8.2836  -14.9079   23.6635 C   0  0  2  0  0  0  0  0  0  0  0  0
    8.1779  -15.8728   22.6455 N   0  0  0  0  0  0  0  0  0  0  0  0
    9.0065  -15.5044   24.8330 C   0  0  0  0  0  0  0  0  0  0  0  0
    8.3082  -16.1940   25.6478 O   0  0  0  0  0  0  0  0  0  0  0  0
   11.8016  -14.2253   29.9516 C   0  0  0  0  0  0  0  0  0  0  0  0
   10.1584  -13.7360   29.4195 S   0  0  0  0  0  0  0  0  0  0  0  0
    9.8684  -14.1407   27.6646 C   0  0  0  0  0  0  0  0  0  0  0  0
   10.0631  -15.6092   27.4374 C   0  0  0  0  0  0  0  0  0  0  0  0
   10.9648  -15.8951   26.2748 C   0  0  2  0  0  0  0  0  0  0  0  0
   10.3977  -15.3231   25.0403 N   0  0  0  0  0  0  0  0  0  0  0  0
   11.1160  -17.3392   26.0251 C   0  0  0  0  0  0  0  0  0  0  0  0
   12.1551  -17.9641   26.4346 O   0  0  0  0  0  0  0  0  0  0  0  0
   10.1734  -18.1023   25.3512 O   0  0  0  0  0  0  0  0  0  0  0  0
  2  4  1  0
  2  1  1  6
  2  3  1  0
  4  5  2  0
  7  6  1  6
  7  9  1  0
  7  8  1  0
 10  9  1  1
 10 12  1  0
 11 10  1  0
 11  4  1  0
 12 19  1  0
 13 12  2  0
 15 16  1  0
 15 14  1  0
 17 16  1  0
 18 17  1  1
 19 18  1  0
 20 22  1  0
 20 18  1  0
 21 20  2  0
M  END
$$$$
