ALM.pdb
     RDKit          3D

 22 21  0  0  1  0  0  0  0  0999 V2000
    6.5912  -17.9470   20.2440 C   0  0  0  0  0  0  0  0  0  0  0  0
    7.2096  -18.0740   21.6119 C   0  0  2  0  0  0  0  0  0  0  0  0
    6.2013  -18.3814   22.6111 N   0  0  0  0  0  0  0  0  0  0  0  0
    8.0147  -16.8910   21.9789 C   0  0  0  0  0  0  0  0  0  0  0  0
    9.0665  -16.6430   21.3839 O   0  0  0  0  0  0  0  0  0  0  0  0
    6.7664  -12.4735   25.8913 C   0  0  0  0  0  0  0  0  0  0  0  0
    7.4937  -13.7720   25.4898 C   0  0  1  0  0  0  0  0  0  0  0  0
    6.6438  -14.8947   25.9569 C   0  0  0  0  0  0  0  0  0  0  0  0
    7.7047  -13.6699   24.0137 C   0  0  0  0  0  0  0  0  0  0  0  0
    8.3643  -14.8003   23.3403 C   0  0  2  0  0  0  0  0  0  0  0  0
    7.6484  -15.9685   23.0218 N   0  0  0  0  0  0  0  0  0  0  0  0
    9.5644  -15.1673   24.1595 C   0  0  0  0  0  0  0  0  0  0  0  0
   10.5256  -14.3288   24.1761 O   0  0  0  0  0  0  0  0  0  0  0  0
    9.7479  -14.1323   30.3554 C   0  0  0  0  0  0  0  0  0  0  0  0
   10.9437  -14.3890   29.0413 S   0  0  0  0  0  0  0  0  0  0  0  0
   10.3402  -15.5845   27.8029 C   0  0  0  0  0  0  0  0  0  0  0  0
   11.1845  -15.5137   26.5668 C   0  0  0  0  0  0  0  0  0  0  0  0
   10.9028  -16.6364   25.6146 C   0  0  2  0  0  0  0  0  0  0  0  0
    9.6459  -16.3816   24.8877 N   0  0  0  0  0  0  0  0  0  0  0  0
   10.7220  -17.9249   26.3055 C   0  0  0  0  0  0  0  0  0  0  0  0
    9.5704  -18.4812   26.3524 O   0  0  0  0  0  0  0  0  0  0  0  0
   11.7535  -18.6079   26.9339 O   0  0  0  0  0  0  0  0  0  0  0  0
  2  4  1  0
  2  1  1  6
  2  3  1  0
  4  5  2  0
  7  6  1  6
  7  9  1  0
  7  8  1  0
 10  9  1  1
 10 12  1  0
 11 10  1  0
 11  4  1  0
 12 19  1  0
 13 12  2  0
 15 16  1  0
 15 14  1  0
 17 16  1  0
 18 17  1  1
 19 18  1  0
 20 22  1  0
 20 18  1  0
 21 20  2  0
M  END
$$$$
