ALM.pdb
     RDKit          3D

 22 21  0  0  1  0  0  0  0  0999 V2000
   11.3282  -18.9213   19.4009 C   0  0  0  0  0  0  0  0  0  0  0  0
    9.9443  -18.3874   19.6646 C   0  0  2  0  0  0  0  0  0  0  0  0
    9.1897  -18.2679   18.4294 N   0  0  0  0  0  0  0  0  0  0  0  0
    9.9636  -17.1239   20.4299 C   0  0  0  0  0  0  0  0  0  0  0  0
   11.0320  -16.6483   20.8223 O   0  0  0  0  0  0  0  0  0  0  0  0
    6.7764  -12.5587   19.4639 C   0  0  0  0  0  0  0  0  0  0  0  0
    7.9656  -13.5253   19.6309 C   0  0  1  0  0  0  0  0  0  0  0  0
    9.1909  -12.7444   19.3311 C   0  0  0  0  0  0  0  0  0  0  0  0
    7.8471  -14.0659   21.0193 C   0  0  0  0  0  0  0  0  0  0  0  0
    8.7830  -15.1297   21.4178 C   0  0  2  0  0  0  0  0  0  0  0  0
    8.7800  -16.3759   20.7654 N   0  0  0  0  0  0  0  0  0  0  0  0
    8.6100  -15.3456   22.8908 C   0  0  0  0  0  0  0  0  0  0  0  0
    7.7188  -16.1861   23.2464 O   0  0  0  0  0  0  0  0  0  0  0  0
    5.7962  -11.3973   26.6235 C   0  0  0  0  0  0  0  0  0  0  0  0
    6.8905  -12.5428   27.4677 S   0  0  0  0  0  0  0  0  0  0  0  0
    6.9023  -14.1811   26.6656 C   0  0  0  0  0  0  0  0  0  0  0  0
    7.5135  -14.0802   25.3010 C   0  0  0  0  0  0  0  0  0  0  0  0
    8.8892  -14.6721   25.2434 C   0  0  2  0  0  0  0  0  0  0  0  0
    9.3893  -14.6595   23.8568 N   0  0  0  0  0  0  0  0  0  0  0  0
    8.9114  -16.0810   25.6737 C   0  0  0  0  0  0  0  0  0  0  0  0
    8.6189  -16.3970   26.8789 O   0  0  0  0  0  0  0  0  0  0  0  0
    9.2387  -17.1337   24.8312 O   0  0  0  0  0  0  0  0  0  0  0  0
  2  4  1  0
  2  1  1  6
  2  3  1  0
  4  5  2  0
  7  6  1  1
  7  9  1  0
  7  8  1  0
 10  9  1  6
 10 12  1  0
 11 10  1  0
 11  4  1  0
 12 19  1  0
 13 12  2  0
 15 16  1  0
 15 14  1  0
 17 16  1  0
 18 17  1  6
 19 18  1  0
 20 22  1  0
 20 18  1  0
 21 20  2  0
M  END
$$$$
