MEM.pdb
     RDKit          3D

 26 25  0  0  1  0  0  0  0  0999 V2000
    7.2500  -11.7862   22.9079 C   0  0  0  0  0  0  0  0  0  0  0  0
    7.7665  -12.5148   21.3553 S   0  0  0  0  0  0  0  0  0  0  0  0
    6.8492  -13.9454   20.8427 C   0  0  0  0  0  0  0  0  0  0  0  0
    7.6547  -15.2014   20.8575 C   0  0  0  0  0  0  0  0  0  0  0  0
    7.5040  -15.9405   22.1445 C   0  0  2  0  0  0  0  0  0  0  0  0
    7.5340  -14.9749   23.2291 N   0  0  0  0  0  0  0  0  0  0  0  0
    8.6538  -16.9004   22.3169 C   0  0  0  0  0  0  0  0  0  0  0  0
    8.5630  -18.0536   21.8406 O   0  0  0  0  0  0  0  0  0  0  0  0
    9.7849  -16.4753   23.0021 N   0  0  0  0  0  0  0  0  0  0  0  0
   10.9017  -17.4302   23.2034 C   0  0  1  0  0  0  0  0  0  0  0  0
   11.8099  -17.2339   22.0405 C   0  0  0  0  0  0  0  0  0  0  0  0
   11.5025  -17.9512   20.7847 C   0  0  0  0  0  0  0  0  0  0  0  0
   12.8108  -18.2120   20.0756 C   0  0  0  0  0  0  0  0  0  0  0  0
   13.5840  -17.2659   19.8054 O   0  0  0  0  0  0  0  0  0  0  0  0
   11.4505  -17.0855   24.5235 C   0  0  0  0  0  0  0  0  0  0  0  0
   11.8455  -15.9294   24.8527 O   0  0  0  0  0  0  0  0  0  0  0  0
   13.2006  -19.4871   19.7024 O   0  0  0  0  0  0  0  0  0  0  0  0
   10.9268  -12.9061   28.1082 C   0  0  0  0  0  0  0  0  0  0  0  0
    9.8720  -14.3126   28.4646 S   0  0  0  0  0  0  0  0  0  0  0  0
   10.7689  -15.8776   28.4256 C   0  0  0  0  0  0  0  0  0  0  0  0
   10.8072  -16.4100   27.0213 C   0  0  0  0  0  0  0  0  0  0  0  0
   11.6471  -17.6887   26.9224 C   0  0  2  0  0  0  0  0  0  0  0  0
   11.5531  -18.0877   25.5130 N   0  0  0  0  0  0  0  0  0  0  0  0
   11.1616  -18.7567   27.8071 C   0  0  0  0  0  0  0  0  0  0  0  0
   11.7136  -18.8889   29.0705 O   0  0  0  0  0  0  0  0  0  0  0  0
   10.2630  -19.5632   27.4722 O   0  0  0  0  0  0  0  0  0  0  0  0
  2  3  1  0
  2  1  1  0
  3  4  1  0
  5  4  1  0
  5  6  1  1
  7  5  1  0
  7  9  1  0
  8  7  2  0
  9 10  1  0
 10 11  1  6
 11 12  1  0
 12 13  1  0
 13 17  1  0
 13 14  2  0
 15 16  2  0
 15 10  1  0
 18 19  1  0
 20 19  1  0
 20 21  1  0
 22 21  1  6
 22 23  1  0
 22 24  1  0
 23 15  1  0
 24 25  1  0
 26 24  2  0
M  END
$$$$
