MEM.pdb
     RDKit          3D

 26 25  0  0  1  0  0  0  0  0999 V2000
    8.4361  -13.8328   17.3064 C   0  0  0  0  0  0  0  0  0  0  0  0
    7.4517  -12.9281   18.4983 S   0  0  0  0  0  0  0  0  0  0  0  0
    6.1894  -13.8708   19.3161 C   0  0  0  0  0  0  0  0  0  0  0  0
    6.7299  -14.9741   20.1629 C   0  0  0  0  0  0  0  0  0  0  0  0
    7.5823  -14.4543   21.2714 C   0  0  2  0  0  0  0  0  0  0  0  0
    8.6088  -13.6038   20.6945 N   0  0  0  0  0  0  0  0  0  0  0  0
    8.2483  -15.6048   21.9827 C   0  0  0  0  0  0  0  0  0  0  0  0
    7.5399  -16.4468   22.5779 O   0  0  0  0  0  0  0  0  0  0  0  0
    9.6340  -15.6972   21.9567 N   0  0  0  0  0  0  0  0  0  0  0  0
   10.2928  -16.7975   22.7016 C   0  0  1  0  0  0  0  0  0  0  0  0
   11.4958  -17.1573   21.9021 C   0  0  0  0  0  0  0  0  0  0  0  0
   12.4957  -18.0600   22.5116 C   0  0  0  0  0  0  0  0  0  0  0  0
   13.6006  -18.2659   21.5019 C   0  0  0  0  0  0  0  0  0  0  0  0
   13.7107  -19.3560   20.8974 O   0  0  0  0  0  0  0  0  0  0  0  0
   10.5430  -16.2412   24.0397 C   0  0  0  0  0  0  0  0  0  0  0  0
   11.1163  -15.1343   24.2570 O   0  0  0  0  0  0  0  0  0  0  0  0
   14.5205  -17.2733   21.2096 O   0  0  0  0  0  0  0  0  0  0  0  0
    7.5921  -11.6518   26.5134 C   0  0  0  0  0  0  0  0  0  0  0  0
    6.9419  -13.3134   26.6982 S   0  0  0  0  0  0  0  0  0  0  0  0
    8.2016  -14.4955   27.2185 C   0  0  0  0  0  0  0  0  0  0  0  0
    8.7504  -15.2180   26.0211 C   0  0  0  0  0  0  0  0  0  0  0  0
    9.8298  -16.2322   26.4164 C   0  0  2  0  0  0  0  0  0  0  0  0
   10.1244  -16.9638   25.1785 N   0  0  0  0  0  0  0  0  0  0  0  0
    9.3880  -17.1469   27.4779 C   0  0  0  0  0  0  0  0  0  0  0  0
    9.4699  -16.7373   28.7985 O   0  0  0  0  0  0  0  0  0  0  0  0
    8.9355  -18.2922   27.2461 O   0  0  0  0  0  0  0  0  0  0  0  0
  2  3  1  0
  2  1  1  0
  3  4  1  0
  5  4  1  0
  5  6  1  6
  7  5  1  0
  7  9  1  0
  8  7  2  0
  9 10  1  0
 10 11  1  6
 11 12  1  0
 12 13  1  0
 13 17  1  0
 13 14  2  0
 15 16  2  0
 15 10  1  0
 18 19  1  0
 20 19  1  0
 20 21  1  0
 22 21  1  6
 22 23  1  0
 22 24  1  0
 23 15  1  0
 24 25  1  0
 26 24  2  0
M  END
$$$$
