MEM.pdb
     RDKit          3D

 26 25  0  0  1  0  0  0  0  0999 V2000
    8.4076  -11.1345   20.8134 C   0  0  0  0  0  0  0  0  0  0  0  0
    7.2909  -12.4959   21.1414 S   0  0  0  0  0  0  0  0  0  0  0  0
    7.9526  -14.1145   20.8356 C   0  0  0  0  0  0  0  0  0  0  0  0
    6.9025  -15.1626   20.6767 C   0  0  0  0  0  0  0  0  0  0  0  0
    7.4970  -16.5172   20.4845 C   0  0  2  0  0  0  0  0  0  0  0  0
    6.4148  -17.4624   20.2721 N   0  0  0  0  0  0  0  0  0  0  0  0
    8.2566  -16.9192   21.7234 C   0  0  0  0  0  0  0  0  0  0  0  0
    7.6230  -17.3216   22.7242 O   0  0  0  0  0  0  0  0  0  0  0  0
    9.6428  -16.8310   21.7179 N   0  0  0  0  0  0  0  0  0  0  0  0
   10.3979  -17.3427   22.8874 C   0  0  1  0  0  0  0  0  0  0  0  0
   11.7883  -17.5594   22.4017 C   0  0  0  0  0  0  0  0  0  0  0  0
   12.0751  -18.7865   21.6283 C   0  0  0  0  0  0  0  0  0  0  0  0
   13.5561  -18.8026   21.3299 C   0  0  0  0  0  0  0  0  0  0  0  0
   14.2145  -19.8600   21.4493 O   0  0  0  0  0  0  0  0  0  0  0  0
   10.2229  -16.3117   23.9214 C   0  0  0  0  0  0  0  0  0  0  0  0
   10.7326  -15.1548   23.8695 O   0  0  0  0  0  0  0  0  0  0  0  0
   14.2332  -17.6669   20.9190 O   0  0  0  0  0  0  0  0  0  0  0  0
    6.6271  -11.2748   25.5172 C   0  0  0  0  0  0  0  0  0  0  0  0
    6.6479  -12.7743   26.5016 S   0  0  0  0  0  0  0  0  0  0  0  0
    8.2763  -13.5497   26.5468 C   0  0  0  0  0  0  0  0  0  0  0  0
    8.1482  -15.0235   26.2851 C   0  0  0  0  0  0  0  0  0  0  0  0
    9.5178  -15.7096   26.2230 C   0  0  2  0  0  0  0  0  0  0  0  0
    9.4361  -16.5989   25.0582 N   0  0  0  0  0  0  0  0  0  0  0  0
    9.8300  -16.4654   27.4437 C   0  0  0  0  0  0  0  0  0  0  0  0
    9.8072  -17.8497   27.4042 O   0  0  0  0  0  0  0  0  0  0  0  0
   10.1192  -15.9143   28.5313 O   0  0  0  0  0  0  0  0  0  0  0  0
  2  3  1  0
  2  1  1  0
  3  4  1  0
  5  4  1  0
  5  6  1  1
  7  5  1  0
  7  9  1  0
  8  7  2  0
  9 10  1  0
 10 11  1  6
 11 12  1  0
 12 13  1  0
 13 17  1  0
 13 14  2  0
 15 16  2  0
 15 10  1  0
 18 19  1  0
 20 19  1  0
 20 21  1  0
 22 21  1  1
 22 23  1  0
 22 24  1  0
 23 15  1  0
 24 25  1  0
 26 24  2  0
M  END
$$$$
