MEM.pdb
     RDKit          3D

 26 25  0  0  1  0  0  0  0  0999 V2000
    7.0742  -12.0820   17.8763 C   0  0  0  0  0  0  0  0  0  0  0  0
    7.6616  -13.4518   18.8697 S   0  0  0  0  0  0  0  0  0  0  0  0
    6.4196  -14.2913   19.8203 C   0  0  0  0  0  0  0  0  0  0  0  0
    6.9628  -15.4056   20.6507 C   0  0  0  0  0  0  0  0  0  0  0  0
    8.2569  -15.0363   21.2945 C   0  0  2  0  0  0  0  0  0  0  0  0
    9.2675  -14.9336   20.2564 N   0  0  0  0  0  0  0  0  0  0  0  0
    8.6668  -16.1137   22.2662 C   0  0  0  0  0  0  0  0  0  0  0  0
    7.8756  -16.4490   23.1754 O   0  0  0  0  0  0  0  0  0  0  0  0
    9.9155  -16.7054   22.1237 N   0  0  0  0  0  0  0  0  0  0  0  0
   10.3481  -17.7148   23.1204 C   0  0  1  0  0  0  0  0  0  0  0  0
   11.5754  -18.3369   22.5525 C   0  0  0  0  0  0  0  0  0  0  0  0
   11.4236  -19.2731   21.4182 C   0  0  0  0  0  0  0  0  0  0  0  0
   12.5046  -18.9517   20.4128 C   0  0  0  0  0  0  0  0  0  0  0  0
   13.6646  -19.3950   20.5670 O   0  0  0  0  0  0  0  0  0  0  0  0
   10.5211  -16.9540   24.3670 C   0  0  0  0  0  0  0  0  0  0  0  0
   10.9991  -15.7841   24.4290 O   0  0  0  0  0  0  0  0  0  0  0  0
   12.2594  -18.1667   19.2989 O   0  0  0  0  0  0  0  0  0  0  0  0
    7.9082  -12.0843   27.9750 C   0  0  0  0  0  0  0  0  0  0  0  0
    8.4013  -13.2414   26.6960 S   0  0  0  0  0  0  0  0  0  0  0  0
    7.8864  -14.9325   27.0569 C   0  0  0  0  0  0  0  0  0  0  0  0
    8.5013  -15.8771   26.0637 C   0  0  0  0  0  0  0  0  0  0  0  0
    9.6619  -16.6687   26.6774 C   0  0  2  0  0  0  0  0  0  0  0  0
   10.1339  -17.5381   25.5930 N   0  0  0  0  0  0  0  0  0  0  0  0
    9.2545  -17.4581   27.8477 C   0  0  0  0  0  0  0  0  0  0  0  0
    8.7976  -18.7524   27.6625 O   0  0  0  0  0  0  0  0  0  0  0  0
    9.3001  -17.0141   29.0186 O   0  0  0  0  0  0  0  0  0  0  0  0
  2  3  1  0
  2  1  1  0
  3  4  1  0
  5  4  1  0
  5  6  1  6
  7  5  1  0
  7  9  1  0
  8  7  2  0
  9 10  1  0
 10 11  1  6
 11 12  1  0
 12 13  1  0
 13 17  1  0
 13 14  2  0
 15 16  2  0
 15 10  1  0
 18 19  1  0
 20 19  1  0
 20 21  1  0
 22 21  1  6
 22 23  1  0
 22 24  1  0
 23 15  1  0
 24 25  1  0
 26 24  2  0
M  END
$$$$
