MEM.pdb
     RDKit          3D

 26 25  0  0  1  0  0  0  0  0999 V2000
    8.3861  -11.6479   20.2188 C   0  0  0  0  0  0  0  0  0  0  0  0
    8.4842  -12.5639   18.6828 S   0  0  0  0  0  0  0  0  0  0  0  0
    7.4812  -14.0263   18.6025 C   0  0  0  0  0  0  0  0  0  0  0  0
    7.5829  -14.8812   19.8213 C   0  0  0  0  0  0  0  0  0  0  0  0
    8.6069  -15.9541   19.6610 C   0  0  2  0  0  0  0  0  0  0  0  0
    8.1169  -16.9067   18.6801 N   0  0  0  0  0  0  0  0  0  0  0  0
    8.8049  -16.6678   20.9742 C   0  0  0  0  0  0  0  0  0  0  0  0
    7.8104  -17.1393   21.5689 O   0  0  0  0  0  0  0  0  0  0  0  0
   10.0905  -16.7819   21.4879 N   0  0  0  0  0  0  0  0  0  0  0  0
   10.2852  -17.4769   22.7836 C   0  0  1  0  0  0  0  0  0  0  0  0
   11.5123  -18.3024   22.6138 C   0  0  0  0  0  0  0  0  0  0  0  0
   12.6124  -17.7579   21.7895 C   0  0  0  0  0  0  0  0  0  0  0  0
   13.7061  -18.7991   21.7423 C   0  0  0  0  0  0  0  0  0  0  0  0
   13.5722  -19.8860   22.3478 O   0  0  0  0  0  0  0  0  0  0  0  0
   10.3608  -16.3950   23.7767 C   0  0  0  0  0  0  0  0  0  0  0  0
   10.6575  -15.1954   23.5046 O   0  0  0  0  0  0  0  0  0  0  0  0
   14.8812  -18.5962   21.0386 O   0  0  0  0  0  0  0  0  0  0  0  0
    6.1074  -12.0290   27.3957 C   0  0  0  0  0  0  0  0  0  0  0  0
    7.0893  -12.6848   26.0454 S   0  0  0  0  0  0  0  0  0  0  0  0
    8.5091  -13.6375   26.6213 C   0  0  0  0  0  0  0  0  0  0  0  0
    8.8144  -14.7397   25.6471 C   0  0  0  0  0  0  0  0  0  0  0  0
   10.0219  -15.5723   26.0931 C   0  0  2  0  0  0  0  0  0  0  0  0
   10.0856  -16.6799   25.1321 N   0  0  0  0  0  0  0  0  0  0  0  0
    9.8896  -16.0730   27.4681 C   0  0  0  0  0  0  0  0  0  0  0  0
   10.2658  -15.2570   28.5222 O   0  0  0  0  0  0  0  0  0  0  0  0
    9.4485  -17.2143   27.7383 O   0  0  0  0  0  0  0  0  0  0  0  0
  2  3  1  0
  2  1  1  0
  3  4  1  0
  5  4  1  0
  5  6  1  6
  7  5  1  0
  7  9  1  0
  8  7  2  0
  9 10  1  0
 10 11  1  6
 11 12  1  0
 12 13  1  0
 13 17  1  0
 13 14  2  0
 15 16  2  0
 15 10  1  0
 18 19  1  0
 20 19  1  0
 20 21  1  0
 22 21  1  6
 22 23  1  0
 22 24  1  0
 23 15  1  0
 24 25  1  0
 26 24  2  0
M  END
$$$$
