MEM.pdb
     RDKit          3D

 26 25  0  0  1  0  0  0  0  0999 V2000
    8.5608  -11.4434   19.8924 C   0  0  0  0  0  0  0  0  0  0  0  0
    7.4363  -12.1874   18.7135 S   0  0  0  0  0  0  0  0  0  0  0  0
    7.2726  -13.9514   18.8255 C   0  0  0  0  0  0  0  0  0  0  0  0
    7.9294  -14.5310   20.0334 C   0  0  0  0  0  0  0  0  0  0  0  0
    7.9117  -16.0226   20.0112 C   0  0  2  0  0  0  0  0  0  0  0  0
    6.5268  -16.4602   20.0015 N   0  0  0  0  0  0  0  0  0  0  0  0
    8.5812  -16.5573   21.2518 C   0  0  0  0  0  0  0  0  0  0  0  0
    7.8739  -16.9705   22.1973 O   0  0  0  0  0  0  0  0  0  0  0  0
    9.9689  -16.5759   21.3095 N   0  0  0  0  0  0  0  0  0  0  0  0
   10.6282  -17.0863   22.5361 C   0  0  1  0  0  0  0  0  0  0  0  0
   12.0434  -17.3426   22.1521 C   0  0  0  0  0  0  0  0  0  0  0  0
   12.9697  -17.8429   23.1903 C   0  0  0  0  0  0  0  0  0  0  0  0
   14.1516  -18.4667   22.4857 C   0  0  0  0  0  0  0  0  0  0  0  0
   14.4904  -19.6444   22.7391 O   0  0  0  0  0  0  0  0  0  0  0  0
   10.4065  -16.0354   23.5406 C   0  0  0  0  0  0  0  0  0  0  0  0
    9.9331  -14.8905   23.2835 O   0  0  0  0  0  0  0  0  0  0  0  0
   14.8951  -17.7721   21.5466 O   0  0  0  0  0  0  0  0  0  0  0  0
    6.1577  -12.6112   27.4150 C   0  0  0  0  0  0  0  0  0  0  0  0
    7.3801  -13.1755   26.2296 S   0  0  0  0  0  0  0  0  0  0  0  0
    7.4482  -14.9743   26.1089 C   0  0  0  0  0  0  0  0  0  0  0  0
    8.5519  -15.3826   25.1751 C   0  0  0  0  0  0  0  0  0  0  0  0
    9.7835  -15.8841   25.9378 C   0  0  2  0  0  0  0  0  0  0  0  0
   10.7292  -16.2907   24.8914 N   0  0  0  0  0  0  0  0  0  0  0  0
    9.4770  -17.0048   26.8371 C   0  0  0  0  0  0  0  0  0  0  0  0
    9.5926  -16.8228   28.2053 O   0  0  0  0  0  0  0  0  0  0  0  0
    9.1122  -18.1302   26.4239 O   0  0  0  0  0  0  0  0  0  0  0  0
  2  3  1  0
  2  1  1  0
  3  4  1  0
  5  4  1  0
  5  6  1  1
  7  5  1  0
  7  9  1  0
  8  7  2  0
  9 10  1  0
 10 11  1  6
 11 12  1  0
 12 13  1  0
 13 17  1  0
 13 14  2  0
 15 16  2  0
 15 10  1  0
 18 19  1  0
 20 19  1  0
 20 21  1  0
 22 21  1  6
 22 23  1  0
 22 24  1  0
 23 15  1  0
 24 25  1  0
 26 24  2  0
M  END
$$$$
