MEM.pdb
     RDKit          3D

 26 25  0  0  1  0  0  0  0  0999 V2000
    7.8860  -10.8003   21.3467 C   0  0  0  0  0  0  0  0  0  0  0  0
    8.2319  -12.0629   20.1243 S   0  0  0  0  0  0  0  0  0  0  0  0
    7.6604  -13.6936   20.5307 C   0  0  0  0  0  0  0  0  0  0  0  0
    7.9785  -14.7097   19.4852 C   0  0  0  0  0  0  0  0  0  0  0  0
    7.4334  -16.0534   19.8352 C   0  0  2  0  0  0  0  0  0  0  0  0
    5.9841  -15.9880   19.7653 N   0  0  0  0  0  0  0  0  0  0  0  0
    7.8359  -16.4142   21.2427 C   0  0  0  0  0  0  0  0  0  0  0  0
    6.9897  -16.3298   22.1602 O   0  0  0  0  0  0  0  0  0  0  0  0
    9.1391  -16.8314   21.4812 N   0  0  0  0  0  0  0  0  0  0  0  0
    9.4632  -17.4590   22.7853 C   0  0  1  0  0  0  0  0  0  0  0  0
   10.6736  -18.2899   22.5392 C   0  0  0  0  0  0  0  0  0  0  0  0
   11.2183  -19.0815   23.6631 C   0  0  0  0  0  0  0  0  0  0  0  0
   12.3872  -19.8798   23.1351 C   0  0  0  0  0  0  0  0  0  0  0  0
   13.5539  -19.4400   23.2417 O   0  0  0  0  0  0  0  0  0  0  0  0
    9.6274  -16.3277   23.7103 C   0  0  0  0  0  0  0  0  0  0  0  0
   10.4325  -15.3685   23.5294 O   0  0  0  0  0  0  0  0  0  0  0  0
   12.2176  -21.1098   22.5224 O   0  0  0  0  0  0  0  0  0  0  0  0
    6.4808  -11.3718   26.7472 C   0  0  0  0  0  0  0  0  0  0  0  0
    5.9783  -12.8756   25.9081 S   0  0  0  0  0  0  0  0  0  0  0  0
    7.3824  -13.8264   25.2919 C   0  0  0  0  0  0  0  0  0  0  0  0
    7.9480  -14.6757   26.3944 C   0  0  0  0  0  0  0  0  0  0  0  0
    9.2472  -15.3683   25.9670 C   0  0  2  0  0  0  0  0  0  0  0  0
    8.8465  -16.2765   24.8858 N   0  0  0  0  0  0  0  0  0  0  0  0
    9.8860  -16.1050   27.0660 C   0  0  0  0  0  0  0  0  0  0  0  0
   10.5498  -15.3986   28.0554 O   0  0  0  0  0  0  0  0  0  0  0  0
    9.8603  -17.3547   27.1544 O   0  0  0  0  0  0  0  0  0  0  0  0
  2  3  1  0
  2  1  1  0
  3  4  1  0
  5  4  1  0
  5  6  1  1
  7  5  1  0
  7  9  1  0
  8  7  2  0
  9 10  1  0
 10 11  1  6
 11 12  1  0
 12 13  1  0
 13 17  1  0
 13 14  2  0
 15 16  2  0
 15 10  1  0
 18 19  1  0
 20 19  1  0
 20 21  1  0
 22 21  1  1
 22 23  1  0
 22 24  1  0
 23 15  1  0
 24 25  1  0
 26 24  2  0
M  END
$$$$
