MEM.pdb
     RDKit          3D

 26 25  0  0  1  0  0  0  0  0999 V2000
    8.4301  -11.2719   20.1559 C   0  0  0  0  0  0  0  0  0  0  0  0
    7.2056  -12.2142   19.2500 S   0  0  0  0  0  0  0  0  0  0  0  0
    7.5993  -13.9259   18.9923 C   0  0  0  0  0  0  0  0  0  0  0  0
    7.9264  -14.6541   20.2529 C   0  0  0  0  0  0  0  0  0  0  0  0
    8.2187  -16.0949   20.0000 C   0  0  2  0  0  0  0  0  0  0  0  0
    7.0002  -16.7297   19.5289 N   0  0  0  0  0  0  0  0  0  0  0  0
    8.6475  -16.7594   21.2836 C   0  0  0  0  0  0  0  0  0  0  0  0
    7.7745  -17.1497   22.0902 O   0  0  0  0  0  0  0  0  0  0  0  0
   10.0042  -16.9199   21.5347 N   0  0  0  0  0  0  0  0  0  0  0  0
   10.4272  -17.5620   22.8029 C   0  0  1  0  0  0  0  0  0  0  0  0
   11.7954  -18.0895   22.5470 C   0  0  0  0  0  0  0  0  0  0  0  0
   12.5631  -18.6257   23.6913 C   0  0  0  0  0  0  0  0  0  0  0  0
   13.9166  -19.0527   23.1733 C   0  0  0  0  0  0  0  0  0  0  0  0
   14.5757  -18.2962   22.4254 O   0  0  0  0  0  0  0  0  0  0  0  0
   10.3181  -16.4975   23.8116 C   0  0  0  0  0  0  0  0  0  0  0  0
   10.6434  -15.2907   23.6142 O   0  0  0  0  0  0  0  0  0  0  0  0
   14.4732  -20.2777   23.5000 O   0  0  0  0  0  0  0  0  0  0  0  0
    6.7920  -11.3333   27.3554 C   0  0  0  0  0  0  0  0  0  0  0  0
    7.0755  -12.6907   26.2176 S   0  0  0  0  0  0  0  0  0  0  0  0
    8.3961  -13.7902   26.7674 C   0  0  0  0  0  0  0  0  0  0  0  0
    8.6962  -14.8029   25.6991 C   0  0  0  0  0  0  0  0  0  0  0  0
    9.8089  -15.7665   26.1276 C   0  0  2  0  0  0  0  0  0  0  0  0
    9.8168  -16.8090   25.0945 N   0  0  0  0  0  0  0  0  0  0  0  0
    9.5784  -16.3439   27.4589 C   0  0  0  0  0  0  0  0  0  0  0  0
    9.7262  -15.5404   28.5773 O   0  0  0  0  0  0  0  0  0  0  0  0
    9.2511  -17.5405   27.6354 O   0  0  0  0  0  0  0  0  0  0  0  0
  2  3  1  0
  2  1  1  0
  3  4  1  0
  5  4  1  0
  5  6  1  1
  7  5  1  0
  7  9  1  0
  8  7  2  0
  9 10  1  0
 10 11  1  6
 11 12  1  0
 12 13  1  0
 13 17  1  0
 13 14  2  0
 15 16  2  0
 15 10  1  0
 18 19  1  0
 20 19  1  0
 20 21  1  0
 22 21  1  6
 22 23  1  0
 22 24  1  0
 23 15  1  0
 24 25  1  0
 26 24  2  0
M  END
$$$$
