MEM.pdb
     RDKit          3D

 26 25  0  0  1  0  0  0  0  0999 V2000
    8.2298  -11.4902   20.1119 C   0  0  0  0  0  0  0  0  0  0  0  0
    7.2726  -12.3537   18.8685 S   0  0  0  0  0  0  0  0  0  0  0  0
    7.6879  -14.0642   18.6392 C   0  0  0  0  0  0  0  0  0  0  0  0
    8.1389  -14.7367   19.8925 C   0  0  0  0  0  0  0  0  0  0  0  0
    8.4167  -16.1860   19.6740 C   0  0  2  0  0  0  0  0  0  0  0  0
    7.1844  -16.8253   19.2468 N   0  0  0  0  0  0  0  0  0  0  0  0
    8.8686  -16.8174   20.9664 C   0  0  0  0  0  0  0  0  0  0  0  0
    8.0188  -17.3439   21.7184 O   0  0  0  0  0  0  0  0  0  0  0  0
   10.2202  -16.7964   21.2860 N   0  0  0  0  0  0  0  0  0  0  0  0
   10.6749  -17.4791   22.5217 C   0  0  1  0  0  0  0  0  0  0  0  0
   12.0564  -17.9518   22.2319 C   0  0  0  0  0  0  0  0  0  0  0  0
   12.2200  -19.2321   21.5105 C   0  0  0  0  0  0  0  0  0  0  0  0
   13.7016  -19.4762   21.3436 C   0  0  0  0  0  0  0  0  0  0  0  0
   14.1734  -20.6267   21.4834 O   0  0  0  0  0  0  0  0  0  0  0  0
   10.5425  -16.4629   23.5765 C   0  0  0  0  0  0  0  0  0  0  0  0
   11.1582  -15.3576   23.5844 O   0  0  0  0  0  0  0  0  0  0  0  0
   14.5824  -18.4536   21.0343 O   0  0  0  0  0  0  0  0  0  0  0  0
    6.4594  -11.5210   27.3217 C   0  0  0  0  0  0  0  0  0  0  0  0
    6.7197  -12.8478   26.1428 S   0  0  0  0  0  0  0  0  0  0  0  0
    8.1199  -13.8978   26.5809 C   0  0  0  0  0  0  0  0  0  0  0  0
    8.3865  -14.8813   25.4770 C   0  0  0  0  0  0  0  0  0  0  0  0
    9.6274  -15.7342   25.7648 C   0  0  2  0  0  0  0  0  0  0  0  0
    9.6755  -16.7046   24.6646 N   0  0  0  0  0  0  0  0  0  0  0  0
    9.5600  -16.4138   27.0658 C   0  0  0  0  0  0  0  0  0  0  0  0
    9.8616  -15.7019   28.2150 O   0  0  0  0  0  0  0  0  0  0  0  0
    9.2398  -17.6189   27.1894 O   0  0  0  0  0  0  0  0  0  0  0  0
  2  3  1  0
  2  1  1  0
  3  4  1  0
  5  4  1  0
  5  6  1  1
  7  5  1  0
  7  9  1  0
  8  7  2  0
  9 10  1  0
 10 11  1  6
 11 12  1  0
 12 13  1  0
 13 17  1  0
 13 14  2  0
 15 16  2  0
 15 10  1  0
 18 19  1  0
 20 19  1  0
 20 21  1  0
 22 21  1  6
 22 23  1  0
 22 24  1  0
 23 15  1  0
 24 25  1  0
 26 24  2  0
M  END
$$$$
