MEM.pdb
     RDKit          3D

 26 25  0  0  1  0  0  0  0  0999 V2000
    7.4044  -11.8033   18.4887 C   0  0  0  0  0  0  0  0  0  0  0  0
    7.9797  -13.0292   19.6609 S   0  0  0  0  0  0  0  0  0  0  0  0
    6.8918  -14.4085   19.9164 C   0  0  0  0  0  0  0  0  0  0  0  0
    7.3441  -15.3253   21.0034 C   0  0  0  0  0  0  0  0  0  0  0  0
    8.7832  -15.1193   21.3382 C   0  0  2  0  0  0  0  0  0  0  0  0
    9.5817  -15.5919   20.2207 N   0  0  0  0  0  0  0  0  0  0  0  0
    9.1398  -15.9221   22.5636 C   0  0  0  0  0  0  0  0  0  0  0  0
    8.4329  -15.8156   23.5902 O   0  0  0  0  0  0  0  0  0  0  0  0
   10.2468  -16.7599   22.5174 N   0  0  0  0  0  0  0  0  0  0  0  0
   10.6191  -17.5230   23.7334 C   0  0  1  0  0  0  0  0  0  0  0  0
   11.8152  -18.3232   23.3526 C   0  0  0  0  0  0  0  0  0  0  0  0
   12.4574  -19.1575   24.3907 C   0  0  0  0  0  0  0  0  0  0  0  0
   13.6230  -19.8710   23.7467 C   0  0  0  0  0  0  0  0  0  0  0  0
   14.7642  -19.8072   24.2562 O   0  0  0  0  0  0  0  0  0  0  0  0
   10.8245  -16.4967   24.7664 C   0  0  0  0  0  0  0  0  0  0  0  0
   11.6797  -15.5674   24.6896 O   0  0  0  0  0  0  0  0  0  0  0  0
   13.4780  -20.6120   22.5861 O   0  0  0  0  0  0  0  0  0  0  0  0
    6.3995  -12.6403   26.9278 C   0  0  0  0  0  0  0  0  0  0  0  0
    8.0489  -12.0523   27.3167 S   0  0  0  0  0  0  0  0  0  0  0  0
    9.1678  -13.3885   27.7833 C   0  0  0  0  0  0  0  0  0  0  0  0
    9.1553  -14.4578   26.7281 C   0  0  0  0  0  0  0  0  0  0  0  0
   10.2513  -15.5028   26.9666 C   0  0  2  0  0  0  0  0  0  0  0  0
   10.0276  -16.5196   25.9320 N   0  0  0  0  0  0  0  0  0  0  0  0
   10.1893  -16.0939   28.3103 C   0  0  0  0  0  0  0  0  0  0  0  0
   10.6245  -15.3506   29.3950 O   0  0  0  0  0  0  0  0  0  0  0  0
    9.7576  -17.2502   28.5269 O   0  0  0  0  0  0  0  0  0  0  0  0
  2  3  1  0
  2  1  1  0
  3  4  1  0
  5  4  1  0
  5  6  1  6
  7  5  1  0
  7  9  1  0
  8  7  2  0
  9 10  1  0
 10 11  1  6
 11 12  1  0
 12 13  1  0
 13 17  1  0
 13 14  2  0
 15 16  2  0
 15 10  1  0
 18 19  1  0
 20 19  1  0
 20 21  1  0
 22 21  1  1
 22 23  1  0
 22 24  1  0
 23 15  1  0
 24 25  1  0
 26 24  2  0
M  END
$$$$
