MEM.pdb
     RDKit          3D

 26 25  0  0  1  0  0  0  0  0999 V2000
    8.7934  -11.4088   19.9375 C   0  0  0  0  0  0  0  0  0  0  0  0
    7.4537  -12.1712   19.0253 S   0  0  0  0  0  0  0  0  0  0  0  0
    7.4231  -13.9457   19.0577 C   0  0  0  0  0  0  0  0  0  0  0  0
    7.8572  -14.5212   20.3641 C   0  0  0  0  0  0  0  0  0  0  0  0
    7.9339  -16.0102   20.3150 C   0  0  2  0  0  0  0  0  0  0  0  0
    6.6004  -16.5255   20.0581 N   0  0  0  0  0  0  0  0  0  0  0  0
    8.4111  -16.5387   21.6440 C   0  0  0  0  0  0  0  0  0  0  0  0
    7.5754  -16.7620   22.5477 O   0  0  0  0  0  0  0  0  0  0  0  0
    9.7695  -16.7633   21.8274 N   0  0  0  0  0  0  0  0  0  0  0  0
   10.2244  -17.4247   23.0745 C   0  0  1  0  0  0  0  0  0  0  0  0
   11.5716  -17.9772   22.7655 C   0  0  0  0  0  0  0  0  0  0  0  0
   12.3417  -18.5974   23.8648 C   0  0  0  0  0  0  0  0  0  0  0  0
   13.6656  -19.0514   23.2957 C   0  0  0  0  0  0  0  0  0  0  0  0
   14.1922  -20.1161   23.6893 O   0  0  0  0  0  0  0  0  0  0  0  0
   10.1730  -16.3670   24.0949 C   0  0  0  0  0  0  0  0  0  0  0  0
   10.7143  -15.2299   23.9724 O   0  0  0  0  0  0  0  0  0  0  0  0
   14.3382  -18.3199   22.3314 O   0  0  0  0  0  0  0  0  0  0  0  0
    6.4749  -12.1726   27.1311 C   0  0  0  0  0  0  0  0  0  0  0  0
    7.5889  -12.1392   25.7255 S   0  0  0  0  0  0  0  0  0  0  0  0
    8.9803  -13.2714   25.9182 C   0  0  0  0  0  0  0  0  0  0  0  0
    8.4763  -14.6540   26.2204 C   0  0  0  0  0  0  0  0  0  0  0  0
    9.6276  -15.6491   26.4067 C   0  0  2  0  0  0  0  0  0  0  0  0
    9.4777  -16.6028   25.3011 N   0  0  0  0  0  0  0  0  0  0  0  0
    9.5810  -16.3345   27.7055 C   0  0  0  0  0  0  0  0  0  0  0  0
   10.1643  -15.7316   28.8076 O   0  0  0  0  0  0  0  0  0  0  0  0
    9.0338  -17.4500   27.8682 O   0  0  0  0  0  0  0  0  0  0  0  0
  2  3  1  0
  2  1  1  0
  3  4  1  0
  5  4  1  0
  5  6  1  1
  7  5  1  0
  7  9  1  0
  8  7  2  0
  9 10  1  0
 10 11  1  6
 11 12  1  0
 12 13  1  0
 13 17  1  0
 13 14  2  0
 15 16  2  0
 15 10  1  0
 18 19  1  0
 20 19  1  0
 20 21  1  0
 22 21  1  1
 22 23  1  0
 22 24  1  0
 23 15  1  0
 24 25  1  0
 26 24  2  0
M  END
$$$$
