RSR.pdb
     RDKit          3D

 29 28  0  0  1  0  0  0  0  0999 V2000
   31.1218  -23.5447  -16.4993 N   0  0  0  0  0  0  0  0  0  0  0  0
   30.7368  -22.7895  -17.6326 C   0  0  0  0  0  0  0  0  0  0  0  0
   30.6220  -23.3201  -18.7910 N   0  0  0  0  0  0  0  0  0  0  0  0
   30.4647  -21.3874  -17.5002 N   0  0  0  0  0  0  0  0  0  0  0  0
   29.8615  -20.8526  -16.3051 C   0  0  0  0  0  0  0  0  0  0  0  0
   28.4290  -21.2013  -16.1477 C   0  0  0  0  0  0  0  0  0  0  0  0
   27.7825  -20.6408  -14.9469 C   0  0  0  0  0  0  0  0  0  0  0  0
   28.1360  -21.3441  -13.6637 C   0  0  2  0  0  0  0  0  0  0  0  0
   29.0292  -22.4244  -13.7708 N   0  0  0  0  0  0  0  0  0  0  0  0
   26.9273  -21.6603  -12.8673 C   0  0  0  0  0  0  0  0  0  0  0  0
   26.0807  -22.4971  -13.3799 O   0  0  0  0  0  0  0  0  0  0  0  0
   30.3700  -22.8332  -19.6532 O   0  0  0  0  0  0  0  0  0  0  0  0
   25.8898  -19.7109   -9.4539 C   0  0  0  0  0  0  0  0  0  0  0  0
   25.3161  -20.9741   -9.5331 C   0  0  1  0  0  0  0  0  0  0  0  0
   25.3454  -21.4841  -10.9514 N   0  0  0  0  0  0  0  0  0  0  0  0
   26.6168  -21.1309  -11.6030 C   0  0  0  0  0  0  0  0  0  0  0  0
   24.2586  -20.8122  -11.7092 O   0  0  0  0  0  0  0  0  0  0  0  0
   24.4259  -19.7596  -12.3692 N   0  0  0  0  0  0  0  0  0  0  0  0
   20.5566  -24.0045  -17.7412 C   0  0  0  0  0  0  0  0  0  0  0  0
   20.1401  -22.6967  -17.4001 N   0  0  0  0  0  0  0  0  0  0  0  0
   19.2047  -22.0735  -18.0125 N   0  0  0  0  0  0  0  0  0  0  0  0
   20.7895  -22.0209  -16.3163 C   0  0  0  0  0  0  0  0  0  0  0  0
   21.8812  -22.6731  -15.6343 C   0  0  0  0  0  0  0  0  0  0  0  0
   22.4082  -21.7132  -14.5660 C   0  0  0  0  0  0  0  0  0  0  0  0
   21.4205  -21.6327  -13.4414 C   0  0  2  0  0  0  0  0  0  0  0  0
   21.8825  -20.6638  -12.3762 N   0  0  0  0  0  0  0  0  0  0  0  0
   22.9692  -21.3890  -11.6858 C   0  0  0  0  0  0  0  0  0  0  0  0
   20.7825  -20.3752  -11.4588 O   0  0  0  0  0  0  0  0  0  0  0  0
   19.7500  -19.4958  -11.6389 O   0  0  0  0  0  0  0  0  0  0  0  0
  1  2  1  0
  2  3  2  0
  4  2  1  0
  5  4  1  0
  6  5  1  0
  7  6  1  0
  8  9  1  6
  8  7  1  0
 10  8  1  0
 11 10  2  0
 14 13  1  1
 13 12  1  0
 14 15  1  0
 15 10  1  0
 16 17  2  0
 16 14  1  0
 18 19  1  0
 19 21  1  0
 20 19  2  0
 21 22  1  0
 22 23  1  0
 23 24  1  0
 25 24  1  6
 25 26  1  0
 26 16  1  0
 27 28  1  0
 27 25  1  0
 29 27  2  0
M  END
$$$$
