RSR.pdb
     RDKit          3D

 29 28  0  0  1  0  0  0  0  0999 V2000
   21.0146  -27.4977  -10.8162 N   0  0  0  0  0  0  0  0  0  0  0  0
   20.0773  -28.5123  -10.5082 C   0  0  0  0  0  0  0  0  0  0  0  0
   20.3322  -29.7504  -10.7056 N   0  0  0  0  0  0  0  0  0  0  0  0
   18.7986  -28.1635   -9.9597 N   0  0  0  0  0  0  0  0  0  0  0  0
   17.7506  -27.6250  -10.7904 C   0  0  0  0  0  0  0  0  0  0  0  0
   17.1756  -26.3555  -10.2843 C   0  0  0  0  0  0  0  0  0  0  0  0
   17.1048  -26.2488   -8.8154 C   0  0  0  0  0  0  0  0  0  0  0  0
   17.7692  -25.0232   -8.2474 C   0  0  2  0  0  0  0  0  0  0  0  0
   19.1456  -24.8874   -8.4990 N   0  0  0  0  0  0  0  0  0  0  0  0
   17.4113  -24.8223   -6.8238 C   0  0  0  0  0  0  0  0  0  0  0  0
   18.2215  -25.3041   -5.9343 O   0  0  0  0  0  0  0  0  0  0  0  0
   19.7384  -30.5369  -10.4361 O   0  0  0  0  0  0  0  0  0  0  0  0
   13.9375  -23.0956   -5.5610 C   0  0  0  0  0  0  0  0  0  0  0  0
   14.9519  -23.0395   -4.6129 C   0  0  1  0  0  0  0  0  0  0  0  0
   16.0115  -24.0711   -4.9053 N   0  0  0  0  0  0  0  0  0  0  0  0
   16.2680  -24.1549   -6.3521 C   0  0  0  0  0  0  0  0  0  0  0  0
   15.5022  -25.3967   -4.4691 O   0  0  0  0  0  0  0  0  0  0  0  0
   14.7504  -26.1128   -5.1717 N   0  0  0  0  0  0  0  0  0  0  0  0
   20.3703  -30.2515   -0.2311 C   0  0  0  0  0  0  0  0  0  0  0  0
   19.2862  -29.7421    0.5208 N   0  0  0  0  0  0  0  0  0  0  0  0
   19.3179  -29.5964    1.7921 N   0  0  0  0  0  0  0  0  0  0  0  0
   18.0831  -29.3665   -0.1608 C   0  0  0  0  0  0  0  0  0  0  0  0
   17.9479  -29.6672   -1.5657 C   0  0  0  0  0  0  0  0  0  0  0  0
   16.5512  -29.2268   -2.0081 C   0  0  0  0  0  0  0  0  0  0  0  0
   16.4325  -27.7394   -1.8663 C   0  0  2  0  0  0  0  0  0  0  0  0
   15.3539  -27.1882   -2.7717 N   0  0  0  0  0  0  0  0  0  0  0  0
   15.8849  -25.8763   -3.1966 C   0  0  0  0  0  0  0  0  0  0  0  0
   14.1106  -27.0296   -2.0206 O   0  0  0  0  0  0  0  0  0  0  0  0
   13.0793  -27.9217   -1.9093 O   0  0  0  0  0  0  0  0  0  0  0  0
  1  2  1  0
  2  3  2  0
  4  2  1  0
  5  4  1  0
  6  5  1  0
  7  6  1  0
  8  9  1  1
  8  7  1  0
 10  8  1  0
 11 10  2  0
 14 13  1  1
 13 12  1  0
 14 15  1  0
 15 10  1  0
 16 17  2  0
 16 14  1  0
 18 19  1  0
 19 21  1  0
 20 19  2  0
 21 22  1  0
 22 23  1  0
 23 24  1  0
 25 24  1  6
 25 26  1  0
 26 16  1  0
 27 28  1  0
 27 25  1  0
 29 27  2  0
M  END
$$$$
