RSR.pdb
     RDKit          3D

 29 28  0  0  1  0  0  0  0  0999 V2000
   18.2156   -5.4987   -9.2345 N   0  0  0  0  0  0  0  0  0  0  0  0
   16.8231   -5.4526   -9.4827 C   0  0  0  0  0  0  0  0  0  0  0  0
   16.0830   -4.5218   -9.0108 N   0  0  0  0  0  0  0  0  0  0  0  0
   16.2040   -6.4698  -10.2824 N   0  0  0  0  0  0  0  0  0  0  0  0
   16.8584   -7.0034  -11.4509 C   0  0  0  0  0  0  0  0  0  0  0  0
   16.4842   -6.3211  -12.7129 C   0  0  0  0  0  0  0  0  0  0  0  0
   17.1862   -6.8097  -13.9139 C   0  0  0  0  0  0  0  0  0  0  0  0
   18.5744   -6.2553  -14.0924 C   0  0  2  0  0  0  0  0  0  0  0  0
   18.6615   -4.9277  -14.5466 N   0  0  0  0  0  0  0  0  0  0  0  0
   19.4395   -7.1909  -14.8482 C   0  0  0  0  0  0  0  0  0  0  0  0
   19.1788   -7.3552  -16.1072 O   0  0  0  0  0  0  0  0  0  0  0  0
   15.0878   -4.3901   -9.2011 O   0  0  0  0  0  0  0  0  0  0  0  0
   22.3594   -9.5538  -13.1796 C   0  0  0  0  0  0  0  0  0  0  0  0
   22.5649   -9.2512  -14.5201 C   0  0  1  0  0  0  0  0  0  0  0  0
   21.2707   -8.8467  -15.1790 N   0  0  0  0  0  0  0  0  0  0  0  0
   20.5194   -7.9182  -14.3191 C   0  0  0  0  0  0  0  0  0  0  0  0
   20.4364  -10.0639  -15.3503 O   0  0  0  0  0  0  0  0  0  0  0  0
   19.3651  -10.2596  -14.7292 N   0  0  0  0  0  0  0  0  0  0  0  0
   17.1570  -14.4720  -19.8491 C   0  0  0  0  0  0  0  0  0  0  0  0
   16.0399  -14.7257  -19.0197 N   0  0  0  0  0  0  0  0  0  0  0  0
   15.2589  -15.7276  -19.1773 N   0  0  0  0  0  0  0  0  0  0  0  0
   15.7536  -13.8235  -17.9440 C   0  0  0  0  0  0  0  0  0  0  0  0
   16.5828  -12.6560  -17.7661 C   0  0  0  0  0  0  0  0  0  0  0  0
   17.9093  -13.1106  -17.1544 C   0  0  0  0  0  0  0  0  0  0  0  0
   18.7907  -11.9175  -16.9397 C   0  0  1  0  0  0  0  0  0  0  0  0
   20.1086  -12.3167  -16.3145 N   0  0  0  0  0  0  0  0  0  0  0  0
   20.8719  -11.0526  -16.2605 C   0  0  0  0  0  0  0  0  0  0  0  0
   20.7821  -13.2972  -17.1631 O   0  0  0  0  0  0  0  0  0  0  0  0
   20.6616  -14.6596  -17.1273 O   0  0  0  0  0  0  0  0  0  0  0  0
  1  2  1  0
  2  3  2  0
  4  2  1  0
  5  4  1  0
  6  5  1  0
  7  6  1  0
  8  9  1  6
  8  7  1  0
 10  8  1  0
 11 10  2  0
 14 13  1  6
 13 12  1  0
 14 15  1  0
 15 10  1  0
 16 17  2  0
 16 14  1  0
 18 19  1  0
 19 21  1  0
 20 19  2  0
 21 22  1  0
 22 23  1  0
 23 24  1  0
 25 24  1  1
 25 26  1  0
 26 16  1  0
 27 28  1  0
 27 25  1  0
 29 27  2  0
M  END
$$$$
