RSR.pdb
     RDKit          3D

 29 28  0  0  1  0  0  0  0  0999 V2000
   25.3407  -21.0950   -8.7209 N   0  0  0  0  0  0  0  0  0  0  0  0
   24.0740  -21.0271   -9.3483 C   0  0  0  0  0  0  0  0  0  0  0  0
   22.9935  -21.3025   -8.7209 N   0  0  0  0  0  0  0  0  0  0  0  0
   23.9771  -20.6423  -10.7268 N   0  0  0  0  0  0  0  0  0  0  0  0
   25.0506  -20.9034  -11.6529 C   0  0  0  0  0  0  0  0  0  0  0  0
   25.4870  -19.7108  -12.4181 C   0  0  0  0  0  0  0  0  0  0  0  0
   26.5348  -19.9678  -13.4231 C   0  0  0  0  0  0  0  0  0  0  0  0
   26.1373  -20.9387  -14.5027 C   0  0  2  0  0  0  0  0  0  0  0  0
   26.6791  -22.2325  -14.4077 N   0  0  0  0  0  0  0  0  0  0  0  0
   26.2818  -20.3408  -15.8504 C   0  0  0  0  0  0  0  0  0  0  0  0
   27.3996  -20.5449  -16.4739 O   0  0  0  0  0  0  0  0  0  0  0  0
   22.0502  -21.2878   -9.1130 O   0  0  0  0  0  0  0  0  0  0  0  0
   23.5837  -17.7748  -17.8236 C   0  0  0  0  0  0  0  0  0  0  0  0
   24.2488  -18.7465  -18.5613 C   0  0  1  0  0  0  0  0  0  0  0  0
   25.5480  -19.1236  -17.8961 N   0  0  0  0  0  0  0  0  0  0  0  0
   25.3120  -19.5693  -16.5134 C   0  0  0  0  0  0  0  0  0  0  0  0
   26.4048  -17.9118  -17.8298 O   0  0  0  0  0  0  0  0  0  0  0  0
   26.5229  -17.2052  -16.8010 N   0  0  0  0  0  0  0  0  0  0  0  0
   34.5034  -17.0390  -20.0779 C   0  0  0  0  0  0  0  0  0  0  0  0
   34.1488  -15.7176  -19.7198 N   0  0  0  0  0  0  0  0  0  0  0  0
   35.0045  -14.7817  -19.5452 N   0  0  0  0  0  0  0  0  0  0  0  0
   32.7648  -15.3943  -19.5381 C   0  0  0  0  0  0  0  0  0  0  0  0
   31.7874  -16.4559  -19.5498 C   0  0  0  0  0  0  0  0  0  0  0  0
   30.4226  -15.8415  -19.2333 C   0  0  0  0  0  0  0  0  0  0  0  0
   29.3889  -16.9261  -19.1898 C   0  0  1  0  0  0  0  0  0  0  0  0
   28.0189  -16.3637  -18.8836 N   0  0  0  0  0  0  0  0  0  0  0  0
   27.1246  -17.5356  -18.9857 C   0  0  0  0  0  0  0  0  0  0  0  0
   27.6667  -15.3504  -19.8757 O   0  0  0  0  0  0  0  0  0  0  0  0
   27.9113  -14.0053  -19.8227 O   0  0  0  0  0  0  0  0  0  0  0  0
  1  2  1  0
  2  3  2  0
  4  2  1  0
  5  4  1  0
  6  5  1  0
  7  6  1  0
  8  9  1  6
  8  7  1  0
 10  8  1  0
 11 10  2  0
 14 13  1  6
 13 12  1  0
 14 15  1  0
 15 10  1  0
 16 17  2  0
 16 14  1  0
 18 19  1  0
 19 21  1  0
 20 19  2  0
 21 22  1  0
 22 23  1  0
 23 24  1  0
 25 24  1  1
 25 26  1  0
 26 16  1  0
 27 28  1  0
 27 25  1  0
 29 27  2  0
M  END
$$$$
