RSR.pdb
     RDKit          3D

 29 28  0  0  1  0  0  0  0  0999 V2000
   29.6005  -20.0657  -17.8511 N   0  0  0  0  0  0  0  0  0  0  0  0
   29.4272  -19.0025  -18.7689 C   0  0  0  0  0  0  0  0  0  0  0  0
   30.3128  -18.7163  -19.6466 N   0  0  0  0  0  0  0  0  0  0  0  0
   28.2322  -18.2098  -18.7295 N   0  0  0  0  0  0  0  0  0  0  0  0
   27.0914  -18.6158  -17.9472 C   0  0  0  0  0  0  0  0  0  0  0  0
   25.9529  -17.6680  -18.0089 C   0  0  0  0  0  0  0  0  0  0  0  0
   24.7279  -18.1249  -17.3273 C   0  0  0  0  0  0  0  0  0  0  0  0
   24.2145  -19.4595  -17.7978 C   0  0  2  0  0  0  0  0  0  0  0  0
   23.8887  -19.5562  -19.1620 N   0  0  0  0  0  0  0  0  0  0  0  0
   23.1530  -19.9785  -16.9040 C   0  0  0  0  0  0  0  0  0  0  0  0
   21.9257  -19.8409  -17.2975 O   0  0  0  0  0  0  0  0  0  0  0  0
   30.3021  -17.9068  -20.2699 O   0  0  0  0  0  0  0  0  0  0  0  0
   21.6104  -22.5426  -13.0800 C   0  0  0  0  0  0  0  0  0  0  0  0
   22.6841  -21.9364  -13.7206 C   0  0  2  0  0  0  0  0  0  0  0  0
   22.2133  -21.1404  -14.9112 N   0  0  0  0  0  0  0  0  0  0  0  0
   23.3599  -20.6071  -15.6642 C   0  0  0  0  0  0  0  0  0  0  0  0
   21.4322  -19.9788  -14.4138 O   0  0  0  0  0  0  0  0  0  0  0  0
   21.8738  -18.8057  -14.3981 N   0  0  0  0  0  0  0  0  0  0  0  0
   17.2082  -14.2330  -17.3070 C   0  0  0  0  0  0  0  0  0  0  0  0
   16.8618  -14.0116  -15.9538 N   0  0  0  0  0  0  0  0  0  0  0  0
   16.1945  -12.9947  -15.5551 N   0  0  0  0  0  0  0  0  0  0  0  0
   17.2727  -14.9650  -14.9662 C   0  0  0  0  0  0  0  0  0  0  0  0
   18.1402  -16.0506  -15.3551 C   0  0  0  0  0  0  0  0  0  0  0  0
   18.3225  -16.9641  -14.1415 C   0  0  0  0  0  0  0  0  0  0  0  0
   19.1658  -18.1410  -14.5294 C   0  0  1  0  0  0  0  0  0  0  0  0
   19.3984  -19.0592  -13.3505 N   0  0  0  0  0  0  0  0  0  0  0  0
   20.1233  -20.2071  -13.9339 C   0  0  0  0  0  0  0  0  0  0  0  0
   18.1161  -19.4812  -12.7913 O   0  0  0  0  0  0  0  0  0  0  0  0
   17.4073  -18.8901  -11.7814 O   0  0  0  0  0  0  0  0  0  0  0  0
  1  2  1  0
  2  3  2  0
  4  2  1  0
  5  4  1  0
  6  5  1  0
  7  6  1  0
  8  9  1  6
  8  7  1  0
 10  8  1  0
 11 10  2  0
 14 13  1  6
 13 12  1  0
 14 15  1  0
 15 10  1  0
 16 17  2  0
 16 14  1  0
 18 19  1  0
 19 21  1  0
 20 19  2  0
 21 22  1  0
 22 23  1  0
 23 24  1  0
 25 24  1  1
 25 26  1  0
 26 16  1  0
 27 28  1  0
 27 25  1  0
 29 27  2  0
M  END
$$$$
