WGC.pdb
     RDKit          3D

 25 26  0  0  1  0  0  0  0  0999 V2000
    6.9783  -18.2098   24.7698 N   0  0  0  0  0  0  0  0  0  0  0  0
    7.1565  -17.2923   23.6315 C   0  0  1  0  0  0  0  0  0  0  0  0
    8.0929  -16.2164   24.0571 C   0  0  0  0  0  0  0  0  0  0  0  0
    7.3997  -15.3046   25.0037 C   0  0  0  0  0  0  0  0  0  0  0  0
    6.4957  -15.7039   25.9910 C   0  0  0  0  0  0  0  0  0  0  0  0
    6.0473  -14.6553   26.6732 N   0  0  0  0  0  0  0  0  0  0  0  0
    6.6404  -13.5657   26.1533 C   0  0  0  0  0  0  0  0  0  0  0  0
    6.5513  -12.2163   26.4664 C   0  0  0  0  0  0  0  0  0  0  0  0
    7.2891  -11.2959   25.7534 C   0  0  0  0  0  0  0  0  0  0  0  0
    8.1287  -11.6777   24.7200 C   0  0  0  0  0  0  0  0  0  0  0  0
    8.2272  -13.0216   24.3970 C   0  0  0  0  0  0  0  0  0  0  0  0
    7.4835  -13.9368   25.1177 C   0  0  0  0  0  0  0  0  0  0  0  0
    7.5945  -18.1003   22.5028 C   0  0  0  0  0  0  0  0  0  0  0  0
    7.6739  -17.5305   21.3664 O   0  0  0  0  0  0  0  0  0  0  0  0
    7.9481  -19.4763   22.5360 N   0  0  0  0  0  0  0  0  0  0  0  0
    9.2885  -19.9610   22.6621 C   0  0  0  0  0  0  0  0  0  0  0  0
   10.1299  -19.5665   21.4772 C   0  0  0  0  0  0  0  0  0  0  0  0
   10.5159  -20.3778   20.6143 O   0  0  0  0  0  0  0  0  0  0  0  0
   10.5009  -18.2029   21.3365 N   0  0  0  0  0  0  0  0  0  0  0  0
   11.8645  -17.8812   20.9924 C   0  0  1  0  0  0  0  0  0  0  0  0
   11.8668  -16.5949   20.1920 C   0  0  0  0  0  0  0  0  0  0  0  0
   11.0872  -16.8433   18.5709 S   0  0  0  0  0  0  0  0  0  0  0  0
   12.6422  -17.7279   22.2416 C   0  0  0  0  0  0  0  0  0  0  0  0
   12.0353  -17.8064   23.3433 O   0  0  0  0  0  0  0  0  0  0  0  0
   14.0097  -17.5013   22.2859 O   0  0  0  0  0  0  0  0  0  0  0  0
  2  1  1  1
  2 13  1  0
  3  2  1  0
  4  3  1  0
  5  4  2  0
  6  5  1  0
  7  6  1  0
  7 12  2  0
  8  7  1  0
  9  8  2  0
  9 10  1  0
 10 11  2  0
 11 12  1  0
 12  4  1  0
 13 14  2  0
 15 13  1  0
 15 16  1  0
 17 19  1  0
 17 16  1  0
 18 17  2  0
 20 19  1  0
 20 21  1  1
 21 22  1  0
 23 20  1  0
 24 23  2  0
 25 23  1  0
M  END
$$$$
