WGC.pdb
     RDKit          3D

 25 26  0  0  1  0  0  0  0  0999 V2000
    8.3384  -15.6918   22.7527 N   0  0  0  0  0  0  0  0  0  0  0  0
    9.2164  -15.5998   23.9317 C   0  0  1  0  0  0  0  0  0  0  0  0
    8.3991  -15.9213   25.1334 C   0  0  0  0  0  0  0  0  0  0  0  0
    7.3318  -14.8997   25.2922 C   0  0  0  0  0  0  0  0  0  0  0  0
    6.0188  -15.0282   24.8331 C   0  0  0  0  0  0  0  0  0  0  0  0
    5.3070  -13.9453   25.1277 N   0  0  0  0  0  0  0  0  0  0  0  0
    6.1283  -13.0998   25.7757 C   0  0  0  0  0  0  0  0  0  0  0  0
    5.9304  -11.8352   26.3128 C   0  0  0  0  0  0  0  0  0  0  0  0
    6.9723  -11.1835   26.9371 C   0  0  0  0  0  0  0  0  0  0  0  0
    8.2285  -11.7565   27.0480 C   0  0  0  0  0  0  0  0  0  0  0  0
    8.4399  -13.0185   26.5163 C   0  0  0  0  0  0  0  0  0  0  0  0
    7.3890  -13.6637   25.8923 C   0  0  0  0  0  0  0  0  0  0  0  0
   10.3487  -16.4805   23.6843 C   0  0  0  0  0  0  0  0  0  0  0  0
   11.1818  -16.6489   24.6330 O   0  0  0  0  0  0  0  0  0  0  0  0
   10.6257  -17.1819   22.4799 N   0  0  0  0  0  0  0  0  0  0  0  0
   11.6306  -18.1920   22.3484 C   0  0  0  0  0  0  0  0  0  0  0  0
   12.6392  -18.1130   23.4640 C   0  0  0  0  0  0  0  0  0  0  0  0
   13.4505  -17.1755   23.5848 O   0  0  0  0  0  0  0  0  0  0  0  0
   12.6661  -19.1581   24.4252 N   0  0  0  0  0  0  0  0  0  0  0  0
   13.7442  -19.1995   25.3829 C   0  0  1  0  0  0  0  0  0  0  0  0
   13.2038  -18.7730   26.7325 C   0  0  0  0  0  0  0  0  0  0  0  0
   11.6532  -19.6397   27.1089 S   0  0  0  0  0  0  0  0  0  0  0  0
   14.2733  -20.5801   25.4376 C   0  0  0  0  0  0  0  0  0  0  0  0
   13.7171  -21.4672   24.7364 O   0  0  0  0  0  0  0  0  0  0  0  0
   15.3523  -20.9713   26.2162 O   0  0  0  0  0  0  0  0  0  0  0  0
  2  1  1  6
  2 13  1  0
  3  2  1  0
  4  3  1  0
  5  4  2  0
  6  5  1  0
  7  6  1  0
  7 12  2  0
  8  7  1  0
  9  8  2  0
  9 10  1  0
 10 11  2  0
 11 12  1  0
 12  4  1  0
 13 14  2  0
 15 13  1  0
 15 16  1  0
 17 19  1  0
 17 16  1  0
 18 17  2  0
 20 19  1  0
 20 21  1  1
 21 22  1  0
 23 20  1  0
 24 23  2  0
 25 23  1  0
M  END
$$$$
