WGC.pdb
     RDKit          3D

 25 26  0  0  1  0  0  0  0  0999 V2000
    8.0633  -17.3410   23.3700 N   0  0  0  0  0  0  0  0  0  0  0  0
    8.7449  -16.0742   23.0538 C   0  0  1  0  0  0  0  0  0  0  0  0
    9.0625  -15.3955   24.3399 C   0  0  0  0  0  0  0  0  0  0  0  0
    7.8016  -14.9470   24.9859 C   0  0  0  0  0  0  0  0  0  0  0  0
    6.6789  -15.7488   25.2043 C   0  0  0  0  0  0  0  0  0  0  0  0
    5.7134  -15.0577   25.8011 N   0  0  0  0  0  0  0  0  0  0  0  0
    6.1788  -13.8087   25.9822 C   0  0  0  0  0  0  0  0  0  0  0  0
    5.6125  -12.6753   26.5490 C   0  0  0  0  0  0  0  0  0  0  0  0
    6.3336  -11.5018   26.6045 C   0  0  0  0  0  0  0  0  0  0  0  0
    7.6231  -11.4145   26.1065 C   0  0  0  0  0  0  0  0  0  0  0  0
    8.2007  -12.5385   25.5381 C   0  0  0  0  0  0  0  0  0  0  0  0
    7.4696  -13.7103   25.4871 C   0  0  0  0  0  0  0  0  0  0  0  0
    9.8883  -16.4075   22.2169 C   0  0  0  0  0  0  0  0  0  0  0  0
   10.5812  -15.4435   21.7557 O   0  0  0  0  0  0  0  0  0  0  0  0
   10.3186  -17.7129   21.8560 N   0  0  0  0  0  0  0  0  0  0  0  0
   11.4093  -17.9859   20.9709 C   0  0  0  0  0  0  0  0  0  0  0  0
   12.7214  -18.0197   21.7092 C   0  0  0  0  0  0  0  0  0  0  0  0
   13.8149  -18.2212   21.1476 O   0  0  0  0  0  0  0  0  0  0  0  0
   12.7114  -17.8112   23.1139 N   0  0  0  0  0  0  0  0  0  0  0  0
   13.9210  -18.0463   23.8642 C   0  0  1  0  0  0  0  0  0  0  0  0
   14.2048  -16.8235   24.7126 C   0  0  0  0  0  0  0  0  0  0  0  0
   14.2717  -15.3278   23.6851 S   0  0  0  0  0  0  0  0  0  0  0  0
   13.7251  -19.2434   24.7112 C   0  0  0  0  0  0  0  0  0  0  0  0
   12.6226  -19.8509   24.6509 O   0  0  0  0  0  0  0  0  0  0  0  0
   14.6819  -19.7506   25.5777 O   0  0  0  0  0  0  0  0  0  0  0  0
  2  1  1  1
  2 13  1  0
  3  2  1  0
  4  3  1  0
  5  4  2  0
  6  5  1  0
  7  6  1  0
  7 12  2  0
  8  7  1  0
  9  8  2  0
  9 10  1  0
 10 11  2  0
 11 12  1  0
 12  4  1  0
 13 14  2  0
 15 13  1  0
 15 16  1  0
 17 19  1  0
 17 16  1  0
 18 17  2  0
 20 19  1  0
 20 21  1  1
 21 22  1  0
 23 20  1  0
 24 23  2  0
 25 23  1  0
M  END
$$$$
