WGC.pdb
     RDKit          3D

 25 26  0  0  1  0  0  0  0  0999 V2000
    7.9125  -17.6246   23.9054 N   0  0  0  0  0  0  0  0  0  0  0  0
    8.1495  -16.7653   22.7330 C   0  0  1  0  0  0  0  0  0  0  0  0
    7.0362  -15.7801   22.6588 C   0  0  0  0  0  0  0  0  0  0  0  0
    6.7807  -15.2212   24.0118 C   0  0  0  0  0  0  0  0  0  0  0  0
    6.3791  -15.9612   25.1264 C   0  0  0  0  0  0  0  0  0  0  0  0
    6.2329  -15.1751   26.1879 N   0  0  0  0  0  0  0  0  0  0  0  0
    6.5317  -13.9241   25.7942 C   0  0  0  0  0  0  0  0  0  0  0  0
    6.5518  -12.7127   26.4718 C   0  0  0  0  0  0  0  0  0  0  0  0
    6.9053  -11.5591   25.8055 C   0  0  0  0  0  0  0  0  0  0  0  0
    7.2462  -11.5680   24.4630 C   0  0  0  0  0  0  0  0  0  0  0  0
    7.2304  -12.7704   23.7745 C   0  0  0  0  0  0  0  0  0  0  0  0
    6.8746  -13.9217   24.4514 C   0  0  0  0  0  0  0  0  0  0  0  0
    9.4826  -16.2010   22.8858 C   0  0  0  0  0  0  0  0  0  0  0  0
   10.0581  -15.7584   21.8393 O   0  0  0  0  0  0  0  0  0  0  0  0
   10.2189  -16.0900   24.0961 N   0  0  0  0  0  0  0  0  0  0  0  0
   11.5539  -15.5822   24.1836 C   0  0  0  0  0  0  0  0  0  0  0  0
   12.0658  -15.6220   25.5993 C   0  0  0  0  0  0  0  0  0  0  0  0
   13.2234  -15.2878   25.9156 O   0  0  0  0  0  0  0  0  0  0  0  0
   11.1856  -16.0616   26.6235 N   0  0  0  0  0  0  0  0  0  0  0  0
   11.6663  -16.1160   27.9826 C   0  0  1  0  0  0  0  0  0  0  0  0
   10.7281  -15.3083   28.8561 C   0  0  0  0  0  0  0  0  0  0  0  0
   10.3345  -13.7155   28.0782 S   0  0  0  0  0  0  0  0  0  0  0  0
   11.7029  -17.5309   28.4133 C   0  0  0  0  0  0  0  0  0  0  0  0
   11.3421  -18.4195   27.5958 O   0  0  0  0  0  0  0  0  0  0  0  0
   12.1119  -17.9533   29.6694 O   0  0  0  0  0  0  0  0  0  0  0  0
  2  1  1  1
  2 13  1  0
  3  2  1  0
  4  3  1  0
  5  4  2  0
  6  5  1  0
  7  6  1  0
  7 12  2  0
  8  7  1  0
  9  8  2  0
  9 10  1  0
 10 11  2  0
 11 12  1  0
 12  4  1  0
 13 14  2  0
 15 13  1  0
 15 16  1  0
 17 19  1  0
 17 16  1  0
 18 17  2  0
 20 19  1  0
 20 21  1  1
 21 22  1  0
 23 20  1  0
 24 23  2  0
 25 23  1  0
M  END
$$$$
