WGC.pdb
     RDKit          3D

 25 26  0  0  1  0  0  0  0  0999 V2000
    7.3990  -17.5176   24.4834 N   0  0  0  0  0  0  0  0  0  0  0  0
    8.2661  -16.3344   24.3514 C   0  0  1  0  0  0  0  0  0  0  0  0
    8.2810  -15.6330   25.6641 C   0  0  0  0  0  0  0  0  0  0  0  0
    7.0625  -14.7917   25.7882 C   0  0  0  0  0  0  0  0  0  0  0  0
    5.7795  -15.2682   26.0676 C   0  0  0  0  0  0  0  0  0  0  0  0
    4.9038  -14.2696   26.1127 N   0  0  0  0  0  0  0  0  0  0  0  0
    5.5868  -13.1370   25.8673 C   0  0  0  0  0  0  0  0  0  0  0  0
    5.1930  -11.8081   25.7917 C   0  0  0  0  0  0  0  0  0  0  0  0
    6.1254  -10.8301   25.5197 C   0  0  0  0  0  0  0  0  0  0  0  0
    7.4616  -11.1332   25.3165 C   0  0  0  0  0  0  0  0  0  0  0  0
    7.8684  -12.4558   25.3893 C   0  0  0  0  0  0  0  0  0  0  0  0
    6.9261  -13.4291   25.6624 C   0  0  0  0  0  0  0  0  0  0  0  0
    9.5571  -16.8083   23.8742 C   0  0  0  0  0  0  0  0  0  0  0  0
    9.8720  -18.0157   24.1297 O   0  0  0  0  0  0  0  0  0  0  0  0
   10.5153  -16.0556   23.1431 N   0  0  0  0  0  0  0  0  0  0  0  0
   11.8561  -16.4868   22.8902 C   0  0  0  0  0  0  0  0  0  0  0  0
   12.6819  -16.4832   24.1495 C   0  0  0  0  0  0  0  0  0  0  0  0
   13.9183  -16.6350   24.1548 O   0  0  0  0  0  0  0  0  0  0  0  0
   12.0186  -16.2972   25.3914 N   0  0  0  0  0  0  0  0  0  0  0  0
   12.7830  -16.3823   26.6119 C   0  0  1  0  0  0  0  0  0  0  0  0
   12.5120  -15.1398   27.4355 C   0  0  0  0  0  0  0  0  0  0  0  0
   10.7872  -15.1060   28.0023 S   0  0  0  0  0  0  0  0  0  0  0  0
   12.3706  -17.6010   27.3424 C   0  0  0  0  0  0  0  0  0  0  0  0
   11.3361  -18.2114   26.9611 O   0  0  0  0  0  0  0  0  0  0  0  0
   13.0514  -18.1256   28.4308 O   0  0  0  0  0  0  0  0  0  0  0  0
  2  1  1  1
  2 13  1  0
  3  2  1  0
  4  3  1  0
  5  4  2  0
  6  5  1  0
  7  6  1  0
  7 12  2  0
  8  7  1  0
  9  8  2  0
  9 10  1  0
 10 11  2  0
 11 12  1  0
 12  4  1  0
 13 14  2  0
 15 13  1  0
 15 16  1  0
 17 19  1  0
 17 16  1  0
 18 17  2  0
 20 19  1  0
 20 21  1  1
 21 22  1  0
 23 20  1  0
 24 23  2  0
 25 23  1  0
M  END
$$$$
