QIG.pdb
     RDKit          3D

 22 21  0  0  1  0  0  0  0  0999 V2000
    6.0222  -20.8261   27.6280 N   0  0  0  0  0  0  0  0  0  0  0  0
    6.9530  -20.9294   26.5499 C   0  0  0  0  0  0  0  0  0  0  0  0
    7.5845  -22.0084   26.4697 O   0  0  0  0  0  0  0  0  0  0  0  0
    7.1702  -19.8446   25.5899 C   0  0  0  0  0  0  0  0  0  0  0  0
    6.3801  -18.5941   25.7965 C   0  0  0  0  0  0  0  0  0  0  0  0
    6.2548  -17.7947   24.5534 C   0  0  2  0  0  0  0  0  0  0  0  0
    6.4362  -18.5178   23.3297 N   0  0  0  0  0  0  0  0  0  0  0  0
    7.1054  -16.5587   24.5824 C   0  0  0  0  0  0  0  0  0  0  0  0
    8.0094  -16.4194   23.7246 O   0  0  0  0  0  0  0  0  0  0  0  0
    5.1737  -11.8938   26.7353 C   0  0  0  0  0  0  0  0  0  0  0  0
    5.8934  -12.7513   25.7141 C   0  0  0  0  0  0  0  0  0  0  0  0
    7.1516  -13.2776   26.3977 C   0  0  2  0  0  0  0  0  0  0  0  0
    8.0754  -12.1396   26.6818 C   0  0  0  0  0  0  0  0  0  0  0  0
    7.8070  -14.3471   25.5539 C   0  0  2  0  0  0  0  0  0  0  0  0
    6.9324  -15.5342   25.5424 N   0  0  0  0  0  0  0  0  0  0  0  0
    9.1000  -14.7247   26.1643 C   0  0  0  0  0  0  0  0  0  0  0  0
   10.0578  -13.8652   26.1325 O   0  0  0  0  0  0  0  0  0  0  0  0
    9.3844  -15.9590   26.7926 N   0  0  0  0  0  0  0  0  0  0  0  0
   10.7419  -16.1646   27.3342 C   0  0  0  0  0  0  0  0  0  0  0  0
   10.8102  -17.4892   27.9993 C   0  0  0  0  0  0  0  0  0  0  0  0
   11.8891  -17.8246   28.7834 O   0  0  0  0  0  0  0  0  0  0  0  0
    9.8814  -18.3213   27.8536 O   0  0  0  0  0  0  0  0  0  0  0  0
  1  2  1  0
  2  3  2  0
  4  2  1  0
  5  4  1  0
  6  5  1  0
  6  7  1  6
  8  6  1  0
  8  9  2  0
 10 11  1  0
 11 12  1  0
 12 14  1  0
 12 13  1  6
 14 15  1  1
 14 16  1  0
 15  8  1  0
 16 18  1  0
 17 16  2  0
 18 19  1  0
 19 20  1  0
 20 21  1  0
 22 20  2  0
M  END
$$$$
