QIG.pdb
     RDKit          3D

 22 21  0  0  1  0  0  0  0  0999 V2000
    8.5914  -12.6847   18.4274 N   0  0  0  0  0  0  0  0  0  0  0  0
    7.9768  -13.9428   18.1474 C   0  0  0  0  0  0  0  0  0  0  0  0
    8.0171  -14.3213   16.9538 O   0  0  0  0  0  0  0  0  0  0  0  0
    7.3298  -14.7516   19.1832 C   0  0  0  0  0  0  0  0  0  0  0  0
    7.2976  -14.1792   20.5625 C   0  0  0  0  0  0  0  0  0  0  0  0
    7.6894  -15.1708   21.5935 C   0  0  2  0  0  0  0  0  0  0  0  0
    6.6698  -16.1009   21.9790 N   0  0  0  0  0  0  0  0  0  0  0  0
    8.3158  -14.5263   22.7953 C   0  0  0  0  0  0  0  0  0  0  0  0
    9.3977  -13.9065   22.6613 O   0  0  0  0  0  0  0  0  0  0  0  0
    5.5426  -12.3018   27.0180 C   0  0  0  0  0  0  0  0  0  0  0  0
    6.2219  -13.4318   26.2711 C   0  0  0  0  0  0  0  0  0  0  0  0
    7.5771  -12.8991   25.8159 C   0  0  2  0  0  0  0  0  0  0  0  0
    7.3717  -11.7991   24.8275 C   0  0  0  0  0  0  0  0  0  0  0  0
    8.4267  -14.0173   25.2562 C   0  0  2  0  0  0  0  0  0  0  0  0
    7.7364  -14.5869   24.0843 N   0  0  0  0  0  0  0  0  0  0  0  0
    8.5690  -15.0783   26.2765 C   0  0  0  0  0  0  0  0  0  0  0  0
    9.0966  -14.7629   27.4075 O   0  0  0  0  0  0  0  0  0  0  0  0
    8.1692  -16.4260   26.1239 N   0  0  0  0  0  0  0  0  0  0  0  0
    8.3080  -17.3259   27.2855 C   0  0  0  0  0  0  0  0  0  0  0  0
    9.5888  -18.0677   27.1822 C   0  0  0  0  0  0  0  0  0  0  0  0
    9.9570  -18.9686   28.1538 O   0  0  0  0  0  0  0  0  0  0  0  0
   10.3533  -17.8811   26.2039 O   0  0  0  0  0  0  0  0  0  0  0  0
  1  2  1  0
  2  3  2  0
  4  2  1  0
  5  4  1  0
  6  5  1  0
  6  7  1  1
  8  6  1  0
  8  9  2  0
 10 11  1  0
 11 12  1  0
 12 14  1  0
 12 13  1  6
 14 15  1  6
 14 16  1  0
 15  8  1  0
 16 18  1  0
 17 16  2  0
 18 19  1  0
 19 20  1  0
 20 21  1  0
 22 20  2  0
M  END
$$$$
