QIG.pdb
     RDKit          3D

 22 21  0  0  1  0  0  0  0  0999 V2000
    6.5671  -19.4820   21.1714 N   0  0  0  0  0  0  0  0  0  0  0  0
    6.3167  -18.5592   20.1108 C   0  0  0  0  0  0  0  0  0  0  0  0
    5.7980  -19.0381   19.0758 O   0  0  0  0  0  0  0  0  0  0  0  0
    6.6457  -17.1354   20.2111 C   0  0  0  0  0  0  0  0  0  0  0  0
    7.3392  -16.6905   21.4569 C   0  0  0  0  0  0  0  0  0  0  0  0
    7.4633  -15.2146   21.5365 C   0  0  2  0  0  0  0  0  0  0  0  0
    7.9825  -14.5715   20.3660 N   0  0  0  0  0  0  0  0  0  0  0  0
    8.1964  -14.7699   22.7681 C   0  0  0  0  0  0  0  0  0  0  0  0
    9.4316  -14.5635   22.7023 O   0  0  0  0  0  0  0  0  0  0  0  0
    5.9238  -11.6657   26.4387 C   0  0  0  0  0  0  0  0  0  0  0  0
    6.9698  -12.2586   25.5165 C   0  0  0  0  0  0  0  0  0  0  0  0
    7.4806  -13.5253   26.1962 C   0  0  2  0  0  0  0  0  0  0  0  0
    8.2243  -13.1575   27.4375 C   0  0  0  0  0  0  0  0  0  0  0  0
    8.3289  -14.3351   25.2421 C   0  0  2  0  0  0  0  0  0  0  0  0
    7.5517  -14.5713   24.0115 N   0  0  0  0  0  0  0  0  0  0  0  0
    8.6397  -15.6435   25.8574 C   0  0  0  0  0  0  0  0  0  0  0  0
    7.6606  -16.4382   26.1159 O   0  0  0  0  0  0  0  0  0  0  0  0
    9.9324  -16.1108   26.1889 N   0  0  0  0  0  0  0  0  0  0  0  0
   10.0681  -17.5071   26.6477 C   0  0  0  0  0  0  0  0  0  0  0  0
   10.5155  -17.5181   28.0624 C   0  0  0  0  0  0  0  0  0  0  0  0
   10.6905  -18.7062   28.7325 O   0  0  0  0  0  0  0  0  0  0  0  0
   10.7401  -16.4401   28.6656 O   0  0  0  0  0  0  0  0  0  0  0  0
  1  2  1  0
  2  3  2  0
  4  2  1  0
  5  4  1  0
  6  5  1  0
  6  7  1  6
  8  6  1  0
  8  9  2  0
 10 11  1  0
 11 12  1  0
 12 14  1  0
 12 13  1  1
 14 15  1  6
 14 16  1  0
 15  8  1  0
 16 18  1  0
 17 16  2  0
 18 19  1  0
 19 20  1  0
 20 21  1  0
 22 20  2  0
M  END
$$$$
