QIG.pdb
     RDKit          3D

 22 21  0  0  1  0  0  0  0  0999 V2000
    5.8315  -20.8039   23.9848 N   0  0  0  0  0  0  0  0  0  0  0  0
    5.0353  -20.2693   22.9268 C   0  0  0  0  0  0  0  0  0  0  0  0
    4.1589  -21.0321   22.4583 O   0  0  0  0  0  0  0  0  0  0  0  0
    5.2239  -18.9129   22.4068 C   0  0  0  0  0  0  0  0  0  0  0  0
    6.3150  -18.1007   23.0238 C   0  0  0  0  0  0  0  0  0  0  0  0
    6.3549  -16.7157   22.4945 C   0  0  2  0  0  0  0  0  0  0  0  0
    6.5249  -16.5979   21.0766 N   0  0  0  0  0  0  0  0  0  0  0  0
    7.3372  -15.8523   23.2305 C   0  0  0  0  0  0  0  0  0  0  0  0
    8.4911  -15.7048   22.7623 O   0  0  0  0  0  0  0  0  0  0  0  0
    5.7385  -11.8607   26.3984 C   0  0  0  0  0  0  0  0  0  0  0  0
    6.5957  -12.6116   25.3997 C   0  0  0  0  0  0  0  0  0  0  0  0
    7.4473  -13.5879   26.2052 C   0  0  2  0  0  0  0  0  0  0  0  0
    8.4700  -12.8290   26.9844 C   0  0  0  0  0  0  0  0  0  0  0  0
    8.0738  -14.6213   25.2967 C   0  0  2  0  0  0  0  0  0  0  0  0
    7.0179  -15.1914   24.4398 N   0  0  0  0  0  0  0  0  0  0  0  0
    8.6471  -15.7088   26.1187 C   0  0  0  0  0  0  0  0  0  0  0  0
    7.8577  -16.3525   26.9058 O   0  0  0  0  0  0  0  0  0  0  0  0
   10.0013  -16.1156   26.1168 N   0  0  0  0  0  0  0  0  0  0  0  0
   10.3524  -17.3590   26.8303 C   0  0  0  0  0  0  0  0  0  0  0  0
   10.7386  -17.0327   28.2253 C   0  0  0  0  0  0  0  0  0  0  0  0
   11.1467  -18.0220   29.0889 O   0  0  0  0  0  0  0  0  0  0  0  0
   10.6970  -15.8464   28.6344 O   0  0  0  0  0  0  0  0  0  0  0  0
  1  2  1  0
  2  3  2  0
  4  2  1  0
  5  4  1  0
  6  5  1  0
  6  7  1  6
  8  6  1  0
  8  9  2  0
 10 11  1  0
 11 12  1  0
 12 14  1  0
 12 13  1  6
 14 15  1  6
 14 16  1  0
 15  8  1  0
 16 18  1  0
 17 16  2  0
 18 19  1  0
 19 20  1  0
 20 21  1  0
 22 20  2  0
M  END
$$$$
