IQM.pdb
     RDKit          3D

 26 25  0  0  1  0  0  0  0  0999 V2000
    5.8166  -11.6713   26.0548 C   0  0  0  0  0  0  0  0  0  0  0  0
    5.6772  -13.0535   25.4716 C   0  0  0  0  0  0  0  0  0  0  0  0
    7.0113  -13.7561   25.3123 C   0  0  2  0  0  0  0  0  0  0  0  0
    7.8779  -12.8672   24.4622 C   0  0  0  0  0  0  0  0  0  0  0  0
    6.7253  -15.1031   24.6839 C   0  0  2  0  0  0  0  0  0  0  0  0
    5.9014  -15.8191   25.6740 N   0  0  0  0  0  0  0  0  0  0  0  0
    7.9465  -15.9250   24.4902 C   0  0  0  0  0  0  0  0  0  0  0  0
    8.4046  -16.6619   25.4300 O   0  0  0  0  0  0  0  0  0  0  0  0
   11.2151  -19.8125   20.3987 N   0  0  0  0  0  0  0  0  0  0  0  0
   11.3841  -18.4117   20.3353 C   0  0  0  0  0  0  0  0  0  0  0  0
   11.2868  -17.8973   19.1708 O   0  0  0  0  0  0  0  0  0  0  0  0
   11.6586  -17.5782   21.5435 C   0  0  0  0  0  0  0  0  0  0  0  0
   10.4624  -16.6659   21.7367 C   0  0  0  0  0  0  0  0  0  0  0  0
    9.8863  -16.8010   23.1292 C   0  0  2  0  0  0  0  0  0  0  0  0
    8.7040  -15.9809   23.2970 N   0  0  0  0  0  0  0  0  0  0  0  0
   10.8910  -16.5689   24.1829 C   0  0  0  0  0  0  0  0  0  0  0  0
   11.4343  -15.4179   24.2142 O   0  0  0  0  0  0  0  0  0  0  0  0
   10.1900  -13.2938   28.2222 C   0  0  0  0  0  0  0  0  0  0  0  0
   10.4408  -14.7143   29.3205 S   0  0  0  0  0  0  0  0  0  0  0  0
   11.5487  -15.9308   28.5252 C   0  0  0  0  0  0  0  0  0  0  0  0
   10.9603  -16.2692   27.1894 C   0  0  0  0  0  0  0  0  0  0  0  0
   11.8515  -17.1848   26.3774 C   0  0  2  0  0  0  0  0  0  0  0  0
   11.2491  -17.5616   25.1234 N   0  0  0  0  0  0  0  0  0  0  0  0
   12.2316  -18.3877   27.1646 C   0  0  0  0  0  0  0  0  0  0  0  0
   11.9169  -19.6535   26.6910 O   0  0  0  0  0  0  0  0  0  0  0  0
   12.8376  -18.3053   28.2622 O   0  0  0  0  0  0  0  0  0  0  0  0
  1  2  1  0
  3  5  1  0
  3  2  1  0
  3  4  1  6
  5  6  1  1
  7  5  1  0
  7  8  2  0
  9 10  1  0
 10 11  2  0
 12 10  1  0
 12 13  1  0
 14 13  1  6
 14 15  1  0
 15  7  1  0
 16 14  1  0
 17 16  2  0
 19 18  1  0
 19 20  1  0
 21 20  1  0
 22 21  1  1
 22 23  1  0
 23 16  1  0
 24 25  1  0
 24 22  1  0
 26 24  2  0
M  END
$$$$
