IQM.pdb
     RDKit          3D

 26 25  0  0  1  0  0  0  0  0999 V2000
    7.7001  -11.8969   21.7838 C   0  0  0  0  0  0  0  0  0  0  0  0
    7.4427  -13.3777   21.6792 C   0  0  0  0  0  0  0  0  0  0  0  0
    8.0867  -13.9961   20.4538 C   0  0  2  0  0  0  0  0  0  0  0  0
    7.4351  -13.3696   19.2509 C   0  0  0  0  0  0  0  0  0  0  0  0
    7.8687  -15.4908   20.5508 C   0  0  2  0  0  0  0  0  0  0  0  0
    6.4098  -15.6566   20.6756 N   0  0  0  0  0  0  0  0  0  0  0  0
    8.4589  -16.0856   21.7765 C   0  0  0  0  0  0  0  0  0  0  0  0
    7.7301  -16.3853   22.7840 O   0  0  0  0  0  0  0  0  0  0  0  0
   14.5383  -18.6782   23.1055 N   0  0  0  0  0  0  0  0  0  0  0  0
   13.3627  -19.3049   23.5745 C   0  0  0  0  0  0  0  0  0  0  0  0
   13.3903  -20.5812   23.5966 O   0  0  0  0  0  0  0  0  0  0  0  0
   12.1619  -18.5358   24.0176 C   0  0  0  0  0  0  0  0  0  0  0  0
   11.6512  -17.7727   22.8104 C   0  0  0  0  0  0  0  0  0  0  0  0
   10.3721  -17.0301   23.1294 C   0  0  2  0  0  0  0  0  0  0  0  0
    9.8320  -16.3739   21.9563 N   0  0  0  0  0  0  0  0  0  0  0  0
   10.5198  -16.1129   24.2741 C   0  0  0  0  0  0  0  0  0  0  0  0
   10.8307  -14.9076   24.0071 O   0  0  0  0  0  0  0  0  0  0  0  0
    6.4242  -13.2474   25.9272 C   0  0  0  0  0  0  0  0  0  0  0  0
    7.5747  -12.4524   27.0811 S   0  0  0  0  0  0  0  0  0  0  0  0
    8.8859  -13.6295   27.5661 C   0  0  0  0  0  0  0  0  0  0  0  0
    9.0663  -14.5936   26.4333 C   0  0  0  0  0  0  0  0  0  0  0  0
   10.2157  -15.5517   26.6637 C   0  0  2  0  0  0  0  0  0  0  0  0
   10.3302  -16.5299   25.6115 N   0  0  0  0  0  0  0  0  0  0  0  0
   10.0956  -16.2127   27.9903 C   0  0  0  0  0  0  0  0  0  0  0  0
   10.2136  -15.4623   29.1514 O   0  0  0  0  0  0  0  0  0  0  0  0
    9.8878  -17.4463   28.1070 O   0  0  0  0  0  0  0  0  0  0  0  0
  1  2  1  0
  3  5  1  0
  3  2  1  0
  3  4  1  6
  5  6  1  1
  7  5  1  0
  7  8  2  0
  9 10  1  0
 10 11  2  0
 12 10  1  0
 12 13  1  0
 14 13  1  6
 14 15  1  0
 15  7  1  0
 16 14  1  0
 17 16  2  0
 19 18  1  0
 19 20  1  0
 21 20  1  0
 22 21  1  6
 22 23  1  0
 23 16  1  0
 24 25  1  0
 24 22  1  0
 26 24  2  0
M  END
$$$$
