IQM.pdb
     RDKit          3D

 26 25  0  0  1  0  0  0  0  0999 V2000
    8.1035  -11.7460   22.3682 C   0  0  0  0  0  0  0  0  0  0  0  0
    7.7946  -13.2078   22.1748 C   0  0  0  0  0  0  0  0  0  0  0  0
    8.4965  -13.7969   20.9668 C   0  0  2  0  0  0  0  0  0  0  0  0
    7.8995  -13.1443   19.7495 C   0  0  0  0  0  0  0  0  0  0  0  0
    8.2784  -15.2938   21.0196 C   0  0  2  0  0  0  0  0  0  0  0  0
    6.8161  -15.4647   21.0820 N   0  0  0  0  0  0  0  0  0  0  0  0
    8.8206  -15.9168   22.2535 C   0  0  0  0  0  0  0  0  0  0  0  0
    8.0802  -16.1087   23.2787 O   0  0  0  0  0  0  0  0  0  0  0  0
   14.0311  -19.4476   22.7598 N   0  0  0  0  0  0  0  0  0  0  0  0
   13.6033  -19.3502   24.1023 C   0  0  0  0  0  0  0  0  0  0  0  0
   14.3522  -19.9248   24.9621 O   0  0  0  0  0  0  0  0  0  0  0  0
   12.3598  -18.6258   24.5007 C   0  0  0  0  0  0  0  0  0  0  0  0
   11.8882  -17.8490   23.2864 C   0  0  0  0  0  0  0  0  0  0  0  0
   10.6338  -17.0598   23.5910 C   0  0  2  0  0  0  0  0  0  0  0  0
   10.1572  -16.3478   22.4229 N   0  0  0  0  0  0  0  0  0  0  0  0
   10.7877  -16.1822   24.7656 C   0  0  0  0  0  0  0  0  0  0  0  0
   11.6210  -15.2254   24.6617 O   0  0  0  0  0  0  0  0  0  0  0  0
    6.1380  -13.6600   26.5152 C   0  0  0  0  0  0  0  0  0  0  0  0
    7.4863  -12.7447   27.3098 S   0  0  0  0  0  0  0  0  0  0  0  0
    9.0948  -13.4872   26.8608 C   0  0  0  0  0  0  0  0  0  0  0  0
    9.2251  -14.7717   27.6212 C   0  0  0  0  0  0  0  0  0  0  0  0
   10.3857  -15.6164   27.1396 C   0  0  2  0  0  0  0  0  0  0  0  0
   10.0558  -16.3752   25.9595 N   0  0  0  0  0  0  0  0  0  0  0  0
   10.8757  -16.5091   28.2231 C   0  0  0  0  0  0  0  0  0  0  0  0
   11.4243  -15.9636   29.3751 O   0  0  0  0  0  0  0  0  0  0  0  0
   10.8131  -17.7611   28.1385 O   0  0  0  0  0  0  0  0  0  0  0  0
  1  2  1  0
  3  5  1  0
  3  2  1  0
  3  4  1  6
  5  6  1  1
  7  5  1  0
  7  8  2  0
  9 10  1  0
 10 11  2  0
 12 10  1  0
 12 13  1  0
 14 13  1  6
 14 15  1  0
 15  7  1  0
 16 14  1  0
 17 16  2  0
 19 18  1  0
 19 20  1  0
 21 20  1  0
 22 21  1  1
 22 23  1  0
 23 16  1  0
 24 25  1  0
 24 22  1  0
 26 24  2  0
M  END
$$$$
