IQM.pdb
     RDKit          3D

 26 25  0  0  1  0  0  0  0  0999 V2000
    7.2563  -11.8637   18.7313 C   0  0  0  0  0  0  0  0  0  0  0  0
    7.9255  -13.2053   18.5831 C   0  0  0  0  0  0  0  0  0  0  0  0
    7.9672  -13.9827   19.8841 C   0  0  2  0  0  0  0  0  0  0  0  0
    8.6355  -13.0999   20.9029 C   0  0  0  0  0  0  0  0  0  0  0  0
    8.7223  -15.2645   19.6052 C   0  0  2  0  0  0  0  0  0  0  0  0
    7.8866  -15.9971   18.6375 N   0  0  0  0  0  0  0  0  0  0  0  0
    8.8393  -16.1413   20.7977 C   0  0  0  0  0  0  0  0  0  0  0  0
    7.8162  -16.7318   21.2882 O   0  0  0  0  0  0  0  0  0  0  0  0
   12.6928  -20.3727   20.7079 N   0  0  0  0  0  0  0  0  0  0  0  0
   11.7909  -19.2865   20.7452 C   0  0  0  0  0  0  0  0  0  0  0  0
   10.6782  -19.4738   20.1476 O   0  0  0  0  0  0  0  0  0  0  0  0
   12.1073  -18.0003   21.4347 C   0  0  0  0  0  0  0  0  0  0  0  0
   11.3790  -18.0170   22.7650 C   0  0  0  0  0  0  0  0  0  0  0  0
   10.1155  -17.1864   22.7112 C   0  0  2  0  0  0  0  0  0  0  0  0
   10.0426  -16.4082   21.4916 N   0  0  0  0  0  0  0  0  0  0  0  0
    9.9262  -16.3640   23.9201 C   0  0  0  0  0  0  0  0  0  0  0  0
   10.9663  -15.8184   24.4115 O   0  0  0  0  0  0  0  0  0  0  0  0
    7.5759  -11.2885   26.6716 C   0  0  0  0  0  0  0  0  0  0  0  0
    6.3164  -12.5386   27.0430 S   0  0  0  0  0  0  0  0  0  0  0  0
    7.1103  -14.1605   27.3245 C   0  0  0  0  0  0  0  0  0  0  0  0
    7.2211  -14.8437   25.9957 C   0  0  0  0  0  0  0  0  0  0  0  0
    8.5592  -15.5256   25.8032 C   0  0  2  0  0  0  0  0  0  0  0  0
    8.6606  -16.1766   24.5214 N   0  0  0  0  0  0  0  0  0  0  0  0
    8.8276  -16.4851   26.9070 C   0  0  0  0  0  0  0  0  0  0  0  0
    9.4163  -16.0416   28.0826 O   0  0  0  0  0  0  0  0  0  0  0  0
    8.5385  -17.7047   26.8188 O   0  0  0  0  0  0  0  0  0  0  0  0
  1  2  1  0
  3  5  1  0
  3  2  1  0
  3  4  1  1
  5  6  1  6
  7  5  1  0
  7  8  2  0
  9 10  1  0
 10 11  2  0
 12 10  1  0
 12 13  1  0
 14 13  1  1
 14 15  1  0
 15  7  1  0
 16 14  1  0
 17 16  2  0
 19 18  1  0
 19 20  1  0
 21 20  1  0
 22 21  1  1
 22 23  1  0
 23 16  1  0
 24 25  1  0
 24 22  1  0
 26 24  2  0
M  END
$$$$
