IQM.pdb
     RDKit          3D

 26 25  0  0  1  0  0  0  0  0999 V2000
    6.0047  -11.9171   27.0315 C   0  0  0  0  0  0  0  0  0  0  0  0
    5.6621  -13.1630   26.2568 C   0  0  0  0  0  0  0  0  0  0  0  0
    6.8926  -13.9118   25.7833 C   0  0  2  0  0  0  0  0  0  0  0  0
    7.7351  -12.9313   25.0135 C   0  0  0  0  0  0  0  0  0  0  0  0
    6.4034  -15.0760   24.9487 C   0  0  2  0  0  0  0  0  0  0  0  0
    5.5913  -15.8912   25.8693 N   0  0  0  0  0  0  0  0  0  0  0  0
    7.5029  -15.9556   24.4776 C   0  0  0  0  0  0  0  0  0  0  0  0
    7.7406  -17.0784   25.0422 O   0  0  0  0  0  0  0  0  0  0  0  0
    9.9899  -16.9234   18.8266 N   0  0  0  0  0  0  0  0  0  0  0  0
    8.7155  -16.4943   19.2587 C   0  0  0  0  0  0  0  0  0  0  0  0
    7.8070  -16.4764   18.3617 O   0  0  0  0  0  0  0  0  0  0  0  0
    8.4382  -16.0864   20.6681 C   0  0  0  0  0  0  0  0  0  0  0  0
    9.7066  -16.3349   21.4617 C   0  0  0  0  0  0  0  0  0  0  0  0
    9.4041  -16.5588   22.9272 C   0  0  2  0  0  0  0  0  0  0  0  0
    8.3699  -15.6612   23.3995 N   0  0  0  0  0  0  0  0  0  0  0  0
   10.6147  -16.5206   23.7678 C   0  0  0  0  0  0  0  0  0  0  0  0
   11.7120  -16.8427   23.2084 O   0  0  0  0  0  0  0  0  0  0  0  0
   10.4346  -14.8180   30.0566 C   0  0  0  0  0  0  0  0  0  0  0  0
   10.5082  -13.5336   28.7791 S   0  0  0  0  0  0  0  0  0  0  0  0
   10.6290  -14.3032   27.1259 C   0  0  0  0  0  0  0  0  0  0  0  0
   11.6428  -15.4028   27.2147 C   0  0  0  0  0  0  0  0  0  0  0  0
   11.7926  -16.1610   25.9128 C   0  0  2  0  0  0  0  0  0  0  0  0
   10.5819  -16.1475   25.1309 N   0  0  0  0  0  0  0  0  0  0  0  0
   12.2465  -17.5550   26.1616 C   0  0  0  0  0  0  0  0  0  0  0  0
   11.4228  -18.6213   25.8303 O   0  0  0  0  0  0  0  0  0  0  0  0
   13.3664  -17.8136   26.6692 O   0  0  0  0  0  0  0  0  0  0  0  0
  1  2  1  0
  3  5  1  0
  3  2  1  0
  3  4  1  6
  5  6  1  1
  7  5  1  0
  7  8  2  0
  9 10  1  0
 10 11  2  0
 12 10  1  0
 12 13  1  0
 14 13  1  6
 14 15  1  0
 15  7  1  0
 16 14  1  0
 17 16  2  0
 19 18  1  0
 19 20  1  0
 21 20  1  0
 22 21  1  1
 22 23  1  0
 23 16  1  0
 24 25  1  0
 24 22  1  0
 26 24  2  0
M  END
$$$$
