FPA.pdb
     RDKit          3D

 24 25  0  0  1  0  0  0  0  0999 V2000
   24.3018  -20.5673  -10.2702 N   0  0  0  0  0  0  0  0  0  0  0  0
   25.6078  -20.4152  -10.8072 C   0  0  1  0  0  0  0  0  0  0  0  0
   26.6453  -21.2743  -10.1205 C   0  0  0  0  0  0  0  0  0  0  0  0
   27.1095  -20.6798   -8.8508 C   0  0  0  0  0  0  0  0  0  0  0  0
   28.3979  -20.9099   -8.4264 C   0  0  0  0  0  0  0  0  0  0  0  0
   28.8646  -20.3601   -7.2253 C   0  0  0  0  0  0  0  0  0  0  0  0
   28.0504  -19.5841   -6.4506 C   0  0  0  0  0  0  0  0  0  0  0  0
   26.7532  -19.3479   -6.8705 C   0  0  0  0  0  0  0  0  0  0  0  0
   26.3042  -19.8941   -8.0544 C   0  0  0  0  0  0  0  0  0  0  0  0
   25.5927  -20.6200  -12.2670 C   0  0  0  0  0  0  0  0  0  0  0  0
   24.4969  -21.0423  -12.8039 O   0  0  0  0  0  0  0  0  0  0  0  0
   26.6708  -20.3996  -13.1583 N   0  0  0  0  0  0  0  0  0  0  0  0
   28.0623  -20.1226  -12.9335 C   0  0  0  0  0  0  0  0  0  0  0  0
   28.5002  -19.3310  -14.1610 C   0  0  0  0  0  0  0  0  0  0  0  0
   27.2408  -19.1759  -14.9995 C   0  0  0  0  0  0  0  0  0  0  0  0
   26.5153  -20.4440  -14.6004 C   0  0  1  0  0  0  0  0  0  0  0  0
   27.2236  -21.6210  -15.1794 C   0  0  0  0  0  0  0  0  0  0  0  0
   28.3291  -22.0349  -14.7836 O   0  0  0  0  0  0  0  0  0  0  0  0
   25.6546  -24.3730  -17.1148 C   0  0  0  0  0  0  0  0  0  0  0  0
   26.8748  -23.6947  -16.5169 C   0  0  2  0  0  0  0  0  0  0  0  0
   26.5863  -22.3034  -16.2485 N   0  0  0  0  0  0  0  0  0  0  0  0
   27.9975  -23.7699  -17.4792 C   0  0  0  0  0  0  0  0  0  0  0  0
   28.3727  -22.7493  -18.1098 O   0  0  0  0  0  0  0  0  0  0  0  0
   28.6834  -24.9503  -17.7318 O   0  0  0  0  0  0  0  0  0  0  0  0
  2  1  1  1
  2 10  1  0
  3  2  1  0
  4  3  1  0
  5  4  2  0
  6  5  1  0
  7  6  2  0
  7  8  1  0
  8  9  2  0
  9  4  1  0
 10 12  1  0
 11 10  2  0
 12 13  1  0
 12 16  1  0
 13 14  1  0
 15 14  1  0
 16 15  1  0
 17 21  1  0
 16 17  1  6
 18 17  2  0
 20 19  1  6
 20 22  1  0
 20 21  1  0
 22 24  1  0
 23 22  2  0
M  END
$$$$
