FPA.pdb
     RDKit          3D

 24 25  0  0  1  0  0  0  0  0999 V2000
   25.0441  -20.1313   -7.4908 N   0  0  0  0  0  0  0  0  0  0  0  0
   26.1840  -19.9593   -8.3205 C   0  0  1  0  0  0  0  0  0  0  0  0
   27.3958  -20.7293   -7.8464 C   0  0  0  0  0  0  0  0  0  0  0  0
   27.8521  -20.2851   -6.5139 C   0  0  0  0  0  0  0  0  0  0  0  0
   27.9072  -21.1912   -5.4800 C   0  0  0  0  0  0  0  0  0  0  0  0
   28.3345  -20.7974   -4.2052 C   0  0  0  0  0  0  0  0  0  0  0  0
   28.7053  -19.5056   -3.9621 C   0  0  0  0  0  0  0  0  0  0  0  0
   28.6528  -18.5881   -4.9967 C   0  0  0  0  0  0  0  0  0  0  0  0
   28.2307  -18.9867   -6.2474 C   0  0  0  0  0  0  0  0  0  0  0  0
   25.8496  -20.2568   -9.7251 C   0  0  0  0  0  0  0  0  0  0  0  0
   24.6004  -20.3146  -10.0468 O   0  0  0  0  0  0  0  0  0  0  0  0
   26.7685  -20.4906  -10.7770 N   0  0  0  0  0  0  0  0  0  0  0  0
   28.0506  -21.1378  -10.8069 C   0  0  0  0  0  0  0  0  0  0  0  0
   28.7898  -20.4738  -11.9636 C   0  0  0  0  0  0  0  0  0  0  0  0
   27.8310  -19.4161  -12.4883 C   0  0  0  0  0  0  0  0  0  0  0  0
   26.5132  -20.0787  -12.1448 C   0  0  1  0  0  0  0  0  0  0  0  0
   26.3090  -21.2602  -13.0306 C   0  0  0  0  0  0  0  0  0  0  0  0
   27.0126  -22.2868  -12.9987 O   0  0  0  0  0  0  0  0  0  0  0  0
   23.1031  -22.2089  -14.5159 C   0  0  0  0  0  0  0  0  0  0  0  0
   24.6077  -22.4035  -14.4480 C   0  0  2  0  0  0  0  0  0  0  0  0
   25.2418  -21.1972  -13.9644 N   0  0  0  0  0  0  0  0  0  0  0  0
   25.1245  -22.7013  -15.8031 C   0  0  0  0  0  0  0  0  0  0  0  0
   24.7818  -23.7501  -16.4053 O   0  0  0  0  0  0  0  0  0  0  0  0
   25.9993  -21.8533  -16.4690 O   0  0  0  0  0  0  0  0  0  0  0  0
  2  1  1  1
  2 10  1  0
  3  2  1  0
  4  3  1  0
  5  4  2  0
  6  5  1  0
  7  6  2  0
  7  8  1  0
  8  9  2  0
  9  4  1  0
 10 12  1  0
 11 10  2  0
 12 13  1  0
 12 16  1  0
 13 14  1  0
 15 14  1  0
 16 15  1  0
 17 21  1  0
 16 17  1  6
 18 17  2  0
 20 19  1  6
 20 22  1  0
 20 21  1  0
 22 24  1  0
 23 22  2  0
M  END
$$$$
