FPA.pdb
     RDKit          3D

 24 25  0  0  1  0  0  0  0  0999 V2000
   26.1530  -21.3303  -17.6512 N   0  0  0  0  0  0  0  0  0  0  0  0
   26.3136  -20.3421  -16.6437 C   0  0  1  0  0  0  0  0  0  0  0  0
   25.1816  -19.3409  -16.5963 C   0  0  0  0  0  0  0  0  0  0  0  0
   25.2498  -18.3694  -17.7065 C   0  0  0  0  0  0  0  0  0  0  0  0
   26.2863  -17.4658  -17.7532 C   0  0  0  0  0  0  0  0  0  0  0  0
   26.3753  -16.5318  -18.7936 C   0  0  0  0  0  0  0  0  0  0  0  0
   25.4349  -16.4989  -19.7835 C   0  0  0  0  0  0  0  0  0  0  0  0
   24.3892  -17.4044  -19.7439 C   0  0  0  0  0  0  0  0  0  0  0  0
   24.3115  -18.3193  -18.7152 C   0  0  0  0  0  0  0  0  0  0  0  0
   26.5530  -20.9747  -15.3338 C   0  0  0  0  0  0  0  0  0  0  0  0
   26.0689  -22.1557  -15.1387 O   0  0  0  0  0  0  0  0  0  0  0  0
   27.2692  -20.4149  -14.2480 N   0  0  0  0  0  0  0  0  0  0  0  0
   27.9003  -19.1367  -14.0699 C   0  0  0  0  0  0  0  0  0  0  0  0
   29.0245  -19.3983  -13.0736 C   0  0  0  0  0  0  0  0  0  0  0  0
   28.9632  -20.8920  -12.7937 C   0  0  0  0  0  0  0  0  0  0  0  0
   27.4813  -21.1260  -13.0010 C   0  0  1  0  0  0  0  0  0  0  0  0
   26.7208  -20.4916  -11.8867 C   0  0  0  0  0  0  0  0  0  0  0  0
   26.2043  -19.3605  -11.9490 O   0  0  0  0  0  0  0  0  0  0  0  0
   25.4501  -22.1298   -8.7324 C   0  0  0  0  0  0  0  0  0  0  0  0
   25.2985  -21.3693  -10.0381 C   0  0  2  0  0  0  0  0  0  0  0  0
   26.5847  -21.2350  -10.6852 N   0  0  0  0  0  0  0  0  0  0  0  0
   24.7642  -20.0172   -9.7580 C   0  0  0  0  0  0  0  0  0  0  0  0
   23.5443  -19.8478   -9.5066 O   0  0  0  0  0  0  0  0  0  0  0  0
   25.5675  -18.8848   -9.7580 O   0  0  0  0  0  0  0  0  0  0  0  0
  2  1  1  6
  2 10  1  0
  3  2  1  0
  4  3  1  0
  5  4  2  0
  6  5  1  0
  7  6  2  0
  7  8  1  0
  8  9  2  0
  9  4  1  0
 10 12  1  0
 11 10  2  0
 12 13  1  0
 12 16  1  0
 13 14  1  0
 15 14  1  0
 16 15  1  0
 17 21  1  0
 16 17  1  1
 18 17  2  0
 20 19  1  1
 20 22  1  0
 20 21  1  0
 22 24  1  0
 23 22  2  0
M  END
$$$$
