FPA.pdb
     RDKit          3D

 24 25  0  0  1  0  0  0  0  0999 V2000
   26.8312  -21.7618  -12.2554 N   0  0  0  0  0  0  0  0  0  0  0  0
   25.7105  -20.8958  -12.3615 C   0  0  1  0  0  0  0  0  0  0  0  0
   25.5918  -19.9208  -11.2120 C   0  0  0  0  0  0  0  0  0  0  0  0
   25.2695  -20.5965   -9.9390 C   0  0  0  0  0  0  0  0  0  0  0  0
   26.2416  -20.7211   -8.9733 C   0  0  0  0  0  0  0  0  0  0  0  0
   25.9646  -21.3588   -7.7570 C   0  0  0  0  0  0  0  0  0  0  0  0
   24.7235  -21.8701   -7.5045 C   0  0  0  0  0  0  0  0  0  0  0  0
   23.7402  -21.7488   -8.4706 C   0  0  0  0  0  0  0  0  0  0  0  0
   24.0239  -21.1192   -9.6641 C   0  0  0  0  0  0  0  0  0  0  0  0
   25.7045  -20.2174  -13.6703 C   0  0  0  0  0  0  0  0  0  0  0  0
   26.8446  -19.9461  -14.2124 O   0  0  0  0  0  0  0  0  0  0  0  0
   24.5617  -19.8244  -14.4085 N   0  0  0  0  0  0  0  0  0  0  0  0
   23.1559  -19.9334  -14.1339 C   0  0  0  0  0  0  0  0  0  0  0  0
   22.4991  -19.9963  -15.5086 C   0  0  0  0  0  0  0  0  0  0  0  0
   23.6535  -19.9653  -16.4984 C   0  0  0  0  0  0  0  0  0  0  0  0
   24.6522  -19.1587  -15.6948 C   0  0  1  0  0  0  0  0  0  0  0  0
   24.1844  -17.7463  -15.6009 C   0  0  0  0  0  0  0  0  0  0  0  0
   23.1506  -17.3913  -15.0049 O   0  0  0  0  0  0  0  0  0  0  0  0
   26.2242  -14.6956  -15.9067 C   0  0  0  0  0  0  0  0  0  0  0  0
   24.8602  -15.3620  -15.8629 C   0  0  2  0  0  0  0  0  0  0  0  0
   24.9770  -16.7544  -16.2353 N   0  0  0  0  0  0  0  0  0  0  0  0
   23.9552  -14.6882  -16.8216 C   0  0  0  0  0  0  0  0  0  0  0  0
   23.5029  -13.5404  -16.5803 O   0  0  0  0  0  0  0  0  0  0  0  0
   23.5647  -15.2774  -18.0166 O   0  0  0  0  0  0  0  0  0  0  0  0
  2  1  1  1
  2 10  1  0
  3  2  1  0
  4  3  1  0
  5  4  2  0
  6  5  1  0
  7  6  2  0
  7  8  1  0
  8  9  2  0
  9  4  1  0
 10 12  1  0
 11 10  2  0
 12 13  1  0
 12 16  1  0
 13 14  1  0
 15 14  1  0
 16 15  1  0
 17 21  1  0
 16 17  1  1
 18 17  2  0
 20 19  1  6
 20 22  1  0
 20 21  1  0
 22 24  1  0
 23 22  2  0
M  END
$$$$
