FPA.pdb
     RDKit          3D

 24 25  0  0  1  0  0  0  0  0999 V2000
   22.4099  -20.6480  -15.1460 N   0  0  0  0  0  0  0  0  0  0  0  0
   21.3959  -20.2748  -14.2243 C   0  0  1  0  0  0  0  0  0  0  0  0
   20.0327  -20.1183  -14.8593 C   0  0  0  0  0  0  0  0  0  0  0  0
   20.0022  -19.0249  -15.8516 C   0  0  0  0  0  0  0  0  0  0  0  0
   20.2903  -19.2978  -17.1691 C   0  0  0  0  0  0  0  0  0  0  0  0
   20.2707  -18.2799  -18.1315 C   0  0  0  0  0  0  0  0  0  0  0  0
   19.9651  -16.9954  -17.7821 C   0  0  0  0  0  0  0  0  0  0  0  0
   19.6741  -16.7128  -16.4591 C   0  0  0  0  0  0  0  0  0  0  0  0
   19.6964  -17.7223  -15.5201 C   0  0  0  0  0  0  0  0  0  0  0  0
   21.3734  -21.2018  -13.0783 C   0  0  0  0  0  0  0  0  0  0  0  0
   21.8978  -22.3707  -13.2397 O   0  0  0  0  0  0  0  0  0  0  0  0
   20.8280  -20.9425  -11.7974 N   0  0  0  0  0  0  0  0  0  0  0  0
   20.0944  -19.8238  -11.2738 C   0  0  0  0  0  0  0  0  0  0  0  0
   20.4080  -19.8227   -9.7816 C   0  0  0  0  0  0  0  0  0  0  0  0
   21.3835  -20.9726   -9.5832 C   0  0  0  0  0  0  0  0  0  0  0  0
   20.9248  -21.8870  -10.7000 C   0  0  1  0  0  0  0  0  0  0  0  0
   19.5874  -22.4504  -10.3588 C   0  0  0  0  0  0  0  0  0  0  0  0
   18.5154  -21.8302  -10.4857 O   0  0  0  0  0  0  0  0  0  0  0  0
   18.5515  -25.9839   -9.6517 C   0  0  0  0  0  0  0  0  0  0  0  0
   18.2951  -24.4897   -9.7410 C   0  0  2  0  0  0  0  0  0  0  0  0
   19.5485  -23.7783   -9.8589 N   0  0  0  0  0  0  0  0  0  0  0  0
   17.6058  -24.0369   -8.5115 C   0  0  0  0  0  0  0  0  0  0  0  0
   18.2384  -23.4437   -7.6015 O   0  0  0  0  0  0  0  0  0  0  0  0
   16.2484  -24.2397   -8.3016 O   0  0  0  0  0  0  0  0  0  0  0  0
  2  1  1  6
  2 10  1  0
  3  2  1  0
  4  3  1  0
  5  4  2  0
  6  5  1  0
  7  6  2  0
  7  8  1  0
  8  9  2  0
  9  4  1  0
 10 12  1  0
 11 10  2  0
 12 13  1  0
 12 16  1  0
 13 14  1  0
 15 14  1  0
 16 15  1  0
 17 21  1  0
 16 17  1  1
 18 17  2  0
 20 19  1  1
 20 22  1  0
 20 21  1  0
 22 24  1  0
 23 22  2  0
M  END
$$$$
