FPA.pdb
     RDKit          3D

 24 25  0  0  1  0  0  0  0  0999 V2000
   28.4740  -20.4557   -9.4736 N   0  0  0  0  0  0  0  0  0  0  0  0
   27.0736  -20.6758   -9.3845 C   0  0  1  0  0  0  0  0  0  0  0  0
   26.4120  -19.9003   -8.2678 C   0  0  0  0  0  0  0  0  0  0  0  0
   27.1440  -20.0269   -6.9914 C   0  0  0  0  0  0  0  0  0  0  0  0
   26.9222  -21.1225   -6.1892 C   0  0  0  0  0  0  0  0  0  0  0  0
   27.6012  -21.2678   -4.9724 C   0  0  0  0  0  0  0  0  0  0  0  0
   28.4977  -20.3248   -4.5571 C   0  0  0  0  0  0  0  0  0  0  0  0
   28.7265  -19.2199   -5.3582 C   0  0  0  0  0  0  0  0  0  0  0  0
   28.0526  -19.0871   -6.5539 C   0  0  0  0  0  0  0  0  0  0  0  0
   26.4292  -20.4343  -10.6882 C   0  0  0  0  0  0  0  0  0  0  0  0
   26.6820  -19.3184  -11.2867 O   0  0  0  0  0  0  0  0  0  0  0  0
   25.5468  -21.3109  -11.3652 N   0  0  0  0  0  0  0  0  0  0  0  0
   24.9988  -22.5893  -11.0060 C   0  0  0  0  0  0  0  0  0  0  0  0
   24.7386  -23.2843  -12.3380 C   0  0  0  0  0  0  0  0  0  0  0  0
   25.2329  -22.3083  -13.3946 C   0  0  0  0  0  0  0  0  0  0  0  0
   24.9848  -21.0033  -12.6673 C   0  0  1  0  0  0  0  0  0  0  0  0
   23.5167  -20.7619  -12.5734 C   0  0  0  0  0  0  0  0  0  0  0  0
   22.7889  -21.2247  -11.6756 O   0  0  0  0  0  0  0  0  0  0  0  0
   21.5156  -18.1233  -14.3346 C   0  0  0  0  0  0  0  0  0  0  0  0
   21.6877  -19.2459  -13.3264 C   0  0  2  0  0  0  0  0  0  0  0  0
   22.9246  -19.9517  -13.5773 N   0  0  0  0  0  0  0  0  0  0  0  0
   20.5621  -20.1987  -13.4578 C   0  0  0  0  0  0  0  0  0  0  0  0
   19.4196  -19.9077  -13.0217 O   0  0  0  0  0  0  0  0  0  0  0  0
   20.7057  -21.4420  -14.0589 O   0  0  0  0  0  0  0  0  0  0  0  0
  2  1  1  6
  2 10  1  0
  3  2  1  0
  4  3  1  0
  5  4  2  0
  6  5  1  0
  7  6  2  0
  7  8  1  0
  8  9  2  0
  9  4  1  0
 10 12  1  0
 11 10  2  0
 12 13  1  0
 12 16  1  0
 13 14  1  0
 15 14  1  0
 16 15  1  0
 17 21  1  0
 16 17  1  1
 18 17  2  0
 20 19  1  6
 20 22  1  0
 20 21  1  0
 22 24  1  0
 23 22  2  0
M  END
$$$$
