FPA.pdb
     RDKit          3D

 24 25  0  0  1  0  0  0  0  0999 V2000
   26.6821  -20.2399  -17.6324 N   0  0  0  0  0  0  0  0  0  0  0  0
   27.0963  -19.5507  -16.4615 C   0  0  1  0  0  0  0  0  0  0  0  0
   26.4042  -18.2202  -16.2692 C   0  0  0  0  0  0  0  0  0  0  0  0
   26.8634  -17.2075  -17.2411 C   0  0  0  0  0  0  0  0  0  0  0  0
   28.1057  -16.6363  -17.0881 C   0  0  0  0  0  0  0  0  0  0  0  0
   28.5664  -15.6718  -17.9938 C   0  0  0  0  0  0  0  0  0  0  0  0
   27.7918  -15.2785  -19.0477 C   0  0  0  0  0  0  0  0  0  0  0  0
   26.5411  -15.8482  -19.2086 C   0  0  0  0  0  0  0  0  0  0  0  0
   26.0977  -16.7965  -18.3111 C   0  0  0  0  0  0  0  0  0  0  0  0
   26.9692  -20.4208  -15.2783 C   0  0  0  0  0  0  0  0  0  0  0  0
   26.1704  -21.4322  -15.3583 O   0  0  0  0  0  0  0  0  0  0  0  0
   27.6412  -20.2623  -14.0419 N   0  0  0  0  0  0  0  0  0  0  0  0
   28.5532  -19.2599  -13.5654 C   0  0  0  0  0  0  0  0  0  0  0  0
   29.4113  -19.9809  -12.5316 C   0  0  0  0  0  0  0  0  0  0  0  0
   28.9192  -21.4199  -12.5456 C   0  0  0  0  0  0  0  0  0  0  0  0
   27.4746  -21.1878  -12.9367 C   0  0  1  0  0  0  0  0  0  0  0  0
   26.7536  -20.5430  -11.8023 C   0  0  0  0  0  0  0  0  0  0  0  0
   26.8778  -19.3451  -11.4867 O   0  0  0  0  0  0  0  0  0  0  0  0
   23.4975  -21.5191  -10.5630 C   0  0  0  0  0  0  0  0  0  0  0  0
   24.7902  -20.7722  -10.2847 C   0  0  2  0  0  0  0  0  0  0  0  0
   25.8736  -21.3575  -11.0429 N   0  0  0  0  0  0  0  0  0  0  0  0
   25.1120  -20.8708   -8.8429 C   0  0  0  0  0  0  0  0  0  0  0  0
   24.3527  -20.3636   -7.9790 O   0  0  0  0  0  0  0  0  0  0  0  0
   26.2490  -21.5170   -8.3766 O   0  0  0  0  0  0  0  0  0  0  0  0
  2  1  1  6
  2 10  1  0
  3  2  1  0
  4  3  1  0
  5  4  2  0
  6  5  1  0
  7  6  2  0
  7  8  1  0
  8  9  2  0
  9  4  1  0
 10 12  1  0
 11 10  2  0
 12 13  1  0
 12 16  1  0
 13 14  1  0
 15 14  1  0
 16 15  1  0
 17 21  1  0
 16 17  1  1
 18 17  2  0
 20 19  1  1
 20 22  1  0
 20 21  1  0
 22 24  1  0
 23 22  2  0
M  END
$$$$
