FPA.pdb
     RDKit          3D

 24 25  0  0  1  0  0  0  0  0999 V2000
   25.5105  -19.7283  -12.2306 N   0  0  0  0  0  0  0  0  0  0  0  0
   25.6272  -20.3393  -10.9538 C   0  0  1  0  0  0  0  0  0  0  0  0
   25.2760  -21.8099  -10.9554 C   0  0  0  0  0  0  0  0  0  0  0  0
   23.8750  -22.0479  -11.3572 C   0  0  0  0  0  0  0  0  0  0  0  0
   22.8543  -21.5205  -10.6002 C   0  0  0  0  0  0  0  0  0  0  0  0
   21.5160  -21.7317  -10.9567 C   0  0  0  0  0  0  0  0  0  0  0  0
   21.1966  -22.4657  -12.0634 C   0  0  0  0  0  0  0  0  0  0  0  0
   22.2173  -22.9996  -12.8301 C   0  0  0  0  0  0  0  0  0  0  0  0
   23.5311  -22.7854  -12.4699 C   0  0  0  0  0  0  0  0  0  0  0  0
   26.9614  -20.0858  -10.3803 C   0  0  0  0  0  0  0  0  0  0  0  0
   27.8893  -19.6701  -11.1763 O   0  0  0  0  0  0  0  0  0  0  0  0
   27.3403  -20.2532   -9.0261 N   0  0  0  0  0  0  0  0  0  0  0  0
   26.6396  -20.7864   -7.8910 C   0  0  0  0  0  0  0  0  0  0  0  0
   27.2560  -20.0768   -6.6904 C   0  0  0  0  0  0  0  0  0  0  0  0
   28.2743  -19.1142   -7.2818 C   0  0  0  0  0  0  0  0  0  0  0  0
   28.6530  -19.8844   -8.5297 C   0  0  1  0  0  0  0  0  0  0  0  0
   29.4388  -21.0915   -8.1453 C   0  0  0  0  0  0  0  0  0  0  0  0
   28.9417  -22.1196   -7.6494 O   0  0  0  0  0  0  0  0  0  0  0  0
   32.9057  -21.8449   -9.3689 C   0  0  0  0  0  0  0  0  0  0  0  0
   31.5582  -22.2347   -8.7872 C   0  0  2  0  0  0  0  0  0  0  0  0
   30.8407  -21.0526   -8.3639 N   0  0  0  0  0  0  0  0  0  0  0  0
   31.7671  -23.1100   -7.6115 C   0  0  0  0  0  0  0  0  0  0  0  0
   31.6128  -22.6671   -6.4453 O   0  0  0  0  0  0  0  0  0  0  0  0
   32.1380  -24.4425   -7.7323 O   0  0  0  0  0  0  0  0  0  0  0  0
  2  1  1  6
  2 10  1  0
  3  2  1  0
  4  3  1  0
  5  4  2  0
  6  5  1  0
  7  6  2  0
  7  8  1  0
  8  9  2  0
  9  4  1  0
 10 12  1  0
 11 10  2  0
 12 13  1  0
 12 16  1  0
 13 14  1  0
 15 14  1  0
 16 15  1  0
 17 21  1  0
 16 17  1  1
 18 17  2  0
 20 19  1  1
 20 22  1  0
 20 21  1  0
 22 24  1  0
 23 22  2  0
M  END
$$$$
