WRP.pdb
     RDKit          3D

 33 35  0  0  1  0  0  0  0  0999 V2000
    6.1685  -17.9336   25.3440 N   0  0  0  0  0  0  0  0  0  0  0  0
    6.8053  -16.8877   24.5689 C   0  0  1  0  0  0  0  0  0  0  0  0
    7.7123  -16.0996   25.4961 C   0  0  0  0  0  0  0  0  0  0  0  0
    6.9913  -14.9524   26.1069 C   0  0  0  0  0  0  0  0  0  0  0  0
    6.0036  -14.9633   27.0807 C   0  0  0  0  0  0  0  0  0  0  0  0
    5.6296  -13.6969   27.3383 N   0  0  0  0  0  0  0  0  0  0  0  0
    6.3397  -12.8665   26.5664 C   0  0  0  0  0  0  0  0  0  0  0  0
    6.3240  -11.4918   26.4619 C   0  0  0  0  0  0  0  0  0  0  0  0
    7.1738  -10.8857   25.5722 C   0  0  0  0  0  0  0  0  0  0  0  0
    8.0288  -11.6306   24.7952 C   0  0  0  0  0  0  0  0  0  0  0  0
    8.0312  -13.0046   24.9127 C   0  0  0  0  0  0  0  0  0  0  0  0
    7.1914  -13.6243   25.7939 C   0  0  0  0  0  0  0  0  0  0  0  0
    7.5799  -17.4237   23.4334 C   0  0  0  0  0  0  0  0  0  0  0  0
    8.1029  -18.5688   23.5221 O   0  0  0  0  0  0  0  0  0  0  0  0
    6.8341  -13.7608   15.6195 N   0  0  0  0  0  0  0  0  0  0  0  0
    7.8858  -13.8997   16.5383 C   0  0  0  0  0  0  0  0  0  0  0  0
    8.8423  -13.0589   16.5399 N   0  0  0  0  0  0  0  0  0  0  0  0
    7.8943  -14.9885   17.4837 N   0  0  0  0  0  0  0  0  0  0  0  0
    9.0934  -15.7284   17.7152 C   0  0  0  0  0  0  0  0  0  0  0  0
    8.9293  -16.8994   18.6498 C   0  0  0  0  0  0  0  0  0  0  0  0
    8.3092  -16.3971   19.9434 C   0  0  0  0  0  0  0  0  0  0  0  0
    8.6200  -17.2762   21.1228 C   0  0  2  0  0  0  0  0  0  0  0  0
    7.7766  -16.7231   22.2315 N   0  0  0  0  0  0  0  0  0  0  0  0
   10.0240  -17.2957   21.5258 C   0  0  0  0  0  0  0  0  0  0  0  0
   10.4894  -16.0796   21.7449 O   0  0  0  0  0  0  0  0  0  0  0  0
    9.7478  -13.2616   16.9823 N   0  0  0  0  0  0  0  0  0  0  0  0
   10.9495  -18.2917   21.7185 C   0  0  0  0  0  0  0  0  0  0  0  0
   10.4732  -19.6765   22.0662 C   0  0  0  0  0  0  0  0  0  0  0  0
   11.2278  -20.4601   21.0240 C   0  0  0  0  0  0  0  0  0  0  0  0
   12.5113  -19.7122   20.8051 C   0  0  2  0  0  0  0  0  0  0  0  0
   12.3342  -18.4373   21.7188 C   0  0  0  0  0  0  0  0  0  0  0  0
   13.2519  -17.4361   21.2271 O   0  0  0  0  0  0  0  0  0  0  0  0
   12.9435  -16.3353   20.5152 O   0  0  0  0  0  0  0  0  0  0  0  0
  2  1  1  1
  2 13  1  0
  2  3  1  0
  3  4  1  0
  4  5  2  0
  6  5  1  0
  7  6  1  0
  8  7  2  0
  9  8  1  0
 10  9  2  0
 10 11  1  0
 11 12  2  0
 12  7  1  0
 12  4  1  0
 13 14  2  0
 16 17  2  0
 16 15  1  0
 18 16  1  0
 19 18  1  0
 19 20  1  0
 20 21  1  0
 22 21  1  6
 22 24  1  0
 23 13  1  0
 23 22  1  0
 24 25  2  0
 26 24  1  0
 26 27  1  0
 27 28  1  0
 29 28  1  0
 30 26  1  0
 30 29  1  0
 30 31  1  6
 32 31  1  0
 33 31  2  0
M  END
$$$$
