WRP.pdb
     RDKit          3D

 33 35  0  0  1  0  0  0  0  0999 V2000
    6.5364  -18.0393   25.4878 N   0  0  0  0  0  0  0  0  0  0  0  0
    6.9332  -16.7716   24.9084 C   0  0  1  0  0  0  0  0  0  0  0  0
    8.0327  -16.1819   25.7726 C   0  0  0  0  0  0  0  0  0  0  0  0
    7.4918  -15.1646   26.7114 C   0  0  0  0  0  0  0  0  0  0  0  0
    6.9560  -15.3459   27.9779 C   0  0  0  0  0  0  0  0  0  0  0  0
    6.5879  -14.1499   28.4722 N   0  0  0  0  0  0  0  0  0  0  0  0
    6.8662  -13.2009   27.5714 C   0  0  0  0  0  0  0  0  0  0  0  0
    6.6790  -11.8355   27.6077 C   0  0  0  0  0  0  0  0  0  0  0  0
    7.0625  -11.0856   26.5252 C   0  0  0  0  0  0  0  0  0  0  0  0
    7.6244  -11.6795   25.4201 C   0  0  0  0  0  0  0  0  0  0  0  0
    7.8042  -13.0466   25.4009 C   0  0  0  0  0  0  0  0  0  0  0  0
    7.4279  -13.8082   26.4704 C   0  0  0  0  0  0  0  0  0  0  0  0
    7.4006  -16.9130   23.5162 C   0  0  0  0  0  0  0  0  0  0  0  0
    7.9800  -17.9757   23.1591 O   0  0  0  0  0  0  0  0  0  0  0  0
    8.8406  -15.2345   16.6155 N   0  0  0  0  0  0  0  0  0  0  0  0
    8.3535  -13.9465   16.3450 C   0  0  0  0  0  0  0  0  0  0  0  0
    7.8334  -13.6898   15.2111 N   0  0  0  0  0  0  0  0  0  0  0  0
    8.4363  -12.9072   17.3412 N   0  0  0  0  0  0  0  0  0  0  0  0
    7.9564  -13.1425   18.6652 C   0  0  0  0  0  0  0  0  0  0  0  0
    8.3839  -14.4622   19.2548 C   0  0  0  0  0  0  0  0  0  0  0  0
    7.6992  -14.6299   20.6013 C   0  0  0  0  0  0  0  0  0  0  0  0
    7.9443  -15.9781   21.2200 C   0  0  2  0  0  0  0  0  0  0  0  0
    7.2374  -15.9156   22.5401 N   0  0  0  0  0  0  0  0  0  0  0  0
    9.3504  -16.3186   21.4222 C   0  0  0  0  0  0  0  0  0  0  0  0
    9.9811  -15.4011   22.1322 O   0  0  0  0  0  0  0  0  0  0  0  0
    7.5096  -12.7474   14.9588 N   0  0  0  0  0  0  0  0  0  0  0  0
   10.1447  -17.3698   21.0350 C   0  0  0  0  0  0  0  0  0  0  0  0
    9.5179  -18.7214   20.8219 C   0  0  0  0  0  0  0  0  0  0  0  0
   10.0571  -19.0237   19.4480 C   0  0  0  0  0  0  0  0  0  0  0  0
   11.4048  -18.3643   19.3874 C   0  0  2  0  0  0  0  0  0  0  0  0
   11.4902  -17.6137   20.7734 C   0  0  0  0  0  0  0  0  0  0  0  0
   12.4864  -16.5775   20.6304 O   0  0  0  0  0  0  0  0  0  0  0  0
   13.6729  -16.5026   21.2630 O   0  0  0  0  0  0  0  0  0  0  0  0
  2  1  1  1
  2 13  1  0
  2  3  1  0
  3  4  1  0
  4  5  2  0
  6  5  1  0
  7  6  1  0
  8  7  2  0
  9  8  1  0
 10  9  2  0
 10 11  1  0
 11 12  2  0
 12  7  1  0
 12  4  1  0
 13 14  2  0
 16 17  2  0
 16 15  1  0
 18 16  1  0
 19 18  1  0
 19 20  1  0
 20 21  1  0
 22 21  1  1
 22 24  1  0
 23 13  1  0
 23 22  1  0
 24 25  2  0
 26 24  1  0
 26 27  1  0
 27 28  1  0
 29 28  1  0
 30 26  1  0
 30 29  1  0
 30 31  1  6
 32 31  1  0
 33 31  2  0
M  END
$$$$
