WRP.pdb
     RDKit          3D

 33 35  0  0  1  0  0  0  0  0999 V2000
    6.4413  -17.9778   25.6197 N   0  0  0  0  0  0  0  0  0  0  0  0
    7.2107  -17.0108   24.8626 C   0  0  1  0  0  0  0  0  0  0  0  0
    7.8786  -16.0665   25.8451 C   0  0  0  0  0  0  0  0  0  0  0  0
    6.9802  -14.9377   26.2020 C   0  0  0  0  0  0  0  0  0  0  0  0
    5.7033  -14.9782   26.7424 C   0  0  0  0  0  0  0  0  0  0  0  0
    5.2572  -13.7193   26.9048 N   0  0  0  0  0  0  0  0  0  0  0  0
    6.1991  -12.8654   26.4890 C   0  0  0  0  0  0  0  0  0  0  0  0
    6.2192  -11.4873   26.4521 C   0  0  0  0  0  0  0  0  0  0  0  0
    7.3351  -10.8540   25.9676 C   0  0  0  0  0  0  0  0  0  0  0  0
    8.4183  -11.5754   25.5249 C   0  0  0  0  0  0  0  0  0  0  0  0
    8.3811  -12.9533   25.5691 C   0  0  0  0  0  0  0  0  0  0  0  0
    7.2776  -13.5998   26.0486 C   0  0  0  0  0  0  0  0  0  0  0  0
    8.2240  -17.6505   24.0019 C   0  0  0  0  0  0  0  0  0  0  0  0
    8.8621  -18.6514   24.4303 O   0  0  0  0  0  0  0  0  0  0  0  0
    8.6951  -13.8439   16.6928 N   0  0  0  0  0  0  0  0  0  0  0  0
    8.1973  -13.3665   17.9150 C   0  0  0  0  0  0  0  0  0  0  0  0
    7.9868  -12.1202   18.0711 N   0  0  0  0  0  0  0  0  0  0  0  0
    7.9210  -14.2759   18.9995 N   0  0  0  0  0  0  0  0  0  0  0  0
    8.7217  -15.4447   19.1774 C   0  0  0  0  0  0  0  0  0  0  0  0
    8.3499  -16.2744   20.3795 C   0  0  0  0  0  0  0  0  0  0  0  0
    9.3279  -17.4332   20.4832 C   0  0  0  0  0  0  0  0  0  0  0  0
    9.6443  -17.8084   21.9043 C   0  0  2  0  0  0  0  0  0  0  0  0
    8.5305  -17.2047   22.7051 N   0  0  0  0  0  0  0  0  0  0  0  0
   10.9321  -17.3271   22.3982 C   0  0  0  0  0  0  0  0  0  0  0  0
   11.0525  -16.0191   22.2633 O   0  0  0  0  0  0  0  0  0  0  0  0
    7.6940  -11.7239   18.9733 N   0  0  0  0  0  0  0  0  0  0  0  0
   12.0280  -17.9346   22.9601 C   0  0  0  0  0  0  0  0  0  0  0  0
   11.8219  -19.0898   23.9026 C   0  0  0  0  0  0  0  0  0  0  0  0
   12.7592  -20.0863   23.2717 C   0  0  0  0  0  0  0  0  0  0  0  0
   13.8768  -19.2747   22.6825 C   0  0  2  0  0  0  0  0  0  0  0  0
   13.4128  -17.7906   22.9537 C   0  0  0  0  0  0  0  0  0  0  0  0
   14.1332  -16.9482   22.0274 O   0  0  0  0  0  0  0  0  0  0  0  0
   15.1861  -16.1558   22.3048 O   0  0  0  0  0  0  0  0  0  0  0  0
  2  1  1  1
  2 13  1  0
  2  3  1  0
  3  4  1  0
  4  5  2  0
  6  5  1  0
  7  6  1  0
  8  7  2  0
  9  8  1  0
 10  9  2  0
 10 11  1  0
 11 12  2  0
 12  7  1  0
 12  4  1  0
 13 14  2  0
 16 17  2  0
 16 15  1  0
 18 16  1  0
 19 18  1  0
 19 20  1  0
 20 21  1  0
 22 21  1  6
 22 24  1  0
 23 13  1  0
 23 22  1  0
 24 25  2  0
 26 24  1  0
 26 27  1  0
 27 28  1  0
 29 28  1  0
 30 26  1  0
 30 29  1  0
 30 31  1  6
 32 31  1  0
 33 31  2  0
M  END
$$$$
