WRP.pdb
     RDKit          3D

 33 35  0  0  1  0  0  0  0  0999 V2000
    5.9471  -18.6210   25.2680 N   0  0  0  0  0  0  0  0  0  0  0  0
    6.3477  -17.2860   24.8712 C   0  0  1  0  0  0  0  0  0  0  0  0
    7.0983  -16.6552   26.0296 C   0  0  0  0  0  0  0  0  0  0  0  0
    6.5810  -15.2945   26.3286 C   0  0  0  0  0  0  0  0  0  0  0  0
    5.2660  -14.8683   26.4429 C   0  0  0  0  0  0  0  0  0  0  0  0
    5.2556  -13.5522   26.7225 N   0  0  0  0  0  0  0  0  0  0  0  0
    6.5165  -13.1111   26.7933 C   0  0  0  0  0  0  0  0  0  0  0  0
    7.0231  -11.8550   27.0510 C   0  0  0  0  0  0  0  0  0  0  0  0
    8.3832  -11.6793   27.0637 C   0  0  0  0  0  0  0  0  0  0  0  0
    9.2321  -12.7337   26.8245 C   0  0  0  0  0  0  0  0  0  0  0  0
    8.7082  -13.9834   26.5685 C   0  0  0  0  0  0  0  0  0  0  0  0
    7.3560  -14.1758   26.5521 C   0  0  0  0  0  0  0  0  0  0  0  0
    7.1906  -17.2902   23.6603 C   0  0  0  0  0  0  0  0  0  0  0  0
    7.9119  -18.2944   23.4074 O   0  0  0  0  0  0  0  0  0  0  0  0
    8.4734  -12.5842   17.5343 N   0  0  0  0  0  0  0  0  0  0  0  0
    7.9978  -13.7112   16.8464 C   0  0  0  0  0  0  0  0  0  0  0  0
    7.9240  -13.6943   15.5751 N   0  0  0  0  0  0  0  0  0  0  0  0
    7.5904  -14.8920   17.5669 N   0  0  0  0  0  0  0  0  0  0  0  0
    8.4806  -15.5068   18.4988 C   0  0  0  0  0  0  0  0  0  0  0  0
    8.7960  -14.6613   19.7060 C   0  0  0  0  0  0  0  0  0  0  0  0
    7.7915  -14.9910   20.7979 C   0  0  0  0  0  0  0  0  0  0  0  0
    8.1248  -16.2558   21.5390 C   0  0  2  0  0  0  0  0  0  0  0  0
    7.2420  -16.2213   22.7497 N   0  0  0  0  0  0  0  0  0  0  0  0
    9.5226  -16.3845   21.9439 C   0  0  0  0  0  0  0  0  0  0  0  0
    9.9033  -15.3862   22.7198 O   0  0  0  0  0  0  0  0  0  0  0  0
    7.6020  -14.5076   15.0351 N   0  0  0  0  0  0  0  0  0  0  0  0
   10.5103  -17.3044   21.6913 C   0  0  0  0  0  0  0  0  0  0  0  0
   10.1234  -18.7115   21.3227 C   0  0  0  0  0  0  0  0  0  0  0  0
   10.9502  -18.8698   20.0733 C   0  0  0  0  0  0  0  0  0  0  0  0
   12.1835  -18.0425   20.2959 C   0  0  2  0  0  0  0  0  0  0  0  0
   11.9014  -17.3617   21.6918 C   0  0  0  0  0  0  0  0  0  0  0  0
   12.7577  -16.2014   21.7750 O   0  0  0  0  0  0  0  0  0  0  0  0
   14.0164  -16.1570   22.2518 O   0  0  0  0  0  0  0  0  0  0  0  0
  2  1  1  1
  2 13  1  0
  2  3  1  0
  3  4  1  0
  4  5  2  0
  6  5  1  0
  7  6  1  0
  8  7  2  0
  9  8  1  0
 10  9  2  0
 10 11  1  0
 11 12  2  0
 12  7  1  0
 12  4  1  0
 13 14  2  0
 16 17  2  0
 16 15  1  0
 18 16  1  0
 19 18  1  0
 19 20  1  0
 20 21  1  0
 22 21  1  1
 22 24  1  0
 23 13  1  0
 23 22  1  0
 24 25  2  0
 26 24  1  0
 26 27  1  0
 27 28  1  0
 29 28  1  0
 30 26  1  0
 30 29  1  0
 30 31  1  6
 32 31  1  0
 33 31  2  0
M  END
$$$$
