WRP.pdb
     RDKit          3D

 33 35  0  0  1  0  0  0  0  0999 V2000
    8.4965  -15.9102   22.0556 N   0  0  0  0  0  0  0  0  0  0  0  0
    8.6343  -15.8094   23.4947 C   0  0  1  0  0  0  0  0  0  0  0  0
    7.2980  -15.3730   24.0668 C   0  0  0  0  0  0  0  0  0  0  0  0
    7.0120  -13.9513   23.7416 C   0  0  0  0  0  0  0  0  0  0  0  0
    6.7525  -13.3755   22.5066 C   0  0  0  0  0  0  0  0  0  0  0  0
    6.5490  -12.0561   22.6735 N   0  0  0  0  0  0  0  0  0  0  0  0
    6.6674  -11.7569   23.9719 C   0  0  0  0  0  0  0  0  0  0  0  0
    6.5493  -10.5560   24.6387 C   0  0  0  0  0  0  0  0  0  0  0  0
    6.7229  -10.5340   25.9990 C   0  0  0  0  0  0  0  0  0  0  0  0
    7.0101  -11.6863   26.6914 C   0  0  0  0  0  0  0  0  0  0  0  0
    7.1247  -12.8788   26.0084 C   0  0  0  0  0  0  0  0  0  0  0  0
    6.9547  -12.9184   24.6537 C   0  0  0  0  0  0  0  0  0  0  0  0
    9.0593  -17.0822   24.1078 C   0  0  0  0  0  0  0  0  0  0  0  0
    8.3242  -17.6321   24.9738 O   0  0  0  0  0  0  0  0  0  0  0  0
   14.7482  -21.1335   22.0093 N   0  0  0  0  0  0  0  0  0  0  0  0
   13.8250  -22.1872   21.9266 C   0  0  0  0  0  0  0  0  0  0  0  0
   14.2022  -23.3812   22.1590 N   0  0  0  0  0  0  0  0  0  0  0  0
   12.4490  -21.9308   21.5798 N   0  0  0  0  0  0  0  0  0  0  0  0
   12.0187  -20.6012   21.2867 C   0  0  0  0  0  0  0  0  0  0  0  0
   10.9633  -20.0701   22.2226 C   0  0  0  0  0  0  0  0  0  0  0  0
   11.6392  -19.6467   23.5164 C   0  0  0  0  0  0  0  0  0  0  0  0
   10.6952  -18.9864   24.4825 C   0  0  2  0  0  0  0  0  0  0  0  0
   10.2594  -17.7359   23.7807 N   0  0  0  0  0  0  0  0  0  0  0  0
   11.2738  -18.6539   25.7820 C   0  0  0  0  0  0  0  0  0  0  0  0
   12.4169  -18.0044   25.6593 O   0  0  0  0  0  0  0  0  0  0  0  0
   13.5877  -24.1897   21.9997 N   0  0  0  0  0  0  0  0  0  0  0  0
   10.8914  -18.8720   27.0827 C   0  0  0  0  0  0  0  0  0  0  0  0
    9.4379  -18.7412   27.4504 C   0  0  0  0  0  0  0  0  0  0  0  0
    9.2477  -20.0586   28.1560 C   0  0  0  0  0  0  0  0  0  0  0  0
   10.5683  -20.3674   28.8006 C   0  0  2  0  0  0  0  0  0  0  0  0
   11.4867  -19.1843   28.3020 C   0  0  0  0  0  0  0  0  0  0  0  0
   12.8550  -19.6249   28.4438 O   0  0  0  0  0  0  0  0  0  0  0  0
   13.5429  -19.7726   29.5921 O   0  0  0  0  0  0  0  0  0  0  0  0
  2  1  1  6
  2 13  1  0
  2  3  1  0
  3  4  1  0
  4  5  2  0
  6  5  1  0
  7  6  1  0
  8  7  2  0
  9  8  1  0
 10  9  2  0
 10 11  1  0
 11 12  2  0
 12  7  1  0
 12  4  1  0
 13 14  2  0
 16 17  2  0
 16 15  1  0
 18 16  1  0
 19 18  1  0
 19 20  1  0
 20 21  1  0
 22 21  1  6
 22 24  1  0
 23 13  1  0
 23 22  1  0
 24 25  2  0
 26 24  1  0
 26 27  1  0
 27 28  1  0
 29 28  1  0
 30 26  1  0
 30 29  1  0
 30 31  1  1
 32 31  1  0
 33 31  2  0
M  END
$$$$
