WRP.pdb
     RDKit          3D

 33 35  0  0  1  0  0  0  0  0999 V2000
    6.7781  -17.3757   26.2269 N   0  0  0  0  0  0  0  0  0  0  0  0
    7.3193  -16.3441   25.3648 C   0  0  1  0  0  0  0  0  0  0  0  0
    8.5951  -15.8211   25.9990 C   0  0  0  0  0  0  0  0  0  0  0  0
    8.3248  -14.6338   26.8511 C   0  0  0  0  0  0  0  0  0  0  0  0
    8.6918  -14.4060   28.1692 C   0  0  0  0  0  0  0  0  0  0  0  0
    8.2378  -13.1970   28.5467 N   0  0  0  0  0  0  0  0  0  0  0  0
    7.5902  -12.6340   27.5205 C   0  0  0  0  0  0  0  0  0  0  0  0
    6.9546  -11.4155   27.4100 C   0  0  0  0  0  0  0  0  0  0  0  0
    6.3606  -11.0842   26.2191 C   0  0  0  0  0  0  0  0  0  0  0  0
    6.3949  -11.9479   25.1502 C   0  0  0  0  0  0  0  0  0  0  0  0
    7.0350  -13.1626   25.2784 C   0  0  0  0  0  0  0  0  0  0  0  0
    7.6317  -13.5083   26.4574 C   0  0  0  0  0  0  0  0  0  0  0  0
    7.5938  -16.8390   24.0023 C   0  0  0  0  0  0  0  0  0  0  0  0
    7.7477  -18.0766   23.8089 O   0  0  0  0  0  0  0  0  0  0  0  0
    8.1010  -12.3134   16.4883 N   0  0  0  0  0  0  0  0  0  0  0  0
    8.1466  -13.6279   15.9987 C   0  0  0  0  0  0  0  0  0  0  0  0
    8.1584  -13.8371   14.7425 N   0  0  0  0  0  0  0  0  0  0  0  0
    8.1803  -14.7477   16.9067 N   0  0  0  0  0  0  0  0  0  0  0  0
    8.0184  -14.5387   18.3099 C   0  0  0  0  0  0  0  0  0  0  0  0
    7.9920  -15.8051   19.1268 C   0  0  0  0  0  0  0  0  0  0  0  0
    7.7285  -15.4345   20.5771 C   0  0  0  0  0  0  0  0  0  0  0  0
    8.1229  -16.5191   21.5406 C   0  0  2  0  0  0  0  0  0  0  0  0
    7.6973  -15.9995   22.8804 N   0  0  0  0  0  0  0  0  0  0  0  0
    9.5479  -16.8404   21.5595 C   0  0  0  0  0  0  0  0  0  0  0  0
   10.2877  -15.7784   21.8213 O   0  0  0  0  0  0  0  0  0  0  0  0
    8.2353  -14.7826   14.3463 N   0  0  0  0  0  0  0  0  0  0  0  0
   10.2712  -17.9910   21.3625 C   0  0  0  0  0  0  0  0  0  0  0  0
    9.5965  -19.3222   21.5571 C   0  0  0  0  0  0  0  0  0  0  0  0
    9.9695  -19.9751   20.2516 C   0  0  0  0  0  0  0  0  0  0  0  0
   11.3149  -19.4156   19.8885 C   0  0  2  0  0  0  0  0  0  0  0  0
   11.5729  -18.3555   21.0293 C   0  0  0  0  0  0  0  0  0  0  0  0
   12.5674  -17.4341   20.5308 O   0  0  0  0  0  0  0  0  0  0  0  0
   13.9027  -17.5258   20.6799 O   0  0  0  0  0  0  0  0  0  0  0  0
  2  1  1  1
  2 13  1  0
  2  3  1  0
  3  4  1  0
  4  5  2  0
  6  5  1  0
  7  6  1  0
  8  7  2  0
  9  8  1  0
 10  9  2  0
 10 11  1  0
 11 12  2  0
 12  7  1  0
 12  4  1  0
 13 14  2  0
 16 17  2  0
 16 15  1  0
 18 16  1  0
 19 18  1  0
 19 20  1  0
 20 21  1  0
 22 21  1  6
 22 24  1  0
 23 13  1  0
 23 22  1  0
 24 25  2  0
 26 24  1  0
 26 27  1  0
 27 28  1  0
 29 28  1  0
 30 26  1  0
 30 29  1  0
 30 31  1  6
 32 31  1  0
 33 31  2  0
M  END
$$$$
