WRP.pdb
     RDKit          3D

 33 35  0  0  1  0  0  0  0  0999 V2000
    6.6200  -18.5101   25.2892 N   0  0  0  0  0  0  0  0  0  0  0  0
    6.8102  -17.1635   24.7885 C   0  0  1  0  0  0  0  0  0  0  0  0
    7.5780  -16.3758   25.8341 C   0  0  0  0  0  0  0  0  0  0  0  0
    6.8196  -15.1726   26.2653 C   0  0  0  0  0  0  0  0  0  0  0  0
    5.4901  -15.0718   26.6479 C   0  0  0  0  0  0  0  0  0  0  0  0
    5.2206  -13.7909   26.9589 N   0  0  0  0  0  0  0  0  0  0  0  0
    6.3276  -13.0588   26.7916 C   0  0  0  0  0  0  0  0  0  0  0  0
    6.5594  -11.7125   26.9777 C   0  0  0  0  0  0  0  0  0  0  0  0
    7.8128  -11.2156   26.7268 C   0  0  0  0  0  0  0  0  0  0  0  0
    8.8249  -12.0406   26.2970 C   0  0  0  0  0  0  0  0  0  0  0  0
    8.5753  -13.3848   26.1162 C   0  0  0  0  0  0  0  0  0  0  0  0
    7.3328  -13.8961   26.3614 C   0  0  0  0  0  0  0  0  0  0  0  0
    7.5322  -17.1404   23.5020 C   0  0  0  0  0  0  0  0  0  0  0  0
    8.3074  -18.0912   23.2062 O   0  0  0  0  0  0  0  0  0  0  0  0
    8.2258  -13.0970   15.3509 N   0  0  0  0  0  0  0  0  0  0  0  0
    8.1007  -14.0675   16.3569 C   0  0  0  0  0  0  0  0  0  0  0  0
    8.5727  -15.2361   16.1735 N   0  0  0  0  0  0  0  0  0  0  0  0
    7.4409  -13.7539   17.6001 N   0  0  0  0  0  0  0  0  0  0  0  0
    8.2004  -13.3014   18.7214 C   0  0  0  0  0  0  0  0  0  0  0  0
    8.8367  -14.4056   19.5262 C   0  0  0  0  0  0  0  0  0  0  0  0
    7.9210  -14.7371   20.6930 C   0  0  0  0  0  0  0  0  0  0  0  0
    8.1969  -16.0893   21.2894 C   0  0  2  0  0  0  0  0  0  0  0  0
    7.4080  -16.1019   22.5637 N   0  0  0  0  0  0  0  0  0  0  0  0
    9.6037  -16.3652   21.5704 C   0  0  0  0  0  0  0  0  0  0  0  0
   10.1368  -15.4479   22.3565 O   0  0  0  0  0  0  0  0  0  0  0  0
    8.4598  -15.9865   16.8670 N   0  0  0  0  0  0  0  0  0  0  0  0
   10.4771  -17.3560   21.1949 C   0  0  0  0  0  0  0  0  0  0  0  0
    9.9305  -18.6963   20.7826 C   0  0  0  0  0  0  0  0  0  0  0  0
   10.6478  -18.8554   19.4674 C   0  0  0  0  0  0  0  0  0  0  0  0
   11.9682  -18.1611   19.6393 C   0  0  2  0  0  0  0  0  0  0  0  0
   11.8527  -17.5421   21.0868 C   0  0  0  0  0  0  0  0  0  0  0  0
   12.8213  -16.4735   21.1663 O   0  0  0  0  0  0  0  0  0  0  0  0
   14.0482  -16.5327   21.7183 O   0  0  0  0  0  0  0  0  0  0  0  0
  2  1  1  1
  2 13  1  0
  2  3  1  0
  3  4  1  0
  4  5  2  0
  6  5  1  0
  7  6  1  0
  8  7  2  0
  9  8  1  0
 10  9  2  0
 10 11  1  0
 11 12  2  0
 12  7  1  0
 12  4  1  0
 13 14  2  0
 16 17  2  0
 16 15  1  0
 18 16  1  0
 19 18  1  0
 19 20  1  0
 20 21  1  0
 22 21  1  1
 22 24  1  0
 23 13  1  0
 23 22  1  0
 24 25  2  0
 26 24  1  0
 26 27  1  0
 27 28  1  0
 29 28  1  0
 30 26  1  0
 30 29  1  0
 30 31  1  6
 32 31  1  0
 33 31  2  0
M  END
$$$$
