WRP.pdb
     RDKit          3D

 33 35  0  0  1  0  0  0  0  0999 V2000
    6.3311  -18.4626   24.8213 N   0  0  0  0  0  0  0  0  0  0  0  0
    6.7216  -17.1177   24.4484 C   0  0  1  0  0  0  0  0  0  0  0  0
    7.5526  -16.5378   25.5782 C   0  0  0  0  0  0  0  0  0  0  0  0
    6.8620  -15.3883   26.2189 C   0  0  0  0  0  0  0  0  0  0  0  0
    5.6947  -15.3811   26.9681 C   0  0  0  0  0  0  0  0  0  0  0  0
    5.4305  -14.1195   27.3538 N   0  0  0  0  0  0  0  0  0  0  0  0
    6.3847  -13.3098   26.8814 C   0  0  0  0  0  0  0  0  0  0  0  0
    6.5585  -11.9476   27.0040 C   0  0  0  0  0  0  0  0  0  0  0  0
    7.6462  -11.3625   26.4076 C   0  0  0  0  0  0  0  0  0  0  0  0
    8.5512  -12.1161   25.6985 C   0  0  0  0  0  0  0  0  0  0  0  0
    8.3618  -13.4775   25.5860 C   0  0  0  0  0  0  0  0  0  0  0  0
    7.2839  -14.0761   26.1738 C   0  0  0  0  0  0  0  0  0  0  0  0
    7.4848  -17.0850   23.1863 C   0  0  0  0  0  0  0  0  0  0  0  0
    8.2858  -18.0227   22.9188 O   0  0  0  0  0  0  0  0  0  0  0  0
    7.3176  -13.3218   15.2804 N   0  0  0  0  0  0  0  0  0  0  0  0
    8.1598  -14.1093   16.0804 C   0  0  0  0  0  0  0  0  0  0  0  0
    8.2887  -15.3522   15.8343 N   0  0  0  0  0  0  0  0  0  0  0  0
    8.8829  -13.5235   17.1818 N   0  0  0  0  0  0  0  0  0  0  0  0
    9.0383  -14.2461   18.4035 C   0  0  0  0  0  0  0  0  0  0  0  0
    7.7999  -14.2876   19.2617 C   0  0  0  0  0  0  0  0  0  0  0  0
    8.2265  -14.4522   20.7112 C   0  0  0  0  0  0  0  0  0  0  0  0
    8.3592  -15.8918   21.1237 C   0  0  2  0  0  0  0  0  0  0  0  0
    7.3734  -16.0510   22.2414 N   0  0  0  0  0  0  0  0  0  0  0  0
    9.6922  -16.2851   21.5739 C   0  0  0  0  0  0  0  0  0  0  0  0
   10.1792  -15.4404   22.4643 O   0  0  0  0  0  0  0  0  0  0  0  0
    8.8884  -15.9630   16.4036 N   0  0  0  0  0  0  0  0  0  0  0  0
   10.5349  -17.3262   21.2713 C   0  0  0  0  0  0  0  0  0  0  0  0
    9.9465  -18.6471   20.8540 C   0  0  0  0  0  0  0  0  0  0  0  0
   10.7308  -18.8716   19.5875 C   0  0  0  0  0  0  0  0  0  0  0  0
   12.0721  -18.2394   19.8240 C   0  0  2  0  0  0  0  0  0  0  0  0
   11.9033  -17.5823   21.2493 C   0  0  0  0  0  0  0  0  0  0  0  0
   12.9184  -16.5611   21.3650 O   0  0  0  0  0  0  0  0  0  0  0  0
   12.7240  -15.2299   21.4261 O   0  0  0  0  0  0  0  0  0  0  0  0
  2  1  1  1
  2 13  1  0
  2  3  1  0
  3  4  1  0
  4  5  2  0
  6  5  1  0
  7  6  1  0
  8  7  2  0
  9  8  1  0
 10  9  2  0
 10 11  1  0
 11 12  2  0
 12  7  1  0
 12  4  1  0
 13 14  2  0
 16 17  2  0
 16 15  1  0
 18 16  1  0
 19 18  1  0
 19 20  1  0
 20 21  1  0
 22 21  1  1
 22 24  1  0
 23 13  1  0
 23 22  1  0
 24 25  2  0
 26 24  1  0
 26 27  1  0
 27 28  1  0
 29 28  1  0
 30 26  1  0
 30 29  1  0
 30 31  1  6
 32 31  1  0
 33 31  2  0
M  END
$$$$
