WRP.pdb
     RDKit          3D

 33 35  0  0  1  0  0  0  0  0999 V2000
    6.3982  -17.4680   24.4966 N   0  0  0  0  0  0  0  0  0  0  0  0
    7.4535  -16.5734   24.0648 C   0  0  1  0  0  0  0  0  0  0  0  0
    7.9921  -15.8547   25.2882 C   0  0  0  0  0  0  0  0  0  0  0  0
    6.9995  -14.8873   25.8244 C   0  0  0  0  0  0  0  0  0  0  0  0
    5.7893  -15.1397   26.4535 C   0  0  0  0  0  0  0  0  0  0  0  0
    5.2111  -13.9682   26.7753 N   0  0  0  0  0  0  0  0  0  0  0  0
    6.0034  -12.9665   26.3772 C   0  0  0  0  0  0  0  0  0  0  0  0
    5.8543  -11.5996   26.4778 C   0  0  0  0  0  0  0  0  0  0  0  0
    6.8390  -10.7874   25.9760 C   0  0  0  0  0  0  0  0  0  0  0  0
    7.9578  -11.3212   25.3817 C   0  0  0  0  0  0  0  0  0  0  0  0
    8.0905  -12.6907   25.2896 C   0  0  0  0  0  0  0  0  0  0  0  0
    7.1193  -13.5140   25.7843 C   0  0  0  0  0  0  0  0  0  0  0  0
    8.5437  -17.2857   23.3716 C   0  0  0  0  0  0  0  0  0  0  0  0
    8.9361  -18.4018   23.8109 O   0  0  0  0  0  0  0  0  0  0  0  0
    8.2188  -13.8241   16.4920 N   0  0  0  0  0  0  0  0  0  0  0  0
    7.9028  -13.6148   17.8433 C   0  0  0  0  0  0  0  0  0  0  0  0
    7.6899  -12.4338   18.2697 N   0  0  0  0  0  0  0  0  0  0  0  0
    7.8168  -14.7272   18.7568 N   0  0  0  0  0  0  0  0  0  0  0  0
    8.9650  -15.1346   19.5015 C   0  0  0  0  0  0  0  0  0  0  0  0
    9.1232  -16.6280   19.6303 C   0  0  0  0  0  0  0  0  0  0  0  0
   10.4838  -16.9146   20.2441 C   0  0  0  0  0  0  0  0  0  0  0  0
   10.3934  -17.4598   21.6423 C   0  0  2  0  0  0  0  0  0  0  0  0
    9.1878  -16.7878   22.2263 N   0  0  0  0  0  0  0  0  0  0  0  0
   11.5621  -17.2057   22.4812 C   0  0  0  0  0  0  0  0  0  0  0  0
   11.9196  -15.9348   22.4539 O   0  0  0  0  0  0  0  0  0  0  0  0
    7.5393  -12.2310   19.2661 N   0  0  0  0  0  0  0  0  0  0  0  0
   12.3579  -17.9935   23.2760 C   0  0  0  0  0  0  0  0  0  0  0  0
   11.7453  -19.1687   23.9894 C   0  0  0  0  0  0  0  0  0  0  0  0
   12.7142  -20.2411   23.5643 C   0  0  0  0  0  0  0  0  0  0  0  0
   14.0417  -19.5541   23.4205 C   0  0  2  0  0  0  0  0  0  0  0  0
   13.6848  -18.0412   23.6950 C   0  0  0  0  0  0  0  0  0  0  0  0
   14.7437  -17.2470   23.1167 O   0  0  0  0  0  0  0  0  0  0  0  0
   14.7183  -16.6015   21.9351 O   0  0  0  0  0  0  0  0  0  0  0  0
  2  1  1  1
  2 13  1  0
  2  3  1  0
  3  4  1  0
  4  5  2  0
  6  5  1  0
  7  6  1  0
  8  7  2  0
  9  8  1  0
 10  9  2  0
 10 11  1  0
 11 12  2  0
 12  7  1  0
 12  4  1  0
 13 14  2  0
 16 17  2  0
 16 15  1  0
 18 16  1  0
 19 18  1  0
 19 20  1  0
 20 21  1  0
 22 21  1  6
 22 24  1  0
 23 13  1  0
 23 22  1  0
 24 25  2  0
 26 24  1  0
 26 27  1  0
 27 28  1  0
 29 28  1  0
 30 26  1  0
 30 29  1  0
 30 31  1  6
 32 31  1  0
 33 31  2  0
M  END
$$$$
