WRP.pdb
     RDKit          3D

 33 35  0  0  1  0  0  0  0  0999 V2000
    6.8754  -18.8137   25.4805 N   0  0  0  0  0  0  0  0  0  0  0  0
    6.9791  -17.4507   24.9989 C   0  0  1  0  0  0  0  0  0  0  0  0
    7.6834  -16.6276   26.0618 C   0  0  0  0  0  0  0  0  0  0  0  0
    6.9323  -15.3808   26.3621 C   0  0  0  0  0  0  0  0  0  0  0  0
    5.5790  -15.2202   26.6209 C   0  0  0  0  0  0  0  0  0  0  0  0
    5.3276  -13.9168   26.8406 N   0  0  0  0  0  0  0  0  0  0  0  0
    6.4693  -13.2279   26.7333 C   0  0  0  0  0  0  0  0  0  0  0  0
    6.7300  -11.8810   26.8692 C   0  0  0  0  0  0  0  0  0  0  0  0
    8.0166  -11.4356   26.7039 C   0  0  0  0  0  0  0  0  0  0  0  0
    9.0331  -12.3123   26.4076 C   0  0  0  0  0  0  0  0  0  0  0  0
    8.7543  -13.6564   26.2753 C   0  0  0  0  0  0  0  0  0  0  0  0
    7.4785  -14.1167   26.4367 C   0  0  0  0  0  0  0  0  0  0  0  0
    7.7086  -17.3619   23.7197 C   0  0  0  0  0  0  0  0  0  0  0  0
    8.4593  -18.3119   23.3640 O   0  0  0  0  0  0  0  0  0  0  0  0
    7.3723  -14.9628   16.8770 N   0  0  0  0  0  0  0  0  0  0  0  0
    8.1885  -13.8429   16.6556 C   0  0  0  0  0  0  0  0  0  0  0  0
    8.5545  -13.5484   15.4719 N   0  0  0  0  0  0  0  0  0  0  0  0
    8.6185  -13.0196   17.7587 N   0  0  0  0  0  0  0  0  0  0  0  0
    8.1731  -13.3067   19.0846 C   0  0  0  0  0  0  0  0  0  0  0  0
    8.7197  -14.5886   19.6588 C   0  0  0  0  0  0  0  0  0  0  0  0
    7.9627  -14.9015   20.9391 C   0  0  0  0  0  0  0  0  0  0  0  0
    8.3728  -16.2086   21.5584 C   0  0  2  0  0  0  0  0  0  0  0  0
    7.6181  -16.2602   22.8523 N   0  0  0  0  0  0  0  0  0  0  0  0
    9.8048  -16.3509   21.8097 C   0  0  0  0  0  0  0  0  0  0  0  0
   10.2793  -15.3504   22.5290 O   0  0  0  0  0  0  0  0  0  0  0  0
    9.1589  -12.7414   15.2712 N   0  0  0  0  0  0  0  0  0  0  0  0
   10.7485  -17.2852   21.4602 C   0  0  0  0  0  0  0  0  0  0  0  0
   10.2973  -18.6482   21.0088 C   0  0  0  0  0  0  0  0  0  0  0  0
   11.0773  -18.7476   19.7237 C   0  0  0  0  0  0  0  0  0  0  0  0
   12.3474  -17.9822   19.9604 C   0  0  2  0  0  0  0  0  0  0  0  0
   12.1358  -17.3916   21.4089 C   0  0  0  0  0  0  0  0  0  0  0  0
   13.0376  -16.2712   21.5427 O   0  0  0  0  0  0  0  0  0  0  0  0
   12.7068  -14.9663   21.5820 O   0  0  0  0  0  0  0  0  0  0  0  0
  2  1  1  1
  2 13  1  0
  2  3  1  0
  3  4  1  0
  4  5  2  0
  6  5  1  0
  7  6  1  0
  8  7  2  0
  9  8  1  0
 10  9  2  0
 10 11  1  0
 11 12  2  0
 12  7  1  0
 12  4  1  0
 13 14  2  0
 16 17  2  0
 16 15  1  0
 18 16  1  0
 19 18  1  0
 19 20  1  0
 20 21  1  0
 22 21  1  1
 22 24  1  0
 23 13  1  0
 23 22  1  0
 24 25  2  0
 26 24  1  0
 26 27  1  0
 27 28  1  0
 29 28  1  0
 30 26  1  0
 30 29  1  0
 30 31  1  6
 32 31  1  0
 33 31  2  0
M  END
$$$$
