CIN.pdb
     RDKit          3D

 23 22  0  0  1  0  0  0  0  0999 V2000
   10.1725  -17.2144   15.8588 N   0  0  0  0  0  0  0  0  0  0  0  0
    9.3611  -17.5500   16.9954 C   0  0  1  0  0  0  0  0  0  0  0  0
    9.3130  -19.0290   17.2450 C   0  0  0  0  0  0  0  0  0  0  0  0
    8.2589  -19.3054   18.7008 S   0  0  0  0  0  0  0  0  0  0  0  0
    9.7724  -16.7854   18.2103 C   0  0  0  0  0  0  0  0  0  0  0  0
   10.9846  -16.6012   18.3982 O   0  0  0  0  0  0  0  0  0  0  0  0
    6.7217  -12.6422   20.0406 C   0  0  0  0  0  0  0  0  0  0  0  0
    7.9288  -13.4603   19.6300 C   0  0  0  0  0  0  0  0  0  0  0  0
    8.1189  -14.5328   20.6681 C   0  0  2  0  0  0  0  0  0  0  0  0
    8.3754  -13.9636   22.0218 C   0  0  0  0  0  0  0  0  0  0  0  0
    9.2159  -15.5079   20.2991 C   0  0  2  0  0  0  0  0  0  0  0  0
    8.8149  -16.2812   19.1271 N   0  0  0  0  0  0  0  0  0  0  0  0
    9.5365  -16.4170   21.4228 C   0  0  0  0  0  0  0  0  0  0  0  0
    8.7206  -17.3243   21.7082 O   0  0  0  0  0  0  0  0  0  0  0  0
   14.0830  -17.9440   25.1075 N   0  0  0  0  0  0  0  0  0  0  0  0
   13.0951  -18.4164   24.2048 C   0  0  0  0  0  0  0  0  0  0  0  0
   12.7063  -19.6024   24.3299 O   0  0  0  0  0  0  0  0  0  0  0  0
   12.5649  -17.5275   23.1716 C   0  0  0  0  0  0  0  0  0  0  0  0
   11.0824  -17.3518   23.1895 C   0  0  2  0  0  0  0  0  0  0  0  0
   10.7178  -16.3250   22.2026 N   0  0  0  0  0  0  0  0  0  0  0  0
   10.7039  -16.8554   24.5279 C   0  0  0  0  0  0  0  0  0  0  0  0
   10.2688  -15.5318   24.6234 O   0  0  0  0  0  0  0  0  0  0  0  0
   10.7849  -17.6251   25.5128 O   0  0  0  0  0  0  0  0  0  0  0  0
  2  3  1  0
  2  1  1  6
  3  4  1  0
  5  2  1  0
  5  6  2  0
  7  8  1  0
  8  9  1  0
  9 11  1  0
  9 10  1  1
 11 12  1  6
 11 13  1  0
 12  5  1  0
 13 20  1  0
 14 13  2  0
 15 16  1  0
 16 17  2  0
 18 16  1  0
 19 18  1  1
 19 21  1  0
 20 19  1  0
 21 23  2  0
 21 22  1  0
M  END
$$$$
