CIN.pdb
     RDKit          3D

 23 22  0  0  1  0  0  0  0  0999 V2000
    9.3437  -17.9541   16.3569 N   0  0  0  0  0  0  0  0  0  0  0  0
    8.4787  -17.8446   17.4983 C   0  0  1  0  0  0  0  0  0  0  0  0
    8.0309  -19.1842   18.0051 C   0  0  0  0  0  0  0  0  0  0  0  0
    6.9988  -19.9420   16.7137 S   0  0  0  0  0  0  0  0  0  0  0  0
    9.0906  -17.0095   18.5744 C   0  0  0  0  0  0  0  0  0  0  0  0
   10.3278  -16.9305   18.6160 O   0  0  0  0  0  0  0  0  0  0  0  0
    6.5928  -12.4792   20.4455 C   0  0  0  0  0  0  0  0  0  0  0  0
    7.6468  -13.4359   19.9268 C   0  0  0  0  0  0  0  0  0  0  0  0
    7.9180  -14.4387   21.0152 C   0  0  2  0  0  0  0  0  0  0  0  0
    8.3993  -13.7899   22.2681 C   0  0  0  0  0  0  0  0  0  0  0  0
    8.8902  -15.5148   20.5820 C   0  0  2  0  0  0  0  0  0  0  0  0
    8.2910  -16.3240   19.5244 N   0  0  0  0  0  0  0  0  0  0  0  0
    9.2891  -16.3769   21.7176 C   0  0  0  0  0  0  0  0  0  0  0  0
    8.4455  -17.1772   22.1848 O   0  0  0  0  0  0  0  0  0  0  0  0
   12.5457  -19.2700   21.9053 N   0  0  0  0  0  0  0  0  0  0  0  0
   13.0107  -18.0012   22.3386 C   0  0  0  0  0  0  0  0  0  0  0  0
   13.9403  -17.4648   21.6893 O   0  0  0  0  0  0  0  0  0  0  0  0
   12.4075  -17.3624   23.5078 C   0  0  0  0  0  0  0  0  0  0  0  0
   10.9226  -17.2175   23.4525 C   0  0  2  0  0  0  0  0  0  0  0  0
   10.5756  -16.3537   22.3147 N   0  0  0  0  0  0  0  0  0  0  0  0
   10.4900  -16.5391   24.6910 C   0  0  0  0  0  0  0  0  0  0  0  0
   10.0764  -15.2094   24.5848 O   0  0  0  0  0  0  0  0  0  0  0  0
   10.5088  -17.1688   25.7736 O   0  0  0  0  0  0  0  0  0  0  0  0
  2  3  1  0
  2  1  1  6
  3  4  1  0
  5  2  1  0
  5  6  2  0
  7  8  1  0
  8  9  1  0
  9 11  1  0
  9 10  1  1
 11 12  1  6
 11 13  1  0
 12  5  1  0
 13 20  1  0
 14 13  2  0
 15 16  1  0
 16 17  2  0
 18 16  1  0
 19 18  1  1
 19 21  1  0
 20 19  1  0
 21 23  2  0
 21 22  1  0
M  END
$$$$
