CIN.pdb
     RDKit          3D

 23 22  0  0  1  0  0  0  0  0999 V2000
    8.6441  -15.1444   20.4699 N   0  0  0  0  0  0  0  0  0  0  0  0
    7.8894  -15.5459   21.6240 C   0  0  1  0  0  0  0  0  0  0  0  0
    7.5751  -17.0133   21.6178 C   0  0  0  0  0  0  0  0  0  0  0  0
    6.7592  -17.3925   20.0374 S   0  0  0  0  0  0  0  0  0  0  0  0
    8.5513  -15.1156   22.8916 C   0  0  0  0  0  0  0  0  0  0  0  0
    9.7906  -15.0681   22.9127 O   0  0  0  0  0  0  0  0  0  0  0  0
    5.7679  -11.8410   26.2336 C   0  0  0  0  0  0  0  0  0  0  0  0
    6.8951  -12.3984   25.3887 C   0  0  0  0  0  0  0  0  0  0  0  0
    7.4771  -13.5698   26.1325 C   0  0  2  0  0  0  0  0  0  0  0  0
    8.1334  -13.1557   27.4053 C   0  0  0  0  0  0  0  0  0  0  0  0
    8.4442  -14.3700   25.2868 C   0  0  2  0  0  0  0  0  0  0  0  0
    7.7958  -14.7700   24.0411 N   0  0  0  0  0  0  0  0  0  0  0  0
    8.9390  -15.5641   26.0088 C   0  0  0  0  0  0  0  0  0  0  0  0
    8.1293  -16.4861   26.2630 O   0  0  0  0  0  0  0  0  0  0  0  0
   13.0854  -16.3606   24.5296 N   0  0  0  0  0  0  0  0  0  0  0  0
   12.3577  -17.3555   25.2329 C   0  0  0  0  0  0  0  0  0  0  0  0
   11.9091  -18.3264   24.5775 O   0  0  0  0  0  0  0  0  0  0  0  0
   12.1525  -17.2277   26.6753 C   0  0  0  0  0  0  0  0  0  0  0  0
   10.7436  -16.9624   27.0918 C   0  0  2  0  0  0  0  0  0  0  0  0
   10.2818  -15.7314   26.4341 N   0  0  0  0  0  0  0  0  0  0  0  0
   10.7412  -16.7309   28.5504 C   0  0  0  0  0  0  0  0  0  0  0  0
   11.0416  -17.8178   29.3743 O   0  0  0  0  0  0  0  0  0  0  0  0
   10.4746  -15.5886   28.9894 O   0  0  0  0  0  0  0  0  0  0  0  0
  2  3  1  0
  2  1  1  6
  3  4  1  0
  5  2  1  0
  5  6  2  0
  7  8  1  0
  8  9  1  0
  9 11  1  0
  9 10  1  1
 11 12  1  6
 11 13  1  0
 12  5  1  0
 13 20  1  0
 14 13  2  0
 15 16  1  0
 16 17  2  0
 18 16  1  0
 19 18  1  6
 19 21  1  0
 20 19  1  0
 21 23  2  0
 21 22  1  0
M  END
$$$$
