CIN.pdb
     RDKit          3D

 23 22  0  0  1  0  0  0  0  0999 V2000
    8.1215  -15.4386   20.5157 N   0  0  0  0  0  0  0  0  0  0  0  0
    7.3466  -15.8150   21.6650 C   0  0  1  0  0  0  0  0  0  0  0  0
    6.8421  -17.2255   21.5757 C   0  0  0  0  0  0  0  0  0  0  0  0
    5.8533  -17.5497   23.0671 S   0  0  0  0  0  0  0  0  0  0  0  0
    8.0877  -15.5598   22.9361 C   0  0  0  0  0  0  0  0  0  0  0  0
    9.2991  -15.8245   22.9655 O   0  0  0  0  0  0  0  0  0  0  0  0
    6.0551  -11.6747   26.1592 C   0  0  0  0  0  0  0  0  0  0  0  0
    7.0344  -12.4759   25.3260 C   0  0  0  0  0  0  0  0  0  0  0  0
    7.3983  -13.7031   26.1169 C   0  0  2  0  0  0  0  0  0  0  0  0
    8.1499  -13.3667   27.3595 C   0  0  0  0  0  0  0  0  0  0  0  0
    8.1754  -14.7107   25.2974 C   0  0  2  0  0  0  0  0  0  0  0  0
    7.4361  -15.0315   24.0797 N   0  0  0  0  0  0  0  0  0  0  0  0
    8.4464  -15.9455   26.0680 C   0  0  0  0  0  0  0  0  0  0  0  0
    7.4730  -16.5984   26.5113 O   0  0  0  0  0  0  0  0  0  0  0  0
   10.6834  -20.2805   27.9597 N   0  0  0  0  0  0  0  0  0  0  0  0
   11.5455  -19.6582   27.0197 C   0  0  0  0  0  0  0  0  0  0  0  0
   12.6275  -20.2316   26.7478 O   0  0  0  0  0  0  0  0  0  0  0  0
   11.1598  -18.3893   26.4033 C   0  0  0  0  0  0  0  0  0  0  0  0
    9.9689  -17.7270   27.0133 C   0  0  2  0  0  0  0  0  0  0  0  0
    9.7483  -16.4399   26.3380 N   0  0  0  0  0  0  0  0  0  0  0  0
   10.2825  -17.4528   28.4301 C   0  0  0  0  0  0  0  0  0  0  0  0
   10.4894  -16.1212   28.7968 O   0  0  0  0  0  0  0  0  0  0  0  0
   10.3507  -18.4069   29.2387 O   0  0  0  0  0  0  0  0  0  0  0  0
  2  3  1  0
  2  1  1  6
  3  4  1  0
  5  2  1  0
  5  6  2  0
  7  8  1  0
  8  9  1  0
  9 11  1  0
  9 10  1  1
 11 12  1  6
 11 13  1  0
 12  5  1  0
 13 20  1  0
 14 13  2  0
 15 16  1  0
 16 17  2  0
 18 16  1  0
 19 18  1  6
 19 21  1  0
 20 19  1  0
 21 23  2  0
 21 22  1  0
M  END
$$$$
