CIN.pdb
     RDKit          3D

 23 22  0  0  1  0  0  0  0  0999 V2000
    7.6604  -14.2925   19.9069 N   0  0  0  0  0  0  0  0  0  0  0  0
    6.9824  -14.8887   21.0240 C   0  0  1  0  0  0  0  0  0  0  0  0
    6.5790  -16.3088   20.7546 C   0  0  0  0  0  0  0  0  0  0  0  0
    5.7651  -16.9412   22.2529 S   0  0  0  0  0  0  0  0  0  0  0  0
    7.7742  -14.7557   22.2831 C   0  0  0  0  0  0  0  0  0  0  0  0
    9.0010  -14.9272   22.2188 O   0  0  0  0  0  0  0  0  0  0  0  0
    5.9280  -11.4388   26.2235 C   0  0  0  0  0  0  0  0  0  0  0  0
    6.8189  -12.1202   25.2050 C   0  0  0  0  0  0  0  0  0  0  0  0
    7.1691  -13.4777   25.7514 C   0  0  2  0  0  0  0  0  0  0  0  0
    7.9335  -13.3881   27.0280 C   0  0  0  0  0  0  0  0  0  0  0  0
    7.9256  -14.3264   24.7524 C   0  0  2  0  0  0  0  0  0  0  0  0
    7.1526  -14.4434   23.5191 N   0  0  0  0  0  0  0  0  0  0  0  0
    8.2229  -15.6712   25.2956 C   0  0  0  0  0  0  0  0  0  0  0  0
    7.2687  -16.3774   25.6968 O   0  0  0  0  0  0  0  0  0  0  0  0
   13.1561  -17.5494   25.8008 N   0  0  0  0  0  0  0  0  0  0  0  0
   12.0525  -17.4000   24.9212 C   0  0  0  0  0  0  0  0  0  0  0  0
   12.1526  -16.5626   23.9926 O   0  0  0  0  0  0  0  0  0  0  0  0
   10.8496  -18.2090   25.1145 C   0  0  0  0  0  0  0  0  0  0  0  0
    9.7765  -17.5616   25.9259 C   0  0  2  0  0  0  0  0  0  0  0  0
    9.5297  -16.2146   25.3914 N   0  0  0  0  0  0  0  0  0  0  0  0
   10.2794  -17.4210   27.3073 C   0  0  0  0  0  0  0  0  0  0  0  0
   10.5022  -18.5934   28.0328 O   0  0  0  0  0  0  0  0  0  0  0  0
   10.4847  -16.2759   27.7716 O   0  0  0  0  0  0  0  0  0  0  0  0
  2  3  1  0
  2  1  1  6
  3  4  1  0
  5  2  1  0
  5  6  2  0
  7  8  1  0
  8  9  1  0
  9 11  1  0
  9 10  1  1
 11 12  1  6
 11 13  1  0
 12  5  1  0
 13 20  1  0
 14 13  2  0
 15 16  1  0
 16 17  2  0
 18 16  1  0
 19 18  1  6
 19 21  1  0
 20 19  1  0
 21 23  2  0
 21 22  1  0
M  END
$$$$
