CIN.pdb
     RDKit          3D

 23 22  0  0  1  0  0  0  0  0999 V2000
    7.6331  -14.2778   19.9533 N   0  0  0  0  0  0  0  0  0  0  0  0
    6.8668  -14.5598   21.1349 C   0  0  1  0  0  0  0  0  0  0  0  0
    6.2021  -15.9040   21.0762 C   0  0  0  0  0  0  0  0  0  0  0  0
    7.5122  -17.1650   21.0971 S   0  0  0  0  0  0  0  0  0  0  0  0
    7.6821  -14.3867   22.3740 C   0  0  0  0  0  0  0  0  0  0  0  0
    8.9158  -14.3377   22.2556 O   0  0  0  0  0  0  0  0  0  0  0  0
    5.5464  -11.6630   26.5977 C   0  0  0  0  0  0  0  0  0  0  0  0
    6.4944  -12.1335   25.5136 C   0  0  0  0  0  0  0  0  0  0  0  0
    7.0417  -13.4676   25.9433 C   0  0  2  0  0  0  0  0  0  0  0  0
    7.8280  -13.3706   27.2060 C   0  0  0  0  0  0  0  0  0  0  0  0
    7.8729  -14.1272   24.8641 C   0  0  2  0  0  0  0  0  0  0  0  0
    7.0745  -14.2807   23.6512 N   0  0  0  0  0  0  0  0  0  0  0  0
    8.3890  -15.4436   25.3032 C   0  0  0  0  0  0  0  0  0  0  0  0
    7.5664  -16.3599   25.5361 O   0  0  0  0  0  0  0  0  0  0  0  0
   12.8792  -16.1995   23.5191 N   0  0  0  0  0  0  0  0  0  0  0  0
   11.8588  -17.0671   23.9881 C   0  0  0  0  0  0  0  0  0  0  0  0
   11.1626  -17.6679   23.1350 O   0  0  0  0  0  0  0  0  0  0  0  0
   11.6476  -17.2365   25.4253 C   0  0  0  0  0  0  0  0  0  0  0  0
   10.2355  -17.0690   25.8803 C   0  0  2  0  0  0  0  0  0  0  0  0
    9.7661  -15.7352   25.4782 N   0  0  0  0  0  0  0  0  0  0  0  0
   10.2274  -17.1318   27.3558 C   0  0  0  0  0  0  0  0  0  0  0  0
   10.2473  -15.9206   28.0509 O   0  0  0  0  0  0  0  0  0  0  0  0
   10.2035  -18.2488   27.9219 O   0  0  0  0  0  0  0  0  0  0  0  0
  2  3  1  0
  2  1  1  6
  3  4  1  0
  5  2  1  0
  5  6  2  0
  7  8  1  0
  8  9  1  0
  9 11  1  0
  9 10  1  1
 11 12  1  6
 11 13  1  0
 12  5  1  0
 13 20  1  0
 14 13  2  0
 15 16  1  0
 16 17  2  0
 18 16  1  0
 19 18  1  1
 19 21  1  0
 20 19  1  0
 21 23  2  0
 21 22  1  0
M  END
$$$$
