FWN.pdb
     RDKit          3D

 34 36  0  0  1  0  0  0  0  0999 V2000
   10.2136  -13.4716   20.6110 N   0  0  0  0  0  0  0  0  0  0  0  0
    9.1905  -14.4222   21.0723 C   0  0  1  0  0  0  0  0  0  0  0  0
    8.9575  -15.4432   19.9620 C   0  0  0  0  0  0  0  0  0  0  0  0
    8.2604  -14.7957   18.8122 C   0  0  0  0  0  0  0  0  0  0  0  0
    7.8350  -15.5759   17.7581 C   0  0  0  0  0  0  0  0  0  0  0  0
    7.1785  -15.0203   16.6715 C   0  0  0  0  0  0  0  0  0  0  0  0
    6.9255  -13.6716   16.6001 C   0  0  0  0  0  0  0  0  0  0  0  0
    7.3501  -12.8815   17.6553 C   0  0  0  0  0  0  0  0  0  0  0  0
    8.0037  -13.4480   18.7331 C   0  0  0  0  0  0  0  0  0  0  0  0
    9.7318  -15.0864   22.2851 C   0  0  0  0  0  0  0  0  0  0  0  0
   10.9358  -15.1894   22.5681 O   0  0  0  0  0  0  0  0  0  0  0  0
    8.7546  -15.6437   23.1858 N   0  0  0  0  0  0  0  0  0  0  0  0
    9.1361  -16.1654   24.4759 C   0  0  1  0  0  0  0  0  0  0  0  0
    7.8102  -16.2631   25.2541 C   0  0  0  0  0  0  0  0  0  0  0  0
    7.2700  -14.9338   25.5502 C   0  0  0  0  0  0  0  0  0  0  0  0
    6.0886  -14.4295   25.0532 C   0  0  0  0  0  0  0  0  0  0  0  0
    5.9784  -13.1750   25.5837 N   0  0  0  0  0  0  0  0  0  0  0  0
    7.0334  -12.9143   26.3673 C   0  0  0  0  0  0  0  0  0  0  0  0
    7.3673  -11.8139   27.1020 C   0  0  0  0  0  0  0  0  0  0  0  0
    8.5335  -11.7745   27.8497 C   0  0  0  0  0  0  0  0  0  0  0  0
    9.3942  -12.8611   27.8681 C   0  0  0  0  0  0  0  0  0  0  0  0
    9.0382  -13.9580   27.1213 C   0  0  0  0  0  0  0  0  0  0  0  0
    7.8769  -14.0074   26.3719 C   0  0  0  0  0  0  0  0  0  0  0  0
    9.7866  -17.4633   24.3743 C   0  0  0  0  0  0  0  0  0  0  0  0
    9.2731  -18.4437   23.7277 O   0  0  0  0  0  0  0  0  0  0  0  0
   12.6514  -18.6686   22.5056 N   0  0  0  0  0  0  0  0  0  0  0  0
   13.5252  -18.8096   23.6182 C   0  0  0  0  0  0  0  0  0  0  0  0
   14.7629  -18.6774   23.3146 O   0  0  0  0  0  0  0  0  0  0  0  0
   13.0416  -19.0807   24.9794 C   0  0  0  0  0  0  0  0  0  0  0  0
   11.5443  -19.1058   25.0283 C   0  0  2  0  0  0  0  0  0  0  0  0
   11.0352  -17.7015   24.9921 N   0  0  0  0  0  0  0  0  0  0  0  0
   11.1321  -19.6298   26.3568 C   0  0  0  0  0  0  0  0  0  0  0  0
   11.3193  -20.9824   26.7187 O   0  0  0  0  0  0  0  0  0  0  0  0
   10.5947  -18.9380   27.2529 O   0  0  0  0  0  0  0  0  0  0  0  0
  2  1  1  6
  2  3  1  0
  4  5  2  0
  4  3  1  0
  6  5  1  0
  7  6  2  0
  8  7  1  0
  8  9  2  0
  9  4  1  0
 10  2  1  0
 11 10  2  0
 12 10  1  0
 13 12  1  0
 13 14  1  1
 15 14  1  0
 16 15  2  0
 17 18  1  0
 17 16  1  0
 18 23  2  0
 19 20  2  0
 19 18  1  0
 20 21  1  0
 21 22  2  0
 23 15  1  0
 23 22  1  0
 24 13  1  0
 24 25  2  0
 26 27  1  0
 27 28  2  0
 27 29  1  0
 30 29  1  1
 30 31  1  0
 31 24  1  0
 32 30  1  0
 33 32  1  0
 34 32  2  0
M  END
$$$$
