FWN.pdb
     RDKit          3D

 34 36  0  0  1  0  0  0  0  0999 V2000
    7.9407  -17.2806   21.7065 N   0  0  0  0  0  0  0  0  0  0  0  0
    9.3620  -16.9638   21.5000 C   0  0  1  0  0  0  0  0  0  0  0  0
    9.4672  -16.0107   20.3126 C   0  0  0  0  0  0  0  0  0  0  0  0
    8.5042  -14.8826   20.4776 C   0  0  0  0  0  0  0  0  0  0  0  0
    7.7223  -14.8266   21.6117 C   0  0  0  0  0  0  0  0  0  0  0  0
    6.8182  -13.7954   21.8114 C   0  0  0  0  0  0  0  0  0  0  0  0
    6.6641  -12.7888   20.8889 C   0  0  0  0  0  0  0  0  0  0  0  0
    7.4462  -12.8386   19.7470 C   0  0  0  0  0  0  0  0  0  0  0  0
    8.3441  -13.8723   19.5600 C   0  0  0  0  0  0  0  0  0  0  0  0
    9.8438  -16.3052   22.7406 C   0  0  0  0  0  0  0  0  0  0  0  0
   10.7232  -15.4309   22.7921 O   0  0  0  0  0  0  0  0  0  0  0  0
    9.2187  -16.7371   23.9650 N   0  0  0  0  0  0  0  0  0  0  0  0
    9.8022  -16.4379   25.2505 C   0  0  1  0  0  0  0  0  0  0  0  0
    8.6266  -16.5565   26.2389 C   0  0  0  0  0  0  0  0  0  0  0  0
    7.5369  -15.6459   25.8784 C   0  0  0  0  0  0  0  0  0  0  0  0
    6.3544  -16.0221   25.2807 C   0  0  0  0  0  0  0  0  0  0  0  0
    5.6405  -14.8666   25.1307 N   0  0  0  0  0  0  0  0  0  0  0  0
    6.3409  -13.8295   25.6089 C   0  0  0  0  0  0  0  0  0  0  0  0
    6.0537  -12.4975   25.6811 C   0  0  0  0  0  0  0  0  0  0  0  0
    6.9523  -11.5961   26.2295 C   0  0  0  0  0  0  0  0  0  0  0  0
    8.1734  -12.0312   26.7210 C   0  0  0  0  0  0  0  0  0  0  0  0
    8.4415  -13.3761   26.6381 C   0  0  0  0  0  0  0  0  0  0  0  0
    7.5517  -14.2838   26.0928 C   0  0  0  0  0  0  0  0  0  0  0  0
   10.8771  -17.3569   25.5942 C   0  0  0  0  0  0  0  0  0  0  0  0
   11.5130  -17.2902   26.7051 O   0  0  0  0  0  0  0  0  0  0  0  0
   12.2499  -22.1676   26.2463 N   0  0  0  0  0  0  0  0  0  0  0  0
   11.6902  -21.6117   25.0636 C   0  0  0  0  0  0  0  0  0  0  0  0
   10.5733  -22.1430   24.7293 O   0  0  0  0  0  0  0  0  0  0  0  0
   12.3409  -20.5322   24.3076 C   0  0  0  0  0  0  0  0  0  0  0  0
   12.4024  -19.2685   25.1102 C   0  0  2  0  0  0  0  0  0  0  0  0
   11.2707  -18.3815   24.7040 N   0  0  0  0  0  0  0  0  0  0  0  0
   13.6304  -18.5287   24.7176 C   0  0  0  0  0  0  0  0  0  0  0  0
   14.7443  -18.4166   25.5792 O   0  0  0  0  0  0  0  0  0  0  0  0
   13.7853  -17.9519   23.6160 O   0  0  0  0  0  0  0  0  0  0  0  0
  2  1  1  1
  2  3  1  0
  4  5  2  0
  4  3  1  0
  6  5  1  0
  7  6  2  0
  8  7  1  0
  8  9  2  0
  9  4  1  0
 10  2  1  0
 11 10  2  0
 12 10  1  0
 13 12  1  0
 13 14  1  1
 15 14  1  0
 16 15  2  0
 17 18  1  0
 17 16  1  0
 18 23  2  0
 19 20  2  0
 19 18  1  0
 20 21  1  0
 21 22  2  0
 23 15  1  0
 23 22  1  0
 24 13  1  0
 24 25  2  0
 26 27  1  0
 27 28  2  0
 27 29  1  0
 30 29  1  6
 30 31  1  0
 31 24  1  0
 32 30  1  0
 33 32  1  0
 34 32  2  0
M  END
$$$$
