FWN.pdb
     RDKit          3D

 34 36  0  0  1  0  0  0  0  0999 V2000
    7.8188  -17.8526   21.9962 N   0  0  0  0  0  0  0  0  0  0  0  0
    8.1692  -16.5262   21.4660 C   0  0  1  0  0  0  0  0  0  0  0  0
    6.8816  -15.7206   21.3162 C   0  0  0  0  0  0  0  0  0  0  0  0
    7.1791  -14.3937   20.7012 C   0  0  0  0  0  0  0  0  0  0  0  0
    7.4560  -14.3247   19.3524 C   0  0  0  0  0  0  0  0  0  0  0  0
    7.7324  -13.1146   18.7362 C   0  0  0  0  0  0  0  0  0  0  0  0
    7.7421  -11.9363   19.4430 C   0  0  0  0  0  0  0  0  0  0  0  0
    7.4650  -11.9979   20.7985 C   0  0  0  0  0  0  0  0  0  0  0  0
    7.1908  -13.2110   21.4009 C   0  0  0  0  0  0  0  0  0  0  0  0
    9.0705  -15.8874   22.4583 C   0  0  0  0  0  0  0  0  0  0  0  0
    9.8973  -14.9969   22.2057 O   0  0  0  0  0  0  0  0  0  0  0  0
    8.9490  -16.3606   23.8140 N   0  0  0  0  0  0  0  0  0  0  0  0
    9.8384  -15.8979   24.8519 C   0  0  1  0  0  0  0  0  0  0  0  0
    9.0499  -16.1210   26.1563 C   0  0  0  0  0  0  0  0  0  0  0  0
    7.7914  -15.3707   26.1500 C   0  0  0  0  0  0  0  0  0  0  0  0
    6.5514  -15.9048   25.8780 C   0  0  0  0  0  0  0  0  0  0  0  0
    5.6760  -14.8609   25.9840 N   0  0  0  0  0  0  0  0  0  0  0  0
    6.3359  -13.7398   26.3042 C   0  0  0  0  0  0  0  0  0  0  0  0
    5.9043  -12.4628   26.5166 C   0  0  0  0  0  0  0  0  0  0  0  0
    6.7904  -11.4486   26.8439 C   0  0  0  0  0  0  0  0  0  0  0  0
    8.1464  -11.7110   26.9637 C   0  0  0  0  0  0  0  0  0  0  0  0
    8.5585  -13.0033   26.7456 C   0  0  0  0  0  0  0  0  0  0  0  0
    7.6826  -14.0225   26.4186 C   0  0  0  0  0  0  0  0  0  0  0  0
   11.0974  -16.6278   24.8635 C   0  0  0  0  0  0  0  0  0  0  0  0
   11.8810  -16.6357   25.8777 O   0  0  0  0  0  0  0  0  0  0  0  0
   13.7487  -21.7201   23.5702 N   0  0  0  0  0  0  0  0  0  0  0  0
   13.6576  -20.4260   24.1517 C   0  0  0  0  0  0  0  0  0  0  0  0
   14.7301  -20.0584   24.7485 O   0  0  0  0  0  0  0  0  0  0  0  0
   12.4442  -19.6008   24.0686 C   0  0  0  0  0  0  0  0  0  0  0  0
   12.7832  -18.1581   23.8479 C   0  0  2  0  0  0  0  0  0  0  0  0
   11.5159  -17.3743   23.7387 N   0  0  0  0  0  0  0  0  0  0  0  0
   13.4291  -18.0318   22.5151 C   0  0  0  0  0  0  0  0  0  0  0  0
   12.7194  -18.2584   21.3150 O   0  0  0  0  0  0  0  0  0  0  0  0
   14.6304  -17.7215   22.3393 O   0  0  0  0  0  0  0  0  0  0  0  0
  2  1  1  1
  2  3  1  0
  4  5  2  0
  4  3  1  0
  6  5  1  0
  7  6  2  0
  8  7  1  0
  8  9  2  0
  9  4  1  0
 10  2  1  0
 11 10  2  0
 12 10  1  0
 13 12  1  0
 13 14  1  1
 15 14  1  0
 16 15  2  0
 17 18  1  0
 17 16  1  0
 18 23  2  0
 19 20  2  0
 19 18  1  0
 20 21  1  0
 21 22  2  0
 23 15  1  0
 23 22  1  0
 24 13  1  0
 24 25  2  0
 26 27  1  0
 27 28  2  0
 27 29  1  0
 30 29  1  6
 30 31  1  0
 31 24  1  0
 32 30  1  0
 33 32  1  0
 34 32  2  0
M  END
$$$$
