FWN.pdb
     RDKit          3D

 34 36  0  0  1  0  0  0  0  0999 V2000
    8.0307  -13.2745   18.0136 N   0  0  0  0  0  0  0  0  0  0  0  0
    8.1381  -14.6432   18.5413 C   0  0  1  0  0  0  0  0  0  0  0  0
    9.1063  -15.4190   17.6524 C   0  0  0  0  0  0  0  0  0  0  0  0
    8.4862  -15.6662   16.3176 C   0  0  0  0  0  0  0  0  0  0  0  0
    7.2915  -16.3506   16.2478 C   0  0  0  0  0  0  0  0  0  0  0  0
    6.6752  -16.5989   15.0316 C   0  0  0  0  0  0  0  0  0  0  0  0
    7.2289  -16.1743   13.8478 C   0  0  0  0  0  0  0  0  0  0  0  0
    8.4292  -15.4863   13.9102 C   0  0  0  0  0  0  0  0  0  0  0  0
    9.0334  -15.2451   15.1295 C   0  0  0  0  0  0  0  0  0  0  0  0
    8.6726  -14.5342   19.9224 C   0  0  0  0  0  0  0  0  0  0  0  0
    9.6811  -13.8899   20.2512 O   0  0  0  0  0  0  0  0  0  0  0  0
    7.9374  -15.2435   20.9388 N   0  0  0  0  0  0  0  0  0  0  0  0
    8.2085  -15.0377   22.3411 C   0  0  1  0  0  0  0  0  0  0  0  0
    6.8234  -15.1115   23.0114 C   0  0  0  0  0  0  0  0  0  0  0  0
    6.9220  -14.8964   24.4573 C   0  0  0  0  0  0  0  0  0  0  0  0
    6.7783  -15.8748   25.4159 C   0  0  0  0  0  0  0  0  0  0  0  0
    6.9471  -15.2372   26.6127 N   0  0  0  0  0  0  0  0  0  0  0  0
    7.1828  -13.9342   26.4088 C   0  0  0  0  0  0  0  0  0  0  0  0
    7.4114  -12.9072   27.2777 C   0  0  0  0  0  0  0  0  0  0  0  0
    7.6347  -11.6168   26.8241 C   0  0  0  0  0  0  0  0  0  0  0  0
    7.6308  -11.3381   25.4661 C   0  0  0  0  0  0  0  0  0  0  0  0
    7.3987  -12.3870   24.6096 C   0  0  0  0  0  0  0  0  0  0  0  0
    7.1748  -13.6782   25.0520 C   0  0  0  0  0  0  0  0  0  0  0  0
    9.1114  -16.0435   22.8804 C   0  0  0  0  0  0  0  0  0  0  0  0
    8.9615  -17.2966   22.6563 O   0  0  0  0  0  0  0  0  0  0  0  0
   13.0558  -17.3314   22.1325 N   0  0  0  0  0  0  0  0  0  0  0  0
   13.4375  -16.4903   23.2133 C   0  0  0  0  0  0  0  0  0  0  0  0
   14.6482  -16.0782   23.1359 O   0  0  0  0  0  0  0  0  0  0  0  0
   12.5216  -16.1361   24.3068 C   0  0  0  0  0  0  0  0  0  0  0  0
   11.1688  -16.7463   24.1006 C   0  0  2  0  0  0  0  0  0  0  0  0
   10.2129  -15.6754   23.6858 N   0  0  0  0  0  0  0  0  0  0  0  0
   10.6675  -17.2198   25.4174 C   0  0  0  0  0  0  0  0  0  0  0  0
   11.1084  -18.4315   25.9943 O   0  0  0  0  0  0  0  0  0  0  0  0
    9.8300  -16.6038   26.1170 O   0  0  0  0  0  0  0  0  0  0  0  0
  2  1  1  6
  2  3  1  0
  4  5  2  0
  4  3  1  0
  6  5  1  0
  7  6  2  0
  8  7  1  0
  8  9  2  0
  9  4  1  0
 10  2  1  0
 11 10  2  0
 12 10  1  0
 13 12  1  0
 13 14  1  1
 15 14  1  0
 16 15  2  0
 17 18  1  0
 17 16  1  0
 18 23  2  0
 19 20  2  0
 19 18  1  0
 20 21  1  0
 21 22  2  0
 23 15  1  0
 23 22  1  0
 24 13  1  0
 24 25  2  0
 26 27  1  0
 27 28  2  0
 27 29  1  0
 30 29  1  1
 30 31  1  0
 31 24  1  0
 32 30  1  0
 33 32  1  0
 34 32  2  0
M  END
$$$$
