FWN.pdb
     RDKit          3D

 34 36  0  0  1  0  0  0  0  0999 V2000
    9.2421  -17.3892   20.0703 N   0  0  0  0  0  0  0  0  0  0  0  0
   10.3925  -16.4772   20.1605 C   0  0  1  0  0  0  0  0  0  0  0  0
   10.2581  -15.4343   19.0542 C   0  0  0  0  0  0  0  0  0  0  0  0
    9.0497  -14.5916   19.2921 C   0  0  0  0  0  0  0  0  0  0  0  0
    9.2075  -13.2445   19.5394 C   0  0  0  0  0  0  0  0  0  0  0  0
    8.1149  -12.4212   19.7604 C   0  0  0  0  0  0  0  0  0  0  0  0
    6.8319  -12.9130   19.7424 C   0  0  0  0  0  0  0  0  0  0  0  0
    6.6656  -14.2654   19.4948 C   0  0  0  0  0  0  0  0  0  0  0  0
    7.7636  -15.0755   19.2759 C   0  0  0  0  0  0  0  0  0  0  0  0
   10.3291  -15.8308   21.4958 C   0  0  0  0  0  0  0  0  0  0  0  0
   11.2219  -15.1268   21.9937 O   0  0  0  0  0  0  0  0  0  0  0  0
    9.1205  -16.0572   22.2471 N   0  0  0  0  0  0  0  0  0  0  0  0
    8.9166  -15.4490   23.5397 C   0  0  1  0  0  0  0  0  0  0  0  0
    7.3858  -15.4227   23.7107 C   0  0  0  0  0  0  0  0  0  0  0  0
    7.0096  -14.9564   25.0478 C   0  0  0  0  0  0  0  0  0  0  0  0
    6.4938  -15.7503   26.0481 C   0  0  0  0  0  0  0  0  0  0  0  0
    6.2930  -14.9122   27.1087 N   0  0  0  0  0  0  0  0  0  0  0  0
    6.6638  -13.6661   26.7849 C   0  0  0  0  0  0  0  0  0  0  0  0
    6.6528  -12.5027   27.4979 C   0  0  0  0  0  0  0  0  0  0  0  0
    7.0944  -11.3129   26.9408 C   0  0  0  0  0  0  0  0  0  0  0  0
    7.5610  -11.2779   25.6358 C   0  0  0  0  0  0  0  0  0  0  0  0
    7.5632  -12.4607   24.9368 C   0  0  0  0  0  0  0  0  0  0  0  0
    7.1247  -13.6531   25.4834 C   0  0  0  0  0  0  0  0  0  0  0  0
    9.5554  -16.2017   24.6090 C   0  0  0  0  0  0  0  0  0  0  0  0
    9.6860  -15.7376   25.7966 O   0  0  0  0  0  0  0  0  0  0  0  0
   10.5731  -21.6244   26.7868 N   0  0  0  0  0  0  0  0  0  0  0  0
   10.2028  -20.2581   26.9192 C   0  0  0  0  0  0  0  0  0  0  0  0
   10.3375  -19.8063   28.1105 O   0  0  0  0  0  0  0  0  0  0  0  0
    9.7143  -19.4540   25.7900 C   0  0  0  0  0  0  0  0  0  0  0  0
   10.5923  -18.2635   25.5518 C   0  0  2  0  0  0  0  0  0  0  0  0
   10.0652  -17.4999   24.3807 N   0  0  0  0  0  0  0  0  0  0  0  0
   11.9291  -18.7513   25.1223 C   0  0  0  0  0  0  0  0  0  0  0  0
   12.9726  -18.9849   26.0453 O   0  0  0  0  0  0  0  0  0  0  0  0
   12.2440  -18.9930   23.9337 O   0  0  0  0  0  0  0  0  0  0  0  0
  2  1  1  1
  2  3  1  0
  4  5  2  0
  4  3  1  0
  6  5  1  0
  7  6  2  0
  8  7  1  0
  8  9  2  0
  9  4  1  0
 10  2  1  0
 11 10  2  0
 12 10  1  0
 13 12  1  0
 13 14  1  1
 15 14  1  0
 16 15  2  0
 17 18  1  0
 17 16  1  0
 18 23  2  0
 19 20  2  0
 19 18  1  0
 20 21  1  0
 21 22  2  0
 23 15  1  0
 23 22  1  0
 24 13  1  0
 24 25  2  0
 26 27  1  0
 27 28  2  0
 27 29  1  0
 30 29  1  6
 30 31  1  0
 31 24  1  0
 32 30  1  0
 33 32  1  0
 34 32  2  0
M  END
$$$$
