FWN.pdb
     RDKit          3D

 34 36  0  0  1  0  0  0  0  0999 V2000
   11.1989  -17.1143   21.0780 N   0  0  0  0  0  0  0  0  0  0  0  0
   10.3584  -16.0963   21.7264 C   0  0  1  0  0  0  0  0  0  0  0  0
    8.9091  -16.3504   21.3211 C   0  0  0  0  0  0  0  0  0  0  0  0
    8.2855  -15.0838   20.8373 C   0  0  0  0  0  0  0  0  0  0  0  0
    6.9483  -15.0781   20.5019 C   0  0  0  0  0  0  0  0  0  0  0  0
    6.3244  -13.9248   20.0534 C   0  0  0  0  0  0  0  0  0  0  0  0
    7.0119  -12.7420   19.9245 C   0  0  0  0  0  0  0  0  0  0  0  0
    8.3557  -12.7402   20.2594 C   0  0  0  0  0  0  0  0  0  0  0  0
    8.9659  -13.8971   20.7056 C   0  0  0  0  0  0  0  0  0  0  0  0
   10.5265  -16.2653   23.1921 C   0  0  0  0  0  0  0  0  0  0  0  0
   11.6005  -16.1650   23.8060 O   0  0  0  0  0  0  0  0  0  0  0  0
    9.3272  -16.5674   23.9317 N   0  0  0  0  0  0  0  0  0  0  0  0
    9.3498  -16.7189   25.3665 C   0  0  1  0  0  0  0  0  0  0  0  0
    7.8675  -16.6480   25.7801 C   0  0  0  0  0  0  0  0  0  0  0  0
    7.2955  -15.3332   25.4790 C   0  0  0  0  0  0  0  0  0  0  0  0
    6.2595  -15.1015   24.6015 C   0  0  0  0  0  0  0  0  0  0  0  0
    6.0544  -13.7508   24.6314 N   0  0  0  0  0  0  0  0  0  0  0  0
    6.9157  -13.1750   25.4809 C   0  0  0  0  0  0  0  0  0  0  0  0
    7.0967  -11.8722   25.8443 C   0  0  0  0  0  0  0  0  0  0  0  0
    8.0711  -11.5094   26.7607 C   0  0  0  0  0  0  0  0  0  0  0  0
    8.8905  -12.4699   27.3334 C   0  0  0  0  0  0  0  0  0  0  0  0
    8.6906  -13.7748   26.9530 C   0  0  0  0  0  0  0  0  0  0  0  0
    7.7212  -14.1473   26.0395 C   0  0  0  0  0  0  0  0  0  0  0  0
    9.9540  -17.9774   25.7776 C   0  0  0  0  0  0  0  0  0  0  0  0
    9.9102  -18.4015   26.9864 O   0  0  0  0  0  0  0  0  0  0  0  0
    8.6337  -21.0006   24.2500 N   0  0  0  0  0  0  0  0  0  0  0  0
    9.8489  -21.7285   24.1278 C   0  0  0  0  0  0  0  0  0  0  0  0
    9.6746  -22.9817   23.9264 O   0  0  0  0  0  0  0  0  0  0  0  0
   11.1700  -21.0918   24.2252 C   0  0  0  0  0  0  0  0  0  0  0  0
   11.2074  -20.0867   25.3357 C   0  0  2  0  0  0  0  0  0  0  0  0
   10.6239  -18.8016   24.8452 N   0  0  0  0  0  0  0  0  0  0  0  0
   12.6302  -19.7745   25.6314 C   0  0  0  0  0  0  0  0  0  0  0  0
   13.1686  -18.4827   25.4393 O   0  0  0  0  0  0  0  0  0  0  0  0
   13.4601  -20.6068   26.0661 O   0  0  0  0  0  0  0  0  0  0  0  0
  2  1  1  6
  2  3  1  0
  4  5  2  0
  4  3  1  0
  6  5  1  0
  7  6  2  0
  8  7  1  0
  8  9  2  0
  9  4  1  0
 10  2  1  0
 11 10  2  0
 12 10  1  0
 13 12  1  0
 13 14  1  6
 15 14  1  0
 16 15  2  0
 17 18  1  0
 17 16  1  0
 18 23  2  0
 19 20  2  0
 19 18  1  0
 20 21  1  0
 21 22  2  0
 23 15  1  0
 23 22  1  0
 24 13  1  0
 24 25  2  0
 26 27  1  0
 27 28  2  0
 27 29  1  0
 30 29  1  6
 30 31  1  0
 31 24  1  0
 32 30  1  0
 33 32  1  0
 34 32  2  0
M  END
$$$$
