FWN.pdb
     RDKit          3D

 34 36  0  0  1  0  0  0  0  0999 V2000
   10.5494  -18.3968   19.9806 N   0  0  0  0  0  0  0  0  0  0  0  0
    9.8820  -17.1165   20.2610 C   0  0  1  0  0  0  0  0  0  0  0  0
    8.6154  -17.0467   19.4122 C   0  0  0  0  0  0  0  0  0  0  0  0
    7.9656  -15.7131   19.5750 C   0  0  0  0  0  0  0  0  0  0  0  0
    6.8265  -15.6098   20.3448 C   0  0  0  0  0  0  0  0  0  0  0  0
    6.1915  -14.3920   20.5295 C   0  0  0  0  0  0  0  0  0  0  0  0
    6.6701  -13.2397   19.9537 C   0  0  0  0  0  0  0  0  0  0  0  0
    7.8139  -13.3359   19.1788 C   0  0  0  0  0  0  0  0  0  0  0  0
    8.4377  -14.5564   19.0027 C   0  0  0  0  0  0  0  0  0  0  0  0
    9.5411  -17.1131   21.7062 C   0  0  0  0  0  0  0  0  0  0  0  0
    9.2247  -18.1132   22.3697 O   0  0  0  0  0  0  0  0  0  0  0  0
    9.5932  -15.8307   22.3614 N   0  0  0  0  0  0  0  0  0  0  0  0
    9.3531  -15.7028   23.7785 C   0  0  1  0  0  0  0  0  0  0  0  0
    9.2078  -14.1859   24.0046 C   0  0  0  0  0  0  0  0  0  0  0  0
    8.9474  -13.8826   25.4142 C   0  0  0  0  0  0  0  0  0  0  0  0
    9.5917  -14.4657   26.4827 C   0  0  0  0  0  0  0  0  0  0  0  0
    9.0420  -13.8918   27.5944 N   0  0  0  0  0  0  0  0  0  0  0  0
    8.1076  -13.0011   27.2362 C   0  0  0  0  0  0  0  0  0  0  0  0
    7.2979  -12.1892   27.9760 C   0  0  0  0  0  0  0  0  0  0  0  0
    6.3905  -11.3336   27.3714 C   0  0  0  0  0  0  0  0  0  0  0  0
    6.2843  -11.2831   25.9901 C   0  0  0  0  0  0  0  0  0  0  0  0
    7.1091  -12.1089   25.2654 C   0  0  0  0  0  0  0  0  0  0  0  0
    8.0178  -12.9662   25.8588 C   0  0  0  0  0  0  0  0  0  0  0  0
    8.1577  -16.4174   24.2009 C   0  0  0  0  0  0  0  0  0  0  0  0
    7.1073  -16.4971   23.4706 O   0  0  0  0  0  0  0  0  0  0  0  0
    5.2964  -19.1073   23.8697 N   0  0  0  0  0  0  0  0  0  0  0  0
    6.6122  -19.4924   23.4933 C   0  0  0  0  0  0  0  0  0  0  0  0
    6.6611  -20.1148   22.3745 O   0  0  0  0  0  0  0  0  0  0  0  0
    7.7930  -19.1982   24.3176 C   0  0  0  0  0  0  0  0  0  0  0  0
    7.4235  -18.3961   25.5280 C   0  0  2  0  0  0  0  0  0  0  0  0
    8.1037  -17.0677   25.4545 N   0  0  0  0  0  0  0  0  0  0  0  0
    8.0078  -19.0614   26.7218 C   0  0  0  0  0  0  0  0  0  0  0  0
    7.2005  -19.6395   27.7266 O   0  0  0  0  0  0  0  0  0  0  0  0
    9.2373  -19.1670   26.9403 O   0  0  0  0  0  0  0  0  0  0  0  0
  2  1  1  6
  2  3  1  0
  4  5  2  0
  4  3  1  0
  6  5  1  0
  7  6  2  0
  8  7  1  0
  8  9  2  0
  9  4  1  0
 10  2  1  0
 11 10  2  0
 12 10  1  0
 13 12  1  0
 13 14  1  6
 15 14  1  0
 16 15  2  0
 17 18  1  0
 17 16  1  0
 18 23  2  0
 19 20  2  0
 19 18  1  0
 20 21  1  0
 21 22  2  0
 23 15  1  0
 23 22  1  0
 24 13  1  0
 24 25  2  0
 26 27  1  0
 27 28  2  0
 27 29  1  0
 30 29  1  6
 30 31  1  0
 31 24  1  0
 32 30  1  0
 33 32  1  0
 34 32  2  0
M  END
$$$$
