FWN.pdb
     RDKit          3D

 34 36  0  0  1  0  0  0  0  0999 V2000
    8.6365  -16.9281   21.7264 N   0  0  0  0  0  0  0  0  0  0  0  0
   10.0417  -16.4937   21.7171 C   0  0  1  0  0  0  0  0  0  0  0  0
   10.1478  -15.2522   20.8357 C   0  0  0  0  0  0  0  0  0  0  0  0
    8.8148  -14.5906   20.7243 C   0  0  0  0  0  0  0  0  0  0  0  0
    8.6929  -13.4478   19.9627 C   0  0  0  0  0  0  0  0  0  0  0  0
    7.4745  -12.8020   19.8252 C   0  0  0  0  0  0  0  0  0  0  0  0
    6.3403  -13.2730   20.4415 C   0  0  0  0  0  0  0  0  0  0  0  0
    6.4552  -14.4204   21.2084 C   0  0  0  0  0  0  0  0  0  0  0  0
    7.6760  -15.0550   21.3373 C   0  0  0  0  0  0  0  0  0  0  0  0
   10.4040  -16.1688   23.1199 C   0  0  0  0  0  0  0  0  0  0  0  0
   11.3938  -15.5063   23.4689 O   0  0  0  0  0  0  0  0  0  0  0  0
    9.5136  -16.6766   24.1329 N   0  0  0  0  0  0  0  0  0  0  0  0
    9.7770  -16.4662   25.5360 C   0  0  1  0  0  0  0  0  0  0  0  0
    8.4115  -16.6814   26.2160 C   0  0  0  0  0  0  0  0  0  0  0  0
    7.4815  -15.5963   25.8929 C   0  0  0  0  0  0  0  0  0  0  0  0
    6.3844  -15.7117   25.0683 C   0  0  0  0  0  0  0  0  0  0  0  0
    5.8109  -14.4714   25.0525 N   0  0  0  0  0  0  0  0  0  0  0  0
    6.5132  -13.6317   25.8248 C   0  0  0  0  0  0  0  0  0  0  0  0
    6.3381  -12.3112   26.1211 C   0  0  0  0  0  0  0  0  0  0  0  0
    7.2115  -11.6405   26.9627 C   0  0  0  0  0  0  0  0  0  0  0  0
    8.2915  -12.3016   27.5270 C   0  0  0  0  0  0  0  0  0  0  0  0
    8.4483  -13.6304   27.2150 C   0  0  0  0  0  0  0  0  0  0  0  0
    7.5826  -14.3088   26.3765 C   0  0  0  0  0  0  0  0  0  0  0  0
   10.7765  -17.3892   26.0527 C   0  0  0  0  0  0  0  0  0  0  0  0
   11.6714  -17.0342   26.8988 O   0  0  0  0  0  0  0  0  0  0  0  0
   14.6521  -20.9200   25.6849 N   0  0  0  0  0  0  0  0  0  0  0  0
   14.1703  -19.6379   25.3039 C   0  0  0  0  0  0  0  0  0  0  0  0
   14.6753  -19.2084   24.2075 O   0  0  0  0  0  0  0  0  0  0  0  0
   13.1880  -18.8890   26.1004 C   0  0  0  0  0  0  0  0  0  0  0  0
   11.8824  -19.6199   26.1787 C   0  0  2  0  0  0  0  0  0  0  0  0
   10.8020  -18.7403   25.6389 N   0  0  0  0  0  0  0  0  0  0  0  0
   11.5423  -19.8101   27.6131 C   0  0  0  0  0  0  0  0  0  0  0  0
   10.3544  -19.2925   28.1756 O   0  0  0  0  0  0  0  0  0  0  0  0
   12.2596  -20.4300   28.4326 O   0  0  0  0  0  0  0  0  0  0  0  0
  2  1  1  1
  2  3  1  0
  4  5  2  0
  4  3  1  0
  6  5  1  0
  7  6  2  0
  8  7  1  0
  8  9  2  0
  9  4  1  0
 10  2  1  0
 11 10  2  0
 12 10  1  0
 13 12  1  0
 13 14  1  1
 15 14  1  0
 16 15  2  0
 17 18  1  0
 17 16  1  0
 18 23  2  0
 19 20  2  0
 19 18  1  0
 20 21  1  0
 21 22  2  0
 23 15  1  0
 23 22  1  0
 24 13  1  0
 24 25  2  0
 26 27  1  0
 27 28  2  0
 27 29  1  0
 30 29  1  1
 30 31  1  0
 31 24  1  0
 32 30  1  0
 33 32  1  0
 34 32  2  0
M  END
$$$$
