FWN.pdb
     RDKit          3D

 34 36  0  0  1  0  0  0  0  0999 V2000
    7.9576  -16.7780   21.6476 N   0  0  0  0  0  0  0  0  0  0  0  0
    8.8018  -15.5736   21.6467 C   0  0  1  0  0  0  0  0  0  0  0  0
    7.8872  -14.3540   21.5735 C   0  0  0  0  0  0  0  0  0  0  0  0
    7.6940  -13.9463   20.1510 C   0  0  0  0  0  0  0  0  0  0  0  0
    6.9113  -12.8475   19.8669 C   0  0  0  0  0  0  0  0  0  0  0  0
    6.7079  -12.4278   18.5619 C   0  0  0  0  0  0  0  0  0  0  0  0
    7.2764  -13.0886   17.4997 C   0  0  0  0  0  0  0  0  0  0  0  0
    8.0639  -14.1934   17.7775 C   0  0  0  0  0  0  0  0  0  0  0  0
    8.2590  -14.6016   19.0833 C   0  0  0  0  0  0  0  0  0  0  0  0
    9.5634  -15.5776   22.9214 C   0  0  0  0  0  0  0  0  0  0  0  0
   10.4855  -14.7975   23.2072 O   0  0  0  0  0  0  0  0  0  0  0  0
    9.1748  -16.5783   23.8828 N   0  0  0  0  0  0  0  0  0  0  0  0
    9.7196  -16.5853   25.2190 C   0  0  1  0  0  0  0  0  0  0  0  0
    8.5029  -16.8550   26.1246 C   0  0  0  0  0  0  0  0  0  0  0  0
    7.5208  -15.7719   26.0296 C   0  0  0  0  0  0  0  0  0  0  0  0
    6.2268  -15.9123   25.5793 C   0  0  0  0  0  0  0  0  0  0  0  0
    5.6772  -14.6638   25.6608 N   0  0  0  0  0  0  0  0  0  0  0  0
    6.5802  -13.7955   26.1357 C   0  0  0  0  0  0  0  0  0  0  0  0
    6.5044  -12.4571   26.3906 C   0  0  0  0  0  0  0  0  0  0  0  0
    7.5910  -11.7569   26.8905 C   0  0  0  0  0  0  0  0  0  0  0  0
    8.7893  -12.4061   27.1449 C   0  0  0  0  0  0  0  0  0  0  0  0
    8.8429  -13.7533   26.8810 C   0  0  0  0  0  0  0  0  0  0  0  0
    7.7645  -14.4612   26.3822 C   0  0  0  0  0  0  0  0  0  0  0  0
   10.7432  -17.6055   25.3907 C   0  0  0  0  0  0  0  0  0  0  0  0
   10.5628  -18.8280   25.0504 O   0  0  0  0  0  0  0  0  0  0  0  0
   14.2077  -17.5276   23.6046 N   0  0  0  0  0  0  0  0  0  0  0  0
   14.6521  -17.0728   24.8762 C   0  0  0  0  0  0  0  0  0  0  0  0
   15.3104  -15.9750   24.8237 O   0  0  0  0  0  0  0  0  0  0  0  0
   14.3756  -17.8018   26.1222 C   0  0  0  0  0  0  0  0  0  0  0  0
   12.9971  -18.3887   26.1130 C   0  0  2  0  0  0  0  0  0  0  0  0
   12.0026  -17.2860   25.9467 N   0  0  0  0  0  0  0  0  0  0  0  0
   12.7237  -18.9525   27.4609 C   0  0  0  0  0  0  0  0  0  0  0  0
   13.4198  -20.0773   27.9569 O   0  0  0  0  0  0  0  0  0  0  0  0
   11.8731  -18.4941   28.2588 O   0  0  0  0  0  0  0  0  0  0  0  0
  2  1  1  1
  2  3  1  0
  4  5  2  0
  4  3  1  0
  6  5  1  0
  7  6  2  0
  8  7  1  0
  8  9  2  0
  9  4  1  0
 10  2  1  0
 11 10  2  0
 12 10  1  0
 13 12  1  0
 13 14  1  1
 15 14  1  0
 16 15  2  0
 17 18  1  0
 17 16  1  0
 18 23  2  0
 19 20  2  0
 19 18  1  0
 20 21  1  0
 21 22  2  0
 23 15  1  0
 23 22  1  0
 24 13  1  0
 24 25  2  0
 26 27  1  0
 27 28  2  0
 27 29  1  0
 30 29  1  1
 30 31  1  0
 31 24  1  0
 32 30  1  0
 33 32  1  0
 34 32  2  0
M  END
$$$$
