FWN.pdb
     RDKit          3D

 34 36  0  0  1  0  0  0  0  0999 V2000
    6.4425  -16.6399   20.8221 N   0  0  0  0  0  0  0  0  0  0  0  0
    7.8920  -16.7191   20.5852 C   0  0  1  0  0  0  0  0  0  0  0  0
    8.1802  -16.1248   19.2093 C   0  0  0  0  0  0  0  0  0  0  0  0
    7.7764  -17.0880   18.1432 C   0  0  0  0  0  0  0  0  0  0  0  0
    7.2760  -16.6033   16.9536 C   0  0  0  0  0  0  0  0  0  0  0  0
    6.8933  -17.4587   15.9327 C   0  0  0  0  0  0  0  0  0  0  0  0
    6.9965  -18.8227   16.0643 C   0  0  0  0  0  0  0  0  0  0  0  0
    7.4982  -19.3169   17.2568 C   0  0  0  0  0  0  0  0  0  0  0  0
    7.8763  -18.4530   18.2670 C   0  0  0  0  0  0  0  0  0  0  0  0
    8.5490  -15.9158   21.6473 C   0  0  0  0  0  0  0  0  0  0  0  0
    8.9248  -14.7391   21.5261 O   0  0  0  0  0  0  0  0  0  0  0  0
    8.7500  -16.5847   22.9078 N   0  0  0  0  0  0  0  0  0  0  0  0
    9.6080  -16.0256   23.9244 C   0  0  1  0  0  0  0  0  0  0  0  0
    8.8631  -16.3008   25.2445 C   0  0  0  0  0  0  0  0  0  0  0  0
    7.6728  -15.4554   25.3678 C   0  0  0  0  0  0  0  0  0  0  0  0
    6.3846  -15.8545   25.0883 C   0  0  0  0  0  0  0  0  0  0  0  0
    5.6039  -14.7615   25.3399 N   0  0  0  0  0  0  0  0  0  0  0  0
    6.3653  -13.7395   25.7530 C   0  0  0  0  0  0  0  0  0  0  0  0
    6.0495  -12.4632   26.1181 C   0  0  0  0  0  0  0  0  0  0  0  0
    7.0274  -11.5661   26.5178 C   0  0  0  0  0  0  0  0  0  0  0  0
    8.3594  -11.9485   26.5560 C   0  0  0  0  0  0  0  0  0  0  0  0
    8.6543  -13.2378   26.1843 C   0  0  0  0  0  0  0  0  0  0  0  0
    7.6862  -14.1407   25.7839 C   0  0  0  0  0  0  0  0  0  0  0  0
   10.9294  -16.6354   23.9257 C   0  0  0  0  0  0  0  0  0  0  0  0
   11.1038  -17.9040   23.9811 O   0  0  0  0  0  0  0  0  0  0  0  0
   13.5671  -16.3412   21.0571 N   0  0  0  0  0  0  0  0  0  0  0  0
   14.3130  -15.4386   21.8634 C   0  0  0  0  0  0  0  0  0  0  0  0
   14.8394  -14.4774   21.1996 O   0  0  0  0  0  0  0  0  0  0  0  0
   14.4579  -15.6043   23.3166 C   0  0  0  0  0  0  0  0  0  0  0  0
   13.4197  -16.5365   23.8625 C   0  0  2  0  0  0  0  0  0  0  0  0
   12.0969  -15.8416   23.8619 N   0  0  0  0  0  0  0  0  0  0  0  0
   13.7242  -16.7816   25.2966 C   0  0  0  0  0  0  0  0  0  0  0  0
   14.8757  -17.4896   25.7068 O   0  0  0  0  0  0  0  0  0  0  0  0
   13.0060  -16.3933   26.2472 O   0  0  0  0  0  0  0  0  0  0  0  0
  2  1  1  1
  2  3  1  0
  4  5  2  0
  4  3  1  0
  6  5  1  0
  7  6  2  0
  8  7  1  0
  8  9  2  0
  9  4  1  0
 10  2  1  0
 11 10  2  0
 12 10  1  0
 13 12  1  0
 13 14  1  1
 15 14  1  0
 16 15  2  0
 17 18  1  0
 17 16  1  0
 18 23  2  0
 19 20  2  0
 19 18  1  0
 20 21  1  0
 21 22  2  0
 23 15  1  0
 23 22  1  0
 24 13  1  0
 24 25  2  0
 26 27  1  0
 27 28  2  0
 27 29  1  0
 30 29  1  1
 30 31  1  0
 31 24  1  0
 32 30  1  0
 33 32  1  0
 34 32  2  0
M  END
$$$$
