FWN.pdb
     RDKit          3D

 34 36  0  0  1  0  0  0  0  0999 V2000
    8.6861  -16.8258   21.7228 N   0  0  0  0  0  0  0  0  0  0  0  0
    9.2011  -15.4905   22.0617 C   0  0  1  0  0  0  0  0  0  0  0  0
    8.0121  -14.5413   22.1841 C   0  0  0  0  0  0  0  0  0  0  0  0
    7.6229  -14.0352   20.8352 C   0  0  0  0  0  0  0  0  0  0  0  0
    8.2643  -12.9281   20.3217 C   0  0  0  0  0  0  0  0  0  0  0  0
    7.9410  -12.4254   19.0714 C   0  0  0  0  0  0  0  0  0  0  0  0
    6.9695  -13.0084   18.2939 C   0  0  0  0  0  0  0  0  0  0  0  0
    6.3208  -14.1209   18.8034 C   0  0  0  0  0  0  0  0  0  0  0  0
    6.6527  -14.6124   20.0516 C   0  0  0  0  0  0  0  0  0  0  0  0
    9.9041  -15.6149   23.3637 C   0  0  0  0  0  0  0  0  0  0  0  0
   10.9116  -14.9717   23.6979 O   0  0  0  0  0  0  0  0  0  0  0  0
    9.3455  -16.5656   24.2915 N   0  0  0  0  0  0  0  0  0  0  0  0
    9.8694  -16.7044   25.6288 C   0  0  1  0  0  0  0  0  0  0  0  0
    8.6287  -16.9910   26.4958 C   0  0  0  0  0  0  0  0  0  0  0  0
    7.5905  -15.9784   26.2868 C   0  0  0  0  0  0  0  0  0  0  0  0
    6.3173  -16.2317   25.8269 C   0  0  0  0  0  0  0  0  0  0  0  0
    5.6975  -15.0144   25.7871 N   0  0  0  0  0  0  0  0  0  0  0  0
    6.5395  -14.0575   26.1997 C   0  0  0  0  0  0  0  0  0  0  0  0
    6.3836  -12.7085   26.3334 C   0  0  0  0  0  0  0  0  0  0  0  0
    7.4176  -11.9061   26.7892 C   0  0  0  0  0  0  0  0  0  0  0  0
    8.6437  -12.4608   27.1224 C   0  0  0  0  0  0  0  0  0  0  0  0
    8.7783  -13.8206   26.9802 C   0  0  0  0  0  0  0  0  0  0  0  0
    7.7528  -14.6301   26.5262 C   0  0  0  0  0  0  0  0  0  0  0  0
   10.8445  -17.7801   25.7289 C   0  0  0  0  0  0  0  0  0  0  0  0
   11.2143  -18.2738   26.8525 O   0  0  0  0  0  0  0  0  0  0  0  0
   10.1798  -20.6862   23.7950 N   0  0  0  0  0  0  0  0  0  0  0  0
   11.3819  -20.7847   23.0423 C   0  0  0  0  0  0  0  0  0  0  0  0
   11.2606  -21.4863   21.9771 O   0  0  0  0  0  0  0  0  0  0  0  0
   12.6351  -20.1390   23.4579 C   0  0  0  0  0  0  0  0  0  0  0  0
   12.4639  -19.4049   24.7527 C   0  0  2  0  0  0  0  0  0  0  0  0
   11.4336  -18.3380   24.5717 N   0  0  0  0  0  0  0  0  0  0  0  0
   13.7259  -18.6752   25.0429 C   0  0  0  0  0  0  0  0  0  0  0  0
   14.2687  -17.7315   24.1427 O   0  0  0  0  0  0  0  0  0  0  0  0
   14.4055  -18.8267   26.0848 O   0  0  0  0  0  0  0  0  0  0  0  0
  2  1  1  1
  2  3  1  0
  4  5  2  0
  4  3  1  0
  6  5  1  0
  7  6  2  0
  8  7  1  0
  8  9  2  0
  9  4  1  0
 10  2  1  0
 11 10  2  0
 12 10  1  0
 13 12  1  0
 13 14  1  1
 15 14  1  0
 16 15  2  0
 17 18  1  0
 17 16  1  0
 18 23  2  0
 19 20  2  0
 19 18  1  0
 20 21  1  0
 21 22  2  0
 23 15  1  0
 23 22  1  0
 24 13  1  0
 24 25  2  0
 26 27  1  0
 27 28  2  0
 27 29  1  0
 30 29  1  6
 30 31  1  0
 31 24  1  0
 32 30  1  0
 33 32  1  0
 34 32  2  0
M  END
$$$$
