LQQ.pdb
     RDKit          3D

 27 26  0  0  1  0  0  0  0  0999 V2000
   27.6093  -22.0240  -12.0281 C   0  0  0  0  0  0  0  0  0  0  0  0
   26.1915  -21.6233  -11.7973 C   0  0  1  0  0  0  0  0  0  0  0  0
   25.7561  -21.8023  -10.3645 C   0  0  0  0  0  0  0  0  0  0  0  0
   25.8971  -20.2104  -12.2437 C   0  0  0  0  0  0  0  0  0  0  0  0
   24.4163  -19.9642  -12.3174 C   0  0  2  0  0  0  0  0  0  0  0  0
   23.7449  -20.8379  -11.3882 N   0  0  0  0  0  0  0  0  0  0  0  0
   23.8836  -20.0603  -13.6856 C   0  0  0  0  0  0  0  0  0  0  0  0
   24.4830  -19.4057  -14.6017 O   0  0  0  0  0  0  0  0  0  0  0  0
   19.1622  -22.6985  -16.0069 N   0  0  0  0  0  0  0  0  0  0  0  0
   19.7713  -22.3635  -17.2601 C   0  0  0  0  0  0  0  0  0  0  0  0
   19.1029  -22.3515  -18.3012 O   0  0  0  0  0  0  0  0  0  0  0  0
   21.2117  -22.0357  -17.2847 C   0  0  0  0  0  0  0  0  0  0  0  0
   21.8584  -22.0909  -15.9373 C   0  0  0  0  0  0  0  0  0  0  0  0
   22.1358  -20.7342  -15.4038 C   0  0  2  0  0  0  0  0  0  0  0  0
   22.7724  -20.8093  -14.0740 N   0  0  0  0  0  0  0  0  0  0  0  0
   20.9606  -19.8302  -15.3341 C   0  0  0  0  0  0  0  0  0  0  0  0
   20.3063  -19.6627  -14.2859 O   0  0  0  0  0  0  0  0  0  0  0  0
   18.6488  -16.4581  -13.2127 N   0  0  0  0  0  0  0  0  0  0  0  0
   18.8576  -15.3974  -14.1153 C   0  0  0  0  0  0  0  0  0  0  0  0
   18.2321  -14.3289  -13.9284 O   0  0  0  0  0  0  0  0  0  0  0  0
   19.7885  -15.5661  -15.2374 C   0  0  0  0  0  0  0  0  0  0  0  0
   20.4038  -16.9076  -15.3773 C   0  0  0  0  0  0  0  0  0  0  0  0
   19.7246  -17.8532  -16.3157 C   0  0  2  0  0  0  0  0  0  0  0  0
   20.5040  -19.0905  -16.4747 N   0  0  0  0  0  0  0  0  0  0  0  0
   19.4313  -17.2487  -17.6336 C   0  0  0  0  0  0  0  0  0  0  0  0
   18.1693  -16.7718  -17.9492 O   0  0  0  0  0  0  0  0  0  0  0  0
   20.3171  -17.1418  -18.5262 O   0  0  0  0  0  0  0  0  0  0  0  0
  2  1  1  1
  2  3  1  0
  4  2  1  0
  5  4  1  0
  5  6  1  1
  7  8  2  0
  7  5  1  0
  9 10  1  0
 10 12  1  0
 11 10  2  0
 12 13  1  0
 14 13  1  1
 14 15  1  0
 15  7  1  0
 16 17  2  0
 16 14  1  0
 18 19  1  0
 19 21  1  0
 20 19  2  0
 21 22  1  0
 23 22  1  1
 23 24  1  0
 24 16  1  0
 25 23  1  0
 26 25  1  0
 27 25  2  0
M  END
$$$$
