LQQ.pdb
     RDKit          3D

 27 26  0  0  1  0  0  0  0  0999 V2000
   27.7271  -12.5495  -18.3877 C   0  0  0  0  0  0  0  0  0  0  0  0
   26.9613  -12.3129  -17.1301 C   0  0  1  0  0  0  0  0  0  0  0  0
   27.7996  -11.6955  -16.0390 C   0  0  0  0  0  0  0  0  0  0  0  0
   25.7168  -11.4836  -17.3437 C   0  0  0  0  0  0  0  0  0  0  0  0
   24.9680  -11.2905  -16.0549 C   0  0  2  0  0  0  0  0  0  0  0  0
   24.6642  -12.5799  -15.4869 N   0  0  0  0  0  0  0  0  0  0  0  0
   23.7821  -10.4318  -16.2006 C   0  0  0  0  0  0  0  0  0  0  0  0
   23.8783   -9.4136  -16.9629 O   0  0  0  0  0  0  0  0  0  0  0  0
   19.1440  -13.2347  -15.4377 N   0  0  0  0  0  0  0  0  0  0  0  0
   19.1576  -12.6594  -16.7502 C   0  0  0  0  0  0  0  0  0  0  0  0
   18.7756  -13.3141  -17.7281 O   0  0  0  0  0  0  0  0  0  0  0  0
   19.6383  -11.2718  -16.9127 C   0  0  0  0  0  0  0  0  0  0  0  0
   20.1132  -10.6526  -15.6368 C   0  0  0  0  0  0  0  0  0  0  0  0
   21.3367   -9.8382  -15.8421 C   0  0  2  0  0  0  0  0  0  0  0  0
   22.5516  -10.6330  -15.5746 N   0  0  0  0  0  0  0  0  0  0  0  0
   21.3945   -8.5771  -15.0614 C   0  0  0  0  0  0  0  0  0  0  0  0
   21.8418   -8.5298  -13.8984 O   0  0  0  0  0  0  0  0  0  0  0  0
   23.5025   -3.1354  -16.8088 N   0  0  0  0  0  0  0  0  0  0  0  0
   22.9654   -2.8180  -15.5462 C   0  0  0  0  0  0  0  0  0  0  0  0
   23.2446   -1.7042  -15.0467 O   0  0  0  0  0  0  0  0  0  0  0  0
   22.1043   -3.7850  -14.8550 C   0  0  0  0  0  0  0  0  0  0  0  0
   21.9045   -5.0849  -15.5392 C   0  0  0  0  0  0  0  0  0  0  0  0
   21.0463   -6.0822  -14.8288 C   0  0  2  0  0  0  0  0  0  0  0  0
   20.9368   -7.3296  -15.6007 N   0  0  0  0  0  0  0  0  0  0  0  0
   19.7046   -5.5562  -14.4947 C   0  0  0  0  0  0  0  0  0  0  0  0
   19.4900   -4.7752  -13.3706 O   0  0  0  0  0  0  0  0  0  0  0  0
   18.6989   -5.7964  -15.2184 O   0  0  0  0  0  0  0  0  0  0  0  0
  2  1  1  6
  2  3  1  0
  4  2  1  0
  5  4  1  0
  5  6  1  6
  7  8  2  0
  7  5  1  0
  9 10  1  0
 10 12  1  0
 11 10  2  0
 12 13  1  0
 14 13  1  1
 14 15  1  0
 15  7  1  0
 16 17  2  0
 16 14  1  0
 18 19  1  0
 19 21  1  0
 20 19  2  0
 21 22  1  0
 23 22  1  6
 23 24  1  0
 24 16  1  0
 25 23  1  0
 26 25  1  0
 27 25  2  0
M  END
$$$$
