LQQ.pdb
     RDKit          3D

 27 26  0  0  1  0  0  0  0  0999 V2000
   19.5030  -15.0644  -18.1373 C   0  0  0  0  0  0  0  0  0  0  0  0
   18.7675  -13.8923  -17.5812 C   0  0  1  0  0  0  0  0  0  0  0  0
   17.8697  -14.2565  -16.4254 C   0  0  0  0  0  0  0  0  0  0  0  0
   19.6815  -12.7599  -17.1757 C   0  0  0  0  0  0  0  0  0  0  0  0
   18.8964  -11.5169  -16.8632 C   0  0  2  0  0  0  0  0  0  0  0  0
   17.5970  -11.6108  -17.4800 N   0  0  0  0  0  0  0  0  0  0  0  0
   19.6120  -10.2800  -17.2138 C   0  0  0  0  0  0  0  0  0  0  0  0
   20.7295  -10.0594  -16.6398 O   0  0  0  0  0  0  0  0  0  0  0  0
   19.0098   -6.8386  -22.4922 N   0  0  0  0  0  0  0  0  0  0  0  0
   20.0849   -6.1808  -21.8101 C   0  0  0  0  0  0  0  0  0  0  0  0
   20.6735   -5.2275  -22.3353 O   0  0  0  0  0  0  0  0  0  0  0  0
   20.4776   -6.6640  -20.4703 C   0  0  0  0  0  0  0  0  0  0  0  0
   19.6285   -7.7892  -19.9703 C   0  0  0  0  0  0  0  0  0  0  0  0
   19.9794   -8.1675  -18.5789 C   0  0  2  0  0  0  0  0  0  0  0  0
   19.1743   -9.3188  -18.1254 N   0  0  0  0  0  0  0  0  0  0  0  0
   19.8753   -7.0734  -17.5813 C   0  0  0  0  0  0  0  0  0  0  0  0
   18.7802   -6.5984  -17.2208 O   0  0  0  0  0  0  0  0  0  0  0  0
   21.9857   -6.5881  -12.0730 N   0  0  0  0  0  0  0  0  0  0  0  0
   20.6880   -6.8764  -12.5382 C   0  0  0  0  0  0  0  0  0  0  0  0
   19.9004   -7.4697  -11.7665 O   0  0  0  0  0  0  0  0  0  0  0  0
   20.2948   -6.4816  -13.8960 C   0  0  0  0  0  0  0  0  0  0  0  0
   21.2992   -5.7105  -14.6669 C   0  0  0  0  0  0  0  0  0  0  0  0
   20.9187   -5.3385  -16.0643 C   0  0  2  0  0  0  0  0  0  0  0  0
   21.0346   -6.4930  -16.9684 N   0  0  0  0  0  0  0  0  0  0  0  0
   21.6885   -4.1882  -16.5862 C   0  0  0  0  0  0  0  0  0  0  0  0
   22.4091   -4.2721  -17.7667 O   0  0  0  0  0  0  0  0  0  0  0  0
   21.7222   -3.0823  -15.9790 O   0  0  0  0  0  0  0  0  0  0  0  0
  2  1  1  1
  2  3  1  0
  4  2  1  0
  5  4  1  0
  5  6  1  6
  7  8  2  0
  7  5  1  0
  9 10  1  0
 10 12  1  0
 11 10  2  0
 12 13  1  0
 14 13  1  6
 14 15  1  0
 15  7  1  0
 16 17  2  0
 16 14  1  0
 18 19  1  0
 19 21  1  0
 20 19  2  0
 21 22  1  0
 23 22  1  1
 23 24  1  0
 24 16  1  0
 25 23  1  0
 26 25  1  0
 27 25  2  0
M  END
$$$$
