LQQ.pdb
     RDKit          3D

 27 26  0  0  1  0  0  0  0  0999 V2000
   26.7899   -9.2902  -16.5676 C   0  0  0  0  0  0  0  0  0  0  0  0
   26.2215  -10.5171  -15.9388 C   0  0  1  0  0  0  0  0  0  0  0  0
   27.2386  -11.2933  -15.1404 C   0  0  0  0  0  0  0  0  0  0  0  0
   25.0117  -10.2339  -15.0795 C   0  0  0  0  0  0  0  0  0  0  0  0
   23.7647  -10.1453  -15.9139 C   0  0  2  0  0  0  0  0  0  0  0  0
   24.1321   -9.9496  -17.2939 N   0  0  0  0  0  0  0  0  0  0  0  0
   22.8133   -9.1361  -15.4228 C   0  0  0  0  0  0  0  0  0  0  0  0
   22.3743   -9.2660  -14.2322 O   0  0  0  0  0  0  0  0  0  0  0  0
   20.7551   -3.3781  -14.8250 N   0  0  0  0  0  0  0  0  0  0  0  0
   22.0082   -3.8553  -14.3194 C   0  0  0  0  0  0  0  0  0  0  0  0
   22.5836   -3.2597  -13.4000 O   0  0  0  0  0  0  0  0  0  0  0  0
   22.6000   -5.0694  -14.9183 C   0  0  0  0  0  0  0  0  0  0  0  0
   21.7518   -5.6800  -15.9881 C   0  0  0  0  0  0  0  0  0  0  0  0
   21.3524   -7.0683  -15.6487 C   0  0  2  0  0  0  0  0  0  0  0  0
   22.3443   -8.0407  -16.1485 N   0  0  0  0  0  0  0  0  0  0  0  0
   19.9993   -7.4672  -16.1104 C   0  0  0  0  0  0  0  0  0  0  0  0
   18.9668   -6.8632  -15.7581 O   0  0  0  0  0  0  0  0  0  0  0  0
   15.7302   -6.8892  -17.1370 N   0  0  0  0  0  0  0  0  0  0  0  0
   15.4772   -7.6706  -18.2811 C   0  0  0  0  0  0  0  0  0  0  0  0
   14.2867   -7.8467  -18.6266 O   0  0  0  0  0  0  0  0  0  0  0  0
   16.5973   -8.2520  -19.0303 C   0  0  0  0  0  0  0  0  0  0  0  0
   17.9513   -7.9883  -18.4871 C   0  0  0  0  0  0  0  0  0  0  0  0
   18.4486   -8.9476  -17.4534 C   0  0  2  0  0  0  0  0  0  0  0  0
   19.7964   -8.5778  -16.9947 N   0  0  0  0  0  0  0  0  0  0  0  0
   18.4208  -10.3545  -17.9096 C   0  0  0  0  0  0  0  0  0  0  0  0
   19.5742  -11.1193  -17.9760 O   0  0  0  0  0  0  0  0  0  0  0  0
   17.3464  -10.9178  -18.2579 O   0  0  0  0  0  0  0  0  0  0  0  0
  2  1  1  1
  2  3  1  0
  4  2  1  0
  5  4  1  0
  5  6  1  6
  7  8  2  0
  7  5  1  0
  9 10  1  0
 10 12  1  0
 11 10  2  0
 12 13  1  0
 14 13  1  6
 14 15  1  0
 15  7  1  0
 16 17  2  0
 16 14  1  0
 18 19  1  0
 19 21  1  0
 20 19  2  0
 21 22  1  0
 23 22  1  6
 23 24  1  0
 24 16  1  0
 25 23  1  0
 26 25  1  0
 27 25  2  0
M  END
$$$$
