LQQ.pdb
     RDKit          3D

 27 26  0  0  1  0  0  0  0  0999 V2000
   25.1142  -11.4993  -15.9207 C   0  0  0  0  0  0  0  0  0  0  0  0
   23.6554  -11.2010  -15.8373 C   0  0  1  0  0  0  0  0  0  0  0  0
   22.8068  -12.4432  -15.7312 C   0  0  0  0  0  0  0  0  0  0  0  0
   23.3098  -10.2535  -14.7127 C   0  0  0  0  0  0  0  0  0  0  0  0
   21.8340   -9.9715  -14.6776 C   0  0  2  0  0  0  0  0  0  0  0  0
   21.3845   -9.6392  -16.0062 N   0  0  0  0  0  0  0  0  0  0  0  0
   21.4642   -8.9600  -13.6750 C   0  0  0  0  0  0  0  0  0  0  0  0
   21.8149   -9.1685  -12.4664 O   0  0  0  0  0  0  0  0  0  0  0  0
   22.2160   -3.0634  -13.7988 N   0  0  0  0  0  0  0  0  0  0  0  0
   21.2523   -3.5757  -14.7275 C   0  0  0  0  0  0  0  0  0  0  0  0
   20.9554   -2.9351  -15.7436 O   0  0  0  0  0  0  0  0  0  0  0  0
   20.6193   -4.8809  -14.4470 C   0  0  0  0  0  0  0  0  0  0  0  0
   21.0591   -5.4906  -13.1541 C   0  0  0  0  0  0  0  0  0  0  0  0
   20.3888   -6.7904  -12.9021 C   0  0  2  0  0  0  0  0  0  0  0  0
   20.7587   -7.7837  -13.9297 N   0  0  0  0  0  0  0  0  0  0  0  0
   18.9100   -6.7276  -12.7911 C   0  0  0  0  0  0  0  0  0  0  0  0
   18.1566   -6.9309  -13.7638 O   0  0  0  0  0  0  0  0  0  0  0  0
   15.3508   -7.3467   -7.5046 N   0  0  0  0  0  0  0  0  0  0  0  0
   14.4103   -6.9832   -8.4878 C   0  0  0  0  0  0  0  0  0  0  0  0
   13.1962   -7.0035   -8.1823 O   0  0  0  0  0  0  0  0  0  0  0  0
   14.8675   -6.5953   -9.8275 C   0  0  0  0  0  0  0  0  0  0  0  0
   16.3240   -6.7123  -10.0780 C   0  0  0  0  0  0  0  0  0  0  0  0
   16.7872   -6.3787  -11.4601 C   0  0  2  0  0  0  0  0  0  0  0  0
   18.2545   -6.4275  -11.5515 N   0  0  0  0  0  0  0  0  0  0  0  0
   16.2777   -5.0762  -11.9418 C   0  0  0  0  0  0  0  0  0  0  0  0
   16.9362   -3.8899  -11.6607 O   0  0  0  0  0  0  0  0  0  0  0  0
   15.2224   -4.9895  -12.6284 O   0  0  0  0  0  0  0  0  0  0  0  0
  2  1  1  1
  2  3  1  0
  4  2  1  0
  5  4  1  0
  5  6  1  6
  7  8  2  0
  7  5  1  0
  9 10  1  0
 10 12  1  0
 11 10  2  0
 12 13  1  0
 14 13  1  6
 14 15  1  0
 15  7  1  0
 16 17  2  0
 16 14  1  0
 18 19  1  0
 19 21  1  0
 20 19  2  0
 21 22  1  0
 23 22  1  1
 23 24  1  0
 24 16  1  0
 25 23  1  0
 26 25  1  0
 27 25  2  0
M  END
$$$$
