LQQ.pdb
     RDKit          3D

 27 26  0  0  1  0  0  0  0  0999 V2000
   16.6395  -15.9271  -19.5695 C   0  0  0  0  0  0  0  0  0  0  0  0
   17.8278  -15.4061  -18.8344 C   0  0  1  0  0  0  0  0  0  0  0  0
   19.0545  -15.2945  -19.7046 C   0  0  0  0  0  0  0  0  0  0  0  0
   17.5675  -14.0830  -18.1534 C   0  0  0  0  0  0  0  0  0  0  0  0
   18.7987  -13.5860  -17.4490 C   0  0  2  0  0  0  0  0  0  0  0  0
   19.1407  -14.5031  -16.3909 N   0  0  0  0  0  0  0  0  0  0  0  0
   18.6763  -12.1943  -16.9875 C   0  0  0  0  0  0  0  0  0  0  0  0
   18.4137  -11.3019  -17.8602 O   0  0  0  0  0  0  0  0  0  0  0  0
   16.6286   -9.9401  -11.5323 N   0  0  0  0  0  0  0  0  0  0  0  0
   17.0369   -8.7449  -12.2094 C   0  0  0  0  0  0  0  0  0  0  0  0
   16.7706   -7.6324  -11.7378 O   0  0  0  0  0  0  0  0  0  0  0  0
   17.7789   -8.8669  -13.4812 C   0  0  0  0  0  0  0  0  0  0  0  0
   17.9063  -10.2769  -13.9636 C   0  0  0  0  0  0  0  0  0  0  0  0
   18.6760  -10.3582  -15.2297 C   0  0  2  0  0  0  0  0  0  0  0  0
   18.8228  -11.7596  -15.6698 N   0  0  0  0  0  0  0  0  0  0  0  0
   20.0117   -9.7115  -15.1997 C   0  0  0  0  0  0  0  0  0  0  0  0
   21.0701  -10.3653  -15.1144 O   0  0  0  0  0  0  0  0  0  0  0  0
   24.4520   -7.9897  -18.3072 N   0  0  0  0  0  0  0  0  0  0  0  0
   23.2559   -7.3635  -18.7079 C   0  0  0  0  0  0  0  0  0  0  0  0
   23.2304   -6.7936  -19.8225 O   0  0  0  0  0  0  0  0  0  0  0  0
   22.0850   -7.3922  -17.8235 C   0  0  0  0  0  0  0  0  0  0  0  0
   22.2276   -8.1856  -16.5793 C   0  0  0  0  0  0  0  0  0  0  0  0
   21.4981   -7.6724  -15.3792 C   0  0  2  0  0  0  0  0  0  0  0  0
   20.1666   -8.2874  -15.2674 N   0  0  0  0  0  0  0  0  0  0  0  0
   21.3948   -6.1969  -15.3529 C   0  0  0  0  0  0  0  0  0  0  0  0
   22.4818   -5.3983  -15.0358 O   0  0  0  0  0  0  0  0  0  0  0  0
   20.3132   -5.6029  -15.6176 O   0  0  0  0  0  0  0  0  0  0  0  0
  2  1  1  6
  2  3  1  0
  4  2  1  0
  5  4  1  0
  5  6  1  1
  7  8  2  0
  7  5  1  0
  9 10  1  0
 10 12  1  0
 11 10  2  0
 12 13  1  0
 14 13  1  1
 14 15  1  0
 15  7  1  0
 16 17  2  0
 16 14  1  0
 18 19  1  0
 19 21  1  0
 20 19  2  0
 21 22  1  0
 23 22  1  6
 23 24  1  0
 24 16  1  0
 25 23  1  0
 26 25  1  0
 27 25  2  0
M  END
$$$$
