PFA.pdb
     RDKit          3D

 24 25  0  0  1  0  0  0  0  0999 V2000
    7.7188  -15.2917   19.0997 N   0  0  0  0  0  0  0  0  0  0  0  0
    7.1052  -14.5891   17.9830 C   0  0  0  0  0  0  0  0  0  0  0  0
    8.1844  -13.6051   17.5074 C   0  0  0  0  0  0  0  0  0  0  0  0
    8.7347  -13.2104   18.8856 C   0  0  0  0  0  0  0  0  0  0  0  0
    8.8915  -14.5959   19.4876 C   0  0  1  0  0  0  0  0  0  0  0  0
    9.0867  -14.4666   20.9397 C   0  0  0  0  0  0  0  0  0  0  0  0
   10.2134  -14.1748   21.4127 O   0  0  0  0  0  0  0  0  0  0  0  0
    8.0164  -14.6666   21.8406 N   0  0  0  0  0  0  0  0  0  0  0  0
    8.0688  -14.4015   23.2516 C   0  0  1  0  0  0  0  0  0  0  0  0
    6.9430  -13.5248   23.6720 C   0  0  0  0  0  0  0  0  0  0  0  0
    7.0634  -13.1235   25.0944 C   0  0  0  0  0  0  0  0  0  0  0  0
    8.1410  -12.3690   25.4953 C   0  0  0  0  0  0  0  0  0  0  0  0
    8.3054  -11.9661   26.8125 C   0  0  0  0  0  0  0  0  0  0  0  0
    7.3478  -12.3459   27.7253 C   0  0  0  0  0  0  0  0  0  0  0  0
    6.2556  -13.0997   27.3672 C   0  0  0  0  0  0  0  0  0  0  0  0
    6.1345  -13.4801   26.0318 C   0  0  0  0  0  0  0  0  0  0  0  0
    8.1954  -15.6338   24.0612 C   0  0  0  0  0  0  0  0  0  0  0  0
    7.2118  -16.4302   24.0299 O   0  0  0  0  0  0  0  0  0  0  0  0
   10.3101  -18.1973   24.6145 C   0  0  0  0  0  0  0  0  0  0  0  0
    9.3922  -17.3014   25.4146 C   0  0  2  0  0  0  0  0  0  0  0  0
    9.3008  -15.9743   24.8420 N   0  0  0  0  0  0  0  0  0  0  0  0
    9.8847  -17.1949   26.7885 C   0  0  0  0  0  0  0  0  0  0  0  0
   10.1580  -16.0687   27.2650 O   0  0  0  0  0  0  0  0  0  0  0  0
   10.0575  -18.3340   27.5864 O   0  0  0  0  0  0  0  0  0  0  0  0
  1  2  1  0
  3  2  1  0
  4  5  1  0
  4  3  1  0
  5  1  1  0
  6  8  1  0
  5  6  1  1
  7  6  2  0
  9  8  1  0
  9 10  1  1
 10 11  1  0
 11 12  2  0
 11 16  1  0
 12 13  1  0
 13 14  2  0
 15 14  1  0
 16 15  2  0
 17 18  2  0
 17  9  1  0
 20 19  1  6
 20 22  1  0
 20 21  1  0
 21 17  1  0
 22 24  1  0
 23 22  2  0
M  END
$$$$
