PFA.pdb
     RDKit          3D

 24 25  0  0  1  0  0  0  0  0999 V2000
    7.7520  -15.3055   19.1369 N   0  0  0  0  0  0  0  0  0  0  0  0
    7.0735  -14.7157   17.9926 C   0  0  0  0  0  0  0  0  0  0  0  0
    8.0418  -13.6369   17.4850 C   0  0  0  0  0  0  0  0  0  0  0  0
    8.5347  -13.1342   18.8496 C   0  0  0  0  0  0  0  0  0  0  0  0
    8.8381  -14.4713   19.5030 C   0  0  1  0  0  0  0  0  0  0  0  0
    9.0068  -14.2686   20.9500 C   0  0  0  0  0  0  0  0  0  0  0  0
   10.0709  -13.7857   21.4111 O   0  0  0  0  0  0  0  0  0  0  0  0
    7.9802  -14.6103   21.8593 N   0  0  0  0  0  0  0  0  0  0  0  0
    8.0299  -14.3864   23.2776 C   0  0  1  0  0  0  0  0  0  0  0  0
    6.7944  -13.7088   23.7543 C   0  0  0  0  0  0  0  0  0  0  0  0
    6.9221  -13.2658   25.1637 C   0  0  0  0  0  0  0  0  0  0  0  0
    6.2934  -13.9800   26.1566 C   0  0  0  0  0  0  0  0  0  0  0  0
    6.3774  -13.6113   27.4913 C   0  0  0  0  0  0  0  0  0  0  0  0
    7.1180  -12.4942   27.8044 C   0  0  0  0  0  0  0  0  0  0  0  0
    7.7621  -11.7520   26.8433 C   0  0  0  0  0  0  0  0  0  0  0  0
    7.6480  -12.1624   25.5163 C   0  0  0  0  0  0  0  0  0  0  0  0
    8.3669  -15.6098   24.0388 C   0  0  0  0  0  0  0  0  0  0  0  0
    7.5392  -16.5647   23.9628 O   0  0  0  0  0  0  0  0  0  0  0  0
   11.0875  -17.6539   24.9762 C   0  0  0  0  0  0  0  0  0  0  0  0
    9.7710  -17.0684   25.4338 C   0  0  2  0  0  0  0  0  0  0  0  0
    9.5105  -15.7830   24.8197 N   0  0  0  0  0  0  0  0  0  0  0  0
    9.7839  -16.9080   26.8883 C   0  0  0  0  0  0  0  0  0  0  0  0
    9.6914  -15.7626   27.3879 O   0  0  0  0  0  0  0  0  0  0  0  0
    9.8981  -18.0163   27.7384 O   0  0  0  0  0  0  0  0  0  0  0  0
  1  2  1  0
  3  2  1  0
  4  5  1  0
  4  3  1  0
  5  1  1  0
  6  8  1  0
  5  6  1  1
  7  6  2  0
  9  8  1  0
  9 10  1  1
 10 11  1  0
 11 12  2  0
 11 16  1  0
 12 13  1  0
 13 14  2  0
 15 14  1  0
 16 15  2  0
 17 18  2  0
 17  9  1  0
 20 19  1  6
 20 22  1  0
 20 21  1  0
 21 17  1  0
 22 24  1  0
 23 22  2  0
M  END
$$$$
