PFA.pdb
     RDKit          3D

 24 25  0  0  1  0  0  0  0  0999 V2000
    7.5663  -14.9456   19.7060 N   0  0  0  0  0  0  0  0  0  0  0  0
    6.8106  -14.0963   18.7977 C   0  0  0  0  0  0  0  0  0  0  0  0
    7.7585  -12.9295   18.4832 C   0  0  0  0  0  0  0  0  0  0  0  0
    8.3720  -12.7709   19.8818 C   0  0  0  0  0  0  0  0  0  0  0  0
    8.6972  -14.2265   20.1681 C   0  0  1  0  0  0  0  0  0  0  0  0
    8.9876  -14.3781   21.6021 C   0  0  0  0  0  0  0  0  0  0  0  0
   10.0421  -13.9078   22.0970 O   0  0  0  0  0  0  0  0  0  0  0  0
    8.0919  -15.0550   22.4605 N   0  0  0  0  0  0  0  0  0  0  0  0
    8.2238  -15.1348   23.8889 C   0  0  1  0  0  0  0  0  0  0  0  0
    6.9102  -14.9355   24.5579 C   0  0  0  0  0  0  0  0  0  0  0  0
    6.8779  -13.6732   25.3354 C   0  0  0  0  0  0  0  0  0  0  0  0
    5.7364  -13.3308   26.0217 C   0  0  0  0  0  0  0  0  0  0  0  0
    5.6493  -12.1622   26.7641 C   0  0  0  0  0  0  0  0  0  0  0  0
    6.7515  -11.3386   26.7985 C   0  0  0  0  0  0  0  0  0  0  0  0
    7.9118  -11.6429   26.1273 C   0  0  0  0  0  0  0  0  0  0  0  0
    7.9507  -12.8282   25.3951 C   0  0  0  0  0  0  0  0  0  0  0  0
    8.9355  -16.3548   24.3307 C   0  0  0  0  0  0  0  0  0  0  0  0
    8.2183  -17.2808   24.8112 O   0  0  0  0  0  0  0  0  0  0  0  0
   12.2577  -18.0440   24.1301 C   0  0  0  0  0  0  0  0  0  0  0  0
   10.8840  -17.8044   24.7140 C   0  0  2  0  0  0  0  0  0  0  0  0
   10.3148  -16.5537   24.2568 N   0  0  0  0  0  0  0  0  0  0  0  0
   10.9679  -17.7841   26.1748 C   0  0  0  0  0  0  0  0  0  0  0  0
   10.5230  -16.7993   26.8091 O   0  0  0  0  0  0  0  0  0  0  0  0
   11.5391  -18.8504   26.8825 O   0  0  0  0  0  0  0  0  0  0  0  0
  1  2  1  0
  3  2  1  0
  4  5  1  0
  4  3  1  0
  5  1  1  0
  6  8  1  0
  5  6  1  1
  7  6  2  0
  9  8  1  0
  9 10  1  1
 10 11  1  0
 11 12  2  0
 11 16  1  0
 12 13  1  0
 13 14  2  0
 15 14  1  0
 16 15  2  0
 17 18  2  0
 17  9  1  0
 20 19  1  6
 20 22  1  0
 20 21  1  0
 21 17  1  0
 22 24  1  0
 23 22  2  0
M  END
$$$$
