GPK.pdb
     RDKit          3D

 21 21  0  0  1  0  0  0  0  0999 V2000
    8.3698  -15.5248   14.9712 N   0  0  0  0  0  0  0  0  0  0  0  0
    7.9805  -15.1658   16.2982 C   0  0  0  0  0  0  0  0  0  0  0  0
    9.0707  -14.8780   17.2279 C   0  0  0  0  0  0  0  0  0  0  0  0
   10.2341  -15.1715   16.8568 O   0  0  0  0  0  0  0  0  0  0  0  0
    8.8636  -14.2980   18.4898 N   0  0  0  0  0  0  0  0  0  0  0  0
    7.5104  -13.9844   18.9788 C   0  0  0  0  0  0  0  0  0  0  0  0
    7.6560  -12.7092   19.7463 C   0  0  0  0  0  0  0  0  0  0  0  0
    9.0704  -12.6970   20.2206 C   0  0  0  0  0  0  0  0  0  0  0  0
    9.7292  -13.8839   19.5514 C   0  0  1  0  0  0  0  0  0  0  0  0
    9.7359  -15.0057   20.5606 C   0  0  0  0  0  0  0  0  0  0  0  0
    8.7098  -15.6632   20.8468 O   0  0  0  0  0  0  0  0  0  0  0  0
   10.9308  -15.3453   21.2197 N   0  0  0  0  0  0  0  0  0  0  0  0
   10.9923  -16.5585   22.0115 C   0  0  1  0  0  0  0  0  0  0  0  0
   12.1782  -17.3255   21.4071 C   0  0  0  0  0  0  0  0  0  0  0  0
   13.4826  -16.8211   21.9019 C   0  0  0  0  0  0  0  0  0  0  0  0
   14.2164  -18.0190   22.5260 C   0  0  0  0  0  0  0  0  0  0  0  0
   15.5989  -17.4798   22.9047 C   0  0  0  0  0  0  0  0  0  0  0  0
   16.2661  -18.5274   23.6495 N   0  0  0  0  0  0  0  0  0  0  0  0
   11.1479  -16.2928   23.4381 C   0  0  0  0  0  0  0  0  0  0  0  0
   11.3927  -15.1405   23.8615 O   0  0  0  0  0  0  0  0  0  0  0  0
   11.0239  -17.3196   24.3464 O   0  0  0  0  0  0  0  0  0  0  0  0
  1  2  1  0
  3  2  1  0
  3  4  2  0
  5  3  1  0
  6  5  1  0
  7  8  1  0
  7  6  1  0
  8  9  1  0
  9  5  1  0
  9 10  1  1
 10 11  2  0
 12 10  1  0
 12 13  1  0
 13 14  1  6
 14 15  1  0
 15 16  1  0
 16 17  1  0
 18 17  1  0
 19 13  1  0
 19 21  1  0
 20 19  2  0
M  END
$$$$
