GPK.pdb
     RDKit          3D

 21 21  0  0  1  0  0  0  0  0999 V2000
    4.4537  -17.7491   21.2635 N   0  0  0  0  0  0  0  0  0  0  0  0
    5.1409  -16.5014   21.3746 C   0  0  0  0  0  0  0  0  0  0  0  0
    6.5467  -16.5085   20.9750 C   0  0  0  0  0  0  0  0  0  0  0  0
    7.0609  -17.6220   20.7048 O   0  0  0  0  0  0  0  0  0  0  0  0
    7.3197  -15.3398   20.8851 N   0  0  0  0  0  0  0  0  0  0  0  0
    6.7385  -14.0120   21.1449 C   0  0  0  0  0  0  0  0  0  0  0  0
    7.4075  -13.0935   20.1726 C   0  0  0  0  0  0  0  0  0  0  0  0
    8.7295  -13.7226   19.8858 C   0  0  0  0  0  0  0  0  0  0  0  0
    8.6896  -15.0719   20.5701 C   0  0  1  0  0  0  0  0  0  0  0  0
    9.4091  -14.9148   21.8872 C   0  0  0  0  0  0  0  0  0  0  0  0
    8.8327  -14.5319   22.9303 O   0  0  0  0  0  0  0  0  0  0  0  0
   10.7827  -15.2040   21.9717 N   0  0  0  0  0  0  0  0  0  0  0  0
   11.3092  -15.8374   23.1651 C   0  0  1  0  0  0  0  0  0  0  0  0
   10.4569  -17.1078   23.3067 C   0  0  0  0  0  0  0  0  0  0  0  0
   11.0623  -18.0873   24.2420 C   0  0  0  0  0  0  0  0  0  0  0  0
   10.5942  -17.7030   25.6549 C   0  0  0  0  0  0  0  0  0  0  0  0
   11.3273  -18.6702   26.5890 C   0  0  0  0  0  0  0  0  0  0  0  0
   10.8776  -18.3740   27.9334 N   0  0  0  0  0  0  0  0  0  0  0  0
   12.7393  -16.1132   23.0722 C   0  0  0  0  0  0  0  0  0  0  0  0
   13.2184  -16.7395   22.1000 O   0  0  0  0  0  0  0  0  0  0  0  0
   13.5890  -15.6807   24.0651 O   0  0  0  0  0  0  0  0  0  0  0  0
  1  2  1  0
  3  2  1  0
  3  4  2  0
  5  3  1  0
  6  5  1  0
  7  8  1  0
  7  6  1  0
  8  9  1  0
  9  5  1  0
  9 10  1  1
 10 11  2  0
 12 10  1  0
 12 13  1  0
 13 14  1  6
 14 15  1  0
 15 16  1  0
 16 17  1  0
 18 17  1  0
 19 13  1  0
 19 21  1  0
 20 19  2  0
M  END
$$$$
