GPK.pdb
     RDKit          3D

 21 21  0  0  1  0  0  0  0  0999 V2000
    7.8882  -16.9537   16.0531 N   0  0  0  0  0  0  0  0  0  0  0  0
    7.7104  -15.9100   17.0125 C   0  0  0  0  0  0  0  0  0  0  0  0
    8.9126  -15.4900   17.7296 C   0  0  0  0  0  0  0  0  0  0  0  0
    9.9806  -16.0947   17.4630 O   0  0  0  0  0  0  0  0  0  0  0  0
    8.9110  -14.4580   18.6817 N   0  0  0  0  0  0  0  0  0  0  0  0
    7.6821  -13.7151   19.0079 C   0  0  0  0  0  0  0  0  0  0  0  0
    8.1259  -12.3066   19.2443 C   0  0  0  0  0  0  0  0  0  0  0  0
    9.5455  -12.4131   19.6905 C   0  0  0  0  0  0  0  0  0  0  0  0
    9.9128  -13.8712   19.5182 C   0  0  1  0  0  0  0  0  0  0  0  0
    9.7726  -14.5196   20.8736 C   0  0  0  0  0  0  0  0  0  0  0  0
    8.6698  -14.8941   21.3325 O   0  0  0  0  0  0  0  0  0  0  0  0
   10.9121  -14.7224   21.6723 N   0  0  0  0  0  0  0  0  0  0  0  0
   11.0584  -15.9621   22.4100 C   0  0  1  0  0  0  0  0  0  0  0  0
   11.1373  -17.0311   21.3094 C   0  0  0  0  0  0  0  0  0  0  0  0
   11.4490  -18.3750   21.8550 C   0  0  0  0  0  0  0  0  0  0  0  0
   11.5572  -19.3295   20.6548 C   0  0  0  0  0  0  0  0  0  0  0  0
   11.9156  -20.6883   21.2637 C   0  0  0  0  0  0  0  0  0  0  0  0
   12.1240  -21.5996   20.1576 N   0  0  0  0  0  0  0  0  0  0  0  0
   12.2214  -15.9591   23.2916 C   0  0  0  0  0  0  0  0  0  0  0  0
   12.1815  -16.4963   24.4216 O   0  0  0  0  0  0  0  0  0  0  0  0
   13.3914  -15.3590   22.8845 O   0  0  0  0  0  0  0  0  0  0  0  0
  1  2  1  0
  3  2  1  0
  3  4  2  0
  5  3  1  0
  6  5  1  0
  7  8  1  0
  7  6  1  0
  8  9  1  0
  9  5  1  0
  9 10  1  1
 10 11  2  0
 12 10  1  0
 12 13  1  0
 13 14  1  6
 14 15  1  0
 15 16  1  0
 16 17  1  0
 18 17  1  0
 19 13  1  0
 19 21  1  0
 20 19  2  0
M  END
$$$$
