GPK.pdb
     RDKit          3D

 21 21  0  0  1  0  0  0  0  0999 V2000
    6.8023  -18.0173   18.1609 N   0  0  0  0  0  0  0  0  0  0  0  0
    6.6135  -16.7531   18.7994 C   0  0  0  0  0  0  0  0  0  0  0  0
    7.6882  -16.3207   19.6904 C   0  0  0  0  0  0  0  0  0  0  0  0
    8.6371  -17.1223   19.8764 O   0  0  0  0  0  0  0  0  0  0  0  0
    7.6933  -15.0695   20.3277 N   0  0  0  0  0  0  0  0  0  0  0  0
    6.5981  -14.1043   20.1347 C   0  0  0  0  0  0  0  0  0  0  0  0
    7.2557  -12.7611   20.1254 C   0  0  0  0  0  0  0  0  0  0  0  0
    8.4984  -12.9280   20.9338 C   0  0  0  0  0  0  0  0  0  0  0  0
    8.5933  -14.4104   21.2239 C   0  0  1  0  0  0  0  0  0  0  0  0
    8.0434  -14.6192   22.6135 C   0  0  0  0  0  0  0  0  0  0  0  0
    6.8259  -14.5067   22.8822 O   0  0  0  0  0  0  0  0  0  0  0  0
    8.9135  -14.9545   23.6661 N   0  0  0  0  0  0  0  0  0  0  0  0
    8.4476  -15.8192   24.7327 C   0  0  1  0  0  0  0  0  0  0  0  0
    7.9684  -17.0785   23.9946 C   0  0  0  0  0  0  0  0  0  0  0  0
    7.5471  -18.1500   24.9300 C   0  0  0  0  0  0  0  0  0  0  0  0
    7.0194  -19.3102   24.0706 C   0  0  0  0  0  0  0  0  0  0  0  0
    6.5835  -20.3790   25.0772 C   0  0  0  0  0  0  0  0  0  0  0  0
    6.1384  -21.5216   24.3066 N   0  0  0  0  0  0  0  0  0  0  0  0
    9.4805  -16.0946   25.7264 C   0  0  0  0  0  0  0  0  0  0  0  0
   10.6890  -16.1587   25.4066 O   0  0  0  0  0  0  0  0  0  0  0  0
    9.1329  -16.2880   27.0441 O   0  0  0  0  0  0  0  0  0  0  0  0
  1  2  1  0
  3  2  1  0
  3  4  2  0
  5  3  1  0
  6  5  1  0
  7  8  1  0
  7  6  1  0
  8  9  1  0
  9  5  1  0
  9 10  1  1
 10 11  2  0
 12 10  1  0
 12 13  1  0
 13 14  1  6
 14 15  1  0
 15 16  1  0
 16 17  1  0
 18 17  1  0
 19 13  1  0
 19 21  1  0
 20 19  2  0
M  END
$$$$
