GPK.pdb
     RDKit          3D

 21 21  0  0  1  0  0  0  0  0999 V2000
    6.4434  -18.7402   19.8847 N   0  0  0  0  0  0  0  0  0  0  0  0
    6.4640  -17.3652   20.2724 C   0  0  0  0  0  0  0  0  0  0  0  0
    7.7625  -16.6991   20.1948 C   0  0  0  0  0  0  0  0  0  0  0  0
    8.7511  -17.4043   19.8744 O   0  0  0  0  0  0  0  0  0  0  0  0
    7.9345  -15.3309   20.4595 N   0  0  0  0  0  0  0  0  0  0  0  0
    6.8051  -14.4793   20.8691 C   0  0  0  0  0  0  0  0  0  0  0  0
    7.0526  -13.1575   20.2148 C   0  0  0  0  0  0  0  0  0  0  0  0
    8.5317  -13.0802   20.0354 C   0  0  0  0  0  0  0  0  0  0  0  0
    9.0565  -14.4431   20.4324 C   0  0  1  0  0  0  0  0  0  0  0  0
    9.5440  -14.3255   21.8556 C   0  0  0  0  0  0  0  0  0  0  0  0
   10.2099  -13.3469   22.2629 O   0  0  0  0  0  0  0  0  0  0  0  0
    9.2511  -15.3433   22.7807 N   0  0  0  0  0  0  0  0  0  0  0  0
    9.2013  -15.0322   24.1961 C   0  0  1  0  0  0  0  0  0  0  0  0
    8.0651  -14.0034   24.3008 C   0  0  0  0  0  0  0  0  0  0  0  0
    7.7952  -13.6076   25.7048 C   0  0  0  0  0  0  0  0  0  0  0  0
    6.6336  -12.6014   25.6691 C   0  0  0  0  0  0  0  0  0  0  0  0
    6.4067  -12.2102   27.1323 C   0  0  0  0  0  0  0  0  0  0  0  0
    5.3108  -11.2636   27.1464 N   0  0  0  0  0  0  0  0  0  0  0  0
    8.9841  -16.2134   25.0252 C   0  0  0  0  0  0  0  0  0  0  0  0
    9.1058  -16.1647   26.2701 O   0  0  0  0  0  0  0  0  0  0  0  0
    8.6367  -17.4100   24.4400 O   0  0  0  0  0  0  0  0  0  0  0  0
  1  2  1  0
  3  2  1  0
  3  4  2  0
  5  3  1  0
  6  5  1  0
  7  8  1  0
  7  6  1  0
  8  9  1  0
  9  5  1  0
  9 10  1  1
 10 11  2  0
 12 10  1  0
 12 13  1  0
 13 14  1  6
 14 15  1  0
 15 16  1  0
 16 17  1  0
 18 17  1  0
 19 13  1  0
 19 21  1  0
 20 19  2  0
M  END
$$$$
