GPK.pdb
     RDKit          3D

 21 21  0  0  1  0  0  0  0  0999 V2000
    7.2129  -17.8214   17.5767 N   0  0  0  0  0  0  0  0  0  0  0  0
    6.9613  -16.6356   18.3329 C   0  0  0  0  0  0  0  0  0  0  0  0
    8.0370  -16.2061   19.2241 C   0  0  0  0  0  0  0  0  0  0  0  0
    8.9950  -17.0008   19.3920 O   0  0  0  0  0  0  0  0  0  0  0  0
    8.0335  -14.9648   19.8805 N   0  0  0  0  0  0  0  0  0  0  0  0
    6.9453  -13.9929   19.6810 C   0  0  0  0  0  0  0  0  0  0  0  0
    7.6071  -12.6521   19.7052 C   0  0  0  0  0  0  0  0  0  0  0  0
    8.8332  -12.8356   20.5351 C   0  0  0  0  0  0  0  0  0  0  0  0
    8.9178  -14.3225   20.8042 C   0  0  1  0  0  0  0  0  0  0  0  0
    8.3400  -14.5507   22.1794 C   0  0  0  0  0  0  0  0  0  0  0  0
    7.1281  -14.3769   22.4403 O   0  0  0  0  0  0  0  0  0  0  0  0
    9.1763  -14.9760   23.2268 N   0  0  0  0  0  0  0  0  0  0  0  0
    8.6223  -15.7629   24.3114 C   0  0  1  0  0  0  0  0  0  0  0  0
    8.0739  -17.0136   23.6078 C   0  0  0  0  0  0  0  0  0  0  0  0
    7.6719  -18.0676   24.5712 C   0  0  0  0  0  0  0  0  0  0  0  0
    7.2357  -19.2866   23.7425 C   0  0  0  0  0  0  0  0  0  0  0  0
    6.8039  -20.3311   24.7760 C   0  0  0  0  0  0  0  0  0  0  0  0
    6.3459  -21.4877   24.0346 N   0  0  0  0  0  0  0  0  0  0  0  0
    9.6066  -16.0706   25.3441 C   0  0  0  0  0  0  0  0  0  0  0  0
    9.2576  -16.3265   26.5187 O   0  0  0  0  0  0  0  0  0  0  0  0
   10.9476  -16.0845   25.0337 O   0  0  0  0  0  0  0  0  0  0  0  0
  1  2  1  0
  3  2  1  0
  3  4  2  0
  5  3  1  0
  6  5  1  0
  7  8  1  0
  7  6  1  0
  8  9  1  0
  9  5  1  0
  9 10  1  1
 10 11  2  0
 12 10  1  0
 12 13  1  0
 13 14  1  6
 14 15  1  0
 15 16  1  0
 16 17  1  0
 18 17  1  0
 19 13  1  0
 19 21  1  0
 20 19  2  0
M  END
$$$$
