YPE.pdb
     RDKit          3D

 29 30  0  0  1  0  0  0  0  0999 V2000
   28.0599  -19.1021   -5.4397 O   0  0  0  0  0  0  0  0  0  0  0  0
   28.2533  -19.3940   -6.7818 C   0  0  0  0  0  0  0  0  0  0  0  0
   29.1630  -20.3323   -7.1741 C   0  0  0  0  0  0  0  0  0  0  0  0
   29.3201  -20.5876   -8.5111 C   0  0  0  0  0  0  0  0  0  0  0  0
   28.5914  -19.9317   -9.5017 C   0  0  0  0  0  0  0  0  0  0  0  0
   28.7881  -20.2343  -10.9412 C   0  0  0  0  0  0  0  0  0  0  0  0
   28.2529  -21.6409  -11.2600 C   0  0  2  0  0  0  0  0  0  0  0  0
   29.2886  -22.4016  -11.9498 N   0  0  0  0  0  0  0  0  0  0  0  0
   27.0207  -21.5527  -12.0745 C   0  0  0  0  0  0  0  0  0  0  0  0
   27.0965  -21.9408  -13.2927 O   0  0  0  0  0  0  0  0  0  0  0  0
   27.6752  -18.9864   -9.1009 C   0  0  0  0  0  0  0  0  0  0  0  0
   27.5226  -18.7345   -7.7497 C   0  0  0  0  0  0  0  0  0  0  0  0
   25.8080  -21.0617  -11.5329 N   0  0  0  0  0  0  0  0  0  0  0  0
   25.5449  -20.1906  -10.4174 C   0  0  0  0  0  0  0  0  0  0  0  0
   24.4429  -20.9809   -9.6872 C   0  0  0  0  0  0  0  0  0  0  0  0
   23.7161  -21.6716  -10.8111 C   0  0  0  0  0  0  0  0  0  0  0  0
   24.4989  -21.3772  -12.0684 C   0  0  1  0  0  0  0  0  0  0  0  0
   23.9318  -20.2618  -12.8512 C   0  0  0  0  0  0  0  0  0  0  0  0
   23.9731  -19.0951  -12.4077 O   0  0  0  0  0  0  0  0  0  0  0  0
   23.3378  -20.5020  -14.1066 N   0  0  0  0  0  0  0  0  0  0  0  0
   22.7998  -19.4431  -14.9454 C   0  0  1  0  0  0  0  0  0  0  0  0
   22.6631  -19.9453  -16.3563 C   0  0  0  0  0  0  0  0  0  0  0  0
   21.7596  -21.1493  -16.4344 C   0  0  0  0  0  0  0  0  0  0  0  0
   21.6038  -21.6117  -17.8282 C   0  0  0  0  0  0  0  0  0  0  0  0
   20.5323  -21.3337  -18.4369 O   0  0  0  0  0  0  0  0  0  0  0  0
   21.4428  -19.0715  -14.4540 C   0  0  0  0  0  0  0  0  0  0  0  0
   20.8157  -17.9343  -14.9266 O   0  0  0  0  0  0  0  0  0  0  0  0
   22.5794  -22.3350  -18.4949 O   0  0  0  0  0  0  0  0  0  0  0  0
   20.8646  -19.7939  -13.6064 O   0  0  0  0  0  0  0  0  0  0  0  0
  2  1  1  0
  3  2  2  0
  4  3  1  0
  5  4  2  0
  5 11  1  0
  6  5  1  0
  7  6  1  0
  7  8  1  6
  9  7  1  0
 10  9  2  0
 11 12  2  0
 12  2  1  0
 13 14  1  0
 13  9  1  0
 15 14  1  0
 16 17  1  0
 16 15  1  0
 17 13  1  0
 17 18  1  1
 19 18  2  0
 20 18  1  0
 21 22  1  6
 21 20  1  0
 22 23  1  0
 23 24  1  0
 24 28  1  0
 25 24  2  0
 26 27  1  0
 26 21  1  0
 29 26  2  0
M  END
$$$$
