YPE.pdb
     RDKit          3D

 29 30  0  0  1  0  0  0  0  0999 V2000
   29.4875  -16.0005  -20.0204 O   0  0  0  0  0  0  0  0  0  0  0  0
   28.7152  -16.7559  -19.1504 C   0  0  0  0  0  0  0  0  0  0  0  0
   27.5684  -17.3627  -19.5730 C   0  0  0  0  0  0  0  0  0  0  0  0
   26.8375  -18.0991  -18.6781 C   0  0  0  0  0  0  0  0  0  0  0  0
   27.2084  -18.2625  -17.3446 C   0  0  0  0  0  0  0  0  0  0  0  0
   26.3917  -19.0681  -16.4030 C   0  0  0  0  0  0  0  0  0  0  0  0
   27.0914  -20.4074  -16.1145 C   0  0  2  0  0  0  0  0  0  0  0  0
   27.2701  -21.1330  -17.3669 N   0  0  0  0  0  0  0  0  0  0  0  0
   26.3074  -21.2012  -15.1425 C   0  0  0  0  0  0  0  0  0  0  0  0
   25.6691  -22.2149  -15.5956 O   0  0  0  0  0  0  0  0  0  0  0  0
   28.3658  -17.6487  -16.9234 C   0  0  0  0  0  0  0  0  0  0  0  0
   29.0978  -16.9071  -17.8327 C   0  0  0  0  0  0  0  0  0  0  0  0
   26.2635  -20.8579  -13.7694 N   0  0  0  0  0  0  0  0  0  0  0  0
   26.9786  -19.8650  -13.0109 C   0  0  0  0  0  0  0  0  0  0  0  0
   27.4484  -20.7037  -11.8076 C   0  0  0  0  0  0  0  0  0  0  0  0
   26.3409  -21.7104  -11.6396 C   0  0  0  0  0  0  0  0  0  0  0  0
   25.4000  -21.5059  -12.8028 C   0  0  1  0  0  0  0  0  0  0  0  0
   24.2286  -20.6774  -12.4564 C   0  0  0  0  0  0  0  0  0  0  0  0
   24.3745  -19.4758  -12.1497 O   0  0  0  0  0  0  0  0  0  0  0  0
   22.9337  -21.2341  -12.4681 N   0  0  0  0  0  0  0  0  0  0  0  0
   21.7315  -20.4422  -12.6733 C   0  0  1  0  0  0  0  0  0  0  0  0
   21.8171  -19.7405  -14.0006 C   0  0  0  0  0  0  0  0  0  0  0  0
   21.9547  -20.7178  -15.1400 C   0  0  0  0  0  0  0  0  0  0  0  0
   21.9078  -20.0281  -16.4449 C   0  0  0  0  0  0  0  0  0  0  0  0
   20.8440  -19.4293  -16.7698 O   0  0  0  0  0  0  0  0  0  0  0  0
   20.5485  -21.3479  -12.7051 C   0  0  0  0  0  0  0  0  0  0  0  0
   20.7186  -22.7171  -12.7850 O   0  0  0  0  0  0  0  0  0  0  0  0
   22.9773  -20.0096  -17.3254 O   0  0  0  0  0  0  0  0  0  0  0  0
   19.3905  -20.8668  -12.6592 O   0  0  0  0  0  0  0  0  0  0  0  0
  2  1  1  0
  3  2  2  0
  4  3  1  0
  5  4  2  0
  5 11  1  0
  6  5  1  0
  7  6  1  0
  7  8  1  6
  9  7  1  0
 10  9  2  0
 11 12  2  0
 12  2  1  0
 13 14  1  0
 13  9  1  0
 15 14  1  0
 16 17  1  0
 16 15  1  0
 17 13  1  0
 17 18  1  1
 19 18  2  0
 20 18  1  0
 21 22  1  6
 21 20  1  0
 22 23  1  0
 23 24  1  0
 24 28  1  0
 25 24  2  0
 26 27  1  0
 26 21  1  0
 29 26  2  0
M  END
$$$$
