YPE.pdb
     RDKit          3D

 29 30  0  0  1  0  0  0  0  0999 V2000
   28.7940  -19.3292   -4.0093 O   0  0  0  0  0  0  0  0  0  0  0  0
   28.2777  -19.7248   -5.2344 C   0  0  0  0  0  0  0  0  0  0  0  0
   27.0476  -20.3085   -5.3245 C   0  0  0  0  0  0  0  0  0  0  0  0
   26.5782  -20.6830   -6.5561 C   0  0  0  0  0  0  0  0  0  0  0  0
   27.2995  -20.4967   -7.7340 C   0  0  0  0  0  0  0  0  0  0  0  0
   26.7590  -20.9150   -9.0514 C   0  0  0  0  0  0  0  0  0  0  0  0
   26.0144  -19.7410   -9.7102 C   0  0  2  0  0  0  0  0  0  0  0  0
   24.8260  -19.4277   -8.9250 N   0  0  0  0  0  0  0  0  0  0  0  0
   25.6608  -20.0726  -11.1083 C   0  0  0  0  0  0  0  0  0  0  0  0
   24.4148  -20.1679  -11.3889 O   0  0  0  0  0  0  0  0  0  0  0  0
   28.5393  -19.9075   -7.6379 C   0  0  0  0  0  0  0  0  0  0  0  0
   29.0059  -19.5325   -6.3913 C   0  0  0  0  0  0  0  0  0  0  0  0
   26.6549  -20.2755  -12.0959 N   0  0  0  0  0  0  0  0  0  0  0  0
   28.0725  -20.5032  -11.9900 C   0  0  0  0  0  0  0  0  0  0  0  0
   28.6056  -19.4915  -13.0218 C   0  0  0  0  0  0  0  0  0  0  0  0
   27.5149  -19.4554  -14.0598 C   0  0  0  0  0  0  0  0  0  0  0  0
   26.3852  -20.2992  -13.5195 C   0  0  1  0  0  0  0  0  0  0  0  0
   26.3802  -21.6709  -14.0644 C   0  0  0  0  0  0  0  0  0  0  0  0
   27.0989  -22.5551  -13.5533 O   0  0  0  0  0  0  0  0  0  0  0  0
   25.5647  -21.9967  -15.1669 N   0  0  0  0  0  0  0  0  0  0  0  0
   24.4275  -22.8981  -15.0737 C   0  0  1  0  0  0  0  0  0  0  0  0
   23.5169  -22.4394  -13.9683 C   0  0  0  0  0  0  0  0  0  0  0  0
   22.3069  -23.3287  -13.8377 C   0  0  0  0  0  0  0  0  0  0  0  0
   21.0888  -22.5385  -13.5683 C   0  0  0  0  0  0  0  0  0  0  0  0
   20.4233  -22.1069  -14.5515 O   0  0  0  0  0  0  0  0  0  0  0  0
   23.6618  -22.8535  -16.3514 C   0  0  0  0  0  0  0  0  0  0  0  0
   23.0727  -23.9984  -16.8533 O   0  0  0  0  0  0  0  0  0  0  0  0
   20.6460  -22.2510  -12.2874 O   0  0  0  0  0  0  0  0  0  0  0  0
   23.5500  -21.7712  -16.9766 O   0  0  0  0  0  0  0  0  0  0  0  0
  2  1  1  0
  3  2  2  0
  4  3  1  0
  5  4  2  0
  5 11  1  0
  6  5  1  0
  7  6  1  0
  7  8  1  1
  9  7  1  0
 10  9  2  0
 11 12  2  0
 12  2  1  0
 13 14  1  0
 13  9  1  0
 15 14  1  0
 16 17  1  0
 16 15  1  0
 17 13  1  0
 17 18  1  6
 19 18  2  0
 20 18  1  0
 21 22  1  1
 21 20  1  0
 22 23  1  0
 23 24  1  0
 24 28  1  0
 25 24  2  0
 26 27  1  0
 26 21  1  0
 29 26  2  0
M  END
$$$$
