YPE.pdb
     RDKit          3D

 29 30  0  0  1  0  0  0  0  0999 V2000
   28.7435  -19.4863   -4.9539 O   0  0  0  0  0  0  0  0  0  0  0  0
   28.2643  -19.8646   -6.1994 C   0  0  0  0  0  0  0  0  0  0  0  0
   29.1098  -20.0353   -7.2568 C   0  0  0  0  0  0  0  0  0  0  0  0
   28.5914  -20.4097   -8.4686 C   0  0  0  0  0  0  0  0  0  0  0  0
   27.2311  -20.6276   -8.6796 C   0  0  0  0  0  0  0  0  0  0  0  0
   26.7048  -21.0328  -10.0068 C   0  0  0  0  0  0  0  0  0  0  0  0
   25.7883  -19.9313  -10.5667 C   0  0  2  0  0  0  0  0  0  0  0  0
   24.5374  -19.9233   -9.8169 N   0  0  0  0  0  0  0  0  0  0  0  0
   25.5460  -20.1451  -12.0107 C   0  0  0  0  0  0  0  0  0  0  0  0
   24.3633  -20.4914  -12.3598 O   0  0  0  0  0  0  0  0  0  0  0  0
   26.3826  -20.4543   -7.6101 C   0  0  0  0  0  0  0  0  0  0  0  0
   26.9137  -20.0763   -6.3905 C   0  0  0  0  0  0  0  0  0  0  0  0
   26.5752  -19.9742  -12.9681 N   0  0  0  0  0  0  0  0  0  0  0  0
   28.0047  -20.1112  -12.8669 C   0  0  0  0  0  0  0  0  0  0  0  0
   28.4685  -18.8052  -13.5386 C   0  0  0  0  0  0  0  0  0  0  0  0
   27.4015  -18.5548  -14.5717 C   0  0  0  0  0  0  0  0  0  0  0  0
   26.3392  -19.6047  -14.3493 C   0  0  1  0  0  0  0  0  0  0  0  0
   26.4670  -20.7553  -15.2650 C   0  0  0  0  0  0  0  0  0  0  0  0
   26.9265  -21.8410  -14.8532 O   0  0  0  0  0  0  0  0  0  0  0  0
   26.0721  -20.6402  -16.6131 N   0  0  0  0  0  0  0  0  0  0  0  0
   24.9869  -21.4166  -17.1910 C   0  0  1  0  0  0  0  0  0  0  0  0
   23.7195  -21.1473  -16.4276 C   0  0  0  0  0  0  0  0  0  0  0  0
   23.2625  -22.3614  -15.6600 C   0  0  0  0  0  0  0  0  0  0  0  0
   21.9941  -22.0994  -14.9504 C   0  0  0  0  0  0  0  0  0  0  0  0
   21.3580  -21.0437  -15.2274 O   0  0  0  0  0  0  0  0  0  0  0  0
   24.7759  -20.9876  -18.6025 C   0  0  0  0  0  0  0  0  0  0  0  0
   24.9446  -19.6643  -18.9633 O   0  0  0  0  0  0  0  0  0  0  0  0
   21.4735  -22.9591  -13.9969 O   0  0  0  0  0  0  0  0  0  0  0  0
   24.4431  -21.8311  -19.4699 O   0  0  0  0  0  0  0  0  0  0  0  0
  2  1  1  0
  3  2  2  0
  4  3  1  0
  5  4  2  0
  5 11  1  0
  6  5  1  0
  7  6  1  0
  7  8  1  1
  9  7  1  0
 10  9  2  0
 11 12  2  0
 12  2  1  0
 13 14  1  0
 13  9  1  0
 15 14  1  0
 16 17  1  0
 16 15  1  0
 17 13  1  0
 17 18  1  6
 19 18  2  0
 20 18  1  0
 21 22  1  1
 21 20  1  0
 22 23  1  0
 23 24  1  0
 24 28  1  0
 25 24  2  0
 26 27  1  0
 26 21  1  0
 29 26  2  0
M  END
$$$$
