YPE.pdb
     RDKit          3D

 29 30  0  0  1  0  0  0  0  0999 V2000
   19.5172  -26.3045  -13.8485 O   0  0  0  0  0  0  0  0  0  0  0  0
   20.6524  -25.7030  -14.3714 C   0  0  0  0  0  0  0  0  0  0  0  0
   20.7058  -24.3542  -14.5711 C   0  0  0  0  0  0  0  0  0  0  0  0
   21.8482  -23.8039  -15.0901 C   0  0  0  0  0  0  0  0  0  0  0  0
   22.9705  -24.5582  -15.4281 C   0  0  0  0  0  0  0  0  0  0  0  0
   24.1916  -23.9276  -15.9882 C   0  0  0  0  0  0  0  0  0  0  0  0
   25.3143  -23.9317  -14.9364 C   0  0  2  0  0  0  0  0  0  0  0  0
   24.8773  -23.1767  -13.7677 N   0  0  0  0  0  0  0  0  0  0  0  0
   26.5577  -23.3662  -15.5054 C   0  0  0  0  0  0  0  0  0  0  0  0
   26.8399  -22.1540  -15.2035 O   0  0  0  0  0  0  0  0  0  0  0  0
   22.9116  -25.9179  -15.2247 C   0  0  0  0  0  0  0  0  0  0  0  0
   21.7550  -26.4655  -14.7007 C   0  0  0  0  0  0  0  0  0  0  0  0
   27.4019  -24.1304  -16.3471 N   0  0  0  0  0  0  0  0  0  0  0  0
   27.2667  -25.4611  -16.8797 C   0  0  0  0  0  0  0  0  0  0  0  0
   28.6543  -26.0449  -16.5544 C   0  0  0  0  0  0  0  0  0  0  0  0
   29.5611  -24.8464  -16.6540 C   0  0  0  0  0  0  0  0  0  0  0  0
   28.6644  -23.6514  -16.8732 C   0  0  1  0  0  0  0  0  0  0  0  0
   28.5652  -23.2593  -18.2927 C   0  0  0  0  0  0  0  0  0  0  0  0
   27.6814  -23.7538  -19.0234 O   0  0  0  0  0  0  0  0  0  0  0  0
   29.4670  -22.3232  -18.8380 N   0  0  0  0  0  0  0  0  0  0  0  0
   29.0392  -21.1541  -19.5893 C   0  0  1  0  0  0  0  0  0  0  0  0
   28.1349  -20.3132  -18.7310 C   0  0  0  0  0  0  0  0  0  0  0  0
   27.6395  -19.0958  -19.4690 C   0  0  0  0  0  0  0  0  0  0  0  0
   26.7677  -18.2682  -18.6112 C   0  0  0  0  0  0  0  0  0  0  0  0
   26.7531  -18.4993  -17.3693 O   0  0  0  0  0  0  0  0  0  0  0  0
   30.2334  -20.3355  -19.9424 C   0  0  0  0  0  0  0  0  0  0  0  0
   30.1154  -19.2648  -20.8082 O   0  0  0  0  0  0  0  0  0  0  0  0
   25.9676  -17.2524  -19.1085 O   0  0  0  0  0  0  0  0  0  0  0  0
   31.3533  -20.6182  -19.4520 O   0  0  0  0  0  0  0  0  0  0  0  0
  2  1  1  0
  3  2  2  0
  4  3  1  0
  5  4  2  0
  5 11  1  0
  6  5  1  0
  7  6  1  0
  7  8  1  1
  9  7  1  0
 10  9  2  0
 11 12  2  0
 12  2  1  0
 13 14  1  0
 13  9  1  0
 15 14  1  0
 16 17  1  0
 16 15  1  0
 17 13  1  0
 17 18  1  6
 19 18  2  0
 20 18  1  0
 21 22  1  1
 21 20  1  0
 22 23  1  0
 23 24  1  0
 24 28  1  0
 25 24  2  0
 26 27  1  0
 26 21  1  0
 29 26  2  0
M  END
$$$$
