YPE.pdb
     RDKit          3D

 29 30  0  0  1  0  0  0  0  0999 V2000
   15.9079  -19.1655  -15.6288 O   0  0  0  0  0  0  0  0  0  0  0  0
   16.5261  -17.9288  -15.7403 C   0  0  0  0  0  0  0  0  0  0  0  0
   17.8179  -17.7488  -15.3394 C   0  0  0  0  0  0  0  0  0  0  0  0
   18.3874  -16.5093  -15.4685 C   0  0  0  0  0  0  0  0  0  0  0  0
   17.7086  -15.4112  -15.9936 C   0  0  0  0  0  0  0  0  0  0  0  0
   18.3578  -14.0825  -16.1187 C   0  0  0  0  0  0  0  0  0  0  0  0
   18.7827  -13.8410  -17.5775 C   0  0  2  0  0  0  0  0  0  0  0  0
   19.8075  -14.8119  -17.9439 N   0  0  0  0  0  0  0  0  0  0  0  0
   19.2712  -12.4551  -17.7509 C   0  0  0  0  0  0  0  0  0  0  0  0
   20.5366  -12.2910  -17.8612 O   0  0  0  0  0  0  0  0  0  0  0  0
   16.4061  -15.5978  -16.3966 C   0  0  0  0  0  0  0  0  0  0  0  0
   15.8386  -16.8518  -16.2629 C   0  0  0  0  0  0  0  0  0  0  0  0
   18.3802  -11.3553  -17.7942 N   0  0  0  0  0  0  0  0  0  0  0  0
   16.9430  -11.2891  -17.7421 C   0  0  0  0  0  0  0  0  0  0  0  0
   16.6539  -10.3482  -18.9266 C   0  0  0  0  0  0  0  0  0  0  0  0
   17.8534   -9.4374  -18.9401 C   0  0  0  0  0  0  0  0  0  0  0  0
   18.8072   -9.9746  -17.9000 C   0  0  1  0  0  0  0  0  0  0  0  0
   18.7146   -9.2609  -16.6113 C   0  0  0  0  0  0  0  0  0  0  0  0
   17.9338   -9.6620  -15.7230 O   0  0  0  0  0  0  0  0  0  0  0  0
   19.5059   -8.1197  -16.3703 N   0  0  0  0  0  0  0  0  0  0  0  0
   19.6183   -7.4939  -15.0626 C   0  0  1  0  0  0  0  0  0  0  0  0
   20.8951   -6.7021  -14.9968 C   0  0  0  0  0  0  0  0  0  0  0  0
   21.0083   -5.9334  -13.7051 C   0  0  0  0  0  0  0  0  0  0  0  0
   22.2676   -5.1641  -13.6491 C   0  0  0  0  0  0  0  0  0  0  0  0
   23.1665   -5.4209  -14.4987 O   0  0  0  0  0  0  0  0  0  0  0  0
   18.4799   -6.5513  -14.8718 C   0  0  0  0  0  0  0  0  0  0  0  0
   18.0205   -6.2585  -13.6017 O   0  0  0  0  0  0  0  0  0  0  0  0
   22.5047   -4.1758  -12.7076 O   0  0  0  0  0  0  0  0  0  0  0  0
   17.9340   -6.0193  -15.8686 O   0  0  0  0  0  0  0  0  0  0  0  0
  2  1  1  0
  3  2  2  0
  4  3  1  0
  5  4  2  0
  5 11  1  0
  6  5  1  0
  7  6  1  0
  7  8  1  1
  9  7  1  0
 10  9  2  0
 11 12  2  0
 12  2  1  0
 13 14  1  0
 13  9  1  0
 15 14  1  0
 16 17  1  0
 16 15  1  0
 17 13  1  0
 17 18  1  1
 19 18  2  0
 20 18  1  0
 21 22  1  6
 21 20  1  0
 22 23  1  0
 23 24  1  0
 24 28  1  0
 25 24  2  0
 26 27  1  0
 26 21  1  0
 29 26  2  0
M  END
$$$$
