YPE.pdb
     RDKit          3D

 29 30  0  0  1  0  0  0  0  0999 V2000
   43.9822  -17.7278   -8.6094 O   0  0  0  0  0  0  0  0  0  0  0  0
   43.5290  -16.4175   -8.6509 C   0  0  0  0  0  0  0  0  0  0  0  0
   44.0087  -15.4790   -7.7842 C   0  0  0  0  0  0  0  0  0  0  0  0
   43.5318  -14.1969   -7.8622 C   0  0  0  0  0  0  0  0  0  0  0  0
   42.5722  -13.7973   -8.7907 C   0  0  0  0  0  0  0  0  0  0  0  0
   42.0787  -12.3987   -8.8463 C   0  0  0  0  0  0  0  0  0  0  0  0
   42.4301  -11.7717  -10.2065 C   0  0  2  0  0  0  0  0  0  0  0  0
   43.8791  -11.7686  -10.3715 N   0  0  0  0  0  0  0  0  0  0  0  0
   41.8770  -10.4026  -10.3028 C   0  0  0  0  0  0  0  0  0  0  0  0
   42.7154   -9.4390  -10.3964 O   0  0  0  0  0  0  0  0  0  0  0  0
   42.0918  -14.7474   -9.6626 C   0  0  0  0  0  0  0  0  0  0  0  0
   42.5781  -16.0391   -9.5772 C   0  0  0  0  0  0  0  0  0  0  0  0
   40.4811  -10.1650  -10.2931 N   0  0  0  0  0  0  0  0  0  0  0  0
   39.3653  -11.0435  -10.0567 C   0  0  0  0  0  0  0  0  0  0  0  0
   38.4559  -10.6822  -11.2460 C   0  0  0  0  0  0  0  0  0  0  0  0
   38.7505   -9.2223  -11.4701 C   0  0  0  0  0  0  0  0  0  0  0  0
   39.8816   -8.8679  -10.5346 C   0  0  1  0  0  0  0  0  0  0  0  0
   39.4183   -8.2261   -9.2889 C   0  0  0  0  0  0  0  0  0  0  0  0
   38.8933   -8.9092   -8.3849 O   0  0  0  0  0  0  0  0  0  0  0  0
   39.5632   -6.8358   -9.1072 N   0  0  0  0  0  0  0  0  0  0  0  0
   39.1939   -6.1538   -7.8772 C   0  0  1  0  0  0  0  0  0  0  0  0
   40.2858   -5.1942   -7.4919 C   0  0  0  0  0  0  0  0  0  0  0  0
   41.5918   -5.9056   -7.2454 C   0  0  0  0  0  0  0  0  0  0  0  0
   42.6354   -4.9653   -6.7900 C   0  0  0  0  0  0  0  0  0  0  0  0
   43.2695   -4.3045   -7.6601 O   0  0  0  0  0  0  0  0  0  0  0  0
   37.9489   -5.3680   -8.1082 C   0  0  0  0  0  0  0  0  0  0  0  0
   37.2372   -4.8562   -7.0399 O   0  0  0  0  0  0  0  0  0  0  0  0
   42.9479   -4.7772   -5.4534 O   0  0  0  0  0  0  0  0  0  0  0  0
   37.5427   -5.1688   -9.2787 O   0  0  0  0  0  0  0  0  0  0  0  0
  2  1  1  0
  3  2  2  0
  4  3  1  0
  5  4  2  0
  5 11  1  0
  6  5  1  0
  7  6  1  0
  7  8  1  1
  9  7  1  0
 10  9  2  0
 11 12  2  0
 12  2  1  0
 13 14  1  0
 13  9  1  0
 15 14  1  0
 16 17  1  0
 16 15  1  0
 17 13  1  0
 17 18  1  1
 19 18  2  0
 20 18  1  0
 21 22  1  6
 21 20  1  0
 22 23  1  0
 23 24  1  0
 24 28  1  0
 25 24  2  0
 26 27  1  0
 26 21  1  0
 29 26  2  0
M  END
$$$$
