PHE.pdb
     RDKit          3D

 27 28  0  0  1  0  0  0  0  0999 V2000
    8.2304  -15.2841   18.4645 N   0  0  0  0  0  0  0  0  0  0  0  0
    8.2358  -14.5449   17.2080 C   0  0  0  0  0  0  0  0  0  0  0  0
    7.4076  -13.3223   17.5981 C   0  0  0  0  0  0  0  0  0  0  0  0
    7.7762  -13.0993   19.0508 C   0  0  0  0  0  0  0  0  0  0  0  0
    8.6600  -14.2719   19.3871 C   0  0  1  0  0  0  0  0  0  0  0  0
    8.5285  -14.6874   20.8035 C   0  0  0  0  0  0  0  0  0  0  0  0
    8.8250  -13.8836   21.7318 O   0  0  0  0  0  0  0  0  0  0  0  0
    8.0634  -16.0039   21.0661 N   0  0  0  0  0  0  0  0  0  0  0  0
    7.8363  -16.5229   22.3847 C   0  0  1  0  0  0  0  0  0  0  0  0
    7.1182  -17.8241   22.4281 C   0  0  0  0  0  0  0  0  0  0  0  0
    6.9431  -18.3033   23.8240 C   0  0  0  0  0  0  0  0  0  0  0  0
    6.2275  -17.7336   24.8517 C   0  0  0  0  0  0  0  0  0  0  0  0
    6.3303  -18.4955   25.9615 N   0  0  0  0  0  0  0  0  0  0  0  0
    7.1043  -19.5409   25.6433 C   0  0  0  0  0  0  0  0  0  0  0  0
    7.4806  -19.4285   24.3412 N   0  0  0  0  0  0  0  0  0  0  0  0
    9.0858  -16.5041   23.1890 C   0  0  0  0  0  0  0  0  0  0  0  0
   10.1642  -16.7429   22.6079 O   0  0  0  0  0  0  0  0  0  0  0  0
    9.0919  -16.2276   24.5748 N   0  0  0  0  0  0  0  0  0  0  0  0
   10.3391  -16.3324   25.3261 C   0  0  1  0  0  0  0  0  0  0  0  0
   10.1487  -15.6200   26.6459 C   0  0  0  0  0  0  0  0  0  0  0  0
   11.3212  -15.6803   27.5592 C   0  0  0  0  0  0  0  0  0  0  0  0
   11.1109  -15.1188   28.9018 C   0  0  0  0  0  0  0  0  0  0  0  0
   11.4130  -13.9781   29.2724 O   0  0  0  0  0  0  0  0  0  0  0  0
   10.7008  -17.7456   25.4956 C   0  0  0  0  0  0  0  0  0  0  0  0
    9.8467  -18.6296   25.6481 O   0  0  0  0  0  0  0  0  0  0  0  0
   10.5131  -15.9532   29.8482 O   0  0  0  0  0  0  0  0  0  0  0  0
   12.0354  -18.1102   25.4858 O   0  0  0  0  0  0  0  0  0  0  0  0
  2  1  1  0
  3  2  1  0
  4  3  1  0
  4  5  1  0
  5  1  1  0
  5  6  1  1
  6  7  2  0
  8  6  1  0
  8  9  1  0
  9 10  1  6
 11 10  1  0
 12 11  2  0
 13 12  1  0
 14 13  1  0
 14 15  2  0
 15 11  1  0
 16 17  2  0
 16  9  1  0
 18 16  1  0
 19 18  1  0
 19 20  1  1
 21 20  1  0
 22 23  2  0
 22 21  1  0
 24 19  1  0
 24 27  1  0
 25 24  2  0
 26 22  1  0
M  END
$$$$
