PHE.pdb
     RDKit          3D

 27 28  0  0  1  0  0  0  0  0999 V2000
   10.3871  -17.5319   17.4299 N   0  0  0  0  0  0  0  0  0  0  0  0
   10.1673  -18.3751   16.2612 C   0  0  0  0  0  0  0  0  0  0  0  0
   10.0383  -17.3142   15.1700 C   0  0  0  0  0  0  0  0  0  0  0  0
   10.9902  -16.2266   15.6255 C   0  0  0  0  0  0  0  0  0  0  0  0
   11.4635  -16.6981   16.9756 C   0  0  1  0  0  0  0  0  0  0  0  0
   11.7506  -15.5724   17.8956 C   0  0  0  0  0  0  0  0  0  0  0  0
   12.6378  -14.7223   17.6024 O   0  0  0  0  0  0  0  0  0  0  0  0
   10.9987  -15.4930   19.0984 N   0  0  0  0  0  0  0  0  0  0  0  0
   11.1585  -14.4520   20.0733 C   0  0  1  0  0  0  0  0  0  0  0  0
    9.8897  -13.8294   20.5351 C   0  0  0  0  0  0  0  0  0  0  0  0
    8.9663  -13.5687   19.4002 C   0  0  0  0  0  0  0  0  0  0  0  0
    8.5917  -12.3659   18.8473 C   0  0  0  0  0  0  0  0  0  0  0  0
    7.7316  -12.5759   17.8281 N   0  0  0  0  0  0  0  0  0  0  0  0
    7.5601  -13.9005   17.7328 C   0  0  0  0  0  0  0  0  0  0  0  0
    8.3107  -14.5105   18.6890 N   0  0  0  0  0  0  0  0  0  0  0  0
   12.0462  -14.8897   21.1820 C   0  0  0  0  0  0  0  0  0  0  0  0
   12.2618  -14.0893   22.1150 O   0  0  0  0  0  0  0  0  0  0  0  0
   12.6471  -16.1682   21.2130 N   0  0  0  0  0  0  0  0  0  0  0  0
   13.4644  -16.5538   22.3595 C   0  0  1  0  0  0  0  0  0  0  0  0
   12.9487  -17.8786   22.8742 C   0  0  0  0  0  0  0  0  0  0  0  0
   13.7039  -18.4326   24.0298 C   0  0  0  0  0  0  0  0  0  0  0  0
   13.2985  -19.7760   24.4690 C   0  0  0  0  0  0  0  0  0  0  0  0
   13.4489  -20.8281   23.8361 O   0  0  0  0  0  0  0  0  0  0  0  0
   14.8778  -16.6140   21.9654 C   0  0  0  0  0  0  0  0  0  0  0  0
   15.2272  -16.7038   20.7806 O   0  0  0  0  0  0  0  0  0  0  0  0
   12.6855  -19.8728   25.7195 O   0  0  0  0  0  0  0  0  0  0  0  0
   15.8568  -16.5697   22.9420 O   0  0  0  0  0  0  0  0  0  0  0  0
  2  1  1  0
  3  2  1  0
  4  3  1  0
  4  5  1  0
  5  1  1  0
  5  6  1  1
  6  7  2  0
  8  6  1  0
  8  9  1  0
  9 10  1  1
 11 10  1  0
 12 11  2  0
 13 12  1  0
 14 13  1  0
 14 15  2  0
 15 11  1  0
 16 17  2  0
 16  9  1  0
 18 16  1  0
 19 18  1  0
 19 20  1  6
 21 20  1  0
 22 23  2  0
 22 21  1  0
 24 19  1  0
 24 27  1  0
 25 24  2  0
 26 22  1  0
M  END
$$$$
