PHE.pdb
     RDKit          3D

 27 28  0  0  1  0  0  0  0  0999 V2000
    8.0494  -19.2178   20.1339 N   0  0  0  0  0  0  0  0  0  0  0  0
    7.7368  -19.8168   18.8421 C   0  0  0  0  0  0  0  0  0  0  0  0
    7.5725  -18.5640   17.9842 C   0  0  0  0  0  0  0  0  0  0  0  0
    8.5797  -17.5995   18.5772 C   0  0  0  0  0  0  0  0  0  0  0  0
    9.1195  -18.3293   19.7793 C   0  0  1  0  0  0  0  0  0  0  0  0
    9.4922  -17.4063   20.8772 C   0  0  0  0  0  0  0  0  0  0  0  0
   10.6907  -17.0307   21.0124 O   0  0  0  0  0  0  0  0  0  0  0  0
    8.4622  -16.9710   21.7536 N   0  0  0  0  0  0  0  0  0  0  0  0
    8.6765  -16.0801   22.8581 C   0  0  1  0  0  0  0  0  0  0  0  0
    7.7377  -14.9291   22.9227 C   0  0  0  0  0  0  0  0  0  0  0  0
    7.8909  -14.0345   21.7458 C   0  0  0  0  0  0  0  0  0  0  0  0
    8.8081  -14.0995   20.7224 C   0  0  0  0  0  0  0  0  0  0  0  0
    8.5978  -13.0897   19.8512 N   0  0  0  0  0  0  0  0  0  0  0  0
    7.5560  -12.3882   20.3157 C   0  0  0  0  0  0  0  0  0  0  0  0
    7.1213  -12.9601   21.4706 N   0  0  0  0  0  0  0  0  0  0  0  0
    8.7891  -16.8305   24.1360 C   0  0  0  0  0  0  0  0  0  0  0  0
    7.9264  -17.6962   24.3888 O   0  0  0  0  0  0  0  0  0  0  0  0
    9.8296  -16.5976   25.0633 N   0  0  0  0  0  0  0  0  0  0  0  0
   10.2851  -17.6846   25.9248 C   0  0  1  0  0  0  0  0  0  0  0  0
   11.0840  -18.6474   25.0761 C   0  0  0  0  0  0  0  0  0  0  0  0
   11.7100  -19.7672   25.8291 C   0  0  0  0  0  0  0  0  0  0  0  0
   12.5673  -20.6636   25.0395 C   0  0  0  0  0  0  0  0  0  0  0  0
   13.7223  -20.4277   24.6649 O   0  0  0  0  0  0  0  0  0  0  0  0
   11.0643  -17.1395   27.0438 C   0  0  0  0  0  0  0  0  0  0  0  0
   11.6037  -16.0259   26.9893 O   0  0  0  0  0  0  0  0  0  0  0  0
   12.0255  -21.8985   24.6782 O   0  0  0  0  0  0  0  0  0  0  0  0
   11.2057  -17.8869   28.1996 O   0  0  0  0  0  0  0  0  0  0  0  0
  2  1  1  0
  3  2  1  0
  4  3  1  0
  4  5  1  0
  5  1  1  0
  5  6  1  1
  6  7  2  0
  8  6  1  0
  8  9  1  0
  9 10  1  1
 11 10  1  0
 12 11  2  0
 13 12  1  0
 14 13  1  0
 14 15  2  0
 15 11  1  0
 16 17  2  0
 16  9  1  0
 18 16  1  0
 19 18  1  0
 19 20  1  6
 21 20  1  0
 22 23  2  0
 22 21  1  0
 24 19  1  0
 24 27  1  0
 25 24  2  0
 26 22  1  0
M  END
$$$$
