PHE.pdb
     RDKit          3D

 27 28  0  0  1  0  0  0  0  0999 V2000
    7.4100  -14.8830   19.3144 N   0  0  0  0  0  0  0  0  0  0  0  0
    7.2222  -14.2402   18.0195 C   0  0  0  0  0  0  0  0  0  0  0  0
    7.3421  -12.7701   18.4159 C   0  0  0  0  0  0  0  0  0  0  0  0
    8.3602  -12.7924   19.5380 C   0  0  0  0  0  0  0  0  0  0  0  0
    8.6216  -14.2586   19.7643 C   0  0  1  0  0  0  0  0  0  0  0  0
    8.9369  -14.5618   21.1801 C   0  0  0  0  0  0  0  0  0  0  0  0
    9.9998  -14.1227   21.7027 O   0  0  0  0  0  0  0  0  0  0  0  0
    8.0091  -15.3527   21.9096 N   0  0  0  0  0  0  0  0  0  0  0  0
    8.1836  -15.7244   23.2847 C   0  0  1  0  0  0  0  0  0  0  0  0
    6.9340  -16.1162   23.9887 C   0  0  0  0  0  0  0  0  0  0  0  0
    6.2305  -17.2158   23.2782 C   0  0  0  0  0  0  0  0  0  0  0  0
    6.2506  -18.5667   23.5378 C   0  0  0  0  0  0  0  0  0  0  0  0
    5.4690  -19.2175   22.6500 N   0  0  0  0  0  0  0  0  0  0  0  0
    4.9558  -18.2894   21.8325 C   0  0  0  0  0  0  0  0  0  0  0  0
    5.4169  -17.0672   22.2112 N   0  0  0  0  0  0  0  0  0  0  0  0
    9.2873  -16.7079   23.4367 C   0  0  0  0  0  0  0  0  0  0  0  0
    9.3132  -17.6883   22.6647 O   0  0  0  0  0  0  0  0  0  0  0  0
   10.2967  -16.5701   24.4159 N   0  0  0  0  0  0  0  0  0  0  0  0
   11.3591  -17.5676   24.5024 C   0  0  1  0  0  0  0  0  0  0  0  0
   12.6812  -16.8559   24.3256 C   0  0  0  0  0  0  0  0  0  0  0  0
   13.8791  -17.7264   24.4669 C   0  0  0  0  0  0  0  0  0  0  0  0
   15.1762  -17.0559   24.2941 C   0  0  0  0  0  0  0  0  0  0  0  0
   15.3549  -15.9092   23.8661 O   0  0  0  0  0  0  0  0  0  0  0  0
   11.2696  -18.2802   25.7833 C   0  0  0  0  0  0  0  0  0  0  0  0
   11.8303  -19.3685   25.9714 O   0  0  0  0  0  0  0  0  0  0  0  0
   16.3145  -17.7832   24.6470 O   0  0  0  0  0  0  0  0  0  0  0  0
   10.5379  -17.7257   26.8184 O   0  0  0  0  0  0  0  0  0  0  0  0
  2  1  1  0
  3  2  1  0
  4  3  1  0
  4  5  1  0
  5  1  1  0
  5  6  1  1
  6  7  2  0
  8  6  1  0
  8  9  1  0
  9 10  1  6
 11 10  1  0
 12 11  2  0
 13 12  1  0
 14 13  1  0
 14 15  2  0
 15 11  1  0
 16 17  2  0
 16  9  1  0
 18 16  1  0
 19 18  1  0
 19 20  1  1
 21 20  1  0
 22 23  2  0
 22 21  1  0
 24 19  1  0
 24 27  1  0
 25 24  2  0
 26 22  1  0
M  END
$$$$
