PHE.pdb
     RDKit          3D

 27 28  0  0  1  0  0  0  0  0999 V2000
    8.0767  -18.6337   18.4542 N   0  0  0  0  0  0  0  0  0  0  0  0
    7.8399  -18.9871   17.0598 C   0  0  0  0  0  0  0  0  0  0  0  0
    8.2866  -17.7025   16.3650 C   0  0  0  0  0  0  0  0  0  0  0  0
    9.4245  -17.2109   17.2366 C   0  0  0  0  0  0  0  0  0  0  0  0
    9.4336  -18.1688   18.3991 C   0  0  1  0  0  0  0  0  0  0  0  0
    9.8746  -17.5222   19.6574 C   0  0  0  0  0  0  0  0  0  0  0  0
   11.0854  -17.1985   19.8151 O   0  0  0  0  0  0  0  0  0  0  0  0
    8.8947  -17.2870   20.6589 N   0  0  0  0  0  0  0  0  0  0  0  0
    9.1571  -16.5891   21.8851 C   0  0  1  0  0  0  0  0  0  0  0  0
    8.1341  -15.5767   22.2581 C   0  0  0  0  0  0  0  0  0  0  0  0
    7.9697  -14.5512   21.1950 C   0  0  0  0  0  0  0  0  0  0  0  0
    8.9229  -13.7499   20.6101 C   0  0  0  0  0  0  0  0  0  0  0  0
    8.3489  -12.9538   19.6830 N   0  0  0  0  0  0  0  0  0  0  0  0
    7.0420  -13.2456   19.6777 C   0  0  0  0  0  0  0  0  0  0  0  0
    6.8055  -14.2189   20.5977 N   0  0  0  0  0  0  0  0  0  0  0  0
    9.4842  -17.5382   22.9810 C   0  0  0  0  0  0  0  0  0  0  0  0
    8.6332  -18.3973   23.2899 O   0  0  0  0  0  0  0  0  0  0  0  0
   10.7138  -17.4995   23.6762 N   0  0  0  0  0  0  0  0  0  0  0  0
   11.0806  -18.6053   24.5557 C   0  0  1  0  0  0  0  0  0  0  0  0
   12.5896  -18.6915   24.5905 C   0  0  0  0  0  0  0  0  0  0  0  0
   13.1317  -19.7284   25.5090 C   0  0  0  0  0  0  0  0  0  0  0  0
   14.5979  -19.8224   25.5672 C   0  0  0  0  0  0  0  0  0  0  0  0
   15.3349  -20.2984   24.6953 O   0  0  0  0  0  0  0  0  0  0  0  0
   10.4973  -18.3969   25.8872 C   0  0  0  0  0  0  0  0  0  0  0  0
   10.0301  -17.3046   26.2372 O   0  0  0  0  0  0  0  0  0  0  0  0
   15.2168  -19.3270   26.7164 O   0  0  0  0  0  0  0  0  0  0  0  0
   10.4644  -19.4487   26.7856 O   0  0  0  0  0  0  0  0  0  0  0  0
  2  1  1  0
  3  2  1  0
  4  3  1  0
  4  5  1  0
  5  1  1  0
  5  6  1  1
  6  7  2  0
  8  6  1  0
  8  9  1  0
  9 10  1  1
 11 10  1  0
 12 11  2  0
 13 12  1  0
 14 13  1  0
 14 15  2  0
 15 11  1  0
 16 17  2  0
 16  9  1  0
 18 16  1  0
 19 18  1  0
 19 20  1  1
 21 20  1  0
 22 23  2  0
 22 21  1  0
 24 19  1  0
 24 27  1  0
 25 24  2  0
 26 22  1  0
M  END
$$$$
