PHE.pdb
     RDKit          3D

 27 28  0  0  1  0  0  0  0  0999 V2000
    8.5585  -16.0460   17.6486 N   0  0  0  0  0  0  0  0  0  0  0  0
    8.0562  -15.7887   16.3045 C   0  0  0  0  0  0  0  0  0  0  0  0
    7.8787  -14.2726   16.3567 C   0  0  0  0  0  0  0  0  0  0  0  0
    9.0122  -13.8184   17.2539 C   0  0  0  0  0  0  0  0  0  0  0  0
    9.6380  -15.1034   17.7297 C   0  0  1  0  0  0  0  0  0  0  0  0
   10.1993  -14.9835   19.0960 C   0  0  0  0  0  0  0  0  0  0  0  0
   11.1648  -14.2004   19.3200 O   0  0  0  0  0  0  0  0  0  0  0  0
    9.6150  -15.7729   20.1227 N   0  0  0  0  0  0  0  0  0  0  0  0
    9.9956  -15.6957   21.5042 C   0  0  1  0  0  0  0  0  0  0  0  0
    8.8722  -15.8274   22.4693 C   0  0  0  0  0  0  0  0  0  0  0  0
    7.8653  -14.7503   22.2833 C   0  0  0  0  0  0  0  0  0  0  0  0
    7.7521  -13.5477   22.9420 C   0  0  0  0  0  0  0  0  0  0  0  0
    6.6924  -12.8601   22.4656 N   0  0  0  0  0  0  0  0  0  0  0  0
    6.1358  -13.6181   21.5123 C   0  0  0  0  0  0  0  0  0  0  0  0
    6.8471  -14.7716   21.3972 N   0  0  0  0  0  0  0  0  0  0  0  0
   11.1403  -16.5981   21.7945 C   0  0  0  0  0  0  0  0  0  0  0  0
   11.1065  -17.7585   21.3363 O   0  0  0  0  0  0  0  0  0  0  0  0
   12.2527  -16.1889   22.5637 N   0  0  0  0  0  0  0  0  0  0  0  0
   13.3837  -17.0956   22.7360 C   0  0  1  0  0  0  0  0  0  0  0  0
   14.6483  -16.2670   22.7387 C   0  0  0  0  0  0  0  0  0  0  0  0
   15.8934  -17.0346   23.0088 C   0  0  0  0  0  0  0  0  0  0  0  0
   17.1255  -16.2370   23.0971 C   0  0  0  0  0  0  0  0  0  0  0  0
   17.5518  -15.6599   24.1046 O   0  0  0  0  0  0  0  0  0  0  0  0
   13.2159  -17.8716   23.9714 C   0  0  0  0  0  0  0  0  0  0  0  0
   12.4812  -17.4907   24.8929 O   0  0  0  0  0  0  0  0  0  0  0  0
   17.8865  -16.1203   21.9325 O   0  0  0  0  0  0  0  0  0  0  0  0
   13.8961  -19.0673   24.1192 O   0  0  0  0  0  0  0  0  0  0  0  0
  2  1  1  0
  3  2  1  0
  4  3  1  0
  4  5  1  0
  5  1  1  0
  5  6  1  1
  6  7  2  0
  8  6  1  0
  8  9  1  0
  9 10  1  1
 11 10  1  0
 12 11  2  0
 13 12  1  0
 14 13  1  0
 14 15  2  0
 15 11  1  0
 16 17  2  0
 16  9  1  0
 18 16  1  0
 19 18  1  0
 19 20  1  1
 21 20  1  0
 22 23  2  0
 22 21  1  0
 24 19  1  0
 24 27  1  0
 25 24  2  0
 26 22  1  0
M  END
$$$$
