PHE.pdb
     RDKit          3D

 27 28  0  0  1  0  0  0  0  0999 V2000
    9.2038  -13.0860   18.9828 N   0  0  0  0  0  0  0  0  0  0  0  0
    8.2230  -12.1170   18.5095 C   0  0  0  0  0  0  0  0  0  0  0  0
    7.0677  -13.0449   18.1394 C   0  0  0  0  0  0  0  0  0  0  0  0
    7.1669  -14.1540   19.1671 C   0  0  0  0  0  0  0  0  0  0  0  0
    8.4256  -13.8330   19.9298 C   0  0  1  0  0  0  0  0  0  0  0  0
    9.1168  -15.0515   20.4129 C   0  0  0  0  0  0  0  0  0  0  0  0
    8.4676  -15.9562   21.0094 O   0  0  0  0  0  0  0  0  0  0  0  0
   10.5145  -15.1553   20.1801 N   0  0  0  0  0  0  0  0  0  0  0  0
   11.2906  -16.3234   20.4845 C   0  0  1  0  0  0  0  0  0  0  0  0
   12.0306  -16.8991   19.3306 C   0  0  0  0  0  0  0  0  0  0  0  0
   13.0797  -15.9690   18.8375 C   0  0  0  0  0  0  0  0  0  0  0  0
   12.9740  -14.6346   18.5197 C   0  0  0  0  0  0  0  0  0  0  0  0
   14.1706  -14.1631   18.1093 N   0  0  0  0  0  0  0  0  0  0  0  0
   15.0306  -15.1881   18.1652 C   0  0  0  0  0  0  0  0  0  0  0  0
   14.3705  -16.2915   18.6086 N   0  0  0  0  0  0  0  0  0  0  0  0
   12.1368  -16.1047   21.6866 C   0  0  0  0  0  0  0  0  0  0  0  0
   12.5570  -14.9508   21.9091 O   0  0  0  0  0  0  0  0  0  0  0  0
   12.4767  -17.1494   22.5752 N   0  0  0  0  0  0  0  0  0  0  0  0
   13.2874  -16.8589   23.7540 C   0  0  1  0  0  0  0  0  0  0  0  0
   13.0607  -17.9655   24.7589 C   0  0  0  0  0  0  0  0  0  0  0  0
   13.0513  -17.5228   26.1790 C   0  0  0  0  0  0  0  0  0  0  0  0
   12.8528  -18.5860   27.1751 C   0  0  0  0  0  0  0  0  0  0  0  0
   13.2609  -19.7507   27.0920 O   0  0  0  0  0  0  0  0  0  0  0  0
   14.6982  -16.7285   23.3680 C   0  0  0  0  0  0  0  0  0  0  0  0
   15.1537  -17.2644   22.3485 O   0  0  0  0  0  0  0  0  0  0  0  0
   12.1353  -18.2482   28.3240 O   0  0  0  0  0  0  0  0  0  0  0  0
   15.5530  -15.9853   24.1625 O   0  0  0  0  0  0  0  0  0  0  0  0
  2  1  1  0
  3  2  1  0
  4  3  1  0
  4  5  1  0
  5  1  1  0
  5  6  1  6
  6  7  2  0
  8  6  1  0
  8  9  1  0
  9 10  1  6
 11 10  1  0
 12 11  2  0
 13 12  1  0
 14 13  1  0
 14 15  2  0
 15 11  1  0
 16 17  2  0
 16  9  1  0
 18 16  1  0
 19 18  1  0
 19 20  1  1
 21 20  1  0
 22 23  2  0
 22 21  1  0
 24 19  1  0
 24 27  1  0
 25 24  2  0
 26 22  1  0
M  END
$$$$
