PHE.pdb
     RDKit          3D

 27 28  0  0  1  0  0  0  0  0999 V2000
    7.6690  -14.7719   18.5935 N   0  0  0  0  0  0  0  0  0  0  0  0
    7.4323  -13.5215   17.8825 C   0  0  0  0  0  0  0  0  0  0  0  0
    7.3790  -12.5398   19.0513 C   0  0  0  0  0  0  0  0  0  0  0  0
    8.3737  -13.1167   20.0382 C   0  0  0  0  0  0  0  0  0  0  0  0
    8.7947  -14.4204   19.4119 C   0  0  1  0  0  0  0  0  0  0  0  0
    9.1177  -15.4527   20.4249 C   0  0  0  0  0  0  0  0  0  0  0  0
    8.1908  -16.0654   21.0258 O   0  0  0  0  0  0  0  0  0  0  0  0
   10.4891  -15.7176   20.6851 N   0  0  0  0  0  0  0  0  0  0  0  0
   10.9501  -16.7638   21.5526 C   0  0  1  0  0  0  0  0  0  0  0  0
   11.7516  -17.8219   20.8829 C   0  0  0  0  0  0  0  0  0  0  0  0
   10.8956  -18.7131   20.0572 C   0  0  0  0  0  0  0  0  0  0  0  0
   10.8358  -18.8309   18.6877 C   0  0  0  0  0  0  0  0  0  0  0  0
    9.9199  -19.7618   18.3455 N   0  0  0  0  0  0  0  0  0  0  0  0
    9.4012  -20.2326   19.4868 C   0  0  0  0  0  0  0  0  0  0  0  0
    9.9926  -19.5965   20.5334 N   0  0  0  0  0  0  0  0  0  0  0  0
   11.5975  -16.2042   22.7677 C   0  0  0  0  0  0  0  0  0  0  0  0
   12.4231  -15.2796   22.6224 O   0  0  0  0  0  0  0  0  0  0  0  0
   11.3116  -16.6801   24.0671 N   0  0  0  0  0  0  0  0  0  0  0  0
   11.9776  -16.0789   25.2186 C   0  0  1  0  0  0  0  0  0  0  0  0
   11.3593  -16.6602   26.4697 C   0  0  0  0  0  0  0  0  0  0  0  0
   12.0623  -16.3067   27.7321 C   0  0  0  0  0  0  0  0  0  0  0  0
   11.5265  -16.9262   28.9532 C   0  0  0  0  0  0  0  0  0  0  0  0
   10.6071  -17.7516   29.0109 O   0  0  0  0  0  0  0  0  0  0  0  0
   13.4239  -16.3216   25.1397 C   0  0  0  0  0  0  0  0  0  0  0  0
   14.2541  -15.4491   25.4285 O   0  0  0  0  0  0  0  0  0  0  0  0
   12.1114  -16.5461   30.1625 O   0  0  0  0  0  0  0  0  0  0  0  0
   13.8824  -17.5612   24.7306 O   0  0  0  0  0  0  0  0  0  0  0  0
  2  1  1  0
  3  2  1  0
  4  3  1  0
  4  5  1  0
  5  1  1  0
  5  6  1  1
  6  7  2  0
  8  6  1  0
  8  9  1  0
  9 10  1  6
 11 10  1  0
 12 11  2  0
 13 12  1  0
 14 13  1  0
 14 15  2  0
 15 11  1  0
 16 17  2  0
 16  9  1  0
 18 16  1  0
 19 18  1  0
 19 20  1  1
 21 20  1  0
 22 23  2  0
 22 21  1  0
 24 19  1  0
 24 27  1  0
 25 24  2  0
 26 22  1  0
M  END
$$$$
