PRN.pdb
     RDKit          3D

 27 27  0  0  1  0  0  0  0  0999 V2000
    8.8857  -14.2993   19.0821 N   0  0  0  0  0  0  0  0  0  0  0  0
    8.1052  -13.8370   17.9520 C   0  0  0  0  0  0  0  0  0  0  0  0
    6.8939  -13.2284   18.6685 C   0  0  0  0  0  0  0  0  0  0  0  0
    7.6158  -12.4030   19.7411 C   0  0  0  0  0  0  0  0  0  0  0  0
    8.6962  -13.3869   20.1592 C   0  0  1  0  0  0  0  0  0  0  0  0
    8.1763  -14.1144   21.3411 C   0  0  0  0  0  0  0  0  0  0  0  0
    7.8315  -13.4465   22.3462 O   0  0  0  0  0  0  0  0  0  0  0  0
    9.5357  -20.8153   22.0608 N   0  0  0  0  0  0  0  0  0  0  0  0
    9.3042  -21.0787   23.4445 C   0  0  0  0  0  0  0  0  0  0  0  0
   10.1957  -21.7067   24.1629 N   0  0  0  0  0  0  0  0  0  0  0  0
    8.0652  -20.6264   23.9936 N   0  0  0  0  0  0  0  0  0  0  0  0
    7.1734  -19.8961   23.1218 C   0  0  0  0  0  0  0  0  0  0  0  0
    7.1258  -18.4271   23.5225 C   0  0  0  0  0  0  0  0  0  0  0  0
    7.6024  -17.6263   22.3541 C   0  0  0  0  0  0  0  0  0  0  0  0
    7.5439  -16.1370   22.5958 C   0  0  2  0  0  0  0  0  0  0  0  0
    8.0504  -15.5168   21.3915 N   0  0  0  0  0  0  0  0  0  0  0  0
    8.2589  -15.6836   23.7965 C   0  0  0  0  0  0  0  0  0  0  0  0
    9.5009  -15.5305   23.8014 O   0  0  0  0  0  0  0  0  0  0  0  0
   10.0064  -21.9502   25.1560 N   0  0  0  0  0  0  0  0  0  0  0  0
    5.7897  -12.2583   26.5342 C   0  0  0  0  0  0  0  0  0  0  0  0
    7.1328  -12.7829   26.5279 O   0  0  0  0  0  0  0  0  0  0  0  0
    8.0914  -12.0879   26.1227 C   0  0  0  0  0  0  0  0  0  0  0  0
    7.3540  -14.1542   27.0081 C   0  0  2  0  0  0  0  0  0  0  0  0
    8.3259  -14.9535   26.1829 N   0  0  0  0  0  0  0  0  0  0  0  0
    7.5690  -15.3995   25.0039 C   0  0  0  0  0  0  0  0  0  0  0  0
    8.7166  -16.1999   26.8854 O   0  0  0  0  0  0  0  0  0  0  0  0
    8.1472  -17.2932   26.6169 O   0  0  0  0  0  0  0  0  0  0  0  0
  1  5  1  0
  1  2  1  0
  2  3  1  0
  4  3  1  0
  5  4  1  0
  6  7  2  0
  5  6  1  1
  8  9  1  0
  9 10  2  0
 11 12  1  0
 11  9  1  0
 13 12  1  0
 13 14  1  0
 15 14  1  6
 15 16  1  0
 16  6  1  0
 17 15  1  0
 18 17  2  0
 19 20  1  0
 20 21  2  0
 23 22  1  6
 22 20  1  0
 23 24  1  0
 24 17  1  0
 25 27  1  0
 25 23  1  0
 26 25  2  0
M  END
$$$$
