PRN.pdb
     RDKit          3D

 27 27  0  0  1  0  0  0  0  0999 V2000
    9.1132  -13.6928   18.2253 N   0  0  0  0  0  0  0  0  0  0  0  0
    7.8987  -13.2157   17.5951 C   0  0  0  0  0  0  0  0  0  0  0  0
    6.9140  -13.2994   18.7674 C   0  0  0  0  0  0  0  0  0  0  0  0
    7.7568  -12.6312   19.8611 C   0  0  0  0  0  0  0  0  0  0  0  0
    9.1117  -13.2610   19.5825 C   0  0  1  0  0  0  0  0  0  0  0  0
    9.2279  -14.4362   20.4781 C   0  0  0  0  0  0  0  0  0  0  0  0
    8.9920  -14.2779   21.7005 O   0  0  0  0  0  0  0  0  0  0  0  0
    8.1565  -19.4247   16.8347 N   0  0  0  0  0  0  0  0  0  0  0  0
    9.4240  -19.3050   16.1892 C   0  0  0  0  0  0  0  0  0  0  0  0
    9.5014  -19.1193   14.8990 N   0  0  0  0  0  0  0  0  0  0  0  0
   10.5855  -19.3976   17.0161 N   0  0  0  0  0  0  0  0  0  0  0  0
   10.3840  -19.5560   18.4383 C   0  0  0  0  0  0  0  0  0  0  0  0
   10.6601  -18.2441   19.1620 C   0  0  0  0  0  0  0  0  0  0  0  0
    9.6037  -18.0748   20.2056 C   0  0  0  0  0  0  0  0  0  0  0  0
    9.7451  -16.7899   20.9858 C   0  0  2  0  0  0  0  0  0  0  0  0
    9.5899  -15.7203   20.0249 N   0  0  0  0  0  0  0  0  0  0  0  0
   10.9944  -16.6724   21.7500 C   0  0  0  0  0  0  0  0  0  0  0  0
   11.9050  -15.8880   21.4014 O   0  0  0  0  0  0  0  0  0  0  0  0
   10.4226  -19.0075   14.4297 N   0  0  0  0  0  0  0  0  0  0  0  0
   14.6249  -17.4807   25.4233 C   0  0  0  0  0  0  0  0  0  0  0  0
   13.3758  -18.0381   25.8798 O   0  0  0  0  0  0  0  0  0  0  0  0
   13.3092  -18.6626   26.9622 C   0  0  0  0  0  0  0  0  0  0  0  0
   12.1791  -17.8576   25.0460 C   0  0  1  0  0  0  0  0  0  0  0  0
   12.4440  -17.2279   23.7051 N   0  0  0  0  0  0  0  0  0  0  0  0
   11.2210  -17.4457   22.9184 C   0  0  0  0  0  0  0  0  0  0  0  0
   13.5075  -17.9615   22.9769 O   0  0  0  0  0  0  0  0  0  0  0  0
   14.6687  -17.4782   22.8792 O   0  0  0  0  0  0  0  0  0  0  0  0
  1  5  1  0
  1  2  1  0
  2  3  1  0
  4  3  1  0
  5  4  1  0
  6  7  2  0
  5  6  1  1
  8  9  1  0
  9 10  2  0
 11 12  1  0
 11  9  1  0
 13 12  1  0
 13 14  1  0
 15 14  1  6
 15 16  1  0
 16  6  1  0
 17 15  1  0
 18 17  2  0
 19 20  1  0
 20 21  2  0
 23 22  1  1
 22 20  1  0
 23 24  1  0
 24 17  1  0
 25 27  1  0
 25 23  1  0
 26 25  2  0
M  END
$$$$
