PRN.pdb
     RDKit          3D

 27 27  0  0  1  0  0  0  0  0999 V2000
    8.8385  -21.7501   23.0106 N   0  0  0  0  0  0  0  0  0  0  0  0
    7.4246  -22.0044   22.8207 C   0  0  0  0  0  0  0  0  0  0  0  0
    7.2167  -21.4373   21.4114 C   0  0  0  0  0  0  0  0  0  0  0  0
    8.4136  -22.0767   20.6963 C   0  0  0  0  0  0  0  0  0  0  0  0
    9.4909  -21.8925   21.7525 C   0  0  1  0  0  0  0  0  0  0  0  0
   10.2056  -20.6379   21.4185 C   0  0  0  0  0  0  0  0  0  0  0  0
   10.8755  -20.5995   20.3579 O   0  0  0  0  0  0  0  0  0  0  0  0
    6.7263  -13.5642   19.8767 N   0  0  0  0  0  0  0  0  0  0  0  0
    8.0330  -13.2301   19.4094 C   0  0  0  0  0  0  0  0  0  0  0  0
    8.2154  -12.2208   18.6013 N   0  0  0  0  0  0  0  0  0  0  0  0
    9.1141  -14.0455   19.8652 N   0  0  0  0  0  0  0  0  0  0  0  0
    8.7845  -15.2417   20.6061 C   0  0  0  0  0  0  0  0  0  0  0  0
   10.0541  -15.9703   21.0283 C   0  0  0  0  0  0  0  0  0  0  0  0
    9.6429  -17.2557   21.6704 C   0  0  0  0  0  0  0  0  0  0  0  0
   10.7655  -18.2624   21.7481 C   0  0  2  0  0  0  0  0  0  0  0  0
   10.1699  -19.4881   22.2321 N   0  0  0  0  0  0  0  0  0  0  0  0
   11.9101  -17.8405   22.5668 C   0  0  0  0  0  0  0  0  0  0  0  0
   11.8347  -17.7733   23.8141 O   0  0  0  0  0  0  0  0  0  0  0  0
    9.1409  -12.0515   18.1583 N   0  0  0  0  0  0  0  0  0  0  0  0
   16.4829  -18.0814   24.2522 C   0  0  0  0  0  0  0  0  0  0  0  0
   16.6526  -17.9313   22.8282 O   0  0  0  0  0  0  0  0  0  0  0  0
   17.7396  -18.2169   22.2778 C   0  0  0  0  0  0  0  0  0  0  0  0
   15.5202  -17.4347   22.0339 C   0  0  2  0  0  0  0  0  0  0  0  0
   14.2860  -17.1230   22.8366 N   0  0  0  0  0  0  0  0  0  0  0  0
   13.1522  -17.4905   21.9757 C   0  0  0  0  0  0  0  0  0  0  0  0
   14.1499  -15.6620   23.0520 O   0  0  0  0  0  0  0  0  0  0  0  0
   15.0008  -15.0327   23.7387 O   0  0  0  0  0  0  0  0  0  0  0  0
  1  5  1  0
  1  2  1  0
  2  3  1  0
  4  3  1  0
  5  4  1  0
  6  7  2  0
  5  6  1  6
  8  9  1  0
  9 10  2  0
 11 12  1  0
 11  9  1  0
 13 12  1  0
 13 14  1  0
 15 14  1  1
 15 16  1  0
 16  6  1  0
 17 15  1  0
 18 17  2  0
 19 20  1  0
 20 21  2  0
 23 22  1  1
 22 20  1  0
 23 24  1  0
 24 17  1  0
 25 27  1  0
 25 23  1  0
 26 25  2  0
M  END
$$$$
