PRN.pdb
     RDKit          3D

 27 27  0  0  1  0  0  0  0  0999 V2000
    9.3178  -13.8397   18.9847 N   0  0  0  0  0  0  0  0  0  0  0  0
    8.4568  -13.7139   17.8260 C   0  0  0  0  0  0  0  0  0  0  0  0
    7.0755  -13.8496   18.4776 C   0  0  0  0  0  0  0  0  0  0  0  0
    7.2495  -12.8835   19.6562 C   0  0  0  0  0  0  0  0  0  0  0  0
    8.6579  -13.2457   20.0983 C   0  0  1  0  0  0  0  0  0  0  0  0
    8.5202  -14.2441   21.1850 C   0  0  0  0  0  0  0  0  0  0  0  0
    7.7651  -13.9724   22.1499 O   0  0  0  0  0  0  0  0  0  0  0  0
   12.2945  -20.5442   24.0173 N   0  0  0  0  0  0  0  0  0  0  0  0
   11.1343  -21.3395   24.2601 C   0  0  0  0  0  0  0  0  0  0  0  0
   11.1493  -22.2851   25.1606 N   0  0  0  0  0  0  0  0  0  0  0  0
    9.9737  -21.0513   23.4781 N   0  0  0  0  0  0  0  0  0  0  0  0
   10.0781  -20.0068   22.4848 C   0  0  0  0  0  0  0  0  0  0  0  0
    9.5385  -18.6938   23.0378 C   0  0  0  0  0  0  0  0  0  0  0  0
    9.5938  -17.6850   21.9364 C   0  0  0  0  0  0  0  0  0  0  0  0
    9.1404  -16.3118   22.3703 C   0  0  2  0  0  0  0  0  0  0  0  0
    9.1946  -15.4812   21.1877 N   0  0  0  0  0  0  0  0  0  0  0  0
    9.9054  -15.7391   23.4862 C   0  0  0  0  0  0  0  0  0  0  0  0
   10.6874  -14.7765   23.3193 O   0  0  0  0  0  0  0  0  0  0  0  0
   10.3167  -22.8884   25.3157 N   0  0  0  0  0  0  0  0  0  0  0  0
    9.9944  -13.5602   28.0616 C   0  0  0  0  0  0  0  0  0  0  0  0
    9.0037  -13.3767   27.0300 O   0  0  0  0  0  0  0  0  0  0  0  0
    8.1712  -12.4449   27.0983 C   0  0  0  0  0  0  0  0  0  0  0  0
    8.9915  -14.3084   25.8935 C   0  0  1  0  0  0  0  0  0  0  0  0
   10.0514  -15.3751   25.9517 N   0  0  0  0  0  0  0  0  0  0  0  0
    9.7890  -16.2551   24.8033 C   0  0  0  0  0  0  0  0  0  0  0  0
    9.8715  -16.2351   27.1465 O   0  0  0  0  0  0  0  0  0  0  0  0
   10.0973  -15.7830   28.3024 O   0  0  0  0  0  0  0  0  0  0  0  0
  1  5  1  0
  1  2  1  0
  2  3  1  0
  4  3  1  0
  5  4  1  0
  6  7  2  0
  5  6  1  1
  8  9  1  0
  9 10  2  0
 11 12  1  0
 11  9  1  0
 13 12  1  0
 13 14  1  0
 15 14  1  6
 15 16  1  0
 16  6  1  0
 17 15  1  0
 18 17  2  0
 19 20  1  0
 20 21  2  0
 23 22  1  6
 22 20  1  0
 23 24  1  0
 24 17  1  0
 25 27  1  0
 25 23  1  0
 26 25  2  0
M  END
$$$$
