PRN.pdb
     RDKit          3D

 27 27  0  0  1  0  0  0  0  0999 V2000
    8.9429  -12.5635   19.2638 N   0  0  0  0  0  0  0  0  0  0  0  0
    8.0241  -12.2642   18.1839 C   0  0  0  0  0  0  0  0  0  0  0  0
    7.4469  -13.6566   17.9027 C   0  0  0  0  0  0  0  0  0  0  0  0
    7.1334  -14.1009   19.3370 C   0  0  0  0  0  0  0  0  0  0  0  0
    8.3802  -13.6074   20.0526 C   0  0  1  0  0  0  0  0  0  0  0  0
    9.3212  -14.7511   20.1076 C   0  0  0  0  0  0  0  0  0  0  0  0
    8.9121  -15.8351   20.5898 O   0  0  0  0  0  0  0  0  0  0  0  0
   14.6021  -14.0574   16.5787 N   0  0  0  0  0  0  0  0  0  0  0  0
   15.6762  -14.4941   17.4113 C   0  0  0  0  0  0  0  0  0  0  0  0
   16.7162  -13.7310   17.6147 N   0  0  0  0  0  0  0  0  0  0  0  0
   15.5556  -15.7898   18.0013 N   0  0  0  0  0  0  0  0  0  0  0  0
   14.4807  -16.6382   17.5397 C   0  0  0  0  0  0  0  0  0  0  0  0
   13.4827  -16.8879   18.6634 C   0  0  0  0  0  0  0  0  0  0  0  0
   12.5561  -15.7163   18.7110 C   0  0  0  0  0  0  0  0  0  0  0  0
   11.5109  -15.8338   19.7942 C   0  0  2  0  0  0  0  0  0  0  0  0
   10.6505  -14.6809   19.6457 N   0  0  0  0  0  0  0  0  0  0  0  0
   12.0510  -15.9517   21.1553 C   0  0  0  0  0  0  0  0  0  0  0  0
   12.3667  -14.9428   21.8251 O   0  0  0  0  0  0  0  0  0  0  0  0
   17.5388  -14.0797   18.1468 N   0  0  0  0  0  0  0  0  0  0  0  0
   13.0983  -18.0763   25.8053 C   0  0  0  0  0  0  0  0  0  0  0  0
   11.7285  -17.9287   25.3799 O   0  0  0  0  0  0  0  0  0  0  0  0
   10.7848  -18.1028   26.1831 C   0  0  0  0  0  0  0  0  0  0  0  0
   11.4621  -17.5686   23.9802 C   0  0  1  0  0  0  0  0  0  0  0  0
   12.6949  -17.2859   23.1648 N   0  0  0  0  0  0  0  0  0  0  0  0
   12.2377  -17.2178   21.7690 C   0  0  0  0  0  0  0  0  0  0  0  0
   13.6330  -18.4337   23.2086 O   0  0  0  0  0  0  0  0  0  0  0  0
   13.4171  -19.4656   22.5156 O   0  0  0  0  0  0  0  0  0  0  0  0
  1  5  1  0
  1  2  1  0
  2  3  1  0
  4  3  1  0
  5  4  1  0
  6  7  2  0
  5  6  1  6
  8  9  1  0
  9 10  2  0
 11 12  1  0
 11  9  1  0
 13 12  1  0
 13 14  1  0
 15 14  1  6
 15 16  1  0
 16  6  1  0
 17 15  1  0
 18 17  2  0
 19 20  1  0
 20 21  2  0
 23 22  1  1
 22 20  1  0
 23 24  1  0
 24 17  1  0
 25 27  1  0
 25 23  1  0
 26 25  2  0
M  END
$$$$
