PRN.pdb
     RDKit          3D

 27 27  0  0  1  0  0  0  0  0999 V2000
    8.2871  -15.0090   18.9319 N   0  0  0  0  0  0  0  0  0  0  0  0
    7.5730  -14.2263   17.9432 C   0  0  0  0  0  0  0  0  0  0  0  0
    6.9303  -13.1557   18.8329 C   0  0  0  0  0  0  0  0  0  0  0  0
    8.1465  -12.7583   19.6789 C   0  0  0  0  0  0  0  0  0  0  0  0
    8.7458  -14.1280   19.9526 C   0  0  1  0  0  0  0  0  0  0  0  0
    8.2176  -14.5701   21.2649 C   0  0  0  0  0  0  0  0  0  0  0  0
    6.9751  -14.6883   21.3965 O   0  0  0  0  0  0  0  0  0  0  0  0
    5.4852  -21.4226   22.3304 N   0  0  0  0  0  0  0  0  0  0  0  0
    6.0660  -21.2209   23.6186 C   0  0  0  0  0  0  0  0  0  0  0  0
    5.4729  -21.6620   24.6951 N   0  0  0  0  0  0  0  0  0  0  0  0
    7.3111  -20.5219   23.6676 N   0  0  0  0  0  0  0  0  0  0  0  0
    7.4621  -19.3626   22.8180 C   0  0  0  0  0  0  0  0  0  0  0  0
    7.8304  -18.1404   23.6495 C   0  0  0  0  0  0  0  0  0  0  0  0
    8.2076  -17.0482   22.7017 C   0  0  0  0  0  0  0  0  0  0  0  0
    8.5500  -15.7535   23.3990 C   0  0  2  0  0  0  0  0  0  0  0  0
    9.0408  -14.8636   22.3702 N   0  0  0  0  0  0  0  0  0  0  0  0
    9.4982  -15.8907   24.5128 C   0  0  0  0  0  0  0  0  0  0  0  0
   10.7031  -16.1665   24.3179 O   0  0  0  0  0  0  0  0  0  0  0  0
    5.9084  -21.5433   25.6318 N   0  0  0  0  0  0  0  0  0  0  0  0
    9.7815  -13.6445   30.1238 C   0  0  0  0  0  0  0  0  0  0  0  0
   10.4320  -14.0347   28.8975 O   0  0  0  0  0  0  0  0  0  0  0  0
   11.6797  -14.1002   28.8256 C   0  0  0  0  0  0  0  0  0  0  0  0
    9.5981  -14.3547   27.7304 C   0  0  2  0  0  0  0  0  0  0  0  0
   10.0983  -15.5100   26.9060 N   0  0  0  0  0  0  0  0  0  0  0  0
    9.0859  -15.7155   25.8596 C   0  0  0  0  0  0  0  0  0  0  0  0
   10.0966  -16.7645   27.6970 O   0  0  0  0  0  0  0  0  0  0  0  0
    9.0541  -17.4703   27.7783 O   0  0  0  0  0  0  0  0  0  0  0  0
  1  5  1  0
  1  2  1  0
  2  3  1  0
  4  3  1  0
  5  4  1  0
  6  7  2  0
  5  6  1  1
  8  9  1  0
  9 10  2  0
 11 12  1  0
 11  9  1  0
 13 12  1  0
 13 14  1  0
 15 14  1  6
 15 16  1  0
 16  6  1  0
 17 15  1  0
 18 17  2  0
 19 20  1  0
 20 21  2  0
 23 22  1  6
 22 20  1  0
 23 24  1  0
 24 17  1  0
 25 27  1  0
 25 23  1  0
 26 25  2  0
M  END
$$$$
