PRN.pdb
     RDKit          3D

 27 27  0  0  1  0  0  0  0  0999 V2000
    8.9236  -14.9470   19.3404 N   0  0  0  0  0  0  0  0  0  0  0  0
    8.1748  -14.5587   18.1620 C   0  0  0  0  0  0  0  0  0  0  0  0
    7.0324  -13.7577   18.7978 C   0  0  0  0  0  0  0  0  0  0  0  0
    7.8390  -12.8753   19.7589 C   0  0  0  0  0  0  0  0  0  0  0  0
    8.8306  -13.8946   20.2956 C   0  0  1  0  0  0  0  0  0  0  0  0
    8.2610  -14.4194   21.5592 C   0  0  0  0  0  0  0  0  0  0  0  0
    8.0296  -13.6087   22.4889 O   0  0  0  0  0  0  0  0  0  0  0  0
    6.4405  -21.7919   27.1158 N   0  0  0  0  0  0  0  0  0  0  0  0
    7.0003  -21.1913   25.9481 C   0  0  0  0  0  0  0  0  0  0  0  0
    8.2720  -21.3144   25.6782 N   0  0  0  0  0  0  0  0  0  0  0  0
    6.1101  -20.4598   25.1033 N   0  0  0  0  0  0  0  0  0  0  0  0
    6.6674  -19.8330   23.9264 C   0  0  0  0  0  0  0  0  0  0  0  0
    7.0725  -18.3967   24.2323 C   0  0  0  0  0  0  0  0  0  0  0  0
    7.1398  -17.6615   22.9328 C   0  0  0  0  0  0  0  0  0  0  0  0
    7.5823  -16.2264   23.0886 C   0  0  2  0  0  0  0  0  0  0  0  0
    7.9671  -15.7815   21.7675 N   0  0  0  0  0  0  0  0  0  0  0  0
    8.6496  -16.0191   24.0767 C   0  0  0  0  0  0  0  0  0  0  0  0
    9.8517  -16.2258   23.7966 O   0  0  0  0  0  0  0  0  0  0  0  0
    8.6933  -20.8325   24.8587 N   0  0  0  0  0  0  0  0  0  0  0  0
   11.0883  -14.6989   28.5052 C   0  0  0  0  0  0  0  0  0  0  0  0
    9.8031  -14.0463   28.4653 O   0  0  0  0  0  0  0  0  0  0  0  0
    9.4676  -13.2347   29.3568 C   0  0  0  0  0  0  0  0  0  0  0  0
    8.8926  -14.3543   27.3535 C   0  0  1  0  0  0  0  0  0  0  0  0
    9.4667  -15.2830   26.3179 N   0  0  0  0  0  0  0  0  0  0  0  0
    8.3611  -15.5748   25.3935 C   0  0  0  0  0  0  0  0  0  0  0  0
    9.8227  -16.5910   26.9195 O   0  0  0  0  0  0  0  0  0  0  0  0
   11.0188  -16.8535   27.2228 O   0  0  0  0  0  0  0  0  0  0  0  0
  1  5  1  0
  1  2  1  0
  2  3  1  0
  4  3  1  0
  5  4  1  0
  6  7  2  0
  5  6  1  1
  8  9  1  0
  9 10  2  0
 11 12  1  0
 11  9  1  0
 13 12  1  0
 13 14  1  0
 15 14  1  6
 15 16  1  0
 16  6  1  0
 17 15  1  0
 18 17  2  0
 19 20  1  0
 20 21  2  0
 23 22  1  6
 22 20  1  0
 23 24  1  0
 24 17  1  0
 25 27  1  0
 25 23  1  0
 26 25  2  0
M  END
$$$$
