PRN.pdb
     RDKit          3D

 27 27  0  0  1  0  0  0  0  0999 V2000
    9.2704  -14.2730   18.8013 N   0  0  0  0  0  0  0  0  0  0  0  0
    8.4374  -14.1293   17.6243 C   0  0  0  0  0  0  0  0  0  0  0  0
    7.0513  -13.9992   18.2666 C   0  0  0  0  0  0  0  0  0  0  0  0
    7.3665  -12.9644   19.3542 C   0  0  0  0  0  0  0  0  0  0  0  0
    8.7057  -13.4878   19.8468 C   0  0  1  0  0  0  0  0  0  0  0  0
    8.4219  -14.3503   21.0182 C   0  0  0  0  0  0  0  0  0  0  0  0
    7.4331  -14.0690   21.7380 O   0  0  0  0  0  0  0  0  0  0  0  0
   11.4579  -20.2783   17.6806 N   0  0  0  0  0  0  0  0  0  0  0  0
   11.4583  -19.5552   18.9113 C   0  0  0  0  0  0  0  0  0  0  0  0
   12.2367  -18.5199   19.0772 N   0  0  0  0  0  0  0  0  0  0  0  0
   10.5762  -20.0164   19.9362 N   0  0  0  0  0  0  0  0  0  0  0  0
   10.5997  -19.3210   21.2028 C   0  0  0  0  0  0  0  0  0  0  0  0
    9.6727  -18.1127   21.1613 C   0  0  0  0  0  0  0  0  0  0  0  0
    9.7099  -17.4704   22.5102 C   0  0  0  0  0  0  0  0  0  0  0  0
    8.9077  -16.1930   22.5781 C   0  0  2  0  0  0  0  0  0  0  0  0
    9.2065  -15.4688   21.3626 N   0  0  0  0  0  0  0  0  0  0  0  0
    9.1479  -15.3830   23.7801 C   0  0  0  0  0  0  0  0  0  0  0  0
   10.2336  -14.7885   23.9640 O   0  0  0  0  0  0  0  0  0  0  0  0
   12.3059  -18.0460   20.0002 N   0  0  0  0  0  0  0  0  0  0  0  0
    5.7481  -12.0024   27.5035 C   0  0  0  0  0  0  0  0  0  0  0  0
    7.0034  -12.6341   27.1802 O   0  0  0  0  0  0  0  0  0  0  0  0
    8.0335  -12.3944   27.8492 C   0  0  0  0  0  0  0  0  0  0  0  0
    7.0489  -13.5676   26.0461 C   0  0  1  0  0  0  0  0  0  0  0  0
    8.3645  -14.2786   25.8774 N   0  0  0  0  0  0  0  0  0  0  0  0
    8.1559  -15.2406   24.7852 C   0  0  0  0  0  0  0  0  0  0  0  0
    8.6747  -15.1069   27.0679 O   0  0  0  0  0  0  0  0  0  0  0  0
    8.9356  -14.5645   28.1766 O   0  0  0  0  0  0  0  0  0  0  0  0
  1  5  1  0
  1  2  1  0
  2  3  1  0
  4  3  1  0
  5  4  1  0
  6  7  2  0
  5  6  1  1
  8  9  1  0
  9 10  2  0
 11 12  1  0
 11  9  1  0
 13 12  1  0
 13 14  1  0
 15 14  1  1
 15 16  1  0
 16  6  1  0
 17 15  1  0
 18 17  2  0
 19 20  1  0
 20 21  2  0
 23 22  1  6
 22 20  1  0
 23 24  1  0
 24 17  1  0
 25 27  1  0
 25 23  1  0
 26 25  2  0
M  END
$$$$
