PRN.pdb
     RDKit          3D

 27 27  0  0  1  0  0  0  0  0999 V2000
    7.7551  -14.5790   19.0887 N   0  0  0  0  0  0  0  0  0  0  0  0
    6.8581  -14.0344   20.0882 C   0  0  0  0  0  0  0  0  0  0  0  0
    7.7532  -12.9658   20.7267 C   0  0  0  0  0  0  0  0  0  0  0  0
    8.3016  -12.2972   19.4598 C   0  0  0  0  0  0  0  0  0  0  0  0
    8.5784  -13.5226   18.6043 C   0  0  1  0  0  0  0  0  0  0  0  0
   10.0046  -13.8711   18.8072 C   0  0  0  0  0  0  0  0  0  0  0  0
   10.8625  -12.9644   18.6772 O   0  0  0  0  0  0  0  0  0  0  0  0
   16.6335  -13.6797   15.9619 N   0  0  0  0  0  0  0  0  0  0  0  0
   17.1148  -13.9969   17.2677 C   0  0  0  0  0  0  0  0  0  0  0  0
   18.2829  -13.5738   17.6699 N   0  0  0  0  0  0  0  0  0  0  0  0
   16.2647  -14.7895   18.0987 N   0  0  0  0  0  0  0  0  0  0  0  0
   14.8560  -14.8219   17.7779 C   0  0  0  0  0  0  0  0  0  0  0  0
   14.0362  -14.2631   18.9340 C   0  0  0  0  0  0  0  0  0  0  0  0
   12.5937  -14.3807   18.5611 C   0  0  0  0  0  0  0  0  0  0  0  0
   11.8485  -15.3933   19.3971 C   0  0  2  0  0  0  0  0  0  0  0  0
   10.4436  -15.1684   19.1383 N   0  0  0  0  0  0  0  0  0  0  0  0
   12.1621  -15.3519   20.8318 C   0  0  0  0  0  0  0  0  0  0  0  0
   12.2070  -14.2718   21.4622 O   0  0  0  0  0  0  0  0  0  0  0  0
   18.6909  -13.9046   18.5674 N   0  0  0  0  0  0  0  0  0  0  0  0
    9.7228  -16.6926   25.4229 C   0  0  0  0  0  0  0  0  0  0  0  0
   10.7855  -17.4282   24.7837 O   0  0  0  0  0  0  0  0  0  0  0  0
   11.4909  -18.2320   25.4338 C   0  0  0  0  0  0  0  0  0  0  0  0
   11.0244  -17.2146   23.3494 C   0  0  1  0  0  0  0  0  0  0  0  0
   12.3223  -16.5228   23.0308 N   0  0  0  0  0  0  0  0  0  0  0  0
   12.4280  -16.5381   21.5643 C   0  0  0  0  0  0  0  0  0  0  0  0
   13.4780  -17.3193   23.5098 O   0  0  0  0  0  0  0  0  0  0  0  0
   13.9024  -18.3007   22.8403 O   0  0  0  0  0  0  0  0  0  0  0  0
  1  5  1  0
  1  2  1  0
  2  3  1  0
  4  3  1  0
  5  4  1  0
  6  7  2  0
  5  6  1  1
  8  9  1  0
  9 10  2  0
 11 12  1  0
 11  9  1  0
 13 12  1  0
 13 14  1  0
 15 14  1  6
 15 16  1  0
 16  6  1  0
 17 15  1  0
 18 17  2  0
 19 20  1  0
 20 21  2  0
 23 22  1  6
 22 20  1  0
 23 24  1  0
 24 17  1  0
 25 27  1  0
 25 23  1  0
 26 25  2  0
M  END
$$$$
