PRN.pdb
     RDKit          3D

 27 27  0  0  1  0  0  0  0  0999 V2000
    7.5205  -11.7793   26.4393 N   0  0  0  0  0  0  0  0  0  0  0  0
    6.5862  -10.7293   26.7921 C   0  0  0  0  0  0  0  0  0  0  0  0
    5.2534  -11.3975   26.4342 C   0  0  0  0  0  0  0  0  0  0  0  0
    5.4619  -12.7634   27.1003 C   0  0  0  0  0  0  0  0  0  0  0  0
    6.9073  -13.0346   26.7167 C   0  0  1  0  0  0  0  0  0  0  0  0
    6.8745  -13.8551   25.4830 C   0  0  0  0  0  0  0  0  0  0  0  0
    6.3946  -15.0128   25.5514 O   0  0  0  0  0  0  0  0  0  0  0  0
    8.2502  -12.6308   17.0405 N   0  0  0  0  0  0  0  0  0  0  0  0
    8.1679  -14.0548   17.0950 C   0  0  0  0  0  0  0  0  0  0  0  0
    8.0594  -14.7597   16.0011 N   0  0  0  0  0  0  0  0  0  0  0  0
    8.2096  -14.6590   18.3890 N   0  0  0  0  0  0  0  0  0  0  0  0
    8.0481  -13.7957   19.5366 C   0  0  0  0  0  0  0  0  0  0  0  0
    8.1702  -14.5988   20.8254 C   0  0  0  0  0  0  0  0  0  0  0  0
    7.9337  -13.6606   21.9645 C   0  0  0  0  0  0  0  0  0  0  0  0
    7.9113  -14.3539   23.3056 C   0  0  2  0  0  0  0  0  0  0  0  0
    7.3549  -13.3999   24.2391 N   0  0  0  0  0  0  0  0  0  0  0  0
    9.2134  -14.8700   23.7493 C   0  0  0  0  0  0  0  0  0  0  0  0
    9.7666  -14.4468   24.7890 O   0  0  0  0  0  0  0  0  0  0  0  0
    7.9641  -15.7945   16.0397 N   0  0  0  0  0  0  0  0  0  0  0  0
   12.2662  -18.5302   25.3156 C   0  0  0  0  0  0  0  0  0  0  0  0
   10.8664  -18.3577   25.6155 O   0  0  0  0  0  0  0  0  0  0  0  0
   10.3371  -18.9593   26.5767 C   0  0  0  0  0  0  0  0  0  0  0  0
   10.0715  -17.4586   24.7671 C   0  0  2  0  0  0  0  0  0  0  0  0
   10.8625  -16.7437   23.7052 N   0  0  0  0  0  0  0  0  0  0  0  0
    9.8997  -15.8724   23.0154 C   0  0  0  0  0  0  0  0  0  0  0  0
   11.3359  -17.6930   22.6689 O   0  0  0  0  0  0  0  0  0  0  0  0
   10.5218  -18.2219   21.8633 O   0  0  0  0  0  0  0  0  0  0  0  0
  1  5  1  0
  1  2  1  0
  2  3  1  0
  4  3  1  0
  5  4  1  0
  6  7  2  0
  5  6  1  6
  8  9  1  0
  9 10  2  0
 11 12  1  0
 11  9  1  0
 13 12  1  0
 13 14  1  0
 15 14  1  6
 15 16  1  0
 16  6  1  0
 17 15  1  0
 18 17  2  0
 19 20  1  0
 20 21  2  0
 23 22  1  1
 22 20  1  0
 23 24  1  0
 24 17  1  0
 25 27  1  0
 25 23  1  0
 26 25  2  0
M  END
$$$$
