PRN.pdb
     RDKit          3D

 27 27  0  0  1  0  0  0  0  0999 V2000
    8.5568  -14.5042   19.1899 N   0  0  0  0  0  0  0  0  0  0  0  0
    7.4985  -14.0617   18.3043 C   0  0  0  0  0  0  0  0  0  0  0  0
    6.4495  -13.5943   19.3203 C   0  0  0  0  0  0  0  0  0  0  0  0
    7.3414  -12.7579   20.2465 C   0  0  0  0  0  0  0  0  0  0  0  0
    8.5604  -13.6612   20.3378 C   0  0  1  0  0  0  0  0  0  0  0  0
    8.3911  -14.4838   21.5590 C   0  0  0  0  0  0  0  0  0  0  0  0
    8.1969  -13.8951   22.6503 O   0  0  0  0  0  0  0  0  0  0  0  0
    4.9917  -22.7707   25.1434 N   0  0  0  0  0  0  0  0  0  0  0  0
    5.3489  -21.9606   24.0237 C   0  0  0  0  0  0  0  0  0  0  0  0
    4.9206  -22.2519   22.8250 N   0  0  0  0  0  0  0  0  0  0  0  0
    6.1868  -20.8319   24.2793 N   0  0  0  0  0  0  0  0  0  0  0  0
    6.5026  -19.9666   23.1658 C   0  0  0  0  0  0  0  0  0  0  0  0
    7.2777  -18.7461   23.6462 C   0  0  0  0  0  0  0  0  0  0  0  0
    7.5360  -17.8799   22.4560 C   0  0  0  0  0  0  0  0  0  0  0  0
    8.2718  -16.6073   22.8007 C   0  0  2  0  0  0  0  0  0  0  0  0
    8.4376  -15.8920   21.5548 N   0  0  0  0  0  0  0  0  0  0  0  0
    9.5485  -16.8087   23.4991 C   0  0  0  0  0  0  0  0  0  0  0  0
   10.5738  -17.1930   22.8933 O   0  0  0  0  0  0  0  0  0  0  0  0
    5.1381  -21.6363   22.0157 N   0  0  0  0  0  0  0  0  0  0  0  0
    9.7859  -16.7671   28.1363 C   0  0  0  0  0  0  0  0  0  0  0  0
    9.9106  -18.0637   27.5179 O   0  0  0  0  0  0  0  0  0  0  0  0
    9.3509  -19.0675   28.0133 C   0  0  0  0  0  0  0  0  0  0  0  0
   10.7102  -18.1831   26.2906 C   0  0  2  0  0  0  0  0  0  0  0  0
   10.9416  -16.8827   25.5695 N   0  0  0  0  0  0  0  0  0  0  0  0
    9.6725  -16.5752   24.8936 C   0  0  0  0  0  0  0  0  0  0  0  0
   11.9300  -17.0522   24.4769 O   0  0  0  0  0  0  0  0  0  0  0  0
   12.2950  -16.0640   23.7828 O   0  0  0  0  0  0  0  0  0  0  0  0
  1  5  1  0
  1  2  1  0
  2  3  1  0
  4  3  1  0
  5  4  1  0
  6  7  2  0
  5  6  1  1
  8  9  1  0
  9 10  2  0
 11 12  1  0
 11  9  1  0
 13 12  1  0
 13 14  1  0
 15 14  1  6
 15 16  1  0
 16  6  1  0
 17 15  1  0
 18 17  2  0
 19 20  1  0
 20 21  2  0
 23 22  1  1
 22 20  1  0
 23 24  1  0
 24 17  1  0
 25 27  1  0
 25 23  1  0
 26 25  2  0
M  END
$$$$
