RYI.pdb
     RDKit          3D

 32 32  0  0  1  0  0  0  0  0999 V2000
   10.7634  -17.9316   -0.9396 N   0  0  0  0  0  0  0  0  0  0  0  0
   10.4965  -19.1159   -0.2003 C   0  0  0  0  0  0  0  0  0  0  0  0
    9.3108  -19.6115   -0.2728 N   0  0  0  0  0  0  0  0  0  0  0  0
   11.4522  -19.7670    0.5990 N   0  0  0  0  0  0  0  0  0  0  0  0
   12.6071  -19.0541    1.1688 C   0  0  0  0  0  0  0  0  0  0  0  0
   13.3053  -20.0234    2.0560 C   0  0  0  0  0  0  0  0  0  0  0  0
   14.5404  -19.5300    2.7241 C   0  0  0  0  0  0  0  0  0  0  0  0
   15.6658  -19.1363    1.8320 C   0  0  2  0  0  0  0  0  0  0  0  0
   16.3408  -20.2184    1.1941 N   0  0  0  0  0  0  0  0  0  0  0  0
   16.6690  -18.3784    2.6788 C   0  0  0  0  0  0  0  0  0  0  0  0
   17.6915  -18.9852    3.0427 O   0  0  0  0  0  0  0  0  0  0  0  0
    8.9953  -20.4895    0.1485 O   0  0  0  0  0  0  0  0  0  0  0  0
   20.4271  -11.2918    6.4456 C   0  0  0  0  0  0  0  0  0  0  0  0
   19.5656  -12.1347    5.7562 C   0  0  0  0  0  0  0  0  0  0  0  0
   19.8577  -12.5356    4.4714 C   0  0  0  0  0  0  0  0  0  0  0  0
   18.9781  -13.3820    3.7986 C   0  0  0  0  0  0  0  0  0  0  0  0
   17.8199  -13.8322    4.3820 C   0  0  0  0  0  0  0  0  0  0  0  0
   16.8938  -14.7270    3.6688 C   0  0  2  0  0  0  0  0  0  0  0  0
   17.2220  -16.1750    3.8294 N   0  0  0  0  0  0  0  0  0  0  0  0
   16.4460  -17.0460    3.0339 C   0  0  0  0  0  0  0  0  0  0  0  0
   17.4120  -16.4971    5.2504 O   0  0  0  0  0  0  0  0  0  0  0  0
   16.4533  -16.7650    5.9945 C   0  0  0  0  0  0  0  0  0  0  0  0
   17.5552  -13.4161    5.6627 C   0  0  0  0  0  0  0  0  0  0  0  0
   18.4192  -12.5707    6.3550 C   0  0  0  0  0  0  0  0  0  0  0  0
   20.9694  -20.1351    8.3296 C   0  0  0  0  0  0  0  0  0  0  0  0
   20.2114  -18.8514    8.4359 C   0  0  2  0  0  0  0  0  0  0  0  0
   19.7264  -18.2200    7.1948 C   0  0  0  0  0  0  0  0  0  0  0  0
   20.9201  -17.8849    6.2613 C   0  0  2  0  0  0  0  0  0  0  0  0
   18.8968  -16.9956    7.2415 N   0  0  0  0  0  0  0  0  0  0  0  0
   18.6927  -16.5181    5.8303 C   0  0  0  0  0  0  0  0  0  0  0  0
   19.3226  -15.8502    8.0058 O   0  0  0  0  0  0  0  0  0  0  0  0
   19.8766  -14.6788    7.5342 O   0  0  0  0  0  0  0  0  0  0  0  0
  2  4  1  0
  2  1  1  0
  3  2  2  0
  5  6  1  0
  5  4  1  0
  7  8  1  0
  7  6  1  0
  8 10  1  0
  8  9  1  1
 10 11  2  0
 12 13  1  0
 13 23  2  0
 13 14  1  0
 14 15  2  0
 15 16  1  0
 16 17  1  0
 18 17  1  6
 18 20  1  0
 19 18  1  0
 19 10  1  0
 20 29  1  0
 21 20  2  0
 22 16  2  0
 23 22  1  0
 24 25  1  0
 26 25  1  0
 26 28  1  0
 26 27  1  6
 28 30  1  0
 28 29  1  1
 30 32  2  0
 30 31  1  0
M  END
$$$$
