RYI.pdb
     RDKit          3D

 32 32  0  0  1  0  0  0  0  0999 V2000
   29.5512  -18.4537  -20.8328 N   0  0  0  0  0  0  0  0  0  0  0  0
   29.2840  -17.8182  -19.5897 C   0  0  0  0  0  0  0  0  0  0  0  0
   29.0148  -16.5596  -19.6074 N   0  0  0  0  0  0  0  0  0  0  0  0
   29.2994  -18.4876  -18.3536 N   0  0  0  0  0  0  0  0  0  0  0  0
   28.8388  -19.8789  -18.2155 C   0  0  0  0  0  0  0  0  0  0  0  0
   27.3516  -19.8318  -18.2064 C   0  0  0  0  0  0  0  0  0  0  0  0
   26.6875  -20.3020  -16.9601 C   0  0  0  0  0  0  0  0  0  0  0  0
   27.2715  -21.5083  -16.3111 C   0  0  2  0  0  0  0  0  0  0  0  0
   27.2731  -22.6873  -17.1132 N   0  0  0  0  0  0  0  0  0  0  0  0
   26.4634  -21.7824  -15.0582 C   0  0  0  0  0  0  0  0  0  0  0  0
   25.3426  -22.3024  -15.1972 O   0  0  0  0  0  0  0  0  0  0  0  0
   28.8312  -15.9688  -18.7918 O   0  0  0  0  0  0  0  0  0  0  0  0
   24.4536  -20.0827   -6.5492 C   0  0  0  0  0  0  0  0  0  0  0  0
   25.1129  -20.2425   -7.7607 C   0  0  0  0  0  0  0  0  0  0  0  0
   24.8843  -21.3543   -8.5407 C   0  0  0  0  0  0  0  0  0  0  0  0
   25.5576  -21.4937   -9.7531 C   0  0  0  0  0  0  0  0  0  0  0  0
   26.4490  -20.5489  -10.1975 C   0  0  0  0  0  0  0  0  0  0  0  0
   27.1573  -20.6989  -11.4791 C   0  0  2  0  0  0  0  0  0  0  0  0
   26.2870  -21.1952  -12.5866 N   0  0  0  0  0  0  0  0  0  0  0  0
   26.9665  -21.4596  -13.7957 C   0  0  0  0  0  0  0  0  0  0  0  0
   25.0367  -20.4247  -12.6329 O   0  0  0  0  0  0  0  0  0  0  0  0
   25.0339  -19.1899  -12.7730 C   0  0  0  0  0  0  0  0  0  0  0  0
   26.6565  -19.4521   -9.3992 C   0  0  0  0  0  0  0  0  0  0  0  0
   25.9952  -19.2911   -8.1838 C   0  0  0  0  0  0  0  0  0  0  0  0
   21.0797  -18.3968  -15.7044 C   0  0  0  0  0  0  0  0  0  0  0  0
   21.1641  -18.9388  -14.3141 C   0  0  2  0  0  0  0  0  0  0  0  0
   22.3498  -19.7330  -13.9432 C   0  0  0  0  0  0  0  0  0  0  0  0
   22.4900  -20.9593  -14.8841 C   0  0  2  0  0  0  0  0  0  0  0  0
   22.5095  -20.2601  -12.5697 N   0  0  0  0  0  0  0  0  0  0  0  0
   23.7849  -21.0554  -12.5222 C   0  0  0  0  0  0  0  0  0  0  0  0
   21.4873  -21.0862  -11.9780 O   0  0  0  0  0  0  0  0  0  0  0  0
   21.5552  -22.4312  -11.6816 O   0  0  0  0  0  0  0  0  0  0  0  0
  2  4  1  0
  2  1  1  0
  3  2  2  0
  5  6  1  0
  5  4  1  0
  7  8  1  0
  7  6  1  0
  8 10  1  0
  8  9  1  6
 10 11  2  0
 12 13  1  0
 13 23  2  0
 13 14  1  0
 14 15  2  0
 15 16  1  0
 16 17  1  0
 18 17  1  1
 18 20  1  0
 19 18  1  0
 19 10  1  0
 20 29  1  0
 21 20  2  0
 22 16  2  0
 23 22  1  0
 24 25  1  0
 26 25  1  0
 26 28  1  0
 26 27  1  1
 28 30  1  0
 28 29  1  1
 30 32  2  0
 30 31  1  0
M  END
$$$$
