RYI.pdb
     RDKit          3D

 32 32  0  0  1  0  0  0  0  0999 V2000
   27.0935  -27.2499  -18.1138 N   0  0  0  0  0  0  0  0  0  0  0  0
   26.3504  -27.2631  -16.9020 C   0  0  0  0  0  0  0  0  0  0  0  0
   26.1383  -28.4030  -16.3432 N   0  0  0  0  0  0  0  0  0  0  0  0
   25.8396  -26.1057  -16.2891 N   0  0  0  0  0  0  0  0  0  0  0  0
   26.1638  -24.7564  -16.7802 C   0  0  0  0  0  0  0  0  0  0  0  0
   27.6138  -24.5493  -16.5178 C   0  0  0  0  0  0  0  0  0  0  0  0
   28.0339  -23.1532  -16.2185 C   0  0  0  0  0  0  0  0  0  0  0  0
   27.4366  -22.0839  -17.0654 C   0  0  2  0  0  0  0  0  0  0  0  0
   28.3731  -21.2973  -17.7986 N   0  0  0  0  0  0  0  0  0  0  0  0
   26.6544  -21.1655  -16.1475 C   0  0  0  0  0  0  0  0  0  0  0  0
   27.2897  -20.3015  -15.5183 O   0  0  0  0  0  0  0  0  0  0  0  0
   25.5713  -28.5708  -15.5075 O   0  0  0  0  0  0  0  0  0  0  0  0
   24.5257  -16.0856  -19.8298 C   0  0  0  0  0  0  0  0  0  0  0  0
   24.1950  -17.0585  -18.8961 C   0  0  0  0  0  0  0  0  0  0  0  0
   24.0344  -18.3714  -19.2800 C   0  0  0  0  0  0  0  0  0  0  0  0
   23.7021  -19.3311  -18.3254 C   0  0  0  0  0  0  0  0  0  0  0  0
   23.5285  -19.0053  -17.0032 C   0  0  0  0  0  0  0  0  0  0  0  0
   23.1787  -20.0218  -15.9976 C   0  0  2  0  0  0  0  0  0  0  0  0
   24.3569  -20.5432  -15.2424 N   0  0  0  0  0  0  0  0  0  0  0  0
   25.2692  -21.2911  -16.0182 C   0  0  0  0  0  0  0  0  0  0  0  0
   23.9292  -21.0795  -13.9430 O   0  0  0  0  0  0  0  0  0  0  0  0
   23.3755  -22.1876  -13.8426 C   0  0  0  0  0  0  0  0  0  0  0  0
   23.6948  -17.6896  -16.6502 C   0  0  0  0  0  0  0  0  0  0  0  0
   24.0269  -16.7131  -17.5864 C   0  0  0  0  0  0  0  0  0  0  0  0
   26.9985  -19.8643   -9.4809 C   0  0  0  0  0  0  0  0  0  0  0  0
   26.1341  -20.5525  -10.4872 C   0  0  2  0  0  0  0  0  0  0  0  0
   24.6740  -20.3659  -10.4004 C   0  0  0  0  0  0  0  0  0  0  0  0
   24.1489  -20.8727   -9.0307 C   0  0  2  0  0  0  0  0  0  0  0  0
   23.7732  -20.9517  -11.4177 N   0  0  0  0  0  0  0  0  0  0  0  0
   24.1315  -20.3591  -12.7525 C   0  0  0  0  0  0  0  0  0  0  0  0
   22.3428  -20.8334  -11.2857 O   0  0  0  0  0  0  0  0  0  0  0  0
   21.4570  -21.7801  -10.8161 O   0  0  0  0  0  0  0  0  0  0  0  0
  2  4  1  0
  2  1  1  0
  3  2  2  0
  5  6  1  0
  5  4  1  0
  7  8  1  0
  7  6  1  0
  8 10  1  0
  8  9  1  1
 10 11  2  0
 12 13  1  0
 13 23  2  0
 13 14  1  0
 14 15  2  0
 15 16  1  0
 16 17  1  0
 18 17  1  6
 18 20  1  0
 19 18  1  0
 19 10  1  0
 20 29  1  0
 21 20  2  0
 22 16  2  0
 23 22  1  0
 24 25  1  0
 26 25  1  0
 26 28  1  0
 26 27  1  6
 28 30  1  0
 28 29  1  6
 30 32  2  0
 30 31  1  0
M  END
$$$$
