LIS.pdb
     RDKit          3D

 23 22  0  0  1  0  0  0  0  0999 V2000
   13.0846   -8.9861  -11.0953 C   0  0  0  0  0  0  0  0  0  0  0  0
   14.0213  -10.1267  -10.7576 C   0  0  2  0  0  0  0  0  0  0  0  0
   13.5884  -10.6926   -9.4408 C   0  0  0  0  0  0  0  0  0  0  0  0
   15.4609   -9.6763  -10.7110 C   0  0  0  0  0  0  0  0  0  0  0  0
   15.8878   -9.0649  -12.0278 C   0  0  2  0  0  0  0  0  0  0  0  0
   15.8734  -10.0586  -13.0817 N   0  0  0  0  0  0  0  0  0  0  0  0
   17.2565   -8.5061  -11.9586 C   0  0  0  0  0  0  0  0  0  0  0  0
   17.6444   -7.8923  -10.9391 O   0  0  0  0  0  0  0  0  0  0  0  0
   22.7801  -10.0454  -13.5735 C   0  0  0  0  0  0  0  0  0  0  0  0
   21.9024   -8.8362  -13.3977 C   0  0  0  0  0  0  0  0  0  0  0  0
   20.4696   -9.2822  -13.3499 C   0  0  2  0  0  0  0  0  0  0  0  0
   20.1056   -9.8639  -14.6965 C   0  0  0  0  0  0  0  0  0  0  0  0
   19.5296   -8.1406  -13.0113 C   0  0  2  0  0  0  0  0  0  0  0  0
   18.1914   -8.6342  -13.0309 N   0  0  0  0  0  0  0  0  0  0  0  0
   19.7433   -7.0288  -13.9888 C   0  0  0  0  0  0  0  0  0  0  0  0
   19.3889   -7.2120  -15.1611 O   0  0  0  0  0  0  0  0  0  0  0  0
   20.3609   -2.3455  -14.7748 O   0  0  0  0  0  0  0  0  0  0  0  0
   20.0742   -3.4033  -13.9152 C   0  0  0  0  0  0  0  0  0  0  0  0
   20.5711   -4.7173  -14.4841 C   0  0  2  0  0  0  0  0  0  0  0  0
   20.3291   -5.8184  -13.5773 N   0  0  0  0  0  0  0  0  0  0  0  0
   21.9996   -4.6281  -14.8709 C   0  0  0  0  0  0  0  0  0  0  0  0
   22.9370   -4.7251  -14.0441 O   0  0  0  0  0  0  0  0  0  0  0  0
   22.3075   -4.4308  -16.1912 O   0  0  0  0  0  0  0  0  0  0  0  0
  2  1  1  1
  2  3  1  0
  4  2  1  0
  5  4  1  0
  5  6  1  6
  7  8  2  0
  7  5  1  0
 10  9  1  0
 11 10  1  0
 11 12  1  6
 13 11  1  0
 13 14  1  6
 14  7  1  0
 15 20  1  0
 15 13  1  0
 16 15  2  0
 18 17  1  0
 19 18  1  1
 19 20  1  0
 21 19  1  0
 21 23  1  0
 22 21  2  0
M  END
$$$$
