LIS.pdb
     RDKit          3D

 23 22  0  0  1  0  0  0  0  0999 V2000
   29.1265  -17.4365  -16.3522 C   0  0  0  0  0  0  0  0  0  0  0  0
   28.3067  -18.2458  -17.3346 C   0  0  2  0  0  0  0  0  0  0  0  0
   27.5859  -17.2813  -18.2245 C   0  0  0  0  0  0  0  0  0  0  0  0
   27.3397  -19.1682  -16.6335 C   0  0  0  0  0  0  0  0  0  0  0  0
   28.0615  -20.1062  -15.6905 C   0  0  2  0  0  0  0  0  0  0  0  0
   28.8967  -21.0312  -16.4289 N   0  0  0  0  0  0  0  0  0  0  0  0
   27.1175  -20.9062  -14.8786 C   0  0  0  0  0  0  0  0  0  0  0  0
   26.7935  -22.0626  -15.2315 O   0  0  0  0  0  0  0  0  0  0  0  0
   25.4001  -21.1292   -9.0297 C   0  0  0  0  0  0  0  0  0  0  0  0
   25.0605  -21.5478  -10.4343 C   0  0  0  0  0  0  0  0  0  0  0  0
   25.9180  -20.7705  -11.3906 C   0  0  2  0  0  0  0  0  0  0  0  0
   25.6498  -19.2976  -11.1831 C   0  0  0  0  0  0  0  0  0  0  0  0
   25.6431  -21.1453  -12.8346 C   0  0  2  0  0  0  0  0  0  0  0  0
   26.5358  -20.4120  -13.6713 N   0  0  0  0  0  0  0  0  0  0  0  0
   24.2073  -20.8635  -13.1450 C   0  0  0  0  0  0  0  0  0  0  0  0
   23.8496  -19.6796  -13.2075 O   0  0  0  0  0  0  0  0  0  0  0  0
   22.1373  -23.5679  -15.2470 O   0  0  0  0  0  0  0  0  0  0  0  0
   21.3002  -22.9649  -14.3113 C   0  0  0  0  0  0  0  0  0  0  0  0
   21.9270  -21.7028  -13.7532 C   0  0  2  0  0  0  0  0  0  0  0  0
   23.3018  -21.9183  -13.3573 N   0  0  0  0  0  0  0  0  0  0  0  0
   21.1164  -21.1471  -12.6432 C   0  0  0  0  0  0  0  0  0  0  0  0
   21.5500  -21.0349  -11.4723 O   0  0  0  0  0  0  0  0  0  0  0  0
   19.8364  -20.7383  -12.9104 O   0  0  0  0  0  0  0  0  0  0  0  0
  2  1  1  1
  2  3  1  0
  4  2  1  0
  5  4  1  0
  5  6  1  6
  7  8  2  0
  7  5  1  0
 10  9  1  0
 11 10  1  0
 11 12  1  6
 13 11  1  0
 13 14  1  6
 14  7  1  0
 15 20  1  0
 15 13  1  0
 16 15  2  0
 18 17  1  0
 19 18  1  1
 19 20  1  0
 21 19  1  0
 21 23  1  0
 22 21  2  0
M  END
$$$$
