LIS.pdb
     RDKit          3D

 23 22  0  0  1  0  0  0  0  0999 V2000
   23.2492  -14.2120  -14.9016 C   0  0  0  0  0  0  0  0  0  0  0  0
   23.9737  -13.7543  -16.1497 C   0  0  2  0  0  0  0  0  0  0  0  0
   25.4433  -13.8528  -15.8812 C   0  0  0  0  0  0  0  0  0  0  0  0
   23.5838  -12.3503  -16.5425 C   0  0  0  0  0  0  0  0  0  0  0  0
   22.0873  -12.2284  -16.7310 C   0  0  2  0  0  0  0  0  0  0  0  0
   21.6465  -13.0283  -17.8555 N   0  0  0  0  0  0  0  0  0  0  0  0
   21.6756  -10.8303  -16.9879 C   0  0  0  0  0  0  0  0  0  0  0  0
   21.8250  -10.3190  -18.1206 O   0  0  0  0  0  0  0  0  0  0  0  0
   16.9077   -9.5292  -16.1198 C   0  0  0  0  0  0  0  0  0  0  0  0
   18.2566   -9.3196  -16.7522 C   0  0  0  0  0  0  0  0  0  0  0  0
   19.1520   -8.6312  -15.7630 C   0  0  2  0  0  0  0  0  0  0  0  0
   18.7036   -7.1938  -15.6330 C   0  0  0  0  0  0  0  0  0  0  0  0
   20.6085   -8.6798  -16.1844 C   0  0  2  0  0  0  0  0  0  0  0  0
   21.0967  -10.0039  -15.9768 N   0  0  0  0  0  0  0  0  0  0  0  0
   21.3746   -7.6592  -15.4042 C   0  0  0  0  0  0  0  0  0  0  0  0
   21.5310   -7.8547  -14.1914 O   0  0  0  0  0  0  0  0  0  0  0  0
   24.0528   -3.5779  -15.6067 O   0  0  0  0  0  0  0  0  0  0  0  0
   23.2288   -4.4744  -16.2830 C   0  0  0  0  0  0  0  0  0  0  0  0
   22.6509   -5.5052  -15.3339 C   0  0  2  0  0  0  0  0  0  0  0  0
   21.8959   -6.5179  -16.0392 N   0  0  0  0  0  0  0  0  0  0  0  0
   21.8451   -4.8612  -14.2689 C   0  0  0  0  0  0  0  0  0  0  0  0
   22.3112   -4.5734  -13.1413 O   0  0  0  0  0  0  0  0  0  0  0  0
   20.5325   -4.5682  -14.5302 O   0  0  0  0  0  0  0  0  0  0  0  0
  2  1  1  1
  2  3  1  0
  4  2  1  0
  5  4  1  0
  5  6  1  6
  7  8  2  0
  7  5  1  0
 10  9  1  0
 11 10  1  0
 11 12  1  6
 13 11  1  0
 13 14  1  1
 14  7  1  0
 15 20  1  0
 15 13  1  0
 16 15  2  0
 18 17  1  0
 19 18  1  6
 19 20  1  0
 21 19  1  0
 21 23  1  0
 22 21  2  0
M  END
$$$$
