LIS.pdb
     RDKit          3D

 23 22  0  0  1  0  0  0  0  0999 V2000
   16.1680  -12.4637  -15.5064 C   0  0  0  0  0  0  0  0  0  0  0  0
   17.6513  -12.2021  -15.3530 C   0  0  2  0  0  0  0  0  0  0  0  0
   18.1926  -13.2168  -14.3942 C   0  0  0  0  0  0  0  0  0  0  0  0
   17.9276  -10.7977  -14.8745 C   0  0  0  0  0  0  0  0  0  0  0  0
   17.4584   -9.7718  -15.8832 C   0  0  2  0  0  0  0  0  0  0  0  0
   18.3183   -9.7702  -17.0490 N   0  0  0  0  0  0  0  0  0  0  0  0
   17.4644   -8.4028  -15.3211 C   0  0  0  0  0  0  0  0  0  0  0  0
   18.5300   -7.7514  -15.2388 O   0  0  0  0  0  0  0  0  0  0  0  0
   14.3858   -4.4954  -16.9247 C   0  0  0  0  0  0  0  0  0  0  0  0
   15.5597   -5.1718  -16.2705 C   0  0  0  0  0  0  0  0  0  0  0  0
   15.1410   -5.6609  -14.9142 C   0  0  2  0  0  0  0  0  0  0  0  0
   14.7940   -4.4627  -14.0609 C   0  0  0  0  0  0  0  0  0  0  0  0
   16.2309   -6.4737  -14.2413 C   0  0  2  0  0  0  0  0  0  0  0  0
   16.2773   -7.7625  -14.8508 N   0  0  0  0  0  0  0  0  0  0  0  0
   15.9486   -6.5449  -12.7742 C   0  0  0  0  0  0  0  0  0  0  0  0
   14.9317   -7.1498  -12.4086 O   0  0  0  0  0  0  0  0  0  0  0  0
   17.6873   -6.1783   -8.2873 O   0  0  0  0  0  0  0  0  0  0  0  0
   17.9067   -6.1553   -9.6626 C   0  0  0  0  0  0  0  0  0  0  0  0
   16.6031   -5.9968  -10.4194 C   0  0  2  0  0  0  0  0  0  0  0  0
   16.8180   -5.9402  -11.8490 N   0  0  0  0  0  0  0  0  0  0  0  0
   15.8394   -4.8232   -9.9319 C   0  0  0  0  0  0  0  0  0  0  0  0
   15.9545   -3.6794  -10.4320 O   0  0  0  0  0  0  0  0  0  0  0  0
   14.9693   -4.9981   -8.8882 O   0  0  0  0  0  0  0  0  0  0  0  0
  2  1  1  1
  2  3  1  0
  4  2  1  0
  5  4  1  0
  5  6  1  6
  7  8  2  0
  7  5  1  0
 10  9  1  0
 11 10  1  0
 11 12  1  1
 13 11  1  0
 13 14  1  6
 14  7  1  0
 15 20  1  0
 15 13  1  0
 16 15  2  0
 18 17  1  0
 19 18  1  1
 19 20  1  0
 21 19  1  0
 21 23  1  0
 22 21  2  0
M  END
$$$$
