LIS.pdb
     RDKit          3D

 23 22  0  0  1  0  0  0  0  0999 V2000
   20.4203  -17.1036  -18.9253 C   0  0  0  0  0  0  0  0  0  0  0  0
   21.5557  -17.5287  -18.0184 C   0  0  2  0  0  0  0  0  0  0  0  0
   21.1953  -18.8603  -17.4365 C   0  0  0  0  0  0  0  0  0  0  0  0
   21.8190  -16.5127  -16.9340 C   0  0  0  0  0  0  0  0  0  0  0  0
   22.0419  -15.1338  -17.5160 C   0  0  2  0  0  0  0  0  0  0  0  0
   23.2297  -15.1142  -18.3449 N   0  0  0  0  0  0  0  0  0  0  0  0
   22.2162  -14.1111  -16.4605 C   0  0  0  0  0  0  0  0  0  0  0  0
   21.4373  -14.0651  -15.4817 O   0  0  0  0  0  0  0  0  0  0  0  0
   27.1979  -12.5499  -15.1801 C   0  0  0  0  0  0  0  0  0  0  0  0
   25.7441  -12.8802  -14.9781 C   0  0  0  0  0  0  0  0  0  0  0  0
   24.9139  -11.7386  -15.4895 C   0  0  2  0  0  0  0  0  0  0  0  0
   25.1207  -10.5517  -14.5769 C   0  0  0  0  0  0  0  0  0  0  0  0
   23.4394  -12.0902  -15.5504 C   0  0  2  0  0  0  0  0  0  0  0  0
   23.2623  -13.1394  -16.5003 N   0  0  0  0  0  0  0  0  0  0  0  0
   22.6612  -10.8625  -15.9030 C   0  0  0  0  0  0  0  0  0  0  0  0
   22.8207  -10.3797  -17.0321 O   0  0  0  0  0  0  0  0  0  0  0  0
   18.9347   -7.9601  -14.9041 O   0  0  0  0  0  0  0  0  0  0  0  0
   19.6273   -9.1468  -14.6758 C   0  0  0  0  0  0  0  0  0  0  0  0
   21.0282   -9.0788  -15.2502 C   0  0  2  0  0  0  0  0  0  0  0  0
   21.7792  -10.2840  -14.9729 N   0  0  0  0  0  0  0  0  0  0  0  0
   21.7418   -7.8668  -14.7811 C   0  0  0  0  0  0  0  0  0  0  0  0
   22.3890   -7.8294  -13.7081 O   0  0  0  0  0  0  0  0  0  0  0  0
   21.6908   -6.7381  -15.5559 O   0  0  0  0  0  0  0  0  0  0  0  0
  2  1  1  6
  2  3  1  0
  4  2  1  0
  5  4  1  0
  5  6  1  6
  7  8  2  0
  7  5  1  0
 10  9  1  0
 11 10  1  0
 11 12  1  1
 13 11  1  0
 13 14  1  6
 14  7  1  0
 15 20  1  0
 15 13  1  0
 16 15  2  0
 18 17  1  0
 19 18  1  1
 19 20  1  0
 21 19  1  0
 21 23  1  0
 22 21  2  0
M  END
$$$$
