LIS.pdb
     RDKit          3D

 23 22  0  0  1  0  0  0  0  0999 V2000
   19.6865  -15.1585  -19.6368 C   0  0  0  0  0  0  0  0  0  0  0  0
   20.4623  -15.8851  -18.5586 C   0  0  2  0  0  0  0  0  0  0  0  0
   19.6110  -17.0175  -18.0742 C   0  0  0  0  0  0  0  0  0  0  0  0
   20.8437  -14.9654  -17.4245 C   0  0  0  0  0  0  0  0  0  0  0  0
   21.6033  -13.7577  -17.9287 C   0  0  2  0  0  0  0  0  0  0  0  0
   22.8842  -14.1519  -18.4787 N   0  0  0  0  0  0  0  0  0  0  0  0
   21.8622  -12.7787  -16.8494 C   0  0  0  0  0  0  0  0  0  0  0  0
   21.2214  -12.8287  -15.7753 O   0  0  0  0  0  0  0  0  0  0  0  0
   26.8667  -11.6272  -15.6867 C   0  0  0  0  0  0  0  0  0  0  0  0
   25.3855  -11.8846  -15.6292 C   0  0  0  0  0  0  0  0  0  0  0  0
   24.6608  -10.6039  -15.9268 C   0  0  2  0  0  0  0  0  0  0  0  0
   25.0291   -9.5900  -14.8682 C   0  0  0  0  0  0  0  0  0  0  0  0
   23.1561  -10.7952  -15.9548 C   0  0  2  0  0  0  0  0  0  0  0  0
   22.8384  -11.7432  -16.9721 N   0  0  0  0  0  0  0  0  0  0  0  0
   22.5018   -9.4698  -16.1840 C   0  0  0  0  0  0  0  0  0  0  0  0
   22.7787   -8.8593  -17.2252 O   0  0  0  0  0  0  0  0  0  0  0  0
   18.9654   -8.4019  -14.1932 O   0  0  0  0  0  0  0  0  0  0  0  0
   19.3877   -7.9082  -15.4252 C   0  0  0  0  0  0  0  0  0  0  0  0
   20.8892   -7.7020  -15.4435 C   0  0  2  0  0  0  0  0  0  0  0  0
   21.6023   -8.9442  -15.2394 N   0  0  0  0  0  0  0  0  0  0  0  0
   21.3000   -6.6657  -14.4660 C   0  0  0  0  0  0  0  0  0  0  0  0
   22.1152   -6.8875  -13.5397 O   0  0  0  0  0  0  0  0  0  0  0  0
   20.7641   -5.4102  -14.5814 O   0  0  0  0  0  0  0  0  0  0  0  0
  2  1  1  6
  2  3  1  0
  4  2  1  0
  5  4  1  0
  5  6  1  1
  7  8  2  0
  7  5  1  0
 10  9  1  0
 11 10  1  0
 11 12  1  1
 13 11  1  0
 13 14  1  6
 14  7  1  0
 15 20  1  0
 15 13  1  0
 16 15  2  0
 18 17  1  0
 19 18  1  1
 19 20  1  0
 21 19  1  0
 21 23  1  0
 22 21  2  0
M  END
$$$$
