LIS.pdb
     RDKit          3D

 23 22  0  0  1  0  0  0  0  0999 V2000
   26.9060  -15.2188  -14.9200 C   0  0  0  0  0  0  0  0  0  0  0  0
   27.0300  -14.9674  -16.4078 C   0  0  2  0  0  0  0  0  0  0  0  0
   28.4271  -14.4987  -16.6723 C   0  0  0  0  0  0  0  0  0  0  0  0
   26.0158  -13.9611  -16.8939 C   0  0  0  0  0  0  0  0  0  0  0  0
   24.6038  -14.4176  -16.5974 C   0  0  2  0  0  0  0  0  0  0  0  0
   24.3060  -15.6487  -17.3004 N   0  0  0  0  0  0  0  0  0  0  0  0
   23.6004  -13.4118  -17.0120 C   0  0  0  0  0  0  0  0  0  0  0  0
   23.5100  -13.0563  -18.2087 O   0  0  0  0  0  0  0  0  0  0  0  0
   18.8012  -14.1449  -15.9392 C   0  0  0  0  0  0  0  0  0  0  0  0
   19.8270  -13.4029  -16.7521 C   0  0  0  0  0  0  0  0  0  0  0  0
   20.3728  -12.2738  -15.9267 C   0  0  2  0  0  0  0  0  0  0  0  0
   19.3899  -11.1268  -15.9776 C   0  0  0  0  0  0  0  0  0  0  0  0
   21.7298  -11.8111  -16.4225 C   0  0  2  0  0  0  0  0  0  0  0  0
   22.6978  -12.8036  -16.0869 N   0  0  0  0  0  0  0  0  0  0  0  0
   22.0413  -10.4803  -15.8150 C   0  0  0  0  0  0  0  0  0  0  0  0
   22.3586  -10.4496  -14.6184 O   0  0  0  0  0  0  0  0  0  0  0  0
   23.5334   -5.9853  -16.4949 O   0  0  0  0  0  0  0  0  0  0  0  0
   23.1197   -7.1916  -17.0550 C   0  0  0  0  0  0  0  0  0  0  0  0
   22.3086   -8.0022  -16.0639 C   0  0  2  0  0  0  0  0  0  0  0  0
   21.9726   -9.3080  -16.5887 N   0  0  0  0  0  0  0  0  0  0  0  0
   21.1028   -7.2602  -15.6238 C   0  0  0  0  0  0  0  0  0  0  0  0
   20.0313   -7.2535  -16.2746 O   0  0  0  0  0  0  0  0  0  0  0  0
   21.1636   -6.5507  -14.4534 O   0  0  0  0  0  0  0  0  0  0  0  0
  2  1  1  1
  2  3  1  0
  4  2  1  0
  5  4  1  0
  5  6  1  6
  7  8  2  0
  7  5  1  0
 10  9  1  0
 11 10  1  0
 11 12  1  6
 13 11  1  0
 13 14  1  1
 14  7  1  0
 15 20  1  0
 15 13  1  0
 16 15  2  0
 18 17  1  0
 19 18  1  6
 19 20  1  0
 21 19  1  0
 21 23  1  0
 22 21  2  0
M  END
$$$$
