GRD.pdb
     RDKit          3D

 24 23  0  0  1  0  0  0  0  0999 V2000
   14.9795  -15.1515   15.9536 N   0  0  0  0  0  0  0  0  0  0  0  0
   14.3634  -16.0346   16.9277 C   0  0  0  0  0  0  0  0  0  0  0  0
   14.0587  -15.3012   18.1826 C   0  0  0  0  0  0  0  0  0  0  0  0
   14.9514  -14.6222   18.7079 O   0  0  0  0  0  0  0  0  0  0  0  0
    7.2166  -13.3545   19.5840 N   0  0  0  0  0  0  0  0  0  0  0  0
    7.4481  -13.2572   18.1811 C   0  0  0  0  0  0  0  0  0  0  0  0
    6.6559  -12.5043   17.4915 N   0  0  0  0  0  0  0  0  0  0  0  0
    8.5192  -13.9758   17.5949 N   0  0  0  0  0  0  0  0  0  0  0  0
    9.3853  -14.7391   18.4643 C   0  0  0  0  0  0  0  0  0  0  0  0
   10.2039  -13.7849   19.3670 C   0  0  0  0  0  0  0  0  0  0  0  0
   11.0110  -14.6578   20.2476 C   0  0  0  0  0  0  0  0  0  0  0  0
   12.4990  -14.6582   20.0207 C   0  0  2  0  0  0  0  0  0  0  0  0
   12.7777  -15.3782   18.7607 N   0  0  0  0  0  0  0  0  0  0  0  0
   13.2806  -15.3668   21.0571 C   0  0  0  0  0  0  0  0  0  0  0  0
   13.5228  -16.6256   20.9701 O   0  0  0  0  0  0  0  0  0  0  0  0
    6.7458  -12.3067   16.4872 N   0  0  0  0  0  0  0  0  0  0  0  0
   13.8251  -14.7382   22.2134 C   0  0  1  0  0  0  0  0  0  0  0  0
   14.2692  -15.4991   23.3676 C   0  0  0  0  0  0  0  0  0  0  0  0
   13.2365  -16.4378   23.9108 C   0  0  0  0  0  0  0  0  0  0  0  0
   13.7456  -17.2677   25.0239 O   0  0  0  0  0  0  0  0  0  0  0  0
   13.2095  -18.3546   25.4027 C   0  0  0  0  0  0  0  0  0  0  0  0
   15.5550  -16.2248   23.0789 O   0  0  0  0  0  0  0  0  0  0  0  0
   15.5272  -17.3760   22.6061 O   0  0  0  0  0  0  0  0  0  0  0  0
   14.8741  -16.8800   25.7302 O   0  0  0  0  0  0  0  0  0  0  0  0
  1  2  1  0
  2  3  1  0
  3  4  2  0
  3 13  1  0
  5  6  1  0
  6  8  1  0
  7  6  2  0
  9  8  1  0
  9 10  1  0
 10 11  1  0
 12 11  1  1
 12 14  1  0
 13 12  1  0
 14 15  2  0
 14 16  1  0
 16 17  1  0
 17 21  1  0
 17 18  1  1
 19 18  1  0
 19 23  1  0
 20 19  2  0
 21 22  2  0
 21 24  1  0
M  END
$$$$
