GRD.pdb
     RDKit          3D

 24 23  0  0  1  0  0  0  0  0999 V2000
    8.8012  -17.8391   18.9935 N   0  0  0  0  0  0  0  0  0  0  0  0
    8.0458  -19.0146   19.3887 C   0  0  0  0  0  0  0  0  0  0  0  0
    7.6447  -18.9256   20.8158 C   0  0  0  0  0  0  0  0  0  0  0  0
    8.0656  -17.9797   21.4954 O   0  0  0  0  0  0  0  0  0  0  0  0
    2.2014  -21.0091   20.0688 N   0  0  0  0  0  0  0  0  0  0  0  0
    1.2996  -20.3412   20.9472 C   0  0  0  0  0  0  0  0  0  0  0  0
    0.2887  -19.7314   20.4217 N   0  0  0  0  0  0  0  0  0  0  0  0
    1.5340  -20.3644   22.3444 N   0  0  0  0  0  0  0  0  0  0  0  0
    2.7867  -20.9084   22.8170 C   0  0  0  0  0  0  0  0  0  0  0  0
    3.9381  -19.9155   22.5277 C   0  0  0  0  0  0  0  0  0  0  0  0
    5.1665  -20.5646   23.0362 C   0  0  0  0  0  0  0  0  0  0  0  0
    6.4612  -19.8285   22.8180 C   0  0  2  0  0  0  0  0  0  0  0  0
    6.8009  -19.8998   21.3816 N   0  0  0  0  0  0  0  0  0  0  0  0
    7.6252  -20.4056   23.5244 C   0  0  0  0  0  0  0  0  0  0  0  0
    8.4712  -21.1589   22.9179 O   0  0  0  0  0  0  0  0  0  0  0  0
   -0.4154  -19.1901   20.9386 N   0  0  0  0  0  0  0  0  0  0  0  0
    7.9114  -20.1844   24.9020 C   0  0  2  0  0  0  0  0  0  0  0  0
    9.2477  -20.3440   25.4471 C   0  0  0  0  0  0  0  0  0  0  0  0
   10.2790  -19.4782   24.7917 C   0  0  0  0  0  0  0  0  0  0  0  0
   11.1232  -20.2203   23.8307 O   0  0  0  0  0  0  0  0  0  0  0  0
   11.4747  -21.4311   23.9812 C   0  0  0  0  0  0  0  0  0  0  0  0
    9.2535  -20.1496   26.9389 O   0  0  0  0  0  0  0  0  0  0  0  0
    8.2742  -19.6267   27.5022 O   0  0  0  0  0  0  0  0  0  0  0  0
   11.5860  -19.6024   22.6790 O   0  0  0  0  0  0  0  0  0  0  0  0
  1  2  1  0
  2  3  1  0
  3  4  2  0
  3 13  1  0
  5  6  1  0
  6  8  1  0
  7  6  2  0
  9  8  1  0
  9 10  1  0
 10 11  1  0
 12 11  1  6
 12 14  1  0
 13 12  1  0
 14 15  2  0
 14 16  1  0
 16 17  1  0
 17 21  1  0
 17 18  1  1
 19 18  1  0
 19 23  1  0
 20 19  2  0
 21 22  2  0
 21 24  1  0
M  END
$$$$
