GRD.pdb
     RDKit          3D

 24 23  0  0  1  0  0  0  0  0999 V2000
   12.2343  -17.6493   15.5967 N   0  0  0  0  0  0  0  0  0  0  0  0
   11.2307  -17.6845   16.6455 C   0  0  0  0  0  0  0  0  0  0  0  0
   11.4298  -16.5648   17.6005 C   0  0  0  0  0  0  0  0  0  0  0  0
   12.4191  -15.8327   17.4628 O   0  0  0  0  0  0  0  0  0  0  0  0
    6.1535  -14.4763   16.9701 N   0  0  0  0  0  0  0  0  0  0  0  0
    7.0397  -13.3762   17.1585 C   0  0  0  0  0  0  0  0  0  0  0  0
    7.7194  -12.9695   16.1374 N   0  0  0  0  0  0  0  0  0  0  0  0
    7.1479  -12.7727   18.4358 N   0  0  0  0  0  0  0  0  0  0  0  0
    8.2672  -13.1419   19.2722 C   0  0  0  0  0  0  0  0  0  0  0  0
    8.3056  -14.6779   19.4579 C   0  0  0  0  0  0  0  0  0  0  0  0
    9.4728  -14.9492   20.3256 C   0  0  0  0  0  0  0  0  0  0  0  0
   10.7683  -15.2792   19.6339 C   0  0  2  0  0  0  0  0  0  0  0  0
   10.5084  -16.3425   18.6411 N   0  0  0  0  0  0  0  0  0  0  0  0
   11.8203  -15.8211   20.5209 C   0  0  0  0  0  0  0  0  0  0  0  0
   11.9298  -17.0828   20.7376 O   0  0  0  0  0  0  0  0  0  0  0  0
    8.4491  -12.2463   16.1570 N   0  0  0  0  0  0  0  0  0  0  0  0
   12.7846  -15.0191   21.1958 C   0  0  1  0  0  0  0  0  0  0  0  0
   13.9442  -15.5964   21.8520 C   0  0  0  0  0  0  0  0  0  0  0  0
   15.1884  -14.7730   21.7227 C   0  0  0  0  0  0  0  0  0  0  0  0
   16.3538  -15.3864   22.3955 O   0  0  0  0  0  0  0  0  0  0  0  0
   16.4340  -16.6174   22.6959 C   0  0  0  0  0  0  0  0  0  0  0  0
   13.6541  -15.9072   23.2951 O   0  0  0  0  0  0  0  0  0  0  0  0
   12.6968  -15.3570   23.8699 O   0  0  0  0  0  0  0  0  0  0  0  0
   17.4521  -14.6139   22.7415 O   0  0  0  0  0  0  0  0  0  0  0  0
  1  2  1  0
  2  3  1  0
  3  4  2  0
  3 13  1  0
  5  6  1  0
  6  8  1  0
  7  6  2  0
  9  8  1  0
  9 10  1  0
 10 11  1  0
 12 11  1  1
 12 14  1  0
 13 12  1  0
 14 15  2  0
 14 16  1  0
 16 17  1  0
 17 21  1  0
 17 18  1  6
 19 18  1  0
 19 23  1  0
 20 19  2  0
 21 22  2  0
 21 24  1  0
M  END
$$$$
