GRD.pdb
     RDKit          3D

 24 23  0  0  1  0  0  0  0  0999 V2000
   14.5314  -14.1960   17.7775 N   0  0  0  0  0  0  0  0  0  0  0  0
   13.3379  -14.9785   18.0456 C   0  0  0  0  0  0  0  0  0  0  0  0
   12.7476  -14.6036   19.3557 C   0  0  0  0  0  0  0  0  0  0  0  0
   13.4890  -14.1402   20.2328 O   0  0  0  0  0  0  0  0  0  0  0  0
    7.6127  -12.5930   16.6082 N   0  0  0  0  0  0  0  0  0  0  0  0
    7.8960  -13.9681   16.8529 C   0  0  0  0  0  0  0  0  0  0  0  0
    8.1586  -14.7187   15.8343 N   0  0  0  0  0  0  0  0  0  0  0  0
    7.8811  -14.4624   18.1806 N   0  0  0  0  0  0  0  0  0  0  0  0
    7.6045  -13.5324   19.2517 C   0  0  0  0  0  0  0  0  0  0  0  0
    8.9261  -13.0952   19.9281 C   0  0  0  0  0  0  0  0  0  0  0  0
    9.3356  -14.2313   20.7828 C   0  0  0  0  0  0  0  0  0  0  0  0
   10.8146  -14.4708   20.9276 C   0  0  2  0  0  0  0  0  0  0  0  0
   11.3704  -14.7728   19.5921 N   0  0  0  0  0  0  0  0  0  0  0  0
   11.1715  -15.6317   21.7714 C   0  0  0  0  0  0  0  0  0  0  0  0
   10.9154  -16.8346   21.3994 O   0  0  0  0  0  0  0  0  0  0  0  0
    8.4043  -15.7156   15.8762 N   0  0  0  0  0  0  0  0  0  0  0  0
   11.8168  -15.5287   23.0369 C   0  0  1  0  0  0  0  0  0  0  0  0
   12.1888  -16.6999   23.8103 C   0  0  0  0  0  0  0  0  0  0  0  0
   13.5911  -16.6618   24.3348 C   0  0  0  0  0  0  0  0  0  0  0  0
   14.5858  -16.3436   23.2878 O   0  0  0  0  0  0  0  0  0  0  0  0
   14.5972  -16.8736   22.1341 C   0  0  0  0  0  0  0  0  0  0  0  0
   11.2070  -16.9524   24.9218 O   0  0  0  0  0  0  0  0  0  0  0  0
   10.2470  -16.1783   25.0920 O   0  0  0  0  0  0  0  0  0  0  0  0
   15.5887  -15.4172   23.5299 O   0  0  0  0  0  0  0  0  0  0  0  0
  1  2  1  0
  2  3  1  0
  3  4  2  0
  3 13  1  0
  5  6  1  0
  6  8  1  0
  7  6  2  0
  9  8  1  0
  9 10  1  0
 10 11  1  0
 12 11  1  6
 12 14  1  0
 13 12  1  0
 14 15  2  0
 14 16  1  0
 16 17  1  0
 17 21  1  0
 17 18  1  1
 19 18  1  0
 19 23  1  0
 20 19  2  0
 21 22  2  0
 21 24  1  0
M  END
$$$$
