GRD.pdb
     RDKit          3D

 24 23  0  0  1  0  0  0  0  0999 V2000
   10.6170  -17.6163   16.8427 N   0  0  0  0  0  0  0  0  0  0  0  0
    9.8792  -17.9045   18.0597 C   0  0  0  0  0  0  0  0  0  0  0  0
   10.1110  -16.8477   19.0770 C   0  0  0  0  0  0  0  0  0  0  0  0
   11.1544  -16.1830   19.0188 O   0  0  0  0  0  0  0  0  0  0  0  0
    8.0182  -12.9910   17.1040 N   0  0  0  0  0  0  0  0  0  0  0  0
    7.3966  -13.8501   18.0562 C   0  0  0  0  0  0  0  0  0  0  0  0
    7.2697  -15.0985   17.7473 N   0  0  0  0  0  0  0  0  0  0  0  0
    6.9442  -13.3200   19.2898 N   0  0  0  0  0  0  0  0  0  0  0  0
    6.6600  -14.2426   20.3654 C   0  0  0  0  0  0  0  0  0  0  0  0
    7.6238  -13.9888   21.5494 C   0  0  0  0  0  0  0  0  0  0  0  0
    8.2021  -15.3080   21.8873 C   0  0  0  0  0  0  0  0  0  0  0  0
    9.4835  -15.6835   21.1925 C   0  0  2  0  0  0  0  0  0  0  0  0
    9.1598  -16.6083   20.0864 N   0  0  0  0  0  0  0  0  0  0  0  0
   10.4538  -16.4108   22.0392 C   0  0  0  0  0  0  0  0  0  0  0  0
   10.3095  -17.6602   22.3018 O   0  0  0  0  0  0  0  0  0  0  0  0
    6.8429  -15.8192   18.3425 N   0  0  0  0  0  0  0  0  0  0  0  0
   11.6071  -15.8129   22.6231 C   0  0  1  0  0  0  0  0  0  0  0  0
   12.5582  -16.5786   23.4090 C   0  0  0  0  0  0  0  0  0  0  0  0
   13.9739  -16.1083   23.2769 C   0  0  0  0  0  0  0  0  0  0  0  0
   14.9215  -16.9112   24.0797 O   0  0  0  0  0  0  0  0  0  0  0  0
   14.7160  -18.1150   24.4271 C   0  0  0  0  0  0  0  0  0  0  0  0
   12.1457  -16.6391   24.8545 O   0  0  0  0  0  0  0  0  0  0  0  0
   12.7691  -17.3661   25.6497 O   0  0  0  0  0  0  0  0  0  0  0  0
   16.1220  -16.3630   24.5050 O   0  0  0  0  0  0  0  0  0  0  0  0
  1  2  1  0
  2  3  1  0
  3  4  2  0
  3 13  1  0
  5  6  1  0
  6  8  1  0
  7  6  2  0
  9  8  1  0
  9 10  1  0
 10 11  1  0
 12 11  1  1
 12 14  1  0
 13 12  1  0
 14 15  2  0
 14 16  1  0
 16 17  1  0
 17 21  1  0
 17 18  1  1
 19 18  1  0
 19 23  1  0
 20 19  2  0
 21 22  2  0
 21 24  1  0
M  END
$$$$
