GRD.pdb
     RDKit          3D

 24 23  0  0  1  0  0  0  0  0999 V2000
    8.0290  -19.4243   18.4950 N   0  0  0  0  0  0  0  0  0  0  0  0
    8.5082  -19.6275   19.8506 C   0  0  0  0  0  0  0  0  0  0  0  0
    9.2066  -18.4149   20.3479 C   0  0  0  0  0  0  0  0  0  0  0  0
   10.2506  -18.0562   19.7867 O   0  0  0  0  0  0  0  0  0  0  0  0
    6.8436  -12.2084   19.9122 N   0  0  0  0  0  0  0  0  0  0  0  0
    7.9763  -12.7919   19.2737 C   0  0  0  0  0  0  0  0  0  0  0  0
    8.6549  -12.0527   18.4594 N   0  0  0  0  0  0  0  0  0  0  0  0
    8.3181  -14.1398   19.5450 N   0  0  0  0  0  0  0  0  0  0  0  0
    7.5275  -14.8619   20.5157 C   0  0  0  0  0  0  0  0  0  0  0  0
    7.8977  -14.4037   21.9468 C   0  0  0  0  0  0  0  0  0  0  0  0
    8.3886  -15.6137   22.6424 C   0  0  0  0  0  0  0  0  0  0  0  0
    9.3797  -16.4674   21.8977 C   0  0  2  0  0  0  0  0  0  0  0  0
    8.6880  -17.6892   21.4367 N   0  0  0  0  0  0  0  0  0  0  0  0
   10.5168  -16.9458   22.7134 C   0  0  0  0  0  0  0  0  0  0  0  0
   10.4267  -18.0076   23.4313 O   0  0  0  0  0  0  0  0  0  0  0  0
    9.4486  -12.3687   17.8883 N   0  0  0  0  0  0  0  0  0  0  0  0
   11.7825  -16.2956   22.7752 C   0  0  2  0  0  0  0  0  0  0  0  0
   12.8617  -16.7872   23.6131 C   0  0  0  0  0  0  0  0  0  0  0  0
   14.1941  -16.1746   23.3097 C   0  0  0  0  0  0  0  0  0  0  0  0
   14.4998  -16.1557   21.8629 O   0  0  0  0  0  0  0  0  0  0  0  0
   14.4435  -17.1776   21.1114 C   0  0  0  0  0  0  0  0  0  0  0  0
   12.5255  -16.6446   25.0725 O   0  0  0  0  0  0  0  0  0  0  0  0
   11.4706  -16.0798   25.4159 O   0  0  0  0  0  0  0  0  0  0  0  0
   14.8761  -14.9756   21.2397 O   0  0  0  0  0  0  0  0  0  0  0  0
  1  2  1  0
  2  3  1  0
  3  4  2  0
  3 13  1  0
  5  6  1  0
  6  8  1  0
  7  6  2  0
  9  8  1  0
  9 10  1  0
 10 11  1  0
 12 11  1  1
 12 14  1  0
 13 12  1  0
 14 15  2  0
 14 16  1  0
 16 17  1  0
 17 21  1  0
 17 18  1  6
 19 18  1  0
 19 23  1  0
 20 19  2  0
 21 22  2  0
 21 24  1  0
M  END
$$$$
