GRD.pdb
     RDKit          3D

 24 23  0  0  1  0  0  0  0  0999 V2000
   16.5057  -14.0432   17.3766 N   0  0  0  0  0  0  0  0  0  0  0  0
   15.2271  -14.7309   17.3481 C   0  0  0  0  0  0  0  0  0  0  0  0
   14.4811  -14.5049   18.6120 C   0  0  0  0  0  0  0  0  0  0  0  0
   15.1061  -14.1347   19.6150 O   0  0  0  0  0  0  0  0  0  0  0  0
    6.6938  -12.1731   18.8581 N   0  0  0  0  0  0  0  0  0  0  0  0
    7.4233  -13.2119   18.2103 C   0  0  0  0  0  0  0  0  0  0  0  0
    7.0852  -13.5212   17.0020 N   0  0  0  0  0  0  0  0  0  0  0  0
    8.4775  -13.8632   18.8974 N   0  0  0  0  0  0  0  0  0  0  0  0
    8.7288  -13.4911   20.2711 C   0  0  0  0  0  0  0  0  0  0  0  0
    9.9939  -14.2141   20.7927 C   0  0  0  0  0  0  0  0  0  0  0  0
   10.9095  -14.3087   19.6345 C   0  0  0  0  0  0  0  0  0  0  0  0
   12.3692  -14.5128   19.9404 C   0  0  2  0  0  0  0  0  0  0  0  0
   13.0893  -14.7082   18.6649 N   0  0  0  0  0  0  0  0  0  0  0  0
   12.6679  -15.7161   20.7466 C   0  0  0  0  0  0  0  0  0  0  0  0
   12.6150  -16.8943   20.2368 O   0  0  0  0  0  0  0  0  0  0  0  0
    7.5389  -14.2369   16.4208 N   0  0  0  0  0  0  0  0  0  0  0  0
   13.0347  -15.6828   22.1223 C   0  0  1  0  0  0  0  0  0  0  0  0
   13.6269  -16.8280   22.7904 C   0  0  0  0  0  0  0  0  0  0  0  0
   14.9175  -17.2852   22.1837 C   0  0  0  0  0  0  0  0  0  0  0  0
   15.3807  -18.5790   22.7301 O   0  0  0  0  0  0  0  0  0  0  0  0
   14.6085  -19.5420   23.0275 C   0  0  0  0  0  0  0  0  0  0  0  0
   13.7870  -16.5751   24.2647 O   0  0  0  0  0  0  0  0  0  0  0  0
   13.6927  -15.4169   24.7112 O   0  0  0  0  0  0  0  0  0  0  0  0
   16.7308  -18.8055   22.9505 O   0  0  0  0  0  0  0  0  0  0  0  0
  1  2  1  0
  2  3  1  0
  3  4  2  0
  3 13  1  0
  5  6  1  0
  6  8  1  0
  7  6  2  0
  9  8  1  0
  9 10  1  0
 10 11  1  0
 12 11  1  6
 12 14  1  0
 13 12  1  0
 14 15  2  0
 14 16  1  0
 16 17  1  0
 17 21  1  0
 17 18  1  1
 19 18  1  0
 19 23  1  0
 20 19  2  0
 21 22  2  0
 21 24  1  0
M  END
$$$$
