LLE.pdb
     RDKit          3D

 26 25  0  0  1  0  0  0  0  0999 V2000
   13.5490  -10.9427  -17.7848 C   0  0  0  0  0  0  0  0  0  0  0  0
   14.9257  -10.5024  -18.2367 C   0  0  1  0  0  0  0  0  0  0  0  0
   14.8566   -9.3806  -19.2344 C   0  0  0  0  0  0  0  0  0  0  0  0
   15.7706  -10.0382  -17.0690 C   0  0  0  0  0  0  0  0  0  0  0  0
   17.1258   -9.6627  -17.6147 C   0  0  2  0  0  0  0  0  0  0  0  0
   17.6900  -10.7485  -18.3514 N   0  0  0  0  0  0  0  0  0  0  0  0
   18.0312   -9.1712  -16.5202 C   0  0  0  0  0  0  0  0  0  0  0  0
   17.4899   -8.4479  -15.6642 O   0  0  0  0  0  0  0  0  0  0  0  0
   23.8003  -10.1985  -14.3090 C   0  0  0  0  0  0  0  0  0  0  0  0
   22.4372   -9.4875  -14.2717 C   0  0  2  0  0  0  0  0  0  0  0  0
   21.8693   -9.5694  -12.8901 C   0  0  0  0  0  0  0  0  0  0  0  0
   21.5278  -10.0749  -15.3265 C   0  0  0  0  0  0  0  0  0  0  0  0
   20.3973   -9.0824  -15.5506 C   0  0  2  0  0  0  0  0  0  0  0  0
   19.3984   -9.5068  -16.4676 N   0  0  0  0  0  0  0  0  0  0  0  0
   20.8160   -7.6900  -15.6661 C   0  0  0  0  0  0  0  0  0  0  0  0
   21.6115   -7.2986  -16.5906 O   0  0  0  0  0  0  0  0  0  0  0  0
   20.3905   -6.6670  -14.7865 N   0  0  0  0  0  0  0  0  0  0  0  0
   20.8599   -5.2877  -14.8704 C   0  0  1  0  0  0  0  0  0  0  0  0
   19.7391   -4.3345  -14.6547 C   0  0  0  0  0  0  0  0  0  0  0  0
   18.7947   -4.3447  -15.8155 C   0  0  0  0  0  0  0  0  0  0  0  0
   17.7022   -3.3597  -15.7531 C   0  0  0  0  0  0  0  0  0  0  0  0
   17.5699   -2.6311  -14.7427 O   0  0  0  0  0  0  0  0  0  0  0  0
   22.0072   -5.0574  -13.9668 C   0  0  0  0  0  0  0  0  0  0  0  0
   22.3472   -6.0318  -13.0628 O   0  0  0  0  0  0  0  0  0  0  0  0
   16.7915   -3.2231  -16.8275 O   0  0  0  0  0  0  0  0  0  0  0  0
   22.6455   -3.9967  -14.0331 O   0  0  0  0  0  0  0  0  0  0  0  0
  2  1  1  1
  3  2  1  0
  4  2  1  0
  5  4  1  0
  5  6  1  1
  7  8  2  0
  7  5  1  0
 10 11  1  1
 10  9  1  0
 12 10  1  0
 13 12  1  6
 13 14  1  0
 14  7  1  0
 15 13  1  0
 16 15  2  0
 17 15  1  0
 18 17  1  0
 19 20  1  0
 18 19  1  1
 20 21  1  0
 21 22  2  0
 21 25  1  0
 23 18  1  0
 23 24  1  0
 26 23  2  0
M  END
$$$$
