LLE.pdb
     RDKit          3D

 26 25  0  0  1  0  0  0  0  0999 V2000
   16.2652  -13.4652  -17.1443 C   0  0  0  0  0  0  0  0  0  0  0  0
   17.3322  -12.6190  -17.8069 C   0  0  1  0  0  0  0  0  0  0  0  0
   16.7593  -11.7260  -18.8713 C   0  0  0  0  0  0  0  0  0  0  0  0
   18.0513  -11.7453  -16.8007 C   0  0  0  0  0  0  0  0  0  0  0  0
   19.1004  -10.9636  -17.5513 C   0  0  2  0  0  0  0  0  0  0  0  0
   20.0288  -11.8458  -18.1835 N   0  0  0  0  0  0  0  0  0  0  0  0
   19.7709   -9.9608  -16.6547 C   0  0  0  0  0  0  0  0  0  0  0  0
   19.0028   -9.2298  -16.0030 O   0  0  0  0  0  0  0  0  0  0  0  0
   22.4150  -10.6558  -13.4517 C   0  0  0  0  0  0  0  0  0  0  0  0
   23.1560  -10.8033  -14.7913 C   0  0  2  0  0  0  0  0  0  0  0  0
   24.4440  -11.5317  -14.5713 C   0  0  0  0  0  0  0  0  0  0  0  0
   23.3402   -9.4427  -15.4234 C   0  0  0  0  0  0  0  0  0  0  0  0
   21.9603   -8.9370  -15.8150 C   0  0  2  0  0  0  0  0  0  0  0  0
   21.1726   -9.8562  -16.5589 N   0  0  0  0  0  0  0  0  0  0  0  0
   21.9199   -7.5516  -16.2697 C   0  0  0  0  0  0  0  0  0  0  0  0
   22.4167   -7.1957  -17.3954 O   0  0  0  0  0  0  0  0  0  0  0  0
   21.3404   -6.4978  -15.5248 N   0  0  0  0  0  0  0  0  0  0  0  0
   21.3051   -5.1131  -15.9843 C   0  0  1  0  0  0  0  0  0  0  0  0
   19.9174   -4.7075  -16.3322 C   0  0  0  0  0  0  0  0  0  0  0  0
   19.0659   -4.6001  -15.1063 C   0  0  0  0  0  0  0  0  0  0  0  0
   17.6573   -4.2427  -15.3415 C   0  0  0  0  0  0  0  0  0  0  0  0
   17.2626   -3.9715  -16.4990 O   0  0  0  0  0  0  0  0  0  0  0  0
   21.9526   -4.2095  -15.0096 C   0  0  0  0  0  0  0  0  0  0  0  0
   22.2818   -2.9364  -15.4005 O   0  0  0  0  0  0  0  0  0  0  0  0
   16.7347   -4.2006  -14.2694 O   0  0  0  0  0  0  0  0  0  0  0  0
   22.1900   -4.6061  -13.8592 O   0  0  0  0  0  0  0  0  0  0  0  0
  2  1  1  1
  3  2  1  0
  4  2  1  0
  5  4  1  0
  5  6  1  1
  7  8  2  0
  7  5  1  0
 10 11  1  1
 10  9  1  0
 12 10  1  0
 13 12  1  6
 13 14  1  0
 14  7  1  0
 15 13  1  0
 16 15  2  0
 17 15  1  0
 18 17  1  0
 19 20  1  0
 18 19  1  1
 20 21  1  0
 21 22  2  0
 21 25  1  0
 23 18  1  0
 23 24  1  0
 26 23  2  0
M  END
$$$$
