LLE.pdb
     RDKit          3D

 26 25  0  0  1  0  0  0  0  0999 V2000
   21.2817  -14.7873  -20.2981 C   0  0  0  0  0  0  0  0  0  0  0  0
   21.6223  -13.7927  -19.2079 C   0  0  1  0  0  0  0  0  0  0  0  0
   22.8323  -12.9720  -19.5555 C   0  0  0  0  0  0  0  0  0  0  0  0
   20.4728  -12.8429  -18.9449 C   0  0  0  0  0  0  0  0  0  0  0  0
   20.8149  -12.0539  -17.7056 C   0  0  2  0  0  0  0  0  0  0  0  0
   21.1936  -12.9280  -16.6415 N   0  0  0  0  0  0  0  0  0  0  0  0
   19.6913  -11.1304  -17.3263 C   0  0  0  0  0  0  0  0  0  0  0  0
   19.3753  -10.2915  -18.1897 O   0  0  0  0  0  0  0  0  0  0  0  0
   15.5003  -11.7854  -16.3573 C   0  0  0  0  0  0  0  0  0  0  0  0
   16.4512  -12.2934  -15.2606 C   0  0  2  0  0  0  0  0  0  0  0  0
   15.7066  -13.2062  -14.3383 C   0  0  0  0  0  0  0  0  0  0  0  0
   17.0861  -11.1183  -14.5531 C   0  0  0  0  0  0  0  0  0  0  0  0
   17.9826  -10.4159  -15.5611 C   0  0  2  0  0  0  0  0  0  0  0  0
   19.0409  -11.2097  -16.0792 N   0  0  0  0  0  0  0  0  0  0  0  0
   18.3272   -9.0396  -15.2225 C   0  0  0  0  0  0  0  0  0  0  0  0
   19.1447   -8.7614  -14.2765 O   0  0  0  0  0  0  0  0  0  0  0  0
   17.8014   -7.9110  -15.8942 N   0  0  0  0  0  0  0  0  0  0  0  0
   18.1031   -6.5352  -15.5122 C   0  0  1  0  0  0  0  0  0  0  0  0
   18.5441   -5.7444  -16.6917 C   0  0  0  0  0  0  0  0  0  0  0  0
   18.8620   -4.3343  -16.3043 C   0  0  0  0  0  0  0  0  0  0  0  0
   19.2408   -3.4420  -17.4124 C   0  0  0  0  0  0  0  0  0  0  0  0
   18.4716   -3.2923  -18.3897 O   0  0  0  0  0  0  0  0  0  0  0  0
   16.9713   -5.9216  -14.7853 C   0  0  0  0  0  0  0  0  0  0  0  0
   15.7599   -6.5656  -14.7762 O   0  0  0  0  0  0  0  0  0  0  0  0
   20.4721   -2.7449  -17.3891 O   0  0  0  0  0  0  0  0  0  0  0  0
   17.1252   -4.8417  -14.1963 O   0  0  0  0  0  0  0  0  0  0  0  0
  2  1  1  6
  3  2  1  0
  4  2  1  0
  5  4  1  0
  5  6  1  1
  7  8  2  0
  7  5  1  0
 10 11  1  1
 10  9  1  0
 12 10  1  0
 13 12  1  1
 13 14  1  0
 14  7  1  0
 15 13  1  0
 16 15  2  0
 17 15  1  0
 18 17  1  0
 19 20  1  0
 18 19  1  6
 20 21  1  0
 21 22  2  0
 21 25  1  0
 23 18  1  0
 23 24  1  0
 26 23  2  0
M  END
$$$$
