LLE.pdb
     RDKit          3D

 26 25  0  0  1  0  0  0  0  0999 V2000
   17.1902  -32.3121   -8.3649 C   0  0  0  0  0  0  0  0  0  0  0  0
   18.5167  -32.1373   -9.0744 C   0  0  1  0  0  0  0  0  0  0  0  0
   19.0828  -30.7596   -8.8742 C   0  0  0  0  0  0  0  0  0  0  0  0
   19.5422  -33.1395   -8.5878 C   0  0  0  0  0  0  0  0  0  0  0  0
   20.8409  -32.8325   -9.2908 C   0  0  2  0  0  0  0  0  0  0  0  0
   20.7249  -33.0804  -10.6926 N   0  0  0  0  0  0  0  0  0  0  0  0
   21.9845  -33.5783   -8.6621 C   0  0  0  0  0  0  0  0  0  0  0  0
   21.8593  -34.8161   -8.6265 O   0  0  0  0  0  0  0  0  0  0  0  0
   26.2095  -34.5709   -9.2895 C   0  0  0  0  0  0  0  0  0  0  0  0
   25.9429  -33.0644   -9.1332 C   0  0  2  0  0  0  0  0  0  0  0  0
   27.1394  -32.2953   -9.5969 C   0  0  0  0  0  0  0  0  0  0  0  0
   25.5561  -32.7616   -7.7038 C   0  0  0  0  0  0  0  0  0  0  0  0
   24.2286  -33.4554   -7.4394 C   0  0  2  0  0  0  0  0  0  0  0  0
   23.1198  -32.9208   -8.1488 N   0  0  0  0  0  0  0  0  0  0  0  0
   23.9835  -33.8014   -6.0438 C   0  0  0  0  0  0  0  0  0  0  0  0
   23.2786  -33.0559   -5.2770 O   0  0  0  0  0  0  0  0  0  0  0  0
   24.4909  -34.9672   -5.4235 N   0  0  0  0  0  0  0  0  0  0  0  0
   24.2410  -35.3086   -4.0269 C   0  0  1  0  0  0  0  0  0  0  0  0
   22.7840  -35.4671   -3.7747 C   0  0  0  0  0  0  0  0  0  0  0  0
   22.5278  -35.9132   -2.3694 C   0  0  0  0  0  0  0  0  0  0  0  0
   21.6527  -35.0355   -1.5748 C   0  0  0  0  0  0  0  0  0  0  0  0
   21.9107  -33.8137   -1.4759 O   0  0  0  0  0  0  0  0  0  0  0  0
   25.0385  -36.4825   -3.6122 C   0  0  0  0  0  0  0  0  0  0  0  0
   25.2477  -36.7049   -2.2747 O   0  0  0  0  0  0  0  0  0  0  0  0
   20.5145  -35.5569   -0.9152 O   0  0  0  0  0  0  0  0  0  0  0  0
   25.5063  -37.2478   -4.4680 O   0  0  0  0  0  0  0  0  0  0  0  0
  2  1  1  1
  3  2  1  0
  4  2  1  0
  5  4  1  0
  5  6  1  6
  7  8  2  0
  7  5  1  0
 10 11  1  1
 10  9  1  0
 12 10  1  0
 13 12  1  1
 13 14  1  0
 14  7  1  0
 15 13  1  0
 16 15  2  0
 17 15  1  0
 18 17  1  0
 19 20  1  0
 18 19  1  6
 20 21  1  0
 21 22  2  0
 21 25  1  0
 23 18  1  0
 23 24  1  0
 26 23  2  0
M  END
$$$$
