LLE.pdb
     RDKit          3D

 26 25  0  0  1  0  0  0  0  0999 V2000
   21.8241  -40.8249   -4.6038 C   0  0  0  0  0  0  0  0  0  0  0  0
   22.7320  -39.7821   -5.2218 C   0  0  1  0  0  0  0  0  0  0  0  0
   21.9590  -38.7582   -6.0045 C   0  0  0  0  0  0  0  0  0  0  0  0
   23.5382  -39.0537   -4.1672 C   0  0  0  0  0  0  0  0  0  0  0  0
   24.4350  -38.0743   -4.8826 C   0  0  2  0  0  0  0  0  0  0  0  0
   25.1982  -38.7359   -5.8924 N   0  0  0  0  0  0  0  0  0  0  0  0
   25.2938  -37.3176   -3.9084 C   0  0  0  0  0  0  0  0  0  0  0  0
   26.3219  -37.9092   -3.5316 O   0  0  0  0  0  0  0  0  0  0  0  0
   26.8340  -33.3679   -4.4642 C   0  0  0  0  0  0  0  0  0  0  0  0
   25.3650  -33.3202   -4.0116 C   0  0  2  0  0  0  0  0  0  0  0  0
   24.8046  -31.9591   -4.2787 C   0  0  0  0  0  0  0  0  0  0  0  0
   25.2658  -33.7324   -2.5608 C   0  0  0  0  0  0  0  0  0  0  0  0
   25.6078  -35.2126   -2.4882 C   0  0  2  0  0  0  0  0  0  0  0  0
   24.9574  -36.0273   -3.4536 N   0  0  0  0  0  0  0  0  0  0  0  0
   25.6803  -35.7610   -1.1385 C   0  0  0  0  0  0  0  0  0  0  0  0
   24.7155  -36.4325   -0.6299 O   0  0  0  0  0  0  0  0  0  0  0  0
   26.7991  -35.6045   -0.2870 N   0  0  0  0  0  0  0  0  0  0  0  0
   26.9030  -36.2304    1.0272 C   0  0  1  0  0  0  0  0  0  0  0  0
   26.7344  -37.7044    0.9249 C   0  0  0  0  0  0  0  0  0  0  0  0
   26.8637  -38.3540    2.2667 C   0  0  0  0  0  0  0  0  0  0  0  0
   26.7356  -39.8207    2.2765 C   0  0  0  0  0  0  0  0  0  0  0  0
   27.6681  -40.5300    2.7197 O   0  0  0  0  0  0  0  0  0  0  0  0
   28.1496  -35.8295    1.7135 C   0  0  0  0  0  0  0  0  0  0  0  0
   28.1703  -35.7907    3.0847 O   0  0  0  0  0  0  0  0  0  0  0  0
   25.5639  -40.4460    1.7881 O   0  0  0  0  0  0  0  0  0  0  0  0
   29.1551  -35.5351    1.0507 O   0  0  0  0  0  0  0  0  0  0  0  0
  2  1  1  1
  3  2  1  0
  4  2  1  0
  5  4  1  0
  5  6  1  6
  7  8  2  0
  7  5  1  0
 10 11  1  1
 10  9  1  0
 12 10  1  0
 13 12  1  1
 13 14  1  0
 14  7  1  0
 15 13  1  0
 16 15  2  0
 17 15  1  0
 18 17  1  0
 19 20  1  0
 18 19  1  6
 20 21  1  0
 21 22  2  0
 21 25  1  0
 23 18  1  0
 23 24  1  0
 26 23  2  0
M  END
$$$$
