LKF.pdb
     RDKit          3D

 29 29  0  0  1  0  0  0  0  0999 V2000
   28.7505  -17.0274  -16.5554 C   0  0  0  0  0  0  0  0  0  0  0  0
   28.6181  -17.8996  -17.7629 C   0  0  2  0  0  0  0  0  0  0  0  0
   28.8961  -17.0690  -18.9840 C   0  0  0  0  0  0  0  0  0  0  0  0
   27.2579  -18.5675  -17.8073 C   0  0  0  0  0  0  0  0  0  0  0  0
   27.0908  -19.3131  -16.5022 C   0  0  2  0  0  0  0  0  0  0  0  0
   28.2640  -20.1141  -16.2905 N   0  0  0  0  0  0  0  0  0  0  0  0
   25.8408  -20.0975  -16.4495 C   0  0  0  0  0  0  0  0  0  0  0  0
   24.7484  -19.6075  -16.7767 O   0  0  0  0  0  0  0  0  0  0  0  0
   25.9004  -21.4530  -16.0097 N   0  0  0  0  0  0  0  0  0  0  0  0
   24.7370  -22.2783  -15.8479 C   0  0  1  0  0  0  0  0  0  0  0  0
   25.0539  -23.7059  -16.0456 C   0  0  0  0  0  0  0  0  0  0  0  0
   23.9573  -24.6734  -16.2200 C   0  0  0  0  0  0  0  0  0  0  0  0
   23.3316  -25.2624  -15.0157 C   0  0  0  0  0  0  0  0  0  0  0  0
   22.2833  -26.2616  -15.4866 C   0  0  0  0  0  0  0  0  0  0  0  0
   21.6288  -26.9215  -14.3947 N   0  0  0  0  0  0  0  0  0  0  0  0
   24.1368  -22.0498  -14.4670 C   0  0  0  0  0  0  0  0  0  0  0  0
   24.5719  -22.6655  -13.4635 O   0  0  0  0  0  0  0  0  0  0  0  0
   23.0751  -21.1395  -14.2794 N   0  0  0  0  0  0  0  0  0  0  0  0
   22.4220  -20.9262  -12.9800 C   0  0  1  0  0  0  0  0  0  0  0  0
   23.0935  -19.7307  -12.3441 C   0  0  0  0  0  0  0  0  0  0  0  0
   24.2870  -20.1052  -11.5557 C   0  0  0  0  0  0  0  0  0  0  0  0
   24.1917  -20.4027  -10.2134 C   0  0  0  0  0  0  0  0  0  0  0  0
   25.3382  -20.7499   -9.5104 C   0  0  0  0  0  0  0  0  0  0  0  0
   26.5799  -20.8127  -10.0939 C   0  0  0  0  0  0  0  0  0  0  0  0
   26.6780  -20.5156  -11.4365 C   0  0  0  0  0  0  0  0  0  0  0  0
   25.5476  -20.1692  -12.1467 C   0  0  0  0  0  0  0  0  0  0  0  0
   20.9730  -20.8183  -13.1109 C   0  0  0  0  0  0  0  0  0  0  0  0
   20.3394  -20.7926  -14.3431 O   0  0  0  0  0  0  0  0  0  0  0  0
   20.2561  -20.7450  -12.0870 O   0  0  0  0  0  0  0  0  0  0  0  0
  2  1  1  1
  2  3  1  0
  4  2  1  0
  5  4  1  0
  5  6  1  6
  7  5  1  0
  7  8  2  0
  9  7  1  0
 10  9  1  0
 11 12  1  0
 10 11  1  1
 12 13  1  0
 13 14  1  0
 14 15  1  0
 16 10  1  0
 17 16  2  0
 18 16  1  0
 19 18  1  0
 19 20  1  6
 21 22  2  0
 21 20  1  0
 23 22  1  0
 24 23  2  0
 25 24  1  0
 25 26  2  0
 26 21  1  0
 27 19  1  0
 28 27  1  0
 29 27  2  0
M  END
$$$$
