LKF.pdb
     RDKit          3D

 29 29  0  0  1  0  0  0  0  0999 V2000
   27.2948  -15.5591  -17.1814 C   0  0  0  0  0  0  0  0  0  0  0  0
   26.1423  -14.8020  -16.6026 C   0  0  2  0  0  0  0  0  0  0  0  0
   26.6498  -13.9517  -15.4723 C   0  0  0  0  0  0  0  0  0  0  0  0
   25.0318  -15.7411  -16.1751 C   0  0  0  0  0  0  0  0  0  0  0  0
   24.6483  -16.5524  -17.3924 C   0  0  2  0  0  0  0  0  0  0  0  0
   23.9135  -15.7006  -18.2852 N   0  0  0  0  0  0  0  0  0  0  0  0
   23.9197  -17.7895  -17.0469 C   0  0  0  0  0  0  0  0  0  0  0  0
   22.7704  -17.7612  -16.5789 O   0  0  0  0  0  0  0  0  0  0  0  0
   24.5618  -19.0451  -17.2601 N   0  0  0  0  0  0  0  0  0  0  0  0
   24.0220  -20.2921  -16.7970 C   0  0  1  0  0  0  0  0  0  0  0  0
   24.6091  -21.4377  -17.5186 C   0  0  0  0  0  0  0  0  0  0  0  0
   24.1497  -22.8018  -17.2070 C   0  0  0  0  0  0  0  0  0  0  0  0
   24.7693  -23.9402  -17.9203 C   0  0  0  0  0  0  0  0  0  0  0  0
   24.1179  -25.2151  -17.4010 C   0  0  0  0  0  0  0  0  0  0  0  0
   24.8699  -25.8194  -16.3402 N   0  0  0  0  0  0  0  0  0  0  0  0
   24.2582  -20.4258  -15.2985 C   0  0  0  0  0  0  0  0  0  0  0  0
   25.3837  -20.1846  -14.7977 O   0  0  0  0  0  0  0  0  0  0  0  0
   23.2175  -20.8247  -14.4331 N   0  0  0  0  0  0  0  0  0  0  0  0
   23.4549  -21.3337  -13.0748 C   0  0  1  0  0  0  0  0  0  0  0  0
   23.9362  -20.1640  -12.2473 C   0  0  0  0  0  0  0  0  0  0  0  0
   24.1051  -20.5120  -10.8202 C   0  0  0  0  0  0  0  0  0  0  0  0
   25.3433  -20.8272  -10.3037 C   0  0  0  0  0  0  0  0  0  0  0  0
   25.4572  -21.1481   -8.9571 C   0  0  0  0  0  0  0  0  0  0  0  0
   24.3825  -21.1674   -8.1021 C   0  0  0  0  0  0  0  0  0  0  0  0
   23.1428  -20.8525   -8.6163 C   0  0  0  0  0  0  0  0  0  0  0  0
   23.0153  -20.5319   -9.9517 C   0  0  0  0  0  0  0  0  0  0  0  0
   22.2856  -22.0234  -12.5404 C   0  0  0  0  0  0  0  0  0  0  0  0
   22.3910  -23.1336  -11.7177 O   0  0  0  0  0  0  0  0  0  0  0  0
   21.1359  -21.6154  -12.8218 O   0  0  0  0  0  0  0  0  0  0  0  0
  2  1  1  1
  2  3  1  0
  4  2  1  0
  5  4  1  0
  5  6  1  6
  7  5  1  0
  7  8  2  0
  9  7  1  0
 10  9  1  0
 11 12  1  0
 10 11  1  6
 12 13  1  0
 13 14  1  0
 14 15  1  0
 16 10  1  0
 17 16  2  0
 18 16  1  0
 19 18  1  0
 19 20  1  1
 21 22  2  0
 21 20  1  0
 23 22  1  0
 24 23  2  0
 25 24  1  0
 25 26  2  0
 26 21  1  0
 27 19  1  0
 28 27  1  0
 29 27  2  0
M  END
$$$$
