LKF.pdb
     RDKit          3D

 29 29  0  0  1  0  0  0  0  0999 V2000
   28.3305  -15.7240  -15.5734 C   0  0  0  0  0  0  0  0  0  0  0  0
   26.9853  -16.2041  -16.0162 C   0  0  2  0  0  0  0  0  0  0  0  0
   26.2663  -15.0634  -16.6795 C   0  0  0  0  0  0  0  0  0  0  0  0
   26.2060  -16.7909  -14.8558 C   0  0  0  0  0  0  0  0  0  0  0  0
   27.0748  -17.8648  -14.2402 C   0  0  2  0  0  0  0  0  0  0  0  0
   27.7235  -18.5803  -15.3032 N   0  0  0  0  0  0  0  0  0  0  0  0
   26.3262  -18.7486  -13.3243 C   0  0  0  0  0  0  0  0  0  0  0  0
   25.4624  -18.3059  -12.5506 O   0  0  0  0  0  0  0  0  0  0  0  0
   26.6100  -20.1463  -13.3362 N   0  0  0  0  0  0  0  0  0  0  0  0
   25.9393  -21.0914  -12.4890 C   0  0  1  0  0  0  0  0  0  0  0  0
   25.9567  -22.4476  -13.0704 C   0  0  0  0  0  0  0  0  0  0  0  0
   24.7886  -23.3266  -12.8921 C   0  0  0  0  0  0  0  0  0  0  0  0
   24.1928  -23.9670  -14.0853 C   0  0  0  0  0  0  0  0  0  0  0  0
   23.0340  -24.8331  -13.6096 C   0  0  0  0  0  0  0  0  0  0  0  0
   23.4752  -25.9644  -12.8470 N   0  0  0  0  0  0  0  0  0  0  0  0
   26.5874  -21.0919  -11.1109 C   0  0  0  0  0  0  0  0  0  0  0  0
   27.8344  -21.1575  -10.9834 O   0  0  0  0  0  0  0  0  0  0  0  0
   25.8027  -21.0184   -9.9405 N   0  0  0  0  0  0  0  0  0  0  0  0
   26.3761  -21.0483   -8.5875 C   0  0  1  0  0  0  0  0  0  0  0  0
   27.2904  -19.8501   -8.4734 C   0  0  0  0  0  0  0  0  0  0  0  0
   27.8359  -19.6826   -7.1093 C   0  0  0  0  0  0  0  0  0  0  0  0
   28.7185  -20.5968   -6.5759 C   0  0  0  0  0  0  0  0  0  0  0  0
   29.2069  -20.4009   -5.2904 C   0  0  0  0  0  0  0  0  0  0  0  0
   28.8493  -19.3267   -4.5130 C   0  0  0  0  0  0  0  0  0  0  0  0
   27.9665  -18.4107   -5.0442 C   0  0  0  0  0  0  0  0  0  0  0  0
   27.4738  -18.5929   -6.3195 C   0  0  0  0  0  0  0  0  0  0  0  0
   25.3430  -21.1317   -7.5607 C   0  0  0  0  0  0  0  0  0  0  0  0
   24.0241  -20.7840   -7.8056 O   0  0  0  0  0  0  0  0  0  0  0  0
   25.6354  -21.5289   -6.4099 O   0  0  0  0  0  0  0  0  0  0  0  0
  2  1  1  1
  2  3  1  0
  4  2  1  0
  5  4  1  0
  5  6  1  6
  7  5  1  0
  7  8  2  0
  9  7  1  0
 10  9  1  0
 11 12  1  0
 10 11  1  6
 12 13  1  0
 13 14  1  0
 14 15  1  0
 16 10  1  0
 17 16  2  0
 18 16  1  0
 19 18  1  0
 19 20  1  1
 21 22  2  0
 21 20  1  0
 23 22  1  0
 24 23  2  0
 25 24  1  0
 25 26  2  0
 26 21  1  0
 27 19  1  0
 28 27  1  0
 29 27  2  0
M  END
$$$$
