LKF.pdb
     RDKit          3D

 29 29  0  0  1  0  0  0  0  0999 V2000
   23.3359  -15.7044  -15.4152 C   0  0  0  0  0  0  0  0  0  0  0  0
   22.2056  -16.6831  -15.3879 C   0  0  2  0  0  0  0  0  0  0  0  0
   20.9134  -15.9179  -15.3324 C   0  0  0  0  0  0  0  0  0  0  0  0
   22.3568  -17.6597  -14.2384 C   0  0  0  0  0  0  0  0  0  0  0  0
   23.6628  -18.3920  -14.4517 C   0  0  2  0  0  0  0  0  0  0  0  0
   23.6864  -18.8818  -15.8016 N   0  0  0  0  0  0  0  0  0  0  0  0
   23.8922  -19.4525  -13.4502 C   0  0  0  0  0  0  0  0  0  0  0  0
   22.9514  -20.0666  -12.9225 O   0  0  0  0  0  0  0  0  0  0  0  0
   25.2335  -19.7726  -13.0861 N   0  0  0  0  0  0  0  0  0  0  0  0
   25.5985  -20.9953  -12.4282 C   0  0  1  0  0  0  0  0  0  0  0  0
   26.5171  -21.8018  -13.2548 C   0  0  0  0  0  0  0  0  0  0  0  0
   25.9941  -22.5151  -14.4323 C   0  0  0  0  0  0  0  0  0  0  0  0
   25.2530  -23.7788  -14.2260 C   0  0  0  0  0  0  0  0  0  0  0  0
   24.8323  -24.2920  -15.5967 C   0  0  0  0  0  0  0  0  0  0  0  0
   24.0671  -25.5018  -15.5154 N   0  0  0  0  0  0  0  0  0  0  0  0
   26.2300  -20.6802  -11.0787 C   0  0  0  0  0  0  0  0  0  0  0  0
   27.2720  -19.9848  -10.9995 O   0  0  0  0  0  0  0  0  0  0  0  0
   25.6601  -21.1621   -9.8812 N   0  0  0  0  0  0  0  0  0  0  0  0
   26.3414  -21.0849   -8.5811 C   0  0  1  0  0  0  0  0  0  0  0  0
   26.7198  -19.6368   -8.3709 C   0  0  0  0  0  0  0  0  0  0  0  0
   27.4534  -19.4218   -7.1053 C   0  0  0  0  0  0  0  0  0  0  0  0
   26.7962  -19.3972   -5.8941 C   0  0  0  0  0  0  0  0  0  0  0  0
   27.5242  -19.1924   -4.7290 C   0  0  0  0  0  0  0  0  0  0  0  0
   28.8855  -19.0105   -4.7230 C   0  0  0  0  0  0  0  0  0  0  0  0
   29.5453  -19.0346   -5.9332 C   0  0  0  0  0  0  0  0  0  0  0  0
   28.8348  -19.2370   -7.0980 C   0  0  0  0  0  0  0  0  0  0  0  0
   25.5405  -21.6713   -7.5118 C   0  0  0  0  0  0  0  0  0  0  0  0
   26.1074  -22.3751   -6.4612 O   0  0  0  0  0  0  0  0  0  0  0  0
   24.2948  -21.5468   -7.5231 O   0  0  0  0  0  0  0  0  0  0  0  0
  2  1  1  1
  2  3  1  0
  4  2  1  0
  5  4  1  0
  5  6  1  6
  7  5  1  0
  7  8  2  0
  9  7  1  0
 10  9  1  0
 11 12  1  0
 10 11  1  6
 12 13  1  0
 13 14  1  0
 14 15  1  0
 16 10  1  0
 17 16  2  0
 18 16  1  0
 19 18  1  0
 19 20  1  1
 21 22  2  0
 21 20  1  0
 23 22  1  0
 24 23  2  0
 25 24  1  0
 25 26  2  0
 26 21  1  0
 27 19  1  0
 28 27  1  0
 29 27  2  0
M  END
$$$$
