LKF.pdb
     RDKit          3D

 29 29  0  0  1  0  0  0  0  0999 V2000
   25.9900  -20.6008   -8.2103 C   0  0  0  0  0  0  0  0  0  0  0  0
   26.8262  -21.0113   -9.3802 C   0  0  2  0  0  0  0  0  0  0  0  0
   28.2718  -20.7919   -9.0334 C   0  0  0  0  0  0  0  0  0  0  0  0
   26.4075  -20.2729  -10.6362 C   0  0  0  0  0  0  0  0  0  0  0  0
   26.9680  -21.0459  -11.8089 C   0  0  2  0  0  0  0  0  0  0  0  0
   28.1950  -20.4187  -12.2137 N   0  0  0  0  0  0  0  0  0  0  0  0
   26.0001  -21.1850  -12.9154 C   0  0  0  0  0  0  0  0  0  0  0  0
   25.5126  -20.1955  -13.4846 O   0  0  0  0  0  0  0  0  0  0  0  0
   25.6214  -22.4948  -13.3340 N   0  0  0  0  0  0  0  0  0  0  0  0
   24.6272  -22.7413  -14.3398 C   0  0  1  0  0  0  0  0  0  0  0  0
   24.6833  -24.1331  -14.8271 C   0  0  0  0  0  0  0  0  0  0  0  0
   24.2758  -24.4327  -16.2103 C   0  0  0  0  0  0  0  0  0  0  0  0
   24.9458  -23.7178  -17.3188 C   0  0  0  0  0  0  0  0  0  0  0  0
   24.2871  -24.1657  -18.6168 C   0  0  0  0  0  0  0  0  0  0  0  0
   24.7602  -23.4281  -19.7518 N   0  0  0  0  0  0  0  0  0  0  0  0
   23.2462  -22.4255  -13.7811 C   0  0  0  0  0  0  0  0  0  0  0  0
   22.8833  -22.8708  -12.6650 O   0  0  0  0  0  0  0  0  0  0  0  0
   22.3375  -21.6235  -14.5038 N   0  0  0  0  0  0  0  0  0  0  0  0
   21.1047  -21.0800  -13.9163 C   0  0  1  0  0  0  0  0  0  0  0  0
   21.5208  -19.9810  -12.9657 C   0  0  0  0  0  0  0  0  0  0  0  0
   20.3636  -19.3056  -12.3405 C   0  0  0  0  0  0  0  0  0  0  0  0
   19.6865  -19.8787  -11.2858 C   0  0  0  0  0  0  0  0  0  0  0  0
   18.6046  -19.2097  -10.7278 C   0  0  0  0  0  0  0  0  0  0  0  0
   18.1694  -17.9883  -11.1806 C   0  0  0  0  0  0  0  0  0  0  0  0
   18.8450  -17.4128  -12.2356 C   0  0  0  0  0  0  0  0  0  0  0  0
   19.9211  -18.0661  -12.7992 C   0  0  0  0  0  0  0  0  0  0  0  0
   20.1468  -20.6758  -14.9398 C   0  0  0  0  0  0  0  0  0  0  0  0
   20.5427  -20.2008  -16.1800 O   0  0  0  0  0  0  0  0  0  0  0  0
   18.9181  -20.7524  -14.7117 O   0  0  0  0  0  0  0  0  0  0  0  0
  2  1  1  1
  2  3  1  0
  4  2  1  0
  5  4  1  0
  5  6  1  6
  7  5  1  0
  7  8  2  0
  9  7  1  0
 10  9  1  0
 11 12  1  0
 10 11  1  1
 12 13  1  0
 13 14  1  0
 14 15  1  0
 16 10  1  0
 17 16  2  0
 18 16  1  0
 19 18  1  0
 19 20  1  6
 21 22  2  0
 21 20  1  0
 23 22  1  0
 24 23  2  0
 25 24  1  0
 25 26  2  0
 26 21  1  0
 27 19  1  0
 28 27  1  0
 29 27  2  0
M  END
$$$$
