LKF.pdb
     RDKit          3D

 29 29  0  0  1  0  0  0  0  0999 V2000
   25.9177  -34.8514   -3.7501 C   0  0  0  0  0  0  0  0  0  0  0  0
   26.2372  -33.8058   -4.7704 C   0  0  2  0  0  0  0  0  0  0  0  0
   27.5461  -33.1655   -4.4031 C   0  0  0  0  0  0  0  0  0  0  0  0
   25.1089  -32.8010   -4.8941 C   0  0  0  0  0  0  0  0  0  0  0  0
   23.9037  -33.5539   -5.4116 C   0  0  2  0  0  0  0  0  0  0  0  0
   24.2018  -34.0200   -6.7369 N   0  0  0  0  0  0  0  0  0  0  0  0
   22.6624  -32.7566   -5.3471 C   0  0  0  0  0  0  0  0  0  0  0  0
   22.4152  -31.8655   -6.1750 O   0  0  0  0  0  0  0  0  0  0  0  0
   21.7291  -33.0249   -4.3025 N   0  0  0  0  0  0  0  0  0  0  0  0
   20.5265  -32.2652   -4.1092 C   0  0  1  0  0  0  0  0  0  0  0  0
   19.3275  -33.1229   -4.1761 C   0  0  0  0  0  0  0  0  0  0  0  0
   18.6593  -33.3332   -5.4716 C   0  0  0  0  0  0  0  0  0  0  0  0
   17.4082  -34.1220   -5.5057 C   0  0  0  0  0  0  0  0  0  0  0  0
   16.9672  -34.2186   -6.9601 C   0  0  0  0  0  0  0  0  0  0  0  0
   15.8359  -35.0826   -7.1314 N   0  0  0  0  0  0  0  0  0  0  0  0
   20.5906  -31.5387   -2.7724 C   0  0  0  0  0  0  0  0  0  0  0  0
   21.1882  -32.0434   -1.7907 O   0  0  0  0  0  0  0  0  0  0  0  0
   19.9797  -30.2782   -2.6020 N   0  0  0  0  0  0  0  0  0  0  0  0
   20.0136  -29.5355   -1.3341 C   0  0  1  0  0  0  0  0  0  0  0  0
   21.0245  -28.4249   -1.5048 C   0  0  0  0  0  0  0  0  0  0  0  0
   21.0814  -27.5265   -0.3318 C   0  0  0  0  0  0  0  0  0  0  0  0
   21.5356  -27.9748    0.8897 C   0  0  0  0  0  0  0  0  0  0  0  0
   21.5727  -27.0971    1.9656 C   0  0  0  0  0  0  0  0  0  0  0  0
   21.1737  -25.7863    1.8722 C   0  0  0  0  0  0  0  0  0  0  0  0
   20.7189  -25.3353    0.6514 C   0  0  0  0  0  0  0  0  0  0  0  0
   20.6768  -26.1961   -0.4254 C   0  0  0  0  0  0  0  0  0  0  0  0
   18.6836  -29.0970   -0.9250 C   0  0  0  0  0  0  0  0  0  0  0  0
   18.2626  -29.1375    0.3946 O   0  0  0  0  0  0  0  0  0  0  0  0
   17.8770  -28.6650   -1.7796 O   0  0  0  0  0  0  0  0  0  0  0  0
  2  1  1  1
  2  3  1  0
  4  2  1  0
  5  4  1  0
  5  6  1  6
  7  5  1  0
  7  8  2  0
  9  7  1  0
 10  9  1  0
 11 12  1  0
 10 11  1  1
 12 13  1  0
 13 14  1  0
 14 15  1  0
 16 10  1  0
 17 16  2  0
 18 16  1  0
 19 18  1  0
 19 20  1  6
 21 22  2  0
 21 20  1  0
 23 22  1  0
 24 23  2  0
 25 24  1  0
 25 26  2  0
 26 21  1  0
 27 19  1  0
 28 27  1  0
 29 27  2  0
M  END
$$$$
