LKF.pdb
     RDKit          3D

 29 29  0  0  1  0  0  0  0  0999 V2000
   28.1868  -16.1503  -16.4379 C   0  0  0  0  0  0  0  0  0  0  0  0
   26.9516  -15.4629  -15.9500 C   0  0  2  0  0  0  0  0  0  0  0  0
   27.3336  -14.1031  -15.4371 C   0  0  0  0  0  0  0  0  0  0  0  0
   26.2357  -16.3007  -14.9091 C   0  0  0  0  0  0  0  0  0  0  0  0
   25.9374  -17.6380  -15.5494 C   0  0  2  0  0  0  0  0  0  0  0  0
   25.0779  -17.4126  -16.6777 N   0  0  0  0  0  0  0  0  0  0  0  0
   25.3863  -18.6182  -14.5923 C   0  0  0  0  0  0  0  0  0  0  0  0
   24.4643  -18.3244  -13.8149 O   0  0  0  0  0  0  0  0  0  0  0  0
   25.9342  -19.9348  -14.5681 N   0  0  0  0  0  0  0  0  0  0  0  0
   25.4284  -20.9808  -13.7249 C   0  0  1  0  0  0  0  0  0  0  0  0
   25.6344  -22.3111  -14.3295 C   0  0  0  0  0  0  0  0  0  0  0  0
   25.1707  -23.5114  -13.6132 C   0  0  0  0  0  0  0  0  0  0  0  0
   23.9990  -24.2449  -14.1403 C   0  0  0  0  0  0  0  0  0  0  0  0
   23.7288  -25.4123  -13.2005 C   0  0  0  0  0  0  0  0  0  0  0  0
   22.5046  -26.0912  -13.5111 N   0  0  0  0  0  0  0  0  0  0  0  0
   26.0977  -20.9045  -12.3591 C   0  0  0  0  0  0  0  0  0  0  0  0
   27.3399  -20.7569  -12.2557 O   0  0  0  0  0  0  0  0  0  0  0  0
   25.3385  -20.9977  -11.1733 N   0  0  0  0  0  0  0  0  0  0  0  0
   25.9448  -21.0583   -9.8358 C   0  0  1  0  0  0  0  0  0  0  0  0
   26.8960  -19.8881   -9.7333 C   0  0  0  0  0  0  0  0  0  0  0  0
   27.5086  -19.7727   -8.3926 C   0  0  0  0  0  0  0  0  0  0  0  0
   28.5182  -20.6216   -7.9933 C   0  0  0  0  0  0  0  0  0  0  0  0
   29.0659  -20.4782   -6.7249 C   0  0  0  0  0  0  0  0  0  0  0  0
   28.6460  -19.5193   -5.8358 C   0  0  0  0  0  0  0  0  0  0  0  0
   27.6361  -18.6689   -6.2328 C   0  0  0  0  0  0  0  0  0  0  0  0
   27.0832  -18.8001   -7.4895 C   0  0  0  0  0  0  0  0  0  0  0  0
   24.9360  -21.1229   -8.7838 C   0  0  0  0  0  0  0  0  0  0  0  0
   25.2172  -21.6039   -7.5150 O   0  0  0  0  0  0  0  0  0  0  0  0
   23.7677  -20.7355   -9.0129 O   0  0  0  0  0  0  0  0  0  0  0  0
  2  1  1  1
  2  3  1  0
  4  2  1  0
  5  4  1  0
  5  6  1  6
  7  5  1  0
  7  8  2  0
  9  7  1  0
 10  9  1  0
 11 12  1  0
 10 11  1  6
 12 13  1  0
 13 14  1  0
 14 15  1  0
 16 10  1  0
 17 16  2  0
 18 16  1  0
 19 18  1  0
 19 20  1  1
 21 22  2  0
 21 20  1  0
 23 22  1  0
 24 23  2  0
 25 24  1  0
 25 26  2  0
 26 21  1  0
 27 19  1  0
 28 27  1  0
 29 27  2  0
M  END
$$$$
