LKF.pdb
     RDKit          3D

 29 29  0  0  1  0  0  0  0  0999 V2000
   28.0239  -16.6882  -16.8601 C   0  0  0  0  0  0  0  0  0  0  0  0
   27.1663  -15.7870  -16.0303 C   0  0  2  0  0  0  0  0  0  0  0  0
   28.0496  -14.7743  -15.3577 C   0  0  0  0  0  0  0  0  0  0  0  0
   26.3326  -16.5820  -15.0450 C   0  0  0  0  0  0  0  0  0  0  0  0
   25.5223  -17.5718  -15.8517 C   0  0  2  0  0  0  0  0  0  0  0  0
   24.4992  -16.8475  -16.5526 N   0  0  0  0  0  0  0  0  0  0  0  0
   24.9863  -18.6748  -15.0292 C   0  0  0  0  0  0  0  0  0  0  0  0
   24.0699  -18.4939  -14.2118 O   0  0  0  0  0  0  0  0  0  0  0  0
   25.5426  -19.9788  -15.1852 N   0  0  0  0  0  0  0  0  0  0  0  0
   25.1862  -21.0901  -14.3492 C   0  0  1  0  0  0  0  0  0  0  0  0
   25.5011  -22.3780  -14.9970 C   0  0  0  0  0  0  0  0  0  0  0  0
   25.1985  -23.6356  -14.2928 C   0  0  0  0  0  0  0  0  0  0  0  0
   23.7834  -23.9851  -14.0397 C   0  0  0  0  0  0  0  0  0  0  0  0
   23.7623  -25.3530  -13.3706 C   0  0  0  0  0  0  0  0  0  0  0  0
   23.9810  -26.4202  -14.3030 N   0  0  0  0  0  0  0  0  0  0  0  0
   25.9049  -20.9742  -13.0116 C   0  0  0  0  0  0  0  0  0  0  0  0
   27.1586  -20.9554  -12.9513 O   0  0  0  0  0  0  0  0  0  0  0  0
   25.1801  -20.8849  -11.8042 N   0  0  0  0  0  0  0  0  0  0  0  0
   25.8139  -20.9662  -10.4806 C   0  0  1  0  0  0  0  0  0  0  0  0
   26.9152  -19.9312  -10.4588 C   0  0  0  0  0  0  0  0  0  0  0  0
   27.5530  -19.8118   -9.1301 C   0  0  0  0  0  0  0  0  0  0  0  0
   27.2024  -18.8041   -8.2578 C   0  0  0  0  0  0  0  0  0  0  0  0
   27.8266  -18.7288   -7.0192 C   0  0  0  0  0  0  0  0  0  0  0  0
   28.7893  -19.6206   -6.6143 C   0  0  0  0  0  0  0  0  0  0  0  0
   29.1418  -20.6296   -7.4851 C   0  0  0  0  0  0  0  0  0  0  0  0
   28.5301  -20.7162   -8.7182 C   0  0  0  0  0  0  0  0  0  0  0  0
   24.8384  -20.8470   -9.4023 C   0  0  0  0  0  0  0  0  0  0  0  0
   25.0249  -21.4412   -8.1644 O   0  0  0  0  0  0  0  0  0  0  0  0
   23.7879  -20.1891   -9.5790 O   0  0  0  0  0  0  0  0  0  0  0  0
  2  1  1  1
  2  3  1  0
  4  2  1  0
  5  4  1  0
  5  6  1  1
  7  5  1  0
  7  8  2  0
  9  7  1  0
 10  9  1  0
 11 12  1  0
 10 11  1  6
 12 13  1  0
 13 14  1  0
 14 15  1  0
 16 10  1  0
 17 16  2  0
 18 16  1  0
 19 18  1  0
 19 20  1  1
 21 22  2  0
 21 20  1  0
 23 22  1  0
 24 23  2  0
 25 24  1  0
 25 26  2  0
 26 21  1  0
 27 19  1  0
 28 27  1  0
 29 27  2  0
M  END
$$$$
