LKF.pdb
     RDKit          3D

 29 29  0  0  1  0  0  0  0  0999 V2000
   19.8247  -18.0431  -12.6186 C   0  0  0  0  0  0  0  0  0  0  0  0
   19.2843  -19.4083  -12.3350 C   0  0  2  0  0  0  0  0  0  0  0  0
   18.1133  -19.2737  -11.4030 C   0  0  0  0  0  0  0  0  0  0  0  0
   20.3649  -20.3204  -11.7885 C   0  0  0  0  0  0  0  0  0  0  0  0
   21.5032  -20.3000  -12.7840 C   0  0  2  0  0  0  0  0  0  0  0  0
   21.0254  -20.8486  -14.0222 N   0  0  0  0  0  0  0  0  0  0  0  0
   22.7129  -20.9814  -12.2810 C   0  0  0  0  0  0  0  0  0  0  0  0
   22.6478  -22.0563  -11.6638 O   0  0  0  0  0  0  0  0  0  0  0  0
   23.9851  -20.3808  -12.5154 N   0  0  0  0  0  0  0  0  0  0  0  0
   25.2283  -21.0255  -12.1999 C   0  0  1  0  0  0  0  0  0  0  0  0
   26.2227  -20.8396  -13.2743 C   0  0  0  0  0  0  0  0  0  0  0  0
   26.0848  -21.6003  -14.5278 C   0  0  0  0  0  0  0  0  0  0  0  0
   26.4751  -23.0273  -14.5393 C   0  0  0  0  0  0  0  0  0  0  0  0
   26.2545  -23.5510  -15.9522 C   0  0  0  0  0  0  0  0  0  0  0  0
   26.5639  -24.9460  -16.0718 N   0  0  0  0  0  0  0  0  0  0  0  0
   25.7615  -20.4879  -10.8786 C   0  0  0  0  0  0  0  0  0  0  0  0
   25.2497  -19.4770  -10.3387 O   0  0  0  0  0  0  0  0  0  0  0  0
   26.8457  -21.1126  -10.2262 N   0  0  0  0  0  0  0  0  0  0  0  0
   27.6212  -20.4637   -9.1595 C   0  0  1  0  0  0  0  0  0  0  0  0
   26.7438  -20.4473   -7.9289 C   0  0  0  0  0  0  0  0  0  0  0  0
   27.4526  -19.9380   -6.7354 C   0  0  0  0  0  0  0  0  0  0  0  0
   27.6993  -18.5920   -6.5717 C   0  0  0  0  0  0  0  0  0  0  0  0
   28.3684  -18.1563   -5.4351 C   0  0  0  0  0  0  0  0  0  0  0  0
   28.8028  -19.0115   -4.4521 C   0  0  0  0  0  0  0  0  0  0  0  0
   28.5573  -20.3584   -4.6136 C   0  0  0  0  0  0  0  0  0  0  0  0
   27.8939  -20.8049   -5.7374 C   0  0  0  0  0  0  0  0  0  0  0  0
   28.9247  -21.0927   -8.9753 C   0  0  0  0  0  0  0  0  0  0  0  0
   29.2047  -22.3684   -9.4385 O   0  0  0  0  0  0  0  0  0  0  0  0
   29.8380  -20.4768   -8.3804 O   0  0  0  0  0  0  0  0  0  0  0  0
  2  1  1  1
  2  3  1  0
  4  2  1  0
  5  4  1  0
  5  6  1  6
  7  5  1  0
  7  8  2  0
  9  7  1  0
 10  9  1  0
 11 12  1  0
 10 11  1  6
 12 13  1  0
 13 14  1  0
 14 15  1  0
 16 10  1  0
 17 16  2  0
 18 16  1  0
 19 18  1  0
 19 20  1  1
 21 22  2  0
 21 20  1  0
 23 22  1  0
 24 23  2  0
 25 24  1  0
 25 26  2  0
 26 21  1  0
 27 19  1  0
 28 27  1  0
 29 27  2  0
M  END
$$$$
