HFH.pdb
     RDKit          3D

 32 34  0  0  1  0  0  0  0  0999 V2000
    7.8058  -13.4028   19.1828 N   0  0  0  0  0  0  0  0  0  0  0  0
    7.8040  -14.6059   19.9455 C   0  0  1  0  0  0  0  0  0  0  0  0
    8.8119  -15.5610   19.3105 C   0  0  0  0  0  0  0  0  0  0  0  0
    8.3324  -16.0010   17.9696 C   0  0  0  0  0  0  0  0  0  0  0  0
    8.6116  -15.4329   16.7537 C   0  0  0  0  0  0  0  0  0  0  0  0
    7.9576  -16.1745   15.8357 N   0  0  0  0  0  0  0  0  0  0  0  0
    7.3004  -17.1625   16.4656 C   0  0  0  0  0  0  0  0  0  0  0  0
    7.5283  -17.0627   17.8006 N   0  0  0  0  0  0  0  0  0  0  0  0
    8.2154  -14.4147   21.3548 C   0  0  0  0  0  0  0  0  0  0  0  0
    9.1256  -13.6204   21.6588 O   0  0  0  0  0  0  0  0  0  0  0  0
    7.5763  -15.1346   22.3681 N   0  0  0  0  0  0  0  0  0  0  0  0
    7.8158  -14.9695   23.7966 C   0  0  1  0  0  0  0  0  0  0  0  0
    6.5742  -14.8855   24.5893 C   0  0  0  0  0  0  0  0  0  0  0  0
    6.6590  -13.8173   25.6047 C   0  0  0  0  0  0  0  0  0  0  0  0
    6.6278  -14.1168   26.9694 C   0  0  0  0  0  0  0  0  0  0  0  0
    6.7310  -13.1583   27.9505 C   0  0  0  0  0  0  0  0  0  0  0  0
    6.8727  -11.8323   27.6023 C   0  0  0  0  0  0  0  0  0  0  0  0
    6.9085  -11.4914   26.2797 C   0  0  0  0  0  0  0  0  0  0  0  0
    6.8036  -12.4680   25.3133 C   0  0  0  0  0  0  0  0  0  0  0  0
    8.6303  -16.1310   24.2067 C   0  0  0  0  0  0  0  0  0  0  0  0
    8.1899  -17.2852   23.9973 O   0  0  0  0  0  0  0  0  0  0  0  0
    9.8983  -16.0006   24.8314 N   0  0  0  0  0  0  0  0  0  0  0  0
   10.6890  -17.1464   25.2980 C   0  0  1  0  0  0  0  0  0  0  0  0
   12.1075  -16.6915   25.3009 C   0  0  0  0  0  0  0  0  0  0  0  0
   12.6698  -16.4425   23.9533 C   0  0  0  0  0  0  0  0  0  0  0  0
   11.9921  -16.6464   22.7565 C   0  0  0  0  0  0  0  0  0  0  0  0
   12.8270  -16.3114   21.7760 N   0  0  0  0  0  0  0  0  0  0  0  0
   14.0080  -15.9015   22.2656 C   0  0  0  0  0  0  0  0  0  0  0  0
   13.8819  -15.9924   23.5933 N   0  0  0  0  0  0  0  0  0  0  0  0
   10.1742  -17.6010   26.6114 C   0  0  0  0  0  0  0  0  0  0  0  0
   10.7139  -18.7818   27.1546 O   0  0  0  0  0  0  0  0  0  0  0  0
    9.2944  -16.9935   27.2521 O   0  0  0  0  0  0  0  0  0  0  0  0
  2  1  1  6
  3  2  1  0
  3  4  1  0
  4  8  1  0
  4  5  2  0
  5  6  1  0
  7  6  1  0
  8  7  2  0
  9 10  2  0
  9  2  1  0
 11  9  1  0
 12 11  1  0
 12 13  1  1
 13 14  1  0
 14 19  1  0
 14 15  2  0
 15 16  1  0
 16 17  2  0
 18 17  1  0
 19 18  2  0
 20 12  1  0
 21 20  2  0
 22 20  1  0
 23 22  1  0
 23 24  1  1
 24 25  1  0
 25 29  1  0
 26 25  2  0
 26 27  1  0
 27 28  1  0
 29 28  2  0
 30 31  1  0
 30 23  1  0
 32 30  2  0
M  END
$$$$
