HFH.pdb
     RDKit          3D

 32 34  0  0  1  0  0  0  0  0999 V2000
    9.1089  -15.7766   20.0964 N   0  0  0  0  0  0  0  0  0  0  0  0
    8.2084  -16.3861   21.0166 C   0  0  1  0  0  0  0  0  0  0  0  0
    8.0992  -17.8646   20.6512 C   0  0  0  0  0  0  0  0  0  0  0  0
    7.5764  -18.0162   19.2636 C   0  0  0  0  0  0  0  0  0  0  0  0
    6.2726  -18.1825   18.8746 C   0  0  0  0  0  0  0  0  0  0  0  0
    6.2928  -18.2736   17.5286 N   0  0  0  0  0  0  0  0  0  0  0  0
    7.5638  -18.1670   17.1065 C   0  0  0  0  0  0  0  0  0  0  0  0
    8.3744  -18.0057   18.1840 N   0  0  0  0  0  0  0  0  0  0  0  0
    8.6636  -16.3192   22.4238 C   0  0  0  0  0  0  0  0  0  0  0  0
    9.8605  -16.4915   22.7232 O   0  0  0  0  0  0  0  0  0  0  0  0
    7.7404  -16.0586   23.4402 N   0  0  0  0  0  0  0  0  0  0  0  0
    8.0565  -15.9677   24.8605 C   0  0  1  0  0  0  0  0  0  0  0  0
    6.9362  -15.4590   25.6749 C   0  0  0  0  0  0  0  0  0  0  0  0
    6.9799  -13.9875   25.7850 C   0  0  0  0  0  0  0  0  0  0  0  0
    8.1705  -13.2850   25.5803 C   0  0  0  0  0  0  0  0  0  0  0  0
    8.2533  -11.9135   25.6456 C   0  0  0  0  0  0  0  0  0  0  0  0
    7.1263  -11.1705   25.9241 C   0  0  0  0  0  0  0  0  0  0  0  0
    5.9391  -11.8139   26.1316 C   0  0  0  0  0  0  0  0  0  0  0  0
    5.8788  -13.1887   26.0611 C   0  0  0  0  0  0  0  0  0  0  0  0
    8.4397  -17.3316   25.2772 C   0  0  0  0  0  0  0  0  0  0  0  0
    8.0945  -18.3032   24.5653 O   0  0  0  0  0  0  0  0  0  0  0  0
    9.1865  -17.5959   26.4551 N   0  0  0  0  0  0  0  0  0  0  0  0
   10.1790  -18.6732   26.5560 C   0  0  1  0  0  0  0  0  0  0  0  0
   11.0841  -18.5078   25.3846 C   0  0  0  0  0  0  0  0  0  0  0  0
   12.1567  -19.5256   25.2954 C   0  0  0  0  0  0  0  0  0  0  0  0
   11.9595  -20.9001   25.3664 C   0  0  0  0  0  0  0  0  0  0  0  0
   13.1558  -21.4703   25.2472 N   0  0  0  0  0  0  0  0  0  0  0  0
   14.1194  -20.5467   25.1028 C   0  0  0  0  0  0  0  0  0  0  0  0
   13.4806  -19.3728   25.1361 N   0  0  0  0  0  0  0  0  0  0  0  0
   10.8467  -18.6088   27.8777 C   0  0  0  0  0  0  0  0  0  0  0  0
   11.3702  -19.8030   28.4073 O   0  0  0  0  0  0  0  0  0  0  0  0
   10.9659  -17.5575   28.5366 O   0  0  0  0  0  0  0  0  0  0  0  0
  2  1  1  6
  3  2  1  0
  3  4  1  0
  4  8  1  0
  4  5  2  0
  5  6  1  0
  7  6  1  0
  8  7  2  0
  9 10  2  0
  9  2  1  0
 11  9  1  0
 12 11  1  0
 12 13  1  1
 13 14  1  0
 14 19  1  0
 14 15  2  0
 15 16  1  0
 16 17  2  0
 18 17  1  0
 19 18  2  0
 20 12  1  0
 21 20  2  0
 22 20  1  0
 23 22  1  0
 23 24  1  6
 24 25  1  0
 25 29  1  0
 26 25  2  0
 26 27  1  0
 27 28  1  0
 29 28  2  0
 30 31  1  0
 30 23  1  0
 32 30  2  0
M  END
$$$$
