HFH.pdb
     RDKit          3D

 32 34  0  0  1  0  0  0  0  0999 V2000
   10.6830  -13.9488   20.1442 N   0  0  0  0  0  0  0  0  0  0  0  0
    9.4503  -14.3229   20.7523 C   0  0  1  0  0  0  0  0  0  0  0  0
    8.8310  -15.4320   19.9052 C   0  0  0  0  0  0  0  0  0  0  0  0
    8.4051  -14.8942   18.5819 C   0  0  0  0  0  0  0  0  0  0  0  0
    8.6637  -13.6528   18.0610 C   0  0  0  0  0  0  0  0  0  0  0  0
    8.0780  -13.6279   16.8459 N   0  0  0  0  0  0  0  0  0  0  0  0
    7.4811  -14.8118   16.6285 C   0  0  0  0  0  0  0  0  0  0  0  0
    7.6799  -15.6108   17.7084 N   0  0  0  0  0  0  0  0  0  0  0  0
    9.6048  -14.8590   22.1237 C   0  0  0  0  0  0  0  0  0  0  0  0
   10.7239  -15.1756   22.5700 O   0  0  0  0  0  0  0  0  0  0  0  0
    8.4799  -15.0158   22.9383 N   0  0  0  0  0  0  0  0  0  0  0  0
    8.5098  -15.3103   24.3658 C   0  0  1  0  0  0  0  0  0  0  0  0
    7.2102  -15.0978   25.0314 C   0  0  0  0  0  0  0  0  0  0  0  0
    7.1004  -13.7257   25.5648 C   0  0  0  0  0  0  0  0  0  0  0  0
    8.0926  -13.1930   26.3921 C   0  0  0  0  0  0  0  0  0  0  0  0
    8.0464  -11.9116   26.8900 C   0  0  0  0  0  0  0  0  0  0  0  0
    6.9845  -11.0911   26.5756 C   0  0  0  0  0  0  0  0  0  0  0  0
    5.9901  -11.5686   25.7694 C   0  0  0  0  0  0  0  0  0  0  0  0
    6.0568  -12.8555   25.2815 C   0  0  0  0  0  0  0  0  0  0  0  0
    8.9407  -16.7183   24.4790 C   0  0  0  0  0  0  0  0  0  0  0  0
    8.3138  -17.5977   23.8437 O   0  0  0  0  0  0  0  0  0  0  0  0
   10.0401  -17.1253   25.2794 N   0  0  0  0  0  0  0  0  0  0  0  0
   10.4311  -18.5292   25.4584 C   0  0  1  0  0  0  0  0  0  0  0  0
   11.8740  -18.6023   25.0954 C   0  0  0  0  0  0  0  0  0  0  0  0
   12.1413  -18.5112   23.6413 C   0  0  0  0  0  0  0  0  0  0  0  0
   11.7778  -19.4700   22.7022 C   0  0  0  0  0  0  0  0  0  0  0  0
   12.1896  -19.0276   21.5168 N   0  0  0  0  0  0  0  0  0  0  0  0
   12.7997  -17.8371   21.6303 C   0  0  0  0  0  0  0  0  0  0  0  0
   12.7548  -17.5488   22.9349 N   0  0  0  0  0  0  0  0  0  0  0  0
   10.1101  -18.9601   26.8397 C   0  0  0  0  0  0  0  0  0  0  0  0
    9.4907  -18.0263   27.6912 O   0  0  0  0  0  0  0  0  0  0  0  0
   10.3600  -20.0993   27.2795 O   0  0  0  0  0  0  0  0  0  0  0  0
  2  1  1  6
  3  2  1  0
  3  4  1  0
  4  8  1  0
  4  5  2  0
  5  6  1  0
  7  6  1  0
  8  7  2  0
  9 10  2  0
  9  2  1  0
 11  9  1  0
 12 11  1  0
 12 13  1  6
 13 14  1  0
 14 19  1  0
 14 15  2  0
 15 16  1  0
 16 17  2  0
 18 17  1  0
 19 18  2  0
 20 12  1  0
 21 20  2  0
 22 20  1  0
 23 22  1  0
 23 24  1  1
 24 25  1  0
 25 29  1  0
 26 25  2  0
 26 27  1  0
 27 28  1  0
 29 28  2  0
 30 31  1  0
 30 23  1  0
 32 30  2  0
M  END
$$$$
