HFH.pdb
     RDKit          3D

 32 34  0  0  1  0  0  0  0  0999 V2000
    8.7822  -12.8246   18.6822 N   0  0  0  0  0  0  0  0  0  0  0  0
    8.1881  -13.8877   19.4212 C   0  0  1  0  0  0  0  0  0  0  0  0
    8.6505  -15.2028   18.7983 C   0  0  0  0  0  0  0  0  0  0  0  0
    8.2630  -15.2572   17.3601 C   0  0  0  0  0  0  0  0  0  0  0  0
    7.1860  -14.6573   16.7607 C   0  0  0  0  0  0  0  0  0  0  0  0
    7.2512  -14.9907   15.4550 N   0  0  0  0  0  0  0  0  0  0  0  0
    8.3298  -15.7677   15.2598 C   0  0  0  0  0  0  0  0  0  0  0  0
    8.9693  -15.9403   16.4452 N   0  0  0  0  0  0  0  0  0  0  0  0
    8.5908  -13.9167   20.8456 C   0  0  0  0  0  0  0  0  0  0  0  0
    9.7487  -13.6179   21.1945 O   0  0  0  0  0  0  0  0  0  0  0  0
    7.6613  -14.2850   21.8222 N   0  0  0  0  0  0  0  0  0  0  0  0
    7.8328  -14.1015   23.2583 C   0  0  1  0  0  0  0  0  0  0  0  0
    6.6055  -13.6443   23.9376 C   0  0  0  0  0  0  0  0  0  0  0  0
    6.8557  -13.3687   25.3661 C   0  0  0  0  0  0  0  0  0  0  0  0
    6.5233  -14.3046   26.3491 C   0  0  0  0  0  0  0  0  0  0  0  0
    6.7624  -14.1031   27.6886 C   0  0  0  0  0  0  0  0  0  0  0  0
    7.3562  -12.9332   28.1113 C   0  0  0  0  0  0  0  0  0  0  0  0
    7.6991  -11.9885   27.1858 C   0  0  0  0  0  0  0  0  0  0  0  0
    7.4505  -12.2113   25.8489 C   0  0  0  0  0  0  0  0  0  0  0  0
    8.2745  -15.4095   23.7828 C   0  0  0  0  0  0  0  0  0  0  0  0
    7.5437  -16.4119   23.6069 O   0  0  0  0  0  0  0  0  0  0  0  0
    9.4972  -15.5859   24.4819 N   0  0  0  0  0  0  0  0  0  0  0  0
    9.9212  -16.8701   25.0537 C   0  0  1  0  0  0  0  0  0  0  0  0
   11.3710  -17.0009   24.7375 C   0  0  0  0  0  0  0  0  0  0  0  0
   11.6621  -17.2471   23.3061 C   0  0  0  0  0  0  0  0  0  0  0  0
   10.7042  -17.4890   22.3278 C   0  0  0  0  0  0  0  0  0  0  0  0
   11.3561  -17.6596   21.1804 N   0  0  0  0  0  0  0  0  0  0  0  0
   12.6820  -17.5426   21.3557 C   0  0  0  0  0  0  0  0  0  0  0  0
   12.8374  -17.2917   22.6594 N   0  0  0  0  0  0  0  0  0  0  0  0
    9.5896  -16.9024   26.4979 C   0  0  0  0  0  0  0  0  0  0  0  0
    9.8467  -18.0924   27.2038 O   0  0  0  0  0  0  0  0  0  0  0  0
    9.0984  -15.9351   27.1118 O   0  0  0  0  0  0  0  0  0  0  0  0
  2  1  1  6
  3  2  1  0
  3  4  1  0
  4  8  1  0
  4  5  2  0
  5  6  1  0
  7  6  1  0
  8  7  2  0
  9 10  2  0
  9  2  1  0
 11  9  1  0
 12 11  1  0
 12 13  1  1
 13 14  1  0
 14 19  1  0
 14 15  2  0
 15 16  1  0
 16 17  2  0
 18 17  1  0
 19 18  2  0
 20 12  1  0
 21 20  2  0
 22 20  1  0
 23 22  1  0
 23 24  1  1
 24 25  1  0
 25 29  1  0
 26 25  2  0
 26 27  1  0
 27 28  1  0
 29 28  2  0
 30 31  1  0
 30 23  1  0
 32 30  2  0
M  END
$$$$
