HFH.pdb
     RDKit          3D

 32 34  0  0  1  0  0  0  0  0999 V2000
    8.6276  -17.5123   19.9044 N   0  0  0  0  0  0  0  0  0  0  0  0
    9.6078  -16.4790   19.8757 C   0  0  1  0  0  0  0  0  0  0  0  0
    9.3396  -15.6170   18.6444 C   0  0  0  0  0  0  0  0  0  0  0  0
    9.4509  -16.4378   17.4053 C   0  0  0  0  0  0  0  0  0  0  0  0
   10.5433  -16.5760   16.5887 C   0  0  0  0  0  0  0  0  0  0  0  0
   10.1675  -17.4139   15.6003 N   0  0  0  0  0  0  0  0  0  0  0  0
    8.8900  -17.7772   15.8028 C   0  0  0  0  0  0  0  0  0  0  0  0
    8.4327  -17.1721   16.9292 N   0  0  0  0  0  0  0  0  0  0  0  0
    9.5580  -15.5822   21.0527 C   0  0  0  0  0  0  0  0  0  0  0  0
   10.3818  -14.6587   21.1950 O   0  0  0  0  0  0  0  0  0  0  0  0
    8.5723  -15.7685   22.0259 N   0  0  0  0  0  0  0  0  0  0  0  0
    8.5012  -15.0591   23.2975 C   0  0  1  0  0  0  0  0  0  0  0  0
    7.1966  -14.4104   23.5302 C   0  0  0  0  0  0  0  0  0  0  0  0
    7.1717  -13.7098   24.8294 C   0  0  0  0  0  0  0  0  0  0  0  0
    7.7717  -12.4573   24.9838 C   0  0  0  0  0  0  0  0  0  0  0  0
    7.7502  -11.7555   26.1667 C   0  0  0  0  0  0  0  0  0  0  0  0
    7.1149  -12.2869   27.2683 C   0  0  0  0  0  0  0  0  0  0  0  0
    6.5136  -13.5094   27.1649 C   0  0  0  0  0  0  0  0  0  0  0  0
    6.5472  -14.1950   25.9701 C   0  0  0  0  0  0  0  0  0  0  0  0
    8.7868  -16.0666   24.3388 C   0  0  0  0  0  0  0  0  0  0  0  0
    7.9801  -17.0105   24.5073 O   0  0  0  0  0  0  0  0  0  0  0  0
    9.9408  -16.0159   25.1638 N   0  0  0  0  0  0  0  0  0  0  0  0
   10.2266  -17.0033   26.2122 C   0  0  1  0  0  0  0  0  0  0  0  0
   11.6298  -17.4485   25.9844 C   0  0  0  0  0  0  0  0  0  0  0  0
   11.8289  -18.2191   24.7351 C   0  0  0  0  0  0  0  0  0  0  0  0
   10.8488  -18.9718   24.0979 C   0  0  0  0  0  0  0  0  0  0  0  0
   11.4122  -19.5077   23.0181 N   0  0  0  0  0  0  0  0  0  0  0  0
   12.7014  -19.1473   22.9160 C   0  0  0  0  0  0  0  0  0  0  0  0
   12.9259  -18.3632   23.9752 N   0  0  0  0  0  0  0  0  0  0  0  0
    9.9681  -16.4022   27.5420 C   0  0  0  0  0  0  0  0  0  0  0  0
   10.0748  -17.2357   28.6709 O   0  0  0  0  0  0  0  0  0  0  0  0
    9.6636  -15.2048   27.7072 O   0  0  0  0  0  0  0  0  0  0  0  0
  2  1  1  1
  3  2  1  0
  3  4  1  0
  4  8  1  0
  4  5  2  0
  5  6  1  0
  7  6  1  0
  8  7  2  0
  9 10  2  0
  9  2  1  0
 11  9  1  0
 12 11  1  0
 12 13  1  1
 13 14  1  0
 14 19  1  0
 14 15  2  0
 15 16  1  0
 16 17  2  0
 18 17  1  0
 19 18  2  0
 20 12  1  0
 21 20  2  0
 22 20  1  0
 23 22  1  0
 23 24  1  1
 24 25  1  0
 25 29  1  0
 26 25  2  0
 26 27  1  0
 27 28  1  0
 29 28  2  0
 30 31  1  0
 30 23  1  0
 32 30  2  0
M  END
$$$$
