HFH.pdb
     RDKit          3D

 32 34  0  0  1  0  0  0  0  0999 V2000
   10.2927  -16.6995   19.6127 N   0  0  0  0  0  0  0  0  0  0  0  0
    9.0861  -16.7588   20.3675 C   0  0  1  0  0  0  0  0  0  0  0  0
    8.7017  -18.2290   20.5160 C   0  0  0  0  0  0  0  0  0  0  0  0
    8.3059  -18.7950   19.1952 C   0  0  0  0  0  0  0  0  0  0  0  0
    7.0921  -18.6849   18.5678 C   0  0  0  0  0  0  0  0  0  0  0  0
    7.2106  -19.3568   17.4039 N   0  0  0  0  0  0  0  0  0  0  0  0
    8.4529  -19.8614   17.3197 C   0  0  0  0  0  0  0  0  0  0  0  0
    9.1459  -19.5156   18.4351 N   0  0  0  0  0  0  0  0  0  0  0  0
    9.2141  -16.2035   21.7340 C   0  0  0  0  0  0  0  0  0  0  0  0
   10.1911  -16.4826   22.4546 O   0  0  0  0  0  0  0  0  0  0  0  0
    8.2254  -15.3501   22.2316 N   0  0  0  0  0  0  0  0  0  0  0  0
    8.2662  -14.6801   23.5258 C   0  0  1  0  0  0  0  0  0  0  0  0
    7.1317  -13.7619   23.7421 C   0  0  0  0  0  0  0  0  0  0  0  0
    7.2095  -13.1187   25.0686 C   0  0  0  0  0  0  0  0  0  0  0  0
    6.2328  -13.3519   26.0405 C   0  0  0  0  0  0  0  0  0  0  0  0
    6.2780  -12.7967   27.2981 C   0  0  0  0  0  0  0  0  0  0  0  0
    7.3229  -11.9676   27.6451 C   0  0  0  0  0  0  0  0  0  0  0  0
    8.3019  -11.7106   26.7274 C   0  0  0  0  0  0  0  0  0  0  0  0
    8.2368  -12.2776   25.4732 C   0  0  0  0  0  0  0  0  0  0  0  0
    8.2793  -15.7559   24.5374 C   0  0  0  0  0  0  0  0  0  0  0  0
    7.5716  -16.7729   24.3510 O   0  0  0  0  0  0  0  0  0  0  0  0
    9.0618  -15.6917   25.7200 N   0  0  0  0  0  0  0  0  0  0  0  0
    9.4652  -16.8779   26.4855 C   0  0  1  0  0  0  0  0  0  0  0  0
   10.4260  -17.6172   25.6199 C   0  0  0  0  0  0  0  0  0  0  0  0
    9.8297  -18.7545   24.8817 C   0  0  0  0  0  0  0  0  0  0  0  0
    8.4958  -19.1402   24.9535 C   0  0  0  0  0  0  0  0  0  0  0  0
    8.3529  -20.1936   24.1531 N   0  0  0  0  0  0  0  0  0  0  0  0
    9.5162  -20.5152   23.5651 C   0  0  0  0  0  0  0  0  0  0  0  0
   10.3961  -19.6217   24.0280 N   0  0  0  0  0  0  0  0  0  0  0  0
   10.0024  -16.4584   27.8017 C   0  0  0  0  0  0  0  0  0  0  0  0
   10.9658  -15.4328   27.8205 O   0  0  0  0  0  0  0  0  0  0  0  0
    9.6451  -16.9657   28.8827 O   0  0  0  0  0  0  0  0  0  0  0  0
  2  1  1  1
  3  2  1  0
  3  4  1  0
  4  8  1  0
  4  5  2  0
  5  6  1  0
  7  6  1  0
  8  7  2  0
  9 10  2  0
  9  2  1  0
 11  9  1  0
 12 11  1  0
 12 13  1  1
 13 14  1  0
 14 19  1  0
 14 15  2  0
 15 16  1  0
 16 17  2  0
 18 17  1  0
 19 18  2  0
 20 12  1  0
 21 20  2  0
 22 20  1  0
 23 22  1  0
 23 24  1  6
 24 25  1  0
 25 29  1  0
 26 25  2  0
 26 27  1  0
 27 28  1  0
 29 28  2  0
 30 31  1  0
 30 23  1  0
 32 30  2  0
M  END
$$$$
