DPC.pdb
     RDKit          3D

 22 22  0  0  1  0  0  0  0  0999 V2000
   10.6912  -17.1662   19.6740 N   0  0  0  0  0  0  0  0  0  0  0  0
    9.7998  -17.3131   20.8080 C   0  0  1  0  0  0  0  0  0  0  0  0
    9.7654  -18.7624   21.2827 C   0  0  0  0  0  0  0  0  0  0  0  0
    9.5507  -19.6213   20.1023 C   0  0  0  0  0  0  0  0  0  0  0  0
   10.5367  -20.2233   19.5935 O   0  0  0  0  0  0  0  0  0  0  0  0
    9.9869  -16.3653   21.8944 C   0  0  0  0  0  0  0  0  0  0  0  0
   11.1880  -16.2789   22.3569 O   0  0  0  0  0  0  0  0  0  0  0  0
    8.2721  -19.7533   19.5761 O   0  0  0  0  0  0  0  0  0  0  0  0
    8.9989  -15.5394   22.4922 N   0  0  0  0  0  0  0  0  0  0  0  0
    7.9298  -14.9649   21.6976 C   0  0  0  0  0  0  0  0  0  0  0  0
    6.7709  -14.8933   22.6542 C   0  0  0  0  0  0  0  0  0  0  0  0
    7.3022  -15.1695   24.0144 C   0  0  0  0  0  0  0  0  0  0  0  0
    8.8312  -14.9841   23.7927 C   0  0  1  0  0  0  0  0  0  0  0  0
    9.5301  -15.5764   24.9169 C   0  0  0  0  0  0  0  0  0  0  0  0
    9.6728  -16.7876   25.0665 O   0  0  0  0  0  0  0  0  0  0  0  0
   10.0919  -14.7425   25.9210 N   0  0  0  0  0  0  0  0  0  0  0  0
   10.7823  -15.2755   27.0751 C   0  0  1  0  0  0  0  0  0  0  0  0
   11.1786  -14.1539   27.9951 C   0  0  0  0  0  0  0  0  0  0  0  0
    9.6801  -13.2108   28.4072 S   0  0  0  0  0  0  0  0  0  0  0  0
    9.9200  -16.2110   27.8608 C   0  0  0  0  0  0  0  0  0  0  0  0
    8.7159  -16.2642   27.6222 O   0  0  0  0  0  0  0  0  0  0  0  0
   10.5228  -16.9910   28.8420 O   0  0  0  0  0  0  0  0  0  0  0  0
  2  3  1  0
  2  1  1  6
  3  4  1  0
  4  8  1  0
  5  4  2  0
  6  2  1  0
  7  6  2  0
  9  6  1  0
  9 13  1  0
 10  9  1  0
 11 10  1  0
 11 12  1  0
 12 13  1  0
 13 14  1  1
 14 16  1  0
 14 15  2  0
 16 17  1  0
 17 20  1  0
 17 18  1  1
 19 18  1  0
 20 22  1  0
 21 20  2  0
M  END
$$$$
