DPC.pdb
     RDKit          3D

 22 22  0  0  1  0  0  0  0  0999 V2000
    9.1427  -17.0857   16.5180 N   0  0  0  0  0  0  0  0  0  0  0  0
    8.2525  -16.5136   17.5090 C   0  0  1  0  0  0  0  0  0  0  0  0
    7.0640  -17.4357   17.7628 C   0  0  0  0  0  0  0  0  0  0  0  0
    7.5688  -18.8210   17.8196 C   0  0  0  0  0  0  0  0  0  0  0  0
    8.6311  -19.1131   17.2033 O   0  0  0  0  0  0  0  0  0  0  0  0
    8.8781  -16.0451   18.7349 C   0  0  0  0  0  0  0  0  0  0  0  0
    9.8275  -16.7878   19.1941 O   0  0  0  0  0  0  0  0  0  0  0  0
    6.8702  -19.7740   18.5494 O   0  0  0  0  0  0  0  0  0  0  0  0
    8.5554  -14.8738   19.4695 N   0  0  0  0  0  0  0  0  0  0  0  0
    8.1048  -13.6723   18.7929 C   0  0  0  0  0  0  0  0  0  0  0  0
    7.1674  -13.0344   19.7817 C   0  0  0  0  0  0  0  0  0  0  0  0
    7.3355  -13.7477   21.0746 C   0  0  0  0  0  0  0  0  0  0  0  0
    8.6755  -14.5031   20.8391 C   0  0  1  0  0  0  0  0  0  0  0  0
    8.8004  -15.5358   21.8495 C   0  0  0  0  0  0  0  0  0  0  0  0
    7.9775  -16.4343   22.0080 O   0  0  0  0  0  0  0  0  0  0  0  0
    9.9210  -15.5402   22.7234 N   0  0  0  0  0  0  0  0  0  0  0  0
   10.1075  -16.5521   23.7403 C   0  0  1  0  0  0  0  0  0  0  0  0
   11.2306  -17.4709   23.3452 C   0  0  0  0  0  0  0  0  0  0  0  0
   12.7133  -16.4565   23.0672 S   0  0  0  0  0  0  0  0  0  0  0  0
   10.4657  -15.9562   25.0641 C   0  0  0  0  0  0  0  0  0  0  0  0
   10.6914  -14.7508   25.1408 O   0  0  0  0  0  0  0  0  0  0  0  0
   10.5308  -16.8005   26.1674 O   0  0  0  0  0  0  0  0  0  0  0  0
  2  3  1  0
  2  1  1  6
  3  4  1  0
  4  8  1  0
  5  4  2  0
  6  2  1  0
  7  6  2  0
  9  6  1  0
  9 13  1  0
 10  9  1  0
 11 10  1  0
 11 12  1  0
 12 13  1  0
 13 14  1  1
 14 16  1  0
 14 15  2  0
 16 17  1  0
 17 20  1  0
 17 18  1  6
 19 18  1  0
 20 22  1  0
 21 20  2  0
M  END
$$$$
