DPC.pdb
     RDKit          3D

 22 22  0  0  1  0  0  0  0  0999 V2000
   10.2338  -15.0607   15.0485 N   0  0  0  0  0  0  0  0  0  0  0  0
    9.2696  -15.3811   16.0826 C   0  0  1  0  0  0  0  0  0  0  0  0
    8.7376  -16.7996   15.9033 C   0  0  0  0  0  0  0  0  0  0  0  0
    8.1641  -16.9008   14.5476 C   0  0  0  0  0  0  0  0  0  0  0  0
    8.9331  -17.1167   13.5702 O   0  0  0  0  0  0  0  0  0  0  0  0
    9.6801  -15.0984   17.4484 C   0  0  0  0  0  0  0  0  0  0  0  0
   10.8116  -15.6048   17.8054 O   0  0  0  0  0  0  0  0  0  0  0  0
    6.7935  -16.7598   14.3726 O   0  0  0  0  0  0  0  0  0  0  0  0
    8.9742  -14.3366   18.4163 N   0  0  0  0  0  0  0  0  0  0  0  0
    8.2279  -13.1537   18.0316 C   0  0  0  0  0  0  0  0  0  0  0  0
    7.0808  -13.1214   19.0044 C   0  0  0  0  0  0  0  0  0  0  0  0
    7.3722  -14.1205   20.0654 C   0  0  0  0  0  0  0  0  0  0  0  0
    8.8894  -14.3805   19.8371 C   0  0  1  0  0  0  0  0  0  0  0  0
    9.2537  -15.5976   20.5363 C   0  0  0  0  0  0  0  0  0  0  0  0
    8.8954  -16.7181   20.1818 O   0  0  0  0  0  0  0  0  0  0  0  0
   10.0665  -15.5300   21.7000 N   0  0  0  0  0  0  0  0  0  0  0  0
   10.6036  -16.7106   22.3406 C   0  0  1  0  0  0  0  0  0  0  0  0
   11.6909  -16.3185   23.3027 C   0  0  0  0  0  0  0  0  0  0  0  0
   11.0123  -15.0710   24.4375 S   0  0  0  0  0  0  0  0  0  0  0  0
    9.5626  -17.4462   23.1223 C   0  0  0  0  0  0  0  0  0  0  0  0
    8.4700  -16.9184   23.3160 O   0  0  0  0  0  0  0  0  0  0  0  0
    9.8774  -18.7119   23.6052 O   0  0  0  0  0  0  0  0  0  0  0  0
  2  3  1  0
  2  1  1  6
  3  4  1  0
  4  8  1  0
  5  4  2  0
  6  2  1  0
  7  6  2  0
  9  6  1  0
  9 13  1  0
 10  9  1  0
 11 10  1  0
 11 12  1  0
 12 13  1  0
 13 14  1  6
 14 16  1  0
 14 15  2  0
 16 17  1  0
 17 20  1  0
 17 18  1  1
 19 18  1  0
 20 22  1  0
 21 20  2  0
M  END
$$$$
