DPC.pdb
     RDKit          3D

 22 22  0  0  1  0  0  0  0  0999 V2000
    8.8228  -18.2346   21.0170 N   0  0  0  0  0  0  0  0  0  0  0  0
    9.9836  -17.5458   21.5459 C   0  0  1  0  0  0  0  0  0  0  0  0
   10.5455  -16.5683   20.5182 C   0  0  0  0  0  0  0  0  0  0  0  0
   11.0940  -17.3549   19.3968 C   0  0  0  0  0  0  0  0  0  0  0  0
   11.6265  -18.4743   19.6346 O   0  0  0  0  0  0  0  0  0  0  0  0
    9.8293  -16.9544   22.8651 C   0  0  0  0  0  0  0  0  0  0  0  0
   10.8621  -16.3284   23.3185 O   0  0  0  0  0  0  0  0  0  0  0  0
   11.0122  -16.8523   18.1046 O   0  0  0  0  0  0  0  0  0  0  0  0
    8.6780  -16.9961   23.6947 N   0  0  0  0  0  0  0  0  0  0  0  0
    7.3864  -17.3772   23.1555 C   0  0  0  0  0  0  0  0  0  0  0  0
    6.7011  -18.0541   24.3112 C   0  0  0  0  0  0  0  0  0  0  0  0
    7.5146  -17.7872   25.5260 C   0  0  0  0  0  0  0  0  0  0  0  0
    8.4177  -16.6159   25.0421 C   0  0  1  0  0  0  0  0  0  0  0  0
    9.5230  -16.4787   25.9709 C   0  0  0  0  0  0  0  0  0  0  0  0
   10.5467  -17.1558   25.9136 O   0  0  0  0  0  0  0  0  0  0  0  0
    9.4534  -15.5211   27.0185 N   0  0  0  0  0  0  0  0  0  0  0  0
   10.5056  -15.3665   27.9991 C   0  0  1  0  0  0  0  0  0  0  0  0
   10.2180  -14.1762   28.8721 C   0  0  0  0  0  0  0  0  0  0  0  0
    9.5982  -12.8381   27.8091 S   0  0  0  0  0  0  0  0  0  0  0  0
   10.6155  -16.5585   28.8952 C   0  0  0  0  0  0  0  0  0  0  0  0
   11.5939  -16.6716   29.6299 O   0  0  0  0  0  0  0  0  0  0  0  0
    9.5946  -17.5024   28.8593 O   0  0  0  0  0  0  0  0  0  0  0  0
  2  3  1  0
  2  1  1  6
  3  4  1  0
  4  8  1  0
  5  4  2  0
  6  2  1  0
  7  6  2  0
  9  6  1  0
  9 13  1  0
 10  9  1  0
 11 10  1  0
 11 12  1  0
 12 13  1  0
 13 14  1  1
 14 16  1  0
 14 15  2  0
 16 17  1  0
 17 20  1  0
 17 18  1  1
 19 18  1  0
 20 22  1  0
 21 20  2  0
M  END
$$$$
