DPC.pdb
     RDKit          3D

 22 22  0  0  1  0  0  0  0  0999 V2000
   11.0162  -17.4493   18.7455 N   0  0  0  0  0  0  0  0  0  0  0  0
    9.6843  -17.1097   19.2066 C   0  0  1  0  0  0  0  0  0  0  0  0
    8.8749  -18.3706   19.4932 C   0  0  0  0  0  0  0  0  0  0  0  0
    8.9598  -19.2435   18.3066 C   0  0  0  0  0  0  0  0  0  0  0  0
    9.4531  -20.3990   18.4285 O   0  0  0  0  0  0  0  0  0  0  0  0
    9.6101  -16.1325   20.2806 C   0  0  0  0  0  0  0  0  0  0  0  0
   10.4483  -16.3023   21.2463 O   0  0  0  0  0  0  0  0  0  0  0  0
    8.4948  -18.7805   17.0824 O   0  0  0  0  0  0  0  0  0  0  0  0
    8.7221  -15.0290   20.3766 N   0  0  0  0  0  0  0  0  0  0  0  0
    8.3771  -14.2480   19.2039 C   0  0  0  0  0  0  0  0  0  0  0  0
    6.9682  -13.7960   19.4761 C   0  0  0  0  0  0  0  0  0  0  0  0
    6.6719  -14.1038   20.8995 C   0  0  0  0  0  0  0  0  0  0  0  0
    8.0997  -14.3544   21.4654 C   0  0  1  0  0  0  0  0  0  0  0  0
    7.9719  -15.0284   22.7430 C   0  0  0  0  0  0  0  0  0  0  0  0
    7.7329  -16.2281   22.8575 O   0  0  0  0  0  0  0  0  0  0  0  0
    8.1231  -14.2936   23.9499 N   0  0  0  0  0  0  0  0  0  0  0  0
    8.0266  -14.9141   25.2531 C   0  0  1  0  0  0  0  0  0  0  0  0
    8.0023  -13.8558   26.3212 C   0  0  0  0  0  0  0  0  0  0  0  0
    6.5609  -12.7895   26.0212 S   0  0  0  0  0  0  0  0  0  0  0  0
    6.7757  -15.7205   25.3981 C   0  0  0  0  0  0  0  0  0  0  0  0
    5.8269  -15.5002   24.6491 O   0  0  0  0  0  0  0  0  0  0  0  0
    6.7361  -16.6975   26.3872 O   0  0  0  0  0  0  0  0  0  0  0  0
  2  3  1  0
  2  1  1  1
  3  4  1  0
  4  8  1  0
  5  4  2  0
  6  2  1  0
  7  6  2  0
  9  6  1  0
  9 13  1  0
 10  9  1  0
 11 10  1  0
 11 12  1  0
 12 13  1  0
 13 14  1  1
 14 16  1  0
 14 15  2  0
 16 17  1  0
 17 20  1  0
 17 18  1  1
 19 18  1  0
 20 22  1  0
 21 20  2  0
M  END
$$$$
