WGE.pdb
     RDKit          3D

 28 29  0  0  1  0  0  0  0  0999 V2000
   25.8724  -22.4665  -11.7154 N   0  0  0  0  0  0  0  0  0  0  0  0
   25.6439  -21.0668  -11.4552 C   0  0  1  0  0  0  0  0  0  0  0  0
   26.8553  -20.2041  -11.5489 C   0  0  0  0  0  0  0  0  0  0  0  0
   27.9498  -20.7683  -10.7288 C   0  0  0  0  0  0  0  0  0  0  0  0
   29.0878  -21.4597  -11.0766 C   0  0  0  0  0  0  0  0  0  0  0  0
   29.7576  -21.7583   -9.9428 N   0  0  0  0  0  0  0  0  0  0  0  0
   29.0829  -21.2798   -8.8923 C   0  0  0  0  0  0  0  0  0  0  0  0
   29.3431  -21.3198   -7.5215 C   0  0  0  0  0  0  0  0  0  0  0  0
   28.4517  -20.7285   -6.6543 C   0  0  0  0  0  0  0  0  0  0  0  0
   27.3021  -20.0933   -7.0848 C   0  0  0  0  0  0  0  0  0  0  0  0
   27.0578  -20.0626   -8.4445 C   0  0  0  0  0  0  0  0  0  0  0  0
   27.9407  -20.6498   -9.3275 C   0  0  0  0  0  0  0  0  0  0  0  0
   24.5056  -20.5437  -12.2313 C   0  0  0  0  0  0  0  0  0  0  0  0
   24.4052  -19.2689  -12.3251 O   0  0  0  0  0  0  0  0  0  0  0  0
   23.5589  -21.3749  -12.8486 N   0  0  0  0  0  0  0  0  0  0  0  0
   22.6676  -20.8372  -13.8372 C   0  0  0  0  0  0  0  0  0  0  0  0
   21.7852  -21.9456  -14.3190 C   0  0  0  0  0  0  0  0  0  0  0  0
   22.2308  -22.9472  -14.9416 O   0  0  0  0  0  0  0  0  0  0  0  0
   20.3801  -21.9224  -14.0933 N   0  0  0  0  0  0  0  0  0  0  0  0
   19.5211  -23.0793  -14.4787 C   0  0  1  0  0  0  0  0  0  0  0  0
   18.4576  -23.1640  -13.4375 C   0  0  0  0  0  0  0  0  0  0  0  0
   18.9785  -23.4109  -12.0662 C   0  0  0  0  0  0  0  0  0  0  0  0
   19.1541  -22.2224  -11.2309 C   0  0  0  0  0  0  0  0  0  0  0  0
   18.6480  -21.1188  -11.6421 O   0  0  0  0  0  0  0  0  0  0  0  0
   19.0326  -22.9833  -15.8414 C   0  0  0  0  0  0  0  0  0  0  0  0
   18.6423  -24.0688  -16.6303 O   0  0  0  0  0  0  0  0  0  0  0  0
   19.8252  -22.1830  -10.0239 O   0  0  0  0  0  0  0  0  0  0  0  0
   18.9540  -21.8412  -16.3861 O   0  0  0  0  0  0  0  0  0  0  0  0
  2 13  1  0
  2  3  1  0
  2  1  1  6
  4  3  1  0
  4 12  1  0
  5  4  2  0
  6  5  1  0
  6  7  1  0
  7  8  1  0
  7 12  2  0
  8  9  2  0
  9 10  1  0
 11 10  2  0
 12 11  1  0
 13 14  2  0
 15 16  1  0
 15 13  1  0
 17 16  1  0
 18 17  2  0
 19 17  1  0
 20 21  1  1
 20 19  1  0
 21 22  1  0
 23 22  1  0
 23 24  2  0
 25 20  1  0
 26 25  1  0
 27 23  1  0
 28 25  2  0
M  END
$$$$
