WGE.pdb
     RDKit          3D

 28 29  0  0  1  0  0  0  0  0999 V2000
   26.4483  -22.4270  -12.7034 N   0  0  0  0  0  0  0  0  0  0  0  0
   25.6010  -21.6641  -11.8207 C   0  0  1  0  0  0  0  0  0  0  0  0
   26.2776  -20.5376  -11.1180 C   0  0  0  0  0  0  0  0  0  0  0  0
   27.5114  -21.0151  -10.4559 C   0  0  0  0  0  0  0  0  0  0  0  0
   28.4683  -21.9211  -10.8528 C   0  0  0  0  0  0  0  0  0  0  0  0
   29.3945  -22.0058   -9.8737 N   0  0  0  0  0  0  0  0  0  0  0  0
   29.0560  -21.1855   -8.8736 C   0  0  0  0  0  0  0  0  0  0  0  0
   29.6680  -20.9060   -7.6505 C   0  0  0  0  0  0  0  0  0  0  0  0
   29.0798  -19.9956   -6.8012 C   0  0  0  0  0  0  0  0  0  0  0  0
   27.9011  -19.3423   -7.1086 C   0  0  0  0  0  0  0  0  0  0  0  0
   27.3067  -19.6300   -8.3225 C   0  0  0  0  0  0  0  0  0  0  0  0
   27.8828  -20.5394   -9.1856 C   0  0  0  0  0  0  0  0  0  0  0  0
   24.3468  -21.2586  -12.4798 C   0  0  0  0  0  0  0  0  0  0  0  0
   24.3561  -20.1386  -13.1040 O   0  0  0  0  0  0  0  0  0  0  0  0
   23.1808  -22.0379  -12.4427 N   0  0  0  0  0  0  0  0  0  0  0  0
   21.9151  -21.4527  -12.7841 C   0  0  0  0  0  0  0  0  0  0  0  0
   20.8772  -22.5296  -12.7347 C   0  0  0  0  0  0  0  0  0  0  0  0
   21.1642  -23.7543  -12.8177 O   0  0  0  0  0  0  0  0  0  0  0  0
   19.4961  -22.2182  -12.5887 N   0  0  0  0  0  0  0  0  0  0  0  0
   18.5832  -23.1156  -11.8232 C   0  0  1  0  0  0  0  0  0  0  0  0
   19.2210  -23.3070  -10.4896 C   0  0  0  0  0  0  0  0  0  0  0  0
   18.4776  -24.2353   -9.5961 C   0  0  0  0  0  0  0  0  0  0  0  0
   19.1645  -24.6123   -8.3603 C   0  0  0  0  0  0  0  0  0  0  0  0
   18.5887  -25.4564   -7.5863 O   0  0  0  0  0  0  0  0  0  0  0  0
   17.2198  -22.6215  -11.7808 C   0  0  0  0  0  0  0  0  0  0  0  0
   16.0849  -23.3755  -12.0915 O   0  0  0  0  0  0  0  0  0  0  0  0
   20.3931  -24.1335   -7.9481 O   0  0  0  0  0  0  0  0  0  0  0  0
   17.0144  -21.4149  -11.4505 O   0  0  0  0  0  0  0  0  0  0  0  0
  2 13  1  0
  2  3  1  0
  2  1  1  6
  4  3  1  0
  4 12  1  0
  5  4  2  0
  6  5  1  0
  6  7  1  0
  7  8  1  0
  7 12  2  0
  8  9  2  0
  9 10  1  0
 11 10  2  0
 12 11  1  0
 13 14  2  0
 15 16  1  0
 15 13  1  0
 17 16  1  0
 18 17  2  0
 19 17  1  0
 20 21  1  1
 20 19  1  0
 21 22  1  0
 23 22  1  0
 23 24  2  0
 25 20  1  0
 26 25  1  0
 27 23  1  0
 28 25  2  0
M  END
$$$$
