WGE.pdb
     RDKit          3D

 28 29  0  0  1  0  0  0  0  0999 V2000
   22.9514  -21.9483  -10.5612 N   0  0  0  0  0  0  0  0  0  0  0  0
   23.6500  -21.4247   -9.4137 C   0  0  1  0  0  0  0  0  0  0  0  0
   24.3222  -20.1127   -9.6317 C   0  0  0  0  0  0  0  0  0  0  0  0
   25.2970  -20.2153  -10.7400 C   0  0  0  0  0  0  0  0  0  0  0  0
   25.1693  -19.9903  -12.0916 C   0  0  0  0  0  0  0  0  0  0  0  0
   26.3649  -20.2342  -12.6700 N   0  0  0  0  0  0  0  0  0  0  0  0
   27.2421  -20.6047  -11.7315 C   0  0  0  0  0  0  0  0  0  0  0  0
   28.5899  -20.9605  -11.8048 C   0  0  0  0  0  0  0  0  0  0  0  0
   29.2548  -21.3027  -10.6485 C   0  0  0  0  0  0  0  0  0  0  0  0
   28.6415  -21.3102   -9.4098 C   0  0  0  0  0  0  0  0  0  0  0  0
   27.3069  -20.9565   -9.3534 C   0  0  0  0  0  0  0  0  0  0  0  0
   26.6255  -20.6104  -10.5023 C   0  0  0  0  0  0  0  0  0  0  0  0
   22.8087  -21.4441   -8.2039 C   0  0  0  0  0  0  0  0  0  0  0  0
   23.3702  -21.1048   -7.1022 O   0  0  0  0  0  0  0  0  0  0  0  0
   21.4554  -21.8132   -8.2236 N   0  0  0  0  0  0  0  0  0  0  0  0
   20.6363  -21.6005   -7.0639 C   0  0  0  0  0  0  0  0  0  0  0  0
   19.5252  -22.6026   -7.0899 C   0  0  0  0  0  0  0  0  0  0  0  0
   18.6879  -22.7133   -6.1540 O   0  0  0  0  0  0  0  0  0  0  0  0
   19.3575  -23.4914   -8.1889 N   0  0  0  0  0  0  0  0  0  0  0  0
   18.2020  -24.4328   -8.2461 C   0  0  1  0  0  0  0  0  0  0  0  0
   17.9363  -24.6669   -9.6941 C   0  0  0  0  0  0  0  0  0  0  0  0
   17.6089  -23.4296  -10.4521 C   0  0  0  0  0  0  0  0  0  0  0  0
   17.2997  -23.6175  -11.8700 C   0  0  0  0  0  0  0  0  0  0  0  0
   17.5007  -24.7761  -12.3803 O   0  0  0  0  0  0  0  0  0  0  0  0
   18.4218  -25.6355   -7.4652 C   0  0  0  0  0  0  0  0  0  0  0  0
   17.4336  -26.5665   -7.1336 O   0  0  0  0  0  0  0  0  0  0  0  0
   16.8047  -22.6457  -12.7181 O   0  0  0  0  0  0  0  0  0  0  0  0
   19.5868  -25.8795   -7.0287 O   0  0  0  0  0  0  0  0  0  0  0  0
  2 13  1  0
  2  3  1  0
  2  1  1  6
  4  3  1  0
  4 12  1  0
  5  4  2  0
  6  5  1  0
  6  7  1  0
  7  8  1  0
  7 12  2  0
  8  9  2  0
  9 10  1  0
 11 10  2  0
 12 11  1  0
 13 14  2  0
 15 16  1  0
 15 13  1  0
 17 16  1  0
 18 17  2  0
 19 17  1  0
 20 21  1  6
 20 19  1  0
 21 22  1  0
 23 22  1  0
 23 24  2  0
 25 20  1  0
 26 25  1  0
 27 23  1  0
 28 25  2  0
M  END
$$$$
