WGE.pdb
     RDKit          3D

 28 29  0  0  1  0  0  0  0  0999 V2000
   27.1568  -21.4442  -11.2874 N   0  0  0  0  0  0  0  0  0  0  0  0
   26.0512  -21.2506  -10.3823 C   0  0  1  0  0  0  0  0  0  0  0  0
   26.3427  -20.3755   -9.2119 C   0  0  0  0  0  0  0  0  0  0  0  0
   27.6964  -20.6585   -8.6862 C   0  0  0  0  0  0  0  0  0  0  0  0
   28.7769  -21.3014   -9.2458 C   0  0  0  0  0  0  0  0  0  0  0  0
   29.7787  -21.2992   -8.3404 N   0  0  0  0  0  0  0  0  0  0  0  0
   29.3688  -20.6778   -7.2298 C   0  0  0  0  0  0  0  0  0  0  0  0
   30.0120  -20.4117   -6.0199 C   0  0  0  0  0  0  0  0  0  0  0  0
   29.3279  -19.7375   -5.0331 C   0  0  0  0  0  0  0  0  0  0  0  0
   28.0228  -19.3103   -5.1891 C   0  0  0  0  0  0  0  0  0  0  0  0
   27.3990  -19.5816   -6.3920 C   0  0  0  0  0  0  0  0  0  0  0  0
   28.0699  -20.2559   -7.3916 C   0  0  0  0  0  0  0  0  0  0  0  0
   24.8205  -20.8643  -11.0950 C   0  0  0  0  0  0  0  0  0  0  0  0
   23.7512  -20.7673  -10.3942 O   0  0  0  0  0  0  0  0  0  0  0  0
   24.7876  -20.6097  -12.4742 N   0  0  0  0  0  0  0  0  0  0  0  0
   23.5765  -20.1458  -13.0899 C   0  0  0  0  0  0  0  0  0  0  0  0
   22.7766  -21.3420  -13.5006 C   0  0  0  0  0  0  0  0  0  0  0  0
   23.3106  -22.4296  -13.8491 O   0  0  0  0  0  0  0  0  0  0  0  0
   21.3538  -21.3092  -13.5170 N   0  0  0  0  0  0  0  0  0  0  0  0
   20.5625  -22.5058  -13.9252 C   0  0  1  0  0  0  0  0  0  0  0  0
   19.6820  -22.8289  -12.7665 C   0  0  0  0  0  0  0  0  0  0  0  0
   18.3262  -22.2234  -12.8556 C   0  0  0  0  0  0  0  0  0  0  0  0
   17.6881  -21.9062  -11.5775 C   0  0  0  0  0  0  0  0  0  0  0  0
   17.4439  -22.8727  -10.7716 O   0  0  0  0  0  0  0  0  0  0  0  0
   19.8666  -22.3130  -15.1835 C   0  0  0  0  0  0  0  0  0  0  0  0
   19.7172  -21.0862  -15.8360 O   0  0  0  0  0  0  0  0  0  0  0  0
   17.3205  -20.6425  -11.1570 O   0  0  0  0  0  0  0  0  0  0  0  0
   19.3350  -23.3146  -15.7505 O   0  0  0  0  0  0  0  0  0  0  0  0
  2 13  1  0
  2  3  1  0
  2  1  1  6
  4  3  1  0
  4 12  1  0
  5  4  2  0
  6  5  1  0
  6  7  1  0
  7  8  1  0
  7 12  2  0
  8  9  2  0
  9 10  1  0
 11 10  2  0
 12 11  1  0
 13 14  2  0
 15 16  1  0
 15 13  1  0
 17 16  1  0
 18 17  2  0
 19 17  1  0
 20 21  1  1
 20 19  1  0
 21 22  1  0
 23 22  1  0
 23 24  2  0
 25 20  1  0
 26 25  1  0
 27 23  1  0
 28 25  2  0
M  END
$$$$
