WGE.pdb
     RDKit          3D

 28 29  0  0  1  0  0  0  0  0999 V2000
   25.0211  -20.3369   -9.9098 N   0  0  0  0  0  0  0  0  0  0  0  0
   26.4251  -20.4617  -10.2134 C   0  0  1  0  0  0  0  0  0  0  0  0
   27.2268  -21.1916   -9.1911 C   0  0  0  0  0  0  0  0  0  0  0  0
   26.9337  -20.6653   -7.8398 C   0  0  0  0  0  0  0  0  0  0  0  0
   25.7449  -20.3593   -7.2174 C   0  0  0  0  0  0  0  0  0  0  0  0
   26.0279  -19.9024   -5.9787 N   0  0  0  0  0  0  0  0  0  0  0  0
   27.3525  -19.9095   -5.7973 C   0  0  0  0  0  0  0  0  0  0  0  0
   28.1458  -19.5402   -4.7097 C   0  0  0  0  0  0  0  0  0  0  0  0
   29.5141  -19.6584   -4.8094 C   0  0  0  0  0  0  0  0  0  0  0  0
   30.1410  -20.1293   -5.9477 C   0  0  0  0  0  0  0  0  0  0  0  0
   29.3426  -20.4901   -7.0163 C   0  0  0  0  0  0  0  0  0  0  0  0
   27.9698  -20.3784   -6.9332 C   0  0  0  0  0  0  0  0  0  0  0  0
   26.6477  -20.9620  -11.5815 C   0  0  0  0  0  0  0  0  0  0  0  0
   25.8198  -21.8374  -12.0202 O   0  0  0  0  0  0  0  0  0  0  0  0
   27.7068  -20.5227  -12.3898 N   0  0  0  0  0  0  0  0  0  0  0  0
   27.4975  -19.4604  -13.3325 C   0  0  0  0  0  0  0  0  0  0  0  0
   26.5956  -19.9692  -14.4129 C   0  0  0  0  0  0  0  0  0  0  0  0
   26.8403  -19.8002  -15.6380 O   0  0  0  0  0  0  0  0  0  0  0  0
   25.4013  -20.6794  -14.1048 N   0  0  0  0  0  0  0  0  0  0  0  0
   24.4411  -21.0694  -15.1774 C   0  0  1  0  0  0  0  0  0  0  0  0
   23.8628  -22.3763  -14.7535 C   0  0  0  0  0  0  0  0  0  0  0  0
   24.4305  -23.5465  -15.4755 C   0  0  0  0  0  0  0  0  0  0  0  0
   25.5453  -24.2222  -14.8106 C   0  0  0  0  0  0  0  0  0  0  0  0
   25.3873  -24.5838  -13.5910 O   0  0  0  0  0  0  0  0  0  0  0  0
   23.4646  -20.0336  -15.4571 C   0  0  0  0  0  0  0  0  0  0  0  0
   23.2385  -19.4646  -16.7134 O   0  0  0  0  0  0  0  0  0  0  0  0
   26.7678  -24.5082  -15.3870 O   0  0  0  0  0  0  0  0  0  0  0  0
   22.7567  -19.5846  -14.5061 O   0  0  0  0  0  0  0  0  0  0  0  0
  2 13  1  0
  2  3  1  0
  2  1  1  1
  4  3  1  0
  4 12  1  0
  5  4  2  0
  6  5  1  0
  6  7  1  0
  7  8  1  0
  7 12  2  0
  8  9  2  0
  9 10  1  0
 11 10  2  0
 12 11  1  0
 13 14  2  0
 15 16  1  0
 15 13  1  0
 17 16  1  0
 18 17  2  0
 19 17  1  0
 20 21  1  1
 20 19  1  0
 21 22  1  0
 23 22  1  0
 23 24  2  0
 25 20  1  0
 26 25  1  0
 27 23  1  0
 28 25  2  0
M  END
$$$$
