WGE.pdb
     RDKit          3D

 28 29  0  0  1  0  0  0  0  0999 V2000
   25.3769  -21.2338  -10.5117 N   0  0  0  0  0  0  0  0  0  0  0  0
   26.5405  -20.3831  -10.4768 C   0  0  1  0  0  0  0  0  0  0  0  0
   27.5332  -20.7191   -9.4174 C   0  0  0  0  0  0  0  0  0  0  0  0
   26.8869  -20.7011   -8.0866 C   0  0  0  0  0  0  0  0  0  0  0  0
   25.5975  -20.9791   -7.6942 C   0  0  0  0  0  0  0  0  0  0  0  0
   25.5215  -20.8056   -6.3572 N   0  0  0  0  0  0  0  0  0  0  0  0
   26.7169  -20.4283   -5.8923 C   0  0  0  0  0  0  0  0  0  0  0  0
   27.1625  -20.1271   -4.6042 C   0  0  0  0  0  0  0  0  0  0  0  0
   28.4772  -19.7607   -4.4202 C   0  0  0  0  0  0  0  0  0  0  0  0
   29.3809  -19.6767   -5.4626 C   0  0  0  0  0  0  0  0  0  0  0  0
   28.9247  -19.9772   -6.7320 C   0  0  0  0  0  0  0  0  0  0  0  0
   27.6107  -20.3465   -6.9342 C   0  0  0  0  0  0  0  0  0  0  0  0
   27.1517  -20.2354  -11.8096 C   0  0  0  0  0  0  0  0  0  0  0  0
   27.6029  -21.3012  -12.3615 O   0  0  0  0  0  0  0  0  0  0  0  0
   27.2518  -19.0010  -12.4686 N   0  0  0  0  0  0  0  0  0  0  0  0
   27.9786  -18.9029  -13.7027 C   0  0  0  0  0  0  0  0  0  0  0  0
   27.1332  -19.4924  -14.7877 C   0  0  0  0  0  0  0  0  0  0  0  0
   27.6226  -20.1217  -15.7643 O   0  0  0  0  0  0  0  0  0  0  0  0
   25.7153  -19.3700  -14.7683 N   0  0  0  0  0  0  0  0  0  0  0  0
   24.8445  -20.4348  -15.3451 C   0  0  1  0  0  0  0  0  0  0  0  0
   25.2640  -21.7061  -14.6895 C   0  0  0  0  0  0  0  0  0  0  0  0
   24.4190  -22.8756  -15.0516 C   0  0  0  0  0  0  0  0  0  0  0  0
   24.6644  -24.0972  -14.2844 C   0  0  0  0  0  0  0  0  0  0  0  0
   25.4041  -25.0006  -14.8135 O   0  0  0  0  0  0  0  0  0  0  0  0
   23.4319  -20.1262  -15.2273 C   0  0  0  0  0  0  0  0  0  0  0  0
   22.8335  -19.5258  -14.1162 O   0  0  0  0  0  0  0  0  0  0  0  0
   24.1636  -24.3673  -13.0255 O   0  0  0  0  0  0  0  0  0  0  0  0
   22.6569  -20.4229  -16.1857 O   0  0  0  0  0  0  0  0  0  0  0  0
  2 13  1  0
  2  3  1  0
  2  1  1  6
  4  3  1  0
  4 12  1  0
  5  4  2  0
  6  5  1  0
  6  7  1  0
  7  8  1  0
  7 12  2  0
  8  9  2  0
  9 10  1  0
 11 10  2  0
 12 11  1  0
 13 14  2  0
 15 16  1  0
 15 13  1  0
 17 16  1  0
 18 17  2  0
 19 17  1  0
 20 21  1  1
 20 19  1  0
 21 22  1  0
 23 22  1  0
 23 24  2  0
 25 20  1  0
 26 25  1  0
 27 23  1  0
 28 25  2  0
M  END
$$$$
