WGE.pdb
     RDKit          3D

 28 29  0  0  1  0  0  0  0  0999 V2000
   24.8076  -20.9172   -8.7993 N   0  0  0  0  0  0  0  0  0  0  0  0
   26.1328  -20.6362   -9.2932 C   0  0  1  0  0  0  0  0  0  0  0  0
   27.2371  -21.2951   -8.5402 C   0  0  0  0  0  0  0  0  0  0  0  0
   27.0667  -21.0767   -7.0868 C   0  0  0  0  0  0  0  0  0  0  0  0
   26.1132  -21.5258   -6.2019 C   0  0  0  0  0  0  0  0  0  0  0  0
   26.4109  -21.0313   -4.9811 N   0  0  0  0  0  0  0  0  0  0  0  0
   27.5181  -20.2865   -5.0644 C   0  0  0  0  0  0  0  0  0  0  0  0
   28.2313  -19.5673   -4.1039 C   0  0  0  0  0  0  0  0  0  0  0  0
   29.3611  -18.8791   -4.4865 C   0  0  0  0  0  0  0  0  0  0  0  0
   29.8226  -18.8687   -5.7892 C   0  0  0  0  0  0  0  0  0  0  0  0
   29.1056  -19.5846   -6.7289 C   0  0  0  0  0  0  0  0  0  0  0  0
   27.9716  -20.2801   -6.3627 C   0  0  0  0  0  0  0  0  0  0  0  0
   26.2297  -20.8404  -10.7494 C   0  0  0  0  0  0  0  0  0  0  0  0
   27.3288  -20.4931  -11.3113 O   0  0  0  0  0  0  0  0  0  0  0  0
   25.1864  -21.3849  -11.5129 N   0  0  0  0  0  0  0  0  0  0  0  0
   25.1103  -21.1146  -12.9208 C   0  0  0  0  0  0  0  0  0  0  0  0
   23.7939  -20.4589  -13.1974 C   0  0  0  0  0  0  0  0  0  0  0  0
   22.9343  -20.2545  -12.2981 O   0  0  0  0  0  0  0  0  0  0  0  0
   23.4442  -20.0276  -14.5079 N   0  0  0  0  0  0  0  0  0  0  0  0
   22.1064  -19.4310  -14.7888 C   0  0  1  0  0  0  0  0  0  0  0  0
   22.2334  -18.7431  -16.1052 C   0  0  0  0  0  0  0  0  0  0  0  0
   20.9990  -18.0315  -16.5323 C   0  0  0  0  0  0  0  0  0  0  0  0
   21.0586  -17.3912  -17.8467 C   0  0  0  0  0  0  0  0  0  0  0  0
   20.3037  -17.8523  -18.7745 O   0  0  0  0  0  0  0  0  0  0  0  0
   21.0331  -20.4040  -14.7115 C   0  0  0  0  0  0  0  0  0  0  0  0
   19.7371  -20.1326  -14.2642 O   0  0  0  0  0  0  0  0  0  0  0  0
   21.8660  -16.3211  -18.1811 O   0  0  0  0  0  0  0  0  0  0  0  0
   21.2637  -21.6011  -15.0594 O   0  0  0  0  0  0  0  0  0  0  0  0
  2 13  1  0
  2  3  1  0
  2  1  1  1
  4  3  1  0
  4 12  1  0
  5  4  2  0
  6  5  1  0
  6  7  1  0
  7  8  1  0
  7 12  2  0
  8  9  2  0
  9 10  1  0
 11 10  2  0
 12 11  1  0
 13 14  2  0
 15 16  1  0
 15 13  1  0
 17 16  1  0
 18 17  2  0
 19 17  1  0
 20 21  1  6
 20 19  1  0
 21 22  1  0
 23 22  1  0
 23 24  2  0
 25 20  1  0
 26 25  1  0
 27 23  1  0
 28 25  2  0
M  END
$$$$
