WGE.pdb
     RDKit          3D

 28 29  0  0  1  0  0  0  0  0999 V2000
   16.2181  -18.0634    4.6945 N   0  0  0  0  0  0  0  0  0  0  0  0
   16.6529  -17.0344    5.6061 C   0  0  1  0  0  0  0  0  0  0  0  0
   16.2042  -15.6564    5.2588 C   0  0  0  0  0  0  0  0  0  0  0  0
   17.1715  -15.0204    4.3376 C   0  0  0  0  0  0  0  0  0  0  0  0
   17.5962  -15.3702    3.0761 C   0  0  0  0  0  0  0  0  0  0  0  0
   18.5011  -14.4533    2.6713 N   0  0  0  0  0  0  0  0  0  0  0  0
   18.6622  -13.5377    3.6321 C   0  0  0  0  0  0  0  0  0  0  0  0
   19.4684  -12.4008    3.7096 C   0  0  0  0  0  0  0  0  0  0  0  0
   19.4254  -11.6270    4.8479 C   0  0  0  0  0  0  0  0  0  0  0  0
   18.6138  -11.9295    5.9250 C   0  0  0  0  0  0  0  0  0  0  0  0
   17.8221  -13.0584    5.8339 C   0  0  0  0  0  0  0  0  0  0  0  0
   17.8525  -13.8447    4.7004 C   0  0  0  0  0  0  0  0  0  0  0  0
   16.3755  -17.3916    7.0086 C   0  0  0  0  0  0  0  0  0  0  0  0
   15.4540  -18.2592    7.2142 O   0  0  0  0  0  0  0  0  0  0  0  0
   17.0680  -16.8259    8.0896 N   0  0  0  0  0  0  0  0  0  0  0  0
   16.6755  -17.1361    9.4352 C   0  0  0  0  0  0  0  0  0  0  0  0
   17.7815  -17.9162   10.0735 C   0  0  0  0  0  0  0  0  0  0  0  0
   18.9739  -17.5078   10.0996 O   0  0  0  0  0  0  0  0  0  0  0  0
   17.5367  -19.1747   10.6916 N   0  0  0  0  0  0  0  0  0  0  0  0
   18.4915  -19.7396   11.6885 C   0  0  1  0  0  0  0  0  0  0  0  0
   17.6589  -20.4804   12.6784 C   0  0  0  0  0  0  0  0  0  0  0  0
   17.0059  -19.6050   13.6884 C   0  0  0  0  0  0  0  0  0  0  0  0
   15.5895  -19.3185   13.4585 C   0  0  0  0  0  0  0  0  0  0  0  0
   14.7236  -20.0587   14.0463 O   0  0  0  0  0  0  0  0  0  0  0  0
   19.5452  -20.5230   11.0716 C   0  0  0  0  0  0  0  0  0  0  0  0
   20.7666  -20.8371   11.6738 O   0  0  0  0  0  0  0  0  0  0  0  0
   15.0962  -18.3091   12.6543 O   0  0  0  0  0  0  0  0  0  0  0  0
   19.3760  -20.9592    9.8933 O   0  0  0  0  0  0  0  0  0  0  0  0
  2 13  1  0
  2  3  1  0
  2  1  1  6
  4  3  1  0
  4 12  1  0
  5  4  2  0
  6  5  1  0
  6  7  1  0
  7  8  1  0
  7 12  2  0
  8  9  2  0
  9 10  1  0
 11 10  2  0
 12 11  1  0
 13 14  2  0
 15 16  1  0
 15 13  1  0
 17 16  1  0
 18 17  2  0
 19 17  1  0
 20 21  1  1
 20 19  1  0
 21 22  1  0
 23 22  1  0
 23 24  2  0
 25 20  1  0
 26 25  1  0
 27 23  1  0
 28 25  2  0
M  END
$$$$
