WGE.pdb
     RDKit          3D

 28 29  0  0  1  0  0  0  0  0999 V2000
   24.8581  -20.0397   -9.6073 N   0  0  0  0  0  0  0  0  0  0  0  0
   26.2651  -20.2734   -9.8185 C   0  0  1  0  0  0  0  0  0  0  0  0
   26.8941  -21.2283   -8.8628 C   0  0  0  0  0  0  0  0  0  0  0  0
   26.6780  -20.7757   -7.4709 C   0  0  0  0  0  0  0  0  0  0  0  0
   25.5270  -20.5914   -6.7393 C   0  0  0  0  0  0  0  0  0  0  0  0
   25.8789  -20.1562   -5.5104 N   0  0  0  0  0  0  0  0  0  0  0  0
   27.2106  -20.0596   -5.4407 C   0  0  0  0  0  0  0  0  0  0  0  0
   28.0630  -19.6640   -4.4085 C   0  0  0  0  0  0  0  0  0  0  0  0
   29.4226  -19.6646   -4.6270 C   0  0  0  0  0  0  0  0  0  0  0  0
   29.9841  -20.0417   -5.8323 C   0  0  0  0  0  0  0  0  0  0  0  0
   29.1275  -20.4300   -6.8448 C   0  0  0  0  0  0  0  0  0  0  0  0
   27.7626  -20.4357   -6.6428 C   0  0  0  0  0  0  0  0  0  0  0  0
   26.5626  -20.5912  -11.2264 C   0  0  0  0  0  0  0  0  0  0  0  0
   25.5665  -20.8925  -11.9754 O   0  0  0  0  0  0  0  0  0  0  0  0
   27.8633  -20.5754  -11.7519 N   0  0  0  0  0  0  0  0  0  0  0  0
   28.0892  -20.1233  -13.0956 C   0  0  0  0  0  0  0  0  0  0  0  0
   27.2811  -20.9824  -14.0167 C   0  0  0  0  0  0  0  0  0  0  0  0
   27.7825  -21.9361  -14.6711 O   0  0  0  0  0  0  0  0  0  0  0  0
   25.8871  -20.7612  -14.2002 N   0  0  0  0  0  0  0  0  0  0  0  0
   25.0853  -21.6279  -15.1116 C   0  0  1  0  0  0  0  0  0  0  0  0
   23.8557  -21.9931  -14.3522 C   0  0  0  0  0  0  0  0  0  0  0  0
   22.8857  -20.8748  -14.2064 C   0  0  0  0  0  0  0  0  0  0  0  0
   21.7849  -21.1079  -13.2710 C   0  0  0  0  0  0  0  0  0  0  0  0
   21.2696  -22.2810  -13.2297 O   0  0  0  0  0  0  0  0  0  0  0  0
   24.8431  -21.0094  -16.4014 C   0  0  0  0  0  0  0  0  0  0  0  0
   25.0331  -19.6548  -16.6880 O   0  0  0  0  0  0  0  0  0  0  0  0
   21.2445  -20.1649  -12.4181 O   0  0  0  0  0  0  0  0  0  0  0  0
   24.4159  -21.7267  -17.3554 O   0  0  0  0  0  0  0  0  0  0  0  0
  2 13  1  0
  2  3  1  0
  2  1  1  6
  4  3  1  0
  4 12  1  0
  5  4  2  0
  6  5  1  0
  6  7  1  0
  7  8  1  0
  7 12  2  0
  8  9  2  0
  9 10  1  0
 11 10  2  0
 12 11  1  0
 13 14  2  0
 15 16  1  0
 15 13  1  0
 17 16  1  0
 18 17  2  0
 19 17  1  0
 20 21  1  1
 20 19  1  0
 21 22  1  0
 23 22  1  0
 23 24  2  0
 25 20  1  0
 26 25  1  0
 27 23  1  0
 28 25  2  0
M  END
$$$$
