WGE.pdb
     RDKit          3D

 28 29  0  0  1  0  0  0  0  0999 V2000
   24.8260  -19.6876  -11.5841 N   0  0  0  0  0  0  0  0  0  0  0  0
   25.8653  -20.6372  -11.8956 C   0  0  1  0  0  0  0  0  0  0  0  0
   26.1613  -21.6216  -10.8167 C   0  0  0  0  0  0  0  0  0  0  0  0
   26.3241  -20.9266   -9.5207 C   0  0  0  0  0  0  0  0  0  0  0  0
   25.4171  -20.2842   -8.7092 C   0  0  0  0  0  0  0  0  0  0  0  0
   26.0823  -19.8083   -7.6347 N   0  0  0  0  0  0  0  0  0  0  0  0
   27.3763  -20.1278   -7.7395 C   0  0  0  0  0  0  0  0  0  0  0  0
   28.4683  -19.8756   -6.9073 C   0  0  0  0  0  0  0  0  0  0  0  0
   29.7118  -20.3370   -7.2777 C   0  0  0  0  0  0  0  0  0  0  0  0
   29.9277  -21.0430   -8.4461 C   0  0  0  0  0  0  0  0  0  0  0  0
   28.8372  -21.2842   -9.2600 C   0  0  0  0  0  0  0  0  0  0  0  0
   27.5842  -20.8294   -8.9038 C   0  0  0  0  0  0  0  0  0  0  0  0
   25.6525  -21.2718  -13.2085 C   0  0  0  0  0  0  0  0  0  0  0  0
   24.6494  -20.8623  -13.8943 O   0  0  0  0  0  0  0  0  0  0  0  0
   26.4887  -22.2798  -13.7114 N   0  0  0  0  0  0  0  0  0  0  0  0
   26.5712  -22.5043  -15.1269 C   0  0  0  0  0  0  0  0  0  0  0  0
   25.2547  -23.0458  -15.5887 C   0  0  0  0  0  0  0  0  0  0  0  0
   25.0715  -23.4819  -16.7573 O   0  0  0  0  0  0  0  0  0  0  0  0
   24.1301  -23.0960  -14.7178 N   0  0  0  0  0  0  0  0  0  0  0  0
   22.7906  -23.5219  -15.2168 C   0  0  1  0  0  0  0  0  0  0  0  0
   21.8509  -23.3382  -14.0743 C   0  0  0  0  0  0  0  0  0  0  0  0
   20.4465  -23.7174  -14.3850 C   0  0  0  0  0  0  0  0  0  0  0  0
   19.4683  -23.4459  -13.3312 C   0  0  0  0  0  0  0  0  0  0  0  0
   19.8670  -22.8142  -12.2895 O   0  0  0  0  0  0  0  0  0  0  0  0
   22.4058  -22.8389  -16.4375 C   0  0  0  0  0  0  0  0  0  0  0  0
   22.5020  -21.4607  -16.6481 O   0  0  0  0  0  0  0  0  0  0  0  0
   18.1370  -23.8143  -13.3591 O   0  0  0  0  0  0  0  0  0  0  0  0
   21.9333  -23.5182  -17.3980 O   0  0  0  0  0  0  0  0  0  0  0  0
  2 13  1  0
  2  3  1  0
  2  1  1  1
  4  3  1  0
  4 12  1  0
  5  4  2  0
  6  5  1  0
  6  7  1  0
  7  8  1  0
  7 12  2  0
  8  9  2  0
  9 10  1  0
 11 10  2  0
 12 11  1  0
 13 14  2  0
 15 16  1  0
 15 13  1  0
 17 16  1  0
 18 17  2  0
 19 17  1  0
 20 21  1  1
 20 19  1  0
 21 22  1  0
 23 22  1  0
 23 24  2  0
 25 20  1  0
 26 25  1  0
 27 23  1  0
 28 25  2  0
M  END
$$$$
