WGE.pdb
     RDKit          3D

 28 29  0  0  1  0  0  0  0  0999 V2000
   27.6300  -21.1382  -10.7176 N   0  0  0  0  0  0  0  0  0  0  0  0
   26.6436  -20.6978   -9.7626 C   0  0  1  0  0  0  0  0  0  0  0  0
   27.1202  -19.6687   -8.7959 C   0  0  0  0  0  0  0  0  0  0  0  0
   28.3350  -20.1454   -8.0987 C   0  0  0  0  0  0  0  0  0  0  0  0
   29.4429  -20.8225   -8.5549 C   0  0  0  0  0  0  0  0  0  0  0  0
   30.2682  -21.0272   -7.5060 N   0  0  0  0  0  0  0  0  0  0  0  0
   29.7206  -20.5033   -6.4045 C   0  0  0  0  0  0  0  0  0  0  0  0
   30.1615  -20.4474   -5.0813 C   0  0  0  0  0  0  0  0  0  0  0  0
   29.3706  -19.8293   -4.1385 C   0  0  0  0  0  0  0  0  0  0  0  0
   28.1502  -19.2585   -4.4472 C   0  0  0  0  0  0  0  0  0  0  0  0
   27.7268  -19.3225   -5.7611 C   0  0  0  0  0  0  0  0  0  0  0  0
   28.5070  -19.9377   -6.7185 C   0  0  0  0  0  0  0  0  0  0  0  0
   25.3753  -20.3279  -10.4155 C   0  0  0  0  0  0  0  0  0  0  0  0
   25.3683  -19.2392  -11.0928 O   0  0  0  0  0  0  0  0  0  0  0  0
   24.2132  -21.1076  -10.3180 N   0  0  0  0  0  0  0  0  0  0  0  0
   22.9299  -20.5191  -10.5782 C   0  0  0  0  0  0  0  0  0  0  0  0
   22.3046  -21.2550  -11.7214 C   0  0  0  0  0  0  0  0  0  0  0  0
   22.9406  -22.0870  -12.4231 O   0  0  0  0  0  0  0  0  0  0  0  0
   20.9417  -21.0484  -12.0759 N   0  0  0  0  0  0  0  0  0  0  0  0
   20.2858  -21.8825  -13.1242 C   0  0  1  0  0  0  0  0  0  0  0  0
   18.8353  -21.9046  -12.7812 C   0  0  0  0  0  0  0  0  0  0  0  0
   18.0295  -22.8147  -13.6385 C   0  0  0  0  0  0  0  0  0  0  0  0
   16.6723  -22.3613  -13.9446 C   0  0  0  0  0  0  0  0  0  0  0  0
   16.4508  -21.0989  -13.9651 O   0  0  0  0  0  0  0  0  0  0  0  0
   20.5866  -21.4285  -14.4688 C   0  0  0  0  0  0  0  0  0  0  0  0
   20.7926  -22.2653  -15.5690 O   0  0  0  0  0  0  0  0  0  0  0  0
   15.5951  -23.1826  -14.2166 O   0  0  0  0  0  0  0  0  0  0  0  0
   20.6868  -20.1839  -14.6883 O   0  0  0  0  0  0  0  0  0  0  0  0
  2 13  1  0
  2  3  1  0
  2  1  1  6
  4  3  1  0
  4 12  1  0
  5  4  2  0
  6  5  1  0
  6  7  1  0
  7  8  1  0
  7 12  2  0
  8  9  2  0
  9 10  1  0
 11 10  2  0
 12 11  1  0
 13 14  2  0
 15 16  1  0
 15 13  1  0
 17 16  1  0
 18 17  2  0
 19 17  1  0
 20 21  1  1
 20 19  1  0
 21 22  1  0
 23 22  1  0
 23 24  2  0
 25 20  1  0
 26 25  1  0
 27 23  1  0
 28 25  2  0
M  END
$$$$
