NRR.pdb
     RDKit          3D

 31 30  0  0  1  0  0  0  0  0999 V2000
    7.3986  -18.3776   16.3984 N   0  0  0  0  0  0  0  0  0  0  0  0
    8.7067  -18.9124   16.6100 C   0  0  0  0  0  0  0  0  0  0  0  0
    8.9744  -20.0959   16.3519 O   0  0  0  0  0  0  0  0  0  0  0  0
    9.7172  -17.9903   17.1479 C   0  0  0  0  0  0  0  0  0  0  0  0
   10.3512  -18.5423   18.3764 C   0  0  2  0  0  0  0  0  0  0  0  0
    9.4633  -19.0832   19.3539 N   0  0  0  0  0  0  0  0  0  0  0  0
   11.2184  -17.5036   19.0185 C   0  0  0  0  0  0  0  0  0  0  0  0
   12.3214  -17.2168   18.4375 O   0  0  0  0  0  0  0  0  0  0  0  0
    8.5243  -13.5933   17.0802 N   0  0  0  0  0  0  0  0  0  0  0  0
    7.7048  -12.9819   18.0662 C   0  0  0  0  0  0  0  0  0  0  0  0
    6.5455  -12.5166   17.7505 N   0  0  0  0  0  0  0  0  0  0  0  0
    8.1952  -12.9000   19.3950 N   0  0  0  0  0  0  0  0  0  0  0  0
    9.6171  -12.9554   19.6453 C   0  0  0  0  0  0  0  0  0  0  0  0
    9.9344  -14.3711   20.1454 C   0  0  0  0  0  0  0  0  0  0  0  0
   11.3997  -14.5149   20.4275 C   0  0  0  0  0  0  0  0  0  0  0  0
   11.7078  -15.9102   20.8951 C   0  0  2  0  0  0  0  0  0  0  0  0
   10.8321  -16.8698   20.2146 N   0  0  0  0  0  0  0  0  0  0  0  0
   11.4419  -16.0345   22.3347 C   0  0  0  0  0  0  0  0  0  0  0  0
   10.9198  -15.1190   23.0368 O   0  0  0  0  0  0  0  0  0  0  0  0
    5.9360  -12.0276   18.4377 N   0  0  0  0  0  0  0  0  0  0  0  0
   14.5939  -21.8264   23.2595 C   0  0  0  0  0  0  0  0  0  0  0  0
   15.9596  -21.5962   22.9426 N   0  0  0  0  0  0  0  0  0  0  0  0
   16.8437  -22.3569   23.4667 N   0  0  0  0  0  0  0  0  0  0  0  0
   16.3494  -20.5439   22.0630 C   0  0  0  0  0  0  0  0  0  0  0  0
   16.1937  -19.1883   22.5241 C   0  0  0  0  0  0  0  0  0  0  0  0
   14.8407  -18.9992   23.2216 C   0  0  0  0  0  0  0  0  0  0  0  0
   14.1228  -17.8110   22.6722 C   0  0  2  0  0  0  0  0  0  0  0  0
   13.0974  -17.3055   23.6549 N   0  0  0  0  0  0  0  0  0  0  0  0
   11.7816  -17.2510   23.0173 C   0  0  0  0  0  0  0  0  0  0  0  0
   13.4791  -15.9293   24.0665 O   0  0  0  0  0  0  0  0  0  0  0  0
   14.2432  -15.6204   24.9878 O   0  0  0  0  0  0  0  0  0  0  0  0
  2  1  1  0
  3  2  2  0
  4  2  1  0
  4  5  1  0
  5  6  1  1
  7  8  2  0
  7  5  1  0
  9 10  1  0
 10 12  1  0
 11 10  2  0
 12 13  1  0
 13 14  1  0
 14 15  1  0
 16 15  1  6
 16 17  1  0
 17  7  1  0
 18 16  1  0
 19 18  2  0
 20 21  1  0
 21 22  2  0
 23 21  1  0
 23 24  1  0
 24 25  1  0
 25 26  1  0
 27 26  1  1
 27 28  1  0
 28 18  1  0
 29 27  1  0
 30 29  2  0
 31 29  1  0
M  END
$$$$
