NRR.pdb
     RDKit          3D

 31 30  0  0  1  0  0  0  0  0999 V2000
   10.9846  -19.8375   15.8035 N   0  0  0  0  0  0  0  0  0  0  0  0
   11.9043  -18.7475   15.7136 C   0  0  0  0  0  0  0  0  0  0  0  0
   12.8113  -18.7306   14.8675 O   0  0  0  0  0  0  0  0  0  0  0  0
   11.7210  -17.6492   16.6732 C   0  0  0  0  0  0  0  0  0  0  0  0
   11.1241  -18.1391   17.9459 C   0  0  2  0  0  0  0  0  0  0  0  0
    9.7491  -18.5167   17.8915 N   0  0  0  0  0  0  0  0  0  0  0  0
   11.3138  -17.1212   19.0280 C   0  0  0  0  0  0  0  0  0  0  0  0
   12.4927  -16.6538   19.1962 O   0  0  0  0  0  0  0  0  0  0  0  0
    7.2215  -14.7336   23.1428 N   0  0  0  0  0  0  0  0  0  0  0  0
    7.2909  -13.3180   23.0470 C   0  0  0  0  0  0  0  0  0  0  0  0
    7.1315  -12.5870   24.0960 N   0  0  0  0  0  0  0  0  0  0  0  0
    7.5388  -12.7391   21.7756 N   0  0  0  0  0  0  0  0  0  0  0  0
    7.3370  -13.5176   20.5753 C   0  0  0  0  0  0  0  0  0  0  0  0
    8.6838  -14.1627   20.2217 C   0  0  0  0  0  0  0  0  0  0  0  0
    9.1081  -15.1198   21.2946 C   0  0  0  0  0  0  0  0  0  0  0  0
   10.4219  -15.7573   20.9371 C   0  0  2  0  0  0  0  0  0  0  0  0
   10.2352  -16.6975   19.8272 N   0  0  0  0  0  0  0  0  0  0  0  0
   10.9365  -16.5337   22.0734 C   0  0  0  0  0  0  0  0  0  0  0  0
   10.4584  -17.6473   22.4405 O   0  0  0  0  0  0  0  0  0  0  0  0
    7.0991  -11.5479   24.0506 N   0  0  0  0  0  0  0  0  0  0  0  0
    9.3298  -14.1230   28.0883 C   0  0  0  0  0  0  0  0  0  0  0  0
   10.3453  -14.8765   28.7360 N   0  0  0  0  0  0  0  0  0  0  0  0
   10.0214  -15.6007   29.7388 N   0  0  0  0  0  0  0  0  0  0  0  0
   11.6986  -14.8344   28.2893 C   0  0  0  0  0  0  0  0  0  0  0  0
   12.0075  -15.4377   27.0184 C   0  0  0  0  0  0  0  0  0  0  0  0
   10.7423  -15.9984   26.3567 C   0  0  0  0  0  0  0  0  0  0  0  0
   10.7637  -15.7577   24.8834 C   0  0  2  0  0  0  0  0  0  0  0  0
   12.0333  -16.2947   24.2732 N   0  0  0  0  0  0  0  0  0  0  0  0
   12.0447  -16.0297   22.8343 C   0  0  0  0  0  0  0  0  0  0  0  0
   12.0695  -17.7658   24.4818 O   0  0  0  0  0  0  0  0  0  0  0  0
   11.3625  -18.6084   23.9176 O   0  0  0  0  0  0  0  0  0  0  0  0
  2  1  1  0
  3  2  2  0
  4  2  1  0
  4  5  1  0
  5  6  1  6
  7  8  2  0
  7  5  1  0
  9 10  1  0
 10 12  1  0
 11 10  2  0
 12 13  1  0
 13 14  1  0
 14 15  1  0
 16 15  1  1
 16 17  1  0
 17  7  1  0
 18 16  1  0
 19 18  2  0
 20 21  1  0
 21 22  2  0
 23 21  1  0
 23 24  1  0
 24 25  1  0
 25 26  1  0
 27 26  1  1
 27 28  1  0
 28 18  1  0
 29 27  1  0
 30 29  2  0
 31 29  1  0
M  END
$$$$
