NRR.pdb
     RDKit          3D

 31 30  0  0  1  0  0  0  0  0999 V2000
   12.6023  -18.8216   13.1259 N   0  0  0  0  0  0  0  0  0  0  0  0
   11.5544  -18.9535   14.0883 C   0  0  0  0  0  0  0  0  0  0  0  0
   10.6387  -19.7777   13.9433 O   0  0  0  0  0  0  0  0  0  0  0  0
   11.6166  -18.0641   15.2571 C   0  0  0  0  0  0  0  0  0  0  0  0
   11.2904  -18.7977   16.5107 C   0  0  2  0  0  0  0  0  0  0  0  0
   10.1155  -19.6069   16.4785 N   0  0  0  0  0  0  0  0  0  0  0  0
   11.1981  -17.8393   17.6579 C   0  0  0  0  0  0  0  0  0  0  0  0
   12.2451  -17.1628   17.9453 O   0  0  0  0  0  0  0  0  0  0  0  0
    7.2258  -11.7920   22.8907 N   0  0  0  0  0  0  0  0  0  0  0  0
    7.2445  -12.7647   21.8557 C   0  0  0  0  0  0  0  0  0  0  0  0
    7.6516  -12.4493   20.6747 N   0  0  0  0  0  0  0  0  0  0  0  0
    6.8070  -14.0800   22.1580 N   0  0  0  0  0  0  0  0  0  0  0  0
    6.8415  -15.1049   21.1402 C   0  0  0  0  0  0  0  0  0  0  0  0
    8.3181  -15.4002   20.8443 C   0  0  0  0  0  0  0  0  0  0  0  0
    8.4435  -16.4367   19.7687 C   0  0  0  0  0  0  0  0  0  0  0  0
    9.8917  -16.7314   19.4926 C   0  0  2  0  0  0  0  0  0  0  0  0
   10.0047  -17.6912   18.3895 N   0  0  0  0  0  0  0  0  0  0  0  0
   10.5170  -17.3543   20.6673 C   0  0  0  0  0  0  0  0  0  0  0  0
   10.3274  -18.5580   21.0116 O   0  0  0  0  0  0  0  0  0  0  0  0
    7.6605  -13.1310   19.8885 N   0  0  0  0  0  0  0  0  0  0  0  0
   18.5632  -16.6002   24.2278 C   0  0  0  0  0  0  0  0  0  0  0  0
   18.0386  -17.9165   24.3309 N   0  0  0  0  0  0  0  0  0  0  0  0
   18.8560  -18.8890   24.4754 N   0  0  0  0  0  0  0  0  0  0  0  0
   16.6352  -18.1617   24.2749 C   0  0  0  0  0  0  0  0  0  0  0  0
   15.8097  -17.1981   23.5933 C   0  0  0  0  0  0  0  0  0  0  0  0
   14.3462  -17.6562   23.5612 C   0  0  0  0  0  0  0  0  0  0  0  0
   13.5839  -16.9216   22.5084 C   0  0  2  0  0  0  0  0  0  0  0  0
   12.1261  -17.3041   22.5400 N   0  0  0  0  0  0  0  0  0  0  0  0
   11.3993  -16.5819   21.4956 C   0  0  0  0  0  0  0  0  0  0  0  0
   11.5662  -16.9134   23.8602 O   0  0  0  0  0  0  0  0  0  0  0  0
   10.7401  -16.0194   24.0755 O   0  0  0  0  0  0  0  0  0  0  0  0
  2  1  1  0
  3  2  2  0
  4  2  1  0
  4  5  1  0
  5  6  1  6
  7  8  2  0
  7  5  1  0
  9 10  1  0
 10 12  1  0
 11 10  2  0
 12 13  1  0
 13 14  1  0
 14 15  1  0
 16 15  1  1
 16 17  1  0
 17  7  1  0
 18 16  1  0
 19 18  2  0
 20 21  1  0
 21 22  2  0
 23 21  1  0
 23 24  1  0
 24 25  1  0
 25 26  1  0
 27 26  1  6
 27 28  1  0
 28 18  1  0
 29 27  1  0
 30 29  2  0
 31 29  1  0
M  END
$$$$
