NRR.pdb
     RDKit          3D

 31 30  0  0  1  0  0  0  0  0999 V2000
    8.9818  -17.2546   12.9275 N   0  0  0  0  0  0  0  0  0  0  0  0
    9.2982  -16.1649   13.7960 C   0  0  0  0  0  0  0  0  0  0  0  0
    9.4685  -15.0156   13.3612 O   0  0  0  0  0  0  0  0  0  0  0  0
    9.4115  -16.4747   15.2285 C   0  0  0  0  0  0  0  0  0  0  0  0
    9.0377  -17.8887   15.5056 C   0  0  2  0  0  0  0  0  0  0  0  0
    7.7644  -18.3099   15.0180 N   0  0  0  0  0  0  0  0  0  0  0  0
    9.1185  -18.1632   16.9757 C   0  0  0  0  0  0  0  0  0  0  0  0
    8.2809  -17.5626   17.7334 O   0  0  0  0  0  0  0  0  0  0  0  0
   12.9128  -23.7578   20.1487 N   0  0  0  0  0  0  0  0  0  0  0  0
   11.6154  -24.3000   20.3501 C   0  0  0  0  0  0  0  0  0  0  0  0
   11.4747  -25.5050   20.7840 N   0  0  0  0  0  0  0  0  0  0  0  0
   10.4910  -23.4837   20.0631 N   0  0  0  0  0  0  0  0  0  0  0  0
   10.1091  -23.2358   18.6919 C   0  0  0  0  0  0  0  0  0  0  0  0
    9.5630  -21.8031   18.6256 C   0  0  0  0  0  0  0  0  0  0  0  0
   10.6008  -20.8214   19.0800 C   0  0  0  0  0  0  0  0  0  0  0  0
   10.0954  -19.4145   18.9199 C   0  0  2  0  0  0  0  0  0  0  0  0
   10.0797  -19.0479   17.5000 N   0  0  0  0  0  0  0  0  0  0  0  0
   10.9962  -18.4706   19.5955 C   0  0  0  0  0  0  0  0  0  0  0  0
   11.8480  -17.7541   18.9917 O   0  0  0  0  0  0  0  0  0  0  0  0
   10.5400  -25.9329   20.9454 N   0  0  0  0  0  0  0  0  0  0  0  0
    7.7979  -12.5978   18.2907 C   0  0  0  0  0  0  0  0  0  0  0  0
    7.8881  -12.4494   19.7009 N   0  0  0  0  0  0  0  0  0  0  0  0
    7.4440  -11.3736   20.2304 N   0  0  0  0  0  0  0  0  0  0  0  0
    8.4594  -13.4682   20.5185 C   0  0  0  0  0  0  0  0  0  0  0  0
    9.8936  -13.6005   20.5260 C   0  0  0  0  0  0  0  0  0  0  0  0
   10.3407  -14.6560   21.5453 C   0  0  0  0  0  0  0  0  0  0  0  0
   10.1277  -16.0333   21.0099 C   0  0  2  0  0  0  0  0  0  0  0  0
   11.1572  -16.9859   21.5624 N   0  0  0  0  0  0  0  0  0  0  0  0
   10.9344  -18.3274   21.0227 C   0  0  0  0  0  0  0  0  0  0  0  0
   11.0024  -17.0404   23.0396 O   0  0  0  0  0  0  0  0  0  0  0  0
   10.4288  -17.9220   23.6890 O   0  0  0  0  0  0  0  0  0  0  0  0
  2  1  1  0
  3  2  2  0
  4  2  1  0
  4  5  1  0
  5  6  1  1
  7  8  2  0
  7  5  1  0
  9 10  1  0
 10 12  1  0
 11 10  2  0
 12 13  1  0
 13 14  1  0
 14 15  1  0
 16 15  1  6
 16 17  1  0
 17  7  1  0
 18 16  1  0
 19 18  2  0
 20 21  1  0
 21 22  2  0
 23 21  1  0
 23 24  1  0
 24 25  1  0
 25 26  1  0
 27 26  1  6
 27 28  1  0
 28 18  1  0
 29 27  1  0
 30 29  2  0
 31 29  1  0
M  END
$$$$
