NRR.pdb
     RDKit          3D

 31 30  0  0  1  0  0  0  0  0999 V2000
   17.3790  -12.5654   16.6095 N   0  0  0  0  0  0  0  0  0  0  0  0
   17.2859  -13.5724   17.6190 C   0  0  0  0  0  0  0  0  0  0  0  0
   18.1417  -14.4638   17.7288 O   0  0  0  0  0  0  0  0  0  0  0  0
   16.1262  -13.4984   18.5193 C   0  0  0  0  0  0  0  0  0  0  0  0
   15.2619  -14.7029   18.3854 C   0  0  2  0  0  0  0  0  0  0  0  0
   14.7594  -14.9743   17.0776 N   0  0  0  0  0  0  0  0  0  0  0  0
   14.1167  -14.6235   19.3473 C   0  0  0  0  0  0  0  0  0  0  0  0
   14.3901  -14.6957   20.5950 O   0  0  0  0  0  0  0  0  0  0  0  0
    7.0507  -13.6605   15.7681 N   0  0  0  0  0  0  0  0  0  0  0  0
    7.0559  -13.1754   17.1031 C   0  0  0  0  0  0  0  0  0  0  0  0
    6.1410  -12.3607   17.5022 N   0  0  0  0  0  0  0  0  0  0  0  0
    8.0872  -13.6105   17.9750 N   0  0  0  0  0  0  0  0  0  0  0  0
    8.0426  -13.2635   19.3769 C   0  0  0  0  0  0  0  0  0  0  0  0
    9.2596  -13.9179   20.0445 C   0  0  0  0  0  0  0  0  0  0  0  0
   10.4455  -13.8842   19.1283 C   0  0  0  0  0  0  0  0  0  0  0  0
   11.6595  -14.4349   19.8236 C   0  0  2  0  0  0  0  0  0  0  0  0
   12.7925  -14.4754   18.8933 N   0  0  0  0  0  0  0  0  0  0  0  0
   11.4136  -15.8166   20.2585 C   0  0  0  0  0  0  0  0  0  0  0  0
   11.3001  -16.7961   19.4641 O   0  0  0  0  0  0  0  0  0  0  0  0
    6.1121  -11.9889   18.4737 N   0  0  0  0  0  0  0  0  0  0  0  0
   12.0142  -18.6857   27.6572 C   0  0  0  0  0  0  0  0  0  0  0  0
   11.8786  -20.0365   27.2385 N   0  0  0  0  0  0  0  0  0  0  0  0
   11.6294  -20.9266   28.1220 N   0  0  0  0  0  0  0  0  0  0  0  0
   12.0161  -20.4053   25.8681 C   0  0  0  0  0  0  0  0  0  0  0  0
   12.5627  -19.4302   24.9598 C   0  0  0  0  0  0  0  0  0  0  0  0
   11.4949  -18.9431   23.9721 C   0  0  0  0  0  0  0  0  0  0  0  0
   12.0807  -17.9843   22.9889 C   0  0  1  0  0  0  0  0  0  0  0  0
   11.0293  -17.5022   22.0221 N   0  0  0  0  0  0  0  0  0  0  0  0
   11.2887  -16.1090   21.6586 C   0  0  0  0  0  0  0  0  0  0  0  0
    9.7049  -17.5756   22.6928 O   0  0  0  0  0  0  0  0  0  0  0  0
    9.0480  -16.6259   23.1339 O   0  0  0  0  0  0  0  0  0  0  0  0
  2  1  1  0
  3  2  2  0
  4  2  1  0
  4  5  1  0
  5  6  1  6
  7  8  2  0
  7  5  1  0
  9 10  1  0
 10 12  1  0
 11 10  2  0
 12 13  1  0
 13 14  1  0
 14 15  1  0
 16 15  1  6
 16 17  1  0
 17  7  1  0
 18 16  1  0
 19 18  2  0
 20 21  1  0
 21 22  2  0
 23 21  1  0
 23 24  1  0
 24 25  1  0
 25 26  1  0
 27 26  1  6
 27 28  1  0
 28 18  1  0
 29 27  1  0
 30 29  2  0
 31 29  1  0
M  END
$$$$
