NRR.pdb
     RDKit          3D

 31 30  0  0  1  0  0  0  0  0999 V2000
   12.9823  -15.2143   12.9817 N   0  0  0  0  0  0  0  0  0  0  0  0
   13.0153  -16.2306   13.9856 C   0  0  0  0  0  0  0  0  0  0  0  0
   13.0035  -17.4356   13.6912 O   0  0  0  0  0  0  0  0  0  0  0  0
   13.0638  -15.7762   15.3827 C   0  0  0  0  0  0  0  0  0  0  0  0
   12.3065  -16.6957   16.2754 C   0  0  2  0  0  0  0  0  0  0  0  0
   10.9405  -16.9233   15.9312 N   0  0  0  0  0  0  0  0  0  0  0  0
   12.3851  -16.2171   17.6924 C   0  0  0  0  0  0  0  0  0  0  0  0
   13.5397  -16.1951   18.2429 O   0  0  0  0  0  0  0  0  0  0  0  0
    6.5062  -13.8287   20.0875 N   0  0  0  0  0  0  0  0  0  0  0  0
    6.9506  -13.5922   18.7593 C   0  0  0  0  0  0  0  0  0  0  0  0
    6.3555  -14.1552   17.7648 N   0  0  0  0  0  0  0  0  0  0  0  0
    8.0573  -12.7264   18.5622 N   0  0  0  0  0  0  0  0  0  0  0  0
    8.8543  -12.3040   19.6908 C   0  0  0  0  0  0  0  0  0  0  0  0
   10.1987  -13.0380   19.5962 C   0  0  0  0  0  0  0  0  0  0  0  0
   10.0534  -14.4636   20.0365 C   0  0  0  0  0  0  0  0  0  0  0  0
   11.3088  -15.2344   19.7359 C   0  0  2  0  0  0  0  0  0  0  0  0
   11.2319  -15.8083   18.3885 N   0  0  0  0  0  0  0  0  0  0  0  0
   11.4523  -16.3578   20.6719 C   0  0  0  0  0  0  0  0  0  0  0  0
   10.6501  -17.3359   20.7275 O   0  0  0  0  0  0  0  0  0  0  0  0
    6.6733  -14.0288   16.7820 N   0  0  0  0  0  0  0  0  0  0  0  0
   16.3269  -22.0296   21.7678 C   0  0  0  0  0  0  0  0  0  0  0  0
   15.7392  -22.0998   23.0594 N   0  0  0  0  0  0  0  0  0  0  0  0
   15.1302  -23.1729   23.3947 N   0  0  0  0  0  0  0  0  0  0  0  0
   15.8182  -21.0057   23.9702 C   0  0  0  0  0  0  0  0  0  0  0  0
   15.6992  -19.6738   23.4350 C   0  0  0  0  0  0  0  0  0  0  0  0
   14.2275  -19.3018   23.2147 C   0  0  0  0  0  0  0  0  0  0  0  0
   14.1082  -17.9287   22.6406 C   0  0  2  0  0  0  0  0  0  0  0  0
   12.6603  -17.5460   22.4686 N   0  0  0  0  0  0  0  0  0  0  0  0
   12.5547  -16.3797   21.5915 C   0  0  0  0  0  0  0  0  0  0  0  0
   12.1078  -17.1858   23.8005 O   0  0  0  0  0  0  0  0  0  0  0  0
   11.7993  -16.0537   24.1893 O   0  0  0  0  0  0  0  0  0  0  0  0
  2  1  1  0
  3  2  2  0
  4  2  1  0
  4  5  1  0
  5  6  1  6
  7  8  2  0
  7  5  1  0
  9 10  1  0
 10 12  1  0
 11 10  2  0
 12 13  1  0
 13 14  1  0
 14 15  1  0
 16 15  1  1
 16 17  1  0
 17  7  1  0
 18 16  1  0
 19 18  2  0
 20 21  1  0
 21 22  2  0
 23 21  1  0
 23 24  1  0
 24 25  1  0
 25 26  1  0
 27 26  1  6
 27 28  1  0
 28 18  1  0
 29 27  1  0
 30 29  2  0
 31 29  1  0
M  END
$$$$
