NRR.pdb
     RDKit          3D

 31 30  0  0  1  0  0  0  0  0999 V2000
   17.0239  -12.4941   16.2165 N   0  0  0  0  0  0  0  0  0  0  0  0
   16.7503  -13.5553   17.1336 C   0  0  0  0  0  0  0  0  0  0  0  0
   17.5250  -14.5150   17.2667 O   0  0  0  0  0  0  0  0  0  0  0  0
   15.5064  -13.4518   17.9098 C   0  0  0  0  0  0  0  0  0  0  0  0
   14.9794  -14.7978   18.2657 C   0  0  2  0  0  0  0  0  0  0  0  0
   14.5743  -15.6235   17.1745 N   0  0  0  0  0  0  0  0  0  0  0  0
   13.8435  -14.6660   19.2329 C   0  0  0  0  0  0  0  0  0  0  0  0
   14.0835  -14.0840   20.3466 O   0  0  0  0  0  0  0  0  0  0  0  0
    7.1781  -13.6596   15.8434 N   0  0  0  0  0  0  0  0  0  0  0  0
    7.2202  -13.4255   17.2437 C   0  0  0  0  0  0  0  0  0  0  0  0
    6.5814  -12.4307   17.7559 N   0  0  0  0  0  0  0  0  0  0  0  0
    7.9779  -14.3107   18.0533 N   0  0  0  0  0  0  0  0  0  0  0  0
    8.0069  -14.1331   19.4869 C   0  0  0  0  0  0  0  0  0  0  0  0
    8.9782  -15.1776   20.0533 C   0  0  0  0  0  0  0  0  0  0  0  0
   10.1488  -15.3619   19.1352 C   0  0  0  0  0  0  0  0  0  0  0  0
   11.4237  -14.9674   19.8276 C   0  0  2  0  0  0  0  0  0  0  0  0
   12.5633  -15.1642   18.9257 N   0  0  0  0  0  0  0  0  0  0  0  0
   11.6524  -15.8241   20.9992 C   0  0  0  0  0  0  0  0  0  0  0  0
   12.0925  -17.0094   20.9305 O   0  0  0  0  0  0  0  0  0  0  0  0
    6.6093  -12.2159   18.7738 N   0  0  0  0  0  0  0  0  0  0  0  0
   10.1668  -13.6371   29.2029 C   0  0  0  0  0  0  0  0  0  0  0  0
   10.1820  -15.0572   29.1648 N   0  0  0  0  0  0  0  0  0  0  0  0
   10.1304  -15.6974   30.2705 N   0  0  0  0  0  0  0  0  0  0  0  0
   10.2542  -15.7650   27.9292 C   0  0  0  0  0  0  0  0  0  0  0  0
   11.4921  -15.7132   27.1947 C   0  0  0  0  0  0  0  0  0  0  0  0
   11.3818  -16.4962   25.8802 C   0  0  0  0  0  0  0  0  0  0  0  0
   11.1895  -15.5692   24.7258 C   0  0  1  0  0  0  0  0  0  0  0  0
   11.5733  -16.2411   23.4320 N   0  0  0  0  0  0  0  0  0  0  0  0
   11.3705  -15.3199   22.3136 C   0  0  0  0  0  0  0  0  0  0  0  0
   10.6920  -17.4218   23.2360 O   0  0  0  0  0  0  0  0  0  0  0  0
   10.8854  -18.5655   23.6634 O   0  0  0  0  0  0  0  0  0  0  0  0
  2  1  1  0
  3  2  2  0
  4  2  1  0
  4  5  1  0
  5  6  1  6
  7  8  2  0
  7  5  1  0
  9 10  1  0
 10 12  1  0
 11 10  2  0
 12 13  1  0
 13 14  1  0
 14 15  1  0
 16 15  1  6
 16 17  1  0
 17  7  1  0
 18 16  1  0
 19 18  2  0
 20 21  1  0
 21 22  2  0
 23 21  1  0
 23 24  1  0
 24 25  1  0
 25 26  1  0
 27 26  1  1
 27 28  1  0
 28 18  1  0
 29 27  1  0
 30 29  2  0
 31 29  1  0
M  END
$$$$
