NRR.pdb
     RDKit          3D

 31 30  0  0  1  0  0  0  0  0999 V2000
   16.1540  -15.1464   18.4869 N   0  0  0  0  0  0  0  0  0  0  0  0
   14.9499  -14.7846   17.8080 C   0  0  0  0  0  0  0  0  0  0  0  0
   14.9518  -14.4564   16.6116 O   0  0  0  0  0  0  0  0  0  0  0  0
   13.7108  -14.8209   18.5980 C   0  0  0  0  0  0  0  0  0  0  0  0
   13.6122  -16.0783   19.3887 C   0  0  2  0  0  0  0  0  0  0  0  0
   13.1928  -17.2398   18.6737 N   0  0  0  0  0  0  0  0  0  0  0  0
   12.7133  -15.8741   20.5691 C   0  0  0  0  0  0  0  0  0  0  0  0
   13.2528  -15.4722   21.6572 O   0  0  0  0  0  0  0  0  0  0  0  0
    7.6261  -12.1048   19.6279 N   0  0  0  0  0  0  0  0  0  0  0  0
    7.8810  -12.8075   18.4201 C   0  0  0  0  0  0  0  0  0  0  0  0
    8.5211  -12.2365   17.4586 N   0  0  0  0  0  0  0  0  0  0  0  0
    7.4155  -14.1428   18.3052 N   0  0  0  0  0  0  0  0  0  0  0  0
    7.4459  -15.0201   19.4528 C   0  0  0  0  0  0  0  0  0  0  0  0
    8.8489  -14.9158   20.0658 C   0  0  0  0  0  0  0  0  0  0  0  0
    9.0109  -15.9018   21.1832 C   0  0  0  0  0  0  0  0  0  0  0  0
   10.4433  -15.9463   21.6379 C   0  0  2  0  0  0  0  0  0  0  0  0
   11.3293  -16.1160   20.4816 N   0  0  0  0  0  0  0  0  0  0  0  0
   10.6620  -17.1025   22.5178 C   0  0  0  0  0  0  0  0  0  0  0  0
   10.0568  -18.2078   22.3929 O   0  0  0  0  0  0  0  0  0  0  0  0
    8.8096  -12.7492   16.6003 N   0  0  0  0  0  0  0  0  0  0  0  0
   11.1308  -17.1182   29.4867 C   0  0  0  0  0  0  0  0  0  0  0  0
   10.6400  -15.8274   29.8208 N   0  0  0  0  0  0  0  0  0  0  0  0
   10.8063  -15.4023   31.0152 N   0  0  0  0  0  0  0  0  0  0  0  0
    9.9744  -15.0149   28.8567 C   0  0  0  0  0  0  0  0  0  0  0  0
   10.5232  -14.9622   27.5261 C   0  0  0  0  0  0  0  0  0  0  0  0
    9.6535  -15.7564   26.5433 C   0  0  0  0  0  0  0  0  0  0  0  0
   10.2589  -15.7540   25.1785 C   0  0  1  0  0  0  0  0  0  0  0  0
   11.0687  -17.0051   24.9517 N   0  0  0  0  0  0  0  0  0  0  0  0
   11.6095  -17.0082   23.5922 C   0  0  0  0  0  0  0  0  0  0  0  0
   10.1715  -18.1801   25.1047 O   0  0  0  0  0  0  0  0  0  0  0  0
    9.1901  -18.2664   25.8514 O   0  0  0  0  0  0  0  0  0  0  0  0
  2  1  1  0
  3  2  2  0
  4  2  1  0
  4  5  1  0
  5  6  1  6
  7  8  2  0
  7  5  1  0
  9 10  1  0
 10 12  1  0
 11 10  2  0
 12 13  1  0
 13 14  1  0
 14 15  1  0
 16 15  1  6
 16 17  1  0
 17  7  1  0
 18 16  1  0
 19 18  2  0
 20 21  1  0
 21 22  2  0
 23 21  1  0
 23 24  1  0
 24 25  1  0
 25 26  1  0
 27 26  1  1
 27 28  1  0
 28 18  1  0
 29 27  1  0
 30 29  2  0
 31 29  1  0
M  END
$$$$
