NRR.pdb
     RDKit          3D

 31 30  0  0  1  0  0  0  0  0999 V2000
   10.5395  -21.5763   18.8606 N   0  0  0  0  0  0  0  0  0  0  0  0
   11.0144  -20.2389   18.6946 C   0  0  0  0  0  0  0  0  0  0  0  0
   11.5687  -19.8714   17.6474 O   0  0  0  0  0  0  0  0  0  0  0  0
   10.8130  -19.3223   19.8260 C   0  0  0  0  0  0  0  0  0  0  0  0
   11.1782  -17.9262   19.4605 C   0  0  2  0  0  0  0  0  0  0  0  0
   12.5207  -17.7213   19.0224 N   0  0  0  0  0  0  0  0  0  0  0  0
   10.8854  -17.0025   20.6025 C   0  0  0  0  0  0  0  0  0  0  0  0
   11.8836  -16.5327   21.2502 O   0  0  0  0  0  0  0  0  0  0  0  0
    7.4897  -14.7128   17.7296 N   0  0  0  0  0  0  0  0  0  0  0  0
    7.5876  -13.2961   17.7634 C   0  0  0  0  0  0  0  0  0  0  0  0
    7.9830  -12.6469   16.7232 N   0  0  0  0  0  0  0  0  0  0  0  0
    7.2401  -12.6243   18.9639 N   0  0  0  0  0  0  0  0  0  0  0  0
    6.9588  -13.3827   20.1610 C   0  0  0  0  0  0  0  0  0  0  0  0
    8.2464  -14.1271   20.5390 C   0  0  0  0  0  0  0  0  0  0  0  0
    8.0321  -14.9629   21.7648 C   0  0  0  0  0  0  0  0  0  0  0  0
    9.2632  -15.7705   22.0691 C   0  0  2  0  0  0  0  0  0  0  0  0
    9.5626  -16.6664   20.9472 N   0  0  0  0  0  0  0  0  0  0  0  0
    9.0362  -16.6200   23.2462 C   0  0  0  0  0  0  0  0  0  0  0  0
    8.4763  -17.7548   23.1991 O   0  0  0  0  0  0  0  0  0  0  0  0
    8.2101  -11.6318   16.7536 N   0  0  0  0  0  0  0  0  0  0  0  0
   14.5794  -21.3603   23.1080 C   0  0  0  0  0  0  0  0  0  0  0  0
   13.3520  -21.9952   23.4377 N   0  0  0  0  0  0  0  0  0  0  0  0
   13.1843  -23.2148   23.0921 N   0  0  0  0  0  0  0  0  0  0  0  0
   12.3219  -21.2999   24.1365 C   0  0  0  0  0  0  0  0  0  0  0  0
   12.5108  -19.8949   24.3911 C   0  0  0  0  0  0  0  0  0  0  0  0
   11.2444  -19.2725   24.9927 C   0  0  0  0  0  0  0  0  0  0  0  0
   11.2513  -17.7891   24.8236 C   0  0  2  0  0  0  0  0  0  0  0  0
   10.0208  -17.1756   25.4418 N   0  0  0  0  0  0  0  0  0  0  0  0
    9.4609  -16.1679   24.5410 C   0  0  0  0  0  0  0  0  0  0  0  0
   10.4149  -16.5076   26.7097 O   0  0  0  0  0  0  0  0  0  0  0  0
   10.8707  -15.3649   26.8305 O   0  0  0  0  0  0  0  0  0  0  0  0
  2  1  1  0
  3  2  2  0
  4  2  1  0
  4  5  1  0
  5  6  1  1
  7  8  2  0
  7  5  1  0
  9 10  1  0
 10 12  1  0
 11 10  2  0
 12 13  1  0
 13 14  1  0
 14 15  1  0
 16 15  1  6
 16 17  1  0
 17  7  1  0
 18 16  1  0
 19 18  2  0
 20 21  1  0
 21 22  2  0
 23 21  1  0
 23 24  1  0
 24 25  1  0
 25 26  1  0
 27 26  1  6
 27 28  1  0
 28 18  1  0
 29 27  1  0
 30 29  2  0
 31 29  1  0
M  END
$$$$
