FKG.pdb
     RDKit          3D

 25 25  0  0  1  0  0  0  0  0999 V2000
   28.1936  -20.5518   -9.1987 N   0  0  0  0  0  0  0  0  0  0  0  0
   26.7883  -20.4133   -8.8503 C   0  0  1  0  0  0  0  0  0  0  0  0
   26.6878  -19.2600   -7.8753 C   0  0  0  0  0  0  0  0  0  0  0  0
   27.4801  -19.5553   -6.6533 C   0  0  0  0  0  0  0  0  0  0  0  0
   27.1386  -20.5872   -5.7849 C   0  0  0  0  0  0  0  0  0  0  0  0
   27.8938  -20.8464   -4.6471 C   0  0  0  0  0  0  0  0  0  0  0  0
   29.0034  -20.0682   -4.3701 C   0  0  0  0  0  0  0  0  0  0  0  0
   29.3605  -19.0485   -5.2069 C   0  0  0  0  0  0  0  0  0  0  0  0
   28.5898  -18.8018   -6.3466 C   0  0  0  0  0  0  0  0  0  0  0  0
   25.9684  -20.2032  -10.0558 C   0  0  0  0  0  0  0  0  0  0  0  0
   26.1940  -19.2299  -10.8053 O   0  0  0  0  0  0  0  0  0  0  0  0
   24.9201  -21.0891  -10.3863 N   0  0  0  0  0  0  0  0  0  0  0  0
   24.1696  -21.0303  -11.6374 C   0  0  1  0  0  0  0  0  0  0  0  0
   24.5337  -22.1242  -12.5630 C   0  0  0  0  0  0  0  0  0  0  0  0
   24.3744  -21.7505  -14.0097 C   0  0  0  0  0  0  0  0  0  0  0  0
   25.6955  -21.8033  -14.7600 C   0  0  0  0  0  0  0  0  0  0  0  0
   26.1957  -23.2279  -14.8741 C   0  0  0  0  0  0  0  0  0  0  0  0
   27.4228  -23.2054  -15.6250 N   0  0  0  0  0  0  0  0  0  0  0  0
   22.7596  -20.9119  -11.2655 C   0  0  0  0  0  0  0  0  0  0  0  0
   22.2345  -21.7435  -10.4886 O   0  0  0  0  0  0  0  0  0  0  0  0
   21.9002  -19.8783  -11.7400 N   0  0  0  0  0  0  0  0  0  0  0  0
   21.1337  -19.9647  -12.9409 C   0  0  0  0  0  0  0  0  0  0  0  0
   19.8121  -20.5635  -12.6230 C   0  0  0  0  0  0  0  0  0  0  0  0
   19.6069  -21.8153  -12.7672 O   0  0  0  0  0  0  0  0  0  0  0  0
   18.7319  -19.8296  -12.1587 O   0  0  0  0  0  0  0  0  0  0  0  0
  2  1  1  6
  3  2  1  0
  4  9  2  0
  4  3  1  0
  5  4  1  0
  6  5  2  0
  6  7  1  0
  7  8  2  0
  8  9  1  0
 10 11  2  0
 10  2  1  0
 12 10  1  0
 13 12  1  0
 13 14  1  1
 14 15  1  0
 15 16  1  0
 17 16  1  0
 17 18  1  0
 19 13  1  0
 20 19  2  0
 21 19  1  0
 22 21  1  0
 23 22  1  0
 23 25  1  0
 24 23  2  0
M  END
$$$$
