FKG.pdb
     RDKit          3D

 25 25  0  0  1  0  0  0  0  0999 V2000
   28.7289  -20.9103   -9.0788 N   0  0  0  0  0  0  0  0  0  0  0  0
   27.3248  -20.6535   -8.7999 C   0  0  1  0  0  0  0  0  0  0  0  0
   27.2630  -19.3776   -7.9881 C   0  0  0  0  0  0  0  0  0  0  0  0
   27.9223  -19.5789   -6.6716 C   0  0  0  0  0  0  0  0  0  0  0  0
   27.9193  -18.5954   -5.6877 C   0  0  0  0  0  0  0  0  0  0  0  0
   28.5422  -18.8046   -4.4628 C   0  0  0  0  0  0  0  0  0  0  0  0
   29.1763  -20.0085   -4.2141 C   0  0  0  0  0  0  0  0  0  0  0  0
   29.1938  -20.9911   -5.1637 C   0  0  0  0  0  0  0  0  0  0  0  0
   28.5625  -20.7639   -6.3899 C   0  0  0  0  0  0  0  0  0  0  0  0
   26.5511  -20.5621  -10.0500 C   0  0  0  0  0  0  0  0  0  0  0  0
   26.8869  -19.7493  -10.9368 O   0  0  0  0  0  0  0  0  0  0  0  0
   25.4244  -21.3837  -10.2700 N   0  0  0  0  0  0  0  0  0  0  0  0
   24.6229  -21.3553  -11.4903 C   0  0  1  0  0  0  0  0  0  0  0  0
   24.5753  -22.6715  -12.1620 C   0  0  0  0  0  0  0  0  0  0  0  0
   24.3697  -22.5689  -13.6470 C   0  0  0  0  0  0  0  0  0  0  0  0
   25.6608  -22.2395  -14.3788 C   0  0  0  0  0  0  0  0  0  0  0  0
   25.4220  -22.1197  -15.8692 C   0  0  0  0  0  0  0  0  0  0  0  0
   26.6522  -21.6910  -16.4797 N   0  0  0  0  0  0  0  0  0  0  0  0
   23.3441  -20.7441  -11.1277 C   0  0  0  0  0  0  0  0  0  0  0  0
   22.8169  -20.9834  -10.0161 O   0  0  0  0  0  0  0  0  0  0  0  0
   22.6206  -19.8589  -11.9792 N   0  0  0  0  0  0  0  0  0  0  0  0
   21.3261  -19.3391  -11.6769 C   0  0  0  0  0  0  0  0  0  0  0  0
   20.3027  -20.3323  -12.0919 C   0  0  0  0  0  0  0  0  0  0  0  0
   20.4824  -21.5810  -11.8957 O   0  0  0  0  0  0  0  0  0  0  0  0
   19.1087  -19.9888  -12.7063 O   0  0  0  0  0  0  0  0  0  0  0  0
  2  1  1  6
  3  2  1  0
  4  9  2  0
  4  3  1  0
  5  4  1  0
  6  5  2  0
  6  7  1  0
  7  8  2  0
  8  9  1  0
 10 11  2  0
 10  2  1  0
 12 10  1  0
 13 12  1  0
 13 14  1  1
 14 15  1  0
 15 16  1  0
 17 16  1  0
 17 18  1  0
 19 13  1  0
 20 19  2  0
 21 19  1  0
 22 21  1  0
 23 22  1  0
 23 25  1  0
 24 23  2  0
M  END
$$$$
