FKG.pdb
     RDKit          3D

 25 25  0  0  1  0  0  0  0  0999 V2000
   28.6421  -20.8406   -8.7829 N   0  0  0  0  0  0  0  0  0  0  0  0
   27.2106  -20.6054   -8.6783 C   0  0  1  0  0  0  0  0  0  0  0  0
   27.0308  -19.3285   -7.8857 C   0  0  0  0  0  0  0  0  0  0  0  0
   27.4818  -19.5309   -6.4843 C   0  0  0  0  0  0  0  0  0  0  0  0
   28.6493  -18.9540   -5.9951 C   0  0  0  0  0  0  0  0  0  0  0  0
   29.0530  -19.1562   -4.6805 C   0  0  0  0  0  0  0  0  0  0  0  0
   28.2843  -19.9432   -3.8419 C   0  0  0  0  0  0  0  0  0  0  0  0
   27.1330  -20.5215   -4.2975 C   0  0  0  0  0  0  0  0  0  0  0  0
   26.7420  -20.3075   -5.6223 C   0  0  0  0  0  0  0  0  0  0  0  0
   26.5937  -20.5294  -10.0137 C   0  0  0  0  0  0  0  0  0  0  0  0
   27.0432  -19.7364  -10.8674 O   0  0  0  0  0  0  0  0  0  0  0  0
   25.4918  -21.3439  -10.3535 N   0  0  0  0  0  0  0  0  0  0  0  0
   24.8642  -21.3545  -11.6720 C   0  0  1  0  0  0  0  0  0  0  0  0
   24.9918  -22.6651  -12.3443 C   0  0  0  0  0  0  0  0  0  0  0  0
   24.3948  -22.6813  -13.7232 C   0  0  0  0  0  0  0  0  0  0  0  0
   24.5324  -24.0420  -14.3869 C   0  0  0  0  0  0  0  0  0  0  0  0
   23.8702  -24.0489  -15.7485 C   0  0  0  0  0  0  0  0  0  0  0  0
   23.9853  -25.3776  -16.2881 N   0  0  0  0  0  0  0  0  0  0  0  0
   23.5120  -20.8275  -11.4876 C   0  0  0  0  0  0  0  0  0  0  0  0
   22.8604  -21.0957  -10.4511 O   0  0  0  0  0  0  0  0  0  0  0  0
   22.8503  -19.9964  -12.4380 N   0  0  0  0  0  0  0  0  0  0  0  0
   21.5414  -19.4575  -12.2543 C   0  0  0  0  0  0  0  0  0  0  0  0
   20.5420  -20.5084  -12.5748 C   0  0  0  0  0  0  0  0  0  0  0  0
   19.2926  -20.2943  -12.4226 O   0  0  0  0  0  0  0  0  0  0  0  0
   20.8801  -21.7658  -13.0500 O   0  0  0  0  0  0  0  0  0  0  0  0
  2  1  1  6
  3  2  1  0
  4  9  2  0
  4  3  1  0
  5  4  1  0
  6  5  2  0
  6  7  1  0
  7  8  2  0
  8  9  1  0
 10 11  2  0
 10  2  1  0
 12 10  1  0
 13 12  1  0
 13 14  1  1
 14 15  1  0
 15 16  1  0
 17 16  1  0
 17 18  1  0
 19 13  1  0
 20 19  2  0
 21 19  1  0
 22 21  1  0
 23 22  1  0
 23 25  1  0
 24 23  2  0
M  END
$$$$
