FKG.pdb
     RDKit          3D

 25 25  0  0  1  0  0  0  0  0999 V2000
   27.3569  -19.8812  -10.9082 N   0  0  0  0  0  0  0  0  0  0  0  0
   26.3522  -20.8854  -10.5963 C   0  0  1  0  0  0  0  0  0  0  0  0
   25.7219  -20.4841   -9.2801 C   0  0  0  0  0  0  0  0  0  0  0  0
   26.7787  -20.2062   -8.2729 C   0  0  0  0  0  0  0  0  0  0  0  0
   27.8188  -21.0976   -8.0308 C   0  0  0  0  0  0  0  0  0  0  0  0
   28.7972  -20.8179   -7.0839 C   0  0  0  0  0  0  0  0  0  0  0  0
   28.7394  -19.6353   -6.3688 C   0  0  0  0  0  0  0  0  0  0  0  0
   27.7282  -18.7425   -6.5874 C   0  0  0  0  0  0  0  0  0  0  0  0
   26.7527  -19.0398   -7.5433 C   0  0  0  0  0  0  0  0  0  0  0  0
   25.3639  -20.9922  -11.6832 C   0  0  0  0  0  0  0  0  0  0  0  0
   24.7768  -19.9712  -12.0989 O   0  0  0  0  0  0  0  0  0  0  0  0
   25.0622  -22.2391  -12.2725 N   0  0  0  0  0  0  0  0  0  0  0  0
   24.1610  -22.4045  -13.4095 C   0  0  1  0  0  0  0  0  0  0  0  0
   24.3944  -23.6736  -14.1313 C   0  0  0  0  0  0  0  0  0  0  0  0
   24.4325  -23.5049  -15.6240 C   0  0  0  0  0  0  0  0  0  0  0  0
   25.3802  -22.3942  -16.0471 C   0  0  0  0  0  0  0  0  0  0  0  0
   25.3071  -22.1612  -17.5414 C   0  0  0  0  0  0  0  0  0  0  0  0
   26.2307  -21.1078  -17.8690 N   0  0  0  0  0  0  0  0  0  0  0  0
   22.8102  -22.1640  -12.9016 C   0  0  0  0  0  0  0  0  0  0  0  0
   22.5688  -22.2415  -11.6742 O   0  0  0  0  0  0  0  0  0  0  0  0
   21.6998  -21.8338  -13.7322 N   0  0  0  0  0  0  0  0  0  0  0  0
   20.3448  -21.8130  -13.2840 C   0  0  0  0  0  0  0  0  0  0  0  0
   19.8617  -20.4084  -13.2861 C   0  0  0  0  0  0  0  0  0  0  0  0
   20.6755  -19.4346  -13.4256 O   0  0  0  0  0  0  0  0  0  0  0  0
   18.5286  -20.0581  -13.1408 O   0  0  0  0  0  0  0  0  0  0  0  0
  2  1  1  6
  3  2  1  0
  4  9  2  0
  4  3  1  0
  5  4  1  0
  6  5  2  0
  6  7  1  0
  7  8  2  0
  8  9  1  0
 10 11  2  0
 10  2  1  0
 12 10  1  0
 13 12  1  0
 13 14  1  1
 14 15  1  0
 15 16  1  0
 17 16  1  0
 17 18  1  0
 19 13  1  0
 20 19  2  0
 21 19  1  0
 22 21  1  0
 23 22  1  0
 23 25  1  0
 24 23  2  0
M  END
$$$$
