FKG.pdb
     RDKit          3D

 25 25  0  0  1  0  0  0  0  0999 V2000
   22.9605  -20.9968  -15.8171 N   0  0  0  0  0  0  0  0  0  0  0  0
   22.4848  -20.0985  -14.7769 C   0  0  1  0  0  0  0  0  0  0  0  0
   21.0768  -19.6923  -15.1556 C   0  0  0  0  0  0  0  0  0  0  0  0
   21.0985  -18.8775  -16.3983 C   0  0  0  0  0  0  0  0  0  0  0  0
   21.6656  -17.6078  -16.4374 C   0  0  0  0  0  0  0  0  0  0  0  0
   21.6752  -16.8626  -17.6106 C   0  0  0  0  0  0  0  0  0  0  0  0
   21.1129  -17.3881  -18.7600 C   0  0  0  0  0  0  0  0  0  0  0  0
   20.5494  -18.6330  -18.7485 C   0  0  0  0  0  0  0  0  0  0  0  0
   20.5484  -19.3687  -17.5600 C   0  0  0  0  0  0  0  0  0  0  0  0
   22.5462  -20.7479  -13.4563 C   0  0  0  0  0  0  0  0  0  0  0  0
   22.1459  -21.9227  -13.3164 O   0  0  0  0  0  0  0  0  0  0  0  0
   23.0540  -20.0626  -12.3313 N   0  0  0  0  0  0  0  0  0  0  0  0
   23.0314  -20.5993  -10.9735 C   0  0  1  0  0  0  0  0  0  0  0  0
   24.2017  -20.1681  -10.1794 C   0  0  0  0  0  0  0  0  0  0  0  0
   24.2924  -20.8509   -8.8439 C   0  0  0  0  0  0  0  0  0  0  0  0
   25.5685  -20.4850   -8.1032 C   0  0  0  0  0  0  0  0  0  0  0  0
   25.7026  -21.2893   -6.8274 C   0  0  0  0  0  0  0  0  0  0  0  0
   26.9148  -20.8764   -6.1714 N   0  0  0  0  0  0  0  0  0  0  0  0
   21.7074  -20.2920  -10.4322 C   0  0  0  0  0  0  0  0  0  0  0  0
   21.1770  -19.1762  -10.6431 O   0  0  0  0  0  0  0  0  0  0  0  0
   20.9415  -21.2044   -9.6493 N   0  0  0  0  0  0  0  0  0  0  0  0
   20.6904  -22.5599  -10.0194 C   0  0  0  0  0  0  0  0  0  0  0  0
   19.3859  -22.6290  -10.7263 C   0  0  0  0  0  0  0  0  0  0  0  0
   19.0815  -21.7770  -11.6271 O   0  0  0  0  0  0  0  0  0  0  0  0
   18.4271  -23.5963  -10.4692 O   0  0  0  0  0  0  0  0  0  0  0  0
  2  1  1  6
  3  2  1  0
  4  9  2  0
  4  3  1  0
  5  4  1  0
  6  5  2  0
  6  7  1  0
  7  8  2  0
  8  9  1  0
 10 11  2  0
 10  2  1  0
 12 10  1  0
 13 12  1  0
 13 14  1  1
 14 15  1  0
 15 16  1  0
 17 16  1  0
 17 18  1  0
 19 13  1  0
 20 19  2  0
 21 19  1  0
 22 21  1  0
 23 22  1  0
 23 25  1  0
 24 23  2  0
M  END
$$$$
