VTQ.pdb
     RDKit          3D

 24 23  0  0  1  0  0  0  0  0999 V2000
    7.1815  -13.9157   19.3645 C   0  0  0  0  0  0  0  0  0  0  0  0
    8.1607  -13.0250   20.0937 C   0  0  2  0  0  0  0  0  0  0  0  0
    8.5783  -11.8963   19.2015 C   0  0  0  0  0  0  0  0  0  0  0  0
    9.3894  -13.7718   20.5350 C   0  0  2  0  0  0  0  0  0  0  0  0
   10.1322  -14.3472   19.4479 N   0  0  0  0  0  0  0  0  0  0  0  0
    9.0851  -14.8312   21.5323 C   0  0  0  0  0  0  0  0  0  0  0  0
    8.3766  -14.6115   22.5516 O   0  0  0  0  0  0  0  0  0  0  0  0
    9.4532  -19.6922   22.6409 C   0  0  0  0  0  0  0  0  0  0  0  0
    9.6454  -18.5589   21.6682 C   0  0  1  0  0  0  0  0  0  0  0  0
    8.6988  -18.7471   20.6462 O   0  0  0  0  0  0  0  0  0  0  0  0
    9.3333  -17.2257   22.3374 C   0  0  2  0  0  0  0  0  0  0  0  0
    9.5874  -16.1491   21.3736 N   0  0  0  0  0  0  0  0  0  0  0  0
   10.1914  -16.9409   23.5049 C   0  0  0  0  0  0  0  0  0  0  0  0
   11.3651  -16.4765   23.2745 O   0  0  0  0  0  0  0  0  0  0  0  0
    8.9190  -13.7835   28.2048 N   0  0  0  0  0  0  0  0  0  0  0  0
   10.1123  -14.2990   28.7506 C   0  0  0  0  0  0  0  0  0  0  0  0
   10.5156  -13.8662   29.8579 O   0  0  0  0  0  0  0  0  0  0  0  0
   10.8533  -15.3472   27.9821 C   0  0  0  0  0  0  0  0  0  0  0  0
   10.0132  -15.6675   26.7452 C   0  0  0  0  0  0  0  0  0  0  0  0
   10.6587  -16.7800   25.9460 C   0  0  2  0  0  0  0  0  0  0  0  0
    9.7815  -17.1511   24.8325 N   0  0  0  0  0  0  0  0  0  0  0  0
   10.8203  -17.9853   26.7938 C   0  0  0  0  0  0  0  0  0  0  0  0
   11.7621  -18.0370   27.6502 O   0  0  0  0  0  0  0  0  0  0  0  0
    9.9956  -19.0977   26.7220 O   0  0  0  0  0  0  0  0  0  0  0  0
  2  1  1  6
  2  3  1  0
  4  6  1  0
  4  2  1  0
  4  5  1  6
  6  7  2  0
  9  8  1  1
 10  9  1  0
 11  9  1  0
 11 12  1  6
 12  6  1  0
 13 21  1  0
 13 11  1  0
 14 13  2  0
 16 15  1  0
 16 17  2  0
 18 16  1  0
 19 18  1  0
 20 19  1  1
 20 21  1  0
 22 20  1  0
 22 24  1  0
 23 22  2  0
M  END
$$$$
