VTQ.pdb
     RDKit          3D

 24 23  0  0  1  0  0  0  0  0999 V2000
    7.5170  -11.9603   19.0965 C   0  0  0  0  0  0  0  0  0  0  0  0
    8.3139  -13.1365   19.6119 C   0  0  2  0  0  0  0  0  0  0  0  0
    9.4411  -13.4343   18.6711 C   0  0  0  0  0  0  0  0  0  0  0  0
    7.4708  -14.3729   19.7621 C   0  0  2  0  0  0  0  0  0  0  0  0
    6.3098  -14.1789   20.5861 N   0  0  0  0  0  0  0  0  0  0  0  0
    8.2457  -15.5324   20.2766 C   0  0  0  0  0  0  0  0  0  0  0  0
    8.4030  -15.7420   21.5097 O   0  0  0  0  0  0  0  0  0  0  0  0
   10.2052  -19.9720   19.2983 C   0  0  0  0  0  0  0  0  0  0  0  0
    9.4399  -18.7543   18.8520 C   0  0  1  0  0  0  0  0  0  0  0  0
    8.0796  -19.1069   18.8806 O   0  0  0  0  0  0  0  0  0  0  0  0
    9.6347  -17.6122   19.8422 C   0  0  2  0  0  0  0  0  0  0  0  0
    8.8468  -16.4611   19.3874 N   0  0  0  0  0  0  0  0  0  0  0  0
   11.0322  -17.1432   19.9285 C   0  0  0  0  0  0  0  0  0  0  0  0
   11.4657  -16.4034   18.9740 O   0  0  0  0  0  0  0  0  0  0  0  0
   14.2991  -15.4563   17.7913 N   0  0  0  0  0  0  0  0  0  0  0  0
   14.2167  -14.7940   19.0332 C   0  0  0  0  0  0  0  0  0  0  0  0
   15.2364  -14.2216   19.4900 O   0  0  0  0  0  0  0  0  0  0  0  0
   12.9088  -14.8009   19.7595 C   0  0  0  0  0  0  0  0  0  0  0  0
   13.1710  -15.4044   21.1398 C   0  0  0  0  0  0  0  0  0  0  0  0
   13.2457  -16.9140   21.0471 C   0  0  2  0  0  0  0  0  0  0  0  0
   11.8893  -17.4658   20.9944 N   0  0  0  0  0  0  0  0  0  0  0  0
   13.8934  -17.4651   22.2614 C   0  0  0  0  0  0  0  0  0  0  0  0
   13.1914  -18.0690   23.1363 O   0  0  0  0  0  0  0  0  0  0  0  0
   15.2513  -17.3691   22.5249 O   0  0  0  0  0  0  0  0  0  0  0  0
  2  1  1  6
  2  3  1  0
  4  6  1  0
  4  2  1  0
  4  5  1  1
  6  7  2  0
  9  8  1  1
 10  9  1  0
 11  9  1  0
 11 12  1  6
 12  6  1  0
 13 21  1  0
 13 11  1  0
 14 13  2  0
 16 15  1  0
 16 17  2  0
 18 16  1  0
 19 18  1  0
 20 19  1  1
 20 21  1  0
 22 20  1  0
 22 24  1  0
 23 22  2  0
M  END
$$$$
