VTQ.pdb
     RDKit          3D

 24 23  0  0  1  0  0  0  0  0999 V2000
    7.7980  -12.6108   26.7907 C   0  0  0  0  0  0  0  0  0  0  0  0
    6.9598  -12.2777   25.5781 C   0  0  2  0  0  0  0  0  0  0  0  0
    6.0912  -11.0936   25.8741 C   0  0  0  0  0  0  0  0  0  0  0  0
    6.0840  -13.4264   25.1589 C   0  0  2  0  0  0  0  0  0  0  0  0
    5.1376  -13.8229   26.1647 N   0  0  0  0  0  0  0  0  0  0  0  0
    6.8680  -14.6147   24.7316 C   0  0  0  0  0  0  0  0  0  0  0  0
    6.9298  -15.6648   25.4262 O   0  0  0  0  0  0  0  0  0  0  0  0
    9.4283  -16.8126   21.0678 C   0  0  0  0  0  0  0  0  0  0  0  0
    8.5618  -15.6826   21.5576 C   0  0  1  0  0  0  0  0  0  0  0  0
    7.2802  -15.9041   21.0244 O   0  0  0  0  0  0  0  0  0  0  0  0
    8.4370  -15.7285   23.0759 C   0  0  2  0  0  0  0  0  0  0  0  0
    7.5875  -14.6132   23.5081 N   0  0  0  0  0  0  0  0  0  0  0  0
    9.7260  -15.5562   23.7754 C   0  0  0  0  0  0  0  0  0  0  0  0
   10.3410  -14.4420   23.6120 O   0  0  0  0  0  0  0  0  0  0  0  0
   11.2553  -16.8343   29.3205 N   0  0  0  0  0  0  0  0  0  0  0  0
   10.7084  -15.6252   28.8445 C   0  0  0  0  0  0  0  0  0  0  0  0
   10.1984  -14.8207   29.6623 O   0  0  0  0  0  0  0  0  0  0  0  0
   10.7589  -15.3496   27.3749 C   0  0  0  0  0  0  0  0  0  0  0  0
   11.4738  -16.5350   26.7255 C   0  0  0  0  0  0  0  0  0  0  0  0
   11.5968  -16.3195   25.2317 C   0  0  2  0  0  0  0  0  0  0  0  0
   10.2941  -16.5429   24.5990 N   0  0  0  0  0  0  0  0  0  0  0  0
   12.5376  -17.3082   24.6526 C   0  0  0  0  0  0  0  0  0  0  0  0
   12.0865  -18.3358   24.0499 O   0  0  0  0  0  0  0  0  0  0  0  0
   13.9179  -17.1941   24.7203 O   0  0  0  0  0  0  0  0  0  0  0  0
  2  1  1  1
  2  3  1  0
  4  6  1  0
  4  2  1  0
  4  5  1  1
  6  7  2  0
  9  8  1  6
 10  9  1  0
 11  9  1  0
 11 12  1  1
 12  6  1  0
 13 21  1  0
 13 11  1  0
 14 13  2  0
 16 15  1  0
 16 17  2  0
 18 16  1  0
 19 18  1  0
 20 19  1  1
 20 21  1  0
 22 20  1  0
 22 24  1  0
 23 22  2  0
M  END
$$$$
