VTQ.pdb
     RDKit          3D

 24 23  0  0  1  0  0  0  0  0999 V2000
    7.6348  -12.5863   20.8135 C   0  0  0  0  0  0  0  0  0  0  0  0
    8.8627  -13.1220   20.1139 C   0  0  2  0  0  0  0  0  0  0  0  0
    9.2402  -12.2101   18.9869 C   0  0  0  0  0  0  0  0  0  0  0  0
    8.6462  -14.5052   19.5642 C   0  0  2  0  0  0  0  0  0  0  0  0
    7.6306  -14.5668   18.5497 N   0  0  0  0  0  0  0  0  0  0  0  0
    8.3361  -15.4984   20.6257 C   0  0  0  0  0  0  0  0  0  0  0  0
    7.1530  -15.7882   20.9504 O   0  0  0  0  0  0  0  0  0  0  0  0
    8.4575  -18.8833   20.8404 C   0  0  0  0  0  0  0  0  0  0  0  0
    9.4019  -18.5136   21.9534 C   0  0  1  0  0  0  0  0  0  0  0  0
   10.6936  -18.5246   21.3992 O   0  0  0  0  0  0  0  0  0  0  0  0
    9.1256  -17.0942   22.4350 C   0  0  2  0  0  0  0  0  0  0  0  0
    9.3741  -16.1681   21.3246 N   0  0  0  0  0  0  0  0  0  0  0  0
   10.0143  -16.6645   23.5331 C   0  0  0  0  0  0  0  0  0  0  0  0
   11.0191  -15.9285   23.2246 O   0  0  0  0  0  0  0  0  0  0  0  0
    8.6330  -13.8114   28.3287 N   0  0  0  0  0  0  0  0  0  0  0  0
    9.8969  -14.1894   28.8258 C   0  0  0  0  0  0  0  0  0  0  0  0
   10.2623  -13.7696   29.9511 O   0  0  0  0  0  0  0  0  0  0  0  0
   10.7558  -15.0810   27.9857 C   0  0  0  0  0  0  0  0  0  0  0  0
    9.8929  -15.5541   26.8154 C   0  0  0  0  0  0  0  0  0  0  0  0
   10.6826  -16.4915   25.9262 C   0  0  2  0  0  0  0  0  0  0  0  0
    9.8068  -17.0197   24.8768 N   0  0  0  0  0  0  0  0  0  0  0  0
   11.1663  -17.6504   26.7142 C   0  0  0  0  0  0  0  0  0  0  0  0
   10.4842  -18.7260   26.7447 O   0  0  0  0  0  0  0  0  0  0  0  0
   12.3448  -17.6512   27.4447 O   0  0  0  0  0  0  0  0  0  0  0  0
  2  1  1  6
  2  3  1  0
  4  6  1  0
  4  2  1  0
  4  5  1  6
  6  7  2  0
  9  8  1  6
 10  9  1  0
 11  9  1  0
 11 12  1  6
 12  6  1  0
 13 21  1  0
 13 11  1  0
 14 13  2  0
 16 15  1  0
 16 17  2  0
 18 16  1  0
 19 18  1  0
 20 19  1  1
 20 21  1  0
 22 20  1  0
 22 24  1  0
 23 22  2  0
M  END
$$$$
