VTQ.pdb
     RDKit          3D

 24 23  0  0  1  0  0  0  0  0999 V2000
    6.7853  -13.8095   19.6002 C   0  0  0  0  0  0  0  0  0  0  0  0
    7.8632  -12.8995   20.1425 C   0  0  2  0  0  0  0  0  0  0  0  0
    8.4167  -12.0561   19.0351 C   0  0  0  0  0  0  0  0  0  0  0  0
    8.9913  -13.6677   20.7746 C   0  0  2  0  0  0  0  0  0  0  0  0
    9.7305  -14.4728   19.8419 N   0  0  0  0  0  0  0  0  0  0  0  0
    8.5373  -14.5217   21.9033 C   0  0  0  0  0  0  0  0  0  0  0  0
    7.7714  -14.0906   22.8070 O   0  0  0  0  0  0  0  0  0  0  0  0
    6.9668  -18.0829   21.8379 C   0  0  0  0  0  0  0  0  0  0  0  0
    8.2591  -18.1222   22.6099 C   0  0  1  0  0  0  0  0  0  0  0  0
    9.2611  -18.4777   21.6904 O   0  0  0  0  0  0  0  0  0  0  0  0
    8.6019  -16.7360   23.1428 C   0  0  2  0  0  0  0  0  0  0  0  0
    8.9543  -15.8743   22.0089 N   0  0  0  0  0  0  0  0  0  0  0  0
    9.7724  -16.7271   24.0430 C   0  0  0  0  0  0  0  0  0  0  0  0
   10.9167  -16.4768   23.5195 O   0  0  0  0  0  0  0  0  0  0  0  0
   10.1115  -14.4080   29.4326 N   0  0  0  0  0  0  0  0  0  0  0  0
    9.8971  -13.8292   28.1651 C   0  0  0  0  0  0  0  0  0  0  0  0
    9.4420  -12.6613   28.0949 O   0  0  0  0  0  0  0  0  0  0  0  0
   10.2231  -14.6365   26.9484 C   0  0  0  0  0  0  0  0  0  0  0  0
   10.6590  -16.0184   27.4365 C   0  0  0  0  0  0  0  0  0  0  0  0
   10.8884  -16.9427   26.2592 C   0  0  2  0  0  0  0  0  0  0  0  0
    9.6850  -16.9741   25.4236 N   0  0  0  0  0  0  0  0  0  0  0  0
   11.1222  -18.3259   26.7386 C   0  0  0  0  0  0  0  0  0  0  0  0
   12.1632  -18.5929   27.4227 O   0  0  0  0  0  0  0  0  0  0  0  0
   10.2638  -19.3861   26.4898 O   0  0  0  0  0  0  0  0  0  0  0  0
  2  1  1  6
  2  3  1  0
  4  6  1  0
  4  2  1  0
  4  5  1  6
  6  7  2  0
  9  8  1  6
 10  9  1  0
 11  9  1  0
 11 12  1  6
 12  6  1  0
 13 21  1  0
 13 11  1  0
 14 13  2  0
 16 15  1  0
 16 17  2  0
 18 16  1  0
 19 18  1  0
 20 19  1  1
 20 21  1  0
 22 20  1  0
 22 24  1  0
 23 22  2  0
M  END
$$$$
