VTQ.pdb
     RDKit          3D

 24 23  0  0  1  0  0  0  0  0999 V2000
    7.9527  -12.3792   26.9746 C   0  0  0  0  0  0  0  0  0  0  0  0
    7.1079  -12.0359   25.7694 C   0  0  2  0  0  0  0  0  0  0  0  0
    6.2666  -10.8329   26.0682 C   0  0  0  0  0  0  0  0  0  0  0  0
    6.2045  -13.1690   25.3665 C   0  0  2  0  0  0  0  0  0  0  0  0
    5.2461  -13.5252   26.3760 N   0  0  0  0  0  0  0  0  0  0  0  0
    6.9596  -14.3833   24.9607 C   0  0  0  0  0  0  0  0  0  0  0  0
    7.1736  -15.3386   25.7549 O   0  0  0  0  0  0  0  0  0  0  0  0
    7.0080  -15.3476   21.0708 C   0  0  0  0  0  0  0  0  0  0  0  0
    8.3524  -15.6436   21.6811 C   0  0  1  0  0  0  0  0  0  0  0  0
    9.1883  -14.5649   21.3442 O   0  0  0  0  0  0  0  0  0  0  0  0
    8.2490  -15.6814   23.2012 C   0  0  2  0  0  0  0  0  0  0  0  0
    7.4759  -14.5163   23.6454 N   0  0  0  0  0  0  0  0  0  0  0  0
    9.5569  -15.5878   23.8802 C   0  0  0  0  0  0  0  0  0  0  0  0
    9.8720  -14.4575   24.3993 O   0  0  0  0  0  0  0  0  0  0  0  0
    9.8686  -16.5160   28.7882 N   0  0  0  0  0  0  0  0  0  0  0  0
   11.2641  -16.7157   28.7718 C   0  0  0  0  0  0  0  0  0  0  0  0
   11.8802  -16.8189   29.8608 O   0  0  0  0  0  0  0  0  0  0  0  0
   11.9571  -16.7970   27.4484 C   0  0  0  0  0  0  0  0  0  0  0  0
   10.8840  -16.6188   26.3739 C   0  0  0  0  0  0  0  0  0  0  0  0
   11.5096  -16.6585   24.9955 C   0  0  2  0  0  0  0  0  0  0  0  0
   10.4520  -16.6664   23.9813 N   0  0  0  0  0  0  0  0  0  0  0  0
   12.2848  -17.9109   24.8264 C   0  0  0  0  0  0  0  0  0  0  0  0
   11.7458  -18.9198   24.2656 O   0  0  0  0  0  0  0  0  0  0  0  0
   13.5962  -18.0715   25.2471 O   0  0  0  0  0  0  0  0  0  0  0  0
  2  1  1  1
  2  3  1  0
  4  6  1  0
  4  2  1  0
  4  5  1  1
  6  7  2  0
  9  8  1  6
 10  9  1  0
 11  9  1  0
 11 12  1  1
 12  6  1  0
 13 21  1  0
 13 11  1  0
 14 13  2  0
 16 15  1  0
 16 17  2  0
 18 16  1  0
 19 18  1  0
 20 19  1  1
 20 21  1  0
 22 20  1  0
 22 24  1  0
 23 22  2  0
M  END
$$$$
