VTQ.pdb
     RDKit          3D

 24 23  0  0  1  0  0  0  0  0999 V2000
    7.5141  -12.9279   21.0920 C   0  0  0  0  0  0  0  0  0  0  0  0
    8.7913  -13.1639   20.3194 C   0  0  2  0  0  0  0  0  0  0  0  0
    8.9524  -12.1036   19.2735 C   0  0  0  0  0  0  0  0  0  0  0  0
    8.8103  -14.5102   19.6492 C   0  0  2  0  0  0  0  0  0  0  0  0
    7.8051  -14.6595   18.6333 N   0  0  0  0  0  0  0  0  0  0  0  0
    8.6942  -15.6312   20.6184 C   0  0  0  0  0  0  0  0  0  0  0  0
    7.8750  -16.5759   20.4588 O   0  0  0  0  0  0  0  0  0  0  0  0
    9.3825  -18.3776   20.7113 C   0  0  0  0  0  0  0  0  0  0  0  0
   10.2195  -18.0018   21.9053 C   0  0  1  0  0  0  0  0  0  0  0  0
   11.4465  -17.5374   21.4007 O   0  0  0  0  0  0  0  0  0  0  0  0
    9.5742  -16.8486   22.6646 C   0  0  2  0  0  0  0  0  0  0  0  0
    9.5125  -15.6821   21.7770 N   0  0  0  0  0  0  0  0  0  0  0  0
   10.3463  -16.4216   23.8487 C   0  0  0  0  0  0  0  0  0  0  0  0
   11.3535  -15.6521   23.6495 O   0  0  0  0  0  0  0  0  0  0  0  0
    9.6258  -13.5094   28.6065 N   0  0  0  0  0  0  0  0  0  0  0  0
    8.6827  -13.6688   27.5707 C   0  0  0  0  0  0  0  0  0  0  0  0
    7.8379  -12.7626   27.3678 O   0  0  0  0  0  0  0  0  0  0  0  0
    8.7285  -14.9196   26.7511 C   0  0  0  0  0  0  0  0  0  0  0  0
    9.8068  -15.8131   27.3650 C   0  0  0  0  0  0  0  0  0  0  0  0
   10.7767  -16.2743   26.2975 C   0  0  2  0  0  0  0  0  0  0  0  0
   10.0272  -16.8140   25.1598 N   0  0  0  0  0  0  0  0  0  0  0  0
   11.6232  -17.3726   26.8219 C   0  0  0  0  0  0  0  0  0  0  0  0
   11.4371  -18.5660   26.4166 O   0  0  0  0  0  0  0  0  0  0  0  0
   12.6360  -17.1920   27.7516 O   0  0  0  0  0  0  0  0  0  0  0  0
  2  1  1  6
  2  3  1  0
  4  6  1  0
  4  2  1  0
  4  5  1  6
  6  7  2  0
  9  8  1  6
 10  9  1  0
 11  9  1  0
 11 12  1  6
 12  6  1  0
 13 21  1  0
 13 11  1  0
 14 13  2  0
 16 15  1  0
 16 17  2  0
 18 16  1  0
 19 18  1  0
 20 19  1  1
 20 21  1  0
 22 20  1  0
 22 24  1  0
 23 22  2  0
M  END
$$$$
