PYM.pdb
     RDKit          3D

 28 29  0  0  1  0  0  0  0  0999 V2000
    8.7895  -14.6456   17.8667 N   0  0  0  0  0  0  0  0  0  0  0  0
    7.7996  -13.8346   17.1850 C   0  0  0  0  0  0  0  0  0  0  0  0
    7.8012  -12.5052   17.8999 C   0  0  0  0  0  0  0  0  0  0  0  0
    8.0959  -12.8863   19.3148 C   0  0  0  0  0  0  0  0  0  0  0  0
    8.9433  -14.1083   19.1818 C   0  0  1  0  0  0  0  0  0  0  0  0
    8.6903  -15.1161   20.2467 C   0  0  0  0  0  0  0  0  0  0  0  0
    7.5283  -15.2890   20.6959 O   0  0  0  0  0  0  0  0  0  0  0  0
   10.9274  -21.7330   25.9472 O   0  0  0  0  0  0  0  0  0  0  0  0
   10.8736  -20.7680   24.9451 C   0  0  0  0  0  0  0  0  0  0  0  0
   11.8076  -19.7521   24.9301 C   0  0  0  0  0  0  0  0  0  0  0  0
   11.7769  -18.7862   23.9516 C   0  0  0  0  0  0  0  0  0  0  0  0
   10.8150  -18.7776   22.9335 C   0  0  0  0  0  0  0  0  0  0  0  0
   10.7475  -17.7456   21.9207 C   0  0  0  0  0  0  0  0  0  0  0  0
    9.6096  -16.8091   21.8996 C   0  0  2  0  0  0  0  0  0  0  0  0
    9.7747  -15.8803   20.7502 N   0  0  0  0  0  0  0  0  0  0  0  0
    9.5010  -15.9713   23.0980 C   0  0  0  0  0  0  0  0  0  0  0  0
   10.3008  -14.9953   23.2409 O   0  0  0  0  0  0  0  0  0  0  0  0
    9.8941  -19.7996   22.9679 C   0  0  0  0  0  0  0  0  0  0  0  0
    9.9161  -20.7848   23.9563 C   0  0  0  0  0  0  0  0  0  0  0  0
    6.5382  -10.8753   27.5066 C   0  0  0  0  0  0  0  0  0  0  0  0
    5.9918  -12.4724   26.8268 S   0  0  0  0  0  0  0  0  0  0  0  0
    7.3342  -13.6465   26.7111 C   0  0  0  0  0  0  0  0  0  0  0  0
    7.4157  -14.4248   25.4484 C   0  0  0  0  0  0  0  0  0  0  0  0
    8.6542  -15.3155   25.3509 C   0  0  2  0  0  0  0  0  0  0  0  0
    8.5532  -16.1438   24.1494 N   0  0  0  0  0  0  0  0  0  0  0  0
    8.7495  -16.1395   26.5570 C   0  0  0  0  0  0  0  0  0  0  0  0
    9.5971  -15.9166   27.4449 O   0  0  0  0  0  0  0  0  0  0  0  0
    7.8944  -17.2294   26.7929 O   0  0  0  0  0  0  0  0  0  0  0  0
  1  5  1  0
  2  3  1  0
  2  1  1  0
  3  4  1  0
  4  5  1  0
  5  6  1  1
  6  7  2  0
  9  8  1  0
  9 19  2  0
 10  9  1  0
 11 10  2  0
 11 12  1  0
 12 18  2  0
 13 12  1  0
 14 13  1  1
 14 16  1  0
 15 14  1  0
 15  6  1  0
 16 17  2  0
 16 25  1  0
 18 19  1  0
 21 22  1  0
 21 20  1  0
 22 23  1  0
 24 23  1  1
 24 26  1  0
 25 24  1  0
 26 27  2  0
 26 28  1  0
M  END
$$$$
