PYM.pdb
     RDKit          3D

 28 29  0  0  1  0  0  0  0  0999 V2000
    9.1813  -14.8497   18.1485 N   0  0  0  0  0  0  0  0  0  0  0  0
    8.4127  -14.6076   16.9431 C   0  0  0  0  0  0  0  0  0  0  0  0
    7.7691  -13.2560   17.1362 C   0  0  0  0  0  0  0  0  0  0  0  0
    7.5106  -13.2155   18.6078 C   0  0  0  0  0  0  0  0  0  0  0  0
    8.6113  -14.0448   19.1823 C   0  0  1  0  0  0  0  0  0  0  0  0
    8.1881  -14.8434   20.3641 C   0  0  0  0  0  0  0  0  0  0  0  0
    7.1550  -14.5280   21.0084 O   0  0  0  0  0  0  0  0  0  0  0  0
    7.3775  -21.9847   18.0874 O   0  0  0  0  0  0  0  0  0  0  0  0
    7.8158  -21.0309   19.0021 C   0  0  0  0  0  0  0  0  0  0  0  0
    9.0431  -20.4274   18.8178 C   0  0  0  0  0  0  0  0  0  0  0  0
    9.4998  -19.4822   19.7063 C   0  0  0  0  0  0  0  0  0  0  0  0
    8.7604  -19.0851   20.8277 C   0  0  0  0  0  0  0  0  0  0  0  0
    9.2459  -18.1205   21.7916 C   0  0  0  0  0  0  0  0  0  0  0  0
    8.5825  -16.8106   21.9192 C   0  0  2  0  0  0  0  0  0  0  0  0
    8.9632  -15.9653   20.7566 N   0  0  0  0  0  0  0  0  0  0  0  0
    8.9635  -16.0606   23.1201 C   0  0  0  0  0  0  0  0  0  0  0  0
   10.1381  -15.5850   23.2017 O   0  0  0  0  0  0  0  0  0  0  0  0
    7.5399  -19.6995   20.9914 C   0  0  0  0  0  0  0  0  0  0  0  0
    7.0671  -20.6600   20.0959 C   0  0  0  0  0  0  0  0  0  0  0  0
    6.6716  -10.7095   28.4206 C   0  0  0  0  0  0  0  0  0  0  0  0
    6.2441  -11.8355   27.0566 S   0  0  0  0  0  0  0  0  0  0  0  0
    7.5934  -12.9328   26.6448 C   0  0  0  0  0  0  0  0  0  0  0  0
    7.3539  -13.8702   25.5177 C   0  0  0  0  0  0  0  0  0  0  0  0
    8.5291  -14.8047   25.2312 C   0  0  2  0  0  0  0  0  0  0  0  0
    8.1186  -15.7976   24.2384 N   0  0  0  0  0  0  0  0  0  0  0  0
    8.9494  -15.4443   26.4790 C   0  0  0  0  0  0  0  0  0  0  0  0
    8.5877  -16.5984   26.7850 O   0  0  0  0  0  0  0  0  0  0  0  0
    9.7862  -14.8031   27.4082 O   0  0  0  0  0  0  0  0  0  0  0  0
  1  5  1  0
  2  3  1  0
  2  1  1  0
  3  4  1  0
  4  5  1  0
  5  6  1  1
  6  7  2  0
  9  8  1  0
  9 19  2  0
 10  9  1  0
 11 10  2  0
 11 12  1  0
 12 18  2  0
 13 12  1  0
 14 13  1  6
 14 16  1  0
 15 14  1  0
 15  6  1  0
 16 17  2  0
 16 25  1  0
 18 19  1  0
 21 22  1  0
 21 20  1  0
 22 23  1  0
 24 23  1  1
 24 26  1  0
 25 24  1  0
 26 27  2  0
 26 28  1  0
M  END
$$$$
