PYM.pdb
     RDKit          3D

 28 29  0  0  1  0  0  0  0  0999 V2000
    9.1910  -15.1270   18.1790 N   0  0  0  0  0  0  0  0  0  0  0  0
    8.4327  -15.1078   16.9433 C   0  0  0  0  0  0  0  0  0  0  0  0
    7.8225  -13.7296   16.8626 C   0  0  0  0  0  0  0  0  0  0  0  0
    7.5603  -13.3950   18.2955 C   0  0  0  0  0  0  0  0  0  0  0  0
    8.6380  -14.1215   19.0303 C   0  0  1  0  0  0  0  0  0  0  0  0
    8.1910  -14.6625   20.3423 C   0  0  0  0  0  0  0  0  0  0  0  0
    7.5671  -13.9309   21.1530 O   0  0  0  0  0  0  0  0  0  0  0  0
    6.7960  -21.3365   26.2701 O   0  0  0  0  0  0  0  0  0  0  0  0
    7.1211  -20.5526   25.1663 C   0  0  0  0  0  0  0  0  0  0  0  0
    8.4111  -20.0836   25.0232 C   0  0  0  0  0  0  0  0  0  0  0  0
    8.7588  -19.3073   23.9424 C   0  0  0  0  0  0  0  0  0  0  0  0
    7.8418  -18.9547   22.9440 C   0  0  0  0  0  0  0  0  0  0  0  0
    8.1845  -18.1064   21.8222 C   0  0  0  0  0  0  0  0  0  0  0  0
    7.9181  -16.6583   21.8870 C   0  0  2  0  0  0  0  0  0  0  0  0
    8.4768  -16.0135   20.6691 N   0  0  0  0  0  0  0  0  0  0  0  0
    8.5370  -15.9860   23.0336 C   0  0  0  0  0  0  0  0  0  0  0  0
    9.7685  -15.6816   22.9772 O   0  0  0  0  0  0  0  0  0  0  0  0
    6.5619  -19.4334   23.1069 C   0  0  0  0  0  0  0  0  0  0  0  0
    6.1985  -20.2217   24.1999 C   0  0  0  0  0  0  0  0  0  0  0  0
    5.2745  -12.0210   27.6516 C   0  0  0  0  0  0  0  0  0  0  0  0
    6.8662  -11.3582   27.0697 S   0  0  0  0  0  0  0  0  0  0  0  0
    7.9944  -12.6552   26.5810 C   0  0  0  0  0  0  0  0  0  0  0  0
    7.4966  -13.6012   25.5495 C   0  0  0  0  0  0  0  0  0  0  0  0
    8.5105  -14.6752   25.1558 C   0  0  2  0  0  0  0  0  0  0  0  0
    7.8722  -15.6222   24.2416 N   0  0  0  0  0  0  0  0  0  0  0  0
    8.9925  -15.3467   26.3639 C   0  0  0  0  0  0  0  0  0  0  0  0
   10.0207  -14.9723   26.9631 O   0  0  0  0  0  0  0  0  0  0  0  0
    8.3296  -16.4509   26.9261 O   0  0  0  0  0  0  0  0  0  0  0  0
  1  5  1  0
  2  3  1  0
  2  1  1  0
  3  4  1  0
  4  5  1  0
  5  6  1  1
  6  7  2  0
  9  8  1  0
  9 19  2  0
 10  9  1  0
 11 10  2  0
 11 12  1  0
 12 18  2  0
 13 12  1  0
 14 13  1  6
 14 16  1  0
 15 14  1  0
 15  6  1  0
 16 17  2  0
 16 25  1  0
 18 19  1  0
 21 22  1  0
 21 20  1  0
 22 23  1  0
 24 23  1  1
 24 26  1  0
 25 24  1  0
 26 27  2  0
 26 28  1  0
M  END
$$$$
