PYM.pdb
     RDKit          3D

 28 29  0  0  1  0  0  0  0  0999 V2000
    9.0830  -14.6965   18.9867 N   0  0  0  0  0  0  0  0  0  0  0  0
    8.3569  -14.7114   17.7317 C   0  0  0  0  0  0  0  0  0  0  0  0
    7.5292  -13.4491   17.7263 C   0  0  0  0  0  0  0  0  0  0  0  0
    7.1866  -13.2672   19.1697 C   0  0  0  0  0  0  0  0  0  0  0  0
    8.3545  -13.8596   19.8868 C   0  0  1  0  0  0  0  0  0  0  0  0
    7.9767  -14.5604   21.1437 C   0  0  0  0  0  0  0  0  0  0  0  0
    7.3106  -13.9649   22.0288 O   0  0  0  0  0  0  0  0  0  0  0  0
    7.1273  -21.7548   26.5152 O   0  0  0  0  0  0  0  0  0  0  0  0
    7.3862  -20.8664   25.4750 C   0  0  0  0  0  0  0  0  0  0  0  0
    8.6210  -20.2552   25.3959 C   0  0  0  0  0  0  0  0  0  0  0  0
    8.9028  -19.3735   24.3787 C   0  0  0  0  0  0  0  0  0  0  0  0
    7.9713  -19.0511   23.3835 C   0  0  0  0  0  0  0  0  0  0  0  0
    8.2411  -18.0958   22.3301 C   0  0  0  0  0  0  0  0  0  0  0  0
    8.0440  -16.6558   22.5750 C   0  0  2  0  0  0  0  0  0  0  0  0
    8.3766  -15.9087   21.3331 N   0  0  0  0  0  0  0  0  0  0  0  0
    8.8982  -16.1054   23.6319 C   0  0  0  0  0  0  0  0  0  0  0  0
    9.7480  -15.2105   23.3326 O   0  0  0  0  0  0  0  0  0  0  0  0
    6.7472  -19.6723   23.4820 C   0  0  0  0  0  0  0  0  0  0  0  0
    6.4508  -20.5684   24.5101 C   0  0  0  0  0  0  0  0  0  0  0  0
    7.1809  -10.7103   27.6144 C   0  0  0  0  0  0  0  0  0  0  0  0
    7.3811  -11.9268   26.2759 S   0  0  0  0  0  0  0  0  0  0  0  0
    7.2644  -13.6070   26.8738 C   0  0  0  0  0  0  0  0  0  0  0  0
    7.4701  -14.6766   25.8638 C   0  0  0  0  0  0  0  0  0  0  0  0
    8.7818  -15.4427   26.0340 C   0  0  2  0  0  0  0  0  0  0  0  0
    8.8650  -16.4812   25.0071 N   0  0  0  0  0  0  0  0  0  0  0  0
    8.8297  -16.0205   27.3781 C   0  0  0  0  0  0  0  0  0  0  0  0
    8.3666  -17.1516   27.6286 O   0  0  0  0  0  0  0  0  0  0  0  0
    9.4003  -15.3422   28.4686 O   0  0  0  0  0  0  0  0  0  0  0  0
  1  5  1  0
  2  3  1  0
  2  1  1  0
  3  4  1  0
  4  5  1  0
  5  6  1  1
  6  7  2  0
  9  8  1  0
  9 19  2  0
 10  9  1  0
 11 10  2  0
 11 12  1  0
 12 18  2  0
 13 12  1  0
 14 13  1  6
 14 16  1  0
 15 14  1  0
 15  6  1  0
 16 17  2  0
 16 25  1  0
 18 19  1  0
 21 22  1  0
 21 20  1  0
 22 23  1  0
 24 23  1  1
 24 26  1  0
 25 24  1  0
 26 27  2  0
 26 28  1  0
M  END
$$$$
