PYM.pdb
     RDKit          3D

 28 29  0  0  1  0  0  0  0  0999 V2000
    9.3048  -14.9813   18.5970 N   0  0  0  0  0  0  0  0  0  0  0  0
    8.6821  -14.9571   17.2878 C   0  0  0  0  0  0  0  0  0  0  0  0
    7.9951  -13.6167   17.1894 C   0  0  0  0  0  0  0  0  0  0  0  0
    7.5611  -13.3588   18.5962 C   0  0  0  0  0  0  0  0  0  0  0  0
    8.6000  -14.0479   19.4178 C   0  0  1  0  0  0  0  0  0  0  0  0
    8.0529  -14.6694   20.6539 C   0  0  0  0  0  0  0  0  0  0  0  0
    7.2467  -14.0353   21.3817 O   0  0  0  0  0  0  0  0  0  0  0  0
    7.1883  -21.5671   26.5035 O   0  0  0  0  0  0  0  0  0  0  0  0
    7.4783  -20.7058   25.4488 C   0  0  0  0  0  0  0  0  0  0  0  0
    6.4523  -20.2352   24.6550 C   0  0  0  0  0  0  0  0  0  0  0  0
    6.7113  -19.3835   23.6067 C   0  0  0  0  0  0  0  0  0  0  0  0
    8.0060  -18.9527   23.2902 C   0  0  0  0  0  0  0  0  0  0  0  0
    8.2970  -18.0880   22.1665 C   0  0  0  0  0  0  0  0  0  0  0  0
    7.9384  -16.6596   22.2255 C   0  0  2  0  0  0  0  0  0  0  0  0
    8.4509  -15.9860   21.0029 N   0  0  0  0  0  0  0  0  0  0  0  0
    8.5163  -15.9435   23.3670 C   0  0  0  0  0  0  0  0  0  0  0  0
    9.7333  -15.5843   23.3160 O   0  0  0  0  0  0  0  0  0  0  0  0
    9.0132  -19.4341   24.0949 C   0  0  0  0  0  0  0  0  0  0  0  0
    8.7614  -20.2989   25.1610 C   0  0  0  0  0  0  0  0  0  0  0  0
    5.5686  -11.2194   26.6185 C   0  0  0  0  0  0  0  0  0  0  0  0
    6.8935  -11.6133   27.8021 S   0  0  0  0  0  0  0  0  0  0  0  0
    8.0051  -12.8633   27.1728 C   0  0  0  0  0  0  0  0  0  0  0  0
    7.4857  -13.7014   26.0618 C   0  0  0  0  0  0  0  0  0  0  0  0
    8.4857  -14.7385   25.5510 C   0  0  2  0  0  0  0  0  0  0  0  0
    7.8254  -15.5930   24.5642 N   0  0  0  0  0  0  0  0  0  0  0  0
    8.9852  -15.5221   26.6821 C   0  0  0  0  0  0  0  0  0  0  0  0
    8.5731  -16.6753   26.9209 O   0  0  0  0  0  0  0  0  0  0  0  0
    9.9589  -15.0291   27.5672 O   0  0  0  0  0  0  0  0  0  0  0  0
  1  5  1  0
  2  3  1  0
  2  1  1  0
  3  4  1  0
  4  5  1  0
  5  6  1  1
  6  7  2  0
  9  8  1  0
  9 19  2  0
 10  9  1  0
 11 10  2  0
 11 12  1  0
 12 18  2  0
 13 12  1  0
 14 13  1  6
 14 16  1  0
 15 14  1  0
 15  6  1  0
 16 17  2  0
 16 25  1  0
 18 19  1  0
 21 22  1  0
 21 20  1  0
 22 23  1  0
 24 23  1  1
 24 26  1  0
 25 24  1  0
 26 27  2  0
 26 28  1  0
M  END
$$$$
