PYM.pdb
     RDKit          3D

 28 29  0  0  1  0  0  0  0  0999 V2000
    9.0165  -15.1605   18.5817 N   0  0  0  0  0  0  0  0  0  0  0  0
    8.2150  -15.0777   17.3762 C   0  0  0  0  0  0  0  0  0  0  0  0
    7.6586  -13.6747   17.3539 C   0  0  0  0  0  0  0  0  0  0  0  0
    7.4627  -13.3692   18.8038 C   0  0  0  0  0  0  0  0  0  0  0  0
    8.5361  -14.1575   19.4787 C   0  0  1  0  0  0  0  0  0  0  0  0
    8.1158  -14.7159   20.7922 C   0  0  0  0  0  0  0  0  0  0  0  0
    7.5343  -13.9874   21.6365 O   0  0  0  0  0  0  0  0  0  0  0  0
    6.5298  -21.5167   26.5238 O   0  0  0  0  0  0  0  0  0  0  0  0
    6.9294  -20.7088   25.4626 C   0  0  0  0  0  0  0  0  0  0  0  0
    8.0480  -19.9124   25.5997 C   0  0  0  0  0  0  0  0  0  0  0  0
    8.4643  -19.1050   24.5671 C   0  0  0  0  0  0  0  0  0  0  0  0
    7.7904  -19.0454   23.3407 C   0  0  0  0  0  0  0  0  0  0  0  0
    8.1949  -18.1714   22.2600 C   0  0  0  0  0  0  0  0  0  0  0  0
    7.7923  -16.7536   22.2709 C   0  0  2  0  0  0  0  0  0  0  0  0
    8.3785  -16.0799   21.0819 N   0  0  0  0  0  0  0  0  0  0  0  0
    8.2593  -16.0072   23.4433 C   0  0  0  0  0  0  0  0  0  0  0  0
    9.4821  -15.6712   23.5117 O   0  0  0  0  0  0  0  0  0  0  0  0
    6.6783  -19.8478   23.2261 C   0  0  0  0  0  0  0  0  0  0  0  0
    6.2471  -20.6707   24.2677 C   0  0  0  0  0  0  0  0  0  0  0  0
    6.2431  -10.0733   26.3674 C   0  0  0  0  0  0  0  0  0  0  0  0
    6.2278  -11.4901   27.5092 S   0  0  0  0  0  0  0  0  0  0  0  0
    7.4016  -12.7499   27.0305 C   0  0  0  0  0  0  0  0  0  0  0  0
    6.9344  -13.7272   26.0140 C   0  0  0  0  0  0  0  0  0  0  0  0
    8.0142  -14.7090   25.5592 C   0  0  2  0  0  0  0  0  0  0  0  0
    7.4516  -15.6020   24.5463 N   0  0  0  0  0  0  0  0  0  0  0  0
    8.4995  -15.4600   26.7182 C   0  0  0  0  0  0  0  0  0  0  0  0
    8.0457  -16.5835   27.0155 O   0  0  0  0  0  0  0  0  0  0  0  0
    9.5058  -14.9671   27.5662 O   0  0  0  0  0  0  0  0  0  0  0  0
  1  5  1  0
  2  3  1  0
  2  1  1  0
  3  4  1  0
  4  5  1  0
  5  6  1  1
  6  7  2  0
  9  8  1  0
  9 19  2  0
 10  9  1  0
 11 10  2  0
 11 12  1  0
 12 18  2  0
 13 12  1  0
 14 13  1  1
 14 16  1  0
 15 14  1  0
 15  6  1  0
 16 17  2  0
 16 25  1  0
 18 19  1  0
 21 22  1  0
 21 20  1  0
 22 23  1  0
 24 23  1  1
 24 26  1  0
 25 24  1  0
 26 27  2  0
 26 28  1  0
M  END
$$$$
