PYM.pdb
     RDKit          3D

 28 29  0  0  1  0  0  0  0  0999 V2000
    8.9185  -18.0096   19.0565 N   0  0  0  0  0  0  0  0  0  0  0  0
    7.9166  -18.0316   18.0086 C   0  0  0  0  0  0  0  0  0  0  0  0
    8.4172  -17.0817   16.9478 C   0  0  0  0  0  0  0  0  0  0  0  0
    9.1235  -16.0325   17.7443 C   0  0  0  0  0  0  0  0  0  0  0  0
    9.6282  -16.7752   18.9371 C   0  0  1  0  0  0  0  0  0  0  0  0
    9.5930  -15.9697   20.1875 C   0  0  0  0  0  0  0  0  0  0  0  0
   10.1750  -14.8562   20.2436 O   0  0  0  0  0  0  0  0  0  0  0  0
    5.8736  -11.7907   26.9046 O   0  0  0  0  0  0  0  0  0  0  0  0
    6.2329  -12.6907   25.9050 C   0  0  0  0  0  0  0  0  0  0  0  0
    6.0332  -14.0416   26.1042 C   0  0  0  0  0  0  0  0  0  0  0  0
    6.3792  -14.9520   25.1332 C   0  0  0  0  0  0  0  0  0  0  0  0
    6.9433  -14.5685   23.9098 C   0  0  0  0  0  0  0  0  0  0  0  0
    7.3480  -15.5184   22.8954 C   0  0  0  0  0  0  0  0  0  0  0  0
    8.7765  -15.6877   22.5744 C   0  0  2  0  0  0  0  0  0  0  0  0
    8.8953  -16.4717   21.3165 N   0  0  0  0  0  0  0  0  0  0  0  0
    9.5368  -16.4190   23.5927 C   0  0  0  0  0  0  0  0  0  0  0  0
   10.0216  -17.5557   23.3003 O   0  0  0  0  0  0  0  0  0  0  0  0
    7.1332  -13.2170   23.7327 C   0  0  0  0  0  0  0  0  0  0  0  0
    6.7857  -12.2847   24.7116 C   0  0  0  0  0  0  0  0  0  0  0  0
   10.4803  -12.8241   29.5171 C   0  0  0  0  0  0  0  0  0  0  0  0
    9.7448  -14.4115   29.0166 S   0  0  0  0  0  0  0  0  0  0  0  0
   10.7614  -15.2766   27.8282 C   0  0  0  0  0  0  0  0  0  0  0  0
   10.1862  -16.5221   27.2588 C   0  0  0  0  0  0  0  0  0  0  0  0
   10.6075  -16.7929   25.8146 C   0  0  2  0  0  0  0  0  0  0  0  0
    9.8005  -15.9648   24.9185 N   0  0  0  0  0  0  0  0  0  0  0  0
   10.4331  -18.2166   25.5221 C   0  0  0  0  0  0  0  0  0  0  0  0
   11.4006  -19.0016   25.4567 O   0  0  0  0  0  0  0  0  0  0  0  0
    9.1695  -18.7895   25.2993 O   0  0  0  0  0  0  0  0  0  0  0  0
  1  5  1  0
  2  3  1  0
  2  1  1  0
  3  4  1  0
  4  5  1  0
  5  6  1  1
  6  7  2  0
  9  8  1  0
  9 19  2  0
 10  9  1  0
 11 10  2  0
 11 12  1  0
 12 18  2  0
 13 12  1  0
 14 13  1  1
 14 16  1  0
 15 14  1  0
 15  6  1  0
 16 17  2  0
 16 25  1  0
 18 19  1  0
 21 22  1  0
 21 20  1  0
 22 23  1  0
 24 23  1  1
 24 26  1  0
 25 24  1  0
 26 27  2  0
 26 28  1  0
M  END
$$$$
