VNV.pdb
     RDKit          3D

 23 22  0  0  1  0  0  0  0  0999 V2000
    7.1749  -12.5763   20.1015 C   0  0  0  0  0  0  0  0  0  0  0  0
    8.5146  -13.1832   19.7679 C   0  0  2  0  0  0  0  0  0  0  0  0
    8.8806  -12.7248   18.3614 C   0  0  0  0  0  0  0  0  0  0  0  0
    8.4500  -14.6889   19.7317 C   0  0  2  0  0  0  0  0  0  0  0  0
    7.5104  -15.1509   18.7576 N   0  0  0  0  0  0  0  0  0  0  0  0
    8.0703  -15.2654   21.0477 C   0  0  0  0  0  0  0  0  0  0  0  0
    6.8772  -15.5381   21.3534 O   0  0  0  0  0  0  0  0  0  0  0  0
    8.1407  -18.8081   22.0449 N   0  0  0  0  0  0  0  0  0  0  0  0
    9.4205  -18.4033   22.4896 C   0  0  0  0  0  0  0  0  0  0  0  0
   10.4266  -18.9145   21.9552 O   0  0  0  0  0  0  0  0  0  0  0  0
    9.5223  -17.4087   23.5505 C   0  0  0  0  0  0  0  0  0  0  0  0
    8.7154  -16.1605   23.3150 C   0  0  2  0  0  0  0  0  0  0  0  0
    9.0571  -15.5378   22.0341 N   0  0  0  0  0  0  0  0  0  0  0  0
    9.0145  -15.1500   24.3663 C   0  0  0  0  0  0  0  0  0  0  0  0
   10.1341  -14.5749   24.4687 O   0  0  0  0  0  0  0  0  0  0  0  0
    5.9682  -13.8619   27.1107 C   0  0  0  0  0  0  0  0  0  0  0  0
    7.1393  -12.9826   26.7550 C   0  0  2  0  0  0  0  0  0  0  0  0
    6.7709  -12.2110   25.5091 C   0  0  0  0  0  0  0  0  0  0  0  0
    8.3352  -13.8542   26.4280 C   0  0  2  0  0  0  0  0  0  0  0  0
    8.0335  -14.7646   25.3392 N   0  0  0  0  0  0  0  0  0  0  0  0
    8.8018  -14.5979   27.6102 C   0  0  0  0  0  0  0  0  0  0  0  0
    8.6707  -15.8511   27.6285 O   0  0  0  0  0  0  0  0  0  0  0  0
    9.3681  -13.9154   28.6652 O   0  0  0  0  0  0  0  0  0  0  0  0
  2  1  1  6
  2  3  1  0
  4  2  1  0
  4  5  1  6
  6  4  1  0
  6 13  1  0
  7  6  2  0
  8  9  1  0
  9 11  1  0
  9 10  2  0
 12 11  1  1
 12 13  1  0
 12 14  1  0
 14 20  1  0
 15 14  2  0
 17 16  1  6
 18 17  1  0
 19 17  1  0
 19 21  1  0
 19 20  1  6
 21 23  1  0
 22 21  2  0
M  END
$$$$
