VNV.pdb
     RDKit          3D

 23 22  0  0  1  0  0  0  0  0999 V2000
    8.5572  -12.7026   20.5948 C   0  0  0  0  0  0  0  0  0  0  0  0
    7.8236  -13.7015   19.7355 C   0  0  2  0  0  0  0  0  0  0  0  0
    6.6661  -12.9639   19.0734 C   0  0  0  0  0  0  0  0  0  0  0  0
    7.2187  -14.8080   20.5615 C   0  0  2  0  0  0  0  0  0  0  0  0
    6.3182  -14.2953   21.5472 N   0  0  0  0  0  0  0  0  0  0  0  0
    8.2526  -15.6167   21.2583 C   0  0  0  0  0  0  0  0  0  0  0  0
    8.8770  -16.5565   20.6942 O   0  0  0  0  0  0  0  0  0  0  0  0
   12.2733  -17.9816   22.8652 N   0  0  0  0  0  0  0  0  0  0  0  0
   12.1087  -16.6017   23.1264 C   0  0  0  0  0  0  0  0  0  0  0  0
   12.9436  -16.0296   23.8576 O   0  0  0  0  0  0  0  0  0  0  0  0
   10.9768  -15.8971   22.5369 C   0  0  0  0  0  0  0  0  0  0  0  0
    9.6825  -16.0575   23.2878 C   0  0  2  0  0  0  0  0  0  0  0  0
    8.5853  -15.3576   22.6159 N   0  0  0  0  0  0  0  0  0  0  0  0
    9.7976  -15.4542   24.6437 C   0  0  0  0  0  0  0  0  0  0  0  0
   10.7814  -15.6621   25.4077 O   0  0  0  0  0  0  0  0  0  0  0  0
    6.4580  -13.4690   26.4557 C   0  0  0  0  0  0  0  0  0  0  0  0
    7.8406  -12.9144   26.6834 C   0  0  2  0  0  0  0  0  0  0  0  0
    8.0966  -11.8716   25.6203 C   0  0  0  0  0  0  0  0  0  0  0  0
    8.8577  -14.0236   26.5042 C   0  0  2  0  0  0  0  0  0  0  0  0
    8.7822  -14.5883   25.1698 N   0  0  0  0  0  0  0  0  0  0  0  0
    8.6954  -15.0758   27.5214 C   0  0  0  0  0  0  0  0  0  0  0  0
    8.2402  -16.1963   27.1671 O   0  0  0  0  0  0  0  0  0  0  0  0
    9.0412  -14.8178   28.8304 O   0  0  0  0  0  0  0  0  0  0  0  0
  2  1  1  1
  2  3  1  0
  4  2  1  0
  4  5  1  1
  6  4  1  0
  6 13  1  0
  7  6  2  0
  8  9  1  0
  9 11  1  0
  9 10  2  0
 12 11  1  6
 12 13  1  0
 12 14  1  0
 14 20  1  0
 15 14  2  0
 17 16  1  6
 18 17  1  0
 19 17  1  0
 19 21  1  0
 19 20  1  6
 21 23  1  0
 22 21  2  0
M  END
$$$$
