VNV.pdb
     RDKit          3D

 23 22  0  0  1  0  0  0  0  0999 V2000
    9.0445  -12.7156   20.5133 C   0  0  0  0  0  0  0  0  0  0  0  0
    8.0013  -13.4865   19.7440 C   0  0  2  0  0  0  0  0  0  0  0  0
    6.6448  -13.1283   20.3389 C   0  0  0  0  0  0  0  0  0  0  0  0
    8.1714  -14.9747   19.9136 C   0  0  2  0  0  0  0  0  0  0  0  0
    7.2258  -15.7044   19.1272 N   0  0  0  0  0  0  0  0  0  0  0  0
    8.0175  -15.3986   21.3297 C   0  0  0  0  0  0  0  0  0  0  0  0
    6.8915  -15.5343   21.8818 O   0  0  0  0  0  0  0  0  0  0  0  0
    8.6946  -18.7280   22.5040 N   0  0  0  0  0  0  0  0  0  0  0  0
    9.8938  -18.4779   23.2103 C   0  0  0  0  0  0  0  0  0  0  0  0
   10.7470  -19.3872   23.2773 O   0  0  0  0  0  0  0  0  0  0  0  0
   10.0931  -17.1750   23.8330 C   0  0  0  0  0  0  0  0  0  0  0  0
    9.0299  -16.1600   23.5099 C   0  0  2  0  0  0  0  0  0  0  0  0
    9.1569  -15.6736   22.1342 N   0  0  0  0  0  0  0  0  0  0  0  0
    9.1726  -14.9690   24.3913 C   0  0  0  0  0  0  0  0  0  0  0  0
   10.2147  -14.2565   24.4213 O   0  0  0  0  0  0  0  0  0  0  0  0
    5.9018  -13.5516   26.8121 C   0  0  0  0  0  0  0  0  0  0  0  0
    7.0651  -12.6745   26.4266 C   0  0  2  0  0  0  0  0  0  0  0  0
    6.7555  -12.0702   25.0767 C   0  0  0  0  0  0  0  0  0  0  0  0
    8.3074  -13.5303   26.2815 C   0  0  2  0  0  0  0  0  0  0  0  0
    8.1185  -14.5548   25.2716 N   0  0  0  0  0  0  0  0  0  0  0  0
    8.7004  -14.1353   27.5652 C   0  0  0  0  0  0  0  0  0  0  0  0
    9.0163  -13.3772   28.5210 O   0  0  0  0  0  0  0  0  0  0  0  0
    8.7151  -15.5072   27.6961 O   0  0  0  0  0  0  0  0  0  0  0  0
  2  1  1  1
  2  3  1  0
  4  2  1  0
  4  5  1  6
  6  4  1  0
  6 13  1  0
  7  6  2  0
  8  9  1  0
  9 11  1  0
  9 10  2  0
 12 11  1  1
 12 13  1  0
 12 14  1  0
 14 20  1  0
 15 14  2  0
 17 16  1  6
 18 17  1  0
 19 17  1  0
 19 21  1  0
 19 20  1  6
 21 23  1  0
 22 21  2  0
M  END
$$$$
