VNV.pdb
     RDKit          3D

 23 22  0  0  1  0  0  0  0  0999 V2000
    7.2020  -12.5853   20.3794 C   0  0  0  0  0  0  0  0  0  0  0  0
    8.4539  -13.2972   19.9319 C   0  0  2  0  0  0  0  0  0  0  0  0
    8.7421  -12.8500   18.5040 C   0  0  0  0  0  0  0  0  0  0  0  0
    8.2591  -14.7915   19.8889 C   0  0  2  0  0  0  0  0  0  0  0  0
    7.2592  -15.1634   18.9365 N   0  0  0  0  0  0  0  0  0  0  0  0
    7.8642  -15.3436   21.2109 C   0  0  0  0  0  0  0  0  0  0  0  0
    6.6665  -15.6018   21.5112 O   0  0  0  0  0  0  0  0  0  0  0  0
    9.7279  -19.0118   22.0325 N   0  0  0  0  0  0  0  0  0  0  0  0
    8.8043  -18.5274   22.9873 C   0  0  0  0  0  0  0  0  0  0  0  0
    7.6867  -19.0782   23.0686 O   0  0  0  0  0  0  0  0  0  0  0  0
    9.1852  -17.4078   23.8398 C   0  0  0  0  0  0  0  0  0  0  0  0
    8.4725  -16.1186   23.5319 C   0  0  2  0  0  0  0  0  0  0  0  0
    8.8408  -15.6078   22.2096 N   0  0  0  0  0  0  0  0  0  0  0  0
    8.8645  -15.0689   24.5118 C   0  0  0  0  0  0  0  0  0  0  0  0
   10.0542  -14.6699   24.6533 O   0  0  0  0  0  0  0  0  0  0  0  0
    5.8919  -13.1774   26.9354 C   0  0  0  0  0  0  0  0  0  0  0  0
    7.1827  -12.4665   26.6202 C   0  0  2  0  0  0  0  0  0  0  0  0
    6.9853  -11.7106   25.3269 C   0  0  0  0  0  0  0  0  0  0  0  0
    8.2754  -13.4932   26.3990 C   0  0  2  0  0  0  0  0  0  0  0  0
    7.8988  -14.4395   25.3656 N   0  0  0  0  0  0  0  0  0  0  0  0
    8.6163  -14.1975   27.6464 C   0  0  0  0  0  0  0  0  0  0  0  0
    9.0961  -13.5349   28.6049 O   0  0  0  0  0  0  0  0  0  0  0  0
    8.4060  -15.5563   27.7413 O   0  0  0  0  0  0  0  0  0  0  0  0
  2  1  1  6
  2  3  1  0
  4  2  1  0
  4  5  1  6
  6  4  1  0
  6 13  1  0
  7  6  2  0
  8  9  1  0
  9 11  1  0
  9 10  2  0
 12 11  1  1
 12 13  1  0
 12 14  1  0
 14 20  1  0
 15 14  2  0
 17 16  1  6
 18 17  1  0
 19 17  1  0
 19 21  1  0
 19 20  1  6
 21 23  1  0
 22 21  2  0
M  END
$$$$
