VNV.pdb
     RDKit          3D

 23 22  0  0  1  0  0  0  0  0999 V2000
    7.0739  -12.6505   20.2428 C   0  0  0  0  0  0  0  0  0  0  0  0
    8.4252  -13.1674   19.8174 C   0  0  2  0  0  0  0  0  0  0  0  0
    8.6901  -12.6375   18.4134 C   0  0  0  0  0  0  0  0  0  0  0  0
    8.4415  -14.6720   19.7247 C   0  0  2  0  0  0  0  0  0  0  0  0
    7.4973  -15.1491   18.7625 N   0  0  0  0  0  0  0  0  0  0  0  0
    8.1367  -15.3172   21.0283 C   0  0  0  0  0  0  0  0  0  0  0  0
    6.9834  -15.7281   21.3320 O   0  0  0  0  0  0  0  0  0  0  0  0
   10.3527  -18.9480   21.6677 N   0  0  0  0  0  0  0  0  0  0  0  0
    9.3978  -18.4893   22.6043 C   0  0  0  0  0  0  0  0  0  0  0  0
    8.2881  -19.0597   22.6523 O   0  0  0  0  0  0  0  0  0  0  0  0
    9.7384  -17.3726   23.4773 C   0  0  0  0  0  0  0  0  0  0  0  0
    8.8820  -16.1496   23.2888 C   0  0  2  0  0  0  0  0  0  0  0  0
    9.1539  -15.5003   22.0044 N   0  0  0  0  0  0  0  0  0  0  0  0
    9.1869  -15.1423   24.3414 C   0  0  0  0  0  0  0  0  0  0  0  0
   10.2939  -14.5393   24.4163 O   0  0  0  0  0  0  0  0  0  0  0  0
    6.1210  -13.7442   26.9690 C   0  0  0  0  0  0  0  0  0  0  0  0
    7.3343  -12.9148   26.6354 C   0  0  2  0  0  0  0  0  0  0  0  0
    7.0476  -12.1820   25.3455 C   0  0  0  0  0  0  0  0  0  0  0  0
    8.5157  -13.8339   26.3979 C   0  0  2  0  0  0  0  0  0  0  0  0
    8.2264  -14.7924   25.3478 N   0  0  0  0  0  0  0  0  0  0  0  0
    8.9195  -14.5259   27.6333 C   0  0  0  0  0  0  0  0  0  0  0  0
    9.3450  -13.8399   28.6009 O   0  0  0  0  0  0  0  0  0  0  0  0
    8.8255  -15.8990   27.7075 O   0  0  0  0  0  0  0  0  0  0  0  0
  2  1  1  6
  2  3  1  0
  4  2  1  0
  4  5  1  6
  6  4  1  0
  6 13  1  0
  7  6  2  0
  8  9  1  0
  9 11  1  0
  9 10  2  0
 12 11  1  1
 12 13  1  0
 12 14  1  0
 14 20  1  0
 15 14  2  0
 17 16  1  6
 18 17  1  0
 19 17  1  0
 19 21  1  0
 19 20  1  6
 21 23  1  0
 22 21  2  0
M  END
$$$$
