VNV.pdb
     RDKit          3D

 23 22  0  0  1  0  0  0  0  0999 V2000
    6.9731  -12.9270   19.6240 C   0  0  0  0  0  0  0  0  0  0  0  0
    8.4070  -13.3909   19.5690 C   0  0  2  0  0  0  0  0  0  0  0  0
    8.9828  -12.9219   18.2384 C   0  0  0  0  0  0  0  0  0  0  0  0
    8.5061  -14.8951   19.5799 C   0  0  2  0  0  0  0  0  0  0  0  0
    7.9296  -15.4679   18.4032 N   0  0  0  0  0  0  0  0  0  0  0  0
    7.8311  -15.4927   20.7613 C   0  0  0  0  0  0  0  0  0  0  0  0
    6.9201  -16.3593   20.6596 O   0  0  0  0  0  0  0  0  0  0  0  0
    5.8840  -17.7452   24.8332 N   0  0  0  0  0  0  0  0  0  0  0  0
    7.2406  -17.8701   24.4542 C   0  0  0  0  0  0  0  0  0  0  0  0
    8.0013  -18.5480   25.1761 O   0  0  0  0  0  0  0  0  0  0  0  0
    7.7033  -17.2074   23.2410 C   0  0  0  0  0  0  0  0  0  0  0  0
    7.5723  -15.7084   23.2602 C   0  0  2  0  0  0  0  0  0  0  0  0
    8.1931  -15.1032   22.0798 N   0  0  0  0  0  0  0  0  0  0  0  0
    8.2812  -15.1463   24.4423 C   0  0  0  0  0  0  0  0  0  0  0  0
    9.5268  -15.2609   24.6158 O   0  0  0  0  0  0  0  0  0  0  0  0
    6.0960  -13.1392   27.5375 C   0  0  0  0  0  0  0  0  0  0  0  0
    7.4337  -12.6073   27.0915 C   0  0  2  0  0  0  0  0  0  0  0  0
    7.1863  -11.6350   25.9616 C   0  0  0  0  0  0  0  0  0  0  0  0
    8.2685  -13.7503   26.5499 C   0  0  2  0  0  0  0  0  0  0  0  0
    7.5803  -14.4308   25.4690 N   0  0  0  0  0  0  0  0  0  0  0  0
    8.6346  -14.7029   27.6113 C   0  0  0  0  0  0  0  0  0  0  0  0
    8.1355  -15.8598   27.5859 O   0  0  0  0  0  0  0  0  0  0  0  0
    9.5086  -14.3150   28.6039 O   0  0  0  0  0  0  0  0  0  0  0  0
  2  1  1  6
  2  3  1  0
  4  2  1  0
  4  5  1  6
  6  4  1  0
  6 13  1  0
  7  6  2  0
  8  9  1  0
  9 11  1  0
  9 10  2  0
 12 11  1  6
 12 13  1  0
 12 14  1  0
 14 20  1  0
 15 14  2  0
 17 16  1  6
 18 17  1  0
 19 17  1  0
 19 21  1  0
 19 20  1  6
 21 23  1  0
 22 21  2  0
M  END
$$$$
