VNV.pdb
     RDKit          3D

 23 22  0  0  1  0  0  0  0  0999 V2000
    7.1667  -12.7125   19.9321 C   0  0  0  0  0  0  0  0  0  0  0  0
    8.5139  -13.3607   19.7341 C   0  0  2  0  0  0  0  0  0  0  0  0
    9.0423  -12.9001   18.3810 C   0  0  0  0  0  0  0  0  0  0  0  0
    8.4048  -14.8629   19.6702 C   0  0  2  0  0  0  0  0  0  0  0  0
    7.6825  -15.2880   18.5114 N   0  0  0  0  0  0  0  0  0  0  0  0
    7.7287  -15.4272   20.8672 C   0  0  0  0  0  0  0  0  0  0  0  0
    6.5053  -15.7345   20.8772 O   0  0  0  0  0  0  0  0  0  0  0  0
    6.1679  -17.6257   25.2567 N   0  0  0  0  0  0  0  0  0  0  0  0
    7.4586  -18.0156   24.8306 C   0  0  0  0  0  0  0  0  0  0  0  0
    8.1362  -18.7513   25.5780 O   0  0  0  0  0  0  0  0  0  0  0  0
    7.9523  -17.5485   23.5410 C   0  0  0  0  0  0  0  0  0  0  0  0
    7.7794  -16.0724   23.3042 C   0  0  2  0  0  0  0  0  0  0  0  0
    8.4490  -15.6473   22.0729 N   0  0  0  0  0  0  0  0  0  0  0  0
    8.4050  -15.2984   24.4111 C   0  0  0  0  0  0  0  0  0  0  0  0
    9.6479  -15.2998   24.6346 O   0  0  0  0  0  0  0  0  0  0  0  0
    5.9514  -12.9741   27.0045 C   0  0  0  0  0  0  0  0  0  0  0  0
    7.3730  -12.5412   26.7539 C   0  0  2  0  0  0  0  0  0  0  0  0
    7.3669  -11.6199   25.5563 C   0  0  0  0  0  0  0  0  0  0  0  0
    8.2091  -13.7559   26.4046 C   0  0  2  0  0  0  0  0  0  0  0  0
    7.6206  -14.4933   25.3023 N   0  0  0  0  0  0  0  0  0  0  0  0
    8.4009  -14.6341   27.5709 C   0  0  0  0  0  0  0  0  0  0  0  0
    7.8228  -15.7538   27.5881 O   0  0  0  0  0  0  0  0  0  0  0  0
    9.2019  -14.2187   28.6128 O   0  0  0  0  0  0  0  0  0  0  0  0
  2  1  1  6
  2  3  1  0
  4  2  1  0
  4  5  1  6
  6  4  1  0
  6 13  1  0
  7  6  2  0
  8  9  1  0
  9 11  1  0
  9 10  2  0
 12 11  1  1
 12 13  1  0
 12 14  1  0
 14 20  1  0
 15 14  2  0
 17 16  1  6
 18 17  1  0
 19 17  1  0
 19 21  1  0
 19 20  1  6
 21 23  1  0
 22 21  2  0
M  END
$$$$
