VNV.pdb
     RDKit          3D

 23 22  0  0  1  0  0  0  0  0999 V2000
    6.3854  -14.2595   19.1003 C   0  0  0  0  0  0  0  0  0  0  0  0
    7.6425  -13.4941   19.4295 C   0  0  2  0  0  0  0  0  0  0  0  0
    8.3572  -13.2120   18.1136 C   0  0  0  0  0  0  0  0  0  0  0  0
    8.5880  -14.3126   20.2714 C   0  0  2  0  0  0  0  0  0  0  0  0
    8.9297  -15.5444   19.6304 N   0  0  0  0  0  0  0  0  0  0  0  0
    8.0176  -14.6307   21.6063 C   0  0  0  0  0  0  0  0  0  0  0  0
    7.5402  -13.7485   22.3711 O   0  0  0  0  0  0  0  0  0  0  0  0
    5.4614  -17.7547   21.8844 N   0  0  0  0  0  0  0  0  0  0  0  0
    6.2896  -18.5053   22.7505 C   0  0  0  0  0  0  0  0  0  0  0  0
    6.1289  -19.7423   22.8056 O   0  0  0  0  0  0  0  0  0  0  0  0
    7.2973  -17.8142   23.5456 C   0  0  0  0  0  0  0  0  0  0  0  0
    7.3344  -16.3230   23.3462 C   0  0  2  0  0  0  0  0  0  0  0  0
    7.9872  -15.9694   22.0837 N   0  0  0  0  0  0  0  0  0  0  0  0
    8.1327  -15.6806   24.4260 C   0  0  0  0  0  0  0  0  0  0  0  0
    9.3900  -15.7721   24.4991 O   0  0  0  0  0  0  0  0  0  0  0  0
    8.5073  -12.0064   27.6322 C   0  0  0  0  0  0  0  0  0  0  0  0
    7.6943  -12.7558   26.6082 C   0  0  2  0  0  0  0  0  0  0  0  0
    6.2943  -12.9071   27.1562 C   0  0  0  0  0  0  0  0  0  0  0  0
    8.2776  -14.1429   26.4275 C   0  0  2  0  0  0  0  0  0  0  0  0
    7.5107  -14.9083   25.4625 N   0  0  0  0  0  0  0  0  0  0  0  0
    8.3649  -14.8640   27.7083 C   0  0  0  0  0  0  0  0  0  0  0  0
    7.5876  -15.8349   27.9114 O   0  0  0  0  0  0  0  0  0  0  0  0
    9.2870  -14.4671   28.6527 O   0  0  0  0  0  0  0  0  0  0  0  0
  2  1  1  6
  2  3  1  0
  4  2  1  0
  4  5  1  6
  6  4  1  0
  6 13  1  0
  7  6  2  0
  8  9  1  0
  9 11  1  0
  9 10  2  0
 12 11  1  1
 12 13  1  0
 12 14  1  0
 14 20  1  0
 15 14  2  0
 17 16  1  1
 18 17  1  0
 19 17  1  0
 19 21  1  0
 19 20  1  6
 21 23  1  0
 22 21  2  0
M  END
$$$$
