VNV.pdb
     RDKit          3D

 23 22  0  0  1  0  0  0  0  0999 V2000
    7.8800  -12.6594   18.2622 C   0  0  0  0  0  0  0  0  0  0  0  0
    7.7432  -13.3663   19.5873 C   0  0  2  0  0  0  0  0  0  0  0  0
    8.5467  -12.5707   20.6088 C   0  0  0  0  0  0  0  0  0  0  0  0
    8.3416  -14.7493   19.5447 C   0  0  2  0  0  0  0  0  0  0  0  0
    7.7376  -15.5516   18.5266 N   0  0  0  0  0  0  0  0  0  0  0  0
    8.1966  -15.4629   20.8401 C   0  0  0  0  0  0  0  0  0  0  0  0
    7.1142  -15.9970   21.2064 O   0  0  0  0  0  0  0  0  0  0  0  0
    9.3175  -19.5125   22.6251 N   0  0  0  0  0  0  0  0  0  0  0  0
   10.1495  -18.4188   22.2918 C   0  0  0  0  0  0  0  0  0  0  0  0
   10.7813  -18.4566   21.2154 O   0  0  0  0  0  0  0  0  0  0  0  0
   10.2415  -17.2904   23.2102 C   0  0  0  0  0  0  0  0  0  0  0  0
    9.1696  -16.2498   23.0292 C   0  0  2  0  0  0  0  0  0  0  0  0
    9.2949  -15.5737   21.7360 N   0  0  0  0  0  0  0  0  0  0  0  0
    9.2992  -15.1932   24.0697 C   0  0  0  0  0  0  0  0  0  0  0  0
   10.3553  -14.5226   24.2411 O   0  0  0  0  0  0  0  0  0  0  0  0
    7.2988  -11.9339   27.1105 C   0  0  0  0  0  0  0  0  0  0  0  0
    7.1191  -12.9685   26.0297 C   0  0  2  0  0  0  0  0  0  0  0  0
    5.9219  -13.8133   26.3988 C   0  0  0  0  0  0  0  0  0  0  0  0
    8.3358  -13.8715   25.9975 C   0  0  2  0  0  0  0  0  0  0  0  0
    8.2152  -14.8702   24.9519 N   0  0  0  0  0  0  0  0  0  0  0  0
    8.5676  -14.5135   27.3022 C   0  0  0  0  0  0  0  0  0  0  0  0
    8.2940  -15.7366   27.4329 O   0  0  0  0  0  0  0  0  0  0  0  0
    9.0750  -13.7712   28.3468 O   0  0  0  0  0  0  0  0  0  0  0  0
  2  1  1  6
  2  3  1  0
  4  2  1  0
  4  5  1  6
  6  4  1  0
  6 13  1  0
  7  6  2  0
  8  9  1  0
  9 11  1  0
  9 10  2  0
 12 11  1  1
 12 13  1  0
 12 14  1  0
 14 20  1  0
 15 14  2  0
 17 16  1  1
 18 17  1  0
 19 17  1  0
 19 21  1  0
 19 20  1  6
 21 23  1  0
 22 21  2  0
M  END
$$$$
