VNV.pdb
     RDKit          3D

 23 22  0  0  1  0  0  0  0  0999 V2000
    7.0954  -12.8415   19.9040 C   0  0  0  0  0  0  0  0  0  0  0  0
    8.4992  -13.3347   19.6585 C   0  0  2  0  0  0  0  0  0  0  0  0
    8.9665  -12.7296   18.3403 C   0  0  0  0  0  0  0  0  0  0  0  0
    8.5414  -14.8320   19.4890 C   0  0  2  0  0  0  0  0  0  0  0  0
    7.8487  -15.2466   18.3086 N   0  0  0  0  0  0  0  0  0  0  0  0
    7.9433  -15.5443   20.6482 C   0  0  0  0  0  0  0  0  0  0  0  0
    7.1044  -16.4770   20.5158 O   0  0  0  0  0  0  0  0  0  0  0  0
    8.3766  -19.2595   24.6317 N   0  0  0  0  0  0  0  0  0  0  0  0
    7.5933  -18.1697   24.1866 C   0  0  0  0  0  0  0  0  0  0  0  0
    6.5350  -17.9080   24.7954 O   0  0  0  0  0  0  0  0  0  0  0  0
    8.0444  -17.3925   23.0387 C   0  0  0  0  0  0  0  0  0  0  0  0
    7.7650  -15.9169   23.1356 C   0  0  2  0  0  0  0  0  0  0  0  0
    8.3006  -15.1952   21.9791 N   0  0  0  0  0  0  0  0  0  0  0  0
    8.4360  -15.3452   24.3350 C   0  0  0  0  0  0  0  0  0  0  0  0
    9.6908  -15.3193   24.4743 O   0  0  0  0  0  0  0  0  0  0  0  0
    6.0675  -13.2227   27.1249 C   0  0  0  0  0  0  0  0  0  0  0  0
    7.4818  -12.7942   26.8295 C   0  0  2  0  0  0  0  0  0  0  0  0
    7.4440  -11.8954   25.6155 C   0  0  0  0  0  0  0  0  0  0  0  0
    8.3095  -14.0151   26.4813 C   0  0  2  0  0  0  0  0  0  0  0  0
    7.6849  -14.7816   25.4194 N   0  0  0  0  0  0  0  0  0  0  0  0
    8.5456  -14.8631   27.6616 C   0  0  0  0  0  0  0  0  0  0  0  0
    7.9884  -15.9920   27.7181 O   0  0  0  0  0  0  0  0  0  0  0  0
    9.3644  -14.4103   28.6736 O   0  0  0  0  0  0  0  0  0  0  0  0
  2  1  1  6
  2  3  1  0
  4  2  1  0
  4  5  1  6
  6  4  1  0
  6 13  1  0
  7  6  2  0
  8  9  1  0
  9 11  1  0
  9 10  2  0
 12 11  1  6
 12 13  1  0
 12 14  1  0
 14 20  1  0
 15 14  2  0
 17 16  1  6
 18 17  1  0
 19 17  1  0
 19 21  1  0
 19 20  1  6
 21 23  1  0
 22 21  2  0
M  END
$$$$
