SKV.pdb
     RDKit          3D

 23 22  0  0  1  0  0  0  0  0999 V2000
    8.6482  -14.0332   18.9698 O   0  0  0  0  0  0  0  0  0  0  0  0
    9.2422  -15.0329   19.7209 C   0  0  0  0  0  0  0  0  0  0  0  0
    8.2107  -16.1486   19.8882 C   0  0  2  0  0  0  0  0  0  0  0  0
    7.3644  -16.1194   18.7394 N   0  0  0  0  0  0  0  0  0  0  0  0
    7.5123  -15.9020   21.1559 C   0  0  0  0  0  0  0  0  0  0  0  0
    6.4914  -15.1769   21.1594 O   0  0  0  0  0  0  0  0  0  0  0  0
    7.9731  -16.4644   22.3472 N   0  0  0  0  0  0  0  0  0  0  0  0
    7.3078  -16.2889   23.6437 C   0  0  1  0  0  0  0  0  0  0  0  0
    7.1900  -17.6515   24.2329 C   0  0  0  0  0  0  0  0  0  0  0  0
    6.6549  -18.6426   23.2586 C   0  0  0  0  0  0  0  0  0  0  0  0
    6.4867  -20.0193   23.9067 C   0  0  0  0  0  0  0  0  0  0  0  0
    5.9998  -20.9581   22.8126 C   0  0  0  0  0  0  0  0  0  0  0  0
    5.7492  -22.2839   23.2880 N   0  0  0  0  0  0  0  0  0  0  0  0
    8.0028  -15.2907   24.4573 C   0  0  0  0  0  0  0  0  0  0  0  0
    9.2480  -15.1457   24.4681 O   0  0  0  0  0  0  0  0  0  0  0  0
    5.8863  -12.7370   27.1689 C   0  0  0  0  0  0  0  0  0  0  0  0
    7.0941  -12.2206   26.4413 C   0  0  2  0  0  0  0  0  0  0  0  0
    6.6378  -11.4928   25.2145 C   0  0  0  0  0  0  0  0  0  0  0  0
    7.9833  -13.4177   26.1082 C   0  0  2  0  0  0  0  0  0  0  0  0
    7.2739  -14.3897   25.3187 N   0  0  0  0  0  0  0  0  0  0  0  0
    8.4320  -14.0262   27.3829 C   0  0  0  0  0  0  0  0  0  0  0  0
    7.9740  -15.1343   27.7339 O   0  0  0  0  0  0  0  0  0  0  0  0
    9.3497  -13.4243   28.2258 O   0  0  0  0  0  0  0  0  0  0  0  0
  2  1  1  0
  2  3  1  0
  3  4  1  6
  3  5  1  0
  5  6  2  0
  7  5  1  0
  7  8  1  0
  8  9  1  1
  9 10  1  0
 11 12  1  0
 11 10  1  0
 12 13  1  0
 14  8  1  0
 14 15  2  0
 17 16  1  6
 17 19  1  0
 18 17  1  0
 19 21  1  0
 19 20  1  6
 20 14  1  0
 21 23  1  0
 22 21  2  0
M  END
$$$$
