SKV.pdb
     RDKit          3D

 23 22  0  0  1  0  0  0  0  0999 V2000
    9.0659  -15.1298   18.5033 O   0  0  0  0  0  0  0  0  0  0  0  0
    8.3238  -14.9721   19.6612 C   0  0  0  0  0  0  0  0  0  0  0  0
    7.6591  -16.3156   19.9608 C   0  0  2  0  0  0  0  0  0  0  0  0
    6.6333  -16.5078   18.9874 N   0  0  0  0  0  0  0  0  0  0  0  0
    7.1713  -16.2550   21.3443 C   0  0  0  0  0  0  0  0  0  0  0  0
    6.0927  -15.6667   21.5860 O   0  0  0  0  0  0  0  0  0  0  0  0
    7.8940  -16.8428   22.3836 N   0  0  0  0  0  0  0  0  0  0  0  0
    7.4399  -16.8718   23.7791 C   0  0  1  0  0  0  0  0  0  0  0  0
    7.7626  -18.2336   24.2881 C   0  0  0  0  0  0  0  0  0  0  0  0
    7.4675  -18.3770   25.7407 C   0  0  0  0  0  0  0  0  0  0  0  0
    7.7364  -19.8056   26.2208 C   0  0  0  0  0  0  0  0  0  0  0  0
    7.2997  -19.8640   27.6773 C   0  0  0  0  0  0  0  0  0  0  0  0
    7.3570  -21.1853   28.2227 N   0  0  0  0  0  0  0  0  0  0  0  0
    7.9992  -15.7501   24.5343 C   0  0  0  0  0  0  0  0  0  0  0  0
    9.1954  -15.3836   24.4535 O   0  0  0  0  0  0  0  0  0  0  0  0
    5.8704  -12.4244   25.6239 C   0  0  0  0  0  0  0  0  0  0  0  0
    6.6749  -12.9806   26.7634 C   0  0  2  0  0  0  0  0  0  0  0  0
    7.2481  -11.8391   27.5453 C   0  0  0  0  0  0  0  0  0  0  0  0
    7.7588  -13.8805   26.1718 C   0  0  2  0  0  0  0  0  0  0  0  0
    7.1825  -14.9789   25.4418 N   0  0  0  0  0  0  0  0  0  0  0  0
    8.5919  -14.3907   27.2862 C   0  0  0  0  0  0  0  0  0  0  0  0
    8.3014  -15.4785   27.8275 O   0  0  0  0  0  0  0  0  0  0  0  0
    9.6981  -13.7165   27.7728 O   0  0  0  0  0  0  0  0  0  0  0  0
  2  1  1  0
  2  3  1  0
  3  4  1  6
  3  5  1  0
  5  6  2  0
  7  5  1  0
  7  8  1  0
  8  9  1  1
  9 10  1  0
 11 12  1  0
 11 10  1  0
 12 13  1  0
 14  8  1  0
 14 15  2  0
 17 16  1  6
 17 19  1  0
 18 17  1  0
 19 21  1  0
 19 20  1  1
 20 14  1  0
 21 23  1  0
 22 21  2  0
M  END
$$$$
