SKV.pdb
     RDKit          3D

 23 22  0  0  1  0  0  0  0  0999 V2000
   11.0271  -13.2234   19.4818 O   0  0  0  0  0  0  0  0  0  0  0  0
   10.2718  -14.3829   19.5188 C   0  0  0  0  0  0  0  0  0  0  0  0
    8.8128  -13.9812   19.3029 C   0  0  2  0  0  0  0  0  0  0  0  0
    8.8075  -12.6243   18.8607 N   0  0  0  0  0  0  0  0  0  0  0  0
    8.1134  -14.2017   20.5750 C   0  0  0  0  0  0  0  0  0  0  0  0
    7.6727  -13.2155   21.2082 O   0  0  0  0  0  0  0  0  0  0  0  0
    7.9373  -15.4909   21.0799 N   0  0  0  0  0  0  0  0  0  0  0  0
    7.2008  -15.7908   22.3136 C   0  0  1  0  0  0  0  0  0  0  0  0
    6.9915  -17.2652   22.3191 C   0  0  0  0  0  0  0  0  0  0  0  0
    6.0607  -17.7063   21.2435 C   0  0  0  0  0  0  0  0  0  0  0  0
    5.9929  -19.2336   21.1635 C   0  0  0  0  0  0  0  0  0  0  0  0
    5.1228  -19.5675   19.9606 C   0  0  0  0  0  0  0  0  0  0  0  0
    5.0115  -20.9747   19.7280 N   0  0  0  0  0  0  0  0  0  0  0  0
    7.8843  -15.2305   23.4800 C   0  0  0  0  0  0  0  0  0  0  0  0
    9.1313  -15.1715   23.5946 O   0  0  0  0  0  0  0  0  0  0  0  0
    6.4278  -12.0465   25.4092 C   0  0  0  0  0  0  0  0  0  0  0  0
    6.9090  -13.0621   26.4050 C   0  0  2  0  0  0  0  0  0  0  0  0
    7.6084  -12.3451   27.5184 C   0  0  0  0  0  0  0  0  0  0  0  0
    7.8323  -14.0327   25.6702 C   0  0  2  0  0  0  0  0  0  0  0  0
    7.1408  -14.6982   24.5976 N   0  0  0  0  0  0  0  0  0  0  0  0
    8.3286  -15.0271   26.6506 C   0  0  0  0  0  0  0  0  0  0  0  0
    7.7187  -16.1074   26.7983 O   0  0  0  0  0  0  0  0  0  0  0  0
    9.4541  -14.8234   27.4297 O   0  0  0  0  0  0  0  0  0  0  0  0
  2  1  1  0
  2  3  1  0
  3  4  1  1
  3  5  1  0
  5  6  2  0
  7  5  1  0
  7  8  1  0
  8  9  1  1
  9 10  1  0
 11 12  1  0
 11 10  1  0
 12 13  1  0
 14  8  1  0
 14 15  2  0
 17 16  1  6
 17 19  1  0
 18 17  1  0
 19 21  1  0
 19 20  1  6
 20 14  1  0
 21 23  1  0
 22 21  2  0
M  END
$$$$
