SKV.pdb
     RDKit          3D

 23 22  0  0  1  0  0  0  0  0999 V2000
    6.6610  -18.2007   25.1183 O   0  0  0  0  0  0  0  0  0  0  0  0
    5.6061  -17.8848   24.2794 C   0  0  0  0  0  0  0  0  0  0  0  0
    6.1053  -18.0427   22.8433 C   0  0  2  0  0  0  0  0  0  0  0  0
    6.4724  -19.4109   22.6699 N   0  0  0  0  0  0  0  0  0  0  0  0
    7.2135  -17.0958   22.6667 C   0  0  0  0  0  0  0  0  0  0  0  0
    8.3910  -17.5193   22.7102 O   0  0  0  0  0  0  0  0  0  0  0  0
    6.9671  -15.7388   22.4526 N   0  0  0  0  0  0  0  0  0  0  0  0
    8.0223  -14.7233   22.3541 C   0  0  1  0  0  0  0  0  0  0  0  0
    7.6384  -13.8407   21.2177 C   0  0  0  0  0  0  0  0  0  0  0  0
    8.2277  -14.2946   19.9275 C   0  0  0  0  0  0  0  0  0  0  0  0
    7.8729  -13.3339   18.7896 C   0  0  0  0  0  0  0  0  0  0  0  0
    8.4413  -13.9409   17.5153 C   0  0  0  0  0  0  0  0  0  0  0  0
    8.1811  -13.1446   16.3556 N   0  0  0  0  0  0  0  0  0  0  0  0
    8.2344  -14.0628   23.6426 C   0  0  0  0  0  0  0  0  0  0  0  0
    8.1163  -12.8273   23.8195 O   0  0  0  0  0  0  0  0  0  0  0  0
    6.8328  -12.6918   25.4618 C   0  0  0  0  0  0  0  0  0  0  0  0
    7.3175  -13.6287   26.5305 C   0  0  2  0  0  0  0  0  0  0  0  0
    7.3855  -12.8809   27.8263 C   0  0  0  0  0  0  0  0  0  0  0  0
    8.6818  -14.1629   26.0970 C   0  0  2  0  0  0  0  0  0  0  0  0
    8.6021  -14.8174   24.8176 N   0  0  0  0  0  0  0  0  0  0  0  0
    9.1512  -15.1173   27.1290 C   0  0  0  0  0  0  0  0  0  0  0  0
    9.1726  -16.3405   26.8759 O   0  0  0  0  0  0  0  0  0  0  0  0
    9.5768  -14.7228   28.3853 O   0  0  0  0  0  0  0  0  0  0  0  0
  2  1  1  0
  2  3  1  0
  3  4  1  1
  3  5  1  0
  5  6  2  0
  7  5  1  0
  7  8  1  0
  8  9  1  6
  9 10  1  0
 11 12  1  0
 11 10  1  0
 12 13  1  0
 14  8  1  0
 14 15  2  0
 17 16  1  6
 17 19  1  0
 18 17  1  0
 19 21  1  0
 19 20  1  6
 20 14  1  0
 21 23  1  0
 22 21  2  0
M  END
$$$$
