SKV.pdb
     RDKit          3D

 23 22  0  0  1  0  0  0  0  0999 V2000
   10.0988  -13.1818   18.9559 O   0  0  0  0  0  0  0  0  0  0  0  0
    9.0529  -13.0392   19.8514 C   0  0  0  0  0  0  0  0  0  0  0  0
    8.1374  -14.2509   19.6768 C   0  0  2  0  0  0  0  0  0  0  0  0
    7.1059  -13.8751   18.7649 N   0  0  0  0  0  0  0  0  0  0  0  0
    7.6535  -14.6204   21.0129 C   0  0  0  0  0  0  0  0  0  0  0  0
    6.6681  -14.0159   21.4940 O   0  0  0  0  0  0  0  0  0  0  0  0
    8.2778  -15.6314   21.7450 N   0  0  0  0  0  0  0  0  0  0  0  0
    7.8205  -16.0856   23.0637 C   0  0  1  0  0  0  0  0  0  0  0  0
    8.2937  -17.4910   23.2011 C   0  0  0  0  0  0  0  0  0  0  0  0
    7.9914  -18.0587   24.5442 C   0  0  0  0  0  0  0  0  0  0  0  0
    8.5605  -19.4727   24.6874 C   0  0  0  0  0  0  0  0  0  0  0  0
    8.0662  -20.0069   26.0237 C   0  0  0  0  0  0  0  0  0  0  0  0
    8.4254  -21.3741   26.2435 N   0  0  0  0  0  0  0  0  0  0  0  0
    8.2424  -15.1560   24.1122 C   0  0  0  0  0  0  0  0  0  0  0  0
    9.4218  -14.7556   24.2545 O   0  0  0  0  0  0  0  0  0  0  0  0
    6.0352  -12.0796   25.3243 C   0  0  0  0  0  0  0  0  0  0  0  0
    6.5719  -12.8015   26.5267 C   0  0  2  0  0  0  0  0  0  0  0  0
    7.0010  -11.7866   27.5410 C   0  0  0  0  0  0  0  0  0  0  0  0
    7.7307  -13.6821   26.0615 C   0  0  2  0  0  0  0  0  0  0  0  0
    7.2978  -14.6316   25.0703 N   0  0  0  0  0  0  0  0  0  0  0  0
    8.2727  -14.3918   27.2443 C   0  0  0  0  0  0  0  0  0  0  0  0
    8.8506  -13.7441   28.1428 O   0  0  0  0  0  0  0  0  0  0  0  0
    8.1734  -15.7615   27.4148 O   0  0  0  0  0  0  0  0  0  0  0  0
  2  1  1  0
  2  3  1  0
  3  4  1  6
  3  5  1  0
  5  6  2  0
  7  5  1  0
  7  8  1  0
  8  9  1  1
  9 10  1  0
 11 12  1  0
 11 10  1  0
 12 13  1  0
 14  8  1  0
 14 15  2  0
 17 16  1  6
 17 19  1  0
 18 17  1  0
 19 21  1  0
 19 20  1  6
 20 14  1  0
 21 23  1  0
 22 21  2  0
M  END
$$$$
