SKV.pdb
     RDKit          3D

 23 22  0  0  1  0  0  0  0  0999 V2000
   11.8014  -18.8591   21.9367 O   0  0  0  0  0  0  0  0  0  0  0  0
   10.4989  -18.7097   21.4924 C   0  0  0  0  0  0  0  0  0  0  0  0
   10.3900  -17.3199   20.8652 C   0  0  2  0  0  0  0  0  0  0  0  0
   11.4767  -17.1810   19.9506 N   0  0  0  0  0  0  0  0  0  0  0  0
   10.4031  -16.3489   21.9665 C   0  0  0  0  0  0  0  0  0  0  0  0
   11.4306  -15.6602   22.1609 O   0  0  0  0  0  0  0  0  0  0  0  0
    9.2889  -16.1887   22.7916 N   0  0  0  0  0  0  0  0  0  0  0  0
    9.2249  -15.2277   23.8992 C   0  0  1  0  0  0  0  0  0  0  0  0
    7.7873  -14.8698   24.0502 C   0  0  0  0  0  0  0  0  0  0  0  0
    7.5769  -13.7958   25.0602 C   0  0  0  0  0  0  0  0  0  0  0  0
    6.1040  -13.3842   25.1305 C   0  0  0  0  0  0  0  0  0  0  0  0
    6.0150  -12.2608   26.1530 C   0  0  0  0  0  0  0  0  0  0  0  0
    4.6798  -11.7819   26.3386 N   0  0  0  0  0  0  0  0  0  0  0  0
    9.8877  -15.7585   25.0911 C   0  0  0  0  0  0  0  0  0  0  0  0
   10.0216  -16.9825   25.3264 O   0  0  0  0  0  0  0  0  0  0  0  0
   11.5232  -15.0602   29.6650 C   0  0  0  0  0  0  0  0  0  0  0  0
   10.9109  -14.4201   28.4524 C   0  0  2  0  0  0  0  0  0  0  0  0
    9.4981  -14.0414   28.7743 C   0  0  0  0  0  0  0  0  0  0  0  0
   10.9948  -15.4244   27.3040 C   0  0  2  0  0  0  0  0  0  0  0  0
   10.4411  -14.8781   26.0930 N   0  0  0  0  0  0  0  0  0  0  0  0
   10.2483  -16.6414   27.7017 C   0  0  0  0  0  0  0  0  0  0  0  0
    9.0440  -16.7575   27.3901 O   0  0  0  0  0  0  0  0  0  0  0  0
   10.8211  -17.6800   28.4145 O   0  0  0  0  0  0  0  0  0  0  0  0
  2  1  1  0
  2  3  1  0
  3  4  1  6
  3  5  1  0
  5  6  2  0
  7  5  1  0
  7  8  1  0
  8  9  1  1
  9 10  1  0
 11 12  1  0
 11 10  1  0
 12 13  1  0
 14  8  1  0
 14 15  2  0
 17 16  1  1
 17 19  1  0
 18 17  1  0
 19 21  1  0
 19 20  1  6
 20 14  1  0
 21 23  1  0
 22 21  2  0
M  END
$$$$
