FFA.pdb
     RDKit          3D

 28 29  0  0  1  0  0  0  0  0999 V2000
   23.2517  -12.3531  -18.5548 N   0  0  0  0  0  0  0  0  0  0  0  0
   23.3677  -11.8338  -17.2269 C   0  0  1  0  0  0  0  0  0  0  0  0
   24.7951  -11.6336  -16.7909 C   0  0  0  0  0  0  0  0  0  0  0  0
   25.5823  -12.8617  -16.7198 C   0  0  0  0  0  0  0  0  0  0  0  0
   26.5040  -13.2361  -17.6746 C   0  0  0  0  0  0  0  0  0  0  0  0
   27.2369  -14.3990  -17.5898 C   0  0  0  0  0  0  0  0  0  0  0  0
   27.0572  -15.2505  -16.5015 C   0  0  0  0  0  0  0  0  0  0  0  0
   26.1408  -14.8957  -15.5349 C   0  0  0  0  0  0  0  0  0  0  0  0
   25.4075  -13.7083  -15.6432 C   0  0  0  0  0  0  0  0  0  0  0  0
   22.7169  -10.5056  -17.1882 C   0  0  0  0  0  0  0  0  0  0  0  0
   22.7350   -9.7949  -18.2188 O   0  0  0  0  0  0  0  0  0  0  0  0
   22.0787  -10.0182  -16.0277 N   0  0  0  0  0  0  0  0  0  0  0  0
   21.2245   -8.8638  -16.1174 C   0  0  1  0  0  0  0  0  0  0  0  0
   19.8236   -9.2490  -15.6828 C   0  0  0  0  0  0  0  0  0  0  0  0
   19.2104   -9.9725  -16.8482 C   0  0  0  0  0  0  0  0  0  0  0  0
   18.6091   -9.2834  -17.8895 C   0  0  0  0  0  0  0  0  0  0  0  0
   18.0454   -9.9550  -18.9616 C   0  0  0  0  0  0  0  0  0  0  0  0
   18.0736  -11.3340  -19.0107 C   0  0  0  0  0  0  0  0  0  0  0  0
   18.6720  -11.9990  -17.9729 C   0  0  0  0  0  0  0  0  0  0  0  0
   19.2415  -11.3502  -16.8920 C   0  0  0  0  0  0  0  0  0  0  0  0
   21.7763   -7.7425  -15.3378 C   0  0  0  0  0  0  0  0  0  0  0  0
   22.2068   -7.9812  -14.1807 O   0  0  0  0  0  0  0  0  0  0  0  0
   22.7261   -4.2051  -15.9089 C   0  0  0  0  0  0  0  0  0  0  0  0
   22.5059   -5.4145  -15.0157 C   0  0  2  0  0  0  0  0  0  0  0  0
   21.8483   -6.4114  -15.8200 N   0  0  0  0  0  0  0  0  0  0  0  0
   21.7224   -5.0511  -13.8161 C   0  0  0  0  0  0  0  0  0  0  0  0
   22.2651   -4.3841  -12.9179 O   0  0  0  0  0  0  0  0  0  0  0  0
   20.4111   -5.4399  -13.6847 O   0  0  0  0  0  0  0  0  0  0  0  0
  2 10  1  0
  2  1  1  6
  3  2  1  0
  3  4  1  0
  4  5  2  0
  4  9  1  0
  5  6  1  0
  6  7  2  0
  8  7  1  0
  9  8  2  0
 10 11  2  0
 12 13  1  0
 12 10  1  0
 13 21  1  0
 14 15  1  0
 13 14  1  1
 15 20  2  0
 16 17  2  0
 16 15  1  0
 17 18  1  0
 18 19  2  0
 20 19  1  0
 21 22  2  0
 24 23  1  6
 24 26  1  0
 25 21  1  0
 25 24  1  0
 26 27  2  0
 26 28  1  0
M  END
$$$$
