FFA.pdb
     RDKit          3D

 28 29  0  0  1  0  0  0  0  0999 V2000
   26.2010  -23.6276  -17.2434 N   0  0  0  0  0  0  0  0  0  0  0  0
   26.2384  -22.2808  -16.7626 C   0  0  1  0  0  0  0  0  0  0  0  0
   25.3044  -21.3605  -17.5031 C   0  0  0  0  0  0  0  0  0  0  0  0
   25.8210  -20.8765  -18.7806 C   0  0  0  0  0  0  0  0  0  0  0  0
   26.6993  -19.8202  -18.9001 C   0  0  0  0  0  0  0  0  0  0  0  0
   27.1752  -19.3783  -20.1145 C   0  0  0  0  0  0  0  0  0  0  0  0
   26.7661  -20.0096  -21.2874 C   0  0  0  0  0  0  0  0  0  0  0  0
   25.8883  -21.0679  -21.1913 C   0  0  0  0  0  0  0  0  0  0  0  0
   25.4183  -21.4990  -19.9454 C   0  0  0  0  0  0  0  0  0  0  0  0
   25.8087  -22.2799  -15.3468 C   0  0  0  0  0  0  0  0  0  0  0  0
   25.0641  -23.2015  -14.9421 O   0  0  0  0  0  0  0  0  0  0  0  0
   26.2121  -21.2743  -14.4426 N   0  0  0  0  0  0  0  0  0  0  0  0
   25.8231  -21.3632  -13.0603 C   0  0  1  0  0  0  0  0  0  0  0  0
   26.8694  -20.6739  -12.2057 C   0  0  0  0  0  0  0  0  0  0  0  0
   26.3107  -20.6388  -10.8114 C   0  0  0  0  0  0  0  0  0  0  0  0
   25.8914  -19.4516  -10.2322 C   0  0  0  0  0  0  0  0  0  0  0  0
   25.3770  -19.4246   -8.9465 C   0  0  0  0  0  0  0  0  0  0  0  0
   25.2727  -20.5901   -8.2147 C   0  0  0  0  0  0  0  0  0  0  0  0
   25.6920  -21.7544   -8.8029 C   0  0  0  0  0  0  0  0  0  0  0  0
   26.2089  -21.8062  -10.0850 C   0  0  0  0  0  0  0  0  0  0  0  0
   24.4709  -20.8145  -12.8606 C   0  0  0  0  0  0  0  0  0  0  0  0
   24.1992  -19.7042  -13.3846 O   0  0  0  0  0  0  0  0  0  0  0  0
   22.3192  -19.4121  -11.7755 C   0  0  0  0  0  0  0  0  0  0  0  0
   22.1421  -20.8924  -12.0690 C   0  0  2  0  0  0  0  0  0  0  0  0
   23.4609  -21.4687  -12.1112 N   0  0  0  0  0  0  0  0  0  0  0  0
   21.3967  -21.0969  -13.3290 C   0  0  0  0  0  0  0  0  0  0  0  0
   21.9825  -21.5990  -14.3041 O   0  0  0  0  0  0  0  0  0  0  0  0
   20.0737  -20.7405  -13.4325 O   0  0  0  0  0  0  0  0  0  0  0  0
  2 10  1  0
  2  1  1  6
  3  2  1  0
  3  4  1  0
  4  5  2  0
  4  9  1  0
  5  6  1  0
  6  7  2  0
  8  7  1  0
  9  8  2  0
 10 11  2  0
 12 13  1  0
 12 10  1  0
 13 21  1  0
 14 15  1  0
 13 14  1  1
 15 20  2  0
 16 17  2  0
 16 15  1  0
 17 18  1  0
 18 19  2  0
 20 19  1  0
 21 22  2  0
 24 23  1  6
 24 26  1  0
 25 21  1  0
 25 24  1  0
 26 27  2  0
 26 28  1  0
M  END
$$$$
