FFA.pdb
     RDKit          3D

 28 29  0  0  1  0  0  0  0  0999 V2000
   26.0079  -22.0953  -12.8868 N   0  0  0  0  0  0  0  0  0  0  0  0
   26.0571  -20.8362  -12.2097 C   0  0  1  0  0  0  0  0  0  0  0  0
   24.7690  -20.0618  -12.3030 C   0  0  0  0  0  0  0  0  0  0  0  0
   24.5366  -19.4310  -13.5996 C   0  0  0  0  0  0  0  0  0  0  0  0
   23.7641  -19.9906  -14.5953 C   0  0  0  0  0  0  0  0  0  0  0  0
   23.5569  -19.3799  -15.8121 C   0  0  0  0  0  0  0  0  0  0  0  0
   24.1425  -18.1426  -16.0722 C   0  0  0  0  0  0  0  0  0  0  0  0
   24.9189  -17.5647  -15.0908 C   0  0  0  0  0  0  0  0  0  0  0  0
   25.1149  -18.2049  -13.8616 C   0  0  0  0  0  0  0  0  0  0  0  0
   26.3022  -21.0897  -10.7727 C   0  0  0  0  0  0  0  0  0  0  0  0
   25.8581  -22.1431  -10.2620 O   0  0  0  0  0  0  0  0  0  0  0  0
   27.0192  -20.1823   -9.9641 N   0  0  0  0  0  0  0  0  0  0  0  0
   27.3054  -20.5220   -8.5955 C   0  0  1  0  0  0  0  0  0  0  0  0
   28.5171  -19.7361   -8.1328 C   0  0  0  0  0  0  0  0  0  0  0  0
   28.5157  -19.8146   -6.6323 C   0  0  0  0  0  0  0  0  0  0  0  0
   27.9460  -18.8160   -5.8583 C   0  0  0  0  0  0  0  0  0  0  0  0
   27.9473  -18.8932   -4.4754 C   0  0  0  0  0  0  0  0  0  0  0  0
   28.5213  -19.9756   -3.8401 C   0  0  0  0  0  0  0  0  0  0  0  0
   29.0799  -20.9533   -4.6206 C   0  0  0  0  0  0  0  0  0  0  0  0
   29.0906  -20.8982   -6.0029 C   0  0  0  0  0  0  0  0  0  0  0  0
   26.1236  -20.3035   -7.7439 C   0  0  0  0  0  0  0  0  0  0  0  0
   25.5055  -19.2144   -7.8572 O   0  0  0  0  0  0  0  0  0  0  0  0
   23.3368  -21.7620   -6.5743 C   0  0  0  0  0  0  0  0  0  0  0  0
   24.4821  -20.9307   -6.0211 C   0  0  2  0  0  0  0  0  0  0  0  0
   25.6462  -21.2524   -6.8051 N   0  0  0  0  0  0  0  0  0  0  0  0
   24.6814  -21.1960   -4.5806 C   0  0  0  0  0  0  0  0  0  0  0  0
   25.7405  -21.7275   -4.2040 O   0  0  0  0  0  0  0  0  0  0  0  0
   23.7158  -20.8639   -3.6613 O   0  0  0  0  0  0  0  0  0  0  0  0
  2 10  1  0
  2  1  1  6
  3  2  1  0
  3  4  1  0
  4  5  2  0
  4  9  1  0
  5  6  1  0
  6  7  2  0
  8  7  1  0
  9  8  2  0
 10 11  2  0
 12 13  1  0
 12 10  1  0
 13 21  1  0
 14 15  1  0
 13 14  1  1
 15 20  2  0
 16 17  2  0
 16 15  1  0
 17 18  1  0
 18 19  2  0
 20 19  1  0
 21 22  2  0
 24 23  1  6
 24 26  1  0
 25 21  1  0
 25 24  1  0
 26 27  2  0
 26 28  1  0
M  END
$$$$
