FFA.pdb
     RDKit          3D

 28 29  0  0  1  0  0  0  0  0999 V2000
   28.8151  -20.4739  -11.4595 N   0  0  0  0  0  0  0  0  0  0  0  0
   27.6884  -21.2319  -11.0099 C   0  0  1  0  0  0  0  0  0  0  0  0
   27.5049  -21.1923   -9.5158 C   0  0  0  0  0  0  0  0  0  0  0  0
   28.7385  -21.3577   -8.7516 C   0  0  0  0  0  0  0  0  0  0  0  0
   29.0123  -20.6773   -7.5839 C   0  0  0  0  0  0  0  0  0  0  0  0
   30.1822  -20.8469   -6.8774 C   0  0  0  0  0  0  0  0  0  0  0  0
   31.1463  -21.7390   -7.3423 C   0  0  0  0  0  0  0  0  0  0  0  0
   30.8934  -22.4300   -8.5079 C   0  0  0  0  0  0  0  0  0  0  0  0
   29.6966  -22.2407   -9.2086 C   0  0  0  0  0  0  0  0  0  0  0  0
   26.4668  -20.6493  -11.6078 C   0  0  0  0  0  0  0  0  0  0  0  0
   26.1553  -19.4721  -11.3165 O   0  0  0  0  0  0  0  0  0  0  0  0
   25.6456  -21.3789  -12.4936 N   0  0  0  0  0  0  0  0  0  0  0  0
   24.6234  -20.6962  -13.2413 C   0  0  1  0  0  0  0  0  0  0  0  0
   25.0046  -20.6885  -14.7092 C   0  0  0  0  0  0  0  0  0  0  0  0
   26.1010  -19.6707  -14.8490 C   0  0  0  0  0  0  0  0  0  0  0  0
   27.4245  -20.0526  -15.0010 C   0  0  0  0  0  0  0  0  0  0  0  0
   28.4316  -19.1104  -15.1296 C   0  0  0  0  0  0  0  0  0  0  0  0
   28.1305  -17.7637  -15.1081 C   0  0  0  0  0  0  0  0  0  0  0  0
   26.8170  -17.4041  -14.9571 C   0  0  0  0  0  0  0  0  0  0  0  0
   25.7944  -18.3266  -14.8269 C   0  0  0  0  0  0  0  0  0  0  0  0
   23.3033  -21.3024  -12.9974 C   0  0  0  0  0  0  0  0  0  0  0  0
   23.2260  -22.5569  -12.9583 O   0  0  0  0  0  0  0  0  0  0  0  0
   19.8958  -20.2095  -12.0336 C   0  0  0  0  0  0  0  0  0  0  0  0
   20.8875  -21.2473  -12.5319 C   0  0  2  0  0  0  0  0  0  0  0  0
   22.1174  -20.5500  -12.8046 N   0  0  0  0  0  0  0  0  0  0  0  0
   20.3636  -21.9524  -13.7208 C   0  0  0  0  0  0  0  0  0  0  0  0
   20.7280  -21.5856  -14.8515 O   0  0  0  0  0  0  0  0  0  0  0  0
   19.4849  -23.0007  -13.5897 O   0  0  0  0  0  0  0  0  0  0  0  0
  2 10  1  0
  2  1  1  1
  3  2  1  0
  3  4  1  0
  4  5  2  0
  4  9  1  0
  5  6  1  0
  6  7  2  0
  8  7  1  0
  9  8  2  0
 10 11  2  0
 12 13  1  0
 12 10  1  0
 13 21  1  0
 14 15  1  0
 13 14  1  6
 15 20  2  0
 16 17  2  0
 16 15  1  0
 17 18  1  0
 18 19  2  0
 20 19  1  0
 21 22  2  0
 24 23  1  6
 24 26  1  0
 25 21  1  0
 25 24  1  0
 26 27  2  0
 26 28  1  0
M  END
$$$$
