FFA.pdb
     RDKit          3D

 28 29  0  0  1  0  0  0  0  0999 V2000
   26.8976  -21.3245  -12.7689 N   0  0  0  0  0  0  0  0  0  0  0  0
   26.7362  -20.1243  -12.0074 C   0  0  1  0  0  0  0  0  0  0  0  0
   25.4572  -19.3925  -12.3176 C   0  0  0  0  0  0  0  0  0  0  0  0
   25.4860  -18.6275  -13.5614 C   0  0  0  0  0  0  0  0  0  0  0  0
   26.2975  -17.5319  -13.7674 C   0  0  0  0  0  0  0  0  0  0  0  0
   26.3101  -16.8231  -14.9481 C   0  0  0  0  0  0  0  0  0  0  0  0
   25.4757  -17.2103  -15.9947 C   0  0  0  0  0  0  0  0  0  0  0  0
   24.6559  -18.3030  -15.8106 C   0  0  0  0  0  0  0  0  0  0  0  0
   24.6608  -19.0077  -14.6012 C   0  0  0  0  0  0  0  0  0  0  0  0
   26.6866  -20.4860  -10.5736 C   0  0  0  0  0  0  0  0  0  0  0  0
   26.4813  -21.6806  -10.2598 O   0  0  0  0  0  0  0  0  0  0  0  0
   26.8634  -19.5274   -9.5531 N   0  0  0  0  0  0  0  0  0  0  0  0
   27.1582  -19.9611   -8.2133 C   0  0  1  0  0  0  0  0  0  0  0  0
   27.8746  -18.8451   -7.4775 C   0  0  0  0  0  0  0  0  0  0  0  0
   28.2894  -19.4195   -6.1525 C   0  0  0  0  0  0  0  0  0  0  0  0
   29.3080  -20.3546   -6.0589 C   0  0  0  0  0  0  0  0  0  0  0  0
   29.6867  -20.8810   -4.8350 C   0  0  0  0  0  0  0  0  0  0  0  0
   29.0499  -20.4791   -3.6783 C   0  0  0  0  0  0  0  0  0  0  0  0
   28.0453  -19.5541   -3.7894 C   0  0  0  0  0  0  0  0  0  0  0  0
   27.6498  -19.0144   -5.0002 C   0  0  0  0  0  0  0  0  0  0  0  0
   25.9336  -20.4046   -7.5253 C   0  0  0  0  0  0  0  0  0  0  0  0
   24.8871  -19.7256   -7.6829 O   0  0  0  0  0  0  0  0  0  0  0  0
   24.6228  -23.4078   -5.8912 C   0  0  0  0  0  0  0  0  0  0  0  0
   24.6156  -21.9004   -6.0826 C   0  0  2  0  0  0  0  0  0  0  0  0
   25.8708  -21.5531   -6.6966 N   0  0  0  0  0  0  0  0  0  0  0  0
   24.4058  -21.2042   -4.7956 C   0  0  0  0  0  0  0  0  0  0  0  0
   25.3575  -20.5982   -4.2730 O   0  0  0  0  0  0  0  0  0  0  0  0
   23.1794  -21.2200   -4.1760 O   0  0  0  0  0  0  0  0  0  0  0  0
  2 10  1  0
  2  1  1  6
  3  2  1  0
  3  4  1  0
  4  5  2  0
  4  9  1  0
  5  6  1  0
  6  7  2  0
  8  7  1  0
  9  8  2  0
 10 11  2  0
 12 13  1  0
 12 10  1  0
 13 21  1  0
 14 15  1  0
 13 14  1  1
 15 20  2  0
 16 17  2  0
 16 15  1  0
 17 18  1  0
 18 19  2  0
 20 19  1  0
 21 22  2  0
 24 23  1  1
 24 26  1  0
 25 21  1  0
 25 24  1  0
 26 27  2  0
 26 28  1  0
M  END
$$$$
