FFA.pdb
     RDKit          3D

 28 29  0  0  1  0  0  0  0  0999 V2000
   26.1999  -27.3658  -19.9599 N   0  0  0  0  0  0  0  0  0  0  0  0
   25.5956  -28.2120  -18.9775 C   0  0  1  0  0  0  0  0  0  0  0  0
   24.3555  -28.9065  -19.4748 C   0  0  0  0  0  0  0  0  0  0  0  0
   23.2532  -28.0082  -19.8082 C   0  0  0  0  0  0  0  0  0  0  0  0
   22.7802  -27.8202  -21.0897 C   0  0  0  0  0  0  0  0  0  0  0  0
   21.7391  -26.9680  -21.3840 C   0  0  0  0  0  0  0  0  0  0  0  0
   21.1209  -26.2538  -20.3597 C   0  0  0  0  0  0  0  0  0  0  0  0
   21.5778  -26.4265  -19.0707 C   0  0  0  0  0  0  0  0  0  0  0  0
   22.6377  -27.2986  -18.7963 C   0  0  0  0  0  0  0  0  0  0  0  0
   26.5642  -29.2703  -18.6156 C   0  0  0  0  0  0  0  0  0  0  0  0
   27.3085  -29.7373  -19.5076 O   0  0  0  0  0  0  0  0  0  0  0  0
   26.6733  -29.7670  -17.2992 N   0  0  0  0  0  0  0  0  0  0  0  0
   27.7145  -30.7064  -16.9774 C   0  0  1  0  0  0  0  0  0  0  0  0
   28.6075  -30.1091  -15.9070 C   0  0  0  0  0  0  0  0  0  0  0  0
   29.2851  -28.9279  -16.5418 C   0  0  0  0  0  0  0  0  0  0  0  0
   28.7101  -27.6671  -16.5164 C   0  0  0  0  0  0  0  0  0  0  0  0
   29.3389  -26.5813  -17.1031 C   0  0  0  0  0  0  0  0  0  0  0  0
   30.5593  -26.7389  -17.7280 C   0  0  0  0  0  0  0  0  0  0  0  0
   31.1131  -27.9920  -17.7436 C   0  0  0  0  0  0  0  0  0  0  0  0
   30.5042  -29.0910  -17.1647 C   0  0  0  0  0  0  0  0  0  0  0  0
   27.1437  -32.0063  -16.5850 C   0  0  0  0  0  0  0  0  0  0  0  0
   27.9339  -32.9641  -16.3863 O   0  0  0  0  0  0  0  0  0  0  0  0
   23.8956  -33.3505  -15.4459 C   0  0  0  0  0  0  0  0  0  0  0  0
   25.3124  -33.5288  -15.9652 C   0  0  2  0  0  0  0  0  0  0  0  0
   25.7547  -32.2360  -16.4194 N   0  0  0  0  0  0  0  0  0  0  0  0
   25.3601  -34.5487  -17.0342 C   0  0  0  0  0  0  0  0  0  0  0  0
   25.1324  -34.2066  -18.2077 O   0  0  0  0  0  0  0  0  0  0  0  0
   25.6511  -35.8603  -16.7462 O   0  0  0  0  0  0  0  0  0  0  0  0
  2 10  1  0
  2  1  1  6
  3  2  1  0
  3  4  1  0
  4  5  2  0
  4  9  1  0
  5  6  1  0
  6  7  2  0
  8  7  1  0
  9  8  2  0
 10 11  2  0
 12 13  1  0
 12 10  1  0
 13 21  1  0
 14 15  1  0
 13 14  1  1
 15 20  2  0
 16 17  2  0
 16 15  1  0
 17 18  1  0
 18 19  2  0
 20 19  1  0
 21 22  2  0
 24 23  1  6
 24 26  1  0
 25 21  1  0
 25 24  1  0
 26 27  2  0
 26 28  1  0
M  END
$$$$
