LAL.pdb
     RDKit          3D

 22 21  0  0  1  0  0  0  0  0999 V2000
    9.9893  -13.2928   18.7728 C   0  0  0  0  0  0  0  0  0  0  0  0
    8.4833  -13.2176   18.6271 C   0  0  2  0  0  0  0  0  0  0  0  0
    7.9756  -11.8056   18.8190 C   0  0  0  0  0  0  0  0  0  0  0  0
    7.7704  -14.2122   19.4817 C   0  0  0  0  0  0  0  0  0  0  0  0
    8.3544  -15.5937   19.4358 C   0  0  2  0  0  0  0  0  0  0  0  0
    7.8388  -16.4059   18.3865 N   0  0  0  0  0  0  0  0  0  0  0  0
    8.1825  -16.2295   20.7703 C   0  0  0  0  0  0  0  0  0  0  0  0
    7.0378  -16.3398   21.2906 O   0  0  0  0  0  0  0  0  0  0  0  0
   10.0887  -18.3626   23.1653 C   0  0  0  0  0  0  0  0  0  0  0  0
    9.1193  -17.2196   22.8732 C   0  0  2  0  0  0  0  0  0  0  0  0
    9.2668  -16.7442   21.5341 N   0  0  0  0  0  0  0  0  0  0  0  0
    9.3649  -16.1392   23.8834 C   0  0  0  0  0  0  0  0  0  0  0  0
   10.4506  -15.5089   23.9269 O   0  0  0  0  0  0  0  0  0  0  0  0
    5.6286  -12.4059   26.9876 C   0  0  0  0  0  0  0  0  0  0  0  0
    7.0756  -12.8884   26.8487 C   0  0  2  0  0  0  0  0  0  0  0  0
    7.9757  -11.7366   26.7080 C   0  0  0  0  0  0  0  0  0  0  0  0
    7.1628  -14.0248   25.9232 C   0  0  0  0  0  0  0  0  0  0  0  0
    8.4665  -14.7010   25.7820 C   0  0  2  0  0  0  0  0  0  0  0  0
    8.3636  -15.8098   24.8145 N   0  0  0  0  0  0  0  0  0  0  0  0
    9.0646  -15.2406   26.9877 C   0  0  0  0  0  0  0  0  0  0  0  0
   10.0099  -14.7384   27.6088 O   0  0  0  0  0  0  0  0  0  0  0  0
    8.5442  -16.4436   27.5250 O   0  0  0  0  0  0  0  0  0  0  0  0
  2  1  1  1
  2  3  1  0
  4  2  1  0
  4  5  1  0
  5  6  1  6
  7  5  1  0
  8  7  2  0
 10  9  1  1
 10 11  1  0
 10 12  1  0
 11  7  1  0
 12 19  1  0
 13 12  2  0
 15 16  1  6
 15 14  1  0
 18 17  1  1
 17 15  1  0
 18 20  1  0
 19 18  1  0
 20 22  1  0
 21 20  2  0
M  END
$$$$
