LAL.pdb
     RDKit          3D

 22 21  0  0  1  0  0  0  0  0999 V2000
    9.6917  -13.7361   18.1741 C   0  0  0  0  0  0  0  0  0  0  0  0
    8.2119  -13.5859   18.4618 C   0  0  2  0  0  0  0  0  0  0  0  0
    7.7971  -12.1316   18.4991 C   0  0  0  0  0  0  0  0  0  0  0  0
    7.7795  -14.3443   19.6724 C   0  0  0  0  0  0  0  0  0  0  0  0
    8.2727  -15.7607   19.7200 C   0  0  2  0  0  0  0  0  0  0  0  0
    7.6420  -16.6256   18.7815 N   0  0  0  0  0  0  0  0  0  0  0  0
    8.1475  -16.2635   21.1150 C   0  0  0  0  0  0  0  0  0  0  0  0
    7.0140  -16.3949   21.6549 O   0  0  0  0  0  0  0  0  0  0  0  0
   10.2225  -18.0569   23.6447 C   0  0  0  0  0  0  0  0  0  0  0  0
    9.1454  -17.0381   23.2793 C   0  0  2  0  0  0  0  0  0  0  0  0
    9.2659  -16.6222   21.9179 N   0  0  0  0  0  0  0  0  0  0  0  0
    9.2611  -15.8856   24.2313 C   0  0  0  0  0  0  0  0  0  0  0  0
   10.2162  -15.0718   24.1717 O   0  0  0  0  0  0  0  0  0  0  0  0
    5.7092  -11.9958   26.9773 C   0  0  0  0  0  0  0  0  0  0  0  0
    7.1247  -12.5709   26.8705 C   0  0  2  0  0  0  0  0  0  0  0  0
    8.0099  -11.6022   26.2109 C   0  0  0  0  0  0  0  0  0  0  0  0
    7.0898  -13.9721   26.4336 C   0  0  0  0  0  0  0  0  0  0  0  0
    8.3749  -14.6831   26.2926 C   0  0  2  0  0  0  0  0  0  0  0  0
    8.2829  -15.6956   25.2238 N   0  0  0  0  0  0  0  0  0  0  0  0
    8.8923  -15.3518   27.4706 C   0  0  0  0  0  0  0  0  0  0  0  0
    9.5301  -14.8110   28.3831 O   0  0  0  0  0  0  0  0  0  0  0  0
    8.6644  -16.7421   27.6185 O   0  0  0  0  0  0  0  0  0  0  0  0
  2  1  1  1
  2  3  1  0
  4  2  1  0
  4  5  1  0
  5  6  1  6
  7  5  1  0
  8  7  2  0
 10  9  1  1
 10 11  1  0
 10 12  1  0
 11  7  1  0
 12 19  1  0
 13 12  2  0
 15 16  1  6
 15 14  1  0
 18 17  1  1
 17 15  1  0
 18 20  1  0
 19 18  1  0
 20 22  1  0
 21 20  2  0
M  END
$$$$
