LAL.pdb
     RDKit          3D

 22 21  0  0  1  0  0  0  0  0999 V2000
    8.9935  -12.6563   18.4089 C   0  0  0  0  0  0  0  0  0  0  0  0
    7.7222  -13.4319   18.6865 C   0  0  2  0  0  0  0  0  0  0  0  0
    6.4937  -12.6548   18.2680 C   0  0  0  0  0  0  0  0  0  0  0  0
    7.6444  -13.9285   20.0918 C   0  0  0  0  0  0  0  0  0  0  0  0
    8.9243  -14.5175   20.6082 C   0  0  2  0  0  0  0  0  0  0  0  0
    9.5588  -15.4111   19.6996 N   0  0  0  0  0  0  0  0  0  0  0  0
    8.6589  -15.1558   21.9261 C   0  0  0  0  0  0  0  0  0  0  0  0
    7.8006  -14.6737   22.7161 O   0  0  0  0  0  0  0  0  0  0  0  0
    9.6349  -18.3663   23.6778 C   0  0  0  0  0  0  0  0  0  0  0  0
    9.0441  -16.9594   23.6227 C   0  0  2  0  0  0  0  0  0  0  0  0
    9.3354  -16.3232   22.3772 N   0  0  0  0  0  0  0  0  0  0  0  0
    9.5860  -16.1874   24.7883 C   0  0  0  0  0  0  0  0  0  0  0  0
   10.8207  -16.0465   24.9718 O   0  0  0  0  0  0  0  0  0  0  0  0
    7.9296  -12.2804   25.7330 C   0  0  0  0  0  0  0  0  0  0  0  0
    7.1149  -13.3061   26.5267 C   0  0  2  0  0  0  0  0  0  0  0  0
    5.8709  -12.6923   27.0086 C   0  0  0  0  0  0  0  0  0  0  0  0
    7.9769  -14.0677   27.4390 C   0  0  0  0  0  0  0  0  0  0  0  0
    9.1315  -14.7824   26.8618 C   0  0  2  0  0  0  0  0  0  0  0  0
    8.7023  -15.5988   25.7107 N   0  0  0  0  0  0  0  0  0  0  0  0
    9.8791  -15.6534   27.7479 C   0  0  0  0  0  0  0  0  0  0  0  0
    9.8017  -16.8883   27.7767 O   0  0  0  0  0  0  0  0  0  0  0  0
   10.7832  -15.0713   28.6701 O   0  0  0  0  0  0  0  0  0  0  0  0
  2  1  1  1
  2  3  1  0
  4  2  1  0
  4  5  1  0
  5  6  1  6
  7  5  1  0
  8  7  2  0
 10  9  1  6
 10 11  1  0
 10 12  1  0
 11  7  1  0
 12 19  1  0
 13 12  2  0
 15 16  1  1
 15 14  1  0
 18 17  1  1
 17 15  1  0
 18 20  1  0
 19 18  1  0
 20 22  1  0
 21 20  2  0
M  END
$$$$
