LAL.pdb
     RDKit          3D

 22 21  0  0  1  0  0  0  0  0999 V2000
    9.5511  -13.6058   18.7111 C   0  0  0  0  0  0  0  0  0  0  0  0
    8.0460  -13.4590   18.8006 C   0  0  2  0  0  0  0  0  0  0  0  0
    7.6267  -12.0056   18.7847 C   0  0  0  0  0  0  0  0  0  0  0  0
    7.4588  -14.2204   19.9422 C   0  0  0  0  0  0  0  0  0  0  0  0
    7.8323  -15.6735   19.9698 C   0  0  2  0  0  0  0  0  0  0  0  0
    7.2016  -16.4530   18.9593 N   0  0  0  0  0  0  0  0  0  0  0  0
    7.5695  -16.2084   21.3335 C   0  0  0  0  0  0  0  0  0  0  0  0
    6.3893  -16.4201   21.7279 O   0  0  0  0  0  0  0  0  0  0  0  0
    8.8789  -18.4071   23.7756 C   0  0  0  0  0  0  0  0  0  0  0  0
    8.3431  -16.9901   23.5852 C   0  0  2  0  0  0  0  0  0  0  0  0
    8.6018  -16.5110   22.2644 N   0  0  0  0  0  0  0  0  0  0  0  0
    8.9687  -16.1177   24.6320 C   0  0  0  0  0  0  0  0  0  0  0  0
   10.1942  -15.8425   24.6175 O   0  0  0  0  0  0  0  0  0  0  0  0
    7.9132  -12.1048   25.5771 C   0  0  0  0  0  0  0  0  0  0  0  0
    6.9163  -12.9757   26.3476 C   0  0  2  0  0  0  0  0  0  0  0  0
    5.7834  -12.1583   26.8005 C   0  0  0  0  0  0  0  0  0  0  0  0
    7.6132  -13.8716   27.2788 C   0  0  0  0  0  0  0  0  0  0  0  0
    8.6945  -14.7196   26.7416 C   0  0  2  0  0  0  0  0  0  0  0  0
    8.1768  -15.5849   25.6650 N   0  0  0  0  0  0  0  0  0  0  0  0
    9.3899  -15.5773   27.6815 C   0  0  0  0  0  0  0  0  0  0  0  0
    9.1673  -16.7820   27.8568 O   0  0  0  0  0  0  0  0  0  0  0  0
   10.4167  -15.0179   28.4812 O   0  0  0  0  0  0  0  0  0  0  0  0
  2  1  1  1
  2  3  1  0
  4  2  1  0
  4  5  1  0
  5  6  1  6
  7  5  1  0
  8  7  2  0
 10  9  1  6
 10 11  1  0
 10 12  1  0
 11  7  1  0
 12 19  1  0
 13 12  2  0
 15 16  1  1
 15 14  1  0
 18 17  1  1
 17 15  1  0
 18 20  1  0
 19 18  1  0
 20 22  1  0
 21 20  2  0
M  END
$$$$
