LAL.pdb
     RDKit          3D

 22 21  0  0  1  0  0  0  0  0999 V2000
    9.5887  -13.5006   18.7137 C   0  0  0  0  0  0  0  0  0  0  0  0
    8.0777  -13.4831   18.8221 C   0  0  2  0  0  0  0  0  0  0  0  0
    7.5298  -12.0758   18.7338 C   0  0  0  0  0  0  0  0  0  0  0  0
    7.5760  -14.2280   20.0142 C   0  0  0  0  0  0  0  0  0  0  0  0
    8.1213  -15.6198   20.1446 C   0  0  2  0  0  0  0  0  0  0  0  0
    7.6180  -16.5324   19.1747 N   0  0  0  0  0  0  0  0  0  0  0  0
    7.8868  -16.0964   21.5347 C   0  0  0  0  0  0  0  0  0  0  0  0
    6.7150  -16.2902   21.9621 O   0  0  0  0  0  0  0  0  0  0  0  0
    9.3606  -18.1526   24.0577 C   0  0  0  0  0  0  0  0  0  0  0  0
    8.7072  -16.7976   23.7964 C   0  0  2  0  0  0  0  0  0  0  0  0
    8.9382  -16.3605   22.4561 N   0  0  0  0  0  0  0  0  0  0  0  0
    9.2441  -15.8263   24.8047 C   0  0  0  0  0  0  0  0  0  0  0  0
   10.3909  -15.3255   24.6949 O   0  0  0  0  0  0  0  0  0  0  0  0
    8.1906  -11.9493   25.8146 C   0  0  0  0  0  0  0  0  0  0  0  0
    7.1627  -12.8408   26.5179 C   0  0  2  0  0  0  0  0  0  0  0  0
    5.9920  -12.0438   26.9066 C   0  0  0  0  0  0  0  0  0  0  0  0
    7.8160  -13.7327   27.4839 C   0  0  0  0  0  0  0  0  0  0  0  0
    8.9228  -14.5805   27.0012 C   0  0  2  0  0  0  0  0  0  0  0  0
    8.4562  -15.4552   25.9089 N   0  0  0  0  0  0  0  0  0  0  0  0
    9.5787  -15.4291   27.9771 C   0  0  0  0  0  0  0  0  0  0  0  0
    9.4010  -16.6471   28.1064 O   0  0  0  0  0  0  0  0  0  0  0  0
   10.5073  -14.8436   28.8724 O   0  0  0  0  0  0  0  0  0  0  0  0
  2  1  1  1
  2  3  1  0
  4  2  1  0
  4  5  1  0
  5  6  1  6
  7  5  1  0
  8  7  2  0
 10  9  1  6
 10 11  1  0
 10 12  1  0
 11  7  1  0
 12 19  1  0
 13 12  2  0
 15 16  1  1
 15 14  1  0
 18 17  1  1
 17 15  1  0
 18 20  1  0
 19 18  1  0
 20 22  1  0
 21 20  2  0
M  END
$$$$
