LAL.pdb
     RDKit          3D

 22 21  0  0  1  0  0  0  0  0999 V2000
    9.9223  -21.8457   19.7333 C   0  0  0  0  0  0  0  0  0  0  0  0
    8.9029  -20.9748   20.4386 C   0  0  2  0  0  0  0  0  0  0  0  0
    7.5559  -21.0277   19.7522 C   0  0  0  0  0  0  0  0  0  0  0  0
    9.3883  -19.5807   20.6585 C   0  0  0  0  0  0  0  0  0  0  0  0
    8.6216  -18.8190   21.6995 C   0  0  2  0  0  0  0  0  0  0  0  0
    7.2133  -19.0190   21.6436 N   0  0  0  0  0  0  0  0  0  0  0  0
    8.9858  -17.3793   21.6029 C   0  0  0  0  0  0  0  0  0  0  0  0
   10.1903  -17.0108   21.6847 O   0  0  0  0  0  0  0  0  0  0  0  0
    7.2797  -14.1507   20.6513 C   0  0  0  0  0  0  0  0  0  0  0  0
    8.3827  -14.9628   21.3261 C   0  0  2  0  0  0  0  0  0  0  0  0
    8.0282  -16.3438   21.4165 N   0  0  0  0  0  0  0  0  0  0  0  0
    8.6386  -14.3589   22.6744 C   0  0  0  0  0  0  0  0  0  0  0  0
    9.1665  -13.2262   22.8024 O   0  0  0  0  0  0  0  0  0  0  0  0
    5.2472  -12.7560   26.6546 C   0  0  0  0  0  0  0  0  0  0  0  0
    6.7381  -12.9420   26.3570 C   0  0  2  0  0  0  0  0  0  0  0  0
    7.2966  -11.7014   25.8040 C   0  0  0  0  0  0  0  0  0  0  0  0
    6.9849  -14.2322   25.7013 C   0  0  0  0  0  0  0  0  0  0  0  0
    8.3458  -14.5017   25.1991 C   0  0  2  0  0  0  0  0  0  0  0  0
    8.2844  -15.0659   23.8375 N   0  0  0  0  0  0  0  0  0  0  0  0
    9.1786  -15.3865   25.9906 C   0  0  0  0  0  0  0  0  0  0  0  0
    9.5427  -15.1807   27.1554 O   0  0  0  0  0  0  0  0  0  0  0  0
    9.6292  -16.5970   25.4090 O   0  0  0  0  0  0  0  0  0  0  0  0
  2  1  1  6
  2  3  1  0
  4  2  1  0
  4  5  1  0
  5  6  1  6
  7  5  1  0
  8  7  2  0
 10  9  1  1
 10 11  1  0
 10 12  1  0
 11  7  1  0
 12 19  1  0
 13 12  2  0
 15 16  1  6
 15 14  1  0
 18 17  1  1
 17 15  1  0
 18 20  1  0
 19 18  1  0
 20 22  1  0
 21 20  2  0
M  END
$$$$
