LAL.pdb
     RDKit          3D

 22 21  0  0  1  0  0  0  0  0999 V2000
    7.7084  -13.0914   24.6522 C   0  0  0  0  0  0  0  0  0  0  0  0
    6.6256  -13.7458   25.4853 C   0  0  2  0  0  0  0  0  0  0  0  0
    6.4705  -13.0674   26.8285 C   0  0  0  0  0  0  0  0  0  0  0  0
    6.7981  -15.2241   25.5979 C   0  0  0  0  0  0  0  0  0  0  0  0
    6.8401  -15.9409   24.2803 C   0  0  2  0  0  0  0  0  0  0  0  0
    5.7209  -16.7889   24.0462 N   0  0  0  0  0  0  0  0  0  0  0  0
    8.1296  -16.6766   24.1776 C   0  0  0  0  0  0  0  0  0  0  0  0
    8.2585  -17.8273   24.6803 O   0  0  0  0  0  0  0  0  0  0  0  0
   11.5279  -16.1207   22.5790 C   0  0  0  0  0  0  0  0  0  0  0  0
   10.5445  -16.8106   23.5215 C   0  0  2  0  0  0  0  0  0  0  0  0
    9.2779  -16.1498   23.5234 N   0  0  0  0  0  0  0  0  0  0  0  0
   11.1630  -16.8439   24.8870 C   0  0  0  0  0  0  0  0  0  0  0  0
   12.3245  -17.2833   25.0763 O   0  0  0  0  0  0  0  0  0  0  0  0
   11.2274  -13.4270   27.9135 C   0  0  0  0  0  0  0  0  0  0  0  0
    9.8868  -14.1677   27.9133 C   0  0  2  0  0  0  0  0  0  0  0  0
    8.8681  -13.3586   28.5948 C   0  0  0  0  0  0  0  0  0  0  0  0
   10.0701  -15.5838   28.2543 C   0  0  0  0  0  0  0  0  0  0  0  0
   10.9406  -16.3962   27.3830 C   0  0  2  0  0  0  0  0  0  0  0  0
   10.4374  -16.3745   25.9966 N   0  0  0  0  0  0  0  0  0  0  0  0
   11.1269  -17.7872   27.7478 C   0  0  0  0  0  0  0  0  0  0  0  0
   11.8993  -18.2051   28.6199 O   0  0  0  0  0  0  0  0  0  0  0  0
   10.3748  -18.7754   27.0663 O   0  0  0  0  0  0  0  0  0  0  0  0
  2  1  1  1
  2  3  1  0
  4  2  1  0
  4  5  1  0
  5  6  1  1
  7  5  1  0
  8  7  2  0
 10  9  1  6
 10 11  1  0
 10 12  1  0
 11  7  1  0
 12 19  1  0
 13 12  2  0
 15 16  1  1
 15 14  1  0
 18 17  1  1
 17 15  1  0
 18 20  1  0
 19 18  1  0
 20 22  1  0
 21 20  2  0
M  END
$$$$
