LAL.pdb
     RDKit          3D

 22 21  0  0  1  0  0  0  0  0999 V2000
    6.1161  -21.5950   25.2119 C   0  0  0  0  0  0  0  0  0  0  0  0
    6.4685  -21.6254   23.7389 C   0  0  2  0  0  0  0  0  0  0  0  0
    7.0700  -22.9542   23.3379 C   0  0  0  0  0  0  0  0  0  0  0  0
    7.3028  -20.4605   23.3209 C   0  0  0  0  0  0  0  0  0  0  0  0
    6.7661  -19.1299   23.7604 C   0  0  2  0  0  0  0  0  0  0  0  0
    5.3974  -18.9195   23.4300 N   0  0  0  0  0  0  0  0  0  0  0  0
    7.6432  -18.0577   23.2166 C   0  0  0  0  0  0  0  0  0  0  0  0
    8.8995  -18.1779   23.2386 O   0  0  0  0  0  0  0  0  0  0  0  0
    7.1826  -14.7502   21.4119 C   0  0  0  0  0  0  0  0  0  0  0  0
    7.9886  -15.8168   22.1495 C   0  0  2  0  0  0  0  0  0  0  0  0
    7.1419  -16.8536   22.6486 N   0  0  0  0  0  0  0  0  0  0  0  0
    8.7528  -15.1384   23.2467 C   0  0  0  0  0  0  0  0  0  0  0  0
    9.7051  -14.3560   23.0035 O   0  0  0  0  0  0  0  0  0  0  0  0
    7.0609  -11.5679   26.0042 C   0  0  0  0  0  0  0  0  0  0  0  0
    7.2929  -13.0812   25.9571 C   0  0  2  0  0  0  0  0  0  0  0  0
    6.3903  -13.7554   26.8992 C   0  0  0  0  0  0  0  0  0  0  0  0
    8.7278  -13.3914   25.9421 C   0  0  0  0  0  0  0  0  0  0  0  0
    9.1277  -14.7974   25.7413 C   0  0  2  0  0  0  0  0  0  0  0  0
    8.4076  -15.3728   24.5897 N   0  0  0  0  0  0  0  0  0  0  0  0
    8.9401  -15.7031   26.8581 C   0  0  0  0  0  0  0  0  0  0  0  0
    9.3932  -15.5426   27.9985 O   0  0  0  0  0  0  0  0  0  0  0  0
    8.1778  -16.8802   26.6581 O   0  0  0  0  0  0  0  0  0  0  0  0
  2  1  1  1
  2  3  1  0
  4  2  1  0
  4  5  1  0
  5  6  1  6
  7  5  1  0
  8  7  2  0
 10  9  1  1
 10 11  1  0
 10 12  1  0
 11  7  1  0
 12 19  1  0
 13 12  2  0
 15 16  1  1
 15 14  1  0
 18 17  1  1
 17 15  1  0
 18 20  1  0
 19 18  1  0
 20 22  1  0
 21 20  2  0
M  END
$$$$
