LAL.pdb
     RDKit          3D

 22 21  0  0  1  0  0  0  0  0999 V2000
    7.4972  -13.1139   17.8045 C   0  0  0  0  0  0  0  0  0  0  0  0
    7.4606  -13.6495   19.2212 C   0  0  2  0  0  0  0  0  0  0  0  0
    7.9312  -12.6150   20.2195 C   0  0  0  0  0  0  0  0  0  0  0  0
    8.1673  -14.9565   19.3624 C   0  0  0  0  0  0  0  0  0  0  0  0
    7.7672  -15.7447   20.5750 C   0  0  2  0  0  0  0  0  0  0  0  0
    6.8683  -15.0595   21.4405 N   0  0  0  0  0  0  0  0  0  0  0  0
    8.9981  -16.1871   21.2848 C   0  0  0  0  0  0  0  0  0  0  0  0
    9.7100  -17.1212   20.8222 O   0  0  0  0  0  0  0  0  0  0  0  0
   11.8410  -15.2591   22.8340 C   0  0  0  0  0  0  0  0  0  0  0  0
   10.6009  -16.0677   23.2075 C   0  0  2  0  0  0  0  0  0  0  0  0
    9.4481  -15.6045   22.5022 N   0  0  0  0  0  0  0  0  0  0  0  0
   10.4241  -15.9778   24.6937 C   0  0  0  0  0  0  0  0  0  0  0  0
   11.3771  -16.1808   25.4866 O   0  0  0  0  0  0  0  0  0  0  0  0
    8.7237  -12.5850   26.9031 C   0  0  0  0  0  0  0  0  0  0  0  0
    7.5783  -13.4482   26.3656 C   0  0  2  0  0  0  0  0  0  0  0  0
    6.3217  -12.6887   26.3977 C   0  0  0  0  0  0  0  0  0  0  0  0
    7.6455  -14.8087   26.9132 C   0  0  0  0  0  0  0  0  0  0  0  0
    8.8759  -15.5878   26.6764 C   0  0  2  0  0  0  0  0  0  0  0  0
    9.1643  -15.6589   25.2315 N   0  0  0  0  0  0  0  0  0  0  0  0
    8.9060  -16.9453   27.1851 C   0  0  0  0  0  0  0  0  0  0  0  0
    8.5935  -17.9594   26.5481 O   0  0  0  0  0  0  0  0  0  0  0  0
    9.3246  -17.1617   28.5210 O   0  0  0  0  0  0  0  0  0  0  0  0
  2  1  1  6
  2  3  1  0
  4  2  1  0
  4  5  1  0
  5  6  1  1
  7  5  1  0
  8  7  2  0
 10  9  1  6
 10 11  1  0
 10 12  1  0
 11  7  1  0
 12 19  1  0
 13 12  2  0
 15 16  1  1
 15 14  1  0
 18 17  1  6
 17 15  1  0
 18 20  1  0
 19 18  1  0
 20 22  1  0
 21 20  2  0
M  END
$$$$
