LAL.pdb
     RDKit          3D

 22 21  0  0  1  0  0  0  0  0999 V2000
    7.5423  -11.5657   24.9931 C   0  0  0  0  0  0  0  0  0  0  0  0
    6.5264  -12.6202   25.3818 C   0  0  2  0  0  0  0  0  0  0  0  0
    5.9670  -12.3708   26.7650 C   0  0  0  0  0  0  0  0  0  0  0  0
    7.0409  -14.0101   25.2052 C   0  0  0  0  0  0  0  0  0  0  0  0
    8.0194  -14.1657   24.0783 C   0  0  2  0  0  0  0  0  0  0  0  0
    7.4512  -13.9738   22.7872 N   0  0  0  0  0  0  0  0  0  0  0  0
    8.6862  -15.4901   24.2040 C   0  0  0  0  0  0  0  0  0  0  0  0
    8.2003  -16.3902   24.9436 O   0  0  0  0  0  0  0  0  0  0  0  0
   11.6629  -17.2461   22.6321 C   0  0  0  0  0  0  0  0  0  0  0  0
   10.5086  -17.1088   23.6222 C   0  0  2  0  0  0  0  0  0  0  0  0
    9.8862  -15.8271   23.5182 N   0  0  0  0  0  0  0  0  0  0  0  0
   11.0504  -17.3605   24.9974 C   0  0  0  0  0  0  0  0  0  0  0  0
   11.9738  -18.1868   25.2034 O   0  0  0  0  0  0  0  0  0  0  0  0
   11.4885  -13.8132   27.6628 C   0  0  0  0  0  0  0  0  0  0  0  0
   10.1355  -14.4995   27.8728 C   0  0  2  0  0  0  0  0  0  0  0  0
    9.2026  -13.5757   28.5309 C   0  0  0  0  0  0  0  0  0  0  0  0
   10.3138  -15.8677   28.3744 C   0  0  0  0  0  0  0  0  0  0  0  0
   10.9740  -16.8465   27.4894 C   0  0  2  0  0  0  0  0  0  0  0  0
   10.5222  -16.6613   26.0975 N   0  0  0  0  0  0  0  0  0  0  0  0
   10.8009  -18.2497   27.8113 C   0  0  0  0  0  0  0  0  0  0  0  0
   10.0777  -19.0448   27.1976 O   0  0  0  0  0  0  0  0  0  0  0  0
   11.5065  -18.7858   28.9165 O   0  0  0  0  0  0  0  0  0  0  0  0
  2  1  1  1
  2  3  1  0
  4  2  1  0
  4  5  1  0
  5  6  1  6
  7  5  1  0
  8  7  2  0
 10  9  1  6
 10 11  1  0
 10 12  1  0
 11  7  1  0
 12 19  1  0
 13 12  2  0
 15 16  1  1
 15 14  1  0
 18 17  1  1
 17 15  1  0
 18 20  1  0
 19 18  1  0
 20 22  1  0
 21 20  2  0
M  END
$$$$
