EAM.pdb
     RDKit          3D

 23 22  0  0  1  0  0  0  0  0999 V2000
   24.8402  -19.7741  -15.6820 N   0  0  0  0  0  0  0  0  0  0  0  0
   25.1534  -19.3207  -14.3406 C   0  0  1  0  0  0  0  0  0  0  0  0
   23.8647  -19.1476  -13.6035 C   0  0  0  0  0  0  0  0  0  0  0  0
   22.9347  -20.3086  -13.6870 C   0  0  0  0  0  0  0  0  0  0  0  0
   21.6365  -20.1257  -13.0142 C   0  0  0  0  0  0  0  0  0  0  0  0
   21.3109  -19.1211  -12.3401 O   0  0  0  0  0  0  0  0  0  0  0  0
   26.0732  -20.2609  -13.6481 C   0  0  0  0  0  0  0  0  0  0  0  0
   25.7359  -21.4649  -13.5693 O   0  0  0  0  0  0  0  0  0  0  0  0
   20.7044  -21.1447  -13.1375 O   0  0  0  0  0  0  0  0  0  0  0  0
   29.4705  -20.0392  -12.0743 C   0  0  0  0  0  0  0  0  0  0  0  0
   28.1950  -20.7686  -12.3811 C   0  0  2  0  0  0  0  0  0  0  0  0
   27.3071  -19.8829  -13.0714 N   0  0  0  0  0  0  0  0  0  0  0  0
   27.5807  -21.4030  -11.1992 C   0  0  0  0  0  0  0  0  0  0  0  0
   28.0945  -22.4417  -10.7394 O   0  0  0  0  0  0  0  0  0  0  0  0
   27.6416  -19.5403   -4.0969 C   0  0  0  0  0  0  0  0  0  0  0  0
   27.9545  -19.1905   -5.8477 S   0  0  0  0  0  0  0  0  0  0  0  0
   26.7912  -20.1631   -6.8321 C   0  0  0  0  0  0  0  0  0  0  0  0
   27.0757  -20.0572   -8.3122 C   0  0  0  0  0  0  0  0  0  0  0  0
   26.1895  -20.9556   -9.1323 C   0  0  2  0  0  0  0  0  0  0  0  0
   26.4268  -20.9050  -10.5382 N   0  0  0  0  0  0  0  0  0  0  0  0
   24.7488  -20.7399   -8.8421 C   0  0  0  0  0  0  0  0  0  0  0  0
   23.9588  -20.2130   -9.6680 O   0  0  0  0  0  0  0  0  0  0  0  0
   24.1924  -21.1155   -7.6235 O   0  0  0  0  0  0  0  0  0  0  0  0
  2  7  1  0
  2  1  1  6
  3  2  1  0
  3  4  1  0
  4  5  1  0
  5  9  1  0
  5  6  2  0
  7  8  2  0
 11 10  1  1
 12 11  1  0
 12  7  1  0
 13 14  2  0
 13 11  1  0
 16 15  1  0
 17 16  1  0
 18 17  1  0
 19 20  1  0
 19 18  1  1
 20 13  1  0
 21 19  1  0
 22 21  2  0
 23 21  1  0
M  END
$$$$
