EAM.pdb
     RDKit          3D

 23 22  0  0  1  0  0  0  0  0999 V2000
   19.6536  -24.3693  -16.0174 N   0  0  0  0  0  0  0  0  0  0  0  0
   20.4277  -24.7266  -14.8442 C   0  0  1  0  0  0  0  0  0  0  0  0
   19.8090  -24.0493  -13.6642 C   0  0  0  0  0  0  0  0  0  0  0  0
   19.4939  -22.6069  -13.8641 C   0  0  0  0  0  0  0  0  0  0  0  0
   18.0813  -22.2372  -13.6658 C   0  0  0  0  0  0  0  0  0  0  0  0
   17.3658  -22.6166  -12.7099 O   0  0  0  0  0  0  0  0  0  0  0  0
   20.5028  -26.2007  -14.6687 C   0  0  0  0  0  0  0  0  0  0  0  0
   19.4307  -26.8489  -14.6612 O   0  0  0  0  0  0  0  0  0  0  0  0
   17.5005  -21.4052  -14.6107 O   0  0  0  0  0  0  0  0  0  0  0  0
   23.1985  -28.7763  -14.6948 C   0  0  0  0  0  0  0  0  0  0  0  0
   21.8027  -28.3402  -14.3564 C   0  0  2  0  0  0  0  0  0  0  0  0
   21.7091  -26.9200  -14.5093 N   0  0  0  0  0  0  0  0  0  0  0  0
   21.3411  -28.8147  -13.0377 C   0  0  0  0  0  0  0  0  0  0  0  0
   21.5057  -28.0807  -12.0435 O   0  0  0  0  0  0  0  0  0  0  0  0
   21.0278  -34.9994  -10.9753 C   0  0  0  0  0  0  0  0  0  0  0  0
   19.3049  -34.6004  -11.3728 S   0  0  0  0  0  0  0  0  0  0  0  0
   19.1508  -32.8015  -11.4637 C   0  0  0  0  0  0  0  0  0  0  0  0
   20.4977  -32.1170  -11.4570 C   0  0  0  0  0  0  0  0  0  0  0  0
   20.3804  -30.6192  -11.5450 C   0  0  2  0  0  0  0  0  0  0  0  0
   20.7125  -30.0690  -12.8187 N   0  0  0  0  0  0  0  0  0  0  0  0
   21.1412  -29.9323  -10.4699 C   0  0  0  0  0  0  0  0  0  0  0  0
   22.3983  -29.8747  -10.4549 O   0  0  0  0  0  0  0  0  0  0  0  0
   20.4916  -29.3088   -9.4093 O   0  0  0  0  0  0  0  0  0  0  0  0
  2  7  1  0
  2  1  1  6
  3  2  1  0
  3  4  1  0
  4  5  1  0
  5  9  1  0
  5  6  2  0
  7  8  2  0
 11 10  1  1
 12 11  1  0
 12  7  1  0
 13 14  2  0
 13 11  1  0
 16 15  1  0
 17 16  1  0
 18 17  1  0
 19 20  1  0
 19 18  1  6
 20 13  1  0
 21 19  1  0
 22 21  2  0
 23 21  1  0
M  END
$$$$
