EAM.pdb
     RDKit          3D

 23 22  0  0  1  0  0  0  0  0999 V2000
   22.9720  -21.4824  -17.5041 N   0  0  0  0  0  0  0  0  0  0  0  0
   23.4754  -20.2602  -16.9072 C   0  0  1  0  0  0  0  0  0  0  0  0
   22.3102  -19.5126  -16.3438 C   0  0  0  0  0  0  0  0  0  0  0  0
   21.5722  -18.6704  -17.3266 C   0  0  0  0  0  0  0  0  0  0  0  0
   22.4163  -17.8482  -18.2113 C   0  0  0  0  0  0  0  0  0  0  0  0
   22.7706  -18.1688  -19.3693 O   0  0  0  0  0  0  0  0  0  0  0  0
   24.5109  -20.5421  -15.8786 C   0  0  0  0  0  0  0  0  0  0  0  0
   24.2446  -21.3831  -14.9891 O   0  0  0  0  0  0  0  0  0  0  0  0
   22.8515  -16.6256  -17.7231 O   0  0  0  0  0  0  0  0  0  0  0  0
   28.0607  -19.5217  -15.2590 C   0  0  0  0  0  0  0  0  0  0  0  0
   26.7565  -20.1148  -14.8113 C   0  0  2  0  0  0  0  0  0  0  0  0
   25.7797  -19.9206  -15.8396 N   0  0  0  0  0  0  0  0  0  0  0  0
   26.3131  -19.6319  -13.4895 C   0  0  0  0  0  0  0  0  0  0  0  0
   25.5791  -18.6258  -13.4325 O   0  0  0  0  0  0  0  0  0  0  0  0
   21.5124  -20.7742  -11.7794 C   0  0  0  0  0  0  0  0  0  0  0  0
   21.9916  -20.9416  -10.0394 S   0  0  0  0  0  0  0  0  0  0  0  0
   23.7166  -20.4248   -9.8789 C   0  0  0  0  0  0  0  0  0  0  0  0
   24.4748  -20.5726  -11.1773 C   0  0  0  0  0  0  0  0  0  0  0  0
   25.9188  -20.1690  -11.0475 C   0  0  2  0  0  0  0  0  0  0  0  0
   26.6697  -20.2430  -12.2583 N   0  0  0  0  0  0  0  0  0  0  0  0
   26.6128  -20.9079   -9.9618 C   0  0  0  0  0  0  0  0  0  0  0  0
   26.5644  -20.5512   -8.7558 O   0  0  0  0  0  0  0  0  0  0  0  0
   27.3628  -22.0490  -10.2283 O   0  0  0  0  0  0  0  0  0  0  0  0
  2  7  1  0
  2  1  1  1
  3  2  1  0
  3  4  1  0
  4  5  1  0
  5  9  1  0
  5  6  2  0
  7  8  2  0
 11 10  1  6
 12 11  1  0
 12  7  1  0
 13 14  2  0
 13 11  1  0
 16 15  1  0
 17 16  1  0
 18 17  1  0
 19 20  1  0
 19 18  1  6
 20 13  1  0
 21 19  1  0
 22 21  2  0
 23 21  1  0
M  END
$$$$
