EAM.pdb
     RDKit          3D

 23 22  0  0  1  0  0  0  0  0999 V2000
   19.8127  -17.7564  -18.7151 N   0  0  0  0  0  0  0  0  0  0  0  0
   19.6883  -16.5186  -17.9696 C   0  0  1  0  0  0  0  0  0  0  0  0
   19.8867  -16.8343  -16.5222 C   0  0  0  0  0  0  0  0  0  0  0  0
   18.8958  -17.7868  -15.9474 C   0  0  0  0  0  0  0  0  0  0  0  0
   19.1507  -18.1977  -14.5554 C   0  0  0  0  0  0  0  0  0  0  0  0
   20.1661  -17.8902  -13.8892 O   0  0  0  0  0  0  0  0  0  0  0  0
   20.6460  -15.4909  -18.4556 C   0  0  0  0  0  0  0  0  0  0  0  0
   21.7234  -15.8815  -18.9617 O   0  0  0  0  0  0  0  0  0  0  0  0
   18.1921  -18.9853  -13.9365 O   0  0  0  0  0  0  0  0  0  0  0  0
   20.6721  -11.7475  -18.7167 C   0  0  0  0  0  0  0  0  0  0  0  0
   21.3188  -13.0940  -18.8643 C   0  0  2  0  0  0  0  0  0  0  0  0
   20.4186  -14.0977  -18.3832 N   0  0  0  0  0  0  0  0  0  0  0  0
   22.6590  -13.1736  -18.2525 C   0  0  0  0  0  0  0  0  0  0  0  0
   22.8190  -13.8931  -17.2470 O   0  0  0  0  0  0  0  0  0  0  0  0
   29.0048  -14.7149  -16.0160 C   0  0  0  0  0  0  0  0  0  0  0  0
   27.2587  -14.3619  -16.3506 S   0  0  0  0  0  0  0  0  0  0  0  0
   27.0069  -14.4161  -18.1400 C   0  0  0  0  0  0  0  0  0  0  0  0
   25.5610  -14.1902  -18.5152 C   0  0  0  0  0  0  0  0  0  0  0  0
   25.1513  -12.7485  -18.3778 C   0  0  2  0  0  0  0  0  0  0  0  0
   23.7975  -12.4766  -18.7368 N   0  0  0  0  0  0  0  0  0  0  0  0
   26.0721  -11.8321  -19.0979 C   0  0  0  0  0  0  0  0  0  0  0  0
   27.2589  -11.6312  -18.7302 O   0  0  0  0  0  0  0  0  0  0  0  0
   25.6619  -11.1394  -20.2326 O   0  0  0  0  0  0  0  0  0  0  0  0
  2  7  1  0
  2  1  1  6
  3  2  1  0
  3  4  1  0
  4  5  1  0
  5  9  1  0
  5  6  2  0
  7  8  2  0
 11 10  1  1
 12 11  1  0
 12  7  1  0
 13 14  2  0
 13 11  1  0
 16 15  1  0
 17 16  1  0
 18 17  1  0
 19 20  1  0
 19 18  1  6
 20 13  1  0
 21 19  1  0
 22 21  2  0
 23 21  1  0
M  END
$$$$
