EAM.pdb
     RDKit          3D

 23 22  0  0  1  0  0  0  0  0999 V2000
   26.1589  -18.4567  -15.7774 N   0  0  0  0  0  0  0  0  0  0  0  0
   26.3739  -19.6246  -14.9449 C   0  0  1  0  0  0  0  0  0  0  0  0
   27.8294  -19.9606  -14.9951 C   0  0  0  0  0  0  0  0  0  0  0  0
   28.2396  -20.7951  -16.1591 C   0  0  0  0  0  0  0  0  0  0  0  0
   27.8010  -22.2011  -16.1122 C   0  0  0  0  0  0  0  0  0  0  0  0
   26.6914  -22.6221  -16.5136 O   0  0  0  0  0  0  0  0  0  0  0  0
   25.8986  -19.3981  -13.5547 C   0  0  0  0  0  0  0  0  0  0  0  0
   26.1670  -18.3016  -13.0113 O   0  0  0  0  0  0  0  0  0  0  0  0
   28.6853  -23.1285  -15.5829 O   0  0  0  0  0  0  0  0  0  0  0  0
   23.2110  -20.5125  -11.4389 C   0  0  0  0  0  0  0  0  0  0  0  0
   24.6614  -20.1279  -11.4808 C   0  0  2  0  0  0  0  0  0  0  0  0
   25.1615  -20.3426  -12.8048 N   0  0  0  0  0  0  0  0  0  0  0  0
   25.4745  -20.7835  -10.4387 C   0  0  0  0  0  0  0  0  0  0  0  0
   25.6226  -22.0206  -10.4816 O   0  0  0  0  0  0  0  0  0  0  0  0
   27.8946  -17.5704   -5.0797 C   0  0  0  0  0  0  0  0  0  0  0  0
   28.4723  -19.2637   -4.7887 S   0  0  0  0  0  0  0  0  0  0  0  0
   27.5314  -20.3714   -5.8638 C   0  0  0  0  0  0  0  0  0  0  0  0
   27.2593  -19.7526   -7.2149 C   0  0  0  0  0  0  0  0  0  0  0  0
   26.4409  -20.6508   -8.1029 C   0  0  2  0  0  0  0  0  0  0  0  0
   26.1104  -20.0924   -9.3735 N   0  0  0  0  0  0  0  0  0  0  0  0
   25.2183  -21.1499   -7.4227 C   0  0  0  0  0  0  0  0  0  0  0  0
   24.0874  -20.6200   -7.5784 O   0  0  0  0  0  0  0  0  0  0  0  0
   25.2634  -22.2453   -6.5662 O   0  0  0  0  0  0  0  0  0  0  0  0
  2  7  1  0
  2  1  1  6
  3  2  1  0
  3  4  1  0
  4  5  1  0
  5  9  1  0
  5  6  2  0
  7  8  2  0
 11 10  1  6
 12 11  1  0
 12  7  1  0
 13 14  2  0
 13 11  1  0
 16 15  1  0
 17 16  1  0
 18 17  1  0
 19 20  1  0
 19 18  1  1
 20 13  1  0
 21 19  1  0
 22 21  2  0
 23 21  1  0
M  END
$$$$
