EAM.pdb
     RDKit          3D

 23 22  0  0  1  0  0  0  0  0999 V2000
   19.9975  -13.0733  -20.6664 N   0  0  0  0  0  0  0  0  0  0  0  0
   19.1680  -12.6543  -19.5531 C   0  0  1  0  0  0  0  0  0  0  0  0
   19.4215  -13.5903  -18.4158 C   0  0  0  0  0  0  0  0  0  0  0  0
   18.7912  -14.9328  -18.5572 C   0  0  0  0  0  0  0  0  0  0  0  0
   17.3350  -14.9247  -18.7825 C   0  0  0  0  0  0  0  0  0  0  0  0
   16.4803  -14.5459  -17.9485 O   0  0  0  0  0  0  0  0  0  0  0  0
   19.4277  -11.2384  -19.1823 C   0  0  0  0  0  0  0  0  0  0  0  0
   20.6187  -10.8718  -19.0531 O   0  0  0  0  0  0  0  0  0  0  0  0
   16.8767  -15.3709  -20.0126 O   0  0  0  0  0  0  0  0  0  0  0  0
   17.3292   -8.1925  -18.5456 C   0  0  0  0  0  0  0  0  0  0  0  0
   18.6443   -8.9148  -18.5892 C   0  0  2  0  0  0  0  0  0  0  0  0
   18.4148  -10.2767  -18.9656 N   0  0  0  0  0  0  0  0  0  0  0  0
   19.4318   -8.7792  -17.3489 C   0  0  0  0  0  0  0  0  0  0  0  0
   19.2541   -9.6038  -16.4309 O   0  0  0  0  0  0  0  0  0  0  0  0
   24.0498   -9.8642  -12.4746 C   0  0  0  0  0  0  0  0  0  0  0  0
   23.1650   -9.9529  -14.0541 S   0  0  0  0  0  0  0  0  0  0  0  0
   23.4199   -8.3921  -14.9299 C   0  0  0  0  0  0  0  0  0  0  0  0
   22.6151   -8.3215  -16.2065 C   0  0  0  0  0  0  0  0  0  0  0  0
   21.2702   -7.6776  -16.0019 C   0  0  2  0  0  0  0  0  0  0  0  0
   20.3934   -7.7587  -17.1245 N   0  0  0  0  0  0  0  0  0  0  0  0
   21.3858   -6.2721  -15.5355 C   0  0  0  0  0  0  0  0  0  0  0  0
   21.2186   -5.2851  -16.2982 O   0  0  0  0  0  0  0  0  0  0  0  0
   21.6895   -5.9722  -14.2113 O   0  0  0  0  0  0  0  0  0  0  0  0
  2  7  1  0
  2  1  1  6
  3  2  1  0
  3  4  1  0
  4  5  1  0
  5  9  1  0
  5  6  2  0
  7  8  2  0
 11 10  1  1
 12 11  1  0
 12  7  1  0
 13 14  2  0
 13 11  1  0
 16 15  1  0
 17 16  1  0
 18 17  1  0
 19 20  1  0
 19 18  1  6
 20 13  1  0
 21 19  1  0
 22 21  2  0
 23 21  1  0
M  END
$$$$
