DEE.pdb
     RDKit          3D

 27 26  0  0  1  0  0  0  0  0999 V2000
   10.9645  -15.4127   17.3866 N   0  0  0  0  0  0  0  0  0  0  0  0
   11.1783  -14.4921   18.4715 C   0  0  1  0  0  0  0  0  0  0  0  0
   10.1928  -13.3496   18.3268 C   0  0  0  0  0  0  0  0  0  0  0  0
   10.7124  -12.3186   17.3991 C   0  0  0  0  0  0  0  0  0  0  0  0
   11.8200  -12.4748   16.8617 O   0  0  0  0  0  0  0  0  0  0  0  0
   10.9236  -15.1507   19.7736 C   0  0  0  0  0  0  0  0  0  0  0  0
   11.0377  -14.4726   20.8283 O   0  0  0  0  0  0  0  0  0  0  0  0
    9.9541  -11.1949   17.1451 O   0  0  0  0  0  0  0  0  0  0  0  0
   10.5662  -16.5015   19.7785 N   0  0  0  0  0  0  0  0  0  0  0  0
   10.3264  -17.1790   21.0571 C   0  0  1  0  0  0  0  0  0  0  0  0
    9.4607  -18.3816   20.8263 C   0  0  0  0  0  0  0  0  0  0  0  0
    9.1531  -19.1884   22.0495 C   0  0  0  0  0  0  0  0  0  0  0  0
    8.3257  -20.3866   21.7962 C   0  0  0  0  0  0  0  0  0  0  0  0
    7.9407  -21.2111   22.6429 O   0  0  0  0  0  0  0  0  0  0  0  0
   11.6239  -17.4982   21.7178 C   0  0  0  0  0  0  0  0  0  0  0  0
   12.2913  -18.4600   21.2659 O   0  0  0  0  0  0  0  0  0  0  0  0
    7.9243  -20.6361   20.4738 O   0  0  0  0  0  0  0  0  0  0  0  0
   12.1229  -16.7685   22.8181 N   0  0  0  0  0  0  0  0  0  0  0  0
   13.3836  -17.2016   23.4422 C   0  0  1  0  0  0  0  0  0  0  0  0
   14.4510  -16.1824   23.2134 C   0  0  0  0  0  0  0  0  0  0  0  0
   15.5555  -16.7848   22.3909 C   0  0  0  0  0  0  0  0  0  0  0  0
   16.6773  -15.8365   22.1834 C   0  0  0  0  0  0  0  0  0  0  0  0
   17.4346  -15.9695   21.2123 O   0  0  0  0  0  0  0  0  0  0  0  0
   13.1189  -17.5075   24.8532 C   0  0  0  0  0  0  0  0  0  0  0  0
   11.9990  -17.1847   25.3506 O   0  0  0  0  0  0  0  0  0  0  0  0
   16.8584  -14.8175   23.0802 O   0  0  0  0  0  0  0  0  0  0  0  0
   14.0143  -18.1310   25.6786 O   0  0  0  0  0  0  0  0  0  0  0  0
  2  6  1  0
  2  1  1  6
  3  2  1  0
  4  3  1  0
  5  4  2  0
  6  7  2  0
  8  4  1  0
  9  6  1  0
 10  9  1  0
 10 11  1  6
 11 12  1  0
 13 17  1  0
 13 12  1  0
 14 13  2  0
 15 10  1  0
 16 15  2  0
 18 15  1  0
 19 20  1  1
 19 18  1  0
 20 21  1  0
 21 22  1  0
 22 26  1  0
 23 22  2  0
 24 19  1  0
 25 24  2  0
 27 24  1  0
M  END
$$$$
