DEE.pdb
     RDKit          3D

 27 26  0  0  1  0  0  0  0  0999 V2000
    9.7253  -16.7879   16.7740 N   0  0  0  0  0  0  0  0  0  0  0  0
    8.8500  -17.0437   17.8867 C   0  0  1  0  0  0  0  0  0  0  0  0
    7.8832  -18.1411   17.4887 C   0  0  0  0  0  0  0  0  0  0  0  0
    6.8801  -18.3728   18.5534 C   0  0  0  0  0  0  0  0  0  0  0  0
    6.6185  -17.4678   19.3612 O   0  0  0  0  0  0  0  0  0  0  0  0
    9.6204  -17.5190   19.0592 C   0  0  0  0  0  0  0  0  0  0  0  0
    8.9954  -17.8553   20.0992 O   0  0  0  0  0  0  0  0  0  0  0  0
    6.2488  -19.5965   18.6318 O   0  0  0  0  0  0  0  0  0  0  0  0
   11.0132  -17.5751   18.9631 N   0  0  0  0  0  0  0  0  0  0  0  0
   11.7963  -18.0489   20.1092 C   0  0  1  0  0  0  0  0  0  0  0  0
   13.1111  -18.5831   19.6246 C   0  0  0  0  0  0  0  0  0  0  0  0
   14.0459  -19.0440   20.6996 C   0  0  0  0  0  0  0  0  0  0  0  0
   15.3412  -19.5536   20.2026 C   0  0  0  0  0  0  0  0  0  0  0  0
   16.3138  -19.8994   20.8949 O   0  0  0  0  0  0  0  0  0  0  0  0
   11.9322  -16.9620   21.1200 C   0  0  0  0  0  0  0  0  0  0  0  0
   11.9682  -15.7776   20.7068 O   0  0  0  0  0  0  0  0  0  0  0  0
   15.5096  -19.6658   18.8129 O   0  0  0  0  0  0  0  0  0  0  0  0
   12.0207  -17.2120   22.5064 N   0  0  0  0  0  0  0  0  0  0  0  0
   11.2445  -16.3681   23.4293 C   0  0  1  0  0  0  0  0  0  0  0  0
    9.8245  -16.2755   22.9756 C   0  0  0  0  0  0  0  0  0  0  0  0
    9.3267  -14.8694   23.1608 C   0  0  0  0  0  0  0  0  0  0  0  0
    8.0176  -14.6495   22.4985 C   0  0  0  0  0  0  0  0  0  0  0  0
    7.4533  -15.5806   21.9080 O   0  0  0  0  0  0  0  0  0  0  0  0
   11.4215  -16.8888   24.7903 C   0  0  0  0  0  0  0  0  0  0  0  0
   11.3460  -18.1390   24.9828 O   0  0  0  0  0  0  0  0  0  0  0  0
    7.4484  -13.4051   22.5521 O   0  0  0  0  0  0  0  0  0  0  0  0
   11.6699  -16.1011   25.8811 O   0  0  0  0  0  0  0  0  0  0  0  0
  2  6  1  0
  2  1  1  6
  3  2  1  0
  4  3  1  0
  5  4  2  0
  6  7  2  0
  8  4  1  0
  9  6  1  0
 10  9  1  0
 10 11  1  6
 11 12  1  0
 13 17  1  0
 13 12  1  0
 14 13  2  0
 15 10  1  0
 16 15  2  0
 18 15  1  0
 19 20  1  6
 19 18  1  0
 20 21  1  0
 21 22  1  0
 22 26  1  0
 23 22  2  0
 24 19  1  0
 25 24  2  0
 27 24  1  0
M  END
$$$$
