DEE.pdb
     RDKit          3D

 27 26  0  0  1  0  0  0  0  0999 V2000
   10.1599  -13.6198   18.5686 N   0  0  0  0  0  0  0  0  0  0  0  0
   10.9250  -14.6870   19.1566 C   0  0  1  0  0  0  0  0  0  0  0  0
   12.3504  -14.2052   19.3396 C   0  0  0  0  0  0  0  0  0  0  0  0
   13.1348  -14.3932   18.0974 C   0  0  0  0  0  0  0  0  0  0  0  0
   12.6366  -15.0070   17.1408 O   0  0  0  0  0  0  0  0  0  0  0  0
   10.3891  -15.0403   20.4915 C   0  0  0  0  0  0  0  0  0  0  0  0
    9.8824  -14.1319   21.2010 O   0  0  0  0  0  0  0  0  0  0  0  0
   14.4131  -13.8809   18.0219 O   0  0  0  0  0  0  0  0  0  0  0  0
   10.4678  -16.3710   20.9103 N   0  0  0  0  0  0  0  0  0  0  0  0
    9.7598  -16.7873   22.1255 C   0  0  1  0  0  0  0  0  0  0  0  0
    9.1030  -18.1141   21.8866 C   0  0  0  0  0  0  0  0  0  0  0  0
    7.9148  -18.0812   20.9760 C   0  0  0  0  0  0  0  0  0  0  0  0
    7.3457  -19.4104   20.6696 C   0  0  0  0  0  0  0  0  0  0  0  0
    7.6593  -20.1470   19.7188 O   0  0  0  0  0  0  0  0  0  0  0  0
   10.6938  -16.7866   23.2871 C   0  0  0  0  0  0  0  0  0  0  0  0
   11.8210  -17.3164   23.1339 O   0  0  0  0  0  0  0  0  0  0  0  0
    6.3504  -19.9084   21.5260 O   0  0  0  0  0  0  0  0  0  0  0  0
   10.3619  -16.2197   24.5364 N   0  0  0  0  0  0  0  0  0  0  0  0
   11.3239  -16.3344   25.6444 C   0  0  1  0  0  0  0  0  0  0  0  0
   11.1475  -15.2022   26.6022 C   0  0  0  0  0  0  0  0  0  0  0  0
    9.8965  -15.4139   27.4082 C   0  0  0  0  0  0  0  0  0  0  0  0
    9.7377  -14.3907   28.4705 C   0  0  0  0  0  0  0  0  0  0  0  0
   10.7336  -13.9214   29.0381 O   0  0  0  0  0  0  0  0  0  0  0  0
   11.1857  -17.6692   26.2392 C   0  0  0  0  0  0  0  0  0  0  0  0
   12.0805  -18.0805   27.0367 O   0  0  0  0  0  0  0  0  0  0  0  0
    8.4769  -13.9776   28.8097 O   0  0  0  0  0  0  0  0  0  0  0  0
   10.1362  -18.5104   25.9880 O   0  0  0  0  0  0  0  0  0  0  0  0
  2  6  1  0
  2  1  1  1
  3  2  1  0
  4  3  1  0
  5  4  2  0
  6  7  2  0
  8  4  1  0
  9  6  1  0
 10  9  1  0
 10 11  1  6
 11 12  1  0
 13 17  1  0
 13 12  1  0
 14 13  2  0
 15 10  1  0
 16 15  2  0
 18 15  1  0
 19 20  1  1
 19 18  1  0
 20 21  1  0
 21 22  1  0
 22 26  1  0
 23 22  2  0
 24 19  1  0
 25 24  2  0
 27 24  1  0
M  END
$$$$
