DEE.pdb
     RDKit          3D

 27 26  0  0  1  0  0  0  0  0999 V2000
    9.2580  -17.4510   19.9014 N   0  0  0  0  0  0  0  0  0  0  0  0
    9.9361  -18.5249   20.5773 C   0  0  1  0  0  0  0  0  0  0  0  0
   11.2080  -18.8388   19.8148 C   0  0  0  0  0  0  0  0  0  0  0  0
   10.9032  -19.2394   18.4220 C   0  0  0  0  0  0  0  0  0  0  0  0
   11.0116  -18.4109   17.5045 O   0  0  0  0  0  0  0  0  0  0  0  0
   10.3168  -18.1204   21.9505 C   0  0  0  0  0  0  0  0  0  0  0  0
   10.6755  -16.9309   22.1544 O   0  0  0  0  0  0  0  0  0  0  0  0
   10.5014  -20.5334   18.1640 O   0  0  0  0  0  0  0  0  0  0  0  0
   10.2621  -19.0781   22.9665 N   0  0  0  0  0  0  0  0  0  0  0  0
   10.5858  -18.6880   24.3428 C   0  0  1  0  0  0  0  0  0  0  0  0
    9.5292  -19.2128   25.2685 C   0  0  0  0  0  0  0  0  0  0  0  0
    9.8045  -19.0134   26.7267 C   0  0  0  0  0  0  0  0  0  0  0  0
    8.8445  -19.6882   27.6253 C   0  0  0  0  0  0  0  0  0  0  0  0
    7.8985  -20.4177   27.2820 O   0  0  0  0  0  0  0  0  0  0  0  0
   11.9618  -19.1418   24.6927 C   0  0  0  0  0  0  0  0  0  0  0  0
   12.1939  -20.3750   24.6795 O   0  0  0  0  0  0  0  0  0  0  0  0
    8.9996  -19.4990   29.0081 O   0  0  0  0  0  0  0  0  0  0  0  0
   12.9996  -18.2480   25.0338 N   0  0  0  0  0  0  0  0  0  0  0  0
   14.3165  -18.7966   25.3959 C   0  0  1  0  0  0  0  0  0  0  0  0
   15.3753  -17.7577   25.2224 C   0  0  0  0  0  0  0  0  0  0  0  0
   15.3534  -17.2464   23.8092 C   0  0  0  0  0  0  0  0  0  0  0  0
   16.3881  -16.2094   23.5750 C   0  0  0  0  0  0  0  0  0  0  0  0
   16.1584  -15.2603   22.8131 O   0  0  0  0  0  0  0  0  0  0  0  0
   14.2255  -19.3609   26.7479 C   0  0  0  0  0  0  0  0  0  0  0  0
   13.1658  -19.1780   27.4182 O   0  0  0  0  0  0  0  0  0  0  0  0
   17.5946  -16.3209   24.2133 O   0  0  0  0  0  0  0  0  0  0  0  0
   15.2237  -20.0855   27.3398 O   0  0  0  0  0  0  0  0  0  0  0  0
  2  6  1  0
  2  1  1  6
  3  2  1  0
  4  3  1  0
  5  4  2  0
  6  7  2  0
  8  4  1  0
  9  6  1  0
 10  9  1  0
 10 11  1  1
 11 12  1  0
 13 17  1  0
 13 12  1  0
 14 13  2  0
 15 10  1  0
 16 15  2  0
 18 15  1  0
 19 20  1  1
 19 18  1  0
 20 21  1  0
 21 22  1  0
 22 26  1  0
 23 22  2  0
 24 19  1  0
 25 24  2  0
 27 24  1  0
M  END
$$$$
