DEE.pdb
     RDKit          3D

 27 26  0  0  1  0  0  0  0  0999 V2000
   12.3382  -19.3386   20.4061 N   0  0  0  0  0  0  0  0  0  0  0  0
   12.3060  -18.0317   21.0071 C   0  0  1  0  0  0  0  0  0  0  0  0
   11.7261  -17.0592   19.9994 C   0  0  0  0  0  0  0  0  0  0  0  0
   12.6166  -16.9233   18.8239 C   0  0  0  0  0  0  0  0  0  0  0  0
   12.6189  -17.8019   17.9475 O   0  0  0  0  0  0  0  0  0  0  0  0
   11.4292  -18.0270   22.2009 C   0  0  0  0  0  0  0  0  0  0  0  0
   11.0092  -16.9243   22.6400 O   0  0  0  0  0  0  0  0  0  0  0  0
   13.4340  -15.8173   18.7201 O   0  0  0  0  0  0  0  0  0  0  0  0
   11.1030  -19.2499   22.7930 N   0  0  0  0  0  0  0  0  0  0  0  0
   10.2510  -19.2682   23.9867 C   0  0  1  0  0  0  0  0  0  0  0  0
    9.6164  -20.6202   24.1222 C   0  0  0  0  0  0  0  0  0  0  0  0
   10.5249  -21.7030   24.6161 C   0  0  0  0  0  0  0  0  0  0  0  0
    9.8451  -22.9832   24.9052 C   0  0  0  0  0  0  0  0  0  0  0  0
    9.8527  -24.0012   24.1921 O   0  0  0  0  0  0  0  0  0  0  0  0
   11.0391  -18.8585   25.1837 C   0  0  0  0  0  0  0  0  0  0  0  0
   12.2877  -18.9725   25.1312 O   0  0  0  0  0  0  0  0  0  0  0  0
    9.1125  -23.0791   26.0994 O   0  0  0  0  0  0  0  0  0  0  0  0
   10.4411  -18.3539   26.3585 N   0  0  0  0  0  0  0  0  0  0  0  0
   11.3029  -17.7589   27.3926 C   0  0  1  0  0  0  0  0  0  0  0  0
   11.0402  -16.2929   27.5045 C   0  0  0  0  0  0  0  0  0  0  0  0
   10.3350  -16.0044   28.8001 C   0  0  0  0  0  0  0  0  0  0  0  0
   10.0217  -14.5627   28.9556 C   0  0  0  0  0  0  0  0  0  0  0  0
    9.3841  -13.9650   28.0779 O   0  0  0  0  0  0  0  0  0  0  0  0
   11.1169  -18.5128   28.6383 C   0  0  0  0  0  0  0  0  0  0  0  0
   10.0960  -19.2537   28.7595 O   0  0  0  0  0  0  0  0  0  0  0  0
   10.4481  -13.9094   30.0811 O   0  0  0  0  0  0  0  0  0  0  0  0
   11.9885  -18.4703   29.6921 O   0  0  0  0  0  0  0  0  0  0  0  0
  2  6  1  0
  2  1  1  6
  3  2  1  0
  4  3  1  0
  5  4  2  0
  6  7  2  0
  8  4  1  0
  9  6  1  0
 10  9  1  0
 10 11  1  1
 11 12  1  0
 13 17  1  0
 13 12  1  0
 14 13  2  0
 15 10  1  0
 16 15  2  0
 18 15  1  0
 19 20  1  1
 19 18  1  0
 20 21  1  0
 21 22  1  0
 22 26  1  0
 23 22  2  0
 24 19  1  0
 25 24  2  0
 27 24  1  0
M  END
$$$$
