DEE.pdb
     RDKit          3D

 27 26  0  0  1  0  0  0  0  0999 V2000
   15.3612  -12.8919   16.7196 N   0  0  0  0  0  0  0  0  0  0  0  0
   14.7951  -14.2135   16.7736 C   0  0  1  0  0  0  0  0  0  0  0  0
   15.9309  -15.2149   16.8415 C   0  0  0  0  0  0  0  0  0  0  0  0
   16.7097  -15.2160   15.5817 C   0  0  0  0  0  0  0  0  0  0  0  0
   16.2664  -15.8053   14.5836 O   0  0  0  0  0  0  0  0  0  0  0  0
   13.9691  -14.3788   17.9920 C   0  0  0  0  0  0  0  0  0  0  0  0
   14.3781  -13.8809   19.0737 O   0  0  0  0  0  0  0  0  0  0  0  0
   17.9216  -14.5592   15.5363 O   0  0  0  0  0  0  0  0  0  0  0  0
   12.7663  -15.0828   17.8912 N   0  0  0  0  0  0  0  0  0  0  0  0
   11.9163  -15.2309   19.0772 C   0  0  1  0  0  0  0  0  0  0  0  0
   10.5850  -15.7861   18.6669 C   0  0  0  0  0  0  0  0  0  0  0  0
    9.7685  -16.3686   19.7786 C   0  0  0  0  0  0  0  0  0  0  0  0
    8.4593  -16.9077   19.3544 C   0  0  0  0  0  0  0  0  0  0  0  0
    8.1003  -17.1437   18.1881 O   0  0  0  0  0  0  0  0  0  0  0  0
   12.6127  -16.0547   20.1058 C   0  0  0  0  0  0  0  0  0  0  0  0
   13.0241  -17.1909   19.7674 O   0  0  0  0  0  0  0  0  0  0  0  0
    7.5130  -17.1875   20.3535 O   0  0  0  0  0  0  0  0  0  0  0  0
   12.8239  -15.6102   21.4288 N   0  0  0  0  0  0  0  0  0  0  0  0
   13.6534  -16.4293   22.3273 C   0  0  1  0  0  0  0  0  0  0  0  0
   15.0250  -15.8489   22.4377 C   0  0  0  0  0  0  0  0  0  0  0  0
   15.8304  -16.6430   23.4277 C   0  0  0  0  0  0  0  0  0  0  0  0
   17.2292  -16.1586   23.5252 C   0  0  0  0  0  0  0  0  0  0  0  0
   18.0945  -16.5922   22.7523 O   0  0  0  0  0  0  0  0  0  0  0  0
   12.9441  -16.5763   23.6040 C   0  0  0  0  0  0  0  0  0  0  0  0
   13.4441  -17.3190   24.5008 O   0  0  0  0  0  0  0  0  0  0  0  0
   17.5435  -15.2286   24.4800 O   0  0  0  0  0  0  0  0  0  0  0  0
   11.7622  -15.9517   23.8953 O   0  0  0  0  0  0  0  0  0  0  0  0
  2  6  1  0
  2  1  1  1
  3  2  1  0
  4  3  1  0
  5  4  2  0
  6  7  2  0
  8  4  1  0
  9  6  1  0
 10  9  1  0
 10 11  1  6
 11 12  1  0
 13 17  1  0
 13 12  1  0
 14 13  2  0
 15 10  1  0
 16 15  2  0
 18 15  1  0
 19 20  1  1
 19 18  1  0
 20 21  1  0
 21 22  1  0
 22 26  1  0
 23 22  2  0
 24 19  1  0
 25 24  2  0
 27 24  1  0
M  END
$$$$
