DEE.pdb
     RDKit          3D

 27 26  0  0  1  0  0  0  0  0999 V2000
   10.9452  -17.3962   15.3307 N   0  0  0  0  0  0  0  0  0  0  0  0
   10.7223  -16.5716   16.4883 C   0  0  1  0  0  0  0  0  0  0  0  0
    9.3233  -16.8440   17.0040 C   0  0  0  0  0  0  0  0  0  0  0  0
    8.3196  -16.0624   16.2457 C   0  0  0  0  0  0  0  0  0  0  0  0
    8.6856  -15.3269   15.3156 O   0  0  0  0  0  0  0  0  0  0  0  0
   11.6793  -16.9139   17.5659 C   0  0  0  0  0  0  0  0  0  0  0  0
   11.7574  -18.1105   17.9495 O   0  0  0  0  0  0  0  0  0  0  0  0
    6.9869  -16.1640   16.5860 O   0  0  0  0  0  0  0  0  0  0  0  0
   12.4586  -15.8920   18.1144 N   0  0  0  0  0  0  0  0  0  0  0  0
   13.5115  -16.2271   19.0790 C   0  0  1  0  0  0  0  0  0  0  0  0
   14.7853  -15.5437   18.6799 C   0  0  0  0  0  0  0  0  0  0  0  0
   14.6169  -14.1772   18.0914 C   0  0  0  0  0  0  0  0  0  0  0  0
   15.8781  -13.5439   17.6524 C   0  0  0  0  0  0  0  0  0  0  0  0
   16.8625  -13.2855   18.3658 O   0  0  0  0  0  0  0  0  0  0  0  0
   13.0645  -15.8921   20.4608 C   0  0  0  0  0  0  0  0  0  0  0  0
   12.6180  -14.7380   20.6694 O   0  0  0  0  0  0  0  0  0  0  0  0
   15.9956  -13.1916   16.2981 O   0  0  0  0  0  0  0  0  0  0  0  0
   13.1241  -16.8124   21.5294 N   0  0  0  0  0  0  0  0  0  0  0  0
   12.7434  -16.3589   22.8769 C   0  0  1  0  0  0  0  0  0  0  0  0
   12.1615  -17.4906   23.6586 C   0  0  0  0  0  0  0  0  0  0  0  0
   13.2641  -18.3955   24.1326 C   0  0  0  0  0  0  0  0  0  0  0  0
   12.7466  -19.5361   24.9277 C   0  0  0  0  0  0  0  0  0  0  0  0
   11.5332  -19.6389   25.1537 O   0  0  0  0  0  0  0  0  0  0  0  0
   13.9114  -15.7212   23.4963 C   0  0  0  0  0  0  0  0  0  0  0  0
   15.0556  -15.9101   22.9854 O   0  0  0  0  0  0  0  0  0  0  0  0
   13.6306  -20.4672   25.4040 O   0  0  0  0  0  0  0  0  0  0  0  0
   13.8447  -14.9212   24.6043 O   0  0  0  0  0  0  0  0  0  0  0  0
  2  6  1  0
  2  1  1  6
  3  2  1  0
  4  3  1  0
  5  4  2  0
  6  7  2  0
  8  4  1  0
  9  6  1  0
 10  9  1  0
 10 11  1  6
 11 12  1  0
 13 17  1  0
 13 12  1  0
 14 13  2  0
 15 10  1  0
 16 15  2  0
 18 15  1  0
 19 20  1  1
 19 18  1  0
 20 21  1  0
 21 22  1  0
 22 26  1  0
 23 22  2  0
 24 19  1  0
 25 24  2  0
 27 24  1  0
M  END
$$$$
