DEE.pdb
     RDKit          3D

 27 26  0  0  1  0  0  0  0  0999 V2000
   11.8630  -17.9284   17.2697 N   0  0  0  0  0  0  0  0  0  0  0  0
   11.9714  -18.5341   18.5702 C   0  0  1  0  0  0  0  0  0  0  0  0
   11.0663  -19.7495   18.6055 C   0  0  0  0  0  0  0  0  0  0  0  0
    9.7832  -19.4722   17.9198 C   0  0  0  0  0  0  0  0  0  0  0  0
    9.6168  -18.3890   17.3378 O   0  0  0  0  0  0  0  0  0  0  0  0
   13.3579  -18.9918   18.8196 C   0  0  0  0  0  0  0  0  0  0  0  0
   13.5383  -20.1282   19.3307 O   0  0  0  0  0  0  0  0  0  0  0  0
    8.7875  -20.4266   17.9384 O   0  0  0  0  0  0  0  0  0  0  0  0
   14.4122  -18.1413   18.4767 N   0  0  0  0  0  0  0  0  0  0  0  0
   15.7937  -18.5768   18.7072 C   0  0  1  0  0  0  0  0  0  0  0  0
   16.6149  -18.2877   17.4862 C   0  0  0  0  0  0  0  0  0  0  0  0
   18.0513  -18.7017   17.5728 C   0  0  0  0  0  0  0  0  0  0  0  0
   18.8632  -18.3326   16.3943 C   0  0  0  0  0  0  0  0  0  0  0  0
   19.9766  -17.7803   16.4078 O   0  0  0  0  0  0  0  0  0  0  0  0
   16.3286  -17.9454   19.9470 C   0  0  0  0  0  0  0  0  0  0  0  0
   16.3581  -16.6921   20.0013 O   0  0  0  0  0  0  0  0  0  0  0  0
   18.3424  -18.6267   15.1237 O   0  0  0  0  0  0  0  0  0  0  0  0
   16.7971  -18.6951   21.0474 N   0  0  0  0  0  0  0  0  0  0  0  0
   17.3898  -17.9811   22.1899 C   0  0  1  0  0  0  0  0  0  0  0  0
   18.0055  -16.6985   21.7356 C   0  0  0  0  0  0  0  0  0  0  0  0
   18.7649  -16.0733   22.8721 C   0  0  0  0  0  0  0  0  0  0  0  0
   19.4292  -14.8091   22.4704 C   0  0  0  0  0  0  0  0  0  0  0  0
   20.3781  -14.3659   23.1318 O   0  0  0  0  0  0  0  0  0  0  0  0
   16.3612  -17.8350   23.2268 C   0  0  0  0  0  0  0  0  0  0  0  0
   15.1774  -17.5458   22.8793 O   0  0  0  0  0  0  0  0  0  0  0  0
   18.9763  -14.1456   21.3613 O   0  0  0  0  0  0  0  0  0  0  0  0
   16.5993  -17.9965   24.5645 O   0  0  0  0  0  0  0  0  0  0  0  0
  2  6  1  0
  2  1  1  6
  3  2  1  0
  4  3  1  0
  5  4  2  0
  6  7  2  0
  8  4  1  0
  9  6  1  0
 10  9  1  0
 10 11  1  6
 11 12  1  0
 13 17  1  0
 13 12  1  0
 14 13  2  0
 15 10  1  0
 16 15  2  0
 18 15  1  0
 19 20  1  6
 19 18  1  0
 20 21  1  0
 21 22  1  0
 22 26  1  0
 23 22  2  0
 24 19  1  0
 25 24  2  0
 27 24  1  0
M  END
$$$$
