MNA.pdb
     RDKit          3D

 22 21  0  0  1  0  0  0  0  0999 V2000
   26.3406  -20.6210   -7.7295 C   0  0  0  0  0  0  0  0  0  0  0  0
   27.8739  -21.3950   -8.2393 S   0  0  0  0  0  0  0  0  0  0  0  0
   27.8794  -21.5978  -10.0483 C   0  0  0  0  0  0  0  0  0  0  0  0
   26.6811  -20.9349  -10.6705 C   0  0  0  0  0  0  0  0  0  0  0  0
   26.5789  -21.1348  -12.1476 C   0  0  2  0  0  0  0  0  0  0  0  0
   27.8138  -20.6557  -12.7988 N   0  0  0  0  0  0  0  0  0  0  0  0
   25.3917  -20.5428  -12.7902 C   0  0  0  0  0  0  0  0  0  0  0  0
   25.2398  -19.2887  -12.8838 O   0  0  0  0  0  0  0  0  0  0  0  0
   24.6663  -19.2316  -15.7470 N   0  0  0  0  0  0  0  0  0  0  0  0
   24.0476  -20.3865  -16.2913 C   0  0  0  0  0  0  0  0  0  0  0  0
   24.2248  -20.6702  -17.5268 O   0  0  0  0  0  0  0  0  0  0  0  0
   23.2057  -21.2437  -15.4241 C   0  0  0  0  0  0  0  0  0  0  0  0
   23.2093  -20.7076  -14.0172 C   0  0  2  0  0  0  0  0  0  0  0  0
   24.3400  -21.3048  -13.3474 N   0  0  0  0  0  0  0  0  0  0  0  0
   21.9471  -20.9649  -13.3006 C   0  0  0  0  0  0  0  0  0  0  0  0
   21.7088  -22.1229  -12.8916 O   0  0  0  0  0  0  0  0  0  0  0  0
   19.3033  -19.0734  -11.5144 C   0  0  0  0  0  0  0  0  0  0  0  0
   19.8281  -20.2607  -12.2880 C   0  0  2  0  0  0  0  0  0  0  0  0
   20.9914  -19.9494  -13.0566 N   0  0  0  0  0  0  0  0  0  0  0  0
   18.7866  -20.8395  -13.1772 C   0  0  0  0  0  0  0  0  0  0  0  0
   17.7730  -21.6489  -12.6891 O   0  0  0  0  0  0  0  0  0  0  0  0
   18.8071  -20.6037  -14.4079 O   0  0  0  0  0  0  0  0  0  0  0  0
  2  1  1  0
  3  2  1  0
  4  5  1  0
  4  3  1  0
  5  7  1  0
  5  6  1  6
  7  8  2  0
  9 10  1  0
 10 11  2  0
 12 10  1  0
 13 12  1  6
 14 13  1  0
 14  7  1  0
 15 16  2  0
 15 13  1  0
 18 17  1  6
 18 19  1  0
 18 20  1  0
 19 15  1  0
 20 21  1  0
 22 20  2  0
M  END
$$$$
