MNA.pdb
     RDKit          3D

 22 21  0  0  1  0  0  0  0  0999 V2000
   17.5519  -18.9713  -19.6777 C   0  0  0  0  0  0  0  0  0  0  0  0
   18.0915  -17.3865  -19.0396 S   0  0  0  0  0  0  0  0  0  0  0  0
   18.6404  -17.5813  -17.3150 C   0  0  0  0  0  0  0  0  0  0  0  0
   19.0652  -16.2621  -16.7304 C   0  0  0  0  0  0  0  0  0  0  0  0
   20.3652  -15.7550  -17.2644 C   0  0  2  0  0  0  0  0  0  0  0  0
   21.4570  -16.6569  -16.8487 N   0  0  0  0  0  0  0  0  0  0  0  0
   20.6912  -14.3577  -16.9269 C   0  0  0  0  0  0  0  0  0  0  0  0
   21.0946  -14.0273  -15.7724 O   0  0  0  0  0  0  0  0  0  0  0  0
   23.5956  -12.7055  -17.2197 N   0  0  0  0  0  0  0  0  0  0  0  0
   23.3072  -11.9774  -18.4027 C   0  0  0  0  0  0  0  0  0  0  0  0
   24.2491  -11.7319  -19.2340 O   0  0  0  0  0  0  0  0  0  0  0  0
   21.9239  -11.5112  -18.6567 C   0  0  0  0  0  0  0  0  0  0  0  0
   21.0233  -11.9451  -17.5307 C   0  0  2  0  0  0  0  0  0  0  0  0
   20.5855  -13.2851  -17.8411 N   0  0  0  0  0  0  0  0  0  0  0  0
   19.8868  -11.0307  -17.3186 C   0  0  0  0  0  0  0  0  0  0  0  0
   18.9851  -10.9753  -18.1840 O   0  0  0  0  0  0  0  0  0  0  0  0
   17.8764   -9.5690  -14.7642 C   0  0  0  0  0  0  0  0  0  0  0  0
   18.6485   -9.3420  -16.0432 C   0  0  2  0  0  0  0  0  0  0  0  0
   19.7757  -10.2105  -16.1701 N   0  0  0  0  0  0  0  0  0  0  0  0
   19.0940   -7.9294  -16.1714 C   0  0  0  0  0  0  0  0  0  0  0  0
   18.1920   -6.8795  -16.2401 O   0  0  0  0  0  0  0  0  0  0  0  0
   20.3161   -7.6565  -16.2228 O   0  0  0  0  0  0  0  0  0  0  0  0
  2  1  1  0
  3  2  1  0
  4  5  1  0
  4  3  1  0
  5  7  1  0
  5  6  1  1
  7  8  2  0
  9 10  1  0
 10 11  2  0
 12 10  1  0
 13 12  1  6
 14 13  1  0
 14  7  1  0
 15 16  2  0
 15 13  1  0
 18 17  1  1
 18 19  1  0
 18 20  1  0
 19 15  1  0
 20 21  1  0
 22 20  2  0
M  END
$$$$
