MNA.pdb
     RDKit          3D

 22 21  0  0  1  0  0  0  0  0999 V2000
   28.5738  -20.0810   -3.9279 C   0  0  0  0  0  0  0  0  0  0  0  0
   28.7444  -20.0133   -5.7101 S   0  0  0  0  0  0  0  0  0  0  0  0
   27.0940  -19.9708   -6.4769 C   0  0  0  0  0  0  0  0  0  0  0  0
   27.1942  -19.9933   -7.9775 C   0  0  0  0  0  0  0  0  0  0  0  0
   25.8712  -20.0240   -8.6711 C   0  0  2  0  0  0  0  0  0  0  0  0
   25.0283  -21.0834   -8.0832 N   0  0  0  0  0  0  0  0  0  0  0  0
   25.9236  -20.1586  -10.1380 C   0  0  0  0  0  0  0  0  0  0  0  0
   26.6159  -19.3767  -10.8550 O   0  0  0  0  0  0  0  0  0  0  0  0
   25.2396  -24.0944  -14.6381 N   0  0  0  0  0  0  0  0  0  0  0  0
   25.7931  -22.9369  -14.0324 C   0  0  0  0  0  0  0  0  0  0  0  0
   26.4203  -22.0884  -14.7569 O   0  0  0  0  0  0  0  0  0  0  0  0
   25.6390  -22.7293  -12.5735 C   0  0  0  0  0  0  0  0  0  0  0  0
   25.3116  -21.2864  -12.2942 C   0  0  2  0  0  0  0  0  0  0  0  0
   25.2219  -21.1504  -10.8599 N   0  0  0  0  0  0  0  0  0  0  0  0
   24.0802  -20.8355  -12.9673 C   0  0  0  0  0  0  0  0  0  0  0  0
   23.9995  -20.9356  -14.2117 O   0  0  0  0  0  0  0  0  0  0  0  0
   22.2104  -18.9900  -14.1826 C   0  0  0  0  0  0  0  0  0  0  0  0
   21.8409  -19.8373  -12.9871 C   0  0  2  0  0  0  0  0  0  0  0  0
   22.9821  -20.2922  -12.2580 N   0  0  0  0  0  0  0  0  0  0  0  0
   21.0054  -21.0031  -13.3785 C   0  0  0  0  0  0  0  0  0  0  0  0
   19.7158  -20.8514  -13.8626 O   0  0  0  0  0  0  0  0  0  0  0  0
   21.4592  -22.1666  -13.2741 O   0  0  0  0  0  0  0  0  0  0  0  0
  2  1  1  0
  3  2  1  0
  4  5  1  0
  4  3  1  0
  5  7  1  0
  5  6  1  1
  7  8  2  0
  9 10  1  0
 10 11  2  0
 12 10  1  0
 13 12  1  1
 14 13  1  0
 14  7  1  0
 15 16  2  0
 15 13  1  0
 18 17  1  6
 18 19  1  0
 18 20  1  0
 19 15  1  0
 20 21  1  0
 22 20  2  0
M  END
$$$$
