MNA.pdb
     RDKit          3D

 22 21  0  0  1  0  0  0  0  0999 V2000
   30.1354  -13.6846  -16.7521 C   0  0  0  0  0  0  0  0  0  0  0  0
   28.7031  -12.6871  -17.1566 S   0  0  0  0  0  0  0  0  0  0  0  0
   27.1902  -13.6689  -16.9096 C   0  0  0  0  0  0  0  0  0  0  0  0
   25.9722  -12.9062  -17.3537 C   0  0  0  0  0  0  0  0  0  0  0  0
   25.8095  -11.5823  -16.6805 C   0  0  2  0  0  0  0  0  0  0  0  0
   25.8905  -11.7575  -15.2172 N   0  0  0  0  0  0  0  0  0  0  0  0
   24.5975  -10.8267  -17.0450 C   0  0  0  0  0  0  0  0  0  0  0  0
   24.2843  -10.6112  -18.2534 O   0  0  0  0  0  0  0  0  0  0  0  0
   20.1127  -11.4749  -17.5466 N   0  0  0  0  0  0  0  0  0  0  0  0
   21.0137  -11.4781  -16.4506 C   0  0  0  0  0  0  0  0  0  0  0  0
   21.5202  -12.5860  -16.0577 O   0  0  0  0  0  0  0  0  0  0  0  0
   21.3525  -10.2023  -15.7776 C   0  0  0  0  0  0  0  0  0  0  0  0
   22.5146   -9.5483  -16.4766 C   0  0  2  0  0  0  0  0  0  0  0  0
   23.6960  -10.2872  -16.0997 N   0  0  0  0  0  0  0  0  0  0  0  0
   22.6405   -8.1134  -16.1634 C   0  0  0  0  0  0  0  0  0  0  0  0
   23.1522   -7.7747  -15.0731 O   0  0  0  0  0  0  0  0  0  0  0  0
   22.0866   -4.7789  -17.8192 C   0  0  0  0  0  0  0  0  0  0  0  0
   22.3791   -5.7316  -16.6832 C   0  0  2  0  0  0  0  0  0  0  0  0
   22.2036   -7.1009  -17.0510 N   0  0  0  0  0  0  0  0  0  0  0  0
   21.5501   -5.4293  -15.4867 C   0  0  0  0  0  0  0  0  0  0  0  0
   21.8972   -4.4345  -14.5864 O   0  0  0  0  0  0  0  0  0  0  0  0
   20.5034   -6.0818  -15.2644 O   0  0  0  0  0  0  0  0  0  0  0  0
  2  1  1  0
  3  2  1  0
  4  5  1  0
  4  3  1  0
  5  7  1  0
  5  6  1  1
  7  8  2  0
  9 10  1  0
 10 11  2  0
 12 10  1  0
 13 12  1  1
 14 13  1  0
 14  7  1  0
 15 16  2  0
 15 13  1  0
 18 17  1  6
 18 19  1  0
 18 20  1  0
 19 15  1  0
 20 21  1  0
 22 20  2  0
M  END
$$$$
