MNA.pdb
     RDKit          3D

 22 21  0  0  1  0  0  0  0  0999 V2000
   29.1076   -8.1487  -17.9512 C   0  0  0  0  0  0  0  0  0  0  0  0
   29.3730   -9.8825  -18.3166 S   0  0  0  0  0  0  0  0  0  0  0  0
   28.4710  -10.9026  -17.1086 C   0  0  0  0  0  0  0  0  0  0  0  0
   26.9965  -10.6080  -17.1460 C   0  0  0  0  0  0  0  0  0  0  0  0
   26.2058  -11.3503  -16.1183 C   0  0  2  0  0  0  0  0  0  0  0  0
   26.4118  -12.8019  -16.2882 N   0  0  0  0  0  0  0  0  0  0  0  0
   24.7669  -11.0339  -16.0704 C   0  0  0  0  0  0  0  0  0  0  0  0
   23.9075  -11.7445  -16.6716 O   0  0  0  0  0  0  0  0  0  0  0  0
   20.3539   -9.3775  -12.5456 N   0  0  0  0  0  0  0  0  0  0  0  0
   20.9355   -9.9181  -13.7213 C   0  0  0  0  0  0  0  0  0  0  0  0
   20.1754  -10.3530  -14.6548 O   0  0  0  0  0  0  0  0  0  0  0  0
   22.4106   -9.9730  -13.8499 C   0  0  0  0  0  0  0  0  0  0  0  0
   22.8112   -9.6803  -15.2714 C   0  0  2  0  0  0  0  0  0  0  0  0
   24.2291   -9.9339  -15.3646 N   0  0  0  0  0  0  0  0  0  0  0  0
   22.4687   -8.3104  -15.6948 C   0  0  0  0  0  0  0  0  0  0  0  0
   23.1206   -7.3514  -15.2255 O   0  0  0  0  0  0  0  0  0  0  0  0
   20.3907   -6.5378  -18.2489 C   0  0  0  0  0  0  0  0  0  0  0  0
   21.1216   -6.6790  -16.9338 C   0  0  2  0  0  0  0  0  0  0  0  0
   21.4278   -8.0374  -16.6146 N   0  0  0  0  0  0  0  0  0  0  0  0
   20.3591   -6.0663  -15.8142 C   0  0  0  0  0  0  0  0  0  0  0  0
   20.4880   -4.7260  -15.4863 O   0  0  0  0  0  0  0  0  0  0  0  0
   19.5726   -6.7637  -15.1318 O   0  0  0  0  0  0  0  0  0  0  0  0
  2  1  1  0
  3  2  1  0
  4  5  1  0
  4  3  1  0
  5  7  1  0
  5  6  1  6
  7  8  2  0
  9 10  1  0
 10 11  2  0
 12 10  1  0
 13 12  1  1
 14 13  1  0
 14  7  1  0
 15 16  2  0
 15 13  1  0
 18 17  1  6
 18 19  1  0
 18 20  1  0
 19 15  1  0
 20 21  1  0
 22 20  2  0
M  END
$$$$
