MNA.pdb
     RDKit          3D

 22 21  0  0  1  0  0  0  0  0999 V2000
   16.0393  -13.5385  -18.8845 C   0  0  0  0  0  0  0  0  0  0  0  0
   16.4984  -11.8468  -18.5138 S   0  0  0  0  0  0  0  0  0  0  0  0
   17.1271  -11.7482  -16.8083 C   0  0  0  0  0  0  0  0  0  0  0  0
   17.6039  -10.3582  -16.4873 C   0  0  0  0  0  0  0  0  0  0  0  0
   18.1426  -10.2091  -15.1016 C   0  0  2  0  0  0  0  0  0  0  0  0
   17.2037  -10.8150  -14.1374 N   0  0  0  0  0  0  0  0  0  0  0  0
   18.4858   -8.8342  -14.6958 C   0  0  0  0  0  0  0  0  0  0  0  0
   17.6818   -8.1146  -14.0320 O   0  0  0  0  0  0  0  0  0  0  0  0
   20.9443   -4.4202  -13.8396 N   0  0  0  0  0  0  0  0  0  0  0  0
   21.7673   -5.5318  -13.5235 C   0  0  0  0  0  0  0  0  0  0  0  0
   22.8014   -5.3586  -12.7894 O   0  0  0  0  0  0  0  0  0  0  0  0
   21.4195   -6.8731  -14.0484 C   0  0  0  0  0  0  0  0  0  0  0  0
   20.0249   -6.8542  -14.6156 C   0  0  2  0  0  0  0  0  0  0  0  0
   19.7155   -8.2097  -15.0040 N   0  0  0  0  0  0  0  0  0  0  0  0
   19.8739   -5.9123  -15.7394 C   0  0  0  0  0  0  0  0  0  0  0  0
   20.5447   -6.0982  -16.7789 O   0  0  0  0  0  0  0  0  0  0  0  0
   20.1425   -3.2938  -17.2391 C   0  0  0  0  0  0  0  0  0  0  0  0
   18.8532   -3.9762  -16.8443 C   0  0  2  0  0  0  0  0  0  0  0  0
   18.9967   -4.8024  -15.6878 N   0  0  0  0  0  0  0  0  0  0  0  0
   18.2941   -4.7808  -17.9624 C   0  0  0  0  0  0  0  0  0  0  0  0
   19.0963   -5.2937  -18.9694 O   0  0  0  0  0  0  0  0  0  0  0  0
   17.0638   -5.0130  -18.0176 O   0  0  0  0  0  0  0  0  0  0  0  0
  2  1  1  0
  3  2  1  0
  4  5  1  0
  4  3  1  0
  5  7  1  0
  5  6  1  1
  7  8  2  0
  9 10  1  0
 10 11  2  0
 12 10  1  0
 13 12  1  6
 14 13  1  0
 14  7  1  0
 15 16  2  0
 15 13  1  0
 18 17  1  6
 18 19  1  0
 18 20  1  0
 19 15  1  0
 20 21  1  0
 22 20  2  0
M  END
$$$$
