MNA.pdb
     RDKit          3D

 22 21  0  0  1  0  0  0  0  0999 V2000
   27.1981  -14.3396  -16.0358 C   0  0  0  0  0  0  0  0  0  0  0  0
   25.6043  -14.5062  -15.2346 S   0  0  0  0  0  0  0  0  0  0  0  0
   25.0438  -12.8750  -14.6526 C   0  0  0  0  0  0  0  0  0  0  0  0
   24.4657  -12.0672  -15.7820 C   0  0  0  0  0  0  0  0  0  0  0  0
   24.0742  -10.6787  -15.3934 C   0  0  2  0  0  0  0  0  0  0  0  0
   23.1634  -10.7273  -14.2331 N   0  0  0  0  0  0  0  0  0  0  0  0
   23.4970   -9.8542  -16.4703 C   0  0  0  0  0  0  0  0  0  0  0  0
   23.9835   -9.8495  -17.6400 O   0  0  0  0  0  0  0  0  0  0  0  0
   20.7322   -7.6682  -19.8052 N   0  0  0  0  0  0  0  0  0  0  0  0
   19.9841   -8.5977  -19.0377 C   0  0  0  0  0  0  0  0  0  0  0  0
   18.9081   -9.0916  -19.5244 O   0  0  0  0  0  0  0  0  0  0  0  0
   20.4571   -8.9805  -17.6867 C   0  0  0  0  0  0  0  0  0  0  0  0
   21.7618   -8.2911  -17.3875 C   0  0  2  0  0  0  0  0  0  0  0  0
   22.3738   -9.0139  -16.2982 N   0  0  0  0  0  0  0  0  0  0  0  0
   21.5973   -6.8601  -17.0741 C   0  0  0  0  0  0  0  0  0  0  0  0
   21.0963   -6.1055  -17.9370 O   0  0  0  0  0  0  0  0  0  0  0  0
   22.0352   -4.0325  -16.7406 C   0  0  0  0  0  0  0  0  0  0  0  0
   21.7089   -4.9285  -15.5683 C   0  0  2  0  0  0  0  0  0  0  0  0
   21.9854   -6.3052  -15.8309 N   0  0  0  0  0  0  0  0  0  0  0  0
   20.2924   -4.7796  -15.1420 C   0  0  0  0  0  0  0  0  0  0  0  0
   19.9490   -4.2248  -13.9194 O   0  0  0  0  0  0  0  0  0  0  0  0
   19.3651   -5.1621  -15.8933 O   0  0  0  0  0  0  0  0  0  0  0  0
  2  1  1  0
  3  2  1  0
  4  5  1  0
  4  3  1  0
  5  7  1  0
  5  6  1  1
  7  8  2  0
  9 10  1  0
 10 11  2  0
 12 10  1  0
 13 12  1  1
 14 13  1  0
 14  7  1  0
 15 16  2  0
 15 13  1  0
 18 17  1  6
 18 19  1  0
 18 20  1  0
 19 15  1  0
 20 21  1  0
 22 20  2  0
M  END
$$$$
