MNA.pdb
     RDKit          3D

 22 21  0  0  1  0  0  0  0  0999 V2000
   17.8417  -21.3673    3.4511 C   0  0  0  0  0  0  0  0  0  0  0  0
   16.6813  -20.4432    2.4463 S   0  0  0  0  0  0  0  0  0  0  0  0
   16.0608  -19.0169    3.3920 C   0  0  0  0  0  0  0  0  0  0  0  0
   17.1691  -18.0466    3.6965 C   0  0  0  0  0  0  0  0  0  0  0  0
   16.7290  -16.8533    4.4805 C   0  0  2  0  0  0  0  0  0  0  0  0
   15.8745  -15.9945    3.6374 N   0  0  0  0  0  0  0  0  0  0  0  0
   17.8091  -16.0624    5.0976 C   0  0  0  0  0  0  0  0  0  0  0  0
   18.6268  -15.3920    4.3999 O   0  0  0  0  0  0  0  0  0  0  0  0
   18.5063  -11.5962    8.1595 N   0  0  0  0  0  0  0  0  0  0  0  0
   19.0127  -12.7764    7.5566 C   0  0  0  0  0  0  0  0  0  0  0  0
   20.0104  -12.6953    6.7589 O   0  0  0  0  0  0  0  0  0  0  0  0
   18.3793  -14.0817    7.8569 C   0  0  0  0  0  0  0  0  0  0  0  0
   19.0651  -15.1736    7.0795 C   0  0  2  0  0  0  0  0  0  0  0  0
   18.0240  -15.9829    6.4921 N   0  0  0  0  0  0  0  0  0  0  0  0
   19.9854  -15.9763    7.9052 C   0  0  0  0  0  0  0  0  0  0  0  0
   19.5131  -16.8674    8.6455 O   0  0  0  0  0  0  0  0  0  0  0  0
   23.6836  -16.3059    8.5570 C   0  0  0  0  0  0  0  0  0  0  0  0
   22.2084  -16.5690    8.7527 C   0  0  2  0  0  0  0  0  0  0  0  0
   21.3869  -15.7774    7.8928 N   0  0  0  0  0  0  0  0  0  0  0  0
   21.7963  -16.3571   10.1653 C   0  0  0  0  0  0  0  0  0  0  0  0
   21.2436  -15.1617   10.5965 O   0  0  0  0  0  0  0  0  0  0  0  0
   21.9458  -17.2718   11.0090 O   0  0  0  0  0  0  0  0  0  0  0  0
  2  1  1  0
  3  2  1  0
  4  5  1  0
  4  3  1  0
  5  7  1  0
  5  6  1  6
  7  8  2  0
  9 10  1  0
 10 11  2  0
 12 10  1  0
 13 12  1  1
 14 13  1  0
 14  7  1  0
 15 16  2  0
 15 13  1  0
 18 17  1  1
 18 19  1  0
 18 20  1  0
 19 15  1  0
 20 21  1  0
 22 20  2  0
M  END
$$$$
