IGS.pdb
     RDKit          3D

 19 18  0  0  1  0  0  0  0  0999 V2000
   16.7658  -14.9583  -16.1475 C   0  0  0  0  0  0  0  0  0  0  0  0
   17.7995  -13.9304  -16.5379 C   0  0  0  0  0  0  0  0  0  0  0  0
   17.3149  -12.5610  -16.0500 C   0  0  2  0  0  0  0  0  0  0  0  0
   16.0377  -12.1670  -16.7821 C   0  0  0  0  0  0  0  0  0  0  0  0
   18.3921  -11.5730  -16.4307 C   0  0  2  0  0  0  0  0  0  0  0  0
   19.6106  -11.9439  -15.7404 N   0  0  0  0  0  0  0  0  0  0  0  0
   17.9544  -10.1934  -16.0347 C   0  0  0  0  0  0  0  0  0  0  0  0
   16.9204   -9.6860  -16.5366 O   0  0  0  0  0  0  0  0  0  0  0  0
   18.6955   -9.4503  -15.0968 N   0  0  0  0  0  0  0  0  0  0  0  0
   18.3034   -8.1033  -14.7924 C   0  0  0  0  0  0  0  0  0  0  0  0
   19.1731   -7.5450  -13.7170 C   0  0  0  0  0  0  0  0  0  0  0  0
   19.4149   -8.2186  -12.6838 O   0  0  0  0  0  0  0  0  0  0  0  0
   23.3603   -6.5909  -14.1053 O   0  0  0  0  0  0  0  0  0  0  0  0
   22.0440   -6.9447  -14.3639 C   0  0  0  0  0  0  0  0  0  0  0  0
   21.1590   -6.0173  -13.5645 C   0  0  2  0  0  0  0  0  0  0  0  0
   19.7559   -6.2528  -13.8098 N   0  0  0  0  0  0  0  0  0  0  0  0
   21.5084   -4.6302  -13.9619 C   0  0  0  0  0  0  0  0  0  0  0  0
   22.4893   -3.9052  -13.3008 O   0  0  0  0  0  0  0  0  0  0  0  0
   20.9070   -4.0914  -14.9184 O   0  0  0  0  0  0  0  0  0  0  0  0
  2  1  1  0
  3  2  1  0
  3  4  1  6
  5  3  1  0
  5  6  1  1
  7  5  1  0
  8  7  2  0
  9  7  1  0
 10  9  1  0
 10 11  1  0
 11 16  1  0
 12 11  2  0
 14 13  1  0
 15 17  1  0
 15 14  1  6
 16 15  1  0
 17 18  1  0
 19 17  2  0
M  END
$$$$
