IGS.pdb
     RDKit          3D

 19 18  0  0  1  0  0  0  0  0999 V2000
   21.6239  -14.5602  -20.4950 C   0  0  0  0  0  0  0  0  0  0  0  0
   22.4711  -13.6473  -19.6426 C   0  0  0  0  0  0  0  0  0  0  0  0
   21.5901  -12.4857  -19.1707 C   0  0  2  0  0  0  0  0  0  0  0  0
   21.0958  -11.6841  -20.3689 C   0  0  0  0  0  0  0  0  0  0  0  0
   22.4828  -11.5876  -18.3474 C   0  0  2  0  0  0  0  0  0  0  0  0
   22.9679  -12.3482  -17.2138 N   0  0  0  0  0  0  0  0  0  0  0  0
   21.6930  -10.3962  -17.8908 C   0  0  0  0  0  0  0  0  0  0  0  0
   21.3495   -9.5089  -18.7112 O   0  0  0  0  0  0  0  0  0  0  0  0
   21.3269  -10.2571  -16.5389 N   0  0  0  0  0  0  0  0  0  0  0  0
   20.5712   -9.1088  -16.1251 C   0  0  0  0  0  0  0  0  0  0  0  0
   21.4889   -7.9787  -15.8008 C   0  0  0  0  0  0  0  0  0  0  0  0
   22.7277   -8.1729  -15.7147 O   0  0  0  0  0  0  0  0  0  0  0  0
   20.0165   -4.1646  -15.2227 O   0  0  0  0  0  0  0  0  0  0  0  0
   21.2382   -4.2328  -15.8763 C   0  0  0  0  0  0  0  0  0  0  0  0
   21.9022   -5.5258  -15.4642 C   0  0  2  0  0  0  0  0  0  0  0  0
   21.0142   -6.6582  -15.5791 N   0  0  0  0  0  0  0  0  0  0  0  0
   22.3272   -5.3670  -14.0507 C   0  0  0  0  0  0  0  0  0  0  0  0
   23.2778   -4.4294  -13.6737 O   0  0  0  0  0  0  0  0  0  0  0  0
   21.8197   -6.0946  -13.1675 O   0  0  0  0  0  0  0  0  0  0  0  0
  2  1  1  0
  3  2  1  0
  3  4  1  6
  5  3  1  0
  5  6  1  1
  7  5  1  0
  8  7  2  0
  9  7  1  0
 10  9  1  0
 10 11  1  0
 11 16  1  0
 12 11  2  0
 14 13  1  0
 15 17  1  0
 15 14  1  1
 16 15  1  0
 17 18  1  0
 19 17  2  0
M  END
$$$$
