IGS.pdb
     RDKit          3D

 19 18  0  0  1  0  0  0  0  0999 V2000
   16.1573  -14.2113  -18.5593 C   0  0  0  0  0  0  0  0  0  0  0  0
   17.5375  -13.7243  -18.1910 C   0  0  0  0  0  0  0  0  0  0  0  0
   17.4856  -12.1975  -18.0711 C   0  0  2  0  0  0  0  0  0  0  0  0
   17.1655  -11.5772  -19.4258 C   0  0  0  0  0  0  0  0  0  0  0  0
   18.8759  -11.7588  -17.6763 C   0  0  2  0  0  0  0  0  0  0  0  0
   19.1540  -12.2747  -16.3514 N   0  0  0  0  0  0  0  0  0  0  0  0
   18.9391  -10.2596  -17.6882 C   0  0  0  0  0  0  0  0  0  0  0  0
   18.9103   -9.6308  -18.7755 O   0  0  0  0  0  0  0  0  0  0  0  0
   19.0314   -9.5387  -16.4829 N   0  0  0  0  0  0  0  0  0  0  0  0
   19.0405   -8.1035  -16.5157 C   0  0  0  0  0  0  0  0  0  0  0  0
   19.4429   -7.5612  -15.1859 C   0  0  0  0  0  0  0  0  0  0  0  0
   18.8220   -7.9026  -14.1478 O   0  0  0  0  0  0  0  0  0  0  0  0
   22.4836   -8.0402  -13.7715 O   0  0  0  0  0  0  0  0  0  0  0  0
   21.5914   -7.3719  -12.9457 C   0  0  0  0  0  0  0  0  0  0  0  0
   21.0049   -6.2292  -13.7412 C   0  0  2  0  0  0  0  0  0  0  0  0
   20.5245   -6.6526  -15.0350 N   0  0  0  0  0  0  0  0  0  0  0  0
   22.0804   -5.2206  -13.9143 C   0  0  0  0  0  0  0  0  0  0  0  0
   22.5925   -4.5059  -12.8411 O   0  0  0  0  0  0  0  0  0  0  0  0
   22.5444   -5.0020  -15.0562 O   0  0  0  0  0  0  0  0  0  0  0  0
  2  1  1  0
  3  2  1  0
  3  4  1  6
  5  3  1  0
  5  6  1  1
  7  5  1  0
  8  7  2  0
  9  7  1  0
 10  9  1  0
 10 11  1  0
 11 16  1  0
 12 11  2  0
 14 13  1  0
 15 17  1  0
 15 14  1  6
 16 15  1  0
 17 18  1  0
 19 17  2  0
M  END
$$$$
