IGS.pdb
     RDKit          3D

 19 18  0  0  1  0  0  0  0  0999 V2000
   18.4324  -23.1063  -13.2297 C   0  0  0  0  0  0  0  0  0  0  0  0
   18.8960  -24.2117  -12.3126 C   0  0  0  0  0  0  0  0  0  0  0  0
   18.4569  -23.8609  -10.8871 C   0  0  2  0  0  0  0  0  0  0  0  0
   19.4350  -22.8698  -10.2676 C   0  0  0  0  0  0  0  0  0  0  0  0
   18.5330  -25.1449  -10.0952 C   0  0  2  0  0  0  0  0  0  0  0  0
   17.6732  -26.1212  -10.7328 N   0  0  0  0  0  0  0  0  0  0  0  0
   18.0859  -24.8802   -8.6874 C   0  0  0  0  0  0  0  0  0  0  0  0
   16.9294  -24.4460   -8.4589 O   0  0  0  0  0  0  0  0  0  0  0  0
   18.9553  -25.1145   -7.6056 N   0  0  0  0  0  0  0  0  0  0  0  0
   18.5421  -24.7622   -6.2767 C   0  0  0  0  0  0  0  0  0  0  0  0
   18.0874  -25.9768   -5.5404 C   0  0  0  0  0  0  0  0  0  0  0  0
   17.8435  -27.0411   -6.1629 O   0  0  0  0  0  0  0  0  0  0  0  0
   17.7238  -28.3180   -1.3535 O   0  0  0  0  0  0  0  0  0  0  0  0
   17.9678  -27.0830   -1.9364 C   0  0  0  0  0  0  0  0  0  0  0  0
   17.5988  -27.1894   -3.3975 C   0  0  2  0  0  0  0  0  0  0  0  0
   17.9127  -25.9860   -4.1306 N   0  0  0  0  0  0  0  0  0  0  0  0
   16.1378  -27.4450   -3.4612 C   0  0  0  0  0  0  0  0  0  0  0  0
   15.2156  -26.4096   -3.5098 O   0  0  0  0  0  0  0  0  0  0  0  0
   15.7166  -28.6238   -3.4718 O   0  0  0  0  0  0  0  0  0  0  0  0
  2  1  1  0
  3  2  1  0
  3  4  1  1
  5  3  1  0
  5  6  1  6
  7  5  1  0
  8  7  2  0
  9  7  1  0
 10  9  1  0
 10 11  1  0
 11 16  1  0
 12 11  2  0
 14 13  1  0
 15 17  1  0
 15 14  1  1
 16 15  1  0
 17 18  1  0
 19 17  2  0
M  END
$$$$
