IGS.pdb
     RDKit          3D

 19 18  0  0  1  0  0  0  0  0999 V2000
   17.3578  -13.5023  -19.2651 C   0  0  0  0  0  0  0  0  0  0  0  0
   18.4203  -13.1166  -18.2651 C   0  0  0  0  0  0  0  0  0  0  0  0
   18.9312  -11.7190  -18.6309 C   0  0  2  0  0  0  0  0  0  0  0  0
   19.6183  -11.7528  -19.9909 C   0  0  0  0  0  0  0  0  0  0  0  0
   19.9711  -11.3661  -17.5939 C   0  0  2  0  0  0  0  0  0  0  0  0
   19.3386  -11.3952  -16.2908 N   0  0  0  0  0  0  0  0  0  0  0  0
   20.5162   -9.9999  -17.8910 C   0  0  0  0  0  0  0  0  0  0  0  0
   21.2383   -9.8097  -18.9012 O   0  0  0  0  0  0  0  0  0  0  0  0
   20.2260   -8.9149  -17.0427 N   0  0  0  0  0  0  0  0  0  0  0  0
   20.7624   -7.6179  -17.3444 C   0  0  0  0  0  0  0  0  0  0  0  0
   20.4601   -6.6660  -16.2367 C   0  0  0  0  0  0  0  0  0  0  0  0
   19.2780   -6.2958  -16.0239 O   0  0  0  0  0  0  0  0  0  0  0  0
   21.5908   -7.4210  -12.8860 O   0  0  0  0  0  0  0  0  0  0  0  0
   20.6267   -6.4481  -13.1060 C   0  0  0  0  0  0  0  0  0  0  0  0
   21.1753   -5.4901  -14.1374 C   0  0  2  0  0  0  0  0  0  0  0  0
   21.4739   -6.1450  -15.3888 N   0  0  0  0  0  0  0  0  0  0  0  0
   22.4170   -4.9046  -13.5725 C   0  0  0  0  0  0  0  0  0  0  0  0
   22.4060   -4.1503  -12.4081 O   0  0  0  0  0  0  0  0  0  0  0  0
   23.5089   -5.0909  -14.1557 O   0  0  0  0  0  0  0  0  0  0  0  0
  2  1  1  0
  3  2  1  0
  3  4  1  6
  5  3  1  0
  5  6  1  1
  7  5  1  0
  8  7  2  0
  9  7  1  0
 10  9  1  0
 10 11  1  0
 11 16  1  0
 12 11  2  0
 14 13  1  0
 15 17  1  0
 15 14  1  1
 16 15  1  0
 17 18  1  0
 19 17  2  0
M  END
$$$$
