IGS.pdb
     RDKit          3D

 19 18  0  0  1  0  0  0  0  0999 V2000
   19.4886  -19.7441  -13.5639 C   0  0  0  0  0  0  0  0  0  0  0  0
   19.4261  -20.7523  -12.4425 C   0  0  0  0  0  0  0  0  0  0  0  0
   20.7193  -20.6376  -11.6287 C   0  0  2  0  0  0  0  0  0  0  0  0
   20.8826  -19.2161  -11.1039 C   0  0  0  0  0  0  0  0  0  0  0  0
   21.8493  -20.9092  -12.5934 C   0  0  2  0  0  0  0  0  0  0  0  0
   21.8072  -22.3111  -12.9563 N   0  0  0  0  0  0  0  0  0  0  0  0
   23.1522  -20.5694  -11.9309 C   0  0  0  0  0  0  0  0  0  0  0  0
   23.4394  -19.3748  -11.6689 O   0  0  0  0  0  0  0  0  0  0  0  0
   24.0686  -21.5834  -11.5947 N   0  0  0  0  0  0  0  0  0  0  0  0
   25.3516  -21.2278  -11.0576 C   0  0  0  0  0  0  0  0  0  0  0  0
   26.2763  -20.8272  -12.1571 C   0  0  0  0  0  0  0  0  0  0  0  0
   26.8035  -19.6863  -12.1579 O   0  0  0  0  0  0  0  0  0  0  0  0
   28.4052  -21.8721  -16.3744 O   0  0  0  0  0  0  0  0  0  0  0  0
   27.6105  -22.3838  -15.3590 C   0  0  0  0  0  0  0  0  0  0  0  0
   27.3021  -21.2505  -14.4087 C   0  0  2  0  0  0  0  0  0  0  0  0
   26.5969  -21.6994  -13.2317 N   0  0  0  0  0  0  0  0  0  0  0  0
   26.4641  -20.2749  -15.1502 C   0  0  0  0  0  0  0  0  0  0  0  0
   27.0243  -19.2760  -15.9333 O   0  0  0  0  0  0  0  0  0  0  0  0
   25.2168  -20.3475  -15.0729 O   0  0  0  0  0  0  0  0  0  0  0  0
  2  1  1  0
  3  2  1  0
  3  4  1  6
  5  3  1  0
  5  6  1  1
  7  5  1  0
  8  7  2  0
  9  7  1  0
 10  9  1  0
 10 11  1  0
 11 16  1  0
 12 11  2  0
 14 13  1  0
 15 17  1  0
 15 14  1  6
 16 15  1  0
 17 18  1  0
 19 17  2  0
M  END
$$$$
