IGS.pdb
     RDKit          3D

 19 18  0  0  1  0  0  0  0  0999 V2000
   24.4556  -15.4126  -19.6043 C   0  0  0  0  0  0  0  0  0  0  0  0
   25.0775  -14.2234  -18.9137 C   0  0  0  0  0  0  0  0  0  0  0  0
   23.9491  -13.3859  -18.3027 C   0  0  2  0  0  0  0  0  0  0  0  0
   23.4354  -12.3771  -19.3230 C   0  0  0  0  0  0  0  0  0  0  0  0
   24.5675  -12.6164  -17.1596 C   0  0  2  0  0  0  0  0  0  0  0  0
   25.1781  -13.5667  -16.2524 N   0  0  0  0  0  0  0  0  0  0  0  0
   23.4973  -11.8276  -16.4635 C   0  0  0  0  0  0  0  0  0  0  0  0
   22.5392  -12.4144  -15.9014 O   0  0  0  0  0  0  0  0  0  0  0  0
   23.5527  -10.4216  -16.4312 N   0  0  0  0  0  0  0  0  0  0  0  0
   22.4387   -9.6814  -15.9097 C   0  0  0  0  0  0  0  0  0  0  0  0
   22.7827   -8.2334  -15.8143 C   0  0  0  0  0  0  0  0  0  0  0  0
   23.8723   -7.8090  -16.2753 O   0  0  0  0  0  0  0  0  0  0  0  0
   19.8952   -5.5252  -15.4916 O   0  0  0  0  0  0  0  0  0  0  0  0
   21.1304   -5.0775  -15.9370 C   0  0  0  0  0  0  0  0  0  0  0  0
   22.1904   -5.8703  -15.2089 C   0  0  2  0  0  0  0  0  0  0  0  0
   21.9123   -7.2870  -15.2102 N   0  0  0  0  0  0  0  0  0  0  0  0
   22.2261   -5.3708  -13.8113 C   0  0  0  0  0  0  0  0  0  0  0  0
   22.7163   -4.1115  -13.4971 O   0  0  0  0  0  0  0  0  0  0  0  0
   21.8046   -6.0985  -12.8841 O   0  0  0  0  0  0  0  0  0  0  0  0
  2  1  1  0
  3  2  1  0
  3  4  1  6
  5  3  1  0
  5  6  1  1
  7  5  1  0
  8  7  2  0
  9  7  1  0
 10  9  1  0
 10 11  1  0
 11 16  1  0
 12 11  2  0
 14 13  1  0
 15 17  1  0
 15 14  1  6
 16 15  1  0
 17 18  1  0
 19 17  2  0
M  END
$$$$
