GYV.pdb
     RDKit          3D

 24 24  0  0  1  0  0  0  0  0999 V2000
    4.6043  -20.7102   22.6350 N   0  0  0  0  0  0  0  0  0  0  0  0
    5.4678  -20.3273   23.7084 C   0  0  0  0  0  0  0  0  0  0  0  0
    5.7979  -18.8594   23.6546 C   0  0  0  0  0  0  0  0  0  0  0  0
    5.3423  -18.1437   22.7268 O   0  0  0  0  0  0  0  0  0  0  0  0
    6.7042  -10.7672   26.7065 O   0  0  0  0  0  0  0  0  0  0  0  0
    6.8564  -12.1354   26.5295 C   0  0  0  0  0  0  0  0  0  0  0  0
    5.7424  -12.9612   26.7020 C   0  0  0  0  0  0  0  0  0  0  0  0
    5.9238  -14.3252   26.5187 C   0  0  0  0  0  0  0  0  0  0  0  0
    7.1342  -14.8772   26.1811 C   0  0  0  0  0  0  0  0  0  0  0  0
    7.3361  -16.3237   25.9831 C   0  0  0  0  0  0  0  0  0  0  0  0
    6.9334  -16.8200   24.6235 C   0  0  2  0  0  0  0  0  0  0  0  0
    6.6153  -18.2326   24.6205 N   0  0  0  0  0  0  0  0  0  0  0  0
    7.9860  -16.5114   23.6032 C   0  0  0  0  0  0  0  0  0  0  0  0
    8.9911  -17.2450   23.4401 O   0  0  0  0  0  0  0  0  0  0  0  0
    8.1980  -14.0132   26.0243 C   0  0  0  0  0  0  0  0  0  0  0  0
    8.0828  -12.6552   26.1917 C   0  0  0  0  0  0  0  0  0  0  0  0
    8.4405  -12.8057   21.3472 C   0  0  0  0  0  0  0  0  0  0  0  0
    8.2026  -14.1290   20.6626 C   0  0  2  0  0  0  0  0  0  0  0  0
    6.7230  -14.2400   20.3707 C   0  0  0  0  0  0  0  0  0  0  0  0
    8.6919  -15.2421   21.5660 C   0  0  2  0  0  0  0  0  0  0  0  0
    7.8955  -15.3553   22.7583 N   0  0  0  0  0  0  0  0  0  0  0  0
   10.1429  -15.0920   21.8822 C   0  0  0  0  0  0  0  0  0  0  0  0
   11.0691  -15.1785   20.8547 O   0  0  0  0  0  0  0  0  0  0  0  0
   10.5553  -14.8895   23.0498 O   0  0  0  0  0  0  0  0  0  0  0  0
  2  1  1  0
  3  2  1  0
  4  3  2  0
  5  6  1  0
  6 16  2  0
  7  6  1  0
  7  8  2  0
  8  9  1  0
  9 15  2  0
  9 10  1  0
 11 10  1  1
 11 13  1  0
 11 12  1  0
 12  3  1  0
 13 21  1  0
 14 13  2  0
 16 15  1  0
 18 20  1  0
 18 17  1  1
 19 18  1  0
 20 22  1  0
 20 21  1  1
 22 24  2  0
 22 23  1  0
M  END
$$$$
