GYV.pdb
     RDKit          3D

 24 24  0  0  1  0  0  0  0  0999 V2000
    4.4783  -20.8194   23.0080 N   0  0  0  0  0  0  0  0  0  0  0  0
    5.6556  -20.4638   23.7373 C   0  0  0  0  0  0  0  0  0  0  0  0
    5.8705  -18.9737   23.7464 C   0  0  0  0  0  0  0  0  0  0  0  0
    5.3893  -18.2612   22.8292 O   0  0  0  0  0  0  0  0  0  0  0  0
    7.1921  -10.7934   26.6766 O   0  0  0  0  0  0  0  0  0  0  0  0
    7.2070  -12.1752   26.5467 C   0  0  0  0  0  0  0  0  0  0  0  0
    6.0161  -12.8794   26.7431 C   0  0  0  0  0  0  0  0  0  0  0  0
    6.0605  -14.2601   26.6068 C   0  0  0  0  0  0  0  0  0  0  0  0
    7.2098  -14.9413   26.2926 C   0  0  0  0  0  0  0  0  0  0  0  0
    7.2663  -16.4066   26.1446 C   0  0  0  0  0  0  0  0  0  0  0  0
    6.8843  -16.9016   24.7785 C   0  0  2  0  0  0  0  0  0  0  0  0
    6.6049  -18.3222   24.7614 N   0  0  0  0  0  0  0  0  0  0  0  0
    7.9333  -16.5552   23.7667 C   0  0  0  0  0  0  0  0  0  0  0  0
    8.9589  -17.2598   23.6024 O   0  0  0  0  0  0  0  0  0  0  0  0
    8.3545  -14.1935   26.1104 C   0  0  0  0  0  0  0  0  0  0  0  0
    8.3755  -12.8260   26.2311 C   0  0  0  0  0  0  0  0  0  0  0  0
    8.2191  -12.8012   21.5081 C   0  0  0  0  0  0  0  0  0  0  0  0
    8.1511  -14.1560   20.8474 C   0  0  2  0  0  0  0  0  0  0  0  0
    6.7091  -14.4175   20.4744 C   0  0  0  0  0  0  0  0  0  0  0  0
    8.6907  -15.1961   21.8074 C   0  0  2  0  0  0  0  0  0  0  0  0
    7.8157  -15.3945   22.9315 N   0  0  0  0  0  0  0  0  0  0  0  0
   10.0820  -14.8719   22.2396 C   0  0  0  0  0  0  0  0  0  0  0  0
   11.0954  -14.8573   21.2942 O   0  0  0  0  0  0  0  0  0  0  0  0
   10.3677  -14.6112   23.4333 O   0  0  0  0  0  0  0  0  0  0  0  0
  2  1  1  0
  3  2  1  0
  4  3  2  0
  5  6  1  0
  6 16  2  0
  7  6  1  0
  7  8  2  0
  8  9  1  0
  9 15  2  0
  9 10  1  0
 11 10  1  1
 11 13  1  0
 11 12  1  0
 12  3  1  0
 13 21  1  0
 14 13  2  0
 16 15  1  0
 18 20  1  0
 18 17  1  1
 19 18  1  0
 20 22  1  0
 20 21  1  1
 22 24  2  0
 22 23  1  0
M  END
$$$$
