GYV.pdb
     RDKit          3D

 24 24  0  0  1  0  0  0  0  0999 V2000
    8.4778  -19.2030   18.7729 N   0  0  0  0  0  0  0  0  0  0  0  0
    7.7351  -19.0112   19.9795 C   0  0  0  0  0  0  0  0  0  0  0  0
    8.4619  -18.1049   20.9371 C   0  0  0  0  0  0  0  0  0  0  0  0
    9.6327  -17.7251   20.6810 O   0  0  0  0  0  0  0  0  0  0  0  0
    7.3804  -12.0109   19.1132 O   0  0  0  0  0  0  0  0  0  0  0  0
    7.4905  -12.8906   20.1812 C   0  0  0  0  0  0  0  0  0  0  0  0
    6.4897  -13.8481   20.3662 C   0  0  0  0  0  0  0  0  0  0  0  0
    6.6257  -14.7145   21.4422 C   0  0  0  0  0  0  0  0  0  0  0  0
    7.6869  -14.6631   22.3109 C   0  0  0  0  0  0  0  0  0  0  0  0
    7.8405  -15.5794   23.4550 C   0  0  0  0  0  0  0  0  0  0  0  0
    8.5690  -16.8524   23.1295 C   0  0  2  0  0  0  0  0  0  0  0  0
    7.8767  -17.6499   22.1389 N   0  0  0  0  0  0  0  0  0  0  0  0
    8.8320  -17.6547   24.3669 C   0  0  0  0  0  0  0  0  0  0  0  0
    7.9101  -18.2250   24.9995 O   0  0  0  0  0  0  0  0  0  0  0  0
    8.6440  -13.6973   22.0785 C   0  0  0  0  0  0  0  0  0  0  0  0
    8.5665  -12.8115   21.0323 C   0  0  0  0  0  0  0  0  0  0  0  0
   12.8166  -18.1491   26.0850 C   0  0  0  0  0  0  0  0  0  0  0  0
   11.8263  -19.2758   25.9221 C   0  0  2  0  0  0  0  0  0  0  0  0
   12.1087  -19.9528   24.5998 C   0  0  0  0  0  0  0  0  0  0  0  0
   10.4238  -18.7072   25.9850 C   0  0  2  0  0  0  0  0  0  0  0  0
   10.1581  -17.8111   24.8918 N   0  0  0  0  0  0  0  0  0  0  0  0
   10.1523  -18.0655   27.3049 C   0  0  0  0  0  0  0  0  0  0  0  0
   10.1184  -18.8547   28.4438 O   0  0  0  0  0  0  0  0  0  0  0  0
    9.9530  -16.8321   27.4203 O   0  0  0  0  0  0  0  0  0  0  0  0
  2  1  1  0
  3  2  1  0
  4  3  2  0
  5  6  1  0
  6 16  2  0
  7  6  1  0
  7  8  2  0
  8  9  1  0
  9 15  2  0
  9 10  1  0
 11 10  1  1
 11 13  1  0
 11 12  1  0
 12  3  1  0
 13 21  1  0
 14 13  2  0
 16 15  1  0
 18 20  1  0
 18 17  1  6
 19 18  1  0
 20 22  1  0
 20 21  1  6
 22 24  2  0
 22 23  1  0
M  END
$$$$
