GYV.pdb
     RDKit          3D

 24 24  0  0  1  0  0  0  0  0999 V2000
   11.9441  -16.6336   19.7027 N   0  0  0  0  0  0  0  0  0  0  0  0
   10.9702  -17.2737   20.5311 C   0  0  0  0  0  0  0  0  0  0  0  0
   10.6404  -16.4400   21.7406 C   0  0  0  0  0  0  0  0  0  0  0  0
   11.4934  -15.6452   22.2108 O   0  0  0  0  0  0  0  0  0  0  0  0
    5.8487  -11.3708   27.0572 O   0  0  0  0  0  0  0  0  0  0  0  0
    6.2514  -12.3753   26.1882 C   0  0  0  0  0  0  0  0  0  0  0  0
    5.9834  -13.7037   26.5296 C   0  0  0  0  0  0  0  0  0  0  0  0
    6.3974  -14.6873   25.6420 C   0  0  0  0  0  0  0  0  0  0  0  0
    7.0467  -14.4048   24.4664 C   0  0  0  0  0  0  0  0  0  0  0  0
    7.4888  -15.4422   23.5173 C   0  0  0  0  0  0  0  0  0  0  0  0
    8.9782  -15.6324   23.4644 C   0  0  2  0  0  0  0  0  0  0  0  0
    9.3874  -16.5100   22.3879 N   0  0  0  0  0  0  0  0  0  0  0  0
    9.5061  -16.1224   24.7779 C   0  0  0  0  0  0  0  0  0  0  0  0
    9.6848  -17.3427   25.0107 O   0  0  0  0  0  0  0  0  0  0  0  0
    7.2840  -13.0760   24.1822 C   0  0  0  0  0  0  0  0  0  0  0  0
    6.8996  -12.0574   25.0189 C   0  0  0  0  0  0  0  0  0  0  0  0
   11.4040  -15.1142   29.2462 C   0  0  0  0  0  0  0  0  0  0  0  0
   10.6543  -14.5719   28.0544 C   0  0  2  0  0  0  0  0  0  0  0  0
    9.3076  -14.0827   28.5380 C   0  0  0  0  0  0  0  0  0  0  0  0
   10.5253  -15.6683   27.0173 C   0  0  2  0  0  0  0  0  0  0  0  0
    9.8350  -15.2152   25.8397 N   0  0  0  0  0  0  0  0  0  0  0  0
    9.8943  -16.8929   27.5917 C   0  0  0  0  0  0  0  0  0  0  0  0
   10.6889  -17.8095   28.2621 O   0  0  0  0  0  0  0  0  0  0  0  0
    8.6650  -17.1227   27.4885 O   0  0  0  0  0  0  0  0  0  0  0  0
  2  1  1  0
  3  2  1  0
  4  3  2  0
  5  6  1  0
  6 16  2  0
  7  6  1  0
  7  8  2  0
  8  9  1  0
  9 15  2  0
  9 10  1  0
 11 10  1  1
 11 13  1  0
 11 12  1  0
 12  3  1  0
 13 21  1  0
 14 13  2  0
 16 15  1  0
 18 20  1  0
 18 17  1  1
 19 18  1  0
 20 22  1  0
 20 21  1  6
 22 24  2  0
 22 23  1  0
M  END
$$$$
