GYV.pdb
     RDKit          3D

 24 24  0  0  1  0  0  0  0  0999 V2000
    4.2467  -20.7727   23.2983 N   0  0  0  0  0  0  0  0  0  0  0  0
    5.6118  -20.3586   23.2004 C   0  0  0  0  0  0  0  0  0  0  0  0
    5.7467  -18.8651   23.3347 C   0  0  0  0  0  0  0  0  0  0  0  0
    5.1729  -18.1036   22.5153 O   0  0  0  0  0  0  0  0  0  0  0  0
    7.1267  -10.8551   26.7016 O   0  0  0  0  0  0  0  0  0  0  0  0
    7.1417  -12.2265   26.4883 C   0  0  0  0  0  0  0  0  0  0  0  0
    5.9411  -12.9338   26.5933 C   0  0  0  0  0  0  0  0  0  0  0  0
    5.9858  -14.3039   26.3749 C   0  0  0  0  0  0  0  0  0  0  0  0
    7.1442  -14.9719   26.0662 C   0  0  0  0  0  0  0  0  0  0  0  0
    7.2011  -16.4259   25.8314 C   0  0  0  0  0  0  0  0  0  0  0  0
    6.7695  -16.8434   24.4542 C   0  0  2  0  0  0  0  0  0  0  0  0
    6.5058  -18.2642   24.3625 N   0  0  0  0  0  0  0  0  0  0  0  0
    7.7724  -16.4226   23.4241 C   0  0  0  0  0  0  0  0  0  0  0  0
    8.7730  -17.1259   23.1422 O   0  0  0  0  0  0  0  0  0  0  0  0
    8.2982  -14.2217   25.9761 C   0  0  0  0  0  0  0  0  0  0  0  0
    8.3195  -12.8642   26.1809 C   0  0  0  0  0  0  0  0  0  0  0  0
    6.6071  -13.8304   20.3716 C   0  0  0  0  0  0  0  0  0  0  0  0
    8.0241  -13.6371   20.8524 C   0  0  2  0  0  0  0  0  0  0  0  0
    8.8848  -13.3333   19.6467 C   0  0  0  0  0  0  0  0  0  0  0  0
    8.4719  -14.8922   21.5725 C   0  0  2  0  0  0  0  0  0  0  0  0
    7.6369  -15.1881   22.7056 N   0  0  0  0  0  0  0  0  0  0  0  0
    9.9137  -14.8205   21.9515 C   0  0  0  0  0  0  0  0  0  0  0  0
   10.8759  -15.1396   21.0062 O   0  0  0  0  0  0  0  0  0  0  0  0
   10.2870  -14.4802   23.1001 O   0  0  0  0  0  0  0  0  0  0  0  0
  2  1  1  0
  3  2  1  0
  4  3  2  0
  5  6  1  0
  6 16  2  0
  7  6  1  0
  7  8  2  0
  8  9  1  0
  9 15  2  0
  9 10  1  0
 11 10  1  1
 11 13  1  0
 11 12  1  0
 12  3  1  0
 13 21  1  0
 14 13  2  0
 16 15  1  0
 18 20  1  0
 18 17  1  6
 19 18  1  0
 20 22  1  0
 20 21  1  1
 22 24  2  0
 22 23  1  0
M  END
$$$$
