GYV.pdb
     RDKit          3D

 24 24  0  0  1  0  0  0  0  0999 V2000
    5.3391  -20.0256   24.9400 N   0  0  0  0  0  0  0  0  0  0  0  0
    6.5619  -19.3563   25.2582 C   0  0  0  0  0  0  0  0  0  0  0  0
    6.6023  -17.9710   24.6701 C   0  0  0  0  0  0  0  0  0  0  0  0
    5.6642  -17.5696   23.9357 O   0  0  0  0  0  0  0  0  0  0  0  0
    5.5210  -10.9659   27.8010 O   0  0  0  0  0  0  0  0  0  0  0  0
    6.2869  -11.9165   27.1405 C   0  0  0  0  0  0  0  0  0  0  0  0
    7.3117  -12.5566   27.8425 C   0  0  0  0  0  0  0  0  0  0  0  0
    8.0614  -13.5026   27.1570 C   0  0  0  0  0  0  0  0  0  0  0  0
    7.8344  -13.8230   25.8419 C   0  0  0  0  0  0  0  0  0  0  0  0
    8.6241  -14.8268   25.1063 C   0  0  0  0  0  0  0  0  0  0  0  0
    7.7989  -15.7782   24.2871 C   0  0  2  0  0  0  0  0  0  0  0  0
    7.6703  -17.0789   24.9101 N   0  0  0  0  0  0  0  0  0  0  0  0
    8.3448  -15.9072   22.8981 C   0  0  0  0  0  0  0  0  0  0  0  0
    9.0807  -16.8652   22.5578 O   0  0  0  0  0  0  0  0  0  0  0  0
    6.8096  -13.1589   25.2004 C   0  0  0  0  0  0  0  0  0  0  0  0
    6.0327  -12.2135   25.8231 C   0  0  0  0  0  0  0  0  0  0  0  0
    8.4132  -12.7008   20.0091 C   0  0  0  0  0  0  0  0  0  0  0  0
    7.9362  -14.0715   19.5967 C   0  0  2  0  0  0  0  0  0  0  0  0
    6.4245  -14.0673   19.6372 C   0  0  0  0  0  0  0  0  0  0  0  0
    8.5301  -15.0997   20.5373 C   0  0  2  0  0  0  0  0  0  0  0  0
    8.0510  -14.9361   21.8835 N   0  0  0  0  0  0  0  0  0  0  0  0
   10.0214  -15.0992   20.4769 C   0  0  0  0  0  0  0  0  0  0  0  0
   10.6485  -15.4792   19.3006 O   0  0  0  0  0  0  0  0  0  0  0  0
   10.7302  -14.7657   21.4571 O   0  0  0  0  0  0  0  0  0  0  0  0
  2  1  1  0
  3  2  1  0
  4  3  2  0
  5  6  1  0
  6 16  2  0
  7  6  1  0
  7  8  2  0
  8  9  1  0
  9 15  2  0
  9 10  1  0
 11 10  1  1
 11 13  1  0
 11 12  1  0
 12  3  1  0
 13 21  1  0
 14 13  2  0
 16 15  1  0
 18 20  1  0
 18 17  1  1
 19 18  1  0
 20 22  1  0
 20 21  1  1
 22 24  2  0
 22 23  1  0
M  END
$$$$
