GYV.pdb
     RDKit          3D

 24 24  0  0  1  0  0  0  0  0999 V2000
    9.7727  -18.2142   17.2313 N   0  0  0  0  0  0  0  0  0  0  0  0
    9.3494  -18.6607   18.5220 C   0  0  0  0  0  0  0  0  0  0  0  0
   10.0155  -17.8787   19.6227 C   0  0  0  0  0  0  0  0  0  0  0  0
   11.2682  -17.7785   19.6565 O   0  0  0  0  0  0  0  0  0  0  0  0
    7.3287  -11.8465   17.9808 O   0  0  0  0  0  0  0  0  0  0  0  0
    7.7378  -12.6958   18.9995 C   0  0  0  0  0  0  0  0  0  0  0  0
    9.0779  -12.6710   19.3947 C   0  0  0  0  0  0  0  0  0  0  0  0
    9.4589  -13.5309   20.4156 C   0  0  0  0  0  0  0  0  0  0  0  0
    8.5824  -14.3857   21.0358 C   0  0  0  0  0  0  0  0  0  0  0  0
    8.9774  -15.3012   22.1213 C   0  0  0  0  0  0  0  0  0  0  0  0
    9.8766  -16.4222   21.6833 C   0  0  2  0  0  0  0  0  0  0  0  0
    9.2819  -17.2365   20.6442 N   0  0  0  0  0  0  0  0  0  0  0  0
   10.2905  -17.2681   22.8483 C   0  0  0  0  0  0  0  0  0  0  0  0
    9.4642  -17.9461   23.5061 O   0  0  0  0  0  0  0  0  0  0  0  0
    7.2726  -14.3663   20.6038 C   0  0  0  0  0  0  0  0  0  0  0  0
    6.8339  -13.5394   19.5993 C   0  0  0  0  0  0  0  0  0  0  0  0
   14.0755  -19.4990   25.0876 C   0  0  0  0  0  0  0  0  0  0  0  0
   13.4333  -18.9295   23.8467 C   0  0  2  0  0  0  0  0  0  0  0  0
   14.3741  -17.8945   23.2718 C   0  0  0  0  0  0  0  0  0  0  0  0
   12.0901  -18.3366   24.2192 C   0  0  2  0  0  0  0  0  0  0  0  0
   11.6594  -17.3446   23.2710 N   0  0  0  0  0  0  0  0  0  0  0  0
   12.0951  -17.8039   25.6134 C   0  0  0  0  0  0  0  0  0  0  0  0
   12.1471  -18.6937   26.6748 O   0  0  0  0  0  0  0  0  0  0  0  0
   12.0538  -16.5741   25.8595 O   0  0  0  0  0  0  0  0  0  0  0  0
  2  1  1  0
  3  2  1  0
  4  3  2  0
  5  6  1  0
  6 16  2  0
  7  6  1  0
  7  8  2  0
  8  9  1  0
  9 15  2  0
  9 10  1  0
 11 10  1  1
 11 13  1  0
 11 12  1  0
 12  3  1  0
 13 21  1  0
 14 13  2  0
 16 15  1  0
 18 20  1  0
 18 17  1  1
 19 18  1  0
 20 22  1  0
 20 21  1  6
 22 24  2  0
 22 23  1  0
M  END
$$$$
