GYV.pdb
     RDKit          3D

 24 24  0  0  1  0  0  0  0  0999 V2000
   12.3996  -16.7323   20.1288 N   0  0  0  0  0  0  0  0  0  0  0  0
   11.2822  -17.2987   20.8180 C   0  0  0  0  0  0  0  0  0  0  0  0
   10.8431  -16.4292   21.9660 C   0  0  0  0  0  0  0  0  0  0  0  0
   11.6051  -15.5304   22.4042 O   0  0  0  0  0  0  0  0  0  0  0  0
    5.8207  -11.6405   27.2997 O   0  0  0  0  0  0  0  0  0  0  0  0
    6.2654  -12.6015   26.4024 C   0  0  0  0  0  0  0  0  0  0  0  0
    5.9744  -13.9439   26.6596 C   0  0  0  0  0  0  0  0  0  0  0  0
    6.4315  -14.8831   25.7455 C   0  0  0  0  0  0  0  0  0  0  0  0
    7.1439  -14.5446   24.6224 C   0  0  0  0  0  0  0  0  0  0  0  0
    7.6322  -15.5346   23.6457 C   0  0  0  0  0  0  0  0  0  0  0  0
    9.1175  -15.7564   23.6855 C   0  0  2  0  0  0  0  0  0  0  0  0
    9.5851  -16.5791   22.5895 N   0  0  0  0  0  0  0  0  0  0  0  0
    9.5414  -16.3345   25.0009 C   0  0  0  0  0  0  0  0  0  0  0  0
    9.6432  -17.5721   25.1828 O   0  0  0  0  0  0  0  0  0  0  0  0
    7.4013  -13.2045   24.4207 C   0  0  0  0  0  0  0  0  0  0  0  0
    6.9765  -12.2280   25.2874 C   0  0  0  0  0  0  0  0  0  0  0  0
    9.5104  -14.6095   29.0677 C   0  0  0  0  0  0  0  0  0  0  0  0
   10.7764  -14.9598   28.3252 C   0  0  2  0  0  0  0  0  0  0  0  0
   11.2977  -13.6968   27.6773 C   0  0  0  0  0  0  0  0  0  0  0  0
   10.4643  -16.0373   27.3073 C   0  0  2  0  0  0  0  0  0  0  0  0
    9.8532  -15.4965   26.1230 N   0  0  0  0  0  0  0  0  0  0  0  0
    9.6425  -17.1314   27.9035 C   0  0  0  0  0  0  0  0  0  0  0  0
   10.2256  -17.9864   28.8255 O   0  0  0  0  0  0  0  0  0  0  0  0
    8.4379  -17.3051   27.5983 O   0  0  0  0  0  0  0  0  0  0  0  0
  2  1  1  0
  3  2  1  0
  4  3  2  0
  5  6  1  0
  6 16  2  0
  7  6  1  0
  7  8  2  0
  8  9  1  0
  9 15  2  0
  9 10  1  0
 11 10  1  1
 11 13  1  0
 11 12  1  0
 12  3  1  0
 13 21  1  0
 14 13  2  0
 16 15  1  0
 18 20  1  0
 18 17  1  6
 19 18  1  0
 20 22  1  0
 20 21  1  6
 22 24  2  0
 22 23  1  0
M  END
$$$$
