GYV.pdb
     RDKit          3D

 24 24  0  0  1  0  0  0  0  0999 V2000
    4.3639  -21.0731   22.8224 N   0  0  0  0  0  0  0  0  0  0  0  0
    4.8425  -20.1105   23.7651 C   0  0  0  0  0  0  0  0  0  0  0  0
    5.8405  -19.1733   23.1388 C   0  0  0  0  0  0  0  0  0  0  0  0
    6.4876  -19.5287   22.1212 O   0  0  0  0  0  0  0  0  0  0  0  0
    8.4135  -12.2705   18.9830 O   0  0  0  0  0  0  0  0  0  0  0  0
    7.9792  -13.0708   20.0305 C   0  0  0  0  0  0  0  0  0  0  0  0
    8.4610  -12.8111   21.3163 C   0  0  0  0  0  0  0  0  0  0  0  0
    8.0097  -13.6271   22.3445 C   0  0  0  0  0  0  0  0  0  0  0  0
    7.1256  -14.6576   22.1446 C   0  0  0  0  0  0  0  0  0  0  0  0
    6.6398  -15.5283   23.2301 C   0  0  0  0  0  0  0  0  0  0  0  0
    7.0661  -16.9634   23.1042 C   0  0  2  0  0  0  0  0  0  0  0  0
    6.0904  -17.8820   23.6527 N   0  0  0  0  0  0  0  0  0  0  0  0
    8.4104  -17.1832   23.7277 C   0  0  0  0  0  0  0  0  0  0  0  0
    8.5588  -17.2957   24.9688 O   0  0  0  0  0  0  0  0  0  0  0  0
    6.6842  -14.8667   20.8545 C   0  0  0  0  0  0  0  0  0  0  0  0
    7.0932  -14.0946   19.7953 C   0  0  0  0  0  0  0  0  0  0  0  0
   11.6584  -18.6033   21.5195 C   0  0  0  0  0  0  0  0  0  0  0  0
   11.9993  -17.5185   22.5112 C   0  0  2  0  0  0  0  0  0  0  0  0
   13.3338  -17.8628   23.1336 C   0  0  0  0  0  0  0  0  0  0  0  0
   10.8930  -17.4331   23.5424 C   0  0  2  0  0  0  0  0  0  0  0  0
    9.6003  -17.2764   22.9314 N   0  0  0  0  0  0  0  0  0  0  0  0
   11.1633  -16.3633   24.5473 C   0  0  0  0  0  0  0  0  0  0  0  0
   11.7590  -16.7045   25.7514 O   0  0  0  0  0  0  0  0  0  0  0  0
   10.8692  -15.1612   24.3398 O   0  0  0  0  0  0  0  0  0  0  0  0
  2  1  1  0
  3  2  1  0
  4  3  2  0
  5  6  1  0
  6 16  2  0
  7  6  1  0
  7  8  2  0
  8  9  1  0
  9 15  2  0
  9 10  1  0
 11 10  1  1
 11 13  1  0
 11 12  1  0
 12  3  1  0
 13 21  1  0
 14 13  2  0
 16 15  1  0
 18 20  1  0
 18 17  1  6
 19 18  1  0
 20 22  1  0
 20 21  1  6
 22 24  2  0
 22 23  1  0
M  END
$$$$
