GYV.pdb
     RDKit          3D

 24 24  0  0  1  0  0  0  0  0999 V2000
    4.5666  -19.1181   20.7732 N   0  0  0  0  0  0  0  0  0  0  0  0
    4.7567  -18.3793   21.9825 C   0  0  0  0  0  0  0  0  0  0  0  0
    6.1633  -17.8540   22.0933 C   0  0  0  0  0  0  0  0  0  0  0  0
    7.0731  -18.3289   21.3672 O   0  0  0  0  0  0  0  0  0  0  0  0
    7.5327  -12.1919   18.2417 O   0  0  0  0  0  0  0  0  0  0  0  0
    7.6195  -12.8321   19.4701 C   0  0  0  0  0  0  0  0  0  0  0  0
    8.8463  -12.8338   20.1394 C   0  0  0  0  0  0  0  0  0  0  0  0
    8.9039  -13.4814   21.3658 C   0  0  0  0  0  0  0  0  0  0  0  0
    7.8201  -14.1062   21.9303 C   0  0  0  0  0  0  0  0  0  0  0  0
    7.8715  -14.7951   23.2322 C   0  0  0  0  0  0  0  0  0  0  0  0
    7.8568  -16.2943   23.1354 C   0  0  2  0  0  0  0  0  0  0  0  0
    6.5180  -16.8280   22.9962 N   0  0  0  0  0  0  0  0  0  0  0  0
    8.5571  -16.9170   24.3041 C   0  0  0  0  0  0  0  0  0  0  0  0
    8.0156  -17.0110   25.4324 O   0  0  0  0  0  0  0  0  0  0  0  0
    6.6358  -14.0720   21.2240 C   0  0  0  0  0  0  0  0  0  0  0  0
    6.5146  -13.4481   20.0069 C   0  0  0  0  0  0  0  0  0  0  0  0
   12.5277  -18.6551   23.9751 C   0  0  0  0  0  0  0  0  0  0  0  0
   11.4113  -19.2582   24.7915 C   0  0  2  0  0  0  0  0  0  0  0  0
   10.6777  -20.2472   23.9135 C   0  0  0  0  0  0  0  0  0  0  0  0
   10.5060  -18.1461   25.2793 C   0  0  2  0  0  0  0  0  0  0  0  0
    9.8886  -17.4391   24.1895 N   0  0  0  0  0  0  0  0  0  0  0  0
   11.2259  -17.2200   26.2023 C   0  0  0  0  0  0  0  0  0  0  0  0
   11.6468  -17.6906   27.4362 O   0  0  0  0  0  0  0  0  0  0  0  0
   11.4644  -16.0259   25.8994 O   0  0  0  0  0  0  0  0  0  0  0  0
  2  1  1  0
  3  2  1  0
  4  3  2  0
  5  6  1  0
  6 16  2  0
  7  6  1  0
  7  8  2  0
  8  9  1  0
  9 15  2  0
  9 10  1  0
 11 10  1  1
 11 13  1  0
 11 12  1  0
 12  3  1  0
 13 21  1  0
 14 13  2  0
 16 15  1  0
 18 20  1  0
 18 17  1  6
 19 18  1  0
 20 22  1  0
 20 21  1  6
 22 24  2  0
 22 23  1  0
M  END
$$$$
