EHQ.pdb
     RDKit          3D

 29 29  0  0  1  0  0  0  0  0999 V2000
   25.5144  -21.1888  -16.8127 N   0  0  0  0  0  0  0  0  0  0  0  0
   25.7107  -22.1409  -15.7563 C   0  0  1  0  0  0  0  0  0  0  0  0
   27.1332  -22.0889  -15.2748 C   0  0  0  0  0  0  0  0  0  0  0  0
   27.9443  -21.1455  -16.0998 C   0  0  0  0  0  0  0  0  0  0  0  0
   28.4261  -21.7692  -17.3561 C   0  0  0  0  0  0  0  0  0  0  0  0
   27.6368  -22.1506  -18.2576 O   0  0  0  0  0  0  0  0  0  0  0  0
   24.7625  -21.9253  -14.6255 C   0  0  0  0  0  0  0  0  0  0  0  0
   25.0011  -22.4025  -13.5013 O   0  0  0  0  0  0  0  0  0  0  0  0
   29.7773  -21.9619  -17.5960 O   0  0  0  0  0  0  0  0  0  0  0  0
   23.5619  -21.1651  -14.8174 N   0  0  0  0  0  0  0  0  0  0  0  0
   22.6161  -20.9470  -13.7491 C   0  0  1  0  0  0  0  0  0  0  0  0
   23.0701  -19.8587  -12.8166 C   0  0  0  0  0  0  0  0  0  0  0  0
   23.8849  -20.3481  -11.7010 C   0  0  0  0  0  0  0  0  0  0  0  0
   25.2138  -20.6768  -11.7580 C   0  0  0  0  0  0  0  0  0  0  0  0
   25.5877  -21.0792  -10.5344 N   0  0  0  0  0  0  0  0  0  0  0  0
   24.5313  -21.0184   -9.6884 C   0  0  0  0  0  0  0  0  0  0  0  0
   23.4945  -20.5637  -10.4371 N   0  0  0  0  0  0  0  0  0  0  0  0
   21.3235  -20.4944  -14.3687 C   0  0  0  0  0  0  0  0  0  0  0  0
   21.3558  -19.9742  -15.5104 O   0  0  0  0  0  0  0  0  0  0  0  0
   18.8720  -25.0193  -13.4648 N   0  0  0  0  0  0  0  0  0  0  0  0
   18.0444  -24.8077  -14.6314 C   0  0  0  0  0  0  0  0  0  0  0  0
   17.2105  -25.6717  -14.9829 O   0  0  0  0  0  0  0  0  0  0  0  0
   18.2549  -23.5368  -15.3517 C   0  0  0  0  0  0  0  0  0  0  0  0
   19.3294  -22.7405  -14.6792 C   0  0  0  0  0  0  0  0  0  0  0  0
   18.9638  -21.3744  -14.2333 C   0  0  2  0  0  0  0  0  0  0  0  0
   20.0902  -20.6546  -13.6729 N   0  0  0  0  0  0  0  0  0  0  0  0
   17.7858  -21.3420  -13.2955 C   0  0  0  0  0  0  0  0  0  0  0  0
   16.6163  -21.2643  -13.7476 O   0  0  0  0  0  0  0  0  0  0  0  0
   17.9220  -21.3929  -11.9203 O   0  0  0  0  0  0  0  0  0  0  0  0
  2  1  1  6
  2  3  1  0
  2  7  1  0
  3  4  1  0
  4  5  1  0
  5  6  2  0
  7  8  2  0
  9  5  1  0
 10  7  1  0
 10 11  1  0
 11 12  1  1
 13 12  1  0
 14 13  2  0
 15 14  1  0
 16 15  1  0
 16 17  2  0
 17 13  1  0
 18 26  1  0
 18 11  1  0
 19 18  2  0
 20 21  1  0
 21 22  2  0
 23 24  1  0
 23 21  1  0
 25 24  1  1
 25 27  1  0
 25 26  1  0
 27 29  1  0
 28 27  2  0
M  END
$$$$
