EHQ.pdb
     RDKit          3D

 29 29  0  0  1  0  0  0  0  0999 V2000
   22.9381  -16.8182  -17.4989 N   0  0  0  0  0  0  0  0  0  0  0  0
   23.4137  -15.6012  -18.0935 C   0  0  1  0  0  0  0  0  0  0  0  0
   23.9152  -15.8701  -19.4843 C   0  0  0  0  0  0  0  0  0  0  0  0
   22.8834  -16.5773  -20.2989 C   0  0  0  0  0  0  0  0  0  0  0  0
   23.3457  -16.8444  -21.6825 C   0  0  0  0  0  0  0  0  0  0  0  0
   23.6754  -17.9957  -22.0658 O   0  0  0  0  0  0  0  0  0  0  0  0
   22.3675  -14.5384  -18.1061 C   0  0  0  0  0  0  0  0  0  0  0  0
   22.6227  -13.4060  -18.5542 O   0  0  0  0  0  0  0  0  0  0  0  0
   23.4365  -15.8306  -22.6230 O   0  0  0  0  0  0  0  0  0  0  0  0
   21.0523  -14.8062  -17.6015 N   0  0  0  0  0  0  0  0  0  0  0  0
   20.0089  -13.8088  -17.6190 C   0  0  1  0  0  0  0  0  0  0  0  0
   18.6639  -14.4040  -17.3080 C   0  0  0  0  0  0  0  0  0  0  0  0
   17.5577  -13.4533  -17.4505 C   0  0  0  0  0  0  0  0  0  0  0  0
   17.6716  -12.1302  -17.7875 C   0  0  0  0  0  0  0  0  0  0  0  0
   16.4366  -11.6077  -17.8134 N   0  0  0  0  0  0  0  0  0  0  0  0
   15.5276  -12.5624  -17.5009 C   0  0  0  0  0  0  0  0  0  0  0  0
   16.2495  -13.6908  -17.2820 N   0  0  0  0  0  0  0  0  0  0  0  0
   20.3154  -12.8083  -16.5399 C   0  0  0  0  0  0  0  0  0  0  0  0
   20.9159  -13.2018  -15.5105 O   0  0  0  0  0  0  0  0  0  0  0  0
   23.0806   -7.9037  -17.3665 N   0  0  0  0  0  0  0  0  0  0  0  0
   22.8518   -7.6177  -15.9678 C   0  0  0  0  0  0  0  0  0  0  0  0
   23.4752   -6.6941  -15.3987 O   0  0  0  0  0  0  0  0  0  0  0  0
   21.8606   -8.4732  -15.2866 C   0  0  0  0  0  0  0  0  0  0  0  0
   21.4042   -9.5602  -16.2091 C   0  0  0  0  0  0  0  0  0  0  0  0
   20.2980  -10.4213  -15.7258 C   0  0  2  0  0  0  0  0  0  0  0  0
   19.9318  -11.4436  -16.6858 N   0  0  0  0  0  0  0  0  0  0  0  0
   19.0862   -9.6487  -15.2755 C   0  0  0  0  0  0  0  0  0  0  0  0
   18.9889   -9.2568  -14.0860 O   0  0  0  0  0  0  0  0  0  0  0  0
   18.0392   -9.3372  -16.1236 O   0  0  0  0  0  0  0  0  0  0  0  0
  2  1  1  6
  2  3  1  0
  2  7  1  0
  3  4  1  0
  4  5  1  0
  5  6  2  0
  7  8  2  0
  9  5  1  0
 10  7  1  0
 10 11  1  0
 11 12  1  1
 13 12  1  0
 14 13  2  0
 15 14  1  0
 16 15  1  0
 16 17  2  0
 17 13  1  0
 18 26  1  0
 18 11  1  0
 19 18  2  0
 20 21  1  0
 21 22  2  0
 23 24  1  0
 23 21  1  0
 25 24  1  6
 25 27  1  0
 25 26  1  0
 27 29  1  0
 28 27  2  0
M  END
$$$$
