EHQ.pdb
     RDKit          3D

 29 29  0  0  1  0  0  0  0  0999 V2000
   13.8468   -9.6909  -11.6123 N   0  0  0  0  0  0  0  0  0  0  0  0
   15.2755   -9.5545  -11.5824 C   0  0  1  0  0  0  0  0  0  0  0  0
   15.8749  -10.1472  -12.8263 C   0  0  0  0  0  0  0  0  0  0  0  0
   15.6708  -11.6254  -12.8680 C   0  0  0  0  0  0  0  0  0  0  0  0
   16.2111  -12.2326  -14.1084 C   0  0  0  0  0  0  0  0  0  0  0  0
   15.4657  -12.7582  -14.9741 O   0  0  0  0  0  0  0  0  0  0  0  0
   15.6987   -8.1339  -11.4179 C   0  0  0  0  0  0  0  0  0  0  0  0
   15.1421   -7.2297  -12.0668 O   0  0  0  0  0  0  0  0  0  0  0  0
   17.5714  -12.2490  -14.3725 O   0  0  0  0  0  0  0  0  0  0  0  0
   16.7535   -7.7893  -10.5096 N   0  0  0  0  0  0  0  0  0  0  0  0
   17.2341   -6.4350  -10.3746 C   0  0  1  0  0  0  0  0  0  0  0  0
   16.9261   -5.8673   -9.0170 C   0  0  0  0  0  0  0  0  0  0  0  0
   15.4963   -5.6379   -8.7910 C   0  0  0  0  0  0  0  0  0  0  0  0
   14.7431   -4.6386   -9.3489 C   0  0  0  0  0  0  0  0  0  0  0  0
   13.4883   -4.7705   -8.8939 N   0  0  0  0  0  0  0  0  0  0  0  0
   13.4134   -5.8316   -8.0549 C   0  0  0  0  0  0  0  0  0  0  0  0
   14.6683   -6.3469   -8.0112 N   0  0  0  0  0  0  0  0  0  0  0  0
   18.7302   -6.4649  -10.5176 C   0  0  0  0  0  0  0  0  0  0  0  0
   19.4184   -6.8452   -9.5394 O   0  0  0  0  0  0  0  0  0  0  0  0
   22.3027   -7.9786  -14.8010 N   0  0  0  0  0  0  0  0  0  0  0  0
   20.9259   -8.4028  -14.6789 C   0  0  0  0  0  0  0  0  0  0  0  0
   20.3405   -8.9436  -15.6435 O   0  0  0  0  0  0  0  0  0  0  0  0
   20.2861   -8.1542  -13.3722 C   0  0  0  0  0  0  0  0  0  0  0  0
   21.2357   -7.4324  -12.4677 C   0  0  0  0  0  0  0  0  0  0  0  0
   20.7847   -6.1223  -11.9397 C   0  0  2  0  0  0  0  0  0  0  0  0
   19.3502   -6.0702  -11.7384 N   0  0  0  0  0  0  0  0  0  0  0  0
   21.2549   -4.9489  -12.7583 C   0  0  0  0  0  0  0  0  0  0  0  0
   20.4275   -4.2325  -13.3748 O   0  0  0  0  0  0  0  0  0  0  0  0
   22.5891   -4.6043  -12.8755 O   0  0  0  0  0  0  0  0  0  0  0  0
  2  1  1  6
  2  3  1  0
  2  7  1  0
  3  4  1  0
  4  5  1  0
  5  6  2  0
  7  8  2  0
  9  5  1  0
 10  7  1  0
 10 11  1  0
 11 12  1  1
 13 12  1  0
 14 13  2  0
 15 14  1  0
 16 15  1  0
 16 17  2  0
 17 13  1  0
 18 26  1  0
 18 11  1  0
 19 18  2  0
 20 21  1  0
 21 22  2  0
 23 24  1  0
 23 21  1  0
 25 24  1  6
 25 27  1  0
 25 26  1  0
 27 29  1  0
 28 27  2  0
M  END
$$$$
