EHQ.pdb
     RDKit          3D

 29 29  0  0  1  0  0  0  0  0999 V2000
   23.3479  -10.8400  -20.8540 N   0  0  0  0  0  0  0  0  0  0  0  0
   22.2782  -11.2431  -19.9856 C   0  0  1  0  0  0  0  0  0  0  0  0
   22.4572  -12.6794  -19.5818 C   0  0  0  0  0  0  0  0  0  0  0  0
   22.3680  -13.5843  -20.7658 C   0  0  0  0  0  0  0  0  0  0  0  0
   22.4736  -15.0148  -20.3889 C   0  0  0  0  0  0  0  0  0  0  0  0
   23.2462  -15.8072  -20.9859 O   0  0  0  0  0  0  0  0  0  0  0  0
   22.1724  -10.3663  -18.7838 C   0  0  0  0  0  0  0  0  0  0  0  0
   21.5059  -10.7256  -17.7964 O   0  0  0  0  0  0  0  0  0  0  0  0
   21.7206  -15.5477  -19.3548 O   0  0  0  0  0  0  0  0  0  0  0  0
   22.8371   -9.0963  -18.7490 N   0  0  0  0  0  0  0  0  0  0  0  0
   22.7597   -8.2240  -17.6015 C   0  0  1  0  0  0  0  0  0  0  0  0
   24.1221   -7.9032  -17.0527 C   0  0  0  0  0  0  0  0  0  0  0  0
   24.7631   -9.0375  -16.3816 C   0  0  0  0  0  0  0  0  0  0  0  0
   24.2154  -10.2802  -16.2006 C   0  0  0  0  0  0  0  0  0  0  0  0
   25.1138  -11.0310  -15.5463 N   0  0  0  0  0  0  0  0  0  0  0  0
   26.2290  -10.3023  -15.3004 C   0  0  0  0  0  0  0  0  0  0  0  0
   25.9829   -9.0760  -15.8276 N   0  0  0  0  0  0  0  0  0  0  0  0
   22.1432   -6.9294  -18.0525 C   0  0  0  0  0  0  0  0  0  0  0  0
   22.5171   -6.4356  -19.1440 O   0  0  0  0  0  0  0  0  0  0  0  0
   17.8695   -5.8820  -15.0121 N   0  0  0  0  0  0  0  0  0  0  0  0
   17.4417   -6.4148  -16.2864 C   0  0  0  0  0  0  0  0  0  0  0  0
   16.5451   -7.2857  -16.3413 O   0  0  0  0  0  0  0  0  0  0  0  0
   18.1243   -5.8708  -17.4767 C   0  0  0  0  0  0  0  0  0  0  0  0
   19.1682   -4.8823  -17.0597 C   0  0  0  0  0  0  0  0  0  0  0  0
   20.5144   -5.0443  -17.6597 C   0  0  2  0  0  0  0  0  0  0  0  0
   21.1557   -6.2801  -17.2564 N   0  0  0  0  0  0  0  0  0  0  0  0
   21.4236   -3.8666  -17.4262 C   0  0  0  0  0  0  0  0  0  0  0  0
   22.3158   -3.9184  -16.5433 O   0  0  0  0  0  0  0  0  0  0  0  0
   21.3287   -2.6923  -18.1504 O   0  0  0  0  0  0  0  0  0  0  0  0
  2  1  1  6
  2  3  1  0
  2  7  1  0
  3  4  1  0
  4  5  1  0
  5  6  2  0
  7  8  2  0
  9  5  1  0
 10  7  1  0
 10 11  1  0
 11 12  1  6
 13 12  1  0
 14 13  2  0
 15 14  1  0
 16 15  1  0
 16 17  2  0
 17 13  1  0
 18 26  1  0
 18 11  1  0
 19 18  2  0
 20 21  1  0
 21 22  2  0
 23 24  1  0
 23 21  1  0
 25 24  1  1
 25 27  1  0
 25 26  1  0
 27 29  1  0
 28 27  2  0
M  END
$$$$
