EHQ.pdb
     RDKit          3D

 29 29  0  0  1  0  0  0  0  0999 V2000
   22.6712  -13.9605  -17.4628 N   0  0  0  0  0  0  0  0  0  0  0  0
   22.0333  -12.7988  -18.0146 C   0  0  1  0  0  0  0  0  0  0  0  0
   20.5694  -13.0664  -18.2235 C   0  0  0  0  0  0  0  0  0  0  0  0
   19.9803  -13.7725  -17.0475 C   0  0  0  0  0  0  0  0  0  0  0  0
   18.5410  -14.0753  -17.2371 C   0  0  0  0  0  0  0  0  0  0  0  0
   18.1492  -15.0491  -17.9296 O   0  0  0  0  0  0  0  0  0  0  0  0
   22.2327  -11.5923  -17.1609 C   0  0  0  0  0  0  0  0  0  0  0  0
   21.9958  -11.6361  -15.9401 O   0  0  0  0  0  0  0  0  0  0  0  0
   17.5549  -13.2940  -16.6561 O   0  0  0  0  0  0  0  0  0  0  0  0
   22.6999  -10.3641  -17.7347 N   0  0  0  0  0  0  0  0  0  0  0  0
   22.9683   -9.1970  -16.9287 C   0  0  1  0  0  0  0  0  0  0  0  0
   24.3900   -8.7317  -17.0782 C   0  0  0  0  0  0  0  0  0  0  0  0
   25.3621   -9.6014  -16.4100 C   0  0  0  0  0  0  0  0  0  0  0  0
   25.0757  -10.7554  -15.7293 C   0  0  0  0  0  0  0  0  0  0  0  0
   26.2318  -11.2548  -15.2677 N   0  0  0  0  0  0  0  0  0  0  0  0
   27.2583  -10.4503  -15.6343 C   0  0  0  0  0  0  0  0  0  0  0  0
   26.6905   -9.4381  -16.3381 N   0  0  0  0  0  0  0  0  0  0  0  0
   22.0809   -8.0881  -17.4210 C   0  0  0  0  0  0  0  0  0  0  0  0
   21.9313   -7.9446  -18.6588 O   0  0  0  0  0  0  0  0  0  0  0  0
   16.8789   -6.4244  -15.2204 N   0  0  0  0  0  0  0  0  0  0  0  0
   17.0177   -5.2163  -16.0025 C   0  0  0  0  0  0  0  0  0  0  0  0
   16.0610   -4.4173  -16.1112 O   0  0  0  0  0  0  0  0  0  0  0  0
   18.3311   -5.0077  -16.6427 C   0  0  0  0  0  0  0  0  0  0  0  0
   19.2308   -6.1683  -16.3524 C   0  0  0  0  0  0  0  0  0  0  0  0
   20.5972   -6.1097  -16.9256 C   0  0  2  0  0  0  0  0  0  0  0  0
   21.4246   -7.2211  -16.4999 N   0  0  0  0  0  0  0  0  0  0  0  0
   21.2956   -4.7973  -16.6846 C   0  0  0  0  0  0  0  0  0  0  0  0
   22.1097   -4.6762  -15.7356 O   0  0  0  0  0  0  0  0  0  0  0  0
   21.0840   -3.6809  -17.4728 O   0  0  0  0  0  0  0  0  0  0  0  0
  2  1  1  1
  2  3  1  0
  2  7  1  0
  3  4  1  0
  4  5  1  0
  5  6  2  0
  7  8  2  0
  9  5  1  0
 10  7  1  0
 10 11  1  0
 11 12  1  6
 13 12  1  0
 14 13  2  0
 15 14  1  0
 16 15  1  0
 16 17  2  0
 17 13  1  0
 18 26  1  0
 18 11  1  0
 19 18  2  0
 20 21  1  0
 21 22  2  0
 23 24  1  0
 23 21  1  0
 25 24  1  1
 25 27  1  0
 25 26  1  0
 27 29  1  0
 28 27  2  0
M  END
$$$$
