EHQ.pdb
     RDKit          3D

 29 29  0  0  1  0  0  0  0  0999 V2000
   20.7820  -12.6536  -17.6469 N   0  0  0  0  0  0  0  0  0  0  0  0
   21.0097  -11.2819  -18.0040 C   0  0  1  0  0  0  0  0  0  0  0  0
   19.7249  -10.6485  -18.4581 C   0  0  0  0  0  0  0  0  0  0  0  0
   19.3572  -11.1065  -19.8306 C   0  0  0  0  0  0  0  0  0  0  0  0
   19.2566   -9.9805  -20.7905 C   0  0  0  0  0  0  0  0  0  0  0  0
   20.2699   -9.4827  -21.3442 O   0  0  0  0  0  0  0  0  0  0  0  0
   21.6139  -10.5049  -16.8836 C   0  0  0  0  0  0  0  0  0  0  0  0
   21.1628  -10.6073  -15.7284 O   0  0  0  0  0  0  0  0  0  0  0  0
   18.0332   -9.4214  -21.1238 O   0  0  0  0  0  0  0  0  0  0  0  0
   22.7235   -9.6283  -17.1214 N   0  0  0  0  0  0  0  0  0  0  0  0
   23.3022   -8.8251  -16.0708 C   0  0  1  0  0  0  0  0  0  0  0  0
   24.7974   -8.7347  -16.1980 C   0  0  0  0  0  0  0  0  0  0  0  0
   25.4852   -9.9962  -15.9090 C   0  0  0  0  0  0  0  0  0  0  0  0
   24.9006  -11.1426  -15.4385 C   0  0  0  0  0  0  0  0  0  0  0  0
   25.8633  -12.0670  -15.3057 N   0  0  0  0  0  0  0  0  0  0  0  0
   27.0562  -11.5444  -15.6791 C   0  0  0  0  0  0  0  0  0  0  0  0
   26.7910  -10.2649  -16.0465 N   0  0  0  0  0  0  0  0  0  0  0  0
   22.7567   -7.4312  -16.2084 C   0  0  0  0  0  0  0  0  0  0  0  0
   22.9362   -6.8213  -17.2905 O   0  0  0  0  0  0  0  0  0  0  0  0
   17.4822   -5.2647  -15.0016 N   0  0  0  0  0  0  0  0  0  0  0  0
   17.9427   -5.8673  -16.2326 C   0  0  0  0  0  0  0  0  0  0  0  0
   17.1226   -6.2802  -17.0825 O   0  0  0  0  0  0  0  0  0  0  0  0
   19.4063   -5.9562  -16.4010 C   0  0  0  0  0  0  0  0  0  0  0  0
   20.0943   -5.3670  -15.2093 C   0  0  0  0  0  0  0  0  0  0  0  0
   21.5746   -5.4510  -15.1875 C   0  0  2  0  0  0  0  0  0  0  0  0
   22.0511   -6.8188  -15.1324 N   0  0  0  0  0  0  0  0  0  0  0  0
   22.2093   -4.6174  -14.1056 C   0  0  0  0  0  0  0  0  0  0  0  0
   22.1226   -3.3646  -14.1362 O   0  0  0  0  0  0  0  0  0  0  0  0
   22.9062   -5.1698  -13.0466 O   0  0  0  0  0  0  0  0  0  0  0  0
  2  1  1  1
  2  3  1  0
  2  7  1  0
  3  4  1  0
  4  5  1  0
  5  6  2  0
  7  8  2  0
  9  5  1  0
 10  7  1  0
 10 11  1  0
 11 12  1  6
 13 12  1  0
 14 13  2  0
 15 14  1  0
 16 15  1  0
 16 17  2  0
 17 13  1  0
 18 26  1  0
 18 11  1  0
 19 18  2  0
 20 21  1  0
 21 22  2  0
 23 24  1  0
 23 21  1  0
 25 24  1  1
 25 27  1  0
 25 26  1  0
 27 29  1  0
 28 27  2  0
M  END
$$$$
