EHQ.pdb
     RDKit          3D

 29 29  0  0  1  0  0  0  0  0999 V2000
   22.9533  -11.2701  -18.5612 N   0  0  0  0  0  0  0  0  0  0  0  0
   22.1415  -10.2168  -19.1019 C   0  0  1  0  0  0  0  0  0  0  0  0
   21.1600  -10.7799  -20.0907 C   0  0  0  0  0  0  0  0  0  0  0  0
   21.8344  -11.7063  -21.0474 C   0  0  0  0  0  0  0  0  0  0  0  0
   21.7145  -13.1256  -20.6344 C   0  0  0  0  0  0  0  0  0  0  0  0
   20.9448  -13.4888  -19.7087 O   0  0  0  0  0  0  0  0  0  0  0  0
   21.4352   -9.4508  -18.0349 C   0  0  0  0  0  0  0  0  0  0  0  0
   20.7112   -8.4818  -18.3268 O   0  0  0  0  0  0  0  0  0  0  0  0
   22.4501  -14.1237  -21.2535 O   0  0  0  0  0  0  0  0  0  0  0  0
   21.5804   -9.8198  -16.6569 N   0  0  0  0  0  0  0  0  0  0  0  0
   20.8481   -9.1543  -15.6060 C   0  0  1  0  0  0  0  0  0  0  0  0
   20.4019  -10.1177  -14.5416 C   0  0  0  0  0  0  0  0  0  0  0  0
   19.3435  -11.0290  -14.9857 C   0  0  0  0  0  0  0  0  0  0  0  0
   17.9967  -10.7815  -14.9407 C   0  0  0  0  0  0  0  0  0  0  0  0
   17.3671  -11.8571  -15.4364 N   0  0  0  0  0  0  0  0  0  0  0  0
   18.2758  -12.7937  -15.8005 C   0  0  0  0  0  0  0  0  0  0  0  0
   19.4870  -12.2540  -15.5103 N   0  0  0  0  0  0  0  0  0  0  0  0
   21.7777   -8.1684  -14.9552 C   0  0  0  0  0  0  0  0  0  0  0  0
   22.9943   -8.4625  -14.8628 O   0  0  0  0  0  0  0  0  0  0  0  0
   24.1215   -5.1991  -17.9090 N   0  0  0  0  0  0  0  0  0  0  0  0
   24.3611   -4.1199  -16.9771 C   0  0  0  0  0  0  0  0  0  0  0  0
   25.0955   -3.1582  -17.2952 O   0  0  0  0  0  0  0  0  0  0  0  0
   23.6957   -4.2388  -15.6650 C   0  0  0  0  0  0  0  0  0  0  0  0
   22.8299   -5.4597  -15.6402 C   0  0  0  0  0  0  0  0  0  0  0  0
   22.1066   -5.7360  -14.3756 C   0  0  2  0  0  0  0  0  0  0  0  0
   21.2855   -6.9278  -14.4561 N   0  0  0  0  0  0  0  0  0  0  0  0
   21.3050   -4.5647  -13.8720 C   0  0  0  0  0  0  0  0  0  0  0  0
   21.8842   -3.5537  -13.4026 O   0  0  0  0  0  0  0  0  0  0  0  0
   19.9226   -4.5380  -13.8959 O   0  0  0  0  0  0  0  0  0  0  0  0
  2  1  1  1
  2  3  1  0
  2  7  1  0
  3  4  1  0
  4  5  1  0
  5  6  2  0
  7  8  2  0
  9  5  1  0
 10  7  1  0
 10 11  1  0
 11 12  1  1
 13 12  1  0
 14 13  2  0
 15 14  1  0
 16 15  1  0
 16 17  2  0
 17 13  1  0
 18 26  1  0
 18 11  1  0
 19 18  2  0
 20 21  1  0
 21 22  2  0
 23 24  1  0
 23 21  1  0
 25 24  1  6
 25 27  1  0
 25 26  1  0
 27 29  1  0
 28 27  2  0
M  END
$$$$
