PNG.pdb
     RDKit          3D

 20 20  0  0  1  0  0  0  0  0999 V2000
   10.6341  -23.3446   26.4869 N   0  0  0  0  0  0  0  0  0  0  0  0
   10.6236  -24.1239   25.2640 C   0  0  0  0  0  0  0  0  0  0  0  0
    9.3809  -24.9889   25.5160 C   0  0  0  0  0  0  0  0  0  0  0  0
    8.4018  -23.8719   25.9040 C   0  0  0  0  0  0  0  0  0  0  0  0
    9.2533  -23.0546   26.8258 C   0  0  1  0  0  0  0  0  0  0  0  0
    8.9733  -23.2813   28.2514 C   0  0  0  0  0  0  0  0  0  0  0  0
    7.8723  -22.9667   28.7866 O   0  0  0  0  0  0  0  0  0  0  0  0
    9.6963  -26.9965   32.8520 N   0  0  0  0  0  0  0  0  0  0  0  0
    9.1044  -25.8962   32.1686 C   0  0  0  0  0  0  0  0  0  0  0  0
    8.2808  -25.2252   32.8201 O   0  0  0  0  0  0  0  0  0  0  0  0
    9.4264  -25.5521   30.7842 C   0  0  0  0  0  0  0  0  0  0  0  0
    9.6653  -24.1028   30.5288 C   0  0  2  0  0  0  0  0  0  0  0  0
    9.9362  -23.8718   29.0982 N   0  0  0  0  0  0  0  0  0  0  0  0
   10.7868  -23.5139   31.2999 C   0  0  0  0  0  0  0  0  0  0  0  0
   10.8911  -23.5375   32.5449 O   0  0  0  0  0  0  0  0  0  0  0  0
   11.8821  -22.8445   30.6341 N   0  0  0  0  0  0  0  0  0  0  0  0
   13.0330  -22.3710   31.3853 C   0  0  0  0  0  0  0  0  0  0  0  0
   12.9800  -20.9144   31.5207 C   0  0  0  0  0  0  0  0  0  0  0  0
   12.0309  -20.2487   31.0164 O   0  0  0  0  0  0  0  0  0  0  0  0
   13.9741  -20.2484   32.2058 O   0  0  0  0  0  0  0  0  0  0  0  0
  2  1  1  0
  3  2  1  0
  4  3  1  0
  4  5  1  0
  5  1  1  0
  6 13  1  0
  5  6  1  1
  7  6  2  0
  8  9  1  0
  9 10  2  0
 11  9  1  0
 12 11  1  6
 12 13  1  0
 12 14  1  0
 14 16  1  0
 15 14  2  0
 16 17  1  0
 18 17  1  0
 18 20  1  0
 19 18  2  0
M  END
$$$$
