PNG.pdb
     RDKit          3D

 20 20  0  0  1  0  0  0  0  0999 V2000
    8.6501  -15.0747   20.4955 N   0  0  0  0  0  0  0  0  0  0  0  0
    8.1521  -14.6884   19.1895 C   0  0  0  0  0  0  0  0  0  0  0  0
    7.1146  -13.6366   19.6060 C   0  0  0  0  0  0  0  0  0  0  0  0
    8.0022  -12.7988   20.5373 C   0  0  0  0  0  0  0  0  0  0  0  0
    8.6988  -13.8754   21.3109 C   0  0  1  0  0  0  0  0  0  0  0  0
    8.1439  -14.0961   22.6545 C   0  0  0  0  0  0  0  0  0  0  0  0
    7.9489  -13.1529   23.4731 O   0  0  0  0  0  0  0  0  0  0  0  0
    7.4597  -18.0606   22.9282 N   0  0  0  0  0  0  0  0  0  0  0  0
    6.2339  -17.7314   23.5741 C   0  0  0  0  0  0  0  0  0  0  0  0
    5.3012  -18.5447   23.4272 O   0  0  0  0  0  0  0  0  0  0  0  0
    6.0536  -16.5170   24.3688 C   0  0  0  0  0  0  0  0  0  0  0  0
    7.2449  -15.6237   24.4431 C   0  0  2  0  0  0  0  0  0  0  0  0
    7.7967  -15.3914   23.0959 N   0  0  0  0  0  0  0  0  0  0  0  0
    8.3457  -16.1278   25.2994 C   0  0  0  0  0  0  0  0  0  0  0  0
    8.2841  -16.2638   26.5400 O   0  0  0  0  0  0  0  0  0  0  0  0
    9.6187  -16.5128   24.7316 N   0  0  0  0  0  0  0  0  0  0  0  0
   10.7261  -16.9095   25.5857 C   0  0  0  0  0  0  0  0  0  0  0  0
   10.4615  -18.2237   26.1735 C   0  0  0  0  0  0  0  0  0  0  0  0
    9.4432  -18.8931   25.8375 O   0  0  0  0  0  0  0  0  0  0  0  0
   11.3287  -18.7488   27.1081 O   0  0  0  0  0  0  0  0  0  0  0  0
  2  1  1  0
  3  2  1  0
  4  3  1  0
  4  5  1  0
  5  1  1  0
  6 13  1  0
  5  6  1  1
  7  6  2  0
  8  9  1  0
  9 10  2  0
 11  9  1  0
 12 11  1  6
 12 13  1  0
 12 14  1  0
 14 16  1  0
 15 14  2  0
 16 17  1  0
 18 17  1  0
 18 20  1  0
 19 18  2  0
M  END
$$$$
