PNG.pdb
     RDKit          3D

 20 20  0  0  1  0  0  0  0  0999 V2000
   -2.7990  -21.5763   25.6625 N   0  0  0  0  0  0  0  0  0  0  0  0
   -1.5616  -21.0601   25.1100 C   0  0  0  0  0  0  0  0  0  0  0  0
   -0.7088  -22.3360   25.1418 C   0  0  0  0  0  0  0  0  0  0  0  0
   -1.6980  -23.2872   24.4534 C   0  0  0  0  0  0  0  0  0  0  0  0
   -2.9740  -22.9213   25.1468 C   0  0  1  0  0  0  0  0  0  0  0  0
   -3.3730  -23.8698   26.1971 C   0  0  0  0  0  0  0  0  0  0  0  0
   -3.6762  -25.0715   25.9488 O   0  0  0  0  0  0  0  0  0  0  0  0
   -0.6217  -25.0437   30.3180 N   0  0  0  0  0  0  0  0  0  0  0  0
   -1.8842  -25.3027   29.7122 C   0  0  0  0  0  0  0  0  0  0  0  0
   -1.9916  -26.3896   29.1122 O   0  0  0  0  0  0  0  0  0  0  0  0
   -3.0051  -24.3655   29.7755 C   0  0  0  0  0  0  0  0  0  0  0  0
   -3.9209  -24.3899   28.5992 C   0  0  2  0  0  0  0  0  0  0  0  0
   -3.4339  -23.4746   27.5510 N   0  0  0  0  0  0  0  0  0  0  0  0
   -5.3260  -24.0232   28.8994 C   0  0  0  0  0  0  0  0  0  0  0  0
   -6.1088  -24.6985   29.6014 O   0  0  0  0  0  0  0  0  0  0  0  0
   -5.9095  -22.8072   28.3780 N   0  0  0  0  0  0  0  0  0  0  0  0
   -7.2846  -22.4493   28.6851 C   0  0  0  0  0  0  0  0  0  0  0  0
   -7.3336  -21.6472   29.9087 C   0  0  0  0  0  0  0  0  0  0  0  0
   -6.3062  -21.4982   30.6300 O   0  0  0  0  0  0  0  0  0  0  0  0
   -8.5120  -21.0411   30.2897 O   0  0  0  0  0  0  0  0  0  0  0  0
  2  1  1  0
  3  2  1  0
  4  3  1  0
  4  5  1  0
  5  1  1  0
  6 13  1  0
  5  6  1  1
  7  6  2  0
  8  9  1  0
  9 10  2  0
 11  9  1  0
 12 11  1  1
 12 13  1  0
 12 14  1  0
 14 16  1  0
 15 14  2  0
 16 17  1  0
 18 17  1  0
 18 20  1  0
 19 18  2  0
M  END
$$$$
