PNG.pdb
     RDKit          3D

 20 20  0  0  1  0  0  0  0  0999 V2000
    8.4030  -14.8942   19.3823 N   0  0  0  0  0  0  0  0  0  0  0  0
    7.5879  -14.3463   18.3154 C   0  0  0  0  0  0  0  0  0  0  0  0
    6.9543  -13.1592   19.0539 C   0  0  0  0  0  0  0  0  0  0  0  0
    8.2344  -12.5478   19.6409 C   0  0  0  0  0  0  0  0  0  0  0  0
    8.9339  -13.7751   20.1382 C   0  0  1  0  0  0  0  0  0  0  0  0
    8.8149  -13.9804   21.5893 C   0  0  0  0  0  0  0  0  0  0  0  0
    9.1290  -13.0904   22.4300 O   0  0  0  0  0  0  0  0  0  0  0  0
    6.5855  -15.0096   26.1680 N   0  0  0  0  0  0  0  0  0  0  0  0
    6.4202  -16.0775   25.2405 C   0  0  0  0  0  0  0  0  0  0  0  0
    5.9379  -17.1314   25.6983 O   0  0  0  0  0  0  0  0  0  0  0  0
    6.7865  -15.9700   23.8287 C   0  0  0  0  0  0  0  0  0  0  0  0
    8.1323  -15.3854   23.5643 C   0  0  2  0  0  0  0  0  0  0  0  0
    8.3350  -15.1991   22.1159 N   0  0  0  0  0  0  0  0  0  0  0  0
    9.2688  -16.1875   24.0782 C   0  0  0  0  0  0  0  0  0  0  0  0
    9.5097  -16.3974   25.2862 O   0  0  0  0  0  0  0  0  0  0  0  0
   10.2146  -16.8075   23.1771 N   0  0  0  0  0  0  0  0  0  0  0  0
   11.3638  -17.5360   23.6889 C   0  0  0  0  0  0  0  0  0  0  0  0
   10.9492  -18.8552   24.1692 C   0  0  0  0  0  0  0  0  0  0  0  0
   10.4365  -19.7018   23.3828 O   0  0  0  0  0  0  0  0  0  0  0  0
   11.1155  -19.1898   25.4964 O   0  0  0  0  0  0  0  0  0  0  0  0
  2  1  1  0
  3  2  1  0
  4  3  1  0
  4  5  1  0
  5  1  1  0
  6 13  1  0
  5  6  1  1
  7  6  2  0
  8  9  1  0
  9 10  2  0
 11  9  1  0
 12 11  1  6
 12 13  1  0
 12 14  1  0
 14 16  1  0
 15 14  2  0
 16 17  1  0
 18 17  1  0
 18 20  1  0
 19 18  2  0
M  END
$$$$
