PNG.pdb
     RDKit          3D

 20 20  0  0  1  0  0  0  0  0999 V2000
    7.5651  -15.0369   20.4071 N   0  0  0  0  0  0  0  0  0  0  0  0
    6.7868  -14.6093   19.2606 C   0  0  0  0  0  0  0  0  0  0  0  0
    6.6941  -13.1054   19.5540 C   0  0  0  0  0  0  0  0  0  0  0  0
    8.1830  -12.8319   19.8095 C   0  0  0  0  0  0  0  0  0  0  0  0
    8.5418  -13.9984   20.6774 C   0  0  1  0  0  0  0  0  0  0  0  0
    8.6217  -13.6721   22.1089 C   0  0  0  0  0  0  0  0  0  0  0  0
    9.4171  -12.8019   22.5646 O   0  0  0  0  0  0  0  0  0  0  0  0
    7.2668  -12.2803   26.8629 N   0  0  0  0  0  0  0  0  0  0  0  0
    6.2216  -12.9865   26.2020 C   0  0  0  0  0  0  0  0  0  0  0  0
    5.1552  -13.1064   26.8356 O   0  0  0  0  0  0  0  0  0  0  0  0
    6.3649  -13.5480   24.8592 C   0  0  0  0  0  0  0  0  0  0  0  0
    7.7585  -13.9003   24.4633 C   0  0  2  0  0  0  0  0  0  0  0  0
    7.7990  -14.3251   23.0522 N   0  0  0  0  0  0  0  0  0  0  0  0
    8.3810  -14.9743   25.2746 C   0  0  0  0  0  0  0  0  0  0  0  0
    8.4731  -14.9694   26.5207 O   0  0  0  0  0  0  0  0  0  0  0  0
    8.9471  -16.1498   24.6511 N   0  0  0  0  0  0  0  0  0  0  0  0
    9.3970  -17.2753   25.4537 C   0  0  0  0  0  0  0  0  0  0  0  0
   10.8464  -17.2069   25.6470 C   0  0  0  0  0  0  0  0  0  0  0  0
   11.5170  -16.2338   25.1981 O   0  0  0  0  0  0  0  0  0  0  0  0
   11.5001  -18.2127   26.3269 O   0  0  0  0  0  0  0  0  0  0  0  0
  2  1  1  0
  3  2  1  0
  4  3  1  0
  4  5  1  0
  5  1  1  0
  6 13  1  0
  5  6  1  1
  7  6  2  0
  8  9  1  0
  9 10  2  0
 11  9  1  0
 12 11  1  1
 12 13  1  0
 12 14  1  0
 14 16  1  0
 15 14  2  0
 16 17  1  0
 18 17  1  0
 18 20  1  0
 19 18  2  0
M  END
$$$$
