PNG.pdb
     RDKit          3D

 20 20  0  0  1  0  0  0  0  0999 V2000
    8.1007  -14.9312   19.4212 N   0  0  0  0  0  0  0  0  0  0  0  0
    7.2432  -14.2017   18.5072 C   0  0  0  0  0  0  0  0  0  0  0  0
    6.8026  -13.0518   19.4236 C   0  0  0  0  0  0  0  0  0  0  0  0
    8.1870  -12.6212   19.9287 C   0  0  0  0  0  0  0  0  0  0  0  0
    8.8087  -13.9513   20.2238 C   0  0  1  0  0  0  0  0  0  0  0  0
    8.8115  -14.3026   21.6516 C   0  0  0  0  0  0  0  0  0  0  0  0
    9.2968  -13.5430   22.5378 O   0  0  0  0  0  0  0  0  0  0  0  0
    7.4620  -16.4500   26.3666 N   0  0  0  0  0  0  0  0  0  0  0  0
    6.7598  -16.9623   25.2386 C   0  0  0  0  0  0  0  0  0  0  0  0
    6.0376  -17.9561   25.4475 O   0  0  0  0  0  0  0  0  0  0  0  0
    6.8624  -16.3755   23.9029 C   0  0  0  0  0  0  0  0  0  0  0  0
    8.2128  -15.8602   23.5374 C   0  0  2  0  0  0  0  0  0  0  0  0
    8.2619  -15.5219   22.1032 N   0  0  0  0  0  0  0  0  0  0  0  0
    9.3299  -16.7943   23.8178 C   0  0  0  0  0  0  0  0  0  0  0  0
    9.8583  -16.9644   24.9372 O   0  0  0  0  0  0  0  0  0  0  0  0
    9.9070  -17.6062   22.7696 N   0  0  0  0  0  0  0  0  0  0  0  0
   11.3347  -17.5687   22.4987 C   0  0  0  0  0  0  0  0  0  0  0  0
   12.0567  -18.3582   23.4979 C   0  0  0  0  0  0  0  0  0  0  0  0
   12.1671  -19.6119   23.3799 O   0  0  0  0  0  0  0  0  0  0  0  0
   12.6282  -17.7359   24.5875 O   0  0  0  0  0  0  0  0  0  0  0  0
  2  1  1  0
  3  2  1  0
  4  3  1  0
  4  5  1  0
  5  1  1  0
  6 13  1  0
  5  6  1  1
  7  6  2  0
  8  9  1  0
  9 10  2  0
 11  9  1  0
 12 11  1  6
 12 13  1  0
 12 14  1  0
 14 16  1  0
 15 14  2  0
 16 17  1  0
 18 17  1  0
 18 20  1  0
 19 18  2  0
M  END
$$$$
