VPG.pdb
     RDKit          3D

 19 19  0  0  1  0  0  0  0  0999 V2000
   16.8926   -9.9046  -15.8794 C   0  0  0  0  0  0  0  0  0  0  0  0
   17.6162  -10.4050  -17.1113 C   0  0  2  0  0  0  0  0  0  0  0  0
   16.6143  -11.0392  -18.0625 C   0  0  0  0  0  0  0  0  0  0  0  0
   18.6179  -11.4581  -16.6209 C   0  0  2  0  0  0  0  0  0  0  0  0
   17.8577  -12.5578  -16.1229 N   0  0  0  0  0  0  0  0  0  0  0  0
   19.5926  -10.8960  -15.6918 C   0  0  0  0  0  0  0  0  0  0  0  0
   19.4514  -11.0866  -14.4595 O   0  0  0  0  0  0  0  0  0  0  0  0
   20.7044  -10.1358  -16.1220 N   0  0  0  0  0  0  0  0  0  0  0  0
   20.9837   -9.8420  -17.5137 C   0  0  0  0  0  0  0  0  0  0  0  0
   22.3129   -9.0849  -17.5088 C   0  0  0  0  0  0  0  0  0  0  0  0
   22.9383   -9.6387  -16.2451 C   0  0  0  0  0  0  0  0  0  0  0  0
   21.7345   -9.5293  -15.2995 C   0  0  1  0  0  0  0  0  0  0  0  0
   21.3980   -8.1069  -15.0667 C   0  0  0  0  0  0  0  0  0  0  0  0
   20.6261   -7.4864  -15.8724 O   0  0  0  0  0  0  0  0  0  0  0  0
   21.9024   -7.3830  -13.9676 N   0  0  0  0  0  0  0  0  0  0  0  0
   21.3863   -6.0921  -13.6038 C   0  0  0  0  0  0  0  0  0  0  0  0
   22.0270   -5.0304  -14.4004 C   0  0  0  0  0  0  0  0  0  0  0  0
   22.9695   -5.3011  -15.1752 O   0  0  0  0  0  0  0  0  0  0  0  0
   21.5837   -3.7198  -14.2924 O   0  0  0  0  0  0  0  0  0  0  0  0
  2  3  1  6
  2  1  1  0
  4  2  1  0
  4  5  1  1
  6  4  1  0
  6  7  2  0
  8  6  1  0
  9  8  1  0
 10 11  1  0
 10  9  1  0
 11 12  1  0
 12  8  1  0
 12 13  1  6
 13 15  1  0
 14 13  2  0
 15 16  1  0
 17 16  1  0
 17 19  1  0
 18 17  2  0
M  END
$$$$
