VPG.pdb
     RDKit          3D

 19 19  0  0  1  0  0  0  0  0999 V2000
   16.8590  -10.6748  -15.6244 C   0  0  0  0  0  0  0  0  0  0  0  0
   17.4106  -11.0406  -16.9858 C   0  0  2  0  0  0  0  0  0  0  0  0
   16.4547  -11.9997  -17.6766 C   0  0  0  0  0  0  0  0  0  0  0  0
   18.7571  -11.7296  -16.7310 C   0  0  2  0  0  0  0  0  0  0  0  0
   18.4772  -12.9615  -16.0683 N   0  0  0  0  0  0  0  0  0  0  0  0
   19.7020  -10.8504  -16.0504 C   0  0  0  0  0  0  0  0  0  0  0  0
   19.9024  -10.9946  -14.8200 O   0  0  0  0  0  0  0  0  0  0  0  0
   20.4122   -9.8292  -16.7226 N   0  0  0  0  0  0  0  0  0  0  0  0
   20.1910   -9.4810  -18.1121 C   0  0  0  0  0  0  0  0  0  0  0  0
   21.2294   -8.4036  -18.4298 C   0  0  0  0  0  0  0  0  0  0  0  0
   22.3137   -8.7677  -17.4366 C   0  0  0  0  0  0  0  0  0  0  0  0
   21.4503   -8.9702  -16.1842 C   0  0  1  0  0  0  0  0  0  0  0  0
   20.8504   -7.6834  -15.7661 C   0  0  0  0  0  0  0  0  0  0  0  0
   19.6174   -7.4425  -15.9936 O   0  0  0  0  0  0  0  0  0  0  0  0
   21.5948   -6.6822  -15.1105 N   0  0  0  0  0  0  0  0  0  0  0  0
   20.9630   -5.5856  -14.4298 C   0  0  0  0  0  0  0  0  0  0  0  0
   21.9704   -4.6416  -13.9137 C   0  0  0  0  0  0  0  0  0  0  0  0
   22.3130   -4.6751  -12.7122 O   0  0  0  0  0  0  0  0  0  0  0  0
   22.5448   -3.7076  -14.7642 O   0  0  0  0  0  0  0  0  0  0  0  0
  2  3  1  1
  2  1  1  0
  4  2  1  0
  4  5  1  1
  6  4  1  0
  6  7  2  0
  8  6  1  0
  9  8  1  0
 10 11  1  0
 10  9  1  0
 11 12  1  0
 12  8  1  0
 12 13  1  6
 13 15  1  0
 14 13  2  0
 15 16  1  0
 17 16  1  0
 17 19  1  0
 18 17  2  0
M  END
$$$$
