VPG.pdb
     RDKit          3D

 19 19  0  0  1  0  0  0  0  0999 V2000
   22.7543  -13.7657  -20.0641 C   0  0  0  0  0  0  0  0  0  0  0  0
   22.7445  -12.7006  -18.9885 C   0  0  2  0  0  0  0  0  0  0  0  0
   23.1802  -11.3735  -19.5884 C   0  0  0  0  0  0  0  0  0  0  0  0
   23.7528  -13.1559  -17.9261 C   0  0  2  0  0  0  0  0  0  0  0  0
   23.5222  -14.5454  -17.6996 N   0  0  0  0  0  0  0  0  0  0  0  0
   23.7149  -12.3107  -16.7372 C   0  0  0  0  0  0  0  0  0  0  0  0
   22.7696  -12.4357  -15.9214 O   0  0  0  0  0  0  0  0  0  0  0  0
   24.7081  -11.3439  -16.4582 N   0  0  0  0  0  0  0  0  0  0  0  0
   25.8661  -11.1189  -17.3004 C   0  0  0  0  0  0  0  0  0  0  0  0
   26.6979  -10.0622  -16.5714 C   0  0  0  0  0  0  0  0  0  0  0  0
   26.2830  -10.3282  -15.1390 C   0  0  0  0  0  0  0  0  0  0  0  0
   24.7640  -10.4310  -15.3316 C   0  0  1  0  0  0  0  0  0  0  0  0
   24.2128   -9.1193  -15.7390 C   0  0  0  0  0  0  0  0  0  0  0  0
   24.3428   -8.7104  -16.9415 O   0  0  0  0  0  0  0  0  0  0  0  0
   23.5318   -8.2753  -14.8388 N   0  0  0  0  0  0  0  0  0  0  0  0
   22.9214   -7.0448  -15.2612 C   0  0  0  0  0  0  0  0  0  0  0  0
   21.4738   -7.2252  -15.4709 C   0  0  0  0  0  0  0  0  0  0  0  0
   20.7378   -6.2392  -15.6903 O   0  0  0  0  0  0  0  0  0  0  0  0
   20.9201   -8.4968  -15.4252 O   0  0  0  0  0  0  0  0  0  0  0  0
  2  3  1  6
  2  1  1  0
  4  2  1  0
  4  5  1  1
  6  4  1  0
  6  7  2  0
  8  6  1  0
  9  8  1  0
 10 11  1  0
 10  9  1  0
 11 12  1  0
 12  8  1  0
 12 13  1  6
 13 15  1  0
 14 13  2  0
 15 16  1  0
 17 16  1  0
 17 19  1  0
 18 17  2  0
M  END
$$$$
