VPG.pdb
     RDKit          3D

 19 19  0  0  1  0  0  0  0  0999 V2000
   26.1564  -19.3430  -15.9524 C   0  0  0  0  0  0  0  0  0  0  0  0
   27.1006  -19.3050  -14.7698 C   0  0  2  0  0  0  0  0  0  0  0  0
   28.4203  -18.6833  -15.1973 C   0  0  0  0  0  0  0  0  0  0  0  0
   27.3167  -20.7638  -14.3477 C   0  0  2  0  0  0  0  0  0  0  0  0
   27.8662  -21.4473  -15.4729 N   0  0  0  0  0  0  0  0  0  0  0  0
   26.1084  -21.3549  -13.7820 C   0  0  0  0  0  0  0  0  0  0  0  0
   25.4712  -22.2091  -14.4446 O   0  0  0  0  0  0  0  0  0  0  0  0
   25.6156  -21.0046  -12.5039 N   0  0  0  0  0  0  0  0  0  0  0  0
   26.2903  -20.0848  -11.6097 C   0  0  0  0  0  0  0  0  0  0  0  0
   25.4552  -20.0800  -10.3281 C   0  0  0  0  0  0  0  0  0  0  0  0
   24.8428  -21.4639  -10.3958 C   0  0  0  0  0  0  0  0  0  0  0  0
   24.3994  -21.4715  -11.8649 C   0  0  1  0  0  0  0  0  0  0  0  0
   23.3243  -20.4767  -12.0771 C   0  0  0  0  0  0  0  0  0  0  0  0
   23.5731  -19.2280  -11.9832 O   0  0  0  0  0  0  0  0  0  0  0  0
   22.0012  -20.8510  -12.3868 N   0  0  0  0  0  0  0  0  0  0  0  0
   21.4981  -20.8285  -13.7327 C   0  0  0  0  0  0  0  0  0  0  0  0
   20.0480  -21.0911  -13.7523 C   0  0  0  0  0  0  0  0  0  0  0  0
   19.6066  -22.2290  -13.4834 O   0  0  0  0  0  0  0  0  0  0  0  0
   19.1632  -20.0707  -14.0711 O   0  0  0  0  0  0  0  0  0  0  0  0
  2  3  1  6
  2  1  1  0
  4  2  1  0
  4  5  1  6
  6  4  1  0
  6  7  2  0
  8  6  1  0
  9  8  1  0
 10 11  1  0
 10  9  1  0
 11 12  1  0
 12  8  1  0
 12 13  1  1
 13 15  1  0
 14 13  2  0
 15 16  1  0
 17 16  1  0
 17 19  1  0
 18 17  2  0
M  END
$$$$
