VPG.pdb
     RDKit          3D

 19 19  0  0  1  0  0  0  0  0999 V2000
   22.3084  -11.2922  -19.8870 C   0  0  0  0  0  0  0  0  0  0  0  0
   23.6903  -11.8214  -19.5680 C   0  0  2  0  0  0  0  0  0  0  0  0
   24.1395  -12.7602  -20.6761 C   0  0  0  0  0  0  0  0  0  0  0  0
   23.5601  -12.5892  -18.2464 C   0  0  2  0  0  0  0  0  0  0  0  0
   22.7157  -13.7115  -18.4968 N   0  0  0  0  0  0  0  0  0  0  0  0
   23.1445  -11.7226  -17.1484 C   0  0  0  0  0  0  0  0  0  0  0  0
   21.9386  -11.7018  -16.8016 O   0  0  0  0  0  0  0  0  0  0  0  0
   24.0504  -10.8938  -16.4475 N   0  0  0  0  0  0  0  0  0  0  0  0
   25.4546  -10.7752  -16.7868 C   0  0  0  0  0  0  0  0  0  0  0  0
   26.0527   -9.8560  -15.7203 C   0  0  0  0  0  0  0  0  0  0  0  0
   25.1107  -10.1281  -14.5656 C   0  0  0  0  0  0  0  0  0  0  0  0
   23.7704  -10.0404  -15.3078 C   0  0  1  0  0  0  0  0  0  0  0  0
   23.5395   -8.6568  -15.7796 C   0  0  0  0  0  0  0  0  0  0  0  0
   24.1772   -8.2046  -16.7890 O   0  0  0  0  0  0  0  0  0  0  0  0
   22.6239   -7.7889  -15.1513 N   0  0  0  0  0  0  0  0  0  0  0  0
   22.3154   -6.4907  -15.6847 C   0  0  0  0  0  0  0  0  0  0  0  0
   22.5898   -5.4387  -14.6896 C   0  0  0  0  0  0  0  0  0  0  0  0
   22.9180   -5.7412  -13.5222 O   0  0  0  0  0  0  0  0  0  0  0  0
   22.4843   -4.1020  -15.0471 O   0  0  0  0  0  0  0  0  0  0  0  0
  2  3  1  6
  2  1  1  0
  4  2  1  0
  4  5  1  6
  6  4  1  0
  6  7  2  0
  8  6  1  0
  9  8  1  0
 10 11  1  0
 10  9  1  0
 11 12  1  0
 12  8  1  0
 12 13  1  6
 13 15  1  0
 14 13  2  0
 15 16  1  0
 17 16  1  0
 17 19  1  0
 18 17  2  0
M  END
$$$$
