VPG.pdb
     RDKit          3D

 19 19  0  0  1  0  0  0  0  0999 V2000
   13.5190  -21.8047    1.2138 C   0  0  0  0  0  0  0  0  0  0  0  0
   14.9669  -22.0864    0.8735 C   0  0  2  0  0  0  0  0  0  0  0  0
   15.0723  -22.4910   -0.5880 C   0  0  0  0  0  0  0  0  0  0  0  0
   15.4002  -23.2490    1.7755 C   0  0  2  0  0  0  0  0  0  0  0  0
   14.5954  -24.3731    1.4237 N   0  0  0  0  0  0  0  0  0  0  0  0
   15.3839  -22.8818    3.1877 C   0  0  0  0  0  0  0  0  0  0  0  0
   14.5199  -23.3852    3.9459 O   0  0  0  0  0  0  0  0  0  0  0  0
   16.3096  -21.9725    3.7489 N   0  0  0  0  0  0  0  0  0  0  0  0
   17.3650  -21.3324    2.9890 C   0  0  0  0  0  0  0  0  0  0  0  0
   18.1624  -20.5183    4.0095 C   0  0  0  0  0  0  0  0  0  0  0  0
   17.9000  -21.3230    5.2659 C   0  0  0  0  0  0  0  0  0  0  0  0
   16.3848  -21.5215    5.1261 C   0  0  1  0  0  0  0  0  0  0  0  0
   15.6875  -20.2221    5.2524 C   0  0  0  0  0  0  0  0  0  0  0  0
   15.6074  -19.4331    4.2518 O   0  0  0  0  0  0  0  0  0  0  0  0
   15.0904  -19.8010    6.4576 N   0  0  0  0  0  0  0  0  0  0  0  0
   14.2947  -18.6070    6.5373 C   0  0  0  0  0  0  0  0  0  0  0  0
   15.1531  -17.4139    6.6458 C   0  0  0  0  0  0  0  0  0  0  0  0
   16.3976  -17.5283    6.6622 O   0  0  0  0  0  0  0  0  0  0  0  0
   14.5798  -16.1530    6.7306 O   0  0  0  0  0  0  0  0  0  0  0  0
  2  3  1  6
  2  1  1  0
  4  2  1  0
  4  5  1  1
  6  4  1  0
  6  7  2  0
  8  6  1  0
  9  8  1  0
 10 11  1  0
 10  9  1  0
 11 12  1  0
 12  8  1  0
 12 13  1  6
 13 15  1  0
 14 13  2  0
 15 16  1  0
 17 16  1  0
 17 19  1  0
 18 17  2  0
M  END
$$$$
