VPG.pdb
     RDKit          3D

 19 19  0  0  1  0  0  0  0  0999 V2000
   18.5166  -10.0272  -17.3582 C   0  0  0  0  0  0  0  0  0  0  0  0
   19.6646  -11.0021  -17.5108 C   0  0  2  0  0  0  0  0  0  0  0  0
   19.3781  -11.9416  -18.6710 C   0  0  0  0  0  0  0  0  0  0  0  0
   19.7333  -11.7912  -16.1972 C   0  0  2  0  0  0  0  0  0  0  0  0
   18.5228  -12.5393  -16.0955 N   0  0  0  0  0  0  0  0  0  0  0  0
   20.0388  -10.9324  -15.0578 C   0  0  0  0  0  0  0  0  0  0  0  0
   19.1091  -10.5503  -14.3065 O   0  0  0  0  0  0  0  0  0  0  0  0
   21.3525  -10.5049  -14.7570 N   0  0  0  0  0  0  0  0  0  0  0  0
   22.5251  -10.9454  -15.4865 C   0  0  0  0  0  0  0  0  0  0  0  0
   23.7139  -10.3084  -14.7649 C   0  0  0  0  0  0  0  0  0  0  0  0
   23.1446  -10.1724  -13.3677 C   0  0  0  0  0  0  0  0  0  0  0  0
   21.7683   -9.5876  -13.7123 C   0  0  1  0  0  0  0  0  0  0  0  0
   21.9205   -8.2319  -14.2860 C   0  0  0  0  0  0  0  0  0  0  0  0
   21.9989   -8.0715  -15.5502 O   0  0  0  0  0  0  0  0  0  0  0  0
   21.9850   -7.0760  -13.4822 N   0  0  0  0  0  0  0  0  0  0  0  0
   21.4675   -5.8104  -13.9245 C   0  0  0  0  0  0  0  0  0  0  0  0
   22.4580   -5.1032  -14.7557 C   0  0  0  0  0  0  0  0  0  0  0  0
   22.2038   -3.9700  -15.2176 O   0  0  0  0  0  0  0  0  0  0  0  0
   23.6824   -5.6960  -15.0298 O   0  0  0  0  0  0  0  0  0  0  0  0
  2  3  1  6
  2  1  1  0
  4  2  1  0
  4  5  1  1
  6  4  1  0
  6  7  2  0
  8  6  1  0
  9  8  1  0
 10 11  1  0
 10  9  1  0
 11 12  1  0
 12  8  1  0
 12 13  1  6
 13 15  1  0
 14 13  2  0
 15 16  1  0
 17 16  1  0
 17 19  1  0
 18 17  2  0
M  END
$$$$
