VPG.pdb
     RDKit          3D

 19 19  0  0  1  0  0  0  0  0999 V2000
   17.6092   -9.8615  -15.4108 C   0  0  0  0  0  0  0  0  0  0  0  0
   18.1060  -10.0546  -16.8276 C   0  0  2  0  0  0  0  0  0  0  0  0
   17.0527  -10.7958  -17.6352 C   0  0  0  0  0  0  0  0  0  0  0  0
   19.3817  -10.8998  -16.7224 C   0  0  2  0  0  0  0  0  0  0  0  0
   18.9889  -12.1946  -16.2704 N   0  0  0  0  0  0  0  0  0  0  0  0
   20.4107  -10.2411  -15.9246 C   0  0  0  0  0  0  0  0  0  0  0  0
   20.6063  -10.6126  -14.7419 O   0  0  0  0  0  0  0  0  0  0  0  0
   21.2087   -9.1889  -16.4295 N   0  0  0  0  0  0  0  0  0  0  0  0
   21.0429   -8.6220  -17.7532 C   0  0  0  0  0  0  0  0  0  0  0  0
   22.1650   -7.5923  -17.8962 C   0  0  0  0  0  0  0  0  0  0  0  0
   23.1984   -8.1822  -16.9587 C   0  0  0  0  0  0  0  0  0  0  0  0
   22.2967   -8.5018  -15.7588 C   0  0  1  0  0  0  0  0  0  0  0  0
   21.7858   -7.2492  -15.1583 C   0  0  0  0  0  0  0  0  0  0  0  0
   20.7581   -6.6713  -15.6482 O   0  0  0  0  0  0  0  0  0  0  0  0
   22.3955   -6.6458  -14.0401 N   0  0  0  0  0  0  0  0  0  0  0  0
   21.7628   -5.5835  -13.3078 C   0  0  0  0  0  0  0  0  0  0  0  0
   22.0104   -4.2831  -13.9558 C   0  0  0  0  0  0  0  0  0  0  0  0
   21.4720   -3.2441  -13.5172 O   0  0  0  0  0  0  0  0  0  0  0  0
   22.8465   -4.2075  -15.0609 O   0  0  0  0  0  0  0  0  0  0  0  0
  2  3  1  6
  2  1  1  0
  4  2  1  0
  4  5  1  1
  6  4  1  0
  6  7  2  0
  8  6  1  0
  9  8  1  0
 10 11  1  0
 10  9  1  0
 11 12  1  0
 12  8  1  0
 12 13  1  6
 13 15  1  0
 14 13  2  0
 15 16  1  0
 17 16  1  0
 17 19  1  0
 18 17  2  0
M  END
$$$$
