VPG.pdb
     RDKit          3D

 19 19  0  0  1  0  0  0  0  0999 V2000
   17.5310   -9.8923  -15.9156 C   0  0  0  0  0  0  0  0  0  0  0  0
   18.2828  -10.1481  -17.2043 C   0  0  2  0  0  0  0  0  0  0  0  0
   17.3634  -10.8431  -18.1956 C   0  0  0  0  0  0  0  0  0  0  0  0
   19.4566  -11.0659  -16.8401 C   0  0  2  0  0  0  0  0  0  0  0  0
   18.8982  -12.2863  -16.3564 N   0  0  0  0  0  0  0  0  0  0  0  0
   20.4064  -10.4116  -15.9463 C   0  0  0  0  0  0  0  0  0  0  0  0
   20.4133  -10.7108  -14.7276 O   0  0  0  0  0  0  0  0  0  0  0  0
   21.3324   -9.4425  -16.3962 N   0  0  0  0  0  0  0  0  0  0  0  0
   21.4016   -8.9764  -17.7670 C   0  0  0  0  0  0  0  0  0  0  0  0
   22.5916   -8.0160  -17.8085 C   0  0  0  0  0  0  0  0  0  0  0  0
   23.4352   -8.5774  -16.6826 C   0  0  0  0  0  0  0  0  0  0  0  0
   22.3458   -8.7564  -15.6166 C   0  0  1  0  0  0  0  0  0  0  0  0
   21.8256   -7.4368  -15.1941 C   0  0  0  0  0  0  0  0  0  0  0  0
   20.9019   -6.8632  -15.8633 O   0  0  0  0  0  0  0  0  0  0  0  0
   22.3139   -6.7630  -14.0566 N   0  0  0  0  0  0  0  0  0  0  0  0
   21.6521   -5.6097  -13.5115 C   0  0  0  0  0  0  0  0  0  0  0  0
   21.9492   -4.4096  -14.3137 C   0  0  0  0  0  0  0  0  0  0  0  0
   21.4291   -3.3103  -14.0255 O   0  0  0  0  0  0  0  0  0  0  0  0
   22.8118   -4.4964  -15.3973 O   0  0  0  0  0  0  0  0  0  0  0  0
  2  3  1  6
  2  1  1  0
  4  2  1  0
  4  5  1  1
  6  4  1  0
  6  7  2  0
  8  6  1  0
  9  8  1  0
 10 11  1  0
 10  9  1  0
 11 12  1  0
 12  8  1  0
 12 13  1  6
 13 15  1  0
 14 13  2  0
 15 16  1  0
 17 16  1  0
 17 19  1  0
 18 17  2  0
M  END
$$$$
