RCF.pdb
     RDKit          3D

 29 29  0  0  1  0  0  0  0  0999 V2000
    9.4204  -13.7464   18.4969 N   0  0  0  0  0  0  0  0  0  0  0  0
    8.6950  -13.7488   17.2759 C   0  0  0  0  0  0  0  0  0  0  0  0
    9.1342  -13.1182   16.2466 N   0  0  0  0  0  0  0  0  0  0  0  0
    7.4405  -14.4620   17.1930 N   0  0  0  0  0  0  0  0  0  0  0  0
    6.7997  -14.9047   18.3668 C   0  0  0  0  0  0  0  0  0  0  0  0
    7.5173  -14.9590   19.6449 C   0  0  0  0  0  0  0  0  0  0  0  0
    6.8664  -15.4133   20.8811 C   0  0  0  0  0  0  0  0  0  0  0  0
    6.9057  -16.8455   21.2724 C   0  0  2  0  0  0  0  0  0  0  0  0
    6.0150  -17.6255   20.4935 N   0  0  0  0  0  0  0  0  0  0  0  0
    6.7740  -17.1220   22.7098 C   0  0  0  0  0  0  0  0  0  0  0  0
    5.6406  -16.8219   23.2298 O   0  0  0  0  0  0  0  0  0  0  0  0
    8.5867  -13.1640   15.3644 N   0  0  0  0  0  0  0  0  0  0  0  0
    7.7105  -17.6641   23.6037 C   0  0  2  0  0  0  0  0  0  0  0  0
    7.5661  -17.6196   25.0467 C   0  0  0  0  0  0  0  0  0  0  0  0
    7.4285  -18.9912   25.6379 S   0  0  0  0  0  0  0  0  0  0  0  0
    7.4116  -18.9493   27.4456 C   0  0  0  0  0  0  0  0  0  0  0  0
    8.7212  -16.9758   25.7096 O   0  0  0  0  0  0  0  0  0  0  0  0
    9.8535  -17.3274   25.3062 N   0  0  0  0  0  0  0  0  0  0  0  0
    8.6633  -16.0141   26.7413 C   0  0  1  0  0  0  0  0  0  0  0  0
    9.7793  -15.2828   27.2310 C   0  0  0  0  0  0  0  0  0  0  0  0
    9.5249  -13.8587   27.5842 C   0  0  0  0  0  0  0  0  0  0  0  0
    8.2869  -13.2747   27.0533 C   0  0  0  0  0  0  0  0  0  0  0  0
    8.1435  -12.8993   25.7325 C   0  0  0  0  0  0  0  0  0  0  0  0
    6.9732  -12.3449   25.2568 C   0  0  0  0  0  0  0  0  0  0  0  0
    5.9092  -12.1543   26.1106 C   0  0  0  0  0  0  0  0  0  0  0  0
    6.0281  -12.5172   27.4182 C   0  0  0  0  0  0  0  0  0  0  0  0
    7.2041  -13.0679   27.8701 C   0  0  0  0  0  0  0  0  0  0  0  0
   10.3622  -15.9588   28.4125 O   0  0  0  0  0  0  0  0  0  0  0  0
    9.7706  -17.1235   28.9342 O   0  0  0  0  0  0  0  0  0  0  0  0
  1  2  1  0
  2  4  1  0
  2  3  2  0
  4  5  1  0
  5  6  1  0
  6  7  1  0
  7  8  1  0
  8 10  1  0
  8  9  1  6
 10 11  2  0
 12 13  1  0
 12 10  1  0
 14 15  1  0
 13 14  1  1
 16 17  2  0
 16 13  1  0
 18 16  1  0
 19 18  1  0
 19 27  1  0
 19 20  1  1
 21 20  1  0
 22 21  2  0
 23 22  1  0
 24 23  2  0
 24 25  1  0
 25 26  2  0
 26 21  1  0
 27 29  2  0
 27 28  1  0
M  END
$$$$
