RCF.pdb
     RDKit          3D

 29 29  0  0  1  0  0  0  0  0999 V2000
   12.1282  -21.3003   17.1664 N   0  0  0  0  0  0  0  0  0  0  0  0
   11.6730  -20.4658   16.1113 C   0  0  0  0  0  0  0  0  0  0  0  0
   12.3619  -20.3271   15.0360 N   0  0  0  0  0  0  0  0  0  0  0  0
   10.4225  -19.7548   16.2530 N   0  0  0  0  0  0  0  0  0  0  0  0
    9.5768  -20.0225   17.3475 C   0  0  0  0  0  0  0  0  0  0  0  0
   10.1286  -20.3275   18.6718 C   0  0  0  0  0  0  0  0  0  0  0  0
   10.7798  -19.3005   19.4960 C   0  0  0  0  0  0  0  0  0  0  0  0
   10.1981  -18.9009   20.8028 C   0  0  2  0  0  0  0  0  0  0  0  0
    9.0368  -19.6525   21.1106 N   0  0  0  0  0  0  0  0  0  0  0  0
    9.9945  -17.4588   21.0007 C   0  0  0  0  0  0  0  0  0  0  0  0
   11.0456  -16.7315   20.8938 O   0  0  0  0  0  0  0  0  0  0  0  0
   11.9809  -19.7308   14.2748 N   0  0  0  0  0  0  0  0  0  0  0  0
    8.8158  -16.7562   21.2956 C   0  0  1  0  0  0  0  0  0  0  0  0
    8.7782  -15.3382   21.6001 C   0  0  0  0  0  0  0  0  0  0  0  0
    7.4689  -14.7172   21.2128 S   0  0  0  0  0  0  0  0  0  0  0  0
    6.0643  -15.5904   21.9439 C   0  0  0  0  0  0  0  0  0  0  0  0
    8.9783  -15.0650   23.0400 O   0  0  0  0  0  0  0  0  0  0  0  0
    9.0873  -13.8595   23.3616 N   0  0  0  0  0  0  0  0  0  0  0  0
    9.0564  -16.0269   24.0702 C   0  0  1  0  0  0  0  0  0  0  0  0
    8.8010  -15.7659   25.4437 C   0  0  0  0  0  0  0  0  0  0  0  0
    7.3753  -15.5495   25.8149 C   0  0  0  0  0  0  0  0  0  0  0  0
    6.9829  -14.1600   26.0813 C   0  0  0  0  0  0  0  0  0  0  0  0
    7.8533  -13.2240   26.6031 C   0  0  0  0  0  0  0  0  0  0  0  0
    7.4607  -11.9252   26.8529 C   0  0  0  0  0  0  0  0  0  0  0  0
    6.1680  -11.5360   26.5796 C   0  0  0  0  0  0  0  0  0  0  0  0
    5.2917  -12.4428   26.0644 C   0  0  0  0  0  0  0  0  0  0  0  0
    5.7051  -13.7318   25.8236 C   0  0  0  0  0  0  0  0  0  0  0  0
    9.3413  -16.8570   26.2865 O   0  0  0  0  0  0  0  0  0  0  0  0
    9.9491  -17.9809   25.6981 O   0  0  0  0  0  0  0  0  0  0  0  0
  1  2  1  0
  2  4  1  0
  2  3  2  0
  4  5  1  0
  5  6  1  0
  6  7  1  0
  7  8  1  0
  8 10  1  0
  8  9  1  6
 10 11  2  0
 12 13  1  0
 12 10  1  0
 14 15  1  0
 13 14  1  6
 16 17  2  0
 16 13  1  0
 18 16  1  0
 19 18  1  0
 19 27  1  0
 19 20  1  1
 21 20  1  0
 22 21  2  0
 23 22  1  0
 24 23  2  0
 24 25  1  0
 25 26  2  0
 26 21  1  0
 27 29  2  0
 27 28  1  0
M  END
$$$$
