RCF.pdb
     RDKit          3D

 29 29  0  0  1  0  0  0  0  0999 V2000
    7.6366  -11.8649   19.0935 N   0  0  0  0  0  0  0  0  0  0  0  0
    8.0840  -13.1478   18.6802 C   0  0  0  0  0  0  0  0  0  0  0  0
    7.6511  -13.6788   17.5937 N   0  0  0  0  0  0  0  0  0  0  0  0
    9.0316  -13.8705   19.4982 N   0  0  0  0  0  0  0  0  0  0  0  0
    8.6868  -15.1246   20.0395 C   0  0  0  0  0  0  0  0  0  0  0  0
    7.5247  -15.8685   19.5422 C   0  0  0  0  0  0  0  0  0  0  0  0
    6.5290  -16.4505   20.4522 C   0  0  0  0  0  0  0  0  0  0  0  0
    6.8216  -17.7078   21.1867 C   0  0  2  0  0  0  0  0  0  0  0  0
    6.0768  -18.7989   20.6738 N   0  0  0  0  0  0  0  0  0  0  0  0
    6.7495  -17.6265   22.6524 C   0  0  0  0  0  0  0  0  0  0  0  0
    5.6350  -17.2077   23.1295 O   0  0  0  0  0  0  0  0  0  0  0  0
    7.9878  -14.6275   17.3353 N   0  0  0  0  0  0  0  0  0  0  0  0
    7.7255  -17.9362   23.6123 C   0  0  2  0  0  0  0  0  0  0  0  0
    7.5063  -17.8414   25.0434 C   0  0  0  0  0  0  0  0  0  0  0  0
    7.5933  -19.1808   25.7127 S   0  0  0  0  0  0  0  0  0  0  0  0
    9.2115  -19.9519   25.4739 C   0  0  0  0  0  0  0  0  0  0  0  0
    8.4913  -16.9601   25.7077 O   0  0  0  0  0  0  0  0  0  0  0  0
    9.5532  -16.7487   25.0783 N   0  0  0  0  0  0  0  0  0  0  0  0
    8.3445  -16.3444   26.9694 C   0  0  1  0  0  0  0  0  0  0  0  0
    9.3404  -15.5560   27.6072 C   0  0  0  0  0  0  0  0  0  0  0  0
    8.8653  -14.3068   28.2638 C   0  0  0  0  0  0  0  0  0  0  0  0
    8.0681  -13.4020   27.4262 C   0  0  0  0  0  0  0  0  0  0  0  0
    8.6329  -12.4120   26.6471 C   0  0  0  0  0  0  0  0  0  0  0  0
    7.8636  -11.5677   25.8734 C   0  0  0  0  0  0  0  0  0  0  0  0
    6.4929  -11.7033   25.8672 C   0  0  0  0  0  0  0  0  0  0  0  0
    5.9137  -12.6733   26.6283 C   0  0  0  0  0  0  0  0  0  0  0  0
    6.7003  -13.5034   27.3917 C   0  0  0  0  0  0  0  0  0  0  0  0
   10.0720  -16.3611   28.6119 O   0  0  0  0  0  0  0  0  0  0  0  0
   11.2206  -15.8475   29.2408 O   0  0  0  0  0  0  0  0  0  0  0  0
  1  2  1  0
  2  4  1  0
  2  3  2  0
  4  5  1  0
  5  6  1  0
  6  7  1  0
  7  8  1  0
  8 10  1  0
  8  9  1  6
 10 11  2  0
 12 13  1  0
 12 10  1  0
 14 15  1  0
 13 14  1  6
 16 17  2  0
 16 13  1  0
 18 16  1  0
 19 18  1  0
 19 27  1  0
 19 20  1  1
 21 20  1  0
 22 21  2  0
 23 22  1  0
 24 23  2  0
 24 25  1  0
 25 26  2  0
 26 21  1  0
 27 29  2  0
 27 28  1  0
M  END
$$$$
