RCF.pdb
     RDKit          3D

 29 29  0  0  1  0  0  0  0  0999 V2000
   13.4172  -22.0693   21.9552 N   0  0  0  0  0  0  0  0  0  0  0  0
   12.2340  -21.4547   21.4658 C   0  0  0  0  0  0  0  0  0  0  0  0
   11.6762  -21.8659   20.3842 N   0  0  0  0  0  0  0  0  0  0  0  0
   11.6550  -20.3451   22.1888 N   0  0  0  0  0  0  0  0  0  0  0  0
   10.4950  -19.7115   21.7014 C   0  0  0  0  0  0  0  0  0  0  0  0
    9.8295  -20.1866   20.4838 C   0  0  0  0  0  0  0  0  0  0  0  0
    8.5864  -19.5779   19.9915 C   0  0  0  0  0  0  0  0  0  0  0  0
    8.6119  -18.2640   19.2994 C   0  0  2  0  0  0  0  0  0  0  0  0
    9.5172  -18.2642   18.2091 N   0  0  0  0  0  0  0  0  0  0  0  0
    8.7832  -17.0870   20.1628 C   0  0  0  0  0  0  0  0  0  0  0  0
    9.9839  -16.6489   20.2699 O   0  0  0  0  0  0  0  0  0  0  0  0
   12.1392  -22.6226   19.8426 N   0  0  0  0  0  0  0  0  0  0  0  0
    7.8240  -16.3703   20.8952 C   0  0  1  0  0  0  0  0  0  0  0  0
    8.1392  -15.2321   21.7377 C   0  0  0  0  0  0  0  0  0  0  0  0
    7.0558  -14.1953   21.7060 S   0  0  0  0  0  0  0  0  0  0  0  0
    7.5486  -12.6766   22.5548 C   0  0  0  0  0  0  0  0  0  0  0  0
    8.3317  -15.6145   23.1536 O   0  0  0  0  0  0  0  0  0  0  0  0
    7.4963  -16.4199   23.6247 N   0  0  0  0  0  0  0  0  0  0  0  0
    9.3579  -15.1602   24.0099 C   0  0  2  0  0  0  0  0  0  0  0  0
    9.3886  -15.3625   25.4164 C   0  0  0  0  0  0  0  0  0  0  0  0
    8.0910  -15.2030   26.1293 C   0  0  0  0  0  0  0  0  0  0  0  0
    7.6404  -13.8225   26.3455 C   0  0  0  0  0  0  0  0  0  0  0  0
    8.5152  -12.7646   26.4922 C   0  0  0  0  0  0  0  0  0  0  0  0
    8.0695  -11.4760   26.7025 C   0  0  0  0  0  0  0  0  0  0  0  0
    6.7175  -11.2215   26.7705 C   0  0  0  0  0  0  0  0  0  0  0  0
    5.8357  -12.2501   26.6286 C   0  0  0  0  0  0  0  0  0  0  0  0
    6.3028  -13.5263   26.4198 C   0  0  0  0  0  0  0  0  0  0  0  0
    9.9331  -16.7024   25.7342 O   0  0  0  0  0  0  0  0  0  0  0  0
   10.3638  -17.5613   24.7068 O   0  0  0  0  0  0  0  0  0  0  0  0
  1  2  1  0
  2  4  1  0
  2  3  2  0
  4  5  1  0
  5  6  1  0
  6  7  1  0
  7  8  1  0
  8 10  1  0
  8  9  1  6
 10 11  2  0
 12 13  1  0
 12 10  1  0
 14 15  1  0
 13 14  1  1
 16 17  2  0
 16 13  1  0
 18 16  1  0
 19 18  1  0
 19 27  1  0
 19 20  1  6
 21 20  1  0
 22 21  2  0
 23 22  1  0
 24 23  2  0
 24 25  1  0
 25 26  2  0
 26 21  1  0
 27 29  2  0
 27 28  1  0
M  END
$$$$
