RCF.pdb
     RDKit          3D

 29 29  0  0  1  0  0  0  0  0999 V2000
    7.7227  -14.5181   15.3780 N   0  0  0  0  0  0  0  0  0  0  0  0
    8.3272  -13.8087   16.4497 C   0  0  0  0  0  0  0  0  0  0  0  0
    8.0080  -12.5892   16.6965 N   0  0  0  0  0  0  0  0  0  0  0  0
    9.3225  -14.4643   17.2676 N   0  0  0  0  0  0  0  0  0  0  0  0
    8.9421  -15.1185   18.4559 C   0  0  0  0  0  0  0  0  0  0  0  0
    7.7335  -14.7192   19.1846 C   0  0  0  0  0  0  0  0  0  0  0  0
    7.3502  -15.3494   20.4552 C   0  0  0  0  0  0  0  0  0  0  0  0
    8.0995  -16.5230   20.9718 C   0  0  2  0  0  0  0  0  0  0  0  0
    7.6728  -17.7275   20.3590 N   0  0  0  0  0  0  0  0  0  0  0  0
    8.1773  -16.6417   22.4346 C   0  0  0  0  0  0  0  0  0  0  0  0
    7.2812  -16.0000   23.0905 O   0  0  0  0  0  0  0  0  0  0  0  0
    8.5161  -12.0850   17.4500 N   0  0  0  0  0  0  0  0  0  0  0  0
    9.0939  -17.3527   23.2247 C   0  0  2  0  0  0  0  0  0  0  0  0
    8.9681  -17.5080   24.6617 C   0  0  0  0  0  0  0  0  0  0  0  0
    9.3542  -18.8858   25.1116 S   0  0  0  0  0  0  0  0  0  0  0  0
   11.0837  -19.2588   24.7378 C   0  0  0  0  0  0  0  0  0  0  0  0
    9.8170  -16.5544   25.4086 O   0  0  0  0  0  0  0  0  0  0  0  0
   10.8841  -16.2126   24.8493 N   0  0  0  0  0  0  0  0  0  0  0  0
    9.5369  -16.0024   26.6773 C   0  0  1  0  0  0  0  0  0  0  0  0
   10.4481  -15.2241   27.4415 C   0  0  0  0  0  0  0  0  0  0  0  0
   10.0823  -13.7942   27.6390 C   0  0  0  0  0  0  0  0  0  0  0  0
    8.7955  -13.3741   27.0706 C   0  0  0  0  0  0  0  0  0  0  0  0
    7.8126  -12.7581   27.8192 C   0  0  0  0  0  0  0  0  0  0  0  0
    6.6072  -12.3788   27.2658 C   0  0  0  0  0  0  0  0  0  0  0  0
    6.3622  -12.6141   25.9309 C   0  0  0  0  0  0  0  0  0  0  0  0
    7.3177  -13.2207   25.1727 C   0  0  0  0  0  0  0  0  0  0  0  0
    8.5117  -13.5902   25.7457 C   0  0  0  0  0  0  0  0  0  0  0  0
   10.6630  -15.8380   28.7718 O   0  0  0  0  0  0  0  0  0  0  0  0
   11.6411  -15.3283   29.6450 O   0  0  0  0  0  0  0  0  0  0  0  0
  1  2  1  0
  2  4  1  0
  2  3  2  0
  4  5  1  0
  5  6  1  0
  6  7  1  0
  7  8  1  0
  8 10  1  0
  8  9  1  1
 10 11  2  0
 12 13  1  0
 12 10  1  0
 14 15  1  0
 13 14  1  6
 16 17  2  0
 16 13  1  0
 18 16  1  0
 19 18  1  0
 19 27  1  0
 19 20  1  1
 21 20  1  0
 22 21  2  0
 23 22  1  0
 24 23  2  0
 24 25  1  0
 25 26  2  0
 26 21  1  0
 27 29  2  0
 27 28  1  0
M  END
$$$$
