RCF.pdb
     RDKit          3D

 29 29  0  0  1  0  0  0  0  0999 V2000
    8.6157  -20.2741   15.1222 N   0  0  0  0  0  0  0  0  0  0  0  0
    7.3601  -19.6104   15.1191 C   0  0  0  0  0  0  0  0  0  0  0  0
    6.2620  -20.2767   15.1046 N   0  0  0  0  0  0  0  0  0  0  0  0
    7.3170  -18.1656   15.1221 N   0  0  0  0  0  0  0  0  0  0  0  0
    7.4592  -17.4563   16.3310 C   0  0  0  0  0  0  0  0  0  0  0  0
    8.7369  -17.4388   17.0509 C   0  0  0  0  0  0  0  0  0  0  0  0
    8.9106  -16.6927   18.3045 C   0  0  0  0  0  0  0  0  0  0  0  0
    9.0025  -17.4088   19.6024 C   0  0  2  0  0  0  0  0  0  0  0  0
    8.4839  -18.7246   19.5121 N   0  0  0  0  0  0  0  0  0  0  0  0
    8.4831  -16.6865   20.7723 C   0  0  0  0  0  0  0  0  0  0  0  0
    7.9994  -15.5226   20.5344 O   0  0  0  0  0  0  0  0  0  0  0  0
    5.3634  -19.7544   15.1061 N   0  0  0  0  0  0  0  0  0  0  0  0
    8.4418  -17.0810   22.1186 C   0  0  1  0  0  0  0  0  0  0  0  0
    8.0617  -16.1980   23.2053 C   0  0  0  0  0  0  0  0  0  0  0  0
    6.6357  -16.4047   23.6216 S   0  0  0  0  0  0  0  0  0  0  0  0
    6.3788  -18.0312   24.3688 C   0  0  0  0  0  0  0  0  0  0  0  0
    8.8976  -16.3939   24.4099 O   0  0  0  0  0  0  0  0  0  0  0  0
    8.9220  -17.5544   24.8801 N   0  0  0  0  0  0  0  0  0  0  0  0
    9.6598  -15.4048   25.0681 C   0  0  2  0  0  0  0  0  0  0  0  0
    9.7607  -15.2648   26.4789 C   0  0  0  0  0  0  0  0  0  0  0  0
    8.4905  -14.9762   27.2006 C   0  0  0  0  0  0  0  0  0  0  0  0
    7.8472  -13.6948   26.8851 C   0  0  0  0  0  0  0  0  0  0  0  0
    6.5167  -13.5930   26.5310 C   0  0  0  0  0  0  0  0  0  0  0  0
    5.9347  -12.3787   26.2308 C   0  0  0  0  0  0  0  0  0  0  0  0
    6.6885  -11.2269   26.2812 C   0  0  0  0  0  0  0  0  0  0  0  0
    8.0036  -11.3033   26.6281 C   0  0  0  0  0  0  0  0  0  0  0  0
    8.5624  -12.5245   26.9231 C   0  0  0  0  0  0  0  0  0  0  0  0
   10.3714  -16.4743   27.0761 O   0  0  0  0  0  0  0  0  0  0  0  0
   10.6637  -17.5958   26.2788 O   0  0  0  0  0  0  0  0  0  0  0  0
  1  2  1  0
  2  4  1  0
  2  3  2  0
  4  5  1  0
  5  6  1  0
  6  7  1  0
  7  8  1  0
  8 10  1  0
  8  9  1  6
 10 11  2  0
 12 13  1  0
 12 10  1  0
 14 15  1  0
 13 14  1  6
 16 17  2  0
 16 13  1  0
 18 16  1  0
 19 18  1  0
 19 27  1  0
 19 20  1  6
 21 20  1  0
 22 21  2  0
 23 22  1  0
 24 23  2  0
 24 25  1  0
 25 26  2  0
 26 21  1  0
 27 29  2  0
 27 28  1  0
M  END
$$$$
