RCF.pdb
     RDKit          3D

 29 29  0  0  1  0  0  0  0  0999 V2000
    7.8449  -21.6672   16.1492 N   0  0  0  0  0  0  0  0  0  0  0  0
    6.4322  -21.6446   16.0045 C   0  0  0  0  0  0  0  0  0  0  0  0
    5.8617  -22.2251   15.0107 N   0  0  0  0  0  0  0  0  0  0  0  0
    5.6260  -20.9503   16.9829 N   0  0  0  0  0  0  0  0  0  0  0  0
    6.1976  -19.9413   17.7828 C   0  0  0  0  0  0  0  0  0  0  0  0
    6.7962  -20.2571   19.0840 C   0  0  0  0  0  0  0  0  0  0  0  0
    7.3942  -19.2194   19.9348 C   0  0  0  0  0  0  0  0  0  0  0  0
    8.1795  -18.1110   19.3342 C   0  0  2  0  0  0  0  0  0  0  0  0
    9.2698  -18.5963   18.5700 N   0  0  0  0  0  0  0  0  0  0  0  0
    8.5806  -17.0369   20.2537 C   0  0  0  0  0  0  0  0  0  0  0  0
    9.6224  -17.2755   20.9629 O   0  0  0  0  0  0  0  0  0  0  0  0
    4.8247  -22.1976   14.9473 N   0  0  0  0  0  0  0  0  0  0  0  0
    7.9874  -15.7844   20.4756 C   0  0  2  0  0  0  0  0  0  0  0  0
    8.4196  -14.8599   21.5069 C   0  0  0  0  0  0  0  0  0  0  0  0
    7.6834  -13.5552   21.4331 S   0  0  0  0  0  0  0  0  0  0  0  0
    8.4383  -12.2928   22.4850 C   0  0  0  0  0  0  0  0  0  0  0  0
    8.2128  -15.3978   22.8692 O   0  0  0  0  0  0  0  0  0  0  0  0
    7.1273  -15.9899   23.0683 N   0  0  0  0  0  0  0  0  0  0  0  0
    9.1158  -15.3053   23.9503 C   0  0  2  0  0  0  0  0  0  0  0  0
    8.7788  -15.5432   25.3104 C   0  0  0  0  0  0  0  0  0  0  0  0
    7.3768  -15.2292   25.7020 C   0  0  0  0  0  0  0  0  0  0  0  0
    7.1093  -13.8348   26.0754 C   0  0  0  0  0  0  0  0  0  0  0  0
    5.8635  -13.2530   25.9506 C   0  0  0  0  0  0  0  0  0  0  0  0
    5.6365  -11.9379   26.3004 C   0  0  0  0  0  0  0  0  0  0  0  0
    6.6711  -11.1709   26.7891 C   0  0  0  0  0  0  0  0  0  0  0  0
    7.9089  -11.7240   26.9208 C   0  0  0  0  0  0  0  0  0  0  0  0
    8.1119  -13.0368   26.5658 C   0  0  0  0  0  0  0  0  0  0  0  0
    9.0600  -16.9507   25.6742 O   0  0  0  0  0  0  0  0  0  0  0  0
    9.4896  -17.8692   24.6991 O   0  0  0  0  0  0  0  0  0  0  0  0
  1  2  1  0
  2  4  1  0
  2  3  2  0
  4  5  1  0
  5  6  1  0
  6  7  1  0
  7  8  1  0
  8 10  1  0
  8  9  1  1
 10 11  2  0
 12 13  1  0
 12 10  1  0
 14 15  1  0
 13 14  1  6
 16 17  2  0
 16 13  1  0
 18 16  1  0
 19 18  1  0
 19 27  1  0
 19 20  1  6
 21 20  1  0
 22 21  2  0
 23 22  1  0
 24 23  2  0
 24 25  1  0
 25 26  2  0
 26 21  1  0
 27 29  2  0
 27 28  1  0
M  END
$$$$
