ISS.pdb
     RDKit          3D

 21 20  0  0  1  0  0  0  0  0999 V2000
    5.1694  -11.7361   26.5021 C   0  0  0  0  0  0  0  0  0  0  0  0
    6.5554  -12.0132   26.9585 C   0  0  0  0  0  0  0  0  0  0  0  0
    7.2577  -13.1490   26.3252 C   0  0  2  0  0  0  0  0  0  0  0  0
    8.3421  -12.5687   25.4128 C   0  0  0  0  0  0  0  0  0  0  0  0
    6.4751  -14.1219   25.5453 C   0  0  2  0  0  0  0  0  0  0  0  0
    5.3719  -14.6588   26.2845 N   0  0  0  0  0  0  0  0  0  0  0  0
    7.2781  -15.1544   24.8512 C   0  0  0  0  0  0  0  0  0  0  0  0
    7.7231  -16.1720   25.4233 O   0  0  0  0  0  0  0  0  0  0  0  0
    9.0122  -14.3898   20.9992 O   0  0  0  0  0  0  0  0  0  0  0  0
    8.4534  -15.6191   21.2601 C   0  0  0  0  0  0  0  0  0  0  0  0
    8.4247  -15.9479   22.7506 C   0  0  2  0  0  0  0  0  0  0  0  0
    7.5789  -15.0187   23.4703 N   0  0  0  0  0  0  0  0  0  0  0  0
    9.7985  -15.9958   23.2440 C   0  0  0  0  0  0  0  0  0  0  0  0
   10.3735  -14.9737   23.6736 O   0  0  0  0  0  0  0  0  0  0  0  0
   13.1903  -18.4266   25.3273 O   0  0  0  0  0  0  0  0  0  0  0  0
   11.8993  -18.4333   24.7633 C   0  0  0  0  0  0  0  0  0  0  0  0
   11.8923  -17.3079   23.7407 C   0  0  2  0  0  0  0  0  0  0  0  0
   10.5280  -17.2048   23.2530 N   0  0  0  0  0  0  0  0  0  0  0  0
   12.8400  -17.6791   22.6762 C   0  0  0  0  0  0  0  0  0  0  0  0
   14.1988  -17.5841   22.8633 O   0  0  0  0  0  0  0  0  0  0  0  0
   12.4034  -18.0874   21.5842 O   0  0  0  0  0  0  0  0  0  0  0  0
  2  3  1  0
  2  1  1  0
  3  5  1  0
  3  4  1  6
  5  6  1  1
  5  7  1  0
  7  8  2  0
 10  9  1  0
 11 10  1  6
 12  7  1  0
 12 11  1  0
 13 18  1  0
 13 11  1  0
 14 13  2  0
 16 15  1  0
 17 19  1  0
 17 16  1  1
 17 18  1  0
 19 20  1  0
 21 19  2  0
M  END
$$$$
