ISS.pdb
     RDKit          3D

 21 20  0  0  1  0  0  0  0  0999 V2000
    6.1727  -11.5039   27.4325 C   0  0  0  0  0  0  0  0  0  0  0  0
    5.7154  -12.7213   26.7150 C   0  0  0  0  0  0  0  0  0  0  0  0
    6.7315  -13.4707   25.9467 C   0  0  2  0  0  0  0  0  0  0  0  0
    7.2036  -12.5670   24.8041 C   0  0  0  0  0  0  0  0  0  0  0  0
    6.3686  -14.7785   25.3764 C   0  0  2  0  0  0  0  0  0  0  0  0
    5.7484  -15.6432   26.3352 N   0  0  0  0  0  0  0  0  0  0  0  0
    7.4403  -15.4368   24.5952 C   0  0  0  0  0  0  0  0  0  0  0  0
    8.2165  -16.2863   25.0818 O   0  0  0  0  0  0  0  0  0  0  0  0
    9.4023  -15.8960   20.1068 O   0  0  0  0  0  0  0  0  0  0  0  0
    8.5826  -15.2057   20.9688 C   0  0  0  0  0  0  0  0  0  0  0  0
    8.6081  -15.7726   22.3859 C   0  0  2  0  0  0  0  0  0  0  0  0
    7.6283  -15.1150   23.2251 N   0  0  0  0  0  0  0  0  0  0  0  0
    9.9732  -15.6866   22.8980 C   0  0  0  0  0  0  0  0  0  0  0  0
   10.4370  -14.6156   23.3424 O   0  0  0  0  0  0  0  0  0  0  0  0
   11.4517  -18.5496   24.7117 O   0  0  0  0  0  0  0  0  0  0  0  0
   12.1760  -17.3440   24.7940 C   0  0  0  0  0  0  0  0  0  0  0  0
   12.1926  -16.7781   23.3828 C   0  0  2  0  0  0  0  0  0  0  0  0
   10.8201  -16.8164   22.9089 N   0  0  0  0  0  0  0  0  0  0  0  0
   13.0851  -17.6316   22.5803 C   0  0  0  0  0  0  0  0  0  0  0  0
   14.4213  -17.7518   22.8815 O   0  0  0  0  0  0  0  0  0  0  0  0
   12.6219  -18.2577   21.6091 O   0  0  0  0  0  0  0  0  0  0  0  0
  2  3  1  0
  2  1  1  0
  3  5  1  0
  3  4  1  6
  5  6  1  1
  5  7  1  0
  7  8  2  0
 10  9  1  0
 11 10  1  6
 12  7  1  0
 12 11  1  0
 13 18  1  0
 13 11  1  0
 14 13  2  0
 16 15  1  0
 17 19  1  0
 17 16  1  1
 17 18  1  0
 19 20  1  0
 21 19  2  0
M  END
$$$$
