ISS.pdb
     RDKit          3D

 21 20  0  0  1  0  0  0  0  0999 V2000
    7.4926  -12.0301   19.3569 C   0  0  0  0  0  0  0  0  0  0  0  0
    7.6731  -13.4973   19.5003 C   0  0  0  0  0  0  0  0  0  0  0  0
    7.8409  -14.0236   20.8712 C   0  0  2  0  0  0  0  0  0  0  0  0
    9.0553  -13.3232   21.4875 C   0  0  0  0  0  0  0  0  0  0  0  0
    8.0042  -15.4744   21.0598 C   0  0  2  0  0  0  0  0  0  0  0  0
    7.0296  -16.2357   20.3370 N   0  0  0  0  0  0  0  0  0  0  0  0
    8.1641  -15.9058   22.4671 C   0  0  0  0  0  0  0  0  0  0  0  0
    7.2212  -15.9257   23.2865 O   0  0  0  0  0  0  0  0  0  0  0  0
   11.8965  -17.5211   23.8494 O   0  0  0  0  0  0  0  0  0  0  0  0
   10.6813  -17.8536   24.4010 C   0  0  0  0  0  0  0  0  0  0  0  0
    9.6679  -16.7147   24.3223 C   0  0  2  0  0  0  0  0  0  0  0  0
    9.4330  -16.3239   22.9479 N   0  0  0  0  0  0  0  0  0  0  0  0
   10.1286  -15.6211   25.1738 C   0  0  0  0  0  0  0  0  0  0  0  0
   10.9325  -14.7621   24.7549 O   0  0  0  0  0  0  0  0  0  0  0  0
    8.0713  -14.0467   27.7261 O   0  0  0  0  0  0  0  0  0  0  0  0
    9.3609  -13.4792   27.7321 C   0  0  0  0  0  0  0  0  0  0  0  0
   10.3187  -14.6341   27.4851 C   0  0  2  0  0  0  0  0  0  0  0  0
    9.6789  -15.4960   26.5065 N   0  0  0  0  0  0  0  0  0  0  0  0
   10.5272  -15.3123   28.7757 C   0  0  0  0  0  0  0  0  0  0  0  0
   11.0543  -14.6460   29.8568 O   0  0  0  0  0  0  0  0  0  0  0  0
   10.2205  -16.5132   28.8919 O   0  0  0  0  0  0  0  0  0  0  0  0
  2  3  1  0
  2  1  1  0
  3  5  1  0
  3  4  1  6
  5  6  1  1
  5  7  1  0
  7  8  2  0
 10  9  1  0
 11 10  1  6
 12  7  1  0
 12 11  1  0
 13 18  1  0
 13 11  1  0
 14 13  2  0
 16 15  1  0
 17 19  1  0
 17 16  1  1
 17 18  1  0
 19 20  1  0
 21 19  2  0
M  END
$$$$
