ISS.pdb
     RDKit          3D

 21 20  0  0  1  0  0  0  0  0999 V2000
    7.5622  -11.6746   19.9360 C   0  0  0  0  0  0  0  0  0  0  0  0
    7.5937  -13.1029   19.5300 C   0  0  0  0  0  0  0  0  0  0  0  0
    7.9760  -14.0877   20.5636 C   0  0  2  0  0  0  0  0  0  0  0  0
    9.4015  -13.7540   21.0124 C   0  0  0  0  0  0  0  0  0  0  0  0
    7.9237  -15.5212   20.2324 C   0  0  2  0  0  0  0  0  0  0  0  0
    6.7286  -15.8795   19.5287 N   0  0  0  0  0  0  0  0  0  0  0  0
    8.2423  -16.4322   21.3552 C   0  0  0  0  0  0  0  0  0  0  0  0
    7.4486  -16.6657   22.2914 O   0  0  0  0  0  0  0  0  0  0  0  0
   11.9945  -18.5633   21.4576 O   0  0  0  0  0  0  0  0  0  0  0  0
   10.8116  -19.0999   21.9097 C   0  0  0  0  0  0  0  0  0  0  0  0
    9.8509  -18.0404   22.4433 C   0  0  2  0  0  0  0  0  0  0  0  0
    9.4990  -17.0911   21.4080 N   0  0  0  0  0  0  0  0  0  0  0  0
   10.4456  -17.4255   23.6271 C   0  0  0  0  0  0  0  0  0  0  0  0
   11.1034  -16.3666   23.5517 O   0  0  0  0  0  0  0  0  0  0  0  0
    8.9000  -17.8805   26.9533 O   0  0  0  0  0  0  0  0  0  0  0  0
   10.0148  -17.0250   27.0542 C   0  0  0  0  0  0  0  0  0  0  0  0
   11.0401  -17.5694   26.0722 C   0  0  2  0  0  0  0  0  0  0  0  0
   10.2969  -18.0092   24.9043 N   0  0  0  0  0  0  0  0  0  0  0  0
   11.7388  -18.6801   26.7410 C   0  0  0  0  0  0  0  0  0  0  0  0
   12.4474  -18.4832   27.9028 O   0  0  0  0  0  0  0  0  0  0  0  0
   11.6877  -19.8211   26.2457 O   0  0  0  0  0  0  0  0  0  0  0  0
  2  3  1  0
  2  1  1  0
  3  5  1  0
  3  4  1  6
  5  6  1  1
  5  7  1  0
  7  8  2  0
 10  9  1  0
 11 10  1  6
 12  7  1  0
 12 11  1  0
 13 18  1  0
 13 11  1  0
 14 13  2  0
 16 15  1  0
 17 19  1  0
 17 16  1  1
 17 18  1  0
 19 20  1  0
 21 19  2  0
M  END
$$$$
