ISS.pdb
     RDKit          3D

 21 20  0  0  1  0  0  0  0  0999 V2000
    7.8872  -11.6876   20.0898 C   0  0  0  0  0  0  0  0  0  0  0  0
    7.6698  -13.0566   19.5562 C   0  0  0  0  0  0  0  0  0  0  0  0
    8.2921  -14.1739   20.2969 C   0  0  2  0  0  0  0  0  0  0  0  0
    9.8024  -13.9228   20.3252 C   0  0  0  0  0  0  0  0  0  0  0  0
    8.0652  -15.5506   19.8275 C   0  0  2  0  0  0  0  0  0  0  0  0
    6.6913  -15.8044   19.5119 N   0  0  0  0  0  0  0  0  0  0  0  0
    8.6821  -16.6043   20.6651 C   0  0  0  0  0  0  0  0  0  0  0  0
    8.2052  -16.9730   21.7595 O   0  0  0  0  0  0  0  0  0  0  0  0
   12.5680  -18.2793   19.7688 O   0  0  0  0  0  0  0  0  0  0  0  0
   11.4954  -19.0815   20.0810 C   0  0  0  0  0  0  0  0  0  0  0  0
   10.4605  -18.3691   20.9480 C   0  0  2  0  0  0  0  0  0  0  0  0
    9.8728  -17.2508   20.2405 N   0  0  0  0  0  0  0  0  0  0  0  0
   11.0880  -17.9994   22.2141 C   0  0  0  0  0  0  0  0  0  0  0  0
   11.5028  -16.8401   22.4227 O   0  0  0  0  0  0  0  0  0  0  0  0
   11.3489  -18.6004   26.8248 O   0  0  0  0  0  0  0  0  0  0  0  0
   10.7435  -18.8448   25.5763 C   0  0  0  0  0  0  0  0  0  0  0  0
   11.8336  -18.6195   24.5404 C   0  0  2  0  0  0  0  0  0  0  0  0
   11.2484  -18.9441   23.2513 N   0  0  0  0  0  0  0  0  0  0  0  0
   12.9548  -19.5100   24.8855 C   0  0  0  0  0  0  0  0  0  0  0  0
   13.7827  -19.2384   25.9491 O   0  0  0  0  0  0  0  0  0  0  0  0
   13.1584  -20.5299   24.2012 O   0  0  0  0  0  0  0  0  0  0  0  0
  2  3  1  0
  2  1  1  0
  3  5  1  0
  3  4  1  6
  5  6  1  1
  5  7  1  0
  7  8  2  0
 10  9  1  0
 11 10  1  6
 12  7  1  0
 12 11  1  0
 13 18  1  0
 13 11  1  0
 14 13  2  0
 16 15  1  0
 17 19  1  0
 17 16  1  1
 17 18  1  0
 19 20  1  0
 21 19  2  0
M  END
$$$$
