ISS.pdb
     RDKit          3D

 21 20  0  0  1  0  0  0  0  0999 V2000
    7.4752  -11.9786   20.5248 C   0  0  0  0  0  0  0  0  0  0  0  0
    7.6945  -13.3208   19.9280 C   0  0  0  0  0  0  0  0  0  0  0  0
    8.9906  -13.5552   19.2576 C   0  0  2  0  0  0  0  0  0  0  0  0
    9.1160  -12.5301   18.1269 C   0  0  0  0  0  0  0  0  0  0  0  0
    9.2709  -14.8887   18.7003 C   0  0  2  0  0  0  0  0  0  0  0  0
    8.4245  -15.2094   17.5901 N   0  0  0  0  0  0  0  0  0  0  0  0
    9.3668  -15.9751   19.7017 C   0  0  0  0  0  0  0  0  0  0  0  0
    8.4184  -16.7434   19.9685 O   0  0  0  0  0  0  0  0  0  0  0  0
   13.0302  -17.6095   20.9491 O   0  0  0  0  0  0  0  0  0  0  0  0
   11.7963  -18.1896   21.1289 C   0  0  0  0  0  0  0  0  0  0  0  0
   10.7110  -17.1711   21.4681 C   0  0  2  0  0  0  0  0  0  0  0  0
   10.5763  -16.1868   20.4146 N   0  0  0  0  0  0  0  0  0  0  0  0
   11.0056  -16.5944   22.7772 C   0  0  0  0  0  0  0  0  0  0  0  0
   11.8003  -15.6396   22.9058 O   0  0  0  0  0  0  0  0  0  0  0  0
    8.6179  -17.5414   25.6771 O   0  0  0  0  0  0  0  0  0  0  0  0
    9.4089  -16.4230   26.0064 C   0  0  0  0  0  0  0  0  0  0  0  0
   10.7303  -16.6273   25.2823 C   0  0  2  0  0  0  0  0  0  0  0  0
   10.3992  -17.0982   23.9488 N   0  0  0  0  0  0  0  0  0  0  0  0
   11.5003  -17.6202   26.0506 C   0  0  0  0  0  0  0  0  0  0  0  0
   12.0495  -17.3099   27.2723 O   0  0  0  0  0  0  0  0  0  0  0  0
   11.6581  -18.7643   25.5858 O   0  0  0  0  0  0  0  0  0  0  0  0
  2  3  1  0
  2  1  1  0
  3  5  1  0
  3  4  1  6
  5  6  1  6
  5  7  1  0
  7  8  2  0
 10  9  1  0
 11 10  1  6
 12  7  1  0
 12 11  1  0
 13 18  1  0
 13 11  1  0
 14 13  2  0
 16 15  1  0
 17 19  1  0
 17 16  1  1
 17 18  1  0
 19 20  1  0
 21 19  2  0
M  END
$$$$
