ISS.pdb
     RDKit          3D

 21 20  0  0  1  0  0  0  0  0999 V2000
    7.1154  -11.8402   19.8053 C   0  0  0  0  0  0  0  0  0  0  0  0
    7.7045  -12.8119   18.8488 C   0  0  0  0  0  0  0  0  0  0  0  0
    8.7251  -13.7412   19.3771 C   0  0  2  0  0  0  0  0  0  0  0  0
    9.9107  -12.8988   19.8562 C   0  0  0  0  0  0  0  0  0  0  0  0
    9.2426  -14.8021   18.4973 C   0  0  2  0  0  0  0  0  0  0  0  0
    8.2046  -15.4641   17.7652 N   0  0  0  0  0  0  0  0  0  0  0  0
   10.1974  -15.7339   19.1397 C   0  0  0  0  0  0  0  0  0  0  0  0
    9.8389  -16.6878   19.8625 O   0  0  0  0  0  0  0  0  0  0  0  0
   14.4914  -15.0445   19.0166 O   0  0  0  0  0  0  0  0  0  0  0  0
   13.9356  -16.2963   18.8916 C   0  0  0  0  0  0  0  0  0  0  0  0
   12.5835  -16.4121   19.5908 C   0  0  2  0  0  0  0  0  0  0  0  0
   11.5950  -15.5696   18.9507 N   0  0  0  0  0  0  0  0  0  0  0  0
   12.7674  -16.1273   21.0114 C   0  0  0  0  0  0  0  0  0  0  0  0
   12.8435  -14.9559   21.4376 O   0  0  0  0  0  0  0  0  0  0  0  0
   11.2278  -18.3818   23.4782 O   0  0  0  0  0  0  0  0  0  0  0  0
   11.7200  -17.1894   24.0447 C   0  0  0  0  0  0  0  0  0  0  0  0
   13.0641  -16.9424   23.3779 C   0  0  2  0  0  0  0  0  0  0  0  0
   12.8658  -17.1712   21.9573 N   0  0  0  0  0  0  0  0  0  0  0  0
   14.0250  -17.8898   23.9679 C   0  0  0  0  0  0  0  0  0  0  0  0
   14.6744  -18.8239   23.1957 O   0  0  0  0  0  0  0  0  0  0  0  0
   14.2552  -17.8452   25.1905 O   0  0  0  0  0  0  0  0  0  0  0  0
  2  3  1  0
  2  1  1  0
  3  5  1  0
  3  4  1  6
  5  6  1  1
  5  7  1  0
  7  8  2  0
 10  9  1  0
 11 10  1  6
 12  7  1  0
 12 11  1  0
 13 18  1  0
 13 11  1  0
 14 13  2  0
 16 15  1  0
 17 19  1  0
 17 16  1  1
 17 18  1  0
 19 20  1  0
 21 19  2  0
M  END
$$$$
