RCK.pdb
     RDKit          3D

 27 26  0  0  1  0  0  0  0  0999 V2000
    9.8905  -13.7533   18.1227 N   0  0  0  0  0  0  0  0  0  0  0  0
    8.9680  -12.7847   18.6148 C   0  0  0  0  0  0  0  0  0  0  0  0
    9.3122  -11.5404   18.7749 N   0  0  0  0  0  0  0  0  0  0  0  0
    7.6358  -13.1398   18.9502 N   0  0  0  0  0  0  0  0  0  0  0  0
    7.1565  -14.4780   18.8606 C   0  0  0  0  0  0  0  0  0  0  0  0
    6.9833  -15.1878   20.1583 C   0  0  0  0  0  0  0  0  0  0  0  0
    8.1984  -15.8731   20.6657 C   0  0  0  0  0  0  0  0  0  0  0  0
    8.0287  -16.6280   21.9526 C   0  0  2  0  0  0  0  0  0  0  0  0
    6.5747  -16.8050   22.1160 N   0  0  0  0  0  0  0  0  0  0  0  0
    8.5166  -15.9189   23.1426 C   0  0  0  0  0  0  0  0  0  0  0  0
    9.7557  -15.6733   23.3052 O   0  0  0  0  0  0  0  0  0  0  0  0
    8.6065  -10.8962   19.1803 N   0  0  0  0  0  0  0  0  0  0  0  0
    7.6410  -15.4739   24.1649 C   0  0  1  0  0  0  0  0  0  0  0  0
    8.1584  -14.7247   25.2802 C   0  0  0  0  0  0  0  0  0  0  0  0
    7.0878  -13.7193   25.7091 S   0  0  0  0  0  0  0  0  0  0  0  0
    7.6165  -12.8482   27.2015 C   0  0  0  0  0  0  0  0  0  0  0  0
    8.5000  -15.6278   26.4206 O   0  0  0  0  0  0  0  0  0  0  0  0
    7.6448  -16.4226   26.8863 N   0  0  0  0  0  0  0  0  0  0  0  0
    9.7897  -15.6276   27.0196 C   0  0  1  0  0  0  0  0  0  0  0  0
   10.0809  -16.5640   28.1118 C   0  0  0  0  0  0  0  0  0  0  0  0
   11.1664  -17.4648   27.6094 C   0  0  0  0  0  0  0  0  0  0  0  0
   11.6453  -18.4834   28.5969 C   0  0  0  0  0  0  0  0  0  0  0  0
   12.7115  -19.3911   28.0462 C   0  0  0  0  0  0  0  0  0  0  0  0
   13.0097  -20.4621   29.0733 N   0  0  0  0  0  0  0  0  0  0  0  0
   14.0155  -21.3718   28.5403 C   0  0  0  0  0  0  0  0  0  0  0  0
   10.4811  -15.8065   29.3246 O   0  0  0  0  0  0  0  0  0  0  0  0
   10.5355  -16.3891   30.5669 O   0  0  0  0  0  0  0  0  0  0  0  0
  1  2  1  0
  2  3  2  0
  4  2  1  0
  4  5  1  0
  6  5  1  0
  7  6  1  0
  8 10  1  0
  8  7  1  0
  8  9  1  1
 10 11  2  0
 12 10  1  0
 13 12  1  0
 13 16  1  0
 14 15  1  0
 13 14  1  1
 16 17  2  0
 16 18  1  0
 18 19  1  0
 19 25  1  0
 19 20  1  1
 21 20  1  0
 22 21  1  0
 23 22  1  0
 24 23  1  0
 25 27  2  0
 25 26  1  0
M  END
$$$$
