RCK.pdb
     RDKit          3D

 27 26  0  0  1  0  0  0  0  0999 V2000
   10.8558  -13.2375   20.0923 N   0  0  0  0  0  0  0  0  0  0  0  0
    9.8721  -12.7887   19.1638 C   0  0  0  0  0  0  0  0  0  0  0  0
    9.3472  -11.6016   19.2527 N   0  0  0  0  0  0  0  0  0  0  0  0
    9.4256  -13.6200   18.1042 N   0  0  0  0  0  0  0  0  0  0  0  0
    8.7099  -14.8301   18.3323 C   0  0  0  0  0  0  0  0  0  0  0  0
    7.8465  -14.8482   19.5457 C   0  0  0  0  0  0  0  0  0  0  0  0
    7.6975  -16.1771   20.1900 C   0  0  0  0  0  0  0  0  0  0  0  0
    6.8646  -16.2035   21.4391 C   0  0  2  0  0  0  0  0  0  0  0  0
    5.7829  -15.2288   21.2113 N   0  0  0  0  0  0  0  0  0  0  0  0
    7.5766  -15.7865   22.6539 C   0  0  0  0  0  0  0  0  0  0  0  0
    8.1442  -14.6489   22.7310 O   0  0  0  0  0  0  0  0  0  0  0  0
    8.6632  -11.3241   18.5230 N   0  0  0  0  0  0  0  0  0  0  0  0
    7.6689  -16.6214   23.7959 C   0  0  1  0  0  0  0  0  0  0  0  0
    8.4808  -16.2220   24.9159 C   0  0  0  0  0  0  0  0  0  0  0  0
    7.9580  -14.8753   25.4199 S   0  0  0  0  0  0  0  0  0  0  0  0
    6.1715  -14.9602   25.6781 C   0  0  0  0  0  0  0  0  0  0  0  0
    8.4213  -17.2375   26.0105 O   0  0  0  0  0  0  0  0  0  0  0  0
    7.5717  -18.1633   25.9793 N   0  0  0  0  0  0  0  0  0  0  0  0
    9.3112  -17.2011   27.1191 C   0  0  1  0  0  0  0  0  0  0  0  0
   10.1280  -18.3802   27.4308 C   0  0  0  0  0  0  0  0  0  0  0  0
   10.9449  -18.6562   26.2066 C   0  0  0  0  0  0  0  0  0  0  0  0
   11.9335  -19.7717   26.3487 C   0  0  0  0  0  0  0  0  0  0  0  0
   12.7717  -19.9848   25.1176 C   0  0  0  0  0  0  0  0  0  0  0  0
   13.7741  -21.0828   25.4016 N   0  0  0  0  0  0  0  0  0  0  0  0
   14.5677  -21.3299   24.2047 C   0  0  0  0  0  0  0  0  0  0  0  0
   10.9639  -18.1056   28.6269 O   0  0  0  0  0  0  0  0  0  0  0  0
   11.4618  -19.1110   29.4186 O   0  0  0  0  0  0  0  0  0  0  0  0
  1  2  1  0
  2  3  2  0
  4  2  1  0
  4  5  1  0
  6  5  1  0
  7  6  1  0
  8 10  1  0
  8  7  1  0
  8  9  1  6
 10 11  2  0
 12 10  1  0
 13 12  1  0
 13 16  1  0
 14 15  1  0
 13 14  1  1
 16 17  2  0
 16 18  1  0
 18 19  1  0
 19 25  1  0
 19 20  1  1
 21 20  1  0
 22 21  1  0
 23 22  1  0
 24 23  1  0
 25 27  2  0
 25 26  1  0
M  END
$$$$
