RCK.pdb
     RDKit          3D

 27 26  0  0  1  0  0  0  0  0999 V2000
    8.8617  -15.3646   17.4267 N   0  0  0  0  0  0  0  0  0  0  0  0
    8.8093  -14.2409   18.3018 C   0  0  0  0  0  0  0  0  0  0  0  0
    9.8939  -13.6769   18.7470 N   0  0  0  0  0  0  0  0  0  0  0  0
    7.5705  -13.6920   18.7228 N   0  0  0  0  0  0  0  0  0  0  0  0
    6.9145  -14.1127   19.9149 C   0  0  0  0  0  0  0  0  0  0  0  0
    6.3592  -15.4944   19.8908 C   0  0  0  0  0  0  0  0  0  0  0  0
    6.9753  -16.4352   20.8596 C   0  0  0  0  0  0  0  0  0  0  0  0
    6.6440  -16.1903   22.3035 C   0  0  2  0  0  0  0  0  0  0  0  0
    5.5341  -15.2207   22.2934 N   0  0  0  0  0  0  0  0  0  0  0  0
    7.7349  -15.5938   23.0851 C   0  0  0  0  0  0  0  0  0  0  0  0
    7.7049  -14.3700   23.4368 O   0  0  0  0  0  0  0  0  0  0  0  0
   10.8018  -14.0852   18.4530 N   0  0  0  0  0  0  0  0  0  0  0  0
    8.8698  -16.3427   23.4863 C   0  0  1  0  0  0  0  0  0  0  0  0
    9.9170  -15.7113   24.2463 C   0  0  0  0  0  0  0  0  0  0  0  0
    9.3836  -15.4507   25.6565 S   0  0  0  0  0  0  0  0  0  0  0  0
    8.5922  -16.9399   26.3059 C   0  0  0  0  0  0  0  0  0  0  0  0
   11.1316  -16.5793   24.3097 O   0  0  0  0  0  0  0  0  0  0  0  0
   11.0282  -17.8084   24.5520 N   0  0  0  0  0  0  0  0  0  0  0  0
   12.4388  -16.0598   24.1009 C   0  0  1  0  0  0  0  0  0  0  0  0
   13.2358  -16.5397   22.9656 C   0  0  0  0  0  0  0  0  0  0  0  0
   13.9126  -15.3331   22.3925 C   0  0  0  0  0  0  0  0  0  0  0  0
   13.7651  -15.1738   20.9111 C   0  0  0  0  0  0  0  0  0  0  0  0
   14.5759  -14.0367   20.3510 C   0  0  0  0  0  0  0  0  0  0  0  0
   14.4557  -14.0570   18.8423 N   0  0  0  0  0  0  0  0  0  0  0  0
   15.1296  -12.8884   18.2912 C   0  0  0  0  0  0  0  0  0  0  0  0
   14.1991  -17.5689   23.4322 O   0  0  0  0  0  0  0  0  0  0  0  0
   14.8310  -18.4266   22.5658 O   0  0  0  0  0  0  0  0  0  0  0  0
  1  2  1  0
  2  3  2  0
  4  2  1  0
  4  5  1  0
  6  5  1  0
  7  6  1  0
  8 10  1  0
  8  7  1  0
  8  9  1  6
 10 11  2  0
 12 10  1  0
 13 12  1  0
 13 16  1  0
 14 15  1  0
 13 14  1  6
 16 17  2  0
 16 18  1  0
 18 19  1  0
 19 25  1  0
 19 20  1  1
 21 20  1  0
 22 21  1  0
 23 22  1  0
 24 23  1  0
 25 27  2  0
 25 26  1  0
M  END
$$$$
