RCK.pdb
     RDKit          3D

 27 26  0  0  1  0  0  0  0  0999 V2000
    8.1362  -13.6631   16.3893 N   0  0  0  0  0  0  0  0  0  0  0  0
    8.2265  -14.9888   15.8737 C   0  0  0  0  0  0  0  0  0  0  0  0
    8.2378  -15.2191   14.5933 N   0  0  0  0  0  0  0  0  0  0  0  0
    8.3075  -16.1114   16.7377 N   0  0  0  0  0  0  0  0  0  0  0  0
    7.8375  -16.0763   18.0817 C   0  0  0  0  0  0  0  0  0  0  0  0
    7.8280  -14.7334   18.7254 C   0  0  0  0  0  0  0  0  0  0  0  0
    7.4123  -14.7234   20.1503 C   0  0  0  0  0  0  0  0  0  0  0  0
    7.4536  -13.3849   20.8296 C   0  0  2  0  0  0  0  0  0  0  0  0
    8.3736  -12.5628   20.0234 N   0  0  0  0  0  0  0  0  0  0  0  0
    7.9835  -13.4139   22.1990 C   0  0  0  0  0  0  0  0  0  0  0  0
    9.2113  -13.6628   22.4286 O   0  0  0  0  0  0  0  0  0  0  0  0
    8.3138  -16.2072   14.2847 N   0  0  0  0  0  0  0  0  0  0  0  0
    7.1628  -13.1683   23.3286 C   0  0  2  0  0  0  0  0  0  0  0  0
    7.7203  -13.2453   24.6538 C   0  0  0  0  0  0  0  0  0  0  0  0
    6.8158  -12.4440   25.5923 S   0  0  0  0  0  0  0  0  0  0  0  0
    7.4493  -12.5236   27.2828 C   0  0  0  0  0  0  0  0  0  0  0  0
    7.8109  -14.6635   25.1158 O   0  0  0  0  0  0  0  0  0  0  0  0
    6.9932  -15.5245   24.7036 N   0  0  0  0  0  0  0  0  0  0  0  0
    8.8125  -15.0944   26.0287 C   0  0  1  0  0  0  0  0  0  0  0  0
    9.2089  -16.5074   26.0545 C   0  0  0  0  0  0  0  0  0  0  0  0
    9.8670  -16.7793   24.7372 C   0  0  0  0  0  0  0  0  0  0  0  0
   10.4060  -18.1672   24.5782 C   0  0  0  0  0  0  0  0  0  0  0  0
   11.0962  -18.3904   23.2601 C   0  0  0  0  0  0  0  0  0  0  0  0
   11.5533  -19.8318   23.1939 N   0  0  0  0  0  0  0  0  0  0  0  0
   12.1034  -20.1009   21.8716 C   0  0  0  0  0  0  0  0  0  0  0  0
   10.1128  -16.7507   27.2071 O   0  0  0  0  0  0  0  0  0  0  0  0
   10.4810  -15.7504   28.0727 O   0  0  0  0  0  0  0  0  0  0  0  0
  1  2  1  0
  2  3  2  0
  4  2  1  0
  4  5  1  0
  6  5  1  0
  7  6  1  0
  8 10  1  0
  8  7  1  0
  8  9  1  6
 10 11  2  0
 12 10  1  0
 13 12  1  0
 13 16  1  0
 14 15  1  0
 13 14  1  1
 16 17  2  0
 16 18  1  0
 18 19  1  0
 19 25  1  0
 19 20  1  1
 21 20  1  0
 22 21  1  0
 23 22  1  0
 24 23  1  0
 25 27  2  0
 25 26  1  0
M  END
$$$$
