RCK.pdb
     RDKit          3D

 27 26  0  0  1  0  0  0  0  0999 V2000
    7.6879  -12.7705   18.1687 N   0  0  0  0  0  0  0  0  0  0  0  0
    8.2030  -13.9244   17.5096 C   0  0  0  0  0  0  0  0  0  0  0  0
    9.2312  -13.8496   16.7160 N   0  0  0  0  0  0  0  0  0  0  0  0
    7.6140  -15.2022   17.6930 N   0  0  0  0  0  0  0  0  0  0  0  0
    6.9579  -15.5745   18.9011 C   0  0  0  0  0  0  0  0  0  0  0  0
    7.8534  -15.9282   20.0372 C   0  0  0  0  0  0  0  0  0  0  0  0
    7.2779  -15.6962   21.3856 C   0  0  0  0  0  0  0  0  0  0  0  0
    7.2993  -14.2733   21.8650 C   0  0  2  0  0  0  0  0  0  0  0  0
    8.0079  -13.5161   20.8178 N   0  0  0  0  0  0  0  0  0  0  0  0
    8.0307  -14.0657   23.1215 C   0  0  0  0  0  0  0  0  0  0  0  0
    9.2869  -14.2620   23.1964 O   0  0  0  0  0  0  0  0  0  0  0  0
    9.5169  -14.7148   16.2189 N   0  0  0  0  0  0  0  0  0  0  0  0
    7.3822  -13.6393   24.3078 C   0  0  1  0  0  0  0  0  0  0  0  0
    8.1047  -13.6113   25.5529 C   0  0  0  0  0  0  0  0  0  0  0  0
    7.4529  -12.5585   26.4517 S   0  0  0  0  0  0  0  0  0  0  0  0
    5.6656  -12.8173   26.5156 C   0  0  0  0  0  0  0  0  0  0  0  0
    8.0727  -14.9472   26.2215 O   0  0  0  0  0  0  0  0  0  0  0  0
    7.1776  -15.7832   25.9392 N   0  0  0  0  0  0  0  0  0  0  0  0
    9.0407  -15.3256   27.1922 C   0  0  1  0  0  0  0  0  0  0  0  0
    9.3852  -16.7428   27.3569 C   0  0  0  0  0  0  0  0  0  0  0  0
   10.0114  -17.1717   26.0661 C   0  0  0  0  0  0  0  0  0  0  0  0
   10.5310  -18.5760   26.0554 C   0  0  0  0  0  0  0  0  0  0  0  0
   11.2292  -18.9427   24.7741 C   0  0  0  0  0  0  0  0  0  0  0  0
   11.6997  -20.3777   24.8757 N   0  0  0  0  0  0  0  0  0  0  0  0
   12.4521  -20.7224   23.6763 C   0  0  0  0  0  0  0  0  0  0  0  0
   10.2983  -16.9024   28.5170 O   0  0  0  0  0  0  0  0  0  0  0  0
   10.7263  -15.8330   29.2644 O   0  0  0  0  0  0  0  0  0  0  0  0
  1  2  1  0
  2  3  2  0
  4  2  1  0
  4  5  1  0
  6  5  1  0
  7  6  1  0
  8 10  1  0
  8  7  1  0
  8  9  1  6
 10 11  2  0
 12 10  1  0
 13 12  1  0
 13 16  1  0
 14 15  1  0
 13 14  1  6
 16 17  2  0
 16 18  1  0
 18 19  1  0
 19 25  1  0
 19 20  1  1
 21 20  1  0
 22 21  1  0
 23 22  1  0
 24 23  1  0
 25 27  2  0
 25 26  1  0
M  END
$$$$
