RCK.pdb
     RDKit          3D

 27 26  0  0  1  0  0  0  0  0999 V2000
    8.0930  -12.4255   17.2755 N   0  0  0  0  0  0  0  0  0  0  0  0
    8.1081  -13.3135   16.1609 C   0  0  0  0  0  0  0  0  0  0  0  0
    7.5580  -12.9886   15.0275 N   0  0  0  0  0  0  0  0  0  0  0  0
    8.7243  -14.5890   16.2432 N   0  0  0  0  0  0  0  0  0  0  0  0
    9.4089  -15.0325   17.4108 C   0  0  0  0  0  0  0  0  0  0  0  0
    8.5621  -15.6964   18.4402 C   0  0  0  0  0  0  0  0  0  0  0  0
    8.6607  -15.1166   19.8031 C   0  0  0  0  0  0  0  0  0  0  0  0
    7.9792  -15.8953   20.8911 C   0  0  2  0  0  0  0  0  0  0  0  0
    6.5675  -15.4736   20.8517 N   0  0  0  0  0  0  0  0  0  0  0  0
    8.4786  -15.6156   22.2436 C   0  0  0  0  0  0  0  0  0  0  0  0
    8.7785  -14.4322   22.6069 O   0  0  0  0  0  0  0  0  0  0  0  0
    7.7219  -13.6168   14.2176 N   0  0  0  0  0  0  0  0  0  0  0  0
    8.6517  -16.6397   23.2085 C   0  0  1  0  0  0  0  0  0  0  0  0
    9.1382  -16.3145   24.5240 C   0  0  0  0  0  0  0  0  0  0  0  0
    8.0470  -15.5222   25.2469 S   0  0  0  0  0  0  0  0  0  0  0  0
    6.5227  -16.4900   25.3206 C   0  0  0  0  0  0  0  0  0  0  0  0
    9.4694  -17.5515   25.2941 O   0  0  0  0  0  0  0  0  0  0  0  0
    8.6198  -18.4679   25.4297 N   0  0  0  0  0  0  0  0  0  0  0  0
   10.7424  -17.7429   25.8981 C   0  0  1  0  0  0  0  0  0  0  0  0
   11.0805  -19.0490   26.4762 C   0  0  0  0  0  0  0  0  0  0  0  0
   12.5128  -19.3033   26.1212 C   0  0  0  0  0  0  0  0  0  0  0  0
   12.7733  -19.4980   24.6597 C   0  0  0  0  0  0  0  0  0  0  0  0
   14.2272  -19.7129   24.3375 C   0  0  0  0  0  0  0  0  0  0  0  0
   14.3618  -19.9398   22.8471 N   0  0  0  0  0  0  0  0  0  0  0  0
   15.7687  -20.1217   22.5142 C   0  0  0  0  0  0  0  0  0  0  0  0
   10.8507  -19.0196   27.9430 O   0  0  0  0  0  0  0  0  0  0  0  0
   10.4083  -17.8936   28.5924 O   0  0  0  0  0  0  0  0  0  0  0  0
  1  2  1  0
  2  3  2  0
  4  2  1  0
  4  5  1  0
  6  5  1  0
  7  6  1  0
  8 10  1  0
  8  7  1  0
  8  9  1  1
 10 11  2  0
 12 10  1  0
 13 12  1  0
 13 16  1  0
 14 15  1  0
 13 14  1  1
 16 17  2  0
 16 18  1  0
 18 19  1  0
 19 25  1  0
 19 20  1  1
 21 20  1  0
 22 21  1  0
 23 22  1  0
 24 23  1  0
 25 27  2  0
 25 26  1  0
M  END
$$$$
