RCK.pdb
     RDKit          3D

 27 26  0  0  1  0  0  0  0  0999 V2000
    9.2732  -16.7387   16.5343 N   0  0  0  0  0  0  0  0  0  0  0  0
    8.4158  -15.7768   15.9253 C   0  0  0  0  0  0  0  0  0  0  0  0
    7.8745  -15.9913   14.7619 N   0  0  0  0  0  0  0  0  0  0  0  0
    8.1184  -14.5455   16.5645 N   0  0  0  0  0  0  0  0  0  0  0  0
    8.3348  -14.3358   17.9565 C   0  0  0  0  0  0  0  0  0  0  0  0
    7.3604  -14.9993   18.8665 C   0  0  0  0  0  0  0  0  0  0  0  0
    7.7151  -14.9528   20.3071 C   0  0  0  0  0  0  0  0  0  0  0  0
    7.2719  -13.7230   21.0458 C   0  0  2  0  0  0  0  0  0  0  0  0
    7.6415  -12.5892   20.1796 N   0  0  0  0  0  0  0  0  0  0  0  0
    7.9374  -13.5170   22.3386 C   0  0  0  0  0  0  0  0  0  0  0  0
    9.0823  -12.9640   22.4131 O   0  0  0  0  0  0  0  0  0  0  0  0
    7.2437  -15.2585   14.3843 N   0  0  0  0  0  0  0  0  0  0  0  0
    7.3453  -13.9196   23.5622 C   0  0  2  0  0  0  0  0  0  0  0  0
    8.1358  -13.9620   24.7648 C   0  0  0  0  0  0  0  0  0  0  0  0
    7.3572  -13.2389   25.8657 S   0  0  0  0  0  0  0  0  0  0  0  0
    5.5809  -13.3841   25.5676 C   0  0  0  0  0  0  0  0  0  0  0  0
    8.4134  -15.3719   25.1746 O   0  0  0  0  0  0  0  0  0  0  0  0
    7.5487  -16.2689   25.0084 N   0  0  0  0  0  0  0  0  0  0  0  0
    9.6508  -15.7547   25.7614 C   0  0  1  0  0  0  0  0  0  0  0  0
    9.8467  -17.1424   26.1977 C   0  0  0  0  0  0  0  0  0  0  0  0
   10.9966  -17.6718   25.3979 C   0  0  0  0  0  0  0  0  0  0  0  0
   11.4715  -19.0324   25.8043 C   0  0  0  0  0  0  0  0  0  0  0  0
   12.6544  -19.5126   25.0079 C   0  0  0  0  0  0  0  0  0  0  0  0
   13.0479  -20.8851   25.5101 N   0  0  0  0  0  0  0  0  0  0  0  0
   14.2036  -21.3581   24.7591 C   0  0  0  0  0  0  0  0  0  0  0  0
   10.1038  -17.1738   27.6599 O   0  0  0  0  0  0  0  0  0  0  0  0
   10.0731  -18.3403   28.3837 O   0  0  0  0  0  0  0  0  0  0  0  0
  1  2  1  0
  2  3  2  0
  4  2  1  0
  4  5  1  0
  6  5  1  0
  7  6  1  0
  8 10  1  0
  8  7  1  0
  8  9  1  6
 10 11  2  0
 12 10  1  0
 13 12  1  0
 13 16  1  0
 14 15  1  0
 13 14  1  6
 16 17  2  0
 16 18  1  0
 18 19  1  0
 19 25  1  0
 19 20  1  1
 21 20  1  0
 22 21  1  0
 23 22  1  0
 24 23  1  0
 25 27  2  0
 25 26  1  0
M  END
$$$$
