RCK.pdb
     RDKit          3D

 27 26  0  0  1  0  0  0  0  0999 V2000
    8.3961  -12.1422   20.2327 N   0  0  0  0  0  0  0  0  0  0  0  0
    9.0420  -12.8280   19.1632 C   0  0  0  0  0  0  0  0  0  0  0  0
   10.1046  -12.3430   18.5903 N   0  0  0  0  0  0  0  0  0  0  0  0
    8.5510  -14.0685   18.6803 N   0  0  0  0  0  0  0  0  0  0  0  0
    7.1797  -14.4393   18.7830 C   0  0  0  0  0  0  0  0  0  0  0  0
    6.9196  -15.7945   19.3431 C   0  0  0  0  0  0  0  0  0  0  0  0
    7.9589  -16.2981   20.2757 C   0  0  0  0  0  0  0  0  0  0  0  0
    7.5203  -16.4795   21.7003 C   0  0  2  0  0  0  0  0  0  0  0  0
    6.1241  -16.0097   21.7449 N   0  0  0  0  0  0  0  0  0  0  0  0
    8.2776  -15.6847   22.6758 C   0  0  0  0  0  0  0  0  0  0  0  0
    9.5512  -15.6843   22.6834 O   0  0  0  0  0  0  0  0  0  0  0  0
   10.4122  -12.7815   17.7012 N   0  0  0  0  0  0  0  0  0  0  0  0
    7.6360  -14.8823   23.6526 C   0  0  1  0  0  0  0  0  0  0  0  0
    8.3431  -14.4986   24.8467 C   0  0  0  0  0  0  0  0  0  0  0  0
    7.6047  -13.3127   25.4706 S   0  0  0  0  0  0  0  0  0  0  0  0
    5.9250  -13.7979   25.9273 C   0  0  0  0  0  0  0  0  0  0  0  0
    8.4078  -15.6315   25.8189 O   0  0  0  0  0  0  0  0  0  0  0  0
    7.4580  -16.4494   25.9130 N   0  0  0  0  0  0  0  0  0  0  0  0
    9.5314  -15.8308   26.6675 C   0  0  1  0  0  0  0  0  0  0  0  0
    9.7166  -17.1269   27.3311 C   0  0  0  0  0  0  0  0  0  0  0  0
    9.9783  -18.1193   26.2407 C   0  0  0  0  0  0  0  0  0  0  0  0
   10.4004  -19.4759   26.7133 C   0  0  0  0  0  0  0  0  0  0  0  0
   10.6838  -20.4360   25.5900 C   0  0  0  0  0  0  0  0  0  0  0  0
   11.1876  -21.7347   26.1822 N   0  0  0  0  0  0  0  0  0  0  0  0
   11.5535  -22.6441   25.1040 C   0  0  0  0  0  0  0  0  0  0  0  0
   10.8363  -17.0345   28.3020 O   0  0  0  0  0  0  0  0  0  0  0  0
   11.0449  -17.9842   29.2716 O   0  0  0  0  0  0  0  0  0  0  0  0
  1  2  1  0
  2  3  2  0
  4  2  1  0
  4  5  1  0
  6  5  1  0
  7  6  1  0
  8 10  1  0
  8  7  1  0
  8  9  1  6
 10 11  2  0
 12 10  1  0
 13 12  1  0
 13 16  1  0
 14 15  1  0
 13 14  1  1
 16 17  2  0
 16 18  1  0
 18 19  1  0
 19 25  1  0
 19 20  1  1
 21 20  1  0
 22 21  1  0
 23 22  1  0
 24 23  1  0
 25 27  2  0
 25 26  1  0
M  END
$$$$
