MCI.pdb
     RDKit          3D

 23 22  0  0  1  0  0  0  0  0999 V2000
   26.5854  -14.7686  -14.8769 C   0  0  0  0  0  0  0  0  0  0  0  0
   26.4186  -15.0540  -16.6661 S   0  0  0  0  0  0  0  0  0  0  0  0
   24.8040  -15.8152  -16.9987 C   0  0  0  0  0  0  0  0  0  0  0  0
   24.7140  -17.1505  -16.3319 C   0  0  0  0  0  0  0  0  0  0  0  0
   25.7040  -18.1683  -16.8381 C   0  0  2  0  0  0  0  0  0  0  0  0
   25.2026  -18.7982  -18.0460 N   0  0  0  0  0  0  0  0  0  0  0  0
   25.9869  -19.1410  -15.7763 C   0  0  0  0  0  0  0  0  0  0  0  0
   25.1228  -19.9519  -15.4045 O   0  0  0  0  0  0  0  0  0  0  0  0
   27.2590  -19.2172  -15.1096 N   0  0  0  0  0  0  0  0  0  0  0  0
   27.4636  -20.0354  -13.9309 C   0  0  1  0  0  0  0  0  0  0  0  0
   28.9218  -20.1270  -13.6239 C   0  0  0  0  0  0  0  0  0  0  0  0
   29.2628  -20.9493  -12.0555 S   0  0  0  0  0  0  0  0  0  0  0  0
   26.6448  -19.5719  -12.7886 C   0  0  0  0  0  0  0  0  0  0  0  0
   26.6102  -18.3836  -12.4004 O   0  0  0  0  0  0  0  0  0  0  0  0
   21.3045  -20.2414  -10.2353 C   0  0  0  0  0  0  0  0  0  0  0  0
   22.7699  -20.0137   -9.9911 C   0  0  0  0  0  0  0  0  0  0  0  0
   23.6357  -20.3346  -11.1580 C   0  0  2  0  0  0  0  0  0  0  0  0
   23.3312  -21.7716  -11.5641 C   0  0  0  0  0  0  0  0  0  0  0  0
   25.1109  -20.1542  -10.8772 C   0  0  2  0  0  0  0  0  0  0  0  0
   25.8509  -20.5157  -12.0859 N   0  0  0  0  0  0  0  0  0  0  0  0
   25.5757  -21.0417   -9.7821 C   0  0  0  0  0  0  0  0  0  0  0  0
   26.4536  -22.1001  -10.0033 O   0  0  0  0  0  0  0  0  0  0  0  0
   25.1943  -20.8722   -8.6103 O   0  0  0  0  0  0  0  0  0  0  0  0
  2  1  1  0
  3  2  1  0
  4  3  1  0
  5  4  1  0
  5  7  1  0
  5  6  1  6
  7  8  2  0
  9 10  1  0
  9  7  1  0
 11 12  1  0
 10 11  1  1
 13 10  1  0
 13 14  2  0
 16 15  1  0
 17 16  1  0
 17 18  1  1
 19 20  1  6
 19 17  1  0
 20 13  1  0
 21 19  1  0
 22 21  1  0
 23 21  2  0
M  END
$$$$
