MCI.pdb
     RDKit          3D

 23 22  0  0  1  0  0  0  0  0999 V2000
   28.9453  -11.9133  -15.6703 C   0  0  0  0  0  0  0  0  0  0  0  0
   28.7963  -13.3511  -16.7754 S   0  0  0  0  0  0  0  0  0  0  0  0
   27.1804  -14.1368  -16.5143 C   0  0  0  0  0  0  0  0  0  0  0  0
   26.4854  -13.5152  -15.3454 C   0  0  0  0  0  0  0  0  0  0  0  0
   25.1154  -14.0773  -15.0634 C   0  0  2  0  0  0  0  0  0  0  0  0
   24.9565  -15.3633  -15.7176 N   0  0  0  0  0  0  0  0  0  0  0  0
   24.0967  -13.1073  -15.4818 C   0  0  0  0  0  0  0  0  0  0  0  0
   23.6626  -13.0969  -16.6454 O   0  0  0  0  0  0  0  0  0  0  0  0
   23.5449  -12.1243  -14.5886 N   0  0  0  0  0  0  0  0  0  0  0  0
   22.4915  -11.2165  -14.9975 C   0  0  1  0  0  0  0  0  0  0  0  0
   21.3130  -11.3672  -14.0934 C   0  0  0  0  0  0  0  0  0  0  0  0
   20.8059  -13.0839  -13.8747 S   0  0  0  0  0  0  0  0  0  0  0  0
   22.9773   -9.8233  -15.1118 C   0  0  0  0  0  0  0  0  0  0  0  0
   23.9664   -9.3829  -14.4859 O   0  0  0  0  0  0  0  0  0  0  0  0
   24.5519   -5.9537  -19.1715 C   0  0  0  0  0  0  0  0  0  0  0  0
   23.8345   -6.0626  -17.8552 C   0  0  0  0  0  0  0  0  0  0  0  0
   23.4468   -7.4520  -17.4896 C   0  0  2  0  0  0  0  0  0  0  0  0
   22.5680   -7.9859  -18.6144 C   0  0  0  0  0  0  0  0  0  0  0  0
   22.7352   -7.5448  -16.1582 C   0  0  2  0  0  0  0  0  0  0  0  0
   22.2938   -8.9271  -15.9745 N   0  0  0  0  0  0  0  0  0  0  0  0
   21.5312   -6.6780  -16.1157 C   0  0  0  0  0  0  0  0  0  0  0  0
   20.2400   -7.1918  -16.2103 O   0  0  0  0  0  0  0  0  0  0  0  0
   21.6301   -5.4442  -15.9924 O   0  0  0  0  0  0  0  0  0  0  0  0
  2  1  1  0
  3  2  1  0
  4  3  1  0
  5  4  1  0
  5  7  1  0
  5  6  1  6
  7  8  2  0
  9 10  1  0
  9  7  1  0
 11 12  1  0
 10 11  1  1
 13 10  1  0
 13 14  2  0
 16 15  1  0
 17 16  1  0
 17 18  1  6
 19 20  1  6
 19 17  1  0
 20 13  1  0
 21 19  1  0
 22 21  1  0
 23 21  2  0
M  END
$$$$
