MCI.pdb
     RDKit          3D

 23 22  0  0  1  0  0  0  0  0999 V2000
   28.0214  -17.1385  -15.8888 C   0  0  0  0  0  0  0  0  0  0  0  0
   28.5154  -18.8097  -16.4121 S   0  0  0  0  0  0  0  0  0  0  0  0
   27.4489  -20.0290  -15.5920 C   0  0  0  0  0  0  0  0  0  0  0  0
   26.9116  -19.4701  -14.3134 C   0  0  0  0  0  0  0  0  0  0  0  0
   25.9447  -20.3758  -13.5945 C   0  0  2  0  0  0  0  0  0  0  0  0
   24.7359  -20.5440  -14.3806 N   0  0  0  0  0  0  0  0  0  0  0  0
   25.6720  -19.8330  -12.2586 C   0  0  0  0  0  0  0  0  0  0  0  0
   24.9922  -18.8039  -12.1125 O   0  0  0  0  0  0  0  0  0  0  0  0
   26.1647  -20.4457  -11.0543 N   0  0  0  0  0  0  0  0  0  0  0  0
   25.8781  -19.9038   -9.7410 C   0  0  1  0  0  0  0  0  0  0  0  0
   24.4021  -19.8616   -9.5208 C   0  0  0  0  0  0  0  0  0  0  0  0
   23.5828  -21.4157   -9.9282 S   0  0  0  0  0  0  0  0  0  0  0  0
   26.6167  -20.6184   -8.6761 C   0  0  0  0  0  0  0  0  0  0  0  0
   26.8751  -21.8413   -8.7157 O   0  0  0  0  0  0  0  0  0  0  0  0
   30.2809  -19.0597   -3.9222 C   0  0  0  0  0  0  0  0  0  0  0  0
   29.4091  -20.0715   -4.6118 C   0  0  0  0  0  0  0  0  0  0  0  0
   28.6857  -19.5394   -5.7983 C   0  0  2  0  0  0  0  0  0  0  0  0
   27.9347  -18.2924   -5.3472 C   0  0  0  0  0  0  0  0  0  0  0  0
   27.7411  -20.5418   -6.4233 C   0  0  2  0  0  0  0  0  0  0  0  0
   27.0620  -19.8895   -7.5425 N   0  0  0  0  0  0  0  0  0  0  0  0
   26.7006  -20.9901   -5.4645 C   0  0  0  0  0  0  0  0  0  0  0  0
   26.9024  -22.0564   -4.5914 O   0  0  0  0  0  0  0  0  0  0  0  0
   25.5947  -20.4238   -5.4031 O   0  0  0  0  0  0  0  0  0  0  0  0
  2  1  1  0
  3  2  1  0
  4  3  1  0
  5  4  1  0
  5  7  1  0
  5  6  1  6
  7  8  2  0
  9 10  1  0
  9  7  1  0
 11 12  1  0
 10 11  1  1
 13 10  1  0
 13 14  2  0
 16 15  1  0
 17 16  1  0
 17 18  1  1
 19 20  1  6
 19 17  1  0
 20 13  1  0
 21 19  1  0
 22 21  1  0
 23 21  2  0
M  END
$$$$
