MCI.pdb
     RDKit          3D

 23 22  0  0  1  0  0  0  0  0999 V2000
   15.9283  -15.2921  -15.4508 C   0  0  0  0  0  0  0  0  0  0  0  0
   16.6520  -14.0399  -14.3468 S   0  0  0  0  0  0  0  0  0  0  0  0
   16.9332  -12.5112  -15.2852 C   0  0  0  0  0  0  0  0  0  0  0  0
   17.5289  -11.4629  -14.4009 C   0  0  0  0  0  0  0  0  0  0  0  0
   17.8157  -10.1540  -15.0913 C   0  0  2  0  0  0  0  0  0  0  0  0
   18.9439  -10.2992  -15.9931 N   0  0  0  0  0  0  0  0  0  0  0  0
   18.0365   -9.1109  -14.0829 C   0  0  0  0  0  0  0  0  0  0  0  0
   19.1795   -8.6949  -13.8321 O   0  0  0  0  0  0  0  0  0  0  0  0
   16.9640   -8.5137  -13.3335 N   0  0  0  0  0  0  0  0  0  0  0  0
   17.1323   -7.2740  -12.6016 C   0  0  1  0  0  0  0  0  0  0  0  0
   17.7639   -6.2470  -13.4820 C   0  0  0  0  0  0  0  0  0  0  0  0
   17.9120   -4.6333  -12.6905 S   0  0  0  0  0  0  0  0  0  0  0  0
   15.8671   -6.8247  -11.9791 C   0  0  0  0  0  0  0  0  0  0  0  0
   14.8355   -6.5509  -12.6308 O   0  0  0  0  0  0  0  0  0  0  0  0
   12.3883   -8.0920   -7.3272 C   0  0  0  0  0  0  0  0  0  0  0  0
   12.9474   -6.9583   -8.1403 C   0  0  0  0  0  0  0  0  0  0  0  0
   14.1704   -7.3111   -8.9110 C   0  0  2  0  0  0  0  0  0  0  0  0
   15.2746   -7.5953   -7.8999 C   0  0  0  0  0  0  0  0  0  0  0  0
   14.5951   -6.2357   -9.8862 C   0  0  2  0  0  0  0  0  0  0  0  0
   15.8062   -6.6927  -10.5672 N   0  0  0  0  0  0  0  0  0  0  0  0
   14.9198   -4.9629   -9.1953 C   0  0  0  0  0  0  0  0  0  0  0  0
   16.2284   -4.5102   -9.0445 O   0  0  0  0  0  0  0  0  0  0  0  0
   14.0247   -4.2426   -8.7184 O   0  0  0  0  0  0  0  0  0  0  0  0
  2  1  1  0
  3  2  1  0
  4  3  1  0
  5  4  1  0
  5  7  1  0
  5  6  1  1
  7  8  2  0
  9 10  1  0
  9  7  1  0
 11 12  1  0
 10 11  1  6
 13 10  1  0
 13 14  2  0
 16 15  1  0
 17 16  1  0
 17 18  1  1
 19 20  1  1
 19 17  1  0
 20 13  1  0
 21 19  1  0
 22 21  1  0
 23 21  2  0
M  END
$$$$
