MCI.pdb
     RDKit          3D

 23 22  0  0  1  0  0  0  0  0999 V2000
   13.7365  -14.1340  -10.9344 C   0  0  0  0  0  0  0  0  0  0  0  0
   13.2808  -12.4541  -11.4647 S   0  0  0  0  0  0  0  0  0  0  0  0
   14.7626  -11.6011  -12.0756 C   0  0  0  0  0  0  0  0  0  0  0  0
   15.3180  -10.7047  -11.0155 C   0  0  0  0  0  0  0  0  0  0  0  0
   16.6250  -10.0466  -11.3771 C   0  0  2  0  0  0  0  0  0  0  0  0
   17.6821  -11.0386  -11.4524 N   0  0  0  0  0  0  0  0  0  0  0  0
   16.9207   -8.9870  -10.4057 C   0  0  0  0  0  0  0  0  0  0  0  0
   17.8044   -9.1355   -9.5459 O   0  0  0  0  0  0  0  0  0  0  0  0
   16.2196   -7.7313  -10.3866 N   0  0  0  0  0  0  0  0  0  0  0  0
   16.6391   -6.6273   -9.5464 C   0  0  1  0  0  0  0  0  0  0  0  0
   18.0649   -6.2872   -9.8302 C   0  0  0  0  0  0  0  0  0  0  0  0
   18.3798   -5.9656  -11.5766 S   0  0  0  0  0  0  0  0  0  0  0  0
   15.7208   -5.4718   -9.6545 C   0  0  0  0  0  0  0  0  0  0  0  0
   15.2956   -5.0266  -10.7431 O   0  0  0  0  0  0  0  0  0  0  0  0
   12.0278   -4.8284   -5.6436 C   0  0  0  0  0  0  0  0  0  0  0  0
   12.7489   -4.8353   -6.9624 C   0  0  0  0  0  0  0  0  0  0  0  0
   13.6260   -3.6529   -7.1795 C   0  0  2  0  0  0  0  0  0  0  0  0
   12.7439   -2.4136   -7.0865 C   0  0  0  0  0  0  0  0  0  0  0  0
   14.3668   -3.6904   -8.4976 C   0  0  2  0  0  0  0  0  0  0  0  0
   15.2909   -4.8237   -8.4672 N   0  0  0  0  0  0  0  0  0  0  0  0
   15.1692   -2.4606   -8.7135 C   0  0  0  0  0  0  0  0  0  0  0  0
   16.5141   -2.3774   -8.3611 O   0  0  0  0  0  0  0  0  0  0  0  0
   14.6651   -1.4442   -9.2238 O   0  0  0  0  0  0  0  0  0  0  0  0
  2  1  1  0
  3  2  1  0
  4  3  1  0
  5  4  1  0
  5  7  1  0
  5  6  1  1
  7  8  2  0
  9 10  1  0
  9  7  1  0
 11 12  1  0
 10 11  1  6
 13 10  1  0
 13 14  2  0
 16 15  1  0
 17 16  1  0
 17 18  1  6
 19 20  1  1
 19 17  1  0
 20 13  1  0
 21 19  1  0
 22 21  1  0
 23 21  2  0
M  END
$$$$
