QGG.pdb
     RDKit          3D

 18 17  0  0  1  0  0  0  0  0999 V2000
   23.6580  -21.4478   -8.2254 N   0  0  0  0  0  0  0  0  0  0  0  0
   24.6236  -20.5705   -8.7598 C   0  0  0  0  0  0  0  0  0  0  0  0
   24.2606  -19.4041   -9.0491 O   0  0  0  0  0  0  0  0  0  0  0  0
   26.0019  -20.9997   -8.9710 C   0  0  0  0  0  0  0  0  0  0  0  0
   26.7181  -20.3900  -10.1189 C   0  0  0  0  0  0  0  0  0  0  0  0
   26.1328  -20.6580  -11.4627 C   0  0  2  0  0  0  0  0  0  0  0  0
   26.1658  -22.0770  -11.7124 N   0  0  0  0  0  0  0  0  0  0  0  0
   26.8740  -19.9117  -12.5444 C   0  0  0  0  0  0  0  0  0  0  0  0
   26.8742  -18.6614  -12.5689 O   0  0  0  0  0  0  0  0  0  0  0  0
   27.5841  -20.6090  -13.5533 N   0  0  0  0  0  0  0  0  0  0  0  0
   28.2830  -19.9470  -14.5922 C   0  0  0  0  0  0  0  0  0  0  0  0
   27.5045  -19.4747  -15.7308 C   0  0  0  0  0  0  0  0  0  0  0  0
   27.5909  -20.1430  -16.8032 O   0  0  0  0  0  0  0  0  0  0  0  0
   26.6533  -18.3419  -15.7694 N   0  0  0  0  0  0  0  0  0  0  0  0
   25.5712  -18.2525  -16.7546 C   0  0  0  0  0  0  0  0  0  0  0  0
   26.1078  -17.7186  -18.0250 C   0  0  0  0  0  0  0  0  0  0  0  0
   26.6361  -16.5829  -18.0612 O   0  0  0  0  0  0  0  0  0  0  0  0
   26.0241  -18.4844  -19.1862 O   0  0  0  0  0  0  0  0  0  0  0  0
  2  1  1  0
  3  2  2  0
  4  2  1  0
  5  4  1  0
  6  5  1  0
  6  7  1  6
  8 10  1  0
  8  6  1  0
  9  8  2  0
 11 12  1  0
 11 10  1  0
 12 14  1  0
 13 12  2  0
 14 15  1  0
 15 16  1  0
 16 17  2  0
 16 18  1  0
M  END
$$$$
