QGG.pdb
     RDKit          3D

 18 17  0  0  1  0  0  0  0  0999 V2000
   17.3585  -15.4907  -16.3544 N   0  0  0  0  0  0  0  0  0  0  0  0
   17.8014  -14.4932  -15.4619 C   0  0  0  0  0  0  0  0  0  0  0  0
   17.5463  -14.6422  -14.2418 O   0  0  0  0  0  0  0  0  0  0  0  0
   18.5335  -13.3238  -15.9363 C   0  0  0  0  0  0  0  0  0  0  0  0
   18.0309  -12.0006  -15.4904 C   0  0  0  0  0  0  0  0  0  0  0  0
   18.1003  -10.9082  -16.5013 C   0  0  2  0  0  0  0  0  0  0  0  0
   19.4625  -10.7746  -16.9525 N   0  0  0  0  0  0  0  0  0  0  0  0
   17.5986   -9.6025  -15.9357 C   0  0  0  0  0  0  0  0  0  0  0  0
   16.4699   -9.5325  -15.4017 O   0  0  0  0  0  0  0  0  0  0  0  0
   18.3928   -8.4304  -15.9969 N   0  0  0  0  0  0  0  0  0  0  0  0
   18.0011   -7.2097  -15.3948 C   0  0  0  0  0  0  0  0  0  0  0  0
   18.9356   -6.5901  -14.4629 C   0  0  0  0  0  0  0  0  0  0  0  0
   18.5867   -5.4872  -13.9470 O   0  0  0  0  0  0  0  0  0  0  0  0
   20.2009   -7.0911  -14.0662 N   0  0  0  0  0  0  0  0  0  0  0  0
   21.0678   -6.3132  -13.1758 C   0  0  0  0  0  0  0  0  0  0  0  0
   21.9857   -5.4842  -13.9865 C   0  0  0  0  0  0  0  0  0  0  0  0
   21.8900   -5.4714  -15.2359 O   0  0  0  0  0  0  0  0  0  0  0  0
   22.9609   -4.7146  -13.3553 O   0  0  0  0  0  0  0  0  0  0  0  0
  2  1  1  0
  3  2  2  0
  4  2  1  0
  5  4  1  0
  6  5  1  0
  6  7  1  1
  8 10  1  0
  8  6  1  0
  9  8  2  0
 11 12  1  0
 11 10  1  0
 12 14  1  0
 13 12  2  0
 14 15  1  0
 15 16  1  0
 16 17  2  0
 16 18  1  0
M  END
$$$$
