QGG.pdb
     RDKit          3D

 18 17  0  0  1  0  0  0  0  0999 V2000
   18.1327  -15.7210  -15.8137 N   0  0  0  0  0  0  0  0  0  0  0  0
   17.6376  -15.2212  -17.0354 C   0  0  0  0  0  0  0  0  0  0  0  0
   17.3490  -16.0486  -17.9342 O   0  0  0  0  0  0  0  0  0  0  0  0
   17.4639  -13.7890  -17.2526 C   0  0  0  0  0  0  0  0  0  0  0  0
   17.8439  -12.8967  -16.1293 C   0  0  0  0  0  0  0  0  0  0  0  0
   17.7713  -11.4354  -16.4111 C   0  0  2  0  0  0  0  0  0  0  0  0
   18.4854  -11.1587  -17.6319 N   0  0  0  0  0  0  0  0  0  0  0  0
   18.3378  -10.6264  -15.2704 C   0  0  0  0  0  0  0  0  0  0  0  0
   18.0525  -10.9098  -14.0863 O   0  0  0  0  0  0  0  0  0  0  0  0
   19.2030   -9.5309  -15.5150 N   0  0  0  0  0  0  0  0  0  0  0  0
   19.9761   -8.9252  -14.4945 C   0  0  0  0  0  0  0  0  0  0  0  0
   20.9219   -7.8899  -14.8933 C   0  0  0  0  0  0  0  0  0  0  0  0
   21.4158   -7.9795  -16.0562 O   0  0  0  0  0  0  0  0  0  0  0  0
   21.3516   -6.7842  -14.1173 N   0  0  0  0  0  0  0  0  0  0  0  0
   22.2665   -5.7860  -14.6796 C   0  0  0  0  0  0  0  0  0  0  0  0
   22.6790   -4.8449  -13.6161 C   0  0  0  0  0  0  0  0  0  0  0  0
   22.2167   -4.9581  -12.4568 O   0  0  0  0  0  0  0  0  0  0  0  0
   23.5861   -3.8281  -13.9073 O   0  0  0  0  0  0  0  0  0  0  0  0
  2  1  1  0
  3  2  2  0
  4  2  1  0
  5  4  1  0
  6  5  1  0
  6  7  1  6
  8 10  1  0
  8  6  1  0
  9  8  2  0
 11 12  1  0
 11 10  1  0
 12 14  1  0
 13 12  2  0
 14 15  1  0
 15 16  1  0
 16 17  2  0
 16 18  1  0
M  END
$$$$
