QGG.pdb
     RDKit          3D

 18 17  0  0  1  0  0  0  0  0999 V2000
   29.8134  -19.9724  -11.1703 N   0  0  0  0  0  0  0  0  0  0  0  0
   29.6500  -21.3232  -11.5394 C   0  0  0  0  0  0  0  0  0  0  0  0
   30.6342  -22.0911  -11.4066 O   0  0  0  0  0  0  0  0  0  0  0  0
   28.3796  -21.8177  -12.0590 C   0  0  0  0  0  0  0  0  0  0  0  0
   27.2770  -20.8301  -12.1658 C   0  0  0  0  0  0  0  0  0  0  0  0
   25.9839  -21.3580  -12.6846 C   0  0  2  0  0  0  0  0  0  0  0  0
   26.2247  -22.0454  -13.9282 N   0  0  0  0  0  0  0  0  0  0  0  0
   24.9756  -20.2521  -12.8765 C   0  0  0  0  0  0  0  0  0  0  0  0
   24.4189  -19.7207  -11.8909 O   0  0  0  0  0  0  0  0  0  0  0  0
   24.6382  -19.7926  -14.1741 N   0  0  0  0  0  0  0  0  0  0  0  0
   23.7013  -18.7542  -14.3973 C   0  0  0  0  0  0  0  0  0  0  0  0
   22.3753  -19.1356  -14.8682 C   0  0  0  0  0  0  0  0  0  0  0  0
   22.3205  -19.9892  -15.8023 O   0  0  0  0  0  0  0  0  0  0  0  0
   21.1307  -18.6537  -14.3906 N   0  0  0  0  0  0  0  0  0  0  0  0
   19.8767  -19.0485  -15.0397 C   0  0  0  0  0  0  0  0  0  0  0  0
   19.2710  -20.1723  -14.2933 C   0  0  0  0  0  0  0  0  0  0  0  0
   19.9678  -20.8626  -13.5135 O   0  0  0  0  0  0  0  0  0  0  0  0
   17.9184  -20.4628  -14.4600 O   0  0  0  0  0  0  0  0  0  0  0  0
  2  1  1  0
  3  2  2  0
  4  2  1  0
  5  4  1  0
  6  5  1  0
  6  7  1  6
  8 10  1  0
  8  6  1  0
  9  8  2  0
 11 12  1  0
 11 10  1  0
 12 14  1  0
 13 12  2  0
 14 15  1  0
 15 16  1  0
 16 17  2  0
 16 18  1  0
M  END
$$$$
