QGG.pdb
     RDKit          3D

 18 17  0  0  1  0  0  0  0  0999 V2000
   19.8794  -14.8995  -15.5517 N   0  0  0  0  0  0  0  0  0  0  0  0
   18.4872  -15.0632  -15.7011 C   0  0  0  0  0  0  0  0  0  0  0  0
   17.9905  -16.1741  -15.3929 O   0  0  0  0  0  0  0  0  0  0  0  0
   17.6463  -13.9790  -16.1972 C   0  0  0  0  0  0  0  0  0  0  0  0
   18.3298  -12.6996  -16.5107 C   0  0  0  0  0  0  0  0  0  0  0  0
   17.9979  -11.5535  -15.6183 C   0  0  2  0  0  0  0  0  0  0  0  0
   16.5681  -11.3744  -15.5995 N   0  0  0  0  0  0  0  0  0  0  0  0
   18.6850  -10.2882  -16.0694 C   0  0  0  0  0  0  0  0  0  0  0  0
   19.9331  -10.2234  -16.1144 O   0  0  0  0  0  0  0  0  0  0  0  0
   17.9335   -9.1488  -16.4508 N   0  0  0  0  0  0  0  0  0  0  0  0
   18.5362   -7.9064  -16.7660 C   0  0  0  0  0  0  0  0  0  0  0  0
   18.3339   -6.8055  -15.8320 C   0  0  0  0  0  0  0  0  0  0  0  0
   17.4736   -6.9773  -14.9184 O   0  0  0  0  0  0  0  0  0  0  0  0
   19.0007   -5.5546  -15.8327 N   0  0  0  0  0  0  0  0  0  0  0  0
   18.7207   -4.5570  -14.7953 C   0  0  0  0  0  0  0  0  0  0  0  0
   17.4387   -3.8838  -15.0959 C   0  0  0  0  0  0  0  0  0  0  0  0
   16.4430   -4.5523  -15.4594 O   0  0  0  0  0  0  0  0  0  0  0  0
   17.3402   -2.4993  -14.9734 O   0  0  0  0  0  0  0  0  0  0  0  0
  2  1  1  0
  3  2  2  0
  4  2  1  0
  5  4  1  0
  6  5  1  0
  6  7  1  6
  8 10  1  0
  8  6  1  0
  9  8  2  0
 11 12  1  0
 11 10  1  0
 12 14  1  0
 13 12  2  0
 14 15  1  0
 15 16  1  0
 16 17  2  0
 16 18  1  0
M  END
$$$$
