QGG.pdb
     RDKit          3D

 18 17  0  0  1  0  0  0  0  0999 V2000
   27.3322  -21.5416  -19.0148 N   0  0  0  0  0  0  0  0  0  0  0  0
   28.5518  -20.8345  -19.0055 C   0  0  0  0  0  0  0  0  0  0  0  0
   28.9530  -20.3422  -20.0883 O   0  0  0  0  0  0  0  0  0  0  0  0
   29.3261  -20.6769  -17.7791 C   0  0  0  0  0  0  0  0  0  0  0  0
   28.7690  -21.3081  -16.5570 C   0  0  0  0  0  0  0  0  0  0  0  0
   27.6692  -20.5594  -15.8862 C   0  0  2  0  0  0  0  0  0  0  0  0
   28.0357  -19.1683  -15.7995 N   0  0  0  0  0  0  0  0  0  0  0  0
   27.3799  -21.1181  -14.5149 C   0  0  0  0  0  0  0  0  0  0  0  0
   26.9859  -22.2971  -14.3784 O   0  0  0  0  0  0  0  0  0  0  0  0
   27.5478  -20.3216  -13.3548 N   0  0  0  0  0  0  0  0  0  0  0  0
   27.2595  -20.7980  -12.0525 C   0  0  0  0  0  0  0  0  0  0  0  0
   25.9008  -20.6161  -11.5562 C   0  0  0  0  0  0  0  0  0  0  0  0
   25.5481  -19.4347  -11.2660 O   0  0  0  0  0  0  0  0  0  0  0  0
   24.9225  -21.6236  -11.3630 N   0  0  0  0  0  0  0  0  0  0  0  0
   23.5894  -21.2845  -10.8557 C   0  0  0  0  0  0  0  0  0  0  0  0
   22.6061  -21.3853  -11.9556 C   0  0  0  0  0  0  0  0  0  0  0  0
   22.9110  -21.9610  -13.0261 O   0  0  0  0  0  0  0  0  0  0  0  0
   21.3349  -20.8366  -11.7981 O   0  0  0  0  0  0  0  0  0  0  0  0
  2  1  1  0
  3  2  2  0
  4  2  1  0
  5  4  1  0
  6  5  1  0
  6  7  1  1
  8 10  1  0
  8  6  1  0
  9  8  2  0
 11 12  1  0
 11 10  1  0
 12 14  1  0
 13 12  2  0
 14 15  1  0
 15 16  1  0
 16 17  2  0
 16 18  1  0
M  END
$$$$
