LTW.pdb
     RDKit          3D

 30 31  0  0  1  0  0  0  0  0999 V2000
    7.6771  -11.8378   19.0530 C   0  0  0  0  0  0  0  0  0  0  0  0
    8.5509  -13.0336   18.8140 C   0  0  1  0  0  0  0  0  0  0  0  0
    9.9865  -12.6750   19.0261 C   0  0  0  0  0  0  0  0  0  0  0  0
    8.1154  -14.2547   19.5477 C   0  0  0  0  0  0  0  0  0  0  0  0
    9.0361  -15.4351   19.3357 C   0  0  2  0  0  0  0  0  0  0  0  0
    8.7005  -16.0253   18.0544 N   0  0  0  0  0  0  0  0  0  0  0  0
    8.9084  -16.4283   20.4335 C   0  0  0  0  0  0  0  0  0  0  0  0
    7.7973  -17.0375   20.6058 O   0  0  0  0  0  0  0  0  0  0  0  0
   10.1939  -19.5445   20.9331 C   0  0  0  0  0  0  0  0  0  0  0  0
   10.6534  -18.8800   22.2096 C   0  0  1  0  0  0  0  0  0  0  0  0
   11.9469  -18.3952   21.9427 O   0  0  0  0  0  0  0  0  0  0  0  0
    9.7874  -17.6550   22.4738 C   0  0  2  0  0  0  0  0  0  0  0  0
    9.9446  -16.7521   21.3144 N   0  0  0  0  0  0  0  0  0  0  0  0
   10.0986  -16.9383   23.7085 C   0  0  0  0  0  0  0  0  0  0  0  0
   10.9513  -15.9722   23.6355 O   0  0  0  0  0  0  0  0  0  0  0  0
    9.5846  -17.1551   24.9997 N   0  0  0  0  0  0  0  0  0  0  0  0
   10.2072  -16.6492   26.2295 C   0  0  1  0  0  0  0  0  0  0  0  0
    9.7843  -15.2553   26.5066 C   0  0  0  0  0  0  0  0  0  0  0  0
    8.3672  -14.9651   26.3133 C   0  0  0  0  0  0  0  0  0  0  0  0
    7.3781  -15.9021   26.0970 C   0  0  0  0  0  0  0  0  0  0  0  0
    6.2011  -15.2642   25.9270 N   0  0  0  0  0  0  0  0  0  0  0  0
    6.3801  -13.9237   26.0255 C   0  0  0  0  0  0  0  0  0  0  0  0
    5.4853  -12.8867   25.9409 C   0  0  0  0  0  0  0  0  0  0  0  0
    5.9388  -11.5834   26.1040 C   0  0  0  0  0  0  0  0  0  0  0  0
    7.2806  -11.3840   26.3463 C   0  0  0  0  0  0  0  0  0  0  0  0
    8.1734  -12.4195   26.4300 C   0  0  0  0  0  0  0  0  0  0  0  0
    7.7452  -13.7416   26.2690 C   0  0  0  0  0  0  0  0  0  0  0  0
   10.0947  -17.5393   27.3599 C   0  0  0  0  0  0  0  0  0  0  0  0
   10.7065  -17.2552   28.5932 O   0  0  0  0  0  0  0  0  0  0  0  0
    9.4541  -18.6088   27.3188 O   0  0  0  0  0  0  0  0  0  0  0  0
  2  1  1  1
  3  2  1  0
  4  2  1  0
  5  4  1  0
  5  6  1  6
  7  8  2  0
  7  5  1  0
 10  9  1  6
 10 12  1  0
 11 10  1  0
 12 13  1  6
 13  7  1  0
 14 12  1  0
 14 16  1  0
 15 14  2  0
 17 16  1  0
 17 28  1  0
 18 19  1  0
 17 18  1  1
 19 27  1  0
 20 19  2  0
 20 21  1  0
 21 22  1  0
 22 23  1  0
 23 24  2  0
 25 24  1  0
 26 25  2  0
 27 22  2  0
 27 26  1  0
 28 29  1  0
 30 28  2  0
M  END
$$$$
