LTW.pdb
     RDKit          3D

 30 31  0  0  1  0  0  0  0  0999 V2000
    7.2869  -12.1424   18.7549 C   0  0  0  0  0  0  0  0  0  0  0  0
    8.4226  -13.1218   18.7923 C   0  0  1  0  0  0  0  0  0  0  0  0
    9.5786  -12.5441   19.5436 C   0  0  0  0  0  0  0  0  0  0  0  0
    8.0275  -14.4860   19.2415 C   0  0  0  0  0  0  0  0  0  0  0  0
    9.1958  -15.4406   19.3403 C   0  0  2  0  0  0  0  0  0  0  0  0
    9.3554  -16.0701   18.0437 N   0  0  0  0  0  0  0  0  0  0  0  0
    8.9815  -16.4540   20.4056 C   0  0  0  0  0  0  0  0  0  0  0  0
    8.3841  -17.5488   20.1227 O   0  0  0  0  0  0  0  0  0  0  0  0
    9.4581  -18.9192   20.8691 C   0  0  0  0  0  0  0  0  0  0  0  0
   10.0088  -18.5723   22.2325 C   0  0  1  0  0  0  0  0  0  0  0  0
   11.3427  -18.1808   22.0164 O   0  0  0  0  0  0  0  0  0  0  0  0
    9.2861  -17.3411   22.7637 C   0  0  2  0  0  0  0  0  0  0  0  0
    9.3978  -16.2907   21.7303 N   0  0  0  0  0  0  0  0  0  0  0  0
    9.7878  -16.8384   24.0407 C   0  0  0  0  0  0  0  0  0  0  0  0
   10.7673  -15.9988   24.0046 O   0  0  0  0  0  0  0  0  0  0  0  0
    9.3409  -17.1451   25.3385 N   0  0  0  0  0  0  0  0  0  0  0  0
    9.9418  -16.6063   26.5651 C   0  0  1  0  0  0  0  0  0  0  0  0
    8.8982  -16.1418   27.5105 C   0  0  0  0  0  0  0  0  0  0  0  0
    7.7808  -15.4100   26.9226 C   0  0  0  0  0  0  0  0  0  0  0  0
    6.6647  -15.9781   26.3442 C   0  0  0  0  0  0  0  0  0  0  0  0
    5.8653  -14.9955   25.8786 N   0  0  0  0  0  0  0  0  0  0  0  0
    6.4204  -13.7847   26.1328 C   0  0  0  0  0  0  0  0  0  0  0  0
    5.9741  -12.5149   25.8651 C   0  0  0  0  0  0  0  0  0  0  0  0
    6.7432  -11.4273   26.2606 C   0  0  0  0  0  0  0  0  0  0  0  0
    7.9332  -11.6707   26.9113 C   0  0  0  0  0  0  0  0  0  0  0  0
    8.3786  -12.9384   27.1776 C   0  0  0  0  0  0  0  0  0  0  0  0
    7.6255  -14.0520   26.7903 C   0  0  0  0  0  0  0  0  0  0  0  0
   10.9428  -17.4598   27.1588 C   0  0  0  0  0  0  0  0  0  0  0  0
   11.7456  -17.0300   28.2296 O   0  0  0  0  0  0  0  0  0  0  0  0
   11.1603  -18.6235   26.7658 O   0  0  0  0  0  0  0  0  0  0  0  0
  2  1  1  1
  3  2  1  0
  4  2  1  0
  5  4  1  0
  5  6  1  6
  7  8  2  0
  7  5  1  0
 10  9  1  6
 10 12  1  0
 11 10  1  0
 12 13  1  6
 13  7  1  0
 14 12  1  0
 14 16  1  0
 15 14  2  0
 17 16  1  0
 17 28  1  0
 18 19  1  0
 17 18  1  1
 19 27  1  0
 20 19  2  0
 20 21  1  0
 21 22  1  0
 22 23  1  0
 23 24  2  0
 25 24  1  0
 26 25  2  0
 27 22  2  0
 27 26  1  0
 28 29  1  0
 30 28  2  0
M  END
$$$$
