LTW.pdb
     RDKit          3D

 30 31  0  0  1  0  0  0  0  0999 V2000
    6.9885  -12.0340   19.7098 C   0  0  0  0  0  0  0  0  0  0  0  0
    8.0415  -13.0577   19.4039 C   0  0  1  0  0  0  0  0  0  0  0  0
    9.4001  -12.4384   19.4743 C   0  0  0  0  0  0  0  0  0  0  0  0
    7.9060  -14.3153   20.1907 C   0  0  0  0  0  0  0  0  0  0  0  0
    9.0301  -15.2955   19.9423 C   0  0  2  0  0  0  0  0  0  0  0  0
    8.8438  -15.8449   18.6133 N   0  0  0  0  0  0  0  0  0  0  0  0
    9.0515  -16.3699   20.9685 C   0  0  0  0  0  0  0  0  0  0  0  0
    8.0794  -17.1983   21.0336 O   0  0  0  0  0  0  0  0  0  0  0  0
   10.7727  -19.2702   21.3908 C   0  0  0  0  0  0  0  0  0  0  0  0
   11.1158  -18.5776   22.6888 C   0  0  1  0  0  0  0  0  0  0  0  0
   12.3045  -17.8676   22.4393 O   0  0  0  0  0  0  0  0  0  0  0  0
   10.0518  -17.5304   22.9916 C   0  0  2  0  0  0  0  0  0  0  0  0
   10.0866  -16.5435   21.8921 N   0  0  0  0  0  0  0  0  0  0  0  0
   10.2077  -16.8507   24.2757 C   0  0  0  0  0  0  0  0  0  0  0  0
   10.9539  -15.7981   24.3035 O   0  0  0  0  0  0  0  0  0  0  0  0
    9.6422  -17.1876   25.5186 N   0  0  0  0  0  0  0  0  0  0  0  0
   10.0761  -16.6203   26.8015 C   0  0  1  0  0  0  0  0  0  0  0  0
    8.9150  -16.1605   27.6010 C   0  0  0  0  0  0  0  0  0  0  0  0
    7.8414  -15.5103   26.8565 C   0  0  0  0  0  0  0  0  0  0  0  0
    6.7954  -16.1544   26.2287 C   0  0  0  0  0  0  0  0  0  0  0  0
    6.0220  -15.2355   25.6135 N   0  0  0  0  0  0  0  0  0  0  0  0
    6.5258  -13.9929   25.8161 C   0  0  0  0  0  0  0  0  0  0  0  0
    6.0795  -12.7619   25.4054 C   0  0  0  0  0  0  0  0  0  0  0  0
    6.7859  -11.6246   25.7775 C   0  0  0  0  0  0  0  0  0  0  0  0
    7.9158  -11.7811   26.5506 C   0  0  0  0  0  0  0  0  0  0  0  0
    8.3612  -13.0102   26.9596 C   0  0  0  0  0  0  0  0  0  0  0  0
    7.6705  -14.1723   26.5992 C   0  0  0  0  0  0  0  0  0  0  0  0
   11.0080  -17.4472   27.5300 C   0  0  0  0  0  0  0  0  0  0  0  0
   11.3801  -18.7246   27.0763 O   0  0  0  0  0  0  0  0  0  0  0  0
   11.5399  -17.0878   28.5995 O   0  0  0  0  0  0  0  0  0  0  0  0
  2  1  1  1
  3  2  1  0
  4  2  1  0
  5  4  1  0
  5  6  1  6
  7  8  2  0
  7  5  1  0
 10  9  1  6
 10 12  1  0
 11 10  1  0
 12 13  1  6
 13  7  1  0
 14 12  1  0
 14 16  1  0
 15 14  2  0
 17 16  1  0
 17 28  1  0
 18 19  1  0
 17 18  1  1
 19 27  1  0
 20 19  2  0
 20 21  1  0
 21 22  1  0
 22 23  1  0
 23 24  2  0
 25 24  1  0
 26 25  2  0
 27 22  2  0
 27 26  1  0
 28 29  1  0
 30 28  2  0
M  END
$$$$
