LTW.pdb
     RDKit          3D

 30 31  0  0  1  0  0  0  0  0999 V2000
    6.8233  -12.0167   19.4596 C   0  0  0  0  0  0  0  0  0  0  0  0
    7.9605  -12.9789   19.2831 C   0  0  1  0  0  0  0  0  0  0  0  0
    9.2067  -12.4235   19.8937 C   0  0  0  0  0  0  0  0  0  0  0  0
    7.6440  -14.3709   19.7090 C   0  0  0  0  0  0  0  0  0  0  0  0
    8.8085  -15.3214   19.5459 C   0  0  2  0  0  0  0  0  0  0  0  0
    8.7520  -15.8528   18.1979 N   0  0  0  0  0  0  0  0  0  0  0  0
    8.7657  -16.4118   20.5544 C   0  0  0  0  0  0  0  0  0  0  0  0
    7.7180  -17.1386   20.6523 O   0  0  0  0  0  0  0  0  0  0  0  0
   10.1618  -19.4517   20.8627 C   0  0  0  0  0  0  0  0  0  0  0  0
   10.6219  -18.8580   22.1735 C   0  0  1  0  0  0  0  0  0  0  0  0
   11.8940  -18.3134   21.9195 O   0  0  0  0  0  0  0  0  0  0  0  0
    9.7213  -17.6830   22.5320 C   0  0  2  0  0  0  0  0  0  0  0  0
    9.8177  -16.7070   21.4266 N   0  0  0  0  0  0  0  0  0  0  0  0
   10.0390  -17.0312   23.8006 C   0  0  0  0  0  0  0  0  0  0  0  0
   10.9572  -16.1244   23.7886 O   0  0  0  0  0  0  0  0  0  0  0  0
    9.4686  -17.2551   25.0666 N   0  0  0  0  0  0  0  0  0  0  0  0
   10.0754  -16.8216   26.3315 C   0  0  1  0  0  0  0  0  0  0  0  0
    9.7866  -15.3920   26.5989 C   0  0  0  0  0  0  0  0  0  0  0  0
    8.4484  -14.9310   26.2432 C   0  0  0  0  0  0  0  0  0  0  0  0
    7.3836  -15.7407   25.9063 C   0  0  0  0  0  0  0  0  0  0  0  0
    6.3221  -14.9641   25.6042 N   0  0  0  0  0  0  0  0  0  0  0  0
    6.6521  -13.6551   25.7322 C   0  0  0  0  0  0  0  0  0  0  0  0
    5.9079  -12.5165   25.5506 C   0  0  0  0  0  0  0  0  0  0  0  0
    6.4963  -11.2778   25.7745 C   0  0  0  0  0  0  0  0  0  0  0  0
    7.8149  -11.2432   26.1734 C   0  0  0  0  0  0  0  0  0  0  0  0
    8.5574  -12.3801   26.3538 C   0  0  0  0  0  0  0  0  0  0  0  0
    7.9914  -13.6406   26.1348 C   0  0  0  0  0  0  0  0  0  0  0  0
    9.8112  -17.6989   27.4466 C   0  0  0  0  0  0  0  0  0  0  0  0
   10.4184  -17.5107   28.7003 O   0  0  0  0  0  0  0  0  0  0  0  0
    9.0350  -18.6725   27.3734 O   0  0  0  0  0  0  0  0  0  0  0  0
  2  1  1  1
  3  2  1  0
  4  2  1  0
  5  4  1  0
  5  6  1  6
  7  8  2  0
  7  5  1  0
 10  9  1  6
 10 12  1  0
 11 10  1  0
 12 13  1  6
 13  7  1  0
 14 12  1  0
 14 16  1  0
 15 14  2  0
 17 16  1  0
 17 28  1  0
 18 19  1  0
 17 18  1  1
 19 27  1  0
 20 19  2  0
 20 21  1  0
 21 22  1  0
 22 23  1  0
 23 24  2  0
 25 24  1  0
 26 25  2  0
 27 22  2  0
 27 26  1  0
 28 29  1  0
 30 28  2  0
M  END
$$$$
