LTW.pdb
     RDKit          3D

 30 31  0  0  1  0  0  0  0  0999 V2000
    6.8418  -12.5585   17.6749 C   0  0  0  0  0  0  0  0  0  0  0  0
    8.0903  -13.1492   18.2604 C   0  0  1  0  0  0  0  0  0  0  0  0
    9.0681  -12.0678   18.5904 C   0  0  0  0  0  0  0  0  0  0  0  0
    7.8397  -14.1026   19.3772 C   0  0  0  0  0  0  0  0  0  0  0  0
    9.1097  -14.6037   20.0268 C   0  0  2  0  0  0  0  0  0  0  0  0
    9.9056  -15.2398   18.9950 N   0  0  0  0  0  0  0  0  0  0  0  0
    8.8171  -15.5475   21.1365 C   0  0  0  0  0  0  0  0  0  0  0  0
    7.8193  -15.3262   21.9052 O   0  0  0  0  0  0  0  0  0  0  0  0
    9.0287  -19.3634   20.7098 C   0  0  0  0  0  0  0  0  0  0  0  0
    9.7252  -19.0247   22.0069 C   0  0  1  0  0  0  0  0  0  0  0  0
   11.0870  -18.8837   21.6827 O   0  0  0  0  0  0  0  0  0  0  0  0
    9.2580  -17.6544   22.4807 C   0  0  2  0  0  0  0  0  0  0  0  0
    9.5758  -16.6903   21.4067 N   0  0  0  0  0  0  0  0  0  0  0  0
    9.8468  -17.2073   23.7411 C   0  0  0  0  0  0  0  0  0  0  0  0
   10.9647  -16.5655   23.6794 O   0  0  0  0  0  0  0  0  0  0  0  0
    9.3534  -17.3787   25.0470 N   0  0  0  0  0  0  0  0  0  0  0  0
   10.0728  -16.9683   26.2595 C   0  0  1  0  0  0  0  0  0  0  0  0
    9.7761  -15.5568   26.6033 C   0  0  0  0  0  0  0  0  0  0  0  0
    8.3861  -15.1389   26.4519 C   0  0  0  0  0  0  0  0  0  0  0  0
    7.3274  -15.9681   26.1447 C   0  0  0  0  0  0  0  0  0  0  0  0
    6.2037  -15.2266   26.0517 N   0  0  0  0  0  0  0  0  0  0  0  0
    6.4863  -13.9221   26.2904 C   0  0  0  0  0  0  0  0  0  0  0  0
    5.6749  -12.8158   26.3225 C   0  0  0  0  0  0  0  0  0  0  0  0
    6.2282  -11.5762   26.6195 C   0  0  0  0  0  0  0  0  0  0  0  0
    7.5812  -11.5082   26.8720 C   0  0  0  0  0  0  0  0  0  0  0  0
    8.3907  -12.6127   26.8391 C   0  0  0  0  0  0  0  0  0  0  0  0
    7.8612  -13.8731   26.5420 C   0  0  0  0  0  0  0  0  0  0  0  0
    9.9443  -17.8878   27.3644 C   0  0  0  0  0  0  0  0  0  0  0  0
    9.1489  -19.0438   27.2805 O   0  0  0  0  0  0  0  0  0  0  0  0
   10.5239  -17.7201   28.4561 O   0  0  0  0  0  0  0  0  0  0  0  0
  2  1  1  1
  3  2  1  0
  4  2  1  0
  5  4  1  0
  5  6  1  6
  7  8  2  0
  7  5  1  0
 10  9  1  6
 10 12  1  0
 11 10  1  0
 12 13  1  6
 13  7  1  0
 14 12  1  0
 14 16  1  0
 15 14  2  0
 17 16  1  0
 17 28  1  0
 18 19  1  0
 17 18  1  1
 19 27  1  0
 20 19  2  0
 20 21  1  0
 21 22  1  0
 22 23  1  0
 23 24  2  0
 25 24  1  0
 26 25  2  0
 27 22  2  0
 27 26  1  0
 28 29  1  0
 30 28  2  0
M  END
$$$$
