LTW.pdb
     RDKit          3D

 30 31  0  0  1  0  0  0  0  0999 V2000
    7.8204  -12.0444   18.6574 C   0  0  0  0  0  0  0  0  0  0  0  0
    8.8210  -13.1500   18.4933 C   0  0  1  0  0  0  0  0  0  0  0  0
    9.7091  -13.2255   19.6933 C   0  0  0  0  0  0  0  0  0  0  0  0
    8.2186  -14.4547   18.1008 C   0  0  0  0  0  0  0  0  0  0  0  0
    9.1455  -15.6281   18.3241 C   0  0  2  0  0  0  0  0  0  0  0  0
    9.1580  -16.4122   17.1043 N   0  0  0  0  0  0  0  0  0  0  0  0
    8.7136  -16.4491   19.4848 C   0  0  0  0  0  0  0  0  0  0  0  0
    7.7739  -17.3039   19.3370 O   0  0  0  0  0  0  0  0  0  0  0  0
    8.8078  -18.9645   20.0465 C   0  0  0  0  0  0  0  0  0  0  0  0
    9.4353  -18.6762   21.3902 C   0  0  1  0  0  0  0  0  0  0  0  0
   10.8191  -18.5860   21.1530 O   0  0  0  0  0  0  0  0  0  0  0  0
    8.9946  -17.2961   21.8605 C   0  0  2  0  0  0  0  0  0  0  0  0
    9.2769  -16.3503   20.7606 N   0  0  0  0  0  0  0  0  0  0  0  0
    9.6338  -16.8339   23.0906 C   0  0  0  0  0  0  0  0  0  0  0  0
   10.6493  -16.0463   22.9722 O   0  0  0  0  0  0  0  0  0  0  0  0
    9.2883  -17.1307   24.4213 N   0  0  0  0  0  0  0  0  0  0  0  0
    9.9769  -16.5767   25.5939 C   0  0  1  0  0  0  0  0  0  0  0  0
    9.6415  -15.1447   25.7818 C   0  0  0  0  0  0  0  0  0  0  0  0
    8.2363  -14.8435   26.0357 C   0  0  0  0  0  0  0  0  0  0  0  0
    7.1928  -15.7407   25.9391 C   0  0  0  0  0  0  0  0  0  0  0  0
    6.0372  -15.0983   26.2096 N   0  0  0  0  0  0  0  0  0  0  0  0
    6.2839  -13.7937   26.4854 C   0  0  0  0  0  0  0  0  0  0  0  0
    5.4372  -12.7697   26.8285 C   0  0  0  0  0  0  0  0  0  0  0  0
    5.9641  -11.5096   27.0840 C   0  0  0  0  0  0  0  0  0  0  0  0
    7.3276  -11.3384   26.9816 C   0  0  0  0  0  0  0  0  0  0  0  0
    8.1722  -12.3608   26.6384 C   0  0  0  0  0  0  0  0  0  0  0  0
    7.6696  -13.6395   26.3747 C   0  0  0  0  0  0  0  0  0  0  0  0
    9.8506  -17.3774   26.7880 C   0  0  0  0  0  0  0  0  0  0  0  0
   10.4969  -17.0304   27.9871 O   0  0  0  0  0  0  0  0  0  0  0  0
    9.1671  -18.4196   26.8356 O   0  0  0  0  0  0  0  0  0  0  0  0
  2  1  1  1
  3  2  1  0
  4  2  1  0
  5  4  1  0
  5  6  1  6
  7  8  2  0
  7  5  1  0
 10  9  1  6
 10 12  1  0
 11 10  1  0
 12 13  1  6
 13  7  1  0
 14 12  1  0
 14 16  1  0
 15 14  2  0
 17 16  1  0
 17 28  1  0
 18 19  1  0
 17 18  1  1
 19 27  1  0
 20 19  2  0
 20 21  1  0
 21 22  1  0
 22 23  1  0
 23 24  2  0
 25 24  1  0
 26 25  2  0
 27 22  2  0
 27 26  1  0
 28 29  1  0
 30 28  2  0
M  END
$$$$
