LTW.pdb
     RDKit          3D

 30 31  0  0  1  0  0  0  0  0999 V2000
    7.5440  -11.9060   19.3294 C   0  0  0  0  0  0  0  0  0  0  0  0
    8.5119  -12.9951   18.9723 C   0  0  1  0  0  0  0  0  0  0  0  0
    9.6741  -12.9822   19.9123 C   0  0  0  0  0  0  0  0  0  0  0  0
    7.8792  -14.3336   18.8075 C   0  0  0  0  0  0  0  0  0  0  0  0
    8.8833  -15.4628   18.7533 C   0  0  2  0  0  0  0  0  0  0  0  0
    8.7029  -16.1462   17.4871 N   0  0  0  0  0  0  0  0  0  0  0  0
    8.7131  -16.3972   19.8960 C   0  0  0  0  0  0  0  0  0  0  0  0
    7.5767  -16.9493   20.0944 O   0  0  0  0  0  0  0  0  0  0  0  0
    9.7157  -19.5119   20.3665 C   0  0  0  0  0  0  0  0  0  0  0  0
   10.2886  -18.9192   21.6325 C   0  0  1  0  0  0  0  0  0  0  0  0
   11.6105  -18.5545   21.3183 O   0  0  0  0  0  0  0  0  0  0  0  0
    9.5555  -17.6228   21.9523 C   0  0  2  0  0  0  0  0  0  0  0  0
    9.7344  -16.7238   20.7931 N   0  0  0  0  0  0  0  0  0  0  0  0
    9.9970  -16.9535   23.1739 C   0  0  0  0  0  0  0  0  0  0  0  0
   11.0400  -16.1977   23.0931 O   0  0  0  0  0  0  0  0  0  0  0  0
    9.4296  -17.0149   24.4594 N   0  0  0  0  0  0  0  0  0  0  0  0
   10.0984  -16.5421   25.6781 C   0  0  1  0  0  0  0  0  0  0  0  0
    9.7822  -15.1176   25.9413 C   0  0  0  0  0  0  0  0  0  0  0  0
    8.3677  -14.7597   25.9150 C   0  0  0  0  0  0  0  0  0  0  0  0
    7.3280  -15.6169   25.6199 C   0  0  0  0  0  0  0  0  0  0  0  0
    6.1685  -14.9275   25.6575 N   0  0  0  0  0  0  0  0  0  0  0  0
    6.4088  -13.6304   25.9715 C   0  0  0  0  0  0  0  0  0  0  0  0
    5.5531  -12.5707   26.1391 C   0  0  0  0  0  0  0  0  0  0  0  0
    6.0701  -11.3290   26.4881 C   0  0  0  0  0  0  0  0  0  0  0  0
    7.4331  -11.2117   26.6531 C   0  0  0  0  0  0  0  0  0  0  0  0
    8.2868  -12.2696   26.4849 C   0  0  0  0  0  0  0  0  0  0  0  0
    7.7944  -13.5309   26.1327 C   0  0  0  0  0  0  0  0  0  0  0  0
    9.9300  -17.4082   26.8202 C   0  0  0  0  0  0  0  0  0  0  0  0
    9.1414  -18.5704   26.7616 O   0  0  0  0  0  0  0  0  0  0  0  0
   10.4669  -17.1859   27.9239 O   0  0  0  0  0  0  0  0  0  0  0  0
  2  1  1  1
  3  2  1  0
  4  2  1  0
  5  4  1  0
  5  6  1  6
  7  8  2  0
  7  5  1  0
 10  9  1  6
 10 12  1  0
 11 10  1  0
 12 13  1  6
 13  7  1  0
 14 12  1  0
 14 16  1  0
 15 14  2  0
 17 16  1  0
 17 28  1  0
 18 19  1  0
 17 18  1  1
 19 27  1  0
 20 19  2  0
 20 21  1  0
 21 22  1  0
 22 23  1  0
 23 24  2  0
 25 24  1  0
 26 25  2  0
 27 22  2  0
 27 26  1  0
 28 29  1  0
 30 28  2  0
M  END
$$$$
