LTW.pdb
     RDKit          3D

 30 31  0  0  1  0  0  0  0  0999 V2000
    7.0759  -11.9843   19.5912 C   0  0  0  0  0  0  0  0  0  0  0  0
    8.0158  -13.1179   19.3046 C   0  0  1  0  0  0  0  0  0  0  0  0
    9.3921  -12.5951   19.0460 C   0  0  0  0  0  0  0  0  0  0  0  0
    7.9622  -14.2145   20.3114 C   0  0  0  0  0  0  0  0  0  0  0  0
    8.8241  -15.4011   19.9438 C   0  0  2  0  0  0  0  0  0  0  0  0
    8.2829  -15.9725   18.7259 N   0  0  0  0  0  0  0  0  0  0  0  0
    8.8608  -16.4063   21.0375 C   0  0  0  0  0  0  0  0  0  0  0  0
    7.8264  -17.1211   21.2710 O   0  0  0  0  0  0  0  0  0  0  0  0
   10.8615  -19.2930   21.3249 C   0  0  0  0  0  0  0  0  0  0  0  0
   11.1488  -18.5921   22.6321 C   0  0  1  0  0  0  0  0  0  0  0  0
   12.2842  -17.7956   22.3959 O   0  0  0  0  0  0  0  0  0  0  0  0
   10.0110  -17.6278   22.9414 C   0  0  2  0  0  0  0  0  0  0  0  0
    9.9756  -16.6314   21.8506 N   0  0  0  0  0  0  0  0  0  0  0  0
   10.1150  -16.9497   24.2316 C   0  0  0  0  0  0  0  0  0  0  0  0
   10.7301  -15.8154   24.2583 O   0  0  0  0  0  0  0  0  0  0  0  0
    9.6239  -17.3670   25.4818 N   0  0  0  0  0  0  0  0  0  0  0  0
   10.0050  -16.7565   26.7617 C   0  0  1  0  0  0  0  0  0  0  0  0
    8.8074  -16.3991   27.5594 C   0  0  0  0  0  0  0  0  0  0  0  0
    7.7901  -15.6115   26.8705 C   0  0  0  0  0  0  0  0  0  0  0  0
    6.7349  -16.1226   26.1436 C   0  0  0  0  0  0  0  0  0  0  0  0
    6.0261  -15.0991   25.6229 N   0  0  0  0  0  0  0  0  0  0  0  0
    6.5820  -13.9166   25.9853 C   0  0  0  0  0  0  0  0  0  0  0  0
    6.2082  -12.6244   25.7133 C   0  0  0  0  0  0  0  0  0  0  0  0
    6.9561  -11.5767   26.2366 C   0  0  0  0  0  0  0  0  0  0  0  0
    8.0522  -11.8810   27.0143 C   0  0  0  0  0  0  0  0  0  0  0  0
    8.4252  -13.1709   27.2849 C   0  0  0  0  0  0  0  0  0  0  0  0
    7.6916  -14.2455   26.7706 C   0  0  0  0  0  0  0  0  0  0  0  0
   11.0077  -17.4925   27.4938 C   0  0  0  0  0  0  0  0  0  0  0  0
   11.5420  -18.7004   27.0126 O   0  0  0  0  0  0  0  0  0  0  0  0
   11.4623  -17.1104   28.5907 O   0  0  0  0  0  0  0  0  0  0  0  0
  2  1  1  1
  3  2  1  0
  4  2  1  0
  5  4  1  0
  5  6  1  6
  7  8  2  0
  7  5  1  0
 10  9  1  6
 10 12  1  0
 11 10  1  0
 12 13  1  6
 13  7  1  0
 14 12  1  0
 14 16  1  0
 15 14  2  0
 17 16  1  0
 17 28  1  0
 18 19  1  0
 17 18  1  1
 19 27  1  0
 20 19  2  0
 20 21  1  0
 21 22  1  0
 22 23  1  0
 23 24  2  0
 25 24  1  0
 26 25  2  0
 27 22  2  0
 27 26  1  0
 28 29  1  0
 30 28  2  0
M  END
$$$$
