LTW.pdb
     RDKit          3D

 30 31  0  0  1  0  0  0  0  0999 V2000
    6.9733  -11.9099   19.3076 C   0  0  0  0  0  0  0  0  0  0  0  0
    8.0960  -12.8943   19.1631 C   0  0  1  0  0  0  0  0  0  0  0  0
    9.4130  -12.1929   19.2529 C   0  0  0  0  0  0  0  0  0  0  0  0
    7.9772  -14.0795   20.0577 C   0  0  0  0  0  0  0  0  0  0  0  0
    9.1735  -15.0013   19.9846 C   0  0  2  0  0  0  0  0  0  0  0  0
    9.1551  -15.6370   18.6814 N   0  0  0  0  0  0  0  0  0  0  0  0
    9.1492  -16.0113   21.0742 C   0  0  0  0  0  0  0  0  0  0  0  0
    8.0582  -16.2326   21.7037 O   0  0  0  0  0  0  0  0  0  0  0  0
   11.3092  -19.8289   23.3521 C   0  0  0  0  0  0  0  0  0  0  0  0
   11.2292  -18.8419   22.2111 C   0  0  1  0  0  0  0  0  0  0  0  0
   10.6452  -19.5435   21.1406 O   0  0  0  0  0  0  0  0  0  0  0  0
   10.2495  -17.7346   22.5774 C   0  0  2  0  0  0  0  0  0  0  0  0
   10.2642  -16.7560   21.4701 N   0  0  0  0  0  0  0  0  0  0  0  0
   10.5316  -17.0593   23.8422 C   0  0  0  0  0  0  0  0  0  0  0  0
   11.5047  -16.2117   23.8585 O   0  0  0  0  0  0  0  0  0  0  0  0
    9.8736  -17.2031   25.0769 N   0  0  0  0  0  0  0  0  0  0  0  0
   10.3740  -16.6577   26.3451 C   0  0  1  0  0  0  0  0  0  0  0  0
    9.9667  -15.2421   26.5143 C   0  0  0  0  0  0  0  0  0  0  0  0
    8.5460  -14.9586   26.3385 C   0  0  0  0  0  0  0  0  0  0  0  0
    7.5480  -15.9031   26.2156 C   0  0  0  0  0  0  0  0  0  0  0  0
    6.3692  -15.2725   26.0321 N   0  0  0  0  0  0  0  0  0  0  0  0
    6.5556  -13.9293   26.0304 C   0  0  0  0  0  0  0  0  0  0  0  0
    5.6626  -12.8960   25.8961 C   0  0  0  0  0  0  0  0  0  0  0  0
    6.1250  -11.5870   25.9541 C   0  0  0  0  0  0  0  0  0  0  0  0
    7.4735  -11.3782   26.1459 C   0  0  0  0  0  0  0  0  0  0  0  0
    8.3645  -12.4101   26.2792 C   0  0  0  0  0  0  0  0  0  0  0  0
    7.9274  -13.7379   26.2240 C   0  0  0  0  0  0  0  0  0  0  0  0
   10.1116  -17.4920   27.4932 C   0  0  0  0  0  0  0  0  0  0  0  0
   10.6622  -17.2127   28.7561 O   0  0  0  0  0  0  0  0  0  0  0  0
    9.3867  -18.5057   27.4424 O   0  0  0  0  0  0  0  0  0  0  0  0
  2  1  1  1
  3  2  1  0
  4  2  1  0
  5  4  1  0
  5  6  1  6
  7  8  2  0
  7  5  1  0
 10  9  1  1
 10 12  1  0
 11 10  1  0
 12 13  1  6
 13  7  1  0
 14 12  1  0
 14 16  1  0
 15 14  2  0
 17 16  1  0
 17 28  1  0
 18 19  1  0
 17 18  1  1
 19 27  1  0
 20 19  2  0
 20 21  1  0
 21 22  1  0
 22 23  1  0
 23 24  2  0
 25 24  1  0
 26 25  2  0
 27 22  2  0
 27 26  1  0
 28 29  1  0
 30 28  2  0
M  END
$$$$
