LTW.pdb
     RDKit          3D

 30 31  0  0  1  0  0  0  0  0999 V2000
    6.4279  -12.8149   17.8182 C   0  0  0  0  0  0  0  0  0  0  0  0
    7.6942  -13.1531   18.5480 C   0  0  1  0  0  0  0  0  0  0  0  0
    8.3846  -11.9036   18.9913 C   0  0  0  0  0  0  0  0  0  0  0  0
    7.5161  -14.1640   19.6275 C   0  0  0  0  0  0  0  0  0  0  0  0
    8.7684  -14.3872   20.4448 C   0  0  2  0  0  0  0  0  0  0  0  0
    9.8223  -14.7797   19.5293 N   0  0  0  0  0  0  0  0  0  0  0  0
    8.5570  -15.4189   21.4930 C   0  0  0  0  0  0  0  0  0  0  0  0
    7.5021  -15.3768   22.2147 O   0  0  0  0  0  0  0  0  0  0  0  0
    9.2887  -19.1851   20.8868 C   0  0  0  0  0  0  0  0  0  0  0  0
    9.9016  -18.7883   22.2094 C   0  0  1  0  0  0  0  0  0  0  0  0
   11.2226  -18.4029   21.9168 O   0  0  0  0  0  0  0  0  0  0  0  0
    9.2006  -17.5398   22.7291 C   0  0  2  0  0  0  0  0  0  0  0  0
    9.4537  -16.4597   21.7527 N   0  0  0  0  0  0  0  0  0  0  0  0
    9.6173  -17.1125   24.0630 C   0  0  0  0  0  0  0  0  0  0  0  0
   10.5875  -16.2650   24.1388 O   0  0  0  0  0  0  0  0  0  0  0  0
    9.0949  -17.5016   25.3095 N   0  0  0  0  0  0  0  0  0  0  0  0
    9.6685  -17.1067   26.6022 C   0  0  1  0  0  0  0  0  0  0  0  0
    8.6420  -16.4857   27.4735 C   0  0  0  0  0  0  0  0  0  0  0  0
    7.7231  -15.5586   26.8208 C   0  0  0  0  0  0  0  0  0  0  0  0
    6.6159  -15.9146   26.0790 C   0  0  0  0  0  0  0  0  0  0  0  0
    6.0307  -14.7959   25.6024 N   0  0  0  0  0  0  0  0  0  0  0  0
    6.7200  -13.7012   26.0087 C   0  0  0  0  0  0  0  0  0  0  0  0
    6.4988  -12.3646   25.7897 C   0  0  0  0  0  0  0  0  0  0  0  0
    7.3630  -11.4323   26.3507 C   0  0  0  0  0  0  0  0  0  0  0  0
    8.4163  -11.8923   27.1109 C   0  0  0  0  0  0  0  0  0  0  0  0
    8.6371  -13.2266   27.3285 C   0  0  0  0  0  0  0  0  0  0  0  0
    7.7838  -14.1875   26.7755 C   0  0  0  0  0  0  0  0  0  0  0  0
   10.4469  -18.1382   27.2448 C   0  0  0  0  0  0  0  0  0  0  0  0
   11.2183  -17.8815   28.3916 O   0  0  0  0  0  0  0  0  0  0  0  0
   10.4871  -19.3140   26.8301 O   0  0  0  0  0  0  0  0  0  0  0  0
  2  1  1  1
  3  2  1  0
  4  2  1  0
  5  4  1  0
  5  6  1  6
  7  8  2  0
  7  5  1  0
 10  9  1  6
 10 12  1  0
 11 10  1  0
 12 13  1  6
 13  7  1  0
 14 12  1  0
 14 16  1  0
 15 14  2  0
 17 16  1  0
 17 28  1  0
 18 19  1  0
 17 18  1  1
 19 27  1  0
 20 19  2  0
 20 21  1  0
 21 22  1  0
 22 23  1  0
 23 24  2  0
 25 24  1  0
 26 25  2  0
 27 22  2  0
 27 26  1  0
 28 29  1  0
 30 28  2  0
M  END
$$$$
