LTW.pdb
     RDKit          3D

 30 31  0  0  1  0  0  0  0  0999 V2000
    7.3842  -11.9940   20.2807 C   0  0  0  0  0  0  0  0  0  0  0  0
    8.2432  -13.1864   19.9793 C   0  0  1  0  0  0  0  0  0  0  0  0
    9.4455  -13.1949   20.8676 C   0  0  0  0  0  0  0  0  0  0  0  0
    7.4975  -14.4757   19.9547 C   0  0  0  0  0  0  0  0  0  0  0  0
    8.3875  -15.6721   19.7045 C   0  0  2  0  0  0  0  0  0  0  0  0
    7.7612  -16.4728   18.6704 N   0  0  0  0  0  0  0  0  0  0  0  0
    8.5948  -16.4644   20.9443 C   0  0  0  0  0  0  0  0  0  0  0  0
    7.5932  -17.0247   21.5087 O   0  0  0  0  0  0  0  0  0  0  0  0
   11.6025  -19.4688   23.2862 C   0  0  0  0  0  0  0  0  0  0  0  0
   11.3239  -18.4268   22.2284 C   0  0  1  0  0  0  0  0  0  0  0  0
   10.9610  -19.1437   21.0735 O   0  0  0  0  0  0  0  0  0  0  0  0
   10.0948  -17.6226   22.6321 C   0  0  2  0  0  0  0  0  0  0  0  0
    9.8402  -16.6451   21.5534 N   0  0  0  0  0  0  0  0  0  0  0  0
   10.2082  -16.9308   23.9142 C   0  0  0  0  0  0  0  0  0  0  0  0
   10.9538  -15.8783   23.9569 O   0  0  0  0  0  0  0  0  0  0  0  0
    9.6012  -17.2557   25.1406 N   0  0  0  0  0  0  0  0  0  0  0  0
    9.9483  -16.6295   26.4226 C   0  0  1  0  0  0  0  0  0  0  0  0
    8.7353  -16.3697   27.2348 C   0  0  0  0  0  0  0  0  0  0  0  0
    7.6830  -15.5948   26.5853 C   0  0  0  0  0  0  0  0  0  0  0  0
    6.5811  -16.1187   25.9417 C   0  0  0  0  0  0  0  0  0  0  0  0
    5.8487  -15.1055   25.4334 N   0  0  0  0  0  0  0  0  0  0  0  0
    6.4346  -13.9174   25.7229 C   0  0  0  0  0  0  0  0  0  0  0  0
    6.0541  -12.6310   25.4334 C   0  0  0  0  0  0  0  0  0  0  0  0
    6.8406  -11.5743   25.8758 C   0  0  0  0  0  0  0  0  0  0  0  0
    7.9806  -11.8641   26.5936 C   0  0  0  0  0  0  0  0  0  0  0  0
    8.3603  -13.1483   26.8816 C   0  0  0  0  0  0  0  0  0  0  0  0
    7.5884  -14.2317   26.4482 C   0  0  0  0  0  0  0  0  0  0  0  0
   11.0104  -17.2947   27.1383 C   0  0  0  0  0  0  0  0  0  0  0  0
   11.6699  -16.6884   28.2217 O   0  0  0  0  0  0  0  0  0  0  0  0
   11.4103  -18.4397   26.8468 O   0  0  0  0  0  0  0  0  0  0  0  0
  2  1  1  1
  3  2  1  0
  4  2  1  0
  5  4  1  0
  5  6  1  6
  7  8  2  0
  7  5  1  0
 10  9  1  1
 10 12  1  0
 11 10  1  0
 12 13  1  6
 13  7  1  0
 14 12  1  0
 14 16  1  0
 15 14  2  0
 17 16  1  0
 17 28  1  0
 18 19  1  0
 17 18  1  1
 19 27  1  0
 20 19  2  0
 20 21  1  0
 21 22  1  0
 22 23  1  0
 23 24  2  0
 25 24  1  0
 26 25  2  0
 27 22  2  0
 27 26  1  0
 28 29  1  0
 30 28  2  0
M  END
$$$$
