LTW.pdb
     RDKit          3D

 30 31  0  0  1  0  0  0  0  0999 V2000
   14.2561  -85.1950   61.5158 C   0  0  0  0  0  0  0  0  0  0  0  0
   14.0507  -86.0320   62.7438 C   0  0  1  0  0  0  0  0  0  0  0  0
   13.1259  -87.1680   62.4460 C   0  0  0  0  0  0  0  0  0  0  0  0
   15.3170  -86.4396   63.4142 C   0  0  0  0  0  0  0  0  0  0  0  0
   15.9849  -85.3073   64.1611 C   0  0  2  0  0  0  0  0  0  0  0  0
   17.1063  -84.8576   63.3592 N   0  0  0  0  0  0  0  0  0  0  0  0
   16.4297  -85.7351   65.5127 C   0  0  0  0  0  0  0  0  0  0  0  0
   15.9165  -86.7793   66.0436 O   0  0  0  0  0  0  0  0  0  0  0  0
   19.8174  -87.3577   66.1268 C   0  0  0  0  0  0  0  0  0  0  0  0
   19.6459  -85.9024   66.4941 C   0  0  1  0  0  0  0  0  0  0  0  0
   19.5292  -85.2125   65.2737 O   0  0  0  0  0  0  0  0  0  0  0  0
   18.3145  -85.7228   67.2120 C   0  0  2  0  0  0  0  0  0  0  0  0
   17.3949  -85.0587   66.2647 N   0  0  0  0  0  0  0  0  0  0  0  0
   18.3859  -84.9582   68.4552 C   0  0  0  0  0  0  0  0  0  0  0  0
   19.1231  -83.8989   68.4592 O   0  0  0  0  0  0  0  0  0  0  0  0
   17.7454  -85.2177   69.6802 N   0  0  0  0  0  0  0  0  0  0  0  0
   17.3105  -86.5508   70.1159 C   0  0  1  0  0  0  0  0  0  0  0  0
   17.9078  -87.6100   69.2675 C   0  0  0  0  0  0  0  0  0  0  0  0
   17.9022  -87.3588   67.8299 C   0  0  0  0  0  0  0  0  0  0  0  0
   18.5531  -88.1182   66.8797 C   0  0  0  0  0  0  0  0  0  0  0  0
   18.3528  -87.5648   65.6653 N   0  0  0  0  0  0  0  0  0  0  0  0
   17.5831  -86.4545   65.7815 C   0  0  0  0  0  0  0  0  0  0  0  0
   17.1092  -85.5835   64.8327 C   0  0  0  0  0  0  0  0  0  0  0  0
   16.3076  -84.5195   65.2276 C   0  0  0  0  0  0  0  0  0  0  0  0
   16.0186  -84.3813   66.5679 C   0  0  0  0  0  0  0  0  0  0  0  0
   16.4924  -85.2506   67.5145 C   0  0  0  0  0  0  0  0  0  0  0  0
   17.3024  -86.3302   67.1459 C   0  0  0  0  0  0  0  0  0  0  0  0
   17.4416  -86.7824   71.5344 C   0  0  0  0  0  0  0  0  0  0  0  0
   17.2687  -88.0585   72.0980 O   0  0  0  0  0  0  0  0  0  0  0  0
   17.7139  -85.8757   72.3465 O   0  0  0  0  0  0  0  0  0  0  0  0
  2  1  1  6
  3  2  1  0
  4  2  1  0
  5  4  1  0
  5  6  1  6
  7  8  2  0
  7  5  1  0
 10  9  1  6
 10 12  1  0
 11 10  1  0
 12 13  1  6
 13  7  1  0
 14 12  1  0
 14 16  1  0
 15 14  2  0
 17 16  1  0
 17 28  1  0
 18 19  1  0
 17 18  1  6
 19 27  1  0
 20 19  2  0
 20 21  1  0
 21 22  1  0
 22 23  1  0
 23 24  2  0
 25 24  1  0
 26 25  2  0
 27 22  2  0
 27 26  1  0
 28 29  1  0
 30 28  2  0
M  END
$$$$
