EEH.pdb
     RDKit          3D

 29 29  0  0  1  0  0  0  0  0999 V2000
   22.5538  -12.2828  -19.5842 N   0  0  0  0  0  0  0  0  0  0  0  0
   22.7852  -11.3980  -18.4521 C   0  0  1  0  0  0  0  0  0  0  0  0
   24.0634  -10.6501  -18.7477 C   0  0  0  0  0  0  0  0  0  0  0  0
   23.9566   -9.6626  -19.8617 C   0  0  0  0  0  0  0  0  0  0  0  0
   25.3175   -9.1843  -20.1753 C   0  0  0  0  0  0  0  0  0  0  0  0
   25.4899   -8.3213  -21.0570 O   0  0  0  0  0  0  0  0  0  0  0  0
   21.6321  -10.5077  -18.2539 C   0  0  0  0  0  0  0  0  0  0  0  0
   20.9001  -10.0879  -19.1819 O   0  0  0  0  0  0  0  0  0  0  0  0
   26.4013   -9.6889  -19.4954 O   0  0  0  0  0  0  0  0  0  0  0  0
   21.3198  -10.0923  -16.9355 N   0  0  0  0  0  0  0  0  0  0  0  0
   20.1209   -9.2276  -16.6939 C   0  0  1  0  0  0  0  0  0  0  0  0
   19.2896   -9.8847  -15.6384 C   0  0  0  0  0  0  0  0  0  0  0  0
   18.4081  -10.9692  -16.1381 C   0  0  0  0  0  0  0  0  0  0  0  0
   17.6460  -11.6926  -15.1066 C   0  0  0  0  0  0  0  0  0  0  0  0
   18.2325  -12.1386  -14.0981 O   0  0  0  0  0  0  0  0  0  0  0  0
   20.6563   -7.9195  -16.2687 C   0  0  0  0  0  0  0  0  0  0  0  0
   21.6763   -7.8844  -15.4915 O   0  0  0  0  0  0  0  0  0  0  0  0
   16.2797  -11.9022  -15.2120 O   0  0  0  0  0  0  0  0  0  0  0  0
   20.1583   -6.6504  -16.6365 N   0  0  0  0  0  0  0  0  0  0  0  0
   20.6753   -5.4171  -16.0411 C   0  0  1  0  0  0  0  0  0  0  0  0
   20.1707   -4.2109  -16.8090 C   0  0  0  0  0  0  0  0  0  0  0  0
   20.7789   -2.9815  -16.2909 C   0  0  0  0  0  0  0  0  0  0  0  0
   22.0928   -2.6077  -16.4453 C   0  0  0  0  0  0  0  0  0  0  0  0
   22.2240   -1.4219  -15.8170 N   0  0  0  0  0  0  0  0  0  0  0  0
   21.0439   -1.0903  -15.3041 C   0  0  0  0  0  0  0  0  0  0  0  0
   20.1486   -2.0373  -15.5869 N   0  0  0  0  0  0  0  0  0  0  0  0
   20.3205   -5.4154  -14.6213 C   0  0  0  0  0  0  0  0  0  0  0  0
   19.2733   -6.2119  -14.1330 O   0  0  0  0  0  0  0  0  0  0  0  0
   20.9389   -4.7015  -13.7888 O   0  0  0  0  0  0  0  0  0  0  0  0
  2  1  1  6
  2  3  1  0
  4  3  1  0
  5  4  1  0
  6  5  2  0
  7  2  1  0
  8  7  2  0
  9  5  1  0
 10  7  1  0
 11 16  1  0
 11 10  1  0
 11 12  1  1
 13 12  1  0
 14 13  1  0
 15 14  2  0
 16 17  2  0
 18 14  1  0
 19 20  1  0
 19 16  1  0
 21 22  1  0
 20 21  1  6
 22 23  2  0
 24 23  1  0
 25 24  1  0
 26 25  2  0
 26 22  1  0
 27 20  1  0
 28 27  1  0
 29 27  2  0
M  END
$$$$
