EEH.pdb
     RDKit          3D

 29 29  0  0  1  0  0  0  0  0999 V2000
   17.2860  -21.9643    6.8928 N   0  0  0  0  0  0  0  0  0  0  0  0
   17.6454  -23.1457    7.6632 C   0  0  1  0  0  0  0  0  0  0  0  0
   17.3327  -24.3375    6.7901 C   0  0  0  0  0  0  0  0  0  0  0  0
   15.8756  -24.5798    6.5760 C   0  0  0  0  0  0  0  0  0  0  0  0
   15.7369  -25.7383    5.6716 C   0  0  0  0  0  0  0  0  0  0  0  0
   15.6363  -26.8886    6.1390 O   0  0  0  0  0  0  0  0  0  0  0  0
   19.0580  -23.0842    8.0659 C   0  0  0  0  0  0  0  0  0  0  0  0
   19.9910  -22.7290    7.3065 O   0  0  0  0  0  0  0  0  0  0  0  0
   15.7179  -25.5530    4.3090 O   0  0  0  0  0  0  0  0  0  0  0  0
   19.3971  -23.4467    9.3933 N   0  0  0  0  0  0  0  0  0  0  0  0
   20.8155  -23.3214    9.8578 C   0  0  1  0  0  0  0  0  0  0  0  0
   20.8445  -22.3235   10.9715 C   0  0  0  0  0  0  0  0  0  0  0  0
   21.1393  -20.9335   10.5426 C   0  0  0  0  0  0  0  0  0  0  0  0
   21.1140  -19.9214   11.6117 C   0  0  0  0  0  0  0  0  0  0  0  0
   21.9446  -18.9885   11.6049 O   0  0  0  0  0  0  0  0  0  0  0  0
   21.2101  -24.6756   10.2925 C   0  0  0  0  0  0  0  0  0  0  0  0
   20.3785  -25.3828   10.9663 O   0  0  0  0  0  0  0  0  0  0  0  0
   20.1892  -19.9632   12.6436 O   0  0  0  0  0  0  0  0  0  0  0  0
   22.4457  -25.3106   10.0389 N   0  0  0  0  0  0  0  0  0  0  0  0
   22.7572  -26.6348   10.5794 C   0  0  1  0  0  0  0  0  0  0  0  0
   23.3639  -27.5128    9.5021 C   0  0  0  0  0  0  0  0  0  0  0  0
   23.5355  -28.8835    9.9935 C   0  0  0  0  0  0  0  0  0  0  0  0
   22.7248  -29.5184   10.9041 C   0  0  0  0  0  0  0  0  0  0  0  0
   23.2409  -30.7527   11.0725 N   0  0  0  0  0  0  0  0  0  0  0  0
   24.3162  -30.8627   10.2997 C   0  0  0  0  0  0  0  0  0  0  0  0
   24.5088  -29.7243    9.6325 N   0  0  0  0  0  0  0  0  0  0  0  0
   23.6079  -26.4557   11.7566 C   0  0  0  0  0  0  0  0  0  0  0  0
   24.0097  -25.1780   12.1752 O   0  0  0  0  0  0  0  0  0  0  0  0
   24.0098  -27.4378   12.4342 O   0  0  0  0  0  0  0  0  0  0  0  0
  2  1  1  6
  2  3  1  0
  4  3  1  0
  5  4  1  0
  6  5  2  0
  7  2  1  0
  8  7  2  0
  9  5  1  0
 10  7  1  0
 11 16  1  0
 11 10  1  0
 11 12  1  1
 13 12  1  0
 14 13  1  0
 15 14  2  0
 16 17  2  0
 18 14  1  0
 19 20  1  0
 19 16  1  0
 21 22  1  0
 20 21  1  6
 22 23  2  0
 24 23  1  0
 25 24  1  0
 26 25  2  0
 26 22  1  0
 27 20  1  0
 28 27  1  0
 29 27  2  0
M  END
$$$$
