EEH.pdb
     RDKit          3D

 29 29  0  0  1  0  0  0  0  0999 V2000
   18.7489  -11.6224  -17.6146 N   0  0  0  0  0  0  0  0  0  0  0  0
   18.3824  -11.3886  -16.2256 C   0  0  1  0  0  0  0  0  0  0  0  0
   18.6108  -12.6918  -15.4976 C   0  0  0  0  0  0  0  0  0  0  0  0
   17.6627  -13.7820  -15.8724 C   0  0  0  0  0  0  0  0  0  0  0  0
   16.5471  -13.7645  -14.9059 C   0  0  0  0  0  0  0  0  0  0  0  0
   16.7017  -14.2357  -13.7632 O   0  0  0  0  0  0  0  0  0  0  0  0
   19.1659  -10.2757  -15.6696 C   0  0  0  0  0  0  0  0  0  0  0  0
   19.0965   -9.8936  -14.4769 O   0  0  0  0  0  0  0  0  0  0  0  0
   15.3321  -13.2278  -15.2624 O   0  0  0  0  0  0  0  0  0  0  0  0
   20.0585   -9.5852  -16.5268 N   0  0  0  0  0  0  0  0  0  0  0  0
   20.9010   -8.4735  -15.9813 C   0  0  1  0  0  0  0  0  0  0  0  0
   22.2592   -8.5856  -16.5975 C   0  0  0  0  0  0  0  0  0  0  0  0
   23.2373   -7.5792  -16.1144 C   0  0  0  0  0  0  0  0  0  0  0  0
   24.5618   -7.6234  -16.7563 C   0  0  0  0  0  0  0  0  0  0  0  0
   25.0036   -8.7053  -17.1971 O   0  0  0  0  0  0  0  0  0  0  0  0
   20.2034   -7.2281  -16.3567 C   0  0  0  0  0  0  0  0  0  0  0  0
   19.8460   -7.0553  -17.5766 O   0  0  0  0  0  0  0  0  0  0  0  0
   25.3518   -6.4925  -16.8931 O   0  0  0  0  0  0  0  0  0  0  0  0
   19.8663   -6.1631  -15.4929 N   0  0  0  0  0  0  0  0  0  0  0  0
   19.1940   -4.9578  -15.9809 C   0  0  1  0  0  0  0  0  0  0  0  0
   17.9080   -4.7254  -15.2119 C   0  0  0  0  0  0  0  0  0  0  0  0
   16.8649   -5.6509  -15.6646 C   0  0  0  0  0  0  0  0  0  0  0  0
   16.8225   -6.2788  -16.8868 C   0  0  0  0  0  0  0  0  0  0  0  0
   15.7030   -7.0304  -16.8861 N   0  0  0  0  0  0  0  0  0  0  0  0
   15.0929   -6.8667  -15.7171 C   0  0  0  0  0  0  0  0  0  0  0  0
   15.7940   -6.0236  -14.9582 N   0  0  0  0  0  0  0  0  0  0  0  0
   20.1447   -3.8476  -15.9091 C   0  0  0  0  0  0  0  0  0  0  0  0
   21.4575   -4.0433  -15.4537 O   0  0  0  0  0  0  0  0  0  0  0  0
   19.8208   -2.6800  -16.2513 O   0  0  0  0  0  0  0  0  0  0  0  0
  2  1  1  6
  2  3  1  0
  4  3  1  0
  5  4  1  0
  6  5  2  0
  7  2  1  0
  8  7  2  0
  9  5  1  0
 10  7  1  0
 11 16  1  0
 11 10  1  0
 11 12  1  6
 13 12  1  0
 14 13  1  0
 15 14  2  0
 16 17  2  0
 18 14  1  0
 19 20  1  0
 19 16  1  0
 21 22  1  0
 20 21  1  1
 22 23  2  0
 24 23  1  0
 25 24  1  0
 26 25  2  0
 26 22  1  0
 27 20  1  0
 28 27  1  0
 29 27  2  0
M  END
$$$$
