EEH.pdb
     RDKit          3D

 29 29  0  0  1  0  0  0  0  0999 V2000
   24.0268  -31.8187   -9.5810 N   0  0  0  0  0  0  0  0  0  0  0  0
   24.1324  -32.9436   -8.6636 C   0  0  1  0  0  0  0  0  0  0  0  0
   25.5859  -33.0350   -8.2643 C   0  0  0  0  0  0  0  0  0  0  0  0
   26.1175  -34.4275   -8.1856 C   0  0  0  0  0  0  0  0  0  0  0  0
   26.0189  -34.8716   -6.7813 C   0  0  0  0  0  0  0  0  0  0  0  0
   25.2135  -35.7671   -6.4632 O   0  0  0  0  0  0  0  0  0  0  0  0
   23.2328  -32.7548   -7.5161 C   0  0  0  0  0  0  0  0  0  0  0  0
   22.9169  -31.6353   -7.0469 O   0  0  0  0  0  0  0  0  0  0  0  0
   26.8158  -34.2990   -5.8177 O   0  0  0  0  0  0  0  0  0  0  0  0
   22.6829  -33.9035   -6.8945 N   0  0  0  0  0  0  0  0  0  0  0  0
   21.7160  -33.7436   -5.7619 C   0  0  1  0  0  0  0  0  0  0  0  0
   20.6866  -34.8216   -5.8850 C   0  0  0  0  0  0  0  0  0  0  0  0
   19.6160  -34.7679   -4.8584 C   0  0  0  0  0  0  0  0  0  0  0  0
   18.6322  -35.8623   -4.9107 C   0  0  0  0  0  0  0  0  0  0  0  0
   17.4273  -35.6271   -4.6807 O   0  0  0  0  0  0  0  0  0  0  0  0
   22.5242  -33.8618   -4.5325 C   0  0  0  0  0  0  0  0  0  0  0  0
   23.5486  -34.6340   -4.5300 O   0  0  0  0  0  0  0  0  0  0  0  0
   18.9962  -37.1660   -5.2102 O   0  0  0  0  0  0  0  0  0  0  0  0
   22.2937  -33.1932   -3.3103 N   0  0  0  0  0  0  0  0  0  0  0  0
   23.1935  -33.3466   -2.1659 C   0  0  1  0  0  0  0  0  0  0  0  0
   23.1035  -32.1338   -1.2602 C   0  0  0  0  0  0  0  0  0  0  0  0
   23.6928  -30.9608   -1.9132 C   0  0  0  0  0  0  0  0  0  0  0  0
   24.2870  -30.9445   -3.1527 C   0  0  0  0  0  0  0  0  0  0  0  0
   24.6902  -29.6748   -3.3612 N   0  0  0  0  0  0  0  0  0  0  0  0
   24.3564  -28.9525   -2.2970 C   0  0  0  0  0  0  0  0  0  0  0  0
   23.7442  -29.7279   -1.4013 N   0  0  0  0  0  0  0  0  0  0  0  0
   22.8756  -34.6132   -1.5054 C   0  0  0  0  0  0  0  0  0  0  0  0
   23.7615  -35.1957   -0.5860 O   0  0  0  0  0  0  0  0  0  0  0  0
   21.8000  -35.2251   -1.7373 O   0  0  0  0  0  0  0  0  0  0  0  0
  2  1  1  6
  2  3  1  0
  4  3  1  0
  5  4  1  0
  6  5  2  0
  7  2  1  0
  8  7  2  0
  9  5  1  0
 10  7  1  0
 11 16  1  0
 11 10  1  0
 11 12  1  1
 13 12  1  0
 14 13  1  0
 15 14  2  0
 16 17  2  0
 18 14  1  0
 19 20  1  0
 19 16  1  0
 21 22  1  0
 20 21  1  1
 22 23  2  0
 24 23  1  0
 25 24  1  0
 26 25  2  0
 26 22  1  0
 27 20  1  0
 28 27  1  0
 29 27  2  0
M  END
$$$$
