EEH.pdb
     RDKit          3D

 29 29  0  0  1  0  0  0  0  0999 V2000
   26.3516  -21.3558  -16.1603 N   0  0  0  0  0  0  0  0  0  0  0  0
   24.9236  -21.4528  -16.4243 C   0  0  1  0  0  0  0  0  0  0  0  0
   24.6052  -22.9259  -16.5197 C   0  0  0  0  0  0  0  0  0  0  0  0
   24.7403  -23.6707  -15.2332 C   0  0  0  0  0  0  0  0  0  0  0  0
   24.2358  -25.0413  -15.4480 C   0  0  0  0  0  0  0  0  0  0  0  0
   24.8787  -25.8413  -16.1539 O   0  0  0  0  0  0  0  0  0  0  0  0
   24.1604  -20.7677  -15.3710 C   0  0  0  0  0  0  0  0  0  0  0  0
   24.5944  -20.5542  -14.2138 O   0  0  0  0  0  0  0  0  0  0  0  0
   23.0539  -25.4413  -14.8695 O   0  0  0  0  0  0  0  0  0  0  0  0
   22.8513  -20.3162  -15.6723 N   0  0  0  0  0  0  0  0  0  0  0  0
   22.0710  -19.5602  -14.6412 C   0  0  1  0  0  0  0  0  0  0  0  0
   21.2332  -18.5475  -15.3549 C   0  0  0  0  0  0  0  0  0  0  0  0
   20.4115  -17.6921  -14.4626 C   0  0  0  0  0  0  0  0  0  0  0  0
   19.4671  -16.7900  -15.1427 C   0  0  0  0  0  0  0  0  0  0  0  0
   19.8667  -16.0563  -16.0713 O   0  0  0  0  0  0  0  0  0  0  0  0
   21.2646  -20.5741  -13.9340 C   0  0  0  0  0  0  0  0  0  0  0  0
   20.7603  -21.5476  -14.6002 O   0  0  0  0  0  0  0  0  0  0  0  0
   18.1290  -16.7209  -14.7872 O   0  0  0  0  0  0  0  0  0  0  0  0
   20.9752  -20.6002  -12.5521 N   0  0  0  0  0  0  0  0  0  0  0  0
   20.0914  -21.6106  -11.9684 C   0  0  1  0  0  0  0  0  0  0  0  0
   20.3363  -21.7245  -10.4763 C   0  0  0  0  0  0  0  0  0  0  0  0
   19.3499  -22.6179   -9.8610 C   0  0  0  0  0  0  0  0  0  0  0  0
   18.3555  -23.2964  -10.5248 C   0  0  0  0  0  0  0  0  0  0  0  0
   17.6826  -23.9925   -9.5863 N   0  0  0  0  0  0  0  0  0  0  0  0
   18.2423  -23.7482   -8.4063 C   0  0  0  0  0  0  0  0  0  0  0  0
   19.2657  -22.9070   -8.5596 N   0  0  0  0  0  0  0  0  0  0  0  0
   18.7139  -21.2692  -12.3256 C   0  0  0  0  0  0  0  0  0  0  0  0
   17.7803  -22.2643  -12.6536 O   0  0  0  0  0  0  0  0  0  0  0  0
   18.3173  -20.0746  -12.3525 O   0  0  0  0  0  0  0  0  0  0  0  0
  2  1  1  1
  2  3  1  0
  4  3  1  0
  5  4  1  0
  6  5  2  0
  7  2  1  0
  8  7  2  0
  9  5  1  0
 10  7  1  0
 11 16  1  0
 11 10  1  0
 11 12  1  6
 13 12  1  0
 14 13  1  0
 15 14  2  0
 16 17  2  0
 18 14  1  0
 19 20  1  0
 19 16  1  0
 21 22  1  0
 20 21  1  1
 22 23  2  0
 24 23  1  0
 25 24  1  0
 26 25  2  0
 26 22  1  0
 27 20  1  0
 28 27  1  0
 29 27  2  0
M  END
$$$$
