EEH.pdb
     RDKit          3D

 29 29  0  0  1  0  0  0  0  0999 V2000
   10.8174  -12.0886  -14.0897 N   0  0  0  0  0  0  0  0  0  0  0  0
   11.1554  -11.2853  -12.9240 C   0  0  1  0  0  0  0  0  0  0  0  0
   10.6346  -12.0359  -11.7216 C   0  0  0  0  0  0  0  0  0  0  0  0
   11.1297  -13.4394  -11.6086 C   0  0  0  0  0  0  0  0  0  0  0  0
   10.4753  -14.0580  -10.4389 C   0  0  0  0  0  0  0  0  0  0  0  0
   10.9056  -15.1316   -9.9762 O   0  0  0  0  0  0  0  0  0  0  0  0
   12.6052  -11.0478  -12.8686 C   0  0  0  0  0  0  0  0  0  0  0  0
   13.1936  -10.5129  -11.8986 O   0  0  0  0  0  0  0  0  0  0  0  0
    9.3878  -13.4519   -9.8545 O   0  0  0  0  0  0  0  0  0  0  0  0
   13.3961  -11.4445  -13.9755 N   0  0  0  0  0  0  0  0  0  0  0  0
   14.8806  -11.2491  -13.9353 C   0  0  1  0  0  0  0  0  0  0  0  0
   15.4980  -12.2518  -14.8574 C   0  0  0  0  0  0  0  0  0  0  0  0
   16.9710  -12.1329  -14.9959 C   0  0  0  0  0  0  0  0  0  0  0  0
   17.5967  -13.0725  -15.9412 C   0  0  0  0  0  0  0  0  0  0  0  0
   17.6735  -14.2855  -15.6537 O   0  0  0  0  0  0  0  0  0  0  0  0
   15.1078   -9.8567  -14.3692 C   0  0  0  0  0  0  0  0  0  0  0  0
   14.3535   -9.3539  -15.2770 O   0  0  0  0  0  0  0  0  0  0  0  0
   18.1133  -12.6573  -17.1589 O   0  0  0  0  0  0  0  0  0  0  0  0
   16.0968   -8.9765  -13.8781 N   0  0  0  0  0  0  0  0  0  0  0  0
   16.1590   -7.5754  -14.2976 C   0  0  1  0  0  0  0  0  0  0  0  0
   15.2530   -6.7256  -13.4280 C   0  0  0  0  0  0  0  0  0  0  0  0
   15.3839   -5.3087  -13.7815 C   0  0  0  0  0  0  0  0  0  0  0  0
   16.1228   -4.8057  -14.8258 C   0  0  0  0  0  0  0  0  0  0  0  0
   15.9683   -3.4667  -14.7867 N   0  0  0  0  0  0  0  0  0  0  0  0
   15.1721   -3.1696  -13.7653 C   0  0  0  0  0  0  0  0  0  0  0  0
   14.8061   -4.2892  -13.1400 N   0  0  0  0  0  0  0  0  0  0  0  0
   17.5624   -7.1605  -14.2866 C   0  0  0  0  0  0  0  0  0  0  0  0
   17.9551   -5.9123  -14.7937 O   0  0  0  0  0  0  0  0  0  0  0  0
   18.4658   -7.9056  -13.8242 O   0  0  0  0  0  0  0  0  0  0  0  0
  2  1  1  6
  2  3  1  0
  4  3  1  0
  5  4  1  0
  6  5  2  0
  7  2  1  0
  8  7  2  0
  9  5  1  0
 10  7  1  0
 11 16  1  0
 11 10  1  0
 11 12  1  6
 13 12  1  0
 14 13  1  0
 15 14  2  0
 16 17  2  0
 18 14  1  0
 19 20  1  0
 19 16  1  0
 21 22  1  0
 20 21  1  1
 22 23  2  0
 24 23  1  0
 25 24  1  0
 26 25  2  0
 26 22  1  0
 27 20  1  0
 28 27  1  0
 29 27  2  0
M  END
$$$$
