MDV.pdb
     RDKit          3D

 24 23  0  0  1  0  0  0  0  0999 V2000
   16.1429  -31.0914   -2.6853 C   0  0  0  0  0  0  0  0  0  0  0  0
   17.9293  -30.9334   -2.8206 S   0  0  0  0  0  0  0  0  0  0  0  0
   18.5654  -29.3038   -2.5307 C   0  0  0  0  0  0  0  0  0  0  0  0
   17.9325  -28.1547   -3.2054 C   0  0  0  0  0  0  0  0  0  0  0  0
   18.5260  -26.7989   -3.0067 C   0  0  2  0  0  0  0  0  0  0  0  0
   18.1282  -26.3243   -1.6798 N   0  0  0  0  0  0  0  0  0  0  0  0
   17.8620  -25.8804   -4.0096 C   0  0  0  0  0  0  0  0  0  0  0  0
   16.9116  -25.1402   -3.6479 O   0  0  0  0  0  0  0  0  0  0  0  0
   18.2757  -25.8271   -5.3359 N   0  0  0  0  0  0  0  0  0  0  0  0
   17.6848  -24.8593   -6.2746 C   0  0  1  0  0  0  0  0  0  0  0  0
   18.7273  -24.6813   -7.3450 C   0  0  0  0  0  0  0  0  0  0  0  0
   18.3972  -23.7587   -8.4211 C   0  0  0  0  0  0  0  0  0  0  0  0
   17.3754  -23.0644   -8.4738 O   0  0  0  0  0  0  0  0  0  0  0  0
   16.4799  -25.5119   -6.9241 C   0  0  0  0  0  0  0  0  0  0  0  0
   16.5517  -26.7096   -7.2896 O   0  0  0  0  0  0  0  0  0  0  0  0
   19.3139  -23.6588   -9.4702 O   0  0  0  0  0  0  0  0  0  0  0  0
   13.1421  -26.2085   -5.7229 C   0  0  0  0  0  0  0  0  0  0  0  0
   12.8441  -25.2281   -6.8803 C   0  0  1  0  0  0  0  0  0  0  0  0
   12.6780  -23.8783   -6.2017 C   0  0  0  0  0  0  0  0  0  0  0  0
   14.0818  -25.2709   -7.7556 C   0  0  2  0  0  0  0  0  0  0  0  0
   15.2857  -24.8111   -7.1279 N   0  0  0  0  0  0  0  0  0  0  0  0
   13.8151  -24.5571   -8.9995 C   0  0  0  0  0  0  0  0  0  0  0  0
   12.9291  -25.0071   -9.9439 O   0  0  0  0  0  0  0  0  0  0  0  0
   14.4040  -23.4550   -9.2810 O   0  0  0  0  0  0  0  0  0  0  0  0
  2  1  1  0
  3  2  1  0
  4  3  1  0
  5  4  1  0
  5  7  1  0
  5  6  1  1
  7  8  2  0
  9 10  1  0
  9  7  1  0
 10 14  1  0
 10 11  1  6
 12 11  1  0
 13 12  2  0
 14 15  2  0
 16 12  1  0
 18 17  1  1
 18 19  1  0
 18 20  1  0
 20 22  1  0
 20 21  1  1
 21 14  1  0
 22 24  2  0
 22 23  1  0
M  END
$$$$
