MDV.pdb
     RDKit          3D

 24 23  0  0  1  0  0  0  0  0999 V2000
   32.4080  -22.0316   -9.5739 C   0  0  0  0  0  0  0  0  0  0  0  0
   32.5083  -22.5224  -11.3013 S   0  0  0  0  0  0  0  0  0  0  0  0
   31.0777  -22.1409  -12.2770 C   0  0  0  0  0  0  0  0  0  0  0  0
   29.8530  -21.6694  -11.6032 C   0  0  0  0  0  0  0  0  0  0  0  0
   28.7202  -21.1836  -12.4462 C   0  0  2  0  0  0  0  0  0  0  0  0
   29.2508  -20.1913  -13.3833 N   0  0  0  0  0  0  0  0  0  0  0  0
   27.7759  -20.4432  -11.5239 C   0  0  0  0  0  0  0  0  0  0  0  0
   27.9073  -19.2036  -11.3564 O   0  0  0  0  0  0  0  0  0  0  0  0
   26.7529  -21.0985  -10.8477 N   0  0  0  0  0  0  0  0  0  0  0  0
   25.9394  -20.3962   -9.8418 C   0  0  1  0  0  0  0  0  0  0  0  0
   24.5439  -20.9200  -10.0470 C   0  0  0  0  0  0  0  0  0  0  0  0
   23.7949  -20.3460  -11.1551 C   0  0  0  0  0  0  0  0  0  0  0  0
   24.1487  -19.3653  -11.8199 O   0  0  0  0  0  0  0  0  0  0  0  0
   26.3942  -20.8531   -8.4692 C   0  0  0  0  0  0  0  0  0  0  0  0
   26.4246  -22.0795   -8.2081 O   0  0  0  0  0  0  0  0  0  0  0  0
   22.5839  -20.9597  -11.4834 O   0  0  0  0  0  0  0  0  0  0  0  0
   28.5078  -19.6128   -4.1565 C   0  0  0  0  0  0  0  0  0  0  0  0
   27.9773  -19.0421   -5.4917 C   0  0  1  0  0  0  0  0  0  0  0  0
   29.2255  -18.6054   -6.2410 C   0  0  0  0  0  0  0  0  0  0  0  0
   27.2922  -20.2124   -6.1706 C   0  0  2  0  0  0  0  0  0  0  0  0
   26.7817  -19.9397   -7.4820 N   0  0  0  0  0  0  0  0  0  0  0  0
   26.2579  -20.7410   -5.2881 C   0  0  0  0  0  0  0  0  0  0  0  0
   26.5345  -21.5312   -4.2024 O   0  0  0  0  0  0  0  0  0  0  0  0
   25.0168  -20.4923   -5.4834 O   0  0  0  0  0  0  0  0  0  0  0  0
  2  1  1  0
  3  2  1  0
  4  3  1  0
  5  4  1  0
  5  7  1  0
  5  6  1  6
  7  8  2  0
  9 10  1  0
  9  7  1  0
 10 14  1  0
 10 11  1  6
 12 11  1  0
 13 12  2  0
 14 15  2  0
 16 12  1  0
 18 17  1  1
 18 19  1  0
 18 20  1  0
 20 22  1  0
 20 21  1  6
 21 14  1  0
 22 24  2  0
 22 23  1  0
M  END
$$$$
