MDV.pdb
     RDKit          3D

 24 23  0  0  1  0  0  0  0  0999 V2000
   17.4432  -18.9849  -13.7865 C   0  0  0  0  0  0  0  0  0  0  0  0
   17.1789  -18.7095  -15.5441 S   0  0  0  0  0  0  0  0  0  0  0  0
   18.4777  -19.2921  -16.6014 C   0  0  0  0  0  0  0  0  0  0  0  0
   19.6411  -19.9732  -16.0023 C   0  0  0  0  0  0  0  0  0  0  0  0
   20.8448  -19.1574  -15.6626 C   0  0  2  0  0  0  0  0  0  0  0  0
   21.3028  -18.5001  -16.8884 N   0  0  0  0  0  0  0  0  0  0  0  0
   21.9331  -20.1304  -15.2633 C   0  0  0  0  0  0  0  0  0  0  0  0
   21.6338  -21.3115  -14.9510 O   0  0  0  0  0  0  0  0  0  0  0  0
   23.2716  -19.7556  -15.2317 N   0  0  0  0  0  0  0  0  0  0  0  0
   24.3192  -20.7207  -14.8604 C   0  0  1  0  0  0  0  0  0  0  0  0
   25.2608  -20.7314  -16.0340 C   0  0  0  0  0  0  0  0  0  0  0  0
   26.4634  -21.5383  -15.8899 C   0  0  0  0  0  0  0  0  0  0  0  0
   26.6811  -22.3310  -14.9663 O   0  0  0  0  0  0  0  0  0  0  0  0
   25.0807  -20.1540  -13.6777 C   0  0  0  0  0  0  0  0  0  0  0  0
   25.4994  -18.9727  -13.7249 O   0  0  0  0  0  0  0  0  0  0  0  0
   27.4403  -21.3972  -16.8782 O   0  0  0  0  0  0  0  0  0  0  0  0
   26.5061  -20.4523   -8.9918 C   0  0  0  0  0  0  0  0  0  0  0  0
   25.6044  -21.1056  -10.0641 C   0  0  1  0  0  0  0  0  0  0  0  0
   24.2081  -20.5943   -9.7493 C   0  0  0  0  0  0  0  0  0  0  0  0
   26.1177  -20.5670  -11.3856 C   0  0  2  0  0  0  0  0  0  0  0  0
   25.3302  -20.9167  -12.5310 N   0  0  0  0  0  0  0  0  0  0  0  0
   27.5142  -20.9547  -11.5520 C   0  0  0  0  0  0  0  0  0  0  0  0
   28.5522  -20.2791  -10.9643 O   0  0  0  0  0  0  0  0  0  0  0  0
   27.8509  -21.9621  -12.2678 O   0  0  0  0  0  0  0  0  0  0  0  0
  2  1  1  0
  3  2  1  0
  4  3  1  0
  5  4  1  0
  5  7  1  0
  5  6  1  6
  7  8  2  0
  9 10  1  0
  9  7  1  0
 10 14  1  0
 10 11  1  6
 12 11  1  0
 13 12  2  0
 14 15  2  0
 16 12  1  0
 18 17  1  1
 18 19  1  0
 18 20  1  0
 20 22  1  0
 20 21  1  6
 21 14  1  0
 22 24  2  0
 22 23  1  0
M  END
$$$$
