MDV.pdb
     RDKit          3D

 24 23  0  0  1  0  0  0  0  0999 V2000
   14.7118  -13.0568  -13.8119 C   0  0  0  0  0  0  0  0  0  0  0  0
   14.7065  -14.4419  -14.9591 S   0  0  0  0  0  0  0  0  0  0  0  0
   15.2038  -14.0501  -16.6154 C   0  0  0  0  0  0  0  0  0  0  0  0
   16.3955  -13.2067  -16.8275 C   0  0  0  0  0  0  0  0  0  0  0  0
   16.8191  -12.9149  -18.2293 C   0  0  2  0  0  0  0  0  0  0  0  0
   17.2922  -14.1659  -18.8255 N   0  0  0  0  0  0  0  0  0  0  0  0
   18.0206  -11.9988  -18.1405 C   0  0  0  0  0  0  0  0  0  0  0  0
   19.1807  -12.4769  -18.2276 O   0  0  0  0  0  0  0  0  0  0  0  0
   17.8807  -10.6267  -17.9649 N   0  0  0  0  0  0  0  0  0  0  0  0
   19.0335   -9.7234  -18.1130 C   0  0  1  0  0  0  0  0  0  0  0  0
   18.4564   -8.4611  -18.6941 C   0  0  0  0  0  0  0  0  0  0  0  0
   19.3932   -7.3734  -18.9341 C   0  0  0  0  0  0  0  0  0  0  0  0
   19.1862   -6.1845  -18.6647 O   0  0  0  0  0  0  0  0  0  0  0  0
   19.5464   -9.3868  -16.7262 C   0  0  0  0  0  0  0  0  0  0  0  0
   18.7381   -9.3286  -15.7689 O   0  0  0  0  0  0  0  0  0  0  0  0
   20.6178   -7.7117  -19.5144 O   0  0  0  0  0  0  0  0  0  0  0  0
   23.3294   -9.3796  -13.6232 C   0  0  0  0  0  0  0  0  0  0  0  0
   22.9008   -9.6351  -15.0864 C   0  0  1  0  0  0  0  0  0  0  0  0
   22.7693  -11.1461  -15.1854 C   0  0  0  0  0  0  0  0  0  0  0  0
   21.5593   -8.9418  -15.2260 C   0  0  2  0  0  0  0  0  0  0  0  0
   20.9024   -9.1379  -16.4848 N   0  0  0  0  0  0  0  0  0  0  0  0
   21.7162   -7.5254  -14.9140 C   0  0  0  0  0  0  0  0  0  0  0  0
   21.9303   -7.0598  -13.6425 O   0  0  0  0  0  0  0  0  0  0  0  0
   21.6606   -6.6268  -15.8250 O   0  0  0  0  0  0  0  0  0  0  0  0
  2  1  1  0
  3  2  1  0
  4  3  1  0
  5  4  1  0
  5  7  1  0
  5  6  1  1
  7  8  2  0
  9 10  1  0
  9  7  1  0
 10 14  1  0
 10 11  1  1
 12 11  1  0
 13 12  2  0
 14 15  2  0
 16 12  1  0
 18 17  1  1
 18 19  1  0
 18 20  1  0
 20 22  1  0
 20 21  1  6
 21 14  1  0
 22 24  2  0
 22 23  1  0
M  END
$$$$
