MDV.pdb
     RDKit          3D

 24 23  0  0  1  0  0  0  0  0999 V2000
   28.9226  -18.5991   -6.4026 C   0  0  0  0  0  0  0  0  0  0  0  0
   28.2011  -20.2271   -6.1502 S   0  0  0  0  0  0  0  0  0  0  0  0
   26.7244  -20.5487   -7.0775 C   0  0  0  0  0  0  0  0  0  0  0  0
   26.5215  -19.8614   -8.3671 C   0  0  0  0  0  0  0  0  0  0  0  0
   25.1950  -19.9907   -9.0402 C   0  0  2  0  0  0  0  0  0  0  0  0
   24.6951  -21.3445   -8.7920 N   0  0  0  0  0  0  0  0  0  0  0  0
   25.4494  -19.8918  -10.5289 C   0  0  0  0  0  0  0  0  0  0  0  0
   25.9898  -18.8606  -11.0049 O   0  0  0  0  0  0  0  0  0  0  0  0
   25.1014  -20.9192  -11.3986 N   0  0  0  0  0  0  0  0  0  0  0  0
   25.1539  -20.7266  -12.8570 C   0  0  1  0  0  0  0  0  0  0  0  0
   25.9869  -21.8728  -13.3631 C   0  0  0  0  0  0  0  0  0  0  0  0
   27.3573  -21.5586  -13.7393 C   0  0  0  0  0  0  0  0  0  0  0  0
   28.3626  -21.8785  -13.0945 O   0  0  0  0  0  0  0  0  0  0  0  0
   23.7522  -20.9126  -13.4050 C   0  0  0  0  0  0  0  0  0  0  0  0
   22.9792  -21.7309  -12.8519 O   0  0  0  0  0  0  0  0  0  0  0  0
   27.5377  -20.8393  -14.9229 O   0  0  0  0  0  0  0  0  0  0  0  0
   22.4835  -19.4990  -17.2816 C   0  0  0  0  0  0  0  0  0  0  0  0
   21.7573  -18.9546  -16.0302 C   0  0  1  0  0  0  0  0  0  0  0  0
   20.3035  -18.8342  -16.4567 C   0  0  0  0  0  0  0  0  0  0  0  0
   21.9482  -20.0247  -14.9727 C   0  0  2  0  0  0  0  0  0  0  0  0
   23.2964  -20.1935  -14.5159 N   0  0  0  0  0  0  0  0  0  0  0  0
   21.3796  -21.2798  -15.4517 C   0  0  0  0  0  0  0  0  0  0  0  0
   20.0719  -21.6351  -15.2436 O   0  0  0  0  0  0  0  0  0  0  0  0
   22.0823  -22.1309  -16.1016 O   0  0  0  0  0  0  0  0  0  0  0  0
  2  1  1  0
  3  2  1  0
  4  3  1  0
  5  4  1  0
  5  7  1  0
  5  6  1  6
  7  8  2  0
  9 10  1  0
  9  7  1  0
 10 14  1  0
 10 11  1  6
 12 11  1  0
 13 12  2  0
 14 15  2  0
 16 12  1  0
 18 17  1  6
 18 19  1  0
 18 20  1  0
 20 22  1  0
 20 21  1  6
 21 14  1  0
 22 24  2  0
 22 23  1  0
M  END
$$$$
