MDV.pdb
     RDKit          3D

 24 23  0  0  1  0  0  0  0  0999 V2000
   26.3355  -20.0949   -7.1443 C   0  0  0  0  0  0  0  0  0  0  0  0
   25.7122  -20.4551   -8.7924 S   0  0  0  0  0  0  0  0  0  0  0  0
   26.9545  -20.6387  -10.0442 C   0  0  0  0  0  0  0  0  0  0  0  0
   26.5540  -20.6119  -11.4638 C   0  0  0  0  0  0  0  0  0  0  0  0
   25.2847  -21.2932  -11.8569 C   0  0  2  0  0  0  0  0  0  0  0  0
   25.5327  -22.7364  -11.8634 N   0  0  0  0  0  0  0  0  0  0  0  0
   25.0032  -20.8982  -13.2905 C   0  0  0  0  0  0  0  0  0  0  0  0
   25.4687  -21.5882  -14.2334 O   0  0  0  0  0  0  0  0  0  0  0  0
   24.2348  -19.7823  -13.6026 N   0  0  0  0  0  0  0  0  0  0  0  0
   23.8787  -19.4746  -14.9973 C   0  0  1  0  0  0  0  0  0  0  0  0
   22.4217  -19.1025  -14.9455 C   0  0  0  0  0  0  0  0  0  0  0  0
   21.4952  -20.1677  -14.5918 C   0  0  0  0  0  0  0  0  0  0  0  0
   21.3779  -21.2386  -15.1986 O   0  0  0  0  0  0  0  0  0  0  0  0
   24.6454  -18.2344  -15.4141 C   0  0  0  0  0  0  0  0  0  0  0  0
   24.3982  -17.1408  -14.8519 O   0  0  0  0  0  0  0  0  0  0  0  0
   20.6803  -19.9513  -13.4782 O   0  0  0  0  0  0  0  0  0  0  0  0
   28.2424  -17.8971  -15.3190 C   0  0  0  0  0  0  0  0  0  0  0  0
   27.9705  -17.5392  -16.7981 C   0  0  1  0  0  0  0  0  0  0  0  0
   28.3081  -18.8077  -17.5643 C   0  0  0  0  0  0  0  0  0  0  0  0
   26.4885  -17.2227  -16.8562 C   0  0  2  0  0  0  0  0  0  0  0  0
   25.6244  -18.2772  -16.4133 N   0  0  0  0  0  0  0  0  0  0  0  0
   26.1459  -16.7732  -18.2010 C   0  0  0  0  0  0  0  0  0  0  0  0
   26.6722  -15.6409  -18.7670 O   0  0  0  0  0  0  0  0  0  0  0  0
   25.3217  -17.4217  -18.9364 O   0  0  0  0  0  0  0  0  0  0  0  0
  2  1  1  0
  3  2  1  0
  4  3  1  0
  5  4  1  0
  5  7  1  0
  5  6  1  6
  7  8  2  0
  9 10  1  0
  9  7  1  0
 10 14  1  0
 10 11  1  1
 12 11  1  0
 13 12  2  0
 14 15  2  0
 16 12  1  0
 18 17  1  1
 18 19  1  0
 18 20  1  0
 20 22  1  0
 20 21  1  6
 21 14  1  0
 22 24  2  0
 22 23  1  0
M  END
$$$$
