SMT.pdb
     RDKit          3D

 22 21  0  0  1  0  0  0  0  0999 V2000
    7.8161  -16.9603   20.6095 O   0  0  0  0  0  0  0  0  0  0  0  0
    6.7280  -16.1035   20.4810 C   0  0  0  0  0  0  0  0  0  0  0  0
    7.2169  -14.6991   20.7077 C   0  0  2  0  0  0  0  0  0  0  0  0
    8.0982  -14.3219   19.6218 N   0  0  0  0  0  0  0  0  0  0  0  0
    7.9705  -14.5496   21.9705 C   0  0  0  0  0  0  0  0  0  0  0  0
    9.2204  -14.5270   21.9342 O   0  0  0  0  0  0  0  0  0  0  0  0
    7.2524  -11.9219   28.1532 C   0  0  0  0  0  0  0  0  0  0  0  0
    6.3409  -11.4189   26.6598 S   0  0  0  0  0  0  0  0  0  0  0  0
    7.0681  -12.2806   25.2580 C   0  0  0  0  0  0  0  0  0  0  0  0
    7.2138  -13.7717   25.5473 C   0  0  0  0  0  0  0  0  0  0  0  0
    8.0475  -14.4514   24.4958 C   0  0  2  0  0  0  0  0  0  0  0  0
    7.3454  -14.4287   23.2420 N   0  0  0  0  0  0  0  0  0  0  0  0
    8.3594  -15.8260   24.9580 C   0  0  0  0  0  0  0  0  0  0  0  0
    7.3822  -16.6086   25.0917 O   0  0  0  0  0  0  0  0  0  0  0  0
   10.1156  -18.5063   23.4391 C   0  0  0  0  0  0  0  0  0  0  0  0
   10.7978  -18.3973   24.7857 C   0  0  1  0  0  0  0  0  0  0  0  0
   12.0170  -17.7640   24.5553 O   0  0  0  0  0  0  0  0  0  0  0  0
    9.9037  -17.5916   25.6922 C   0  0  2  0  0  0  0  0  0  0  0  0
    9.6831  -16.2568   25.2410 N   0  0  0  0  0  0  0  0  0  0  0  0
   10.4903  -17.6010   27.0635 C   0  0  0  0  0  0  0  0  0  0  0  0
   10.7229  -16.5210   27.6618 O   0  0  0  0  0  0  0  0  0  0  0  0
   10.8026  -18.7705   27.7353 O   0  0  0  0  0  0  0  0  0  0  0  0
  1  2  1  0
  2  3  1  0
  3  4  1  6
  5 12  1  0
  5  3  1  0
  6  5  2  0
  8  9  1  0
  8  7  1  0
  9 10  1  0
 11 10  1  1
 11 13  1  0
 11 12  1  0
 13 19  1  0
 14 13  2  0
 16 17  1  0
 16 15  1  6
 18 16  1  0
 18 19  1  6
 20 18  1  0
 20 22  1  0
 21 20  2  0
M  END
$$$$
