SMT.pdb
     RDKit          3D

 22 21  0  0  1  0  0  0  0  0999 V2000
    7.8168  -17.7790   20.4690 O   0  0  0  0  0  0  0  0  0  0  0  0
    7.0416  -16.6904   20.0834 C   0  0  0  0  0  0  0  0  0  0  0  0
    7.9044  -15.4604   20.1559 C   0  0  2  0  0  0  0  0  0  0  0  0
    9.0592  -15.6391   19.2999 N   0  0  0  0  0  0  0  0  0  0  0  0
    8.3962  -15.1830   21.5219 C   0  0  0  0  0  0  0  0  0  0  0  0
    9.6135  -15.3247   21.7707 O   0  0  0  0  0  0  0  0  0  0  0  0
    7.1564  -11.3829   28.2408 C   0  0  0  0  0  0  0  0  0  0  0  0
    6.3029  -12.1287   26.8162 S   0  0  0  0  0  0  0  0  0  0  0  0
    7.4402  -13.2877   26.0415 C   0  0  0  0  0  0  0  0  0  0  0  0
    6.9709  -13.6602   24.6383 C   0  0  0  0  0  0  0  0  0  0  0  0
    8.0036  -14.4853   23.9201 C   0  0  2  0  0  0  0  0  0  0  0  0
    7.5511  -14.7583   22.5837 N   0  0  0  0  0  0  0  0  0  0  0  0
    8.2533  -15.7171   24.7081 C   0  0  0  0  0  0  0  0  0  0  0  0
    7.2777  -16.5001   24.8499 O   0  0  0  0  0  0  0  0  0  0  0  0
   10.3910  -18.4280   23.9159 C   0  0  0  0  0  0  0  0  0  0  0  0
   10.7910  -18.1157   25.3417 C   0  0  1  0  0  0  0  0  0  0  0  0
   12.0079  -17.4419   25.2670 O   0  0  0  0  0  0  0  0  0  0  0  0
    9.7076  -17.2622   25.9485 C   0  0  2  0  0  0  0  0  0  0  0  0
    9.5182  -16.0161   25.2812 N   0  0  0  0  0  0  0  0  0  0  0  0
   10.0247  -17.0520   27.3908 C   0  0  0  0  0  0  0  0  0  0  0  0
   10.1344  -15.8891   27.8537 O   0  0  0  0  0  0  0  0  0  0  0  0
   10.2107  -18.1000   28.2760 O   0  0  0  0  0  0  0  0  0  0  0  0
  1  2  1  0
  2  3  1  0
  3  4  1  6
  5 12  1  0
  5  3  1  0
  6  5  2  0
  8  9  1  0
  8  7  1  0
  9 10  1  0
 11 10  1  1
 11 13  1  0
 11 12  1  0
 13 19  1  0
 14 13  2  0
 16 17  1  0
 16 15  1  6
 18 16  1  0
 18 19  1  6
 20 18  1  0
 20 22  1  0
 21 20  2  0
M  END
$$$$
