SMT.pdb
     RDKit          3D

 22 21  0  0  1  0  0  0  0  0999 V2000
   -4.3266  -29.8636   27.9237 O   0  0  0  0  0  0  0  0  0  0  0  0
   -4.2280  -28.5761   28.4405 C   0  0  0  0  0  0  0  0  0  0  0  0
   -3.5547  -27.7143   27.4078 C   0  0  2  0  0  0  0  0  0  0  0  0
   -2.1415  -28.0306   27.3735 N   0  0  0  0  0  0  0  0  0  0  0  0
   -3.6851  -26.2695   27.6912 C   0  0  0  0  0  0  0  0  0  0  0  0
   -3.0511  -25.7781   28.6507 O   0  0  0  0  0  0  0  0  0  0  0  0
   -4.7709  -18.9675   25.2408 C   0  0  0  0  0  0  0  0  0  0  0  0
   -4.4271  -20.7044   24.8172 S   0  0  0  0  0  0  0  0  0  0  0  0
   -4.7992  -21.7053   26.2651 C   0  0  0  0  0  0  0  0  0  0  0  0
   -4.5436  -23.1840   25.9890 C   0  0  0  0  0  0  0  0  0  0  0  0
   -4.7211  -24.0090   27.2343 C   0  0  2  0  0  0  0  0  0  0  0  0
   -4.5024  -25.3950   26.9237 N   0  0  0  0  0  0  0  0  0  0  0  0
   -6.0739  -23.7469   27.7837 C   0  0  0  0  0  0  0  0  0  0  0  0
   -7.0450  -23.9655   27.0127 O   0  0  0  0  0  0  0  0  0  0  0  0
   -8.1137  -25.4211   29.8884 C   0  0  0  0  0  0  0  0  0  0  0  0
   -8.0855  -24.0719   30.5735 C   0  0  1  0  0  0  0  0  0  0  0  0
   -7.2023  -24.1960   31.6437 O   0  0  0  0  0  0  0  0  0  0  0  0
   -7.6161  -23.0532   29.5673 C   0  0  2  0  0  0  0  0  0  0  0  0
   -6.2847  -23.2739   29.1065 N   0  0  0  0  0  0  0  0  0  0  0  0
   -7.7536  -21.6960   30.1707 C   0  0  0  0  0  0  0  0  0  0  0  0
   -6.7443  -20.9630   30.3212 O   0  0  0  0  0  0  0  0  0  0  0  0
   -8.9699  -21.1825   30.5872 O   0  0  0  0  0  0  0  0  0  0  0  0
  1  2  1  0
  2  3  1  0
  3  4  1  1
  5 12  1  0
  5  3  1  0
  6  5  2  0
  8  9  1  0
  8  7  1  0
  9 10  1  0
 11 10  1  6
 11 13  1  0
 11 12  1  0
 13 19  1  0
 14 13  2  0
 16 17  1  0
 16 15  1  6
 18 16  1  0
 18 19  1  1
 20 18  1  0
 20 22  1  0
 21 20  2  0
M  END
$$$$
