SMT.pdb
     RDKit          3D

 22 21  0  0  1  0  0  0  0  0999 V2000
    7.6600  -17.2711   20.4490 O   0  0  0  0  0  0  0  0  0  0  0  0
    6.6932  -16.3388   20.0879 C   0  0  0  0  0  0  0  0  0  0  0  0
    7.3167  -14.9722   20.1684 C   0  0  2  0  0  0  0  0  0  0  0  0
    8.3181  -14.8452   19.1296 N   0  0  0  0  0  0  0  0  0  0  0  0
    7.9796  -14.7184   21.4650 C   0  0  0  0  0  0  0  0  0  0  0  0
    9.2242  -14.8135   21.5409 O   0  0  0  0  0  0  0  0  0  0  0  0
    6.8347  -10.5360   26.8179 C   0  0  0  0  0  0  0  0  0  0  0  0
    6.5240  -12.2687   27.2822 S   0  0  0  0  0  0  0  0  0  0  0  0
    7.5612  -13.3086   26.2432 C   0  0  0  0  0  0  0  0  0  0  0  0
    6.9626  -13.4588   24.8478 C   0  0  0  0  0  0  0  0  0  0  0  0
    7.8734  -14.2472   23.9467 C   0  0  2  0  0  0  0  0  0  0  0  0
    7.2716  -14.3674   22.6472 N   0  0  0  0  0  0  0  0  0  0  0  0
    8.1428  -15.5603   24.5820 C   0  0  0  0  0  0  0  0  0  0  0  0
    7.1530  -16.3232   24.7357 O   0  0  0  0  0  0  0  0  0  0  0  0
   10.0207  -18.3673   23.4955 C   0  0  0  0  0  0  0  0  0  0  0  0
   10.5798  -18.1282   24.8814 C   0  0  1  0  0  0  0  0  0  0  0  0
   11.8246  -17.5292   24.7021 O   0  0  0  0  0  0  0  0  0  0  0  0
    9.6199  -17.2297   25.6175 C   0  0  2  0  0  0  0  0  0  0  0  0
    9.4409  -15.9557   25.0023 N   0  0  0  0  0  0  0  0  0  0  0  0
   10.0963  -17.0809   27.0231 C   0  0  0  0  0  0  0  0  0  0  0  0
   10.2464  -18.0926   27.7529 O   0  0  0  0  0  0  0  0  0  0  0  0
   10.3919  -15.8513   27.5863 O   0  0  0  0  0  0  0  0  0  0  0  0
  1  2  1  0
  2  3  1  0
  3  4  1  6
  5 12  1  0
  5  3  1  0
  6  5  2  0
  8  9  1  0
  8  7  1  0
  9 10  1  0
 11 10  1  1
 11 13  1  0
 11 12  1  0
 13 19  1  0
 14 13  2  0
 16 17  1  0
 16 15  1  6
 18 16  1  0
 18 19  1  6
 20 18  1  0
 20 22  1  0
 21 20  2  0
M  END
$$$$
