SMT.pdb
     RDKit          3D

 22 21  0  0  1  0  0  0  0  0999 V2000
    7.6078  -17.7757   14.7214 O   0  0  0  0  0  0  0  0  0  0  0  0
    8.4548  -17.0752   15.5738 C   0  0  0  0  0  0  0  0  0  0  0  0
    8.6333  -17.8941   16.8228 C   0  0  2  0  0  0  0  0  0  0  0  0
    7.3748  -18.5274   17.1594 N   0  0  0  0  0  0  0  0  0  0  0  0
    9.0540  -17.0844   17.9857 C   0  0  0  0  0  0  0  0  0  0  0  0
   10.2303  -16.6632   18.0403 O   0  0  0  0  0  0  0  0  0  0  0  0
    7.6279  -12.3055   21.9336 C   0  0  0  0  0  0  0  0  0  0  0  0
    7.8171  -12.4838   20.1317 S   0  0  0  0  0  0  0  0  0  0  0  0
    7.0561  -14.0421   19.6526 C   0  0  0  0  0  0  0  0  0  0  0  0
    7.3875  -15.1442   20.6545 C   0  0  0  0  0  0  0  0  0  0  0  0
    8.5657  -15.9597   20.1968 C   0  0  2  0  0  0  0  0  0  0  0  0
    8.1844  -16.7532   19.0609 N   0  0  0  0  0  0  0  0  0  0  0  0
    9.0440  -16.7777   21.3382 C   0  0  0  0  0  0  0  0  0  0  0  0
    8.1854  -17.4993   21.9104 O   0  0  0  0  0  0  0  0  0  0  0  0
   13.0100  -17.8754   21.5595 C   0  0  0  0  0  0  0  0  0  0  0  0
   11.8617  -18.7070   22.0889 C   0  0  1  0  0  0  0  0  0  0  0  0
   12.4069  -19.5620   23.0440 O   0  0  0  0  0  0  0  0  0  0  0  0
   10.8469  -17.7660   22.6849 C   0  0  2  0  0  0  0  0  0  0  0  0
   10.3944  -16.7621   21.7787 N   0  0  0  0  0  0  0  0  0  0  0  0
   11.4352  -17.1521   23.9104 C   0  0  0  0  0  0  0  0  0  0  0  0
   11.6186  -15.9108   23.9732 O   0  0  0  0  0  0  0  0  0  0  0  0
   11.8018  -17.8975   25.0179 O   0  0  0  0  0  0  0  0  0  0  0  0
  1  2  1  0
  2  3  1  0
  3  4  1  1
  5 12  1  0
  5  3  1  0
  6  5  2  0
  8  9  1  0
  8  7  1  0
  9 10  1  0
 11 10  1  1
 11 13  1  0
 11 12  1  0
 13 19  1  0
 14 13  2  0
 16 17  1  0
 16 15  1  1
 18 16  1  0
 18 19  1  6
 20 18  1  0
 20 22  1  0
 21 20  2  0
M  END
$$$$
