SMT.pdb
     RDKit          3D

 22 21  0  0  1  0  0  0  0  0999 V2000
    7.2397  -17.5399   20.7864 O   0  0  0  0  0  0  0  0  0  0  0  0
    6.6612  -16.3603   20.3299 C   0  0  0  0  0  0  0  0  0  0  0  0
    7.7028  -15.2775   20.4013 C   0  0  2  0  0  0  0  0  0  0  0  0
    8.7553  -15.5673   19.4492 N   0  0  0  0  0  0  0  0  0  0  0  0
    8.3244  -15.1650   21.7377 C   0  0  0  0  0  0  0  0  0  0  0  0
    9.4638  -15.6467   21.9213 O   0  0  0  0  0  0  0  0  0  0  0  0
    5.5630  -11.9882   26.9452 C   0  0  0  0  0  0  0  0  0  0  0  0
    7.3563  -11.7441   27.1424 S   0  0  0  0  0  0  0  0  0  0  0  0
    8.1899  -13.0790   26.2706 C   0  0  0  0  0  0  0  0  0  0  0  0
    7.5143  -13.3653   24.9328 C   0  0  0  0  0  0  0  0  0  0  0  0
    8.2809  -14.3917   24.1444 C   0  0  2  0  0  0  0  0  0  0  0  0
    7.6906  -14.5311   22.8416 N   0  0  0  0  0  0  0  0  0  0  0  0
    8.2934  -15.6615   24.9115 C   0  0  0  0  0  0  0  0  0  0  0  0
    7.1824  -16.2321   25.0707 O   0  0  0  0  0  0  0  0  0  0  0  0
    9.5555  -18.7148   23.9301 C   0  0  0  0  0  0  0  0  0  0  0  0
   10.2056  -18.5632   25.2884 C   0  0  1  0  0  0  0  0  0  0  0  0
   11.5240  -18.1818   25.0497 O   0  0  0  0  0  0  0  0  0  0  0  0
    9.4414  -17.5120   26.0510 C   0  0  2  0  0  0  0  0  0  0  0  0
    9.4843  -16.2209   25.4469 N   0  0  0  0  0  0  0  0  0  0  0  0
    9.9669  -17.4658   27.4462 C   0  0  0  0  0  0  0  0  0  0  0  0
   10.4316  -16.3965   27.9143 O   0  0  0  0  0  0  0  0  0  0  0  0
    9.9710  -18.5704   28.2807 O   0  0  0  0  0  0  0  0  0  0  0  0
  1  2  1  0
  2  3  1  0
  3  4  1  6
  5 12  1  0
  5  3  1  0
  6  5  2  0
  8  9  1  0
  8  7  1  0
  9 10  1  0
 11 10  1  1
 11 13  1  0
 11 12  1  0
 13 19  1  0
 14 13  2  0
 16 17  1  0
 16 15  1  6
 18 16  1  0
 18 19  1  6
 20 18  1  0
 20 22  1  0
 21 20  2  0
M  END
$$$$
