SMT.pdb
     RDKit          3D

 22 21  0  0  1  0  0  0  0  0999 V2000
    7.5635  -17.4885   19.4056 O   0  0  0  0  0  0  0  0  0  0  0  0
    8.3968  -17.3385   20.5091 C   0  0  0  0  0  0  0  0  0  0  0  0
    8.5432  -15.8662   20.7803 C   0  0  2  0  0  0  0  0  0  0  0  0
    9.6221  -15.3390   19.9701 N   0  0  0  0  0  0  0  0  0  0  0  0
    8.8572  -15.5706   22.1941 C   0  0  0  0  0  0  0  0  0  0  0  0
   10.0535  -15.4608   22.5416 O   0  0  0  0  0  0  0  0  0  0  0  0
    6.9182  -10.5068   26.3496 C   0  0  0  0  0  0  0  0  0  0  0  0
    6.9365  -12.2970   26.6799 S   0  0  0  0  0  0  0  0  0  0  0  0
    6.8823  -13.1470   25.0952 C   0  0  0  0  0  0  0  0  0  0  0  0
    6.9375  -14.6602   25.2832 C   0  0  0  0  0  0  0  0  0  0  0  0
    8.1390  -15.2505   24.5971 C   0  0  2  0  0  0  0  0  0  0  0  0
    7.8615  -15.4018   23.1951 N   0  0  0  0  0  0  0  0  0  0  0  0
    8.4770  -16.5335   25.2605 C   0  0  0  0  0  0  0  0  0  0  0  0
    7.5256  -17.3369   25.4467 O   0  0  0  0  0  0  0  0  0  0  0  0
   10.7441  -19.1305   24.1333 C   0  0  0  0  0  0  0  0  0  0  0  0
   11.1606  -18.8983   25.5696 C   0  0  1  0  0  0  0  0  0  0  0  0
   12.3466  -18.1694   25.5191 O   0  0  0  0  0  0  0  0  0  0  0  0
   10.0556  -18.1349   26.2528 C   0  0  2  0  0  0  0  0  0  0  0  0
    9.7972  -16.8581   25.6724 N   0  0  0  0  0  0  0  0  0  0  0  0
   10.3966  -18.0041   27.6990 C   0  0  0  0  0  0  0  0  0  0  0  0
   10.5691  -19.0285   28.4057 O   0  0  0  0  0  0  0  0  0  0  0  0
   10.5382  -16.7780   28.3260 O   0  0  0  0  0  0  0  0  0  0  0  0
  1  2  1  0
  2  3  1  0
  3  4  1  6
  5 12  1  0
  5  3  1  0
  6  5  2  0
  8  9  1  0
  8  7  1  0
  9 10  1  0
 11 10  1  1
 11 13  1  0
 11 12  1  0
 13 19  1  0
 14 13  2  0
 16 17  1  0
 16 15  1  6
 18 16  1  0
 18 19  1  6
 20 18  1  0
 20 22  1  0
 21 20  2  0
M  END
$$$$
