SMT.pdb
     RDKit          3D

 22 21  0  0  1  0  0  0  0  0999 V2000
    7.2672  -17.4553   20.5721 O   0  0  0  0  0  0  0  0  0  0  0  0
    6.4889  -16.3839   20.1469 C   0  0  0  0  0  0  0  0  0  0  0  0
    7.3459  -15.1481   20.1820 C   0  0  2  0  0  0  0  0  0  0  0  0
    8.3209  -15.2158   19.1129 N   0  0  0  0  0  0  0  0  0  0  0  0
    8.0834  -14.9960   21.4539 C   0  0  0  0  0  0  0  0  0  0  0  0
    9.2751  -15.3705   21.5147 O   0  0  0  0  0  0  0  0  0  0  0  0
    5.5563  -12.2318   27.1757 C   0  0  0  0  0  0  0  0  0  0  0  0
    7.3320  -11.8476   27.0599 S   0  0  0  0  0  0  0  0  0  0  0  0
    8.1155  -13.1597   26.1105 C   0  0  0  0  0  0  0  0  0  0  0  0
    7.4141  -13.3597   24.7703 C   0  0  0  0  0  0  0  0  0  0  0  0
    8.2035  -14.2743   23.8740 C   0  0  2  0  0  0  0  0  0  0  0  0
    7.5060  -14.4403   22.6285 N   0  0  0  0  0  0  0  0  0  0  0  0
    8.4252  -15.5561   24.5869 C   0  0  0  0  0  0  0  0  0  0  0  0
    7.4125  -16.2837   24.7617 O   0  0  0  0  0  0  0  0  0  0  0  0
   10.1875  -18.4242   23.6053 C   0  0  0  0  0  0  0  0  0  0  0  0
   10.7660  -18.1731   24.9811 C   0  0  1  0  0  0  0  0  0  0  0  0
   12.0301  -17.6239   24.7786 O   0  0  0  0  0  0  0  0  0  0  0  0
    9.8451  -17.2234   25.7026 C   0  0  2  0  0  0  0  0  0  0  0  0
    9.7036  -15.9601   25.0563 N   0  0  0  0  0  0  0  0  0  0  0  0
   10.3407  -17.0554   27.0993 C   0  0  0  0  0  0  0  0  0  0  0  0
   10.6114  -15.9117   27.5436 O   0  0  0  0  0  0  0  0  0  0  0  0
   10.5248  -18.1231   27.9611 O   0  0  0  0  0  0  0  0  0  0  0  0
  1  2  1  0
  2  3  1  0
  3  4  1  6
  5 12  1  0
  5  3  1  0
  6  5  2  0
  8  9  1  0
  8  7  1  0
  9 10  1  0
 11 10  1  1
 11 13  1  0
 11 12  1  0
 13 19  1  0
 14 13  2  0
 16 17  1  0
 16 15  1  6
 18 16  1  0
 18 19  1  6
 20 18  1  0
 20 22  1  0
 21 20  2  0
M  END
$$$$
