SMT.pdb
     RDKit          3D

 22 21  0  0  1  0  0  0  0  0999 V2000
    7.4792  -15.8210   19.5417 O   0  0  0  0  0  0  0  0  0  0  0  0
    6.5741  -14.7656   19.5042 C   0  0  0  0  0  0  0  0  0  0  0  0
    7.2913  -13.5258   19.9636 C   0  0  2  0  0  0  0  0  0  0  0  0
    8.2535  -13.1323   18.9549 N   0  0  0  0  0  0  0  0  0  0  0  0
    8.0247  -13.7226   21.2318 C   0  0  0  0  0  0  0  0  0  0  0  0
    9.2493  -13.9732   21.1938 O   0  0  0  0  0  0  0  0  0  0  0  0
    5.5328  -11.7649   26.8258 C   0  0  0  0  0  0  0  0  0  0  0  0
    7.2574  -11.9744   27.3699 S   0  0  0  0  0  0  0  0  0  0  0  0
    8.0971  -12.9943   26.1486 C   0  0  0  0  0  0  0  0  0  0  0  0
    7.3532  -12.9774   24.8165 C   0  0  0  0  0  0  0  0  0  0  0  0
    8.1142  -13.7287   23.7585 C   0  0  2  0  0  0  0  0  0  0  0  0
    7.4074  -13.6421   22.5102 N   0  0  0  0  0  0  0  0  0  0  0  0
    8.3046  -15.1262   24.2184 C   0  0  0  0  0  0  0  0  0  0  0  0
    7.2712  -15.8430   24.2788 O   0  0  0  0  0  0  0  0  0  0  0  0
    9.9652  -17.8778   22.7002 C   0  0  0  0  0  0  0  0  0  0  0  0
   10.5930  -17.8265   24.0763 C   0  0  1  0  0  0  0  0  0  0  0  0
   11.8407  -17.2286   23.9140 O   0  0  0  0  0  0  0  0  0  0  0  0
    9.6879  -17.0150   24.9666 C   0  0  2  0  0  0  0  0  0  0  0  0
    9.5763  -15.6477   24.5770 N   0  0  0  0  0  0  0  0  0  0  0  0
   10.1787  -17.1313   26.3703 C   0  0  0  0  0  0  0  0  0  0  0  0
   10.4883  -16.1026   27.0218 O   0  0  0  0  0  0  0  0  0  0  0  0
   10.3164  -18.3481   27.0159 O   0  0  0  0  0  0  0  0  0  0  0  0
  1  2  1  0
  2  3  1  0
  3  4  1  6
  5 12  1  0
  5  3  1  0
  6  5  2  0
  8  9  1  0
  8  7  1  0
  9 10  1  0
 11 10  1  1
 11 13  1  0
 11 12  1  0
 13 19  1  0
 14 13  2  0
 16 17  1  0
 16 15  1  6
 18 16  1  0
 18 19  1  6
 20 18  1  0
 20 22  1  0
 21 20  2  0
M  END
$$$$
