PYQ.pdb
     RDKit          3D

 29 30  0  0  1  0  0  0  0  0999 V2000
   26.4772  -11.3013  -17.4868 N   0  0  0  0  0  0  0  0  0  0  0  0
   27.9103  -11.5471  -17.2589 C   0  0  0  0  0  0  0  0  0  0  0  0
   28.2623  -10.7455  -16.0327 C   0  0  0  0  0  0  0  0  0  0  0  0
   26.9196  -10.4198  -15.4159 C   0  0  0  0  0  0  0  0  0  0  0  0
   25.9439  -11.2878  -16.1685 C   0  0  1  0  0  0  0  0  0  0  0  0
   24.5863  -10.6792  -16.0853 C   0  0  0  0  0  0  0  0  0  0  0  0
   23.9919  -10.6218  -14.9811 O   0  0  0  0  0  0  0  0  0  0  0  0
   22.8704   -3.8272  -14.3428 O   0  0  0  0  0  0  0  0  0  0  0  0
   22.7195   -4.9537  -15.1671 C   0  0  0  0  0  0  0  0  0  0  0  0
   23.4587   -5.0477  -16.3050 C   0  0  0  0  0  0  0  0  0  0  0  0
   23.3294   -6.1615  -17.1484 C   0  0  0  0  0  0  0  0  0  0  0  0
   22.4558   -7.1792  -16.8443 C   0  0  0  0  0  0  0  0  0  0  0  0
   22.3531   -8.3106  -17.7415 C   0  0  0  0  0  0  0  0  0  0  0  0
   22.5694   -9.6590  -17.1298 C   0  0  2  0  0  0  0  0  0  0  0  0
   23.9057  -10.1446  -17.2171 N   0  0  0  0  0  0  0  0  0  0  0  0
   21.5641  -10.6136  -17.6601 C   0  0  0  0  0  0  0  0  0  0  0  0
   21.8890  -11.2095  -18.7424 O   0  0  0  0  0  0  0  0  0  0  0  0
   21.7158   -7.0696  -15.6906 C   0  0  0  0  0  0  0  0  0  0  0  0
   21.8443   -5.9574  -14.8477 C   0  0  0  0  0  0  0  0  0  0  0  0
   19.7951  -15.5367  -15.6046 N   0  0  0  0  0  0  0  0  0  0  0  0
   18.6280  -15.3619  -16.3799 C   0  0  0  0  0  0  0  0  0  0  0  0
   17.9047  -16.3581  -16.6176 O   0  0  0  0  0  0  0  0  0  0  0  0
   18.2630  -14.0420  -16.8922 C   0  0  0  0  0  0  0  0  0  0  0  0
   19.1489  -12.9105  -16.5809 C   0  0  0  0  0  0  0  0  0  0  0  0
   19.4784  -11.9216  -17.6489 C   0  0  2  0  0  0  0  0  0  0  0  0
   20.3281  -10.8813  -17.0563 N   0  0  0  0  0  0  0  0  0  0  0  0
   18.3213  -11.3269  -18.3002 C   0  0  0  0  0  0  0  0  0  0  0  0
   17.7151  -10.2962  -17.8311 O   0  0  0  0  0  0  0  0  0  0  0  0
   17.7469  -11.7919  -19.4986 O   0  0  0  0  0  0  0  0  0  0  0  0
  1  2  1  0
  3  2  1  0
  4  5  1  0
  4  3  1  0
  5  6  1  6
  5  1  1  0
  6  7  2  0
  9  8  1  0
  9 19  2  0
 10  9  1  0
 11 10  2  0
 11 12  1  0
 12 18  2  0
 13 12  1  0
 14 13  1  6
 15 14  1  0
 15  6  1  0
 16 17  2  0
 16 14  1  0
 18 19  1  0
 20 21  1  0
 21 22  2  0
 23 21  1  0
 23 24  1  0
 25 24  1  1
 25 26  1  0
 25 27  1  0
 26 16  1  0
 27 29  1  0
 28 27  2  0
M  END
$$$$
