PYQ.pdb
     RDKit          3D

 29 30  0  0  1  0  0  0  0  0999 V2000
   27.7566  -22.6584  -17.8267 N   0  0  0  0  0  0  0  0  0  0  0  0
   28.9686  -22.8722  -18.6340 C   0  0  0  0  0  0  0  0  0  0  0  0
   30.0365  -22.0349  -17.9792 C   0  0  0  0  0  0  0  0  0  0  0  0
   29.4630  -21.7194  -16.6151 C   0  0  0  0  0  0  0  0  0  0  0  0
   28.2623  -22.6231  -16.4980 C   0  0  1  0  0  0  0  0  0  0  0  0
   27.3064  -22.0379  -15.5161 C   0  0  0  0  0  0  0  0  0  0  0  0
   27.6042  -22.0013  -14.2971 O   0  0  0  0  0  0  0  0  0  0  0  0
   28.1123  -16.3232  -18.4189 O   0  0  0  0  0  0  0  0  0  0  0  0
   27.5186  -17.1265  -17.4322 C   0  0  0  0  0  0  0  0  0  0  0  0
   26.1633  -17.2343  -17.3906 C   0  0  0  0  0  0  0  0  0  0  0  0
   25.5416  -18.0295  -16.4161 C   0  0  0  0  0  0  0  0  0  0  0  0
   26.2859  -18.7151  -15.4848 C   0  0  0  0  0  0  0  0  0  0  0  0
   25.6049  -19.5245  -14.4966 C   0  0  0  0  0  0  0  0  0  0  0  0
   25.1745  -20.8865  -14.9426 C   0  0  2  0  0  0  0  0  0  0  0  0
   26.0402  -21.5032  -15.8910 N   0  0  0  0  0  0  0  0  0  0  0  0
   23.7586  -20.8413  -15.3855 C   0  0  0  0  0  0  0  0  0  0  0  0
   23.5765  -20.5564  -16.6174 O   0  0  0  0  0  0  0  0  0  0  0  0
   27.6547  -18.5961  -15.5400 C   0  0  0  0  0  0  0  0  0  0  0  0
   28.2764  -17.8019  -16.5130 C   0  0  0  0  0  0  0  0  0  0  0  0
   20.3315  -23.7275  -12.1130 N   0  0  0  0  0  0  0  0  0  0  0  0
   19.5954  -22.5227  -12.1310 C   0  0  0  0  0  0  0  0  0  0  0  0
   18.8847  -22.2330  -11.1394 O   0  0  0  0  0  0  0  0  0  0  0  0
   19.6643  -21.6230  -13.2814 C   0  0  0  0  0  0  0  0  0  0  0  0
   20.4661  -22.0428  -14.4401 C   0  0  0  0  0  0  0  0  0  0  0  0
   21.3163  -21.0397  -15.1458 C   0  0  2  0  0  0  0  0  0  0  0  0
   22.6584  -21.0860  -14.5524 N   0  0  0  0  0  0  0  0  0  0  0  0
   20.7942  -19.6818  -15.1235 C   0  0  0  0  0  0  0  0  0  0  0  0
   21.2140  -18.7909  -14.2990 O   0  0  0  0  0  0  0  0  0  0  0  0
   19.7976  -19.1903  -15.9881 O   0  0  0  0  0  0  0  0  0  0  0  0
  1  2  1  0
  3  2  1  0
  4  5  1  0
  4  3  1  0
  5  6  1  1
  5  1  1  0
  6  7  2  0
  9  8  1  0
  9 19  2  0
 10  9  1  0
 11 10  2  0
 11 12  1  0
 12 18  2  0
 13 12  1  0
 14 13  1  6
 15 14  1  0
 15  6  1  0
 16 17  2  0
 16 14  1  0
 18 19  1  0
 20 21  1  0
 21 22  2  0
 23 21  1  0
 23 24  1  0
 25 24  1  1
 25 26  1  0
 25 27  1  0
 26 16  1  0
 27 29  1  0
 28 27  2  0
M  END
$$$$
