PYQ.pdb
     RDKit          3D

 29 30  0  0  1  0  0  0  0  0999 V2000
   27.0819  -19.0924  -16.2755 N   0  0  0  0  0  0  0  0  0  0  0  0
   28.2712  -18.8515  -17.1085 C   0  0  0  0  0  0  0  0  0  0  0  0
   29.3469  -19.7357  -16.5329 C   0  0  0  0  0  0  0  0  0  0  0  0
   28.5852  -20.7143  -15.6660 C   0  0  0  0  0  0  0  0  0  0  0  0
   27.1407  -20.4930  -16.0357 C   0  0  1  0  0  0  0  0  0  0  0  0
   26.2757  -20.9371  -14.9066 C   0  0  0  0  0  0  0  0  0  0  0  0
   26.0704  -22.1612  -14.7184 O   0  0  0  0  0  0  0  0  0  0  0  0
   30.8523  -21.5640  -10.5023 O   0  0  0  0  0  0  0  0  0  0  0  0
   29.5362  -21.1643  -10.7838 C   0  0  0  0  0  0  0  0  0  0  0  0
   28.5049  -21.7737  -10.1394 C   0  0  0  0  0  0  0  0  0  0  0  0
   27.1792  -21.3956  -10.4000 C   0  0  0  0  0  0  0  0  0  0  0  0
   26.8939  -20.4042  -11.3095 C   0  0  0  0  0  0  0  0  0  0  0  0
   25.5123  -20.0445  -11.5488 C   0  0  0  0  0  0  0  0  0  0  0  0
   24.9350  -20.4799  -12.8589 C   0  0  2  0  0  0  0  0  0  0  0  0
   25.6514  -20.0283  -14.0044 N   0  0  0  0  0  0  0  0  0  0  0  0
   23.4899  -20.1441  -12.9026 C   0  0  0  0  0  0  0  0  0  0  0  0
   23.2174  -18.9121  -13.1024 O   0  0  0  0  0  0  0  0  0  0  0  0
   27.9471  -19.7978  -11.9527 C   0  0  0  0  0  0  0  0  0  0  0  0
   29.2716  -20.1749  -11.6929 C   0  0  0  0  0  0  0  0  0  0  0  0
   20.1405  -22.0782  -16.6991 N   0  0  0  0  0  0  0  0  0  0  0  0
   20.3418  -23.0092  -15.6568 C   0  0  0  0  0  0  0  0  0  0  0  0
   20.4294  -24.2271  -15.9419 O   0  0  0  0  0  0  0  0  0  0  0  0
   20.4537  -22.5632  -14.2689 C   0  0  0  0  0  0  0  0  0  0  0  0
   20.4182  -21.1176  -14.0025 C   0  0  0  0  0  0  0  0  0  0  0  0
   21.0708  -20.5825  -12.7717 C   0  0  2  0  0  0  0  0  0  0  0  0
   22.4538  -21.0742  -12.7421 N   0  0  0  0  0  0  0  0  0  0  0  0
   20.3847  -20.9116  -11.5316 C   0  0  0  0  0  0  0  0  0  0  0  0
   20.9125  -21.6488  -10.6217 O   0  0  0  0  0  0  0  0  0  0  0  0
   19.0956  -20.4648  -11.1839 O   0  0  0  0  0  0  0  0  0  0  0  0
  1  2  1  0
  3  2  1  0
  4  5  1  0
  4  3  1  0
  5  6  1  1
  5  1  1  0
  6  7  2  0
  9  8  1  0
  9 19  2  0
 10  9  1  0
 11 10  2  0
 11 12  1  0
 12 18  2  0
 13 12  1  0
 14 13  1  1
 15 14  1  0
 15  6  1  0
 16 17  2  0
 16 14  1  0
 18 19  1  0
 20 21  1  0
 21 22  2  0
 23 21  1  0
 23 24  1  0
 25 24  1  6
 25 26  1  0
 25 27  1  0
 26 16  1  0
 27 29  1  0
 28 27  2  0
M  END
$$$$
