PYQ.pdb
     RDKit          3D

 29 30  0  0  1  0  0  0  0  0999 V2000
   26.6637  -14.8331  -20.5660 N   0  0  0  0  0  0  0  0  0  0  0  0
   27.9771  -14.7485  -21.2247 C   0  0  0  0  0  0  0  0  0  0  0  0
   27.8275  -15.5164  -22.5124 C   0  0  0  0  0  0  0  0  0  0  0  0
   26.3299  -15.6435  -22.6858 C   0  0  0  0  0  0  0  0  0  0  0  0
   25.7549  -14.7085  -21.6528 C   0  0  1  0  0  0  0  0  0  0  0  0
   24.3695  -15.1441  -21.3191 C   0  0  0  0  0  0  0  0  0  0  0  0
   23.4458  -14.9902  -22.1550 O   0  0  0  0  0  0  0  0  0  0  0  0
   17.3111  -19.3750  -18.2773 O   0  0  0  0  0  0  0  0  0  0  0  0
   18.6188  -18.9102  -18.4898 C   0  0  0  0  0  0  0  0  0  0  0  0
   19.1878  -19.0658  -19.7155 C   0  0  0  0  0  0  0  0  0  0  0  0
   20.4929  -18.6114  -19.9577 C   0  0  0  0  0  0  0  0  0  0  0  0
   21.2231  -18.0008  -18.9650 C   0  0  0  0  0  0  0  0  0  0  0  0
   22.5662  -17.5466  -19.2570 C   0  0  0  0  0  0  0  0  0  0  0  0
   22.6911  -16.1499  -19.7794 C   0  0  2  0  0  0  0  0  0  0  0  0
   24.0238  -15.7411  -20.0725 N   0  0  0  0  0  0  0  0  0  0  0  0
   21.9776  -15.2141  -18.8748 C   0  0  0  0  0  0  0  0  0  0  0  0
   22.6440  -14.8137  -17.8610 O   0  0  0  0  0  0  0  0  0  0  0  0
   20.6341  -17.8509  -17.7316 C   0  0  0  0  0  0  0  0  0  0  0  0
   19.3305  -18.3045  -17.4889 C   0  0  0  0  0  0  0  0  0  0  0  0
   20.1133   -9.8962  -20.2027 N   0  0  0  0  0  0  0  0  0  0  0  0
   19.4224  -10.0312  -18.9787 C   0  0  0  0  0  0  0  0  0  0  0  0
   18.7627   -9.0568  -18.5456 O   0  0  0  0  0  0  0  0  0  0  0  0
   19.4678  -11.2865  -18.2304 C   0  0  0  0  0  0  0  0  0  0  0  0
   20.1091  -12.4470  -18.8658 C   0  0  0  0  0  0  0  0  0  0  0  0
   20.1310  -13.7562  -18.1497 C   0  0  2  0  0  0  0  0  0  0  0  0
   20.6637  -14.7674  -19.0710 N   0  0  0  0  0  0  0  0  0  0  0  0
   18.8434  -14.1765  -17.6185 C   0  0  0  0  0  0  0  0  0  0  0  0
   17.9224  -14.6861  -18.3547 O   0  0  0  0  0  0  0  0  0  0  0  0
   18.4648  -14.0865  -16.2653 O   0  0  0  0  0  0  0  0  0  0  0  0
  1  2  1  0
  3  2  1  0
  4  5  1  0
  4  3  1  0
  5  6  1  1
  5  1  1  0
  6  7  2  0
  9  8  1  0
  9 19  2  0
 10  9  1  0
 11 10  2  0
 11 12  1  0
 12 18  2  0
 13 12  1  0
 14 13  1  1
 15 14  1  0
 15  6  1  0
 16 17  2  0
 16 14  1  0
 18 19  1  0
 20 21  1  0
 21 22  2  0
 23 21  1  0
 23 24  1  0
 25 24  1  6
 25 26  1  0
 25 27  1  0
 26 16  1  0
 27 29  1  0
 28 27  2  0
M  END
$$$$
