PYQ.pdb
     RDKit          3D

 29 30  0  0  1  0  0  0  0  0999 V2000
   28.4405  -20.9626  -17.7737 N   0  0  0  0  0  0  0  0  0  0  0  0
   29.4571  -21.1408  -18.8230 C   0  0  0  0  0  0  0  0  0  0  0  0
   30.4484  -22.1232  -18.2550 C   0  0  0  0  0  0  0  0  0  0  0  0
   29.7154  -22.7405  -17.0842 C   0  0  0  0  0  0  0  0  0  0  0  0
   28.2909  -22.2764  -17.2502 C   0  0  1  0  0  0  0  0  0  0  0  0
   27.6098  -22.3119  -15.9254 C   0  0  0  0  0  0  0  0  0  0  0  0
   27.2887  -23.4130  -15.4151 O   0  0  0  0  0  0  0  0  0  0  0  0
   24.4161  -20.2225   -7.9479 O   0  0  0  0  0  0  0  0  0  0  0  0
   25.1261  -20.2758   -9.1579 C   0  0  0  0  0  0  0  0  0  0  0  0
   24.8328  -19.3815  -10.1400 C   0  0  0  0  0  0  0  0  0  0  0  0
   25.5254  -19.4104  -11.3597 C   0  0  0  0  0  0  0  0  0  0  0  0
   26.5127  -20.3400  -11.5888 C   0  0  0  0  0  0  0  0  0  0  0  0
   27.2029  -20.3351  -12.8612 C   0  0  0  0  0  0  0  0  0  0  0  0
   26.6147  -21.1971  -13.9338 C   0  0  2  0  0  0  0  0  0  0  0  0
   27.2934  -21.1367  -15.1847 N   0  0  0  0  0  0  0  0  0  0  0  0
   25.1588  -20.9307  -14.0444 C   0  0  0  0  0  0  0  0  0  0  0  0
   24.8411  -19.8619  -14.6679 O   0  0  0  0  0  0  0  0  0  0  0  0
   26.7976  -21.2372  -10.5865 C   0  0  0  0  0  0  0  0  0  0  0  0
   26.1062  -21.2090   -9.3678 C   0  0  0  0  0  0  0  0  0  0  0  0
   23.3409  -25.3246  -14.6491 N   0  0  0  0  0  0  0  0  0  0  0  0
   23.2848  -24.5256  -15.8120 C   0  0  0  0  0  0  0  0  0  0  0  0
   23.7405  -24.9867  -16.8854 O   0  0  0  0  0  0  0  0  0  0  0  0
   22.6997  -23.1864  -15.7701 C   0  0  0  0  0  0  0  0  0  0  0  0
   22.1779  -22.7001  -14.4843 C   0  0  0  0  0  0  0  0  0  0  0  0
   22.7628  -21.4706  -13.8732 C   0  0  2  0  0  0  0  0  0  0  0  0
   24.1581  -21.7602  -13.5202 N   0  0  0  0  0  0  0  0  0  0  0  0
   22.0374  -20.9659  -12.7175 C   0  0  0  0  0  0  0  0  0  0  0  0
   22.5361  -20.9606  -11.5338 O   0  0  0  0  0  0  0  0  0  0  0  0
   20.7374  -20.4267  -12.7579 O   0  0  0  0  0  0  0  0  0  0  0  0
  1  2  1  0
  3  2  1  0
  4  5  1  0
  4  3  1  0
  5  6  1  1
  5  1  1  0
  6  7  2  0
  9  8  1  0
  9 19  2  0
 10  9  1  0
 11 10  2  0
 11 12  1  0
 12 18  2  0
 13 12  1  0
 14 13  1  1
 15 14  1  0
 15  6  1  0
 16 17  2  0
 16 14  1  0
 18 19  1  0
 20 21  1  0
 21 22  2  0
 23 21  1  0
 23 24  1  0
 25 24  1  1
 25 26  1  0
 25 27  1  0
 26 16  1  0
 27 29  1  0
 28 27  2  0
M  END
$$$$
