PYQ.pdb
     RDKit          3D

 29 30  0  0  1  0  0  0  0  0999 V2000
   28.2350  -21.0179  -17.2553 N   0  0  0  0  0  0  0  0  0  0  0  0
   29.3553  -21.2695  -18.1761 C   0  0  0  0  0  0  0  0  0  0  0  0
   30.1190  -22.4184  -17.5703 C   0  0  0  0  0  0  0  0  0  0  0  0
   29.1548  -23.0009  -16.5601 C   0  0  0  0  0  0  0  0  0  0  0  0
   27.8415  -22.3286  -16.8686 C   0  0  1  0  0  0  0  0  0  0  0  0
   26.9836  -22.3540  -15.6504 C   0  0  0  0  0  0  0  0  0  0  0  0
   26.4818  -23.4363  -15.2599 O   0  0  0  0  0  0  0  0  0  0  0  0
   23.1823  -20.6733   -7.8984 O   0  0  0  0  0  0  0  0  0  0  0  0
   23.9824  -20.6152   -9.0506 C   0  0  0  0  0  0  0  0  0  0  0  0
   23.5118  -19.9745  -10.1544 C   0  0  0  0  0  0  0  0  0  0  0  0
   24.2887  -19.9003  -11.3203 C   0  0  0  0  0  0  0  0  0  0  0  0
   25.5386  -20.4715  -11.3730 C   0  0  0  0  0  0  0  0  0  0  0  0
   26.3073  -20.3719  -12.5955 C   0  0  0  0  0  0  0  0  0  0  0  0
   25.8584  -21.2393  -13.7293 C   0  0  2  0  0  0  0  0  0  0  0  0
   26.6924  -21.1895  -14.8831 N   0  0  0  0  0  0  0  0  0  0  0  0
   24.4298  -20.9691  -14.0279 C   0  0  0  0  0  0  0  0  0  0  0  0
   24.1990  -19.9028  -14.6925 O   0  0  0  0  0  0  0  0  0  0  0  0
   26.0003  -21.1156  -10.2493 C   0  0  0  0  0  0  0  0  0  0  0  0
   25.2249  -21.1902   -9.0843 C   0  0  0  0  0  0  0  0  0  0  0  0
   21.2422  -22.6668  -17.9979 N   0  0  0  0  0  0  0  0  0  0  0  0
   20.1223  -22.4387  -17.1687 C   0  0  0  0  0  0  0  0  0  0  0  0
   18.9952  -22.2970  -17.6996 O   0  0  0  0  0  0  0  0  0  0  0  0
   20.2700  -22.3753  -15.7155 C   0  0  0  0  0  0  0  0  0  0  0  0
   21.6292  -22.4189  -15.1564 C   0  0  0  0  0  0  0  0  0  0  0  0
   22.0156  -21.4477  -14.0912 C   0  0  2  0  0  0  0  0  0  0  0  0
   23.3669  -21.7926  -13.6325 N   0  0  0  0  0  0  0  0  0  0  0  0
   21.0945  -21.3853  -12.9668 C   0  0  0  0  0  0  0  0  0  0  0  0
   21.1748  -22.1785  -11.9597 O   0  0  0  0  0  0  0  0  0  0  0  0
   20.0364  -20.4644  -12.8454 O   0  0  0  0  0  0  0  0  0  0  0  0
  1  2  1  0
  3  2  1  0
  4  5  1  0
  4  3  1  0
  5  6  1  1
  5  1  1  0
  6  7  2  0
  9  8  1  0
  9 19  2  0
 10  9  1  0
 11 10  2  0
 11 12  1  0
 12 18  2  0
 13 12  1  0
 14 13  1  1
 15 14  1  0
 15  6  1  0
 16 17  2  0
 16 14  1  0
 18 19  1  0
 20 21  1  0
 21 22  2  0
 23 21  1  0
 23 24  1  0
 25 24  1  6
 25 26  1  0
 25 27  1  0
 26 16  1  0
 27 29  1  0
 28 27  2  0
M  END
$$$$
