IIG.pdb
     RDKit          3D

 21 20  0  0  1  0  0  0  0  0999 V2000
   21.2850  -19.1001  -15.7908 C   0  0  0  0  0  0  0  0  0  0  0  0
   22.4471  -19.1644  -14.8617 C   0  0  0  0  0  0  0  0  0  0  0  0
   22.2350  -20.0155  -13.6362 C   0  0  2  0  0  0  0  0  0  0  0  0
   20.9202  -19.7279  -12.9901 C   0  0  0  0  0  0  0  0  0  0  0  0
   23.4283  -19.8390  -12.7323 C   0  0  2  0  0  0  0  0  0  0  0  0
   24.5871  -20.2530  -13.5466 N   0  0  0  0  0  0  0  0  0  0  0  0
   23.4179  -20.7179  -11.5407 C   0  0  0  0  0  0  0  0  0  0  0  0
   23.4246  -21.9904  -11.6906 O   0  0  0  0  0  0  0  0  0  0  0  0
   26.4762  -19.6250   -7.5588 C   0  0  0  0  0  0  0  0  0  0  0  0
   25.6571  -20.4524   -8.5656 C   0  0  0  0  0  0  0  0  0  0  0  0
   24.2732  -20.6888   -8.0539 C   0  0  2  0  0  0  0  0  0  0  0  0
   24.2294  -21.3727   -6.7211 C   0  0  0  0  0  0  0  0  0  0  0  0
   23.3182  -21.2414   -9.0772 C   0  0  2  0  0  0  0  0  0  0  0  0
   23.4021  -20.2810  -10.1989 N   0  0  0  0  0  0  0  0  0  0  0  0
   21.9445  -21.4440   -8.6552 C   0  0  0  0  0  0  0  0  0  0  0  0
   21.2126  -20.3909   -8.5885 O   0  0  0  0  0  0  0  0  0  0  0  0
   21.3443  -22.6689   -8.3174 N   0  0  0  0  0  0  0  0  0  0  0  0
   19.9798  -22.6931   -7.8285 C   0  0  0  0  0  0  0  0  0  0  0  0
   19.9012  -23.2056   -6.4393 C   0  0  0  0  0  0  0  0  0  0  0  0
   18.7052  -23.3949   -5.7671 O   0  0  0  0  0  0  0  0  0  0  0  0
   20.9622  -23.4853   -5.8318 O   0  0  0  0  0  0  0  0  0  0  0  0
  2  1  1  0
  2  3  1  0
  3  5  1  0
  3  4  1  1
  5  7  1  0
  5  6  1  6
  7  8  2  0
 10  9  1  0
 11 10  1  0
 11 12  1  1
 13 11  1  0
 14  7  1  0
 13 14  1  6
 15 17  1  0
 15 13  1  0
 16 15  2  0
 18 17  1  0
 19 20  1  0
 19 18  1  0
 21 19  2  0
M  END
$$$$
