IIG.pdb
     RDKit          3D

 21 20  0  0  1  0  0  0  0  0999 V2000
   16.8692  -13.4317  -20.9398 C   0  0  0  0  0  0  0  0  0  0  0  0
   18.2654  -13.4214  -20.4218 C   0  0  0  0  0  0  0  0  0  0  0  0
   18.4721  -12.6121  -19.1674 C   0  0  2  0  0  0  0  0  0  0  0  0
   17.9726  -11.2144  -19.3284 C   0  0  0  0  0  0  0  0  0  0  0  0
   19.9245  -12.7164  -18.7779 C   0  0  2  0  0  0  0  0  0  0  0  0
   20.1936  -14.1650  -18.6965 N   0  0  0  0  0  0  0  0  0  0  0  0
   20.2327  -12.1572  -17.4419 C   0  0  0  0  0  0  0  0  0  0  0  0
   19.6805  -12.6598  -16.4007 O   0  0  0  0  0  0  0  0  0  0  0  0
   24.7384  -12.2009  -15.1752 C   0  0  0  0  0  0  0  0  0  0  0  0
   23.2163  -12.1300  -15.3921 C   0  0  0  0  0  0  0  0  0  0  0  0
   22.7718  -10.7136  -15.5631 C   0  0  2  0  0  0  0  0  0  0  0  0
   23.3400   -9.7738  -14.5433 C   0  0  0  0  0  0  0  0  0  0  0  0
   21.2975  -10.5512  -15.8172 C   0  0  2  0  0  0  0  0  0  0  0  0
   21.1105  -11.0825  -17.1848 N   0  0  0  0  0  0  0  0  0  0  0  0
   20.7500   -9.2132  -15.6894 C   0  0  0  0  0  0  0  0  0  0  0  0
   20.5412   -8.8003  -14.4915 O   0  0  0  0  0  0  0  0  0  0  0  0
   20.4311   -8.3351  -16.7390 N   0  0  0  0  0  0  0  0  0  0  0  0
   19.8490   -7.0405  -16.4450 C   0  0  0  0  0  0  0  0  0  0  0  0
   20.8870   -5.9950  -16.2768 C   0  0  0  0  0  0  0  0  0  0  0  0
   22.2450   -6.2542  -16.3592 O   0  0  0  0  0  0  0  0  0  0  0  0
   20.5316   -4.8142  -16.0483 O   0  0  0  0  0  0  0  0  0  0  0  0
  2  1  1  0
  2  3  1  0
  3  5  1  0
  3  4  1  6
  5  7  1  0
  5  6  1  1
  7  8  2  0
 10  9  1  0
 11 10  1  0
 11 12  1  1
 13 11  1  0
 14  7  1  0
 13 14  1  6
 15 17  1  0
 15 13  1  0
 16 15  2  0
 18 17  1  0
 19 20  1  0
 19 18  1  0
 21 19  2  0
M  END
$$$$
