IIG.pdb
     RDKit          3D

 21 20  0  0  1  0  0  0  0  0999 V2000
   27.8552  -19.1722   -3.8665 C   0  0  0  0  0  0  0  0  0  0  0  0
   28.2014  -19.7948   -5.1743 C   0  0  0  0  0  0  0  0  0  0  0  0
   27.0429  -19.9687   -6.1223 C   0  0  2  0  0  0  0  0  0  0  0  0
   25.9208  -20.7191   -5.4844 C   0  0  0  0  0  0  0  0  0  0  0  0
   27.5672  -20.5879   -7.3926 C   0  0  2  0  0  0  0  0  0  0  0  0
   28.9088  -20.0016   -7.5761 N   0  0  0  0  0  0  0  0  0  0  0  0
   26.7875  -20.2370   -8.6015 C   0  0  0  0  0  0  0  0  0  0  0  0
   26.5508  -19.0065   -8.8690 O   0  0  0  0  0  0  0  0  0  0  0  0
   28.2568  -19.6481  -12.6273 C   0  0  0  0  0  0  0  0  0  0  0  0
   28.0559  -20.9186  -11.7820 C   0  0  0  0  0  0  0  0  0  0  0  0
   26.6337  -21.3736  -11.8408 C   0  0  2  0  0  0  0  0  0  0  0  0
   26.0804  -21.4516  -13.2314 C   0  0  0  0  0  0  0  0  0  0  0  0
   25.7274  -20.7115  -10.8384 C   0  0  2  0  0  0  0  0  0  0  0  0
   26.2561  -21.1566   -9.5308 N   0  0  0  0  0  0  0  0  0  0  0  0
   24.3063  -20.9821  -10.9549 C   0  0  0  0  0  0  0  0  0  0  0  0
   23.7613  -20.6680  -12.0745 O   0  0  0  0  0  0  0  0  0  0  0  0
   23.4786  -21.5499   -9.9716 N   0  0  0  0  0  0  0  0  0  0  0  0
   22.0833  -21.8108  -10.2657 C   0  0  0  0  0  0  0  0  0  0  0  0
   21.3333  -20.5599  -10.5329 C   0  0  0  0  0  0  0  0  0  0  0  0
   19.9996  -20.5400  -10.9059 O   0  0  0  0  0  0  0  0  0  0  0  0
   21.9234  -19.4591  -10.4194 O   0  0  0  0  0  0  0  0  0  0  0  0
  2  1  1  0
  2  3  1  0
  3  5  1  0
  3  4  1  1
  5  7  1  0
  5  6  1  6
  7  8  2  0
 10  9  1  0
 11 10  1  0
 11 12  1  6
 13 11  1  0
 14  7  1  0
 13 14  1  1
 15 17  1  0
 15 13  1  0
 16 15  2  0
 18 17  1  0
 19 20  1  0
 19 18  1  0
 21 19  2  0
M  END
$$$$
