IIG.pdb
     RDKit          3D

 21 20  0  0  1  0  0  0  0  0999 V2000
   28.0816  -11.9377  -15.8736 C   0  0  0  0  0  0  0  0  0  0  0  0
   26.6235  -12.2344  -15.8127 C   0  0  0  0  0  0  0  0  0  0  0  0
   25.7233  -11.0417  -16.0082 C   0  0  2  0  0  0  0  0  0  0  0  0
   26.0884   -9.9231  -15.0892 C   0  0  0  0  0  0  0  0  0  0  0  0
   24.2954  -11.5092  -15.8883 C   0  0  2  0  0  0  0  0  0  0  0  0
   24.1912  -12.6550  -16.8122 N   0  0  0  0  0  0  0  0  0  0  0  0
   23.2950  -10.5149  -16.3392 C   0  0  0  0  0  0  0  0  0  0  0  0
   23.3170  -10.0968  -17.5502 O   0  0  0  0  0  0  0  0  0  0  0  0
   19.6280  -10.1648  -18.5316 C   0  0  0  0  0  0  0  0  0  0  0  0
   19.9238  -10.7587  -17.1428 C   0  0  0  0  0  0  0  0  0  0  0  0
   20.0121   -9.6788  -16.1137 C   0  0  2  0  0  0  0  0  0  0  0  0
   18.8074   -8.7887  -16.0658 C   0  0  0  0  0  0  0  0  0  0  0  0
   21.3314   -8.9556  -16.0832 C   0  0  2  0  0  0  0  0  0  0  0  0
   22.2747   -9.9568  -15.5398 N   0  0  0  0  0  0  0  0  0  0  0  0
   21.3857   -7.7146  -15.3327 C   0  0  0  0  0  0  0  0  0  0  0  0
   20.6074   -6.7761  -15.7356 O   0  0  0  0  0  0  0  0  0  0  0  0
   22.1984   -7.4447  -14.2186 N   0  0  0  0  0  0  0  0  0  0  0  0
   22.1687   -6.1317  -13.6050 C   0  0  0  0  0  0  0  0  0  0  0  0
   22.8468   -5.1154  -14.4453 C   0  0  0  0  0  0  0  0  0  0  0  0
   23.0262   -3.8006  -14.0488 O   0  0  0  0  0  0  0  0  0  0  0  0
   23.2841   -5.4494  -15.5723 O   0  0  0  0  0  0  0  0  0  0  0  0
  2  1  1  0
  2  3  1  0
  3  5  1  0
  3  4  1  1
  5  7  1  0
  5  6  1  6
  7  8  2  0
 10  9  1  0
 11 10  1  0
 11 12  1  6
 13 11  1  0
 14  7  1  0
 13 14  1  1
 15 17  1  0
 15 13  1  0
 16 15  2  0
 18 17  1  0
 19 20  1  0
 19 18  1  0
 21 19  2  0
M  END
$$$$
