IIG.pdb
     RDKit          3D

 21 20  0  0  1  0  0  0  0  0999 V2000
   16.2262   -9.6138  -17.6996 C   0  0  0  0  0  0  0  0  0  0  0  0
   17.1814  -10.7043  -17.3588 C   0  0  0  0  0  0  0  0  0  0  0  0
   18.2249  -10.9866  -18.4089 C   0  0  2  0  0  0  0  0  0  0  0  0
   17.6036  -11.2699  -19.7366 C   0  0  0  0  0  0  0  0  0  0  0  0
   19.1237  -12.0809  -17.8923 C   0  0  2  0  0  0  0  0  0  0  0  0
   18.2094  -13.1701  -17.4985 N   0  0  0  0  0  0  0  0  0  0  0  0
   19.8853  -11.7129  -16.6769 C   0  0  0  0  0  0  0  0  0  0  0  0
   19.4086  -11.9912  -15.5207 O   0  0  0  0  0  0  0  0  0  0  0  0
   24.6573  -13.2956  -15.9423 C   0  0  0  0  0  0  0  0  0  0  0  0
   23.2146  -12.7941  -15.7523 C   0  0  0  0  0  0  0  0  0  0  0  0
   23.1919  -11.3142  -15.5465 C   0  0  2  0  0  0  0  0  0  0  0  0
   24.1999  -10.8262  -14.5506 C   0  0  0  0  0  0  0  0  0  0  0  0
   21.8144  -10.7299  -15.3866 C   0  0  2  0  0  0  0  0  0  0  0  0
   21.1366  -11.0606  -16.6589 N   0  0  0  0  0  0  0  0  0  0  0  0
   21.7300   -9.3107  -15.0948 C   0  0  0  0  0  0  0  0  0  0  0  0
   22.0967   -8.9533  -13.9171 O   0  0  0  0  0  0  0  0  0  0  0  0
   21.2917   -8.3009  -15.9681 N   0  0  0  0  0  0  0  0  0  0  0  0
   21.3848   -6.9107  -15.5680 C   0  0  0  0  0  0  0  0  0  0  0  0
   20.1464   -6.4461  -14.8978 C   0  0  0  0  0  0  0  0  0  0  0  0
   19.9593   -5.1425  -14.4689 O   0  0  0  0  0  0  0  0  0  0  0  0
   19.2150   -7.2632  -14.7036 O   0  0  0  0  0  0  0  0  0  0  0  0
  2  1  1  0
  2  3  1  0
  3  5  1  0
  3  4  1  6
  5  7  1  0
  5  6  1  1
  7  8  2  0
 10  9  1  0
 11 10  1  0
 11 12  1  1
 13 11  1  0
 14  7  1  0
 13 14  1  6
 15 17  1  0
 15 13  1  0
 16 15  2  0
 18 17  1  0
 19 20  1  0
 19 18  1  0
 21 19  2  0
M  END
$$$$
