IIG.pdb
     RDKit          3D

 21 20  0  0  1  0  0  0  0  0999 V2000
   29.9277  -23.5831  -16.5372 C   0  0  0  0  0  0  0  0  0  0  0  0
   28.7452  -22.6779  -16.5502 C   0  0  0  0  0  0  0  0  0  0  0  0
   27.5732  -23.1513  -15.7295 C   0  0  2  0  0  0  0  0  0  0  0  0
   27.2579  -24.5853  -16.0006 C   0  0  0  0  0  0  0  0  0  0  0  0
   26.4251  -22.2032  -15.9639 C   0  0  2  0  0  0  0  0  0  0  0  0
   27.0067  -20.8558  -15.8100 N   0  0  0  0  0  0  0  0  0  0  0  0
   25.3409  -22.3087  -14.9608 C   0  0  0  0  0  0  0  0  0  0  0  0
   24.5798  -23.3395  -14.9550 O   0  0  0  0  0  0  0  0  0  0  0  0
   26.1135  -20.8510   -9.9759 C   0  0  0  0  0  0  0  0  0  0  0  0
   25.6153  -21.5825  -11.2352 C   0  0  0  0  0  0  0  0  0  0  0  0
   24.3639  -20.9512  -11.7532 C   0  0  2  0  0  0  0  0  0  0  0  0
   23.2962  -20.7837  -10.7150 C   0  0  0  0  0  0  0  0  0  0  0  0
   23.8841  -21.5085  -13.0661 C   0  0  2  0  0  0  0  0  0  0  0  0
   25.0468  -21.3513  -13.9667 N   0  0  0  0  0  0  0  0  0  0  0  0
   22.6885  -20.9156  -13.6364 C   0  0  0  0  0  0  0  0  0  0  0  0
   22.7167  -19.6437  -13.8113 O   0  0  0  0  0  0  0  0  0  0  0  0
   21.5160  -21.5924  -14.0128 N   0  0  0  0  0  0  0  0  0  0  0  0
   20.4173  -20.8566  -14.6068 C   0  0  0  0  0  0  0  0  0  0  0  0
   19.2812  -20.7076  -13.6656 C   0  0  0  0  0  0  0  0  0  0  0  0
   18.1001  -20.0653  -13.9979 O   0  0  0  0  0  0  0  0  0  0  0  0
   19.3816  -21.1818  -12.5089 O   0  0  0  0  0  0  0  0  0  0  0  0
  2  1  1  0
  2  3  1  0
  3  5  1  0
  3  4  1  6
  5  7  1  0
  5  6  1  1
  7  8  2  0
 10  9  1  0
 11 10  1  0
 11 12  1  1
 13 11  1  0
 14  7  1  0
 13 14  1  6
 15 17  1  0
 15 13  1  0
 16 15  2  0
 18 17  1  0
 19 20  1  0
 19 18  1  0
 21 19  2  0
M  END
$$$$
