IIG.pdb
     RDKit          3D

 21 20  0  0  1  0  0  0  0  0999 V2000
   28.6596  -12.4263  -16.0624 C   0  0  0  0  0  0  0  0  0  0  0  0
   27.2263  -12.7960  -16.2253 C   0  0  0  0  0  0  0  0  0  0  0  0
   26.2640  -11.6364  -16.2025 C   0  0  2  0  0  0  0  0  0  0  0  0
   26.3847  -10.8488  -14.9399 C   0  0  0  0  0  0  0  0  0  0  0  0
   24.8815  -12.1707  -16.4769 C   0  0  2  0  0  0  0  0  0  0  0  0
   25.0201  -12.9700  -17.7095 N   0  0  0  0  0  0  0  0  0  0  0  0
   23.8763  -11.1230  -16.7675 C   0  0  0  0  0  0  0  0  0  0  0  0
   23.9986  -10.4002  -17.8184 O   0  0  0  0  0  0  0  0  0  0  0  0
   20.0595  -12.6192  -17.8103 C   0  0  0  0  0  0  0  0  0  0  0  0
   20.4902  -11.1498  -17.9667 C   0  0  0  0  0  0  0  0  0  0  0  0
   20.5226  -10.4640  -16.6394 C   0  0  2  0  0  0  0  0  0  0  0  0
   19.2812   -9.6829  -16.3316 C   0  0  0  0  0  0  0  0  0  0  0  0
   21.8101   -9.7435  -16.3433 C   0  0  2  0  0  0  0  0  0  0  0  0
   22.7479  -10.8258  -15.9739 N   0  0  0  0  0  0  0  0  0  0  0  0
   21.7678   -8.7092  -15.3261 C   0  0  0  0  0  0  0  0  0  0  0  0
   21.9284   -9.1018  -14.1140 O   0  0  0  0  0  0  0  0  0  0  0  0
   21.5714   -7.3340  -15.5379 N   0  0  0  0  0  0  0  0  0  0  0  0
   21.4970   -6.4330  -14.4047 C   0  0  0  0  0  0  0  0  0  0  0  0
   22.5016   -5.3463  -14.4979 C   0  0  0  0  0  0  0  0  0  0  0  0
   22.5476   -4.2782  -13.6175 O   0  0  0  0  0  0  0  0  0  0  0  0
   23.3573   -5.3841  -15.4140 O   0  0  0  0  0  0  0  0  0  0  0  0
  2  1  1  0
  2  3  1  0
  3  5  1  0
  3  4  1  1
  5  7  1  0
  5  6  1  6
  7  8  2  0
 10  9  1  0
 11 10  1  0
 11 12  1  6
 13 11  1  0
 14  7  1  0
 13 14  1  1
 15 17  1  0
 15 13  1  0
 16 15  2  0
 18 17  1  0
 19 20  1  0
 19 18  1  0
 21 19  2  0
M  END
$$$$
