IIG.pdb
     RDKit          3D

 21 20  0  0  1  0  0  0  0  0999 V2000
   17.8283  -12.5785  -19.5349 C   0  0  0  0  0  0  0  0  0  0  0  0
   19.2281  -12.9624  -19.2017 C   0  0  0  0  0  0  0  0  0  0  0  0
   19.8460  -12.1893  -18.0652 C   0  0  2  0  0  0  0  0  0  0  0  0
   19.7169  -10.7161  -18.2705 C   0  0  0  0  0  0  0  0  0  0  0  0
   21.2619  -12.6741  -17.8855 C   0  0  2  0  0  0  0  0  0  0  0  0
   21.1377  -14.1192  -17.6139 N   0  0  0  0  0  0  0  0  0  0  0  0
   21.9573  -12.0864  -16.7177 C   0  0  0  0  0  0  0  0  0  0  0  0
   21.5668  -12.3792  -15.5330 O   0  0  0  0  0  0  0  0  0  0  0  0
   26.8896  -12.6030  -15.7301 C   0  0  0  0  0  0  0  0  0  0  0  0
   25.3788  -12.3603  -15.5647 C   0  0  0  0  0  0  0  0  0  0  0  0
   25.0703  -10.8988  -15.6061 C   0  0  2  0  0  0  0  0  0  0  0  0
   25.9291  -10.0731  -14.6968 C   0  0  0  0  0  0  0  0  0  0  0  0
   23.6023  -10.5717  -15.5549 C   0  0  2  0  0  0  0  0  0  0  0  0
   23.0539  -11.2002  -16.7763 N   0  0  0  0  0  0  0  0  0  0  0  0
   23.2421   -9.1681  -15.4740 C   0  0  0  0  0  0  0  0  0  0  0  0
   23.5851   -8.4382  -16.4733 O   0  0  0  0  0  0  0  0  0  0  0  0
   22.5601   -8.5381  -14.4192 N   0  0  0  0  0  0  0  0  0  0  0  0
   22.2063   -7.1363  -14.5242 C   0  0  0  0  0  0  0  0  0  0  0  0
   20.8385   -6.9524  -15.0667 C   0  0  0  0  0  0  0  0  0  0  0  0
   20.2222   -5.7162  -15.1672 O   0  0  0  0  0  0  0  0  0  0  0  0
   20.1974   -7.9571  -15.4571 O   0  0  0  0  0  0  0  0  0  0  0  0
  2  1  1  0
  2  3  1  0
  3  5  1  0
  3  4  1  6
  5  7  1  0
  5  6  1  1
  7  8  2  0
 10  9  1  0
 11 10  1  0
 11 12  1  1
 13 11  1  0
 14  7  1  0
 13 14  1  6
 15 17  1  0
 15 13  1  0
 16 15  2  0
 18 17  1  0
 19 20  1  0
 19 18  1  0
 21 19  2  0
M  END
$$$$
