IIG.pdb
     RDKit          3D

 21 20  0  0  1  0  0  0  0  0999 V2000
   32.6058  -28.5371  -19.2862 C   0  0  0  0  0  0  0  0  0  0  0  0
   31.6911  -29.7074  -19.1783 C   0  0  0  0  0  0  0  0  0  0  0  0
   32.3659  -31.0133  -18.8461 C   0  0  2  0  0  0  0  0  0  0  0  0
   33.4263  -31.3510  -19.8414 C   0  0  0  0  0  0  0  0  0  0  0  0
   31.2974  -32.0649  -18.6891 C   0  0  2  0  0  0  0  0  0  0  0  0
   30.6735  -32.1753  -20.0218 N   0  0  0  0  0  0  0  0  0  0  0  0
   30.2158  -31.6906  -17.7496 C   0  0  0  0  0  0  0  0  0  0  0  0
   30.4998  -31.4212  -16.5296 O   0  0  0  0  0  0  0  0  0  0  0  0
   27.6339  -27.6381  -18.1729 C   0  0  0  0  0  0  0  0  0  0  0  0
   28.1155  -28.8147  -17.3053 C   0  0  0  0  0  0  0  0  0  0  0  0
   27.2226  -30.0002  -17.4791 C   0  0  2  0  0  0  0  0  0  0  0  0
   25.8166  -29.7723  -17.0132 C   0  0  0  0  0  0  0  0  0  0  0  0
   27.8289  -31.3050  -17.0378 C   0  0  2  0  0  0  0  0  0  0  0  0
   28.8454  -31.5942  -18.0725 N   0  0  0  0  0  0  0  0  0  0  0  0
   26.9236  -32.4248  -16.8570 C   0  0  0  0  0  0  0  0  0  0  0  0
   25.9453  -32.2355  -16.0470 O   0  0  0  0  0  0  0  0  0  0  0  0
   27.0130  -33.6824  -17.4775 N   0  0  0  0  0  0  0  0  0  0  0  0
   25.9613  -34.6604  -17.2805 C   0  0  0  0  0  0  0  0  0  0  0  0
   26.2368  -35.5391  -16.1182 C   0  0  0  0  0  0  0  0  0  0  0  0
   27.2612  -35.3048  -15.2162 O   0  0  0  0  0  0  0  0  0  0  0  0
   25.5144  -36.5471  -15.9312 O   0  0  0  0  0  0  0  0  0  0  0  0
  2  1  1  0
  2  3  1  0
  3  5  1  0
  3  4  1  6
  5  7  1  0
  5  6  1  6
  7  8  2  0
 10  9  1  0
 11 10  1  0
 11 12  1  1
 13 11  1  0
 14  7  1  0
 13 14  1  6
 15 17  1  0
 15 13  1  0
 16 15  2  0
 18 17  1  0
 19 20  1  0
 19 18  1  0
 21 19  2  0
M  END
$$$$
