CKQ.pdb
     RDKit          3D

 25 24  0  0  1  0  0  0  0  0999 V2000
   24.6867  -11.8915  -17.6336 N   0  0  0  0  0  0  0  0  0  0  0  0
   24.1544  -11.5879  -16.3434 C   0  0  1  0  0  0  0  0  0  0  0  0
   25.2140  -10.8639  -15.5420 C   0  0  0  0  0  0  0  0  0  0  0  0
   26.5860  -11.9510  -15.1512 S   0  0  0  0  0  0  0  0  0  0  0  0
   22.9337  -10.7780  -16.4843 C   0  0  0  0  0  0  0  0  0  0  0  0
   22.8699   -9.8373  -17.3034 O   0  0  0  0  0  0  0  0  0  0  0  0
   21.8120  -11.0655  -15.6812 N   0  0  0  0  0  0  0  0  0  0  0  0
   20.5359  -10.3694  -15.8121 C   0  0  1  0  0  0  0  0  0  0  0  0
   19.3822  -11.2464  -15.5154 C   0  0  0  0  0  0  0  0  0  0  0  0
   19.1019  -12.2698  -16.5805 C   0  0  0  0  0  0  0  0  0  0  0  0
   19.0520  -13.6725  -15.9838 C   0  0  0  0  0  0  0  0  0  0  0  0
   18.7072  -14.6025  -17.1502 C   0  0  0  0  0  0  0  0  0  0  0  0
   18.7159  -15.9599  -16.6306 N   0  0  0  0  0  0  0  0  0  0  0  0
   20.5969   -9.1197  -15.0152 C   0  0  0  0  0  0  0  0  0  0  0  0
   21.2474   -8.9730  -13.9522 O   0  0  0  0  0  0  0  0  0  0  0  0
   23.5280   -4.8651  -15.7026 N   0  0  0  0  0  0  0  0  0  0  0  0
   22.6840   -4.0734  -14.8885 C   0  0  0  0  0  0  0  0  0  0  0  0
   23.0323   -2.9295  -14.5362 O   0  0  0  0  0  0  0  0  0  0  0  0
   21.3665   -4.6714  -14.4761 C   0  0  0  0  0  0  0  0  0  0  0  0
   21.2554   -6.0125  -15.1300 C   0  0  0  0  0  0  0  0  0  0  0  0
   19.9798   -6.6926  -14.7608 C   0  0  2  0  0  0  0  0  0  0  0  0
   19.8720   -7.9751  -15.4619 N   0  0  0  0  0  0  0  0  0  0  0  0
   18.7708   -5.8820  -14.9711 C   0  0  0  0  0  0  0  0  0  0  0  0
   18.3696   -4.9119  -14.0316 O   0  0  0  0  0  0  0  0  0  0  0  0
   18.0511   -6.0059  -15.9696 O   0  0  0  0  0  0  0  0  0  0  0  0
  2  1  1  6
  2  3  1  0
  3  4  1  0
  5  2  1  0
  6  5  2  0
  7  5  1  0
  8  7  1  0
  8  9  1  1
 10 11  1  0
 10  9  1  0
 12 11  1  0
 13 12  1  0
 14 22  1  0
 14  8  1  0
 15 14  2  0
 17 16  1  0
 18 17  2  0
 19 17  1  0
 21 20  1  6
 20 19  1  0
 21 23  1  0
 21 22  1  0
 23 24  1  0
 25 23  2  0
M  END
$$$$
