CKQ.pdb
     RDKit          3D

 25 24  0  0  1  0  0  0  0  0999 V2000
   26.6298  -11.0377  -18.0890 N   0  0  0  0  0  0  0  0  0  0  0  0
   25.8111  -11.1710  -16.9263 C   0  0  1  0  0  0  0  0  0  0  0  0
   26.5436  -10.5671  -15.7481 C   0  0  0  0  0  0  0  0  0  0  0  0
   27.9188  -11.6009  -15.2414 S   0  0  0  0  0  0  0  0  0  0  0  0
   24.5129  -10.5153  -17.1513 C   0  0  0  0  0  0  0  0  0  0  0  0
   24.4347   -9.4135  -17.7343 O   0  0  0  0  0  0  0  0  0  0  0  0
   23.3318  -11.1389  -16.7017 N   0  0  0  0  0  0  0  0  0  0  0  0
   22.0015  -10.5761  -16.9109 C   0  0  1  0  0  0  0  0  0  0  0  0
   20.9362  -11.5984  -16.8211 C   0  0  0  0  0  0  0  0  0  0  0  0
   19.5552  -11.0681  -17.0895 C   0  0  0  0  0  0  0  0  0  0  0  0
   18.5180  -12.1815  -16.9854 C   0  0  0  0  0  0  0  0  0  0  0  0
   17.1917  -11.5479  -17.4140 C   0  0  0  0  0  0  0  0  0  0  0  0
   16.1558  -12.5464  -17.2083 N   0  0  0  0  0  0  0  0  0  0  0  0
   21.8345   -9.4128  -16.0058 C   0  0  0  0  0  0  0  0  0  0  0  0
   22.1447   -9.3942  -14.7900 O   0  0  0  0  0  0  0  0  0  0  0  0
   22.3204   -5.0571  -12.9959 N   0  0  0  0  0  0  0  0  0  0  0  0
   22.6479   -4.6194  -14.3010 C   0  0  0  0  0  0  0  0  0  0  0  0
   23.8006   -4.2276  -14.5688 O   0  0  0  0  0  0  0  0  0  0  0  0
   21.5531   -4.6500  -15.3325 C   0  0  0  0  0  0  0  0  0  0  0  0
   21.7761   -5.8545  -16.1916 C   0  0  0  0  0  0  0  0  0  0  0  0
   21.0547   -7.0452  -15.6552 C   0  0  2  0  0  0  0  0  0  0  0  0
   21.2810   -8.2041  -16.5234 N   0  0  0  0  0  0  0  0  0  0  0  0
   19.6163   -6.8386  -15.4284 C   0  0  0  0  0  0  0  0  0  0  0  0
   18.7268   -6.6521  -16.5049 O   0  0  0  0  0  0  0  0  0  0  0  0
   19.1166   -6.8178  -14.2970 O   0  0  0  0  0  0  0  0  0  0  0  0
  2  1  1  6
  2  3  1  0
  3  4  1  0
  5  2  1  0
  6  5  2  0
  7  5  1  0
  8  7  1  0
  8  9  1  1
 10 11  1  0
 10  9  1  0
 12 11  1  0
 13 12  1  0
 14 22  1  0
 14  8  1  0
 15 14  2  0
 17 16  1  0
 18 17  2  0
 19 17  1  0
 21 20  1  6
 20 19  1  0
 21 23  1  0
 21 22  1  0
 23 24  1  0
 25 23  2  0
M  END
$$$$
