CKQ.pdb
     RDKit          3D

 25 24  0  0  1  0  0  0  0  0999 V2000
   28.2679  -20.5511  -16.7633 N   0  0  0  0  0  0  0  0  0  0  0  0
   26.9571  -21.0340  -16.4660 C   0  0  1  0  0  0  0  0  0  0  0  0
   27.0622  -22.0739  -15.3719 C   0  0  0  0  0  0  0  0  0  0  0  0
   28.0108  -23.4948  -15.9177 S   0  0  0  0  0  0  0  0  0  0  0  0
   26.0901  -19.9136  -16.0674 C   0  0  0  0  0  0  0  0  0  0  0  0
   26.4624  -19.0741  -15.2211 O   0  0  0  0  0  0  0  0  0  0  0  0
   24.8134  -19.7813  -16.6493 N   0  0  0  0  0  0  0  0  0  0  0  0
   23.8864  -18.7073  -16.3066 C   0  0  1  0  0  0  0  0  0  0  0  0
   23.6708  -17.7689  -17.4296 C   0  0  0  0  0  0  0  0  0  0  0  0
   22.7074  -16.6567  -17.1209 C   0  0  0  0  0  0  0  0  0  0  0  0
   22.4463  -15.8071  -18.3604 C   0  0  0  0  0  0  0  0  0  0  0  0
   21.5645  -14.6490  -17.8855 C   0  0  0  0  0  0  0  0  0  0  0  0
   21.3806  -13.7596  -19.0203 N   0  0  0  0  0  0  0  0  0  0  0  0
   22.6528  -19.3107  -15.7458 C   0  0  0  0  0  0  0  0  0  0  0  0
   21.9707  -20.2058  -16.3011 O   0  0  0  0  0  0  0  0  0  0  0  0
   21.3060  -19.1560   -9.7621 N   0  0  0  0  0  0  0  0  0  0  0  0
   20.1886  -19.9119  -10.1889 C   0  0  0  0  0  0  0  0  0  0  0  0
   19.4229  -20.4380   -9.3576 O   0  0  0  0  0  0  0  0  0  0  0  0
   19.9744  -20.0468  -11.6719 C   0  0  0  0  0  0  0  0  0  0  0  0
   21.1131  -19.3591  -12.3566 C   0  0  0  0  0  0  0  0  0  0  0  0
   21.0206  -19.5006  -13.8390 C   0  0  2  0  0  0  0  0  0  0  0  0
   22.1749  -18.8630  -14.4784 N   0  0  0  0  0  0  0  0  0  0  0  0
   19.7644  -19.0077  -14.4238 C   0  0  0  0  0  0  0  0  0  0  0  0
   18.7140  -19.8893  -14.7467 O   0  0  0  0  0  0  0  0  0  0  0  0
   19.5646  -17.8101  -14.6604 O   0  0  0  0  0  0  0  0  0  0  0  0
  2  1  1  1
  2  3  1  0
  3  4  1  0
  5  2  1  0
  6  5  2  0
  7  5  1  0
  8  7  1  0
  8  9  1  6
 10 11  1  0
 10  9  1  0
 12 11  1  0
 13 12  1  0
 14 22  1  0
 14  8  1  0
 15 14  2  0
 17 16  1  0
 18 17  2  0
 19 17  1  0
 21 20  1  1
 20 19  1  0
 21 23  1  0
 21 22  1  0
 23 24  1  0
 25 23  2  0
M  END
$$$$
