CKQ.pdb
     RDKit          3D

 25 24  0  0  1  0  0  0  0  0999 V2000
   22.4238  -30.7024  -10.0810 N   0  0  0  0  0  0  0  0  0  0  0  0
   21.2400  -30.2892  -10.7650 C   0  0  1  0  0  0  0  0  0  0  0  0
   20.1004  -31.1923  -10.3466 C   0  0  0  0  0  0  0  0  0  0  0  0
   20.4480  -32.9043  -10.7529 S   0  0  0  0  0  0  0  0  0  0  0  0
   20.9533  -28.8782  -10.4601 C   0  0  0  0  0  0  0  0  0  0  0  0
   21.2363  -28.3839   -9.3487 O   0  0  0  0  0  0  0  0  0  0  0  0
   20.3473  -28.0648  -11.4384 N   0  0  0  0  0  0  0  0  0  0  0  0
   20.0696  -26.6460  -11.2380 C   0  0  1  0  0  0  0  0  0  0  0  0
   20.0855  -25.8838  -12.5055 C   0  0  0  0  0  0  0  0  0  0  0  0
   19.8729  -24.4054  -12.3331 C   0  0  0  0  0  0  0  0  0  0  0  0
   18.5189  -23.9840  -12.8944 C   0  0  0  0  0  0  0  0  0  0  0  0
   18.4925  -22.4561  -12.7982 C   0  0  0  0  0  0  0  0  0  0  0  0
   17.2141  -22.0170  -13.3325 N   0  0  0  0  0  0  0  0  0  0  0  0
   18.8242  -26.5174  -10.4425 C   0  0  0  0  0  0  0  0  0  0  0  0
   17.7343  -27.0775  -10.7131 O   0  0  0  0  0  0  0  0  0  0  0  0
   18.8198  -25.5461   -4.4679 N   0  0  0  0  0  0  0  0  0  0  0  0
   17.4171  -25.4875   -4.6442 C   0  0  0  0  0  0  0  0  0  0  0  0
   16.6587  -25.3591   -3.6633 O   0  0  0  0  0  0  0  0  0  0  0  0
   16.8954  -25.5864   -6.0519 C   0  0  0  0  0  0  0  0  0  0  0  0
   18.0767  -25.6264   -6.9691 C   0  0  0  0  0  0  0  0  0  0  0  0
   17.6535  -25.6268   -8.3998 C   0  0  2  0  0  0  0  0  0  0  0  0
   18.8288  -25.7015   -9.2723 N   0  0  0  0  0  0  0  0  0  0  0  0
   16.7921  -24.4983   -8.7837 C   0  0  0  0  0  0  0  0  0  0  0  0
   15.4342  -24.4563   -8.4104 O   0  0  0  0  0  0  0  0  0  0  0  0
   17.2066  -23.5387   -9.4452 O   0  0  0  0  0  0  0  0  0  0  0  0
  2  1  1  1
  2  3  1  0
  3  4  1  0
  5  2  1  0
  6  5  2  0
  7  5  1  0
  8  7  1  0
  8  9  1  6
 10 11  1  0
 10  9  1  0
 12 11  1  0
 13 12  1  0
 14 22  1  0
 14  8  1  0
 15 14  2  0
 17 16  1  0
 18 17  2  0
 19 17  1  0
 21 20  1  1
 20 19  1  0
 21 23  1  0
 21 22  1  0
 23 24  1  0
 25 23  2  0
M  END
$$$$
