CKQ.pdb
     RDKit          3D

 25 24  0  0  1  0  0  0  0  0999 V2000
   14.7061  -13.8833  -12.4202 N   0  0  0  0  0  0  0  0  0  0  0  0
   15.6772  -13.1511  -11.6713 C   0  0  1  0  0  0  0  0  0  0  0  0
   17.0569  -13.5699  -12.1299 C   0  0  0  0  0  0  0  0  0  0  0  0
   17.4422  -15.2353  -11.5869 S   0  0  0  0  0  0  0  0  0  0  0  0
   15.4616  -11.7064  -11.8509 C   0  0  0  0  0  0  0  0  0  0  0  0
   15.1923  -11.2248  -12.9713 O   0  0  0  0  0  0  0  0  0  0  0  0
   15.5602  -10.8453  -10.7398 N   0  0  0  0  0  0  0  0  0  0  0  0
   15.2265   -9.4256  -10.7969 C   0  0  1  0  0  0  0  0  0  0  0  0
   14.3748   -9.0005   -9.6646 C   0  0  0  0  0  0  0  0  0  0  0  0
   12.9089   -9.2649   -9.8689 C   0  0  0  0  0  0  0  0  0  0  0  0
   12.0878   -8.6714   -8.7288 C   0  0  0  0  0  0  0  0  0  0  0  0
   10.6303   -9.0096   -9.0539 C   0  0  0  0  0  0  0  0  0  0  0  0
    9.8205   -8.5051   -7.9574 N   0  0  0  0  0  0  0  0  0  0  0  0
   16.4817   -8.6529  -10.9642 C   0  0  0  0  0  0  0  0  0  0  0  0
   17.4992   -8.7637  -10.2381 O   0  0  0  0  0  0  0  0  0  0  0  0
   20.7069   -9.3443  -13.8320 N   0  0  0  0  0  0  0  0  0  0  0  0
   21.1535   -8.0286  -13.5643 C   0  0  0  0  0  0  0  0  0  0  0  0
   22.3251   -7.6907  -13.8234 O   0  0  0  0  0  0  0  0  0  0  0  0
   20.1598   -7.0736  -12.9611 C   0  0  0  0  0  0  0  0  0  0  0  0
   18.8905   -7.8308  -12.7280 C   0  0  0  0  0  0  0  0  0  0  0  0
   17.8042   -6.9323  -12.2396 C   0  0  2  0  0  0  0  0  0  0  0  0
   16.5752   -7.7006  -12.0223 N   0  0  0  0  0  0  0  0  0  0  0  0
   17.5431   -5.7657  -13.0963 C   0  0  0  0  0  0  0  0  0  0  0  0
   18.4369   -4.6775  -13.1402 O   0  0  0  0  0  0  0  0  0  0  0  0
   16.5397   -5.6777  -13.8143 O   0  0  0  0  0  0  0  0  0  0  0  0
  2  1  1  6
  2  3  1  0
  3  4  1  0
  5  2  1  0
  6  5  2  0
  7  5  1  0
  8  7  1  0
  8  9  1  1
 10 11  1  0
 10  9  1  0
 12 11  1  0
 13 12  1  0
 14 22  1  0
 14  8  1  0
 15 14  2  0
 17 16  1  0
 18 17  2  0
 19 17  1  0
 21 20  1  6
 20 19  1  0
 21 23  1  0
 21 22  1  0
 23 24  1  0
 25 23  2  0
M  END
$$$$
