CKQ.pdb
     RDKit          3D

 25 24  0  0  1  0  0  0  0  0999 V2000
   19.6955  -20.8554  -11.6199 N   0  0  0  0  0  0  0  0  0  0  0  0
   19.9707  -21.4195  -12.9028 C   0  0  1  0  0  0  0  0  0  0  0  0
   18.6655  -21.5737  -13.6525 C   0  0  0  0  0  0  0  0  0  0  0  0
   17.9614  -23.2036  -13.3986 S   0  0  0  0  0  0  0  0  0  0  0  0
   20.9173  -20.5616  -13.6334 C   0  0  0  0  0  0  0  0  0  0  0  0
   20.7619  -19.3236  -13.6882 O   0  0  0  0  0  0  0  0  0  0  0  0
   22.0223  -21.1439  -14.2860 N   0  0  0  0  0  0  0  0  0  0  0  0
   22.9569  -20.3824  -15.1087 C   0  0  1  0  0  0  0  0  0  0  0  0
   24.2601  -21.0655  -15.2609 C   0  0  0  0  0  0  0  0  0  0  0  0
   24.1635  -22.4410  -15.8601 C   0  0  0  0  0  0  0  0  0  0  0  0
   25.5161  -23.1446  -15.8214 C   0  0  0  0  0  0  0  0  0  0  0  0
   25.3322  -24.4318  -16.6298 C   0  0  0  0  0  0  0  0  0  0  0  0
   26.6043  -25.1346  -16.6083 N   0  0  0  0  0  0  0  0  0  0  0  0
   22.2820  -20.0251  -16.3805 C   0  0  0  0  0  0  0  0  0  0  0  0
   21.3242  -20.6553  -16.8907 O   0  0  0  0  0  0  0  0  0  0  0  0
   18.5665  -17.5091  -19.2011 N   0  0  0  0  0  0  0  0  0  0  0  0
   19.4338  -16.4688  -19.6107 C   0  0  0  0  0  0  0  0  0  0  0  0
   19.0482  -15.6021  -20.4194 O   0  0  0  0  0  0  0  0  0  0  0  0
   20.8219  -16.4612  -19.0307 C   0  0  0  0  0  0  0  0  0  0  0  0
   20.9100  -17.5933  -18.0564 C   0  0  0  0  0  0  0  0  0  0  0  0
   22.0752  -18.4762  -18.3539 C   0  0  2  0  0  0  0  0  0  0  0  0
   22.7302  -18.8823  -17.1073 N   0  0  0  0  0  0  0  0  0  0  0  0
   23.0527  -17.9045  -19.2923 C   0  0  0  0  0  0  0  0  0  0  0  0
   22.7756  -17.8146  -20.6706 O   0  0  0  0  0  0  0  0  0  0  0  0
   24.1551  -17.4775  -18.9279 O   0  0  0  0  0  0  0  0  0  0  0  0
  2  1  1  1
  2  3  1  0
  3  4  1  0
  5  2  1  0
  6  5  2  0
  7  5  1  0
  8  7  1  0
  8  9  1  6
 10 11  1  0
 10  9  1  0
 12 11  1  0
 13 12  1  0
 14 22  1  0
 14  8  1  0
 15 14  2  0
 17 16  1  0
 18 17  2  0
 19 17  1  0
 21 20  1  1
 20 19  1  0
 21 23  1  0
 21 22  1  0
 23 24  1  0
 25 23  2  0
M  END
$$$$
