CKQ.pdb
     RDKit          3D

 25 24  0  0  1  0  0  0  0  0999 V2000
   14.9218  -11.9525  -10.6659 N   0  0  0  0  0  0  0  0  0  0  0  0
   16.0433  -11.0865  -10.4867 C   0  0  1  0  0  0  0  0  0  0  0  0
   17.0783  -11.4121  -11.5413 C   0  0  0  0  0  0  0  0  0  0  0  0
   18.6022  -10.5113  -11.2531 S   0  0  0  0  0  0  0  0  0  0  0  0
   15.6090   -9.6827  -10.5688 C   0  0  0  0  0  0  0  0  0  0  0  0
   14.9366   -9.2669  -11.5357 O   0  0  0  0  0  0  0  0  0  0  0  0
   15.9564   -8.7861   -9.5387 N   0  0  0  0  0  0  0  0  0  0  0  0
   15.5509   -7.3840   -9.5290 C   0  0  1  0  0  0  0  0  0  0  0  0
   14.7543   -7.0357   -8.3323 C   0  0  0  0  0  0  0  0  0  0  0  0
   13.2937   -7.3720   -8.4504 C   0  0  0  0  0  0  0  0  0  0  0  0
   12.5176   -6.8442   -7.2482 C   0  0  0  0  0  0  0  0  0  0  0  0
   11.0877   -7.3626   -7.4233 C   0  0  0  0  0  0  0  0  0  0  0  0
   10.3394   -6.9568   -6.2452 N   0  0  0  0  0  0  0  0  0  0  0  0
   16.7535   -6.5442   -9.7502 C   0  0  0  0  0  0  0  0  0  0  0  0
   17.7915   -6.5709   -9.0455 O   0  0  0  0  0  0  0  0  0  0  0  0
   20.9422   -7.2188  -12.6073 N   0  0  0  0  0  0  0  0  0  0  0  0
   21.2740   -5.8433  -12.5975 C   0  0  0  0  0  0  0  0  0  0  0  0
   22.4018   -5.4596  -12.9645 O   0  0  0  0  0  0  0  0  0  0  0  0
   20.2148   -4.8829  -12.1295 C   0  0  0  0  0  0  0  0  0  0  0  0
   19.0365   -5.6915  -11.6865 C   0  0  0  0  0  0  0  0  0  0  0  0
   17.9570   -4.8214  -11.1356 C   0  0  2  0  0  0  0  0  0  0  0  0
   16.7664   -5.6230  -10.8393 N   0  0  0  0  0  0  0  0  0  0  0  0
   17.6102   -3.6677  -11.9794 C   0  0  0  0  0  0  0  0  0  0  0  0
   18.4561   -2.5443  -12.0639 O   0  0  0  0  0  0  0  0  0  0  0  0
   16.5724   -3.6218  -12.6510 O   0  0  0  0  0  0  0  0  0  0  0  0
  2  1  1  6
  2  3  1  0
  3  4  1  0
  5  2  1  0
  6  5  2  0
  7  5  1  0
  8  7  1  0
  8  9  1  1
 10 11  1  0
 10  9  1  0
 12 11  1  0
 13 12  1  0
 14 22  1  0
 14  8  1  0
 15 14  2  0
 17 16  1  0
 18 17  2  0
 19 17  1  0
 21 20  1  6
 20 19  1  0
 21 23  1  0
 21 22  1  0
 23 24  1  0
 25 23  2  0
M  END
$$$$
