CKQ.pdb
     RDKit          3D

 25 24  0  0  1  0  0  0  0  0999 V2000
   13.5917  -14.6038  -11.9050 N   0  0  0  0  0  0  0  0  0  0  0  0
   13.2528  -13.2748  -12.3033 C   0  0  1  0  0  0  0  0  0  0  0  0
   12.1656  -12.7583  -11.3865 C   0  0  0  0  0  0  0  0  0  0  0  0
   10.6745  -13.7446  -11.5302 S   0  0  0  0  0  0  0  0  0  0  0  0
   14.4497  -12.4196  -12.2602 C   0  0  0  0  0  0  0  0  0  0  0  0
   15.2247  -12.4367  -11.2809 O   0  0  0  0  0  0  0  0  0  0  0  0
   14.7311  -11.5624  -13.3427 N   0  0  0  0  0  0  0  0  0  0  0  0
   15.9551  -10.7732  -13.4401 C   0  0  1  0  0  0  0  0  0  0  0  0
   16.6199  -10.9234  -14.7529 C   0  0  0  0  0  0  0  0  0  0  0  0
   17.9115  -10.1636  -14.8750 C   0  0  0  0  0  0  0  0  0  0  0  0
   18.5379  -10.3779  -16.2490 C   0  0  0  0  0  0  0  0  0  0  0  0
   19.8304   -9.5572  -16.2431 C   0  0  0  0  0  0  0  0  0  0  0  0
   20.4011   -9.6504  -17.5766 N   0  0  0  0  0  0  0  0  0  0  0  0
   15.6475   -9.3763  -13.0471 C   0  0  0  0  0  0  0  0  0  0  0  0
   14.6660   -8.7109  -13.4577 O   0  0  0  0  0  0  0  0  0  0  0  0
   15.5927   -7.0723   -7.7088 N   0  0  0  0  0  0  0  0  0  0  0  0
   14.7585   -6.2227   -8.4732 C   0  0  0  0  0  0  0  0  0  0  0  0
   13.9366   -5.4699   -7.9149 O   0  0  0  0  0  0  0  0  0  0  0  0
   14.9107   -6.2725   -9.9691 C   0  0  0  0  0  0  0  0  0  0  0  0
   16.0231   -7.2241  -10.2780 C   0  0  0  0  0  0  0  0  0  0  0  0
   16.2697   -7.3128  -11.7468 C   0  0  2  0  0  0  0  0  0  0  0  0
   16.5133   -8.7054  -12.1331 N   0  0  0  0  0  0  0  0  0  0  0  0
   17.3460   -6.4405  -12.2406 C   0  0  0  0  0  0  0  0  0  0  0  0
   18.4782   -6.9730  -12.8882 O   0  0  0  0  0  0  0  0  0  0  0  0
   17.3161   -5.2101  -12.1163 O   0  0  0  0  0  0  0  0  0  0  0  0
  2  1  1  1
  2  3  1  0
  3  4  1  0
  5  2  1  0
  6  5  2  0
  7  5  1  0
  8  7  1  0
  8  9  1  6
 10 11  1  0
 10  9  1  0
 12 11  1  0
 13 12  1  0
 14 22  1  0
 14  8  1  0
 15 14  2  0
 17 16  1  0
 18 17  2  0
 19 17  1  0
 21 20  1  1
 20 19  1  0
 21 23  1  0
 21 22  1  0
 23 24  1  0
 25 23  2  0
M  END
$$$$
