CKQ.pdb
     RDKit          3D

 25 24  0  0  1  0  0  0  0  0999 V2000
   27.2105  -11.3483  -17.9743 N   0  0  0  0  0  0  0  0  0  0  0  0
   26.4250  -11.5289  -16.7952 C   0  0  1  0  0  0  0  0  0  0  0  0
   27.2601  -11.1410  -15.5945 C   0  0  0  0  0  0  0  0  0  0  0  0
   28.5693  -12.3321  -15.3042 S   0  0  0  0  0  0  0  0  0  0  0  0
   25.1969  -10.7229  -16.8844 C   0  0  0  0  0  0  0  0  0  0  0  0
   25.1679   -9.6535  -17.5289 O   0  0  0  0  0  0  0  0  0  0  0  0
   24.0281  -11.1620  -16.2311 N   0  0  0  0  0  0  0  0  0  0  0  0
   22.7442  -10.4769  -16.3436 C   0  0  1  0  0  0  0  0  0  0  0  0
   21.6042  -11.3561  -16.0038 C   0  0  0  0  0  0  0  0  0  0  0  0
   20.2632  -10.6829  -16.0980 C   0  0  0  0  0  0  0  0  0  0  0  0
   19.1410  -11.6640  -15.7750 C   0  0  0  0  0  0  0  0  0  0  0  0
   17.8403  -10.8905  -16.0077 C   0  0  0  0  0  0  0  0  0  0  0  0
   17.5628  -10.9417  -17.4335 N   0  0  0  0  0  0  0  0  0  0  0  0
   22.8155   -9.2128  -15.5708 C   0  0  0  0  0  0  0  0  0  0  0  0
   23.2651   -9.1048  -14.4042 O   0  0  0  0  0  0  0  0  0  0  0  0
   23.9964   -3.8654  -17.9636 N   0  0  0  0  0  0  0  0  0  0  0  0
   23.6451   -3.3690  -16.6860 C   0  0  0  0  0  0  0  0  0  0  0  0
   23.7844   -2.1605  -16.4140 O   0  0  0  0  0  0  0  0  0  0  0  0
   23.1038   -4.3567  -15.6886 C   0  0  0  0  0  0  0  0  0  0  0  0
   23.0045   -5.6825  -16.3748 C   0  0  0  0  0  0  0  0  0  0  0  0
   22.4477   -6.7249  -15.4641 C   0  0  2  0  0  0  0  0  0  0  0  0
   22.3451   -8.0060  -16.1686 N   0  0  0  0  0  0  0  0  0  0  0  0
   21.1638   -6.3704  -14.8404 C   0  0  0  0  0  0  0  0  0  0  0  0
   21.1133   -5.6180  -13.6504 O   0  0  0  0  0  0  0  0  0  0  0  0
   20.0746   -6.7084  -15.3196 O   0  0  0  0  0  0  0  0  0  0  0  0
  2  1  1  6
  2  3  1  0
  3  4  1  0
  5  2  1  0
  6  5  2  0
  7  5  1  0
  8  7  1  0
  8  9  1  1
 10 11  1  0
 10  9  1  0
 12 11  1  0
 13 12  1  0
 14 22  1  0
 14  8  1  0
 15 14  2  0
 17 16  1  0
 18 17  2  0
 19 17  1  0
 21 20  1  6
 20 19  1  0
 21 23  1  0
 21 22  1  0
 23 24  1  0
 25 23  2  0
M  END
$$$$
