CKQ.pdb
     RDKit          3D

 25 24  0  0  1  0  0  0  0  0999 V2000
   26.6179  -15.9305  -17.4876 N   0  0  0  0  0  0  0  0  0  0  0  0
   26.4452  -16.2918  -16.1167 C   0  0  1  0  0  0  0  0  0  0  0  0
   25.7499  -15.1540  -15.4014 C   0  0  0  0  0  0  0  0  0  0  0  0
   26.9201  -13.8870  -14.9093 S   0  0  0  0  0  0  0  0  0  0  0  0
   25.6749  -17.5423  -16.0225 C   0  0  0  0  0  0  0  0  0  0  0  0
   24.7297  -17.7827  -16.8026 O   0  0  0  0  0  0  0  0  0  0  0  0
   26.0067  -18.4904  -15.0341 N   0  0  0  0  0  0  0  0  0  0  0  0
   25.3251  -19.7738  -14.8970 C   0  0  1  0  0  0  0  0  0  0  0  0
   26.1647  -20.7891  -14.2246 C   0  0  0  0  0  0  0  0  0  0  0  0
   25.5313  -22.1502  -14.1432 C   0  0  0  0  0  0  0  0  0  0  0  0
   25.6167  -22.8683  -15.4860 C   0  0  0  0  0  0  0  0  0  0  0  0
   24.9588  -24.2329  -15.2639 C   0  0  0  0  0  0  0  0  0  0  0  0
   25.0322  -24.9522  -16.5249 N   0  0  0  0  0  0  0  0  0  0  0  0
   24.0005  -19.5393  -14.2719 C   0  0  0  0  0  0  0  0  0  0  0  0
   23.8162  -19.0133  -13.1475 O   0  0  0  0  0  0  0  0  0  0  0  0
   18.7218  -18.6836  -17.1741 N   0  0  0  0  0  0  0  0  0  0  0  0
   19.1695  -17.6102  -16.3682 C   0  0  0  0  0  0  0  0  0  0  0  0
   18.7561  -16.4512  -16.5672 O   0  0  0  0  0  0  0  0  0  0  0  0
   20.1535  -17.9326  -15.2767 C   0  0  0  0  0  0  0  0  0  0  0  0
   20.4977  -19.3840  -15.3938 C   0  0  0  0  0  0  0  0  0  0  0  0
   21.4974  -19.7898  -14.3634 C   0  0  2  0  0  0  0  0  0  0  0  0
   22.8220  -19.9296  -14.9748 N   0  0  0  0  0  0  0  0  0  0  0  0
   21.1423  -21.0018  -13.6098 C   0  0  0  0  0  0  0  0  0  0  0  0
   20.1346  -20.9805  -12.6255 O   0  0  0  0  0  0  0  0  0  0  0  0
   21.7006  -22.0898  -13.7965 O   0  0  0  0  0  0  0  0  0  0  0  0
  2  1  1  6
  2  3  1  0
  3  4  1  0
  5  2  1  0
  6  5  2  0
  7  5  1  0
  8  7  1  0
  8  9  1  1
 10 11  1  0
 10  9  1  0
 12 11  1  0
 13 12  1  0
 14 22  1  0
 14  8  1  0
 15 14  2  0
 17 16  1  0
 18 17  2  0
 19 17  1  0
 21 20  1  6
 20 19  1  0
 21 23  1  0
 21 22  1  0
 23 24  1  0
 25 23  2  0
M  END
$$$$
