CKQ.pdb
     RDKit          3D

 25 24  0  0  1  0  0  0  0  0999 V2000
   18.1984  -25.3522   -5.4902 N   0  0  0  0  0  0  0  0  0  0  0  0
   18.1181  -25.7952   -6.8457 C   0  0  1  0  0  0  0  0  0  0  0  0
   16.9623  -26.7639   -6.9694 C   0  0  0  0  0  0  0  0  0  0  0  0
   17.4720  -28.4352   -6.5646 S   0  0  0  0  0  0  0  0  0  0  0  0
   17.9538  -24.6385   -7.7406 C   0  0  0  0  0  0  0  0  0  0  0  0
   17.3269  -23.6210   -7.3779 O   0  0  0  0  0  0  0  0  0  0  0  0
   18.5130  -24.6750   -9.0337 N   0  0  0  0  0  0  0  0  0  0  0  0
   18.4602  -23.5477   -9.9593 C   0  0  1  0  0  0  0  0  0  0  0  0
   19.6815  -23.4399  -10.7868 C   0  0  0  0  0  0  0  0  0  0  0  0
   19.6638  -22.2914  -11.7569 C   0  0  0  0  0  0  0  0  0  0  0  0
   20.8727  -22.3480  -12.6851 C   0  0  0  0  0  0  0  0  0  0  0  0
   20.7071  -21.1682  -13.6467 C   0  0  0  0  0  0  0  0  0  0  0  0
   21.8653  -21.1677  -14.5249 N   0  0  0  0  0  0  0  0  0  0  0  0
   17.1894  -23.6225  -10.7208 C   0  0  0  0  0  0  0  0  0  0  0  0
   16.6683  -24.6792  -11.1527 O   0  0  0  0  0  0  0  0  0  0  0  0
   13.6596  -18.8306  -12.3190 N   0  0  0  0  0  0  0  0  0  0  0  0
   12.7185  -19.8557  -12.5751 C   0  0  0  0  0  0  0  0  0  0  0  0
   11.6051  -19.5871  -13.0670 O   0  0  0  0  0  0  0  0  0  0  0  0
   13.1224  -21.2631  -12.2294 C   0  0  0  0  0  0  0  0  0  0  0  0
   14.4587  -21.1975  -11.5598 C   0  0  0  0  0  0  0  0  0  0  0  0
   15.2499  -22.4387  -11.8039 C   0  0  2  0  0  0  0  0  0  0  0  0
   16.4769  -22.4191  -11.0027 N   0  0  0  0  0  0  0  0  0  0  0  0
   15.5567  -22.7008  -13.2182 C   0  0  0  0  0  0  0  0  0  0  0  0
   14.7313  -23.5300  -14.0030 O   0  0  0  0  0  0  0  0  0  0  0  0
   16.5416  -22.2145  -13.7874 O   0  0  0  0  0  0  0  0  0  0  0  0
  2  1  1  1
  2  3  1  0
  3  4  1  0
  5  2  1  0
  6  5  2  0
  7  5  1  0
  8  7  1  0
  8  9  1  6
 10 11  1  0
 10  9  1  0
 12 11  1  0
 13 12  1  0
 14 22  1  0
 14  8  1  0
 15 14  2  0
 17 16  1  0
 18 17  2  0
 19 17  1  0
 21 20  1  6
 20 19  1  0
 21 23  1  0
 21 22  1  0
 23 24  1  0
 25 23  2  0
M  END
$$$$
