QSG.pdb
     RDKit          3D

 20 19  0  0  1  0  0  0  0  0999 V2000
    8.9505  -17.8186   14.6114 N   0  0  0  0  0  0  0  0  0  0  0  0
    7.5463  -17.6902   14.8997 C   0  0  0  0  0  0  0  0  0  0  0  0
    6.7134  -18.1066   14.0823 O   0  0  0  0  0  0  0  0  0  0  0  0
    7.1705  -17.0400   16.2123 C   0  0  0  0  0  0  0  0  0  0  0  0
    8.4448  -16.6917   16.8837 C   0  0  0  0  0  0  0  0  0  0  0  0
    8.6403  -17.1416   18.2793 C   0  0  2  0  0  0  0  0  0  0  0  0
    7.3461  -17.7171   18.7107 N   0  0  0  0  0  0  0  0  0  0  0  0
    9.0221  -16.1260   19.2617 C   0  0  0  0  0  0  0  0  0  0  0  0
   10.0432  -15.3851   19.0458 O   0  0  0  0  0  0  0  0  0  0  0  0
    6.7813  -15.0813   22.6050 O   0  0  0  0  0  0  0  0  0  0  0  0
    7.8081  -14.2468   22.1695 C   0  0  0  0  0  0  0  0  0  0  0  0
    8.9378  -15.0970   21.5718 C   0  0  2  0  0  0  0  0  0  0  0  0
    8.3600  -15.8489   20.4880 N   0  0  0  0  0  0  0  0  0  0  0  0
    9.4390  -15.9517   22.6633 C   0  0  0  0  0  0  0  0  0  0  0  0
    8.7458  -16.7856   23.2916 O   0  0  0  0  0  0  0  0  0  0  0  0
   10.8048  -15.8211   23.0294 N   0  0  0  0  0  0  0  0  0  0  0  0
   11.3931  -16.6543   24.0684 C   0  0  0  0  0  0  0  0  0  0  0  0
   12.7871  -16.2289   24.3615 C   0  0  0  0  0  0  0  0  0  0  0  0
   13.2563  -15.2978   23.6577 O   0  0  0  0  0  0  0  0  0  0  0  0
   13.5753  -16.7851   25.3386 O   0  0  0  0  0  0  0  0  0  0  0  0
  2  1  1  0
  3  2  2  0
  4  2  1  0
  5  4  1  0
  6  7  1  1
  6  5  1  0
  8  9  2  0
  8  6  1  0
 10 11  1  0
 12 11  1  1
 12 13  1  0
 12 14  1  0
 13  8  1  0
 14 15  2  0
 14 16  1  0
 16 17  1  0
 18 17  1  0
 18 20  1  0
 19 18  2  0
M  END
$$$$
