QSG.pdb
     RDKit          3D

 20 19  0  0  1  0  0  0  0  0999 V2000
   -0.6965  -24.3385   25.2993 N   0  0  0  0  0  0  0  0  0  0  0  0
   -1.7015  -25.3447   25.0778 C   0  0  0  0  0  0  0  0  0  0  0  0
   -2.6311  -25.4695   25.8874 O   0  0  0  0  0  0  0  0  0  0  0  0
   -1.5535  -26.2040   23.8424 C   0  0  0  0  0  0  0  0  0  0  0  0
   -0.3920  -25.6643   23.0970 C   0  0  0  0  0  0  0  0  0  0  0  0
   -0.5968  -24.4518   22.2748 C   0  0  2  0  0  0  0  0  0  0  0  0
   -1.2550  -24.9064   21.0289 N   0  0  0  0  0  0  0  0  0  0  0  0
    0.5957  -23.6934   21.8935 C   0  0  0  0  0  0  0  0  0  0  0  0
    1.4033  -24.1736   21.0243 O   0  0  0  0  0  0  0  0  0  0  0  0
    0.8262  -19.8203   22.5777 O   0  0  0  0  0  0  0  0  0  0  0  0
    1.7181  -20.2899   21.6163 C   0  0  0  0  0  0  0  0  0  0  0  0
    2.1653  -21.7110   21.9860 C   0  0  2  0  0  0  0  0  0  0  0  0
    0.9828  -22.4225   22.3973 N   0  0  0  0  0  0  0  0  0  0  0  0
    3.1573  -21.5682   23.0671 C   0  0  0  0  0  0  0  0  0  0  0  0
    2.9065  -21.7040   24.2874 O   0  0  0  0  0  0  0  0  0  0  0  0
    4.4927  -21.2544   22.6999 N   0  0  0  0  0  0  0  0  0  0  0  0
    5.5496  -21.1598   23.6968 C   0  0  0  0  0  0  0  0  0  0  0  0
    6.1027  -19.7810   23.7522 C   0  0  0  0  0  0  0  0  0  0  0  0
    5.6588  -18.9572   22.9114 O   0  0  0  0  0  0  0  0  0  0  0  0
    7.0522  -19.3650   24.6525 O   0  0  0  0  0  0  0  0  0  0  0  0
  2  1  1  0
  3  2  2  0
  4  2  1  0
  5  4  1  0
  6  7  1  6
  6  5  1  0
  8  9  2  0
  8  6  1  0
 10 11  1  0
 12 11  1  1
 12 13  1  0
 12 14  1  0
 13  8  1  0
 14 15  2  0
 14 16  1  0
 16 17  1  0
 18 17  1  0
 18 20  1  0
 19 18  2  0
M  END
$$$$
