QSG.pdb
     RDKit          3D

 20 19  0  0  1  0  0  0  0  0999 V2000
   11.6649  -16.1608   15.8874 N   0  0  0  0  0  0  0  0  0  0  0  0
   10.5508  -16.5326   15.0556 C   0  0  0  0  0  0  0  0  0  0  0  0
   10.7389  -17.2599   14.0702 O   0  0  0  0  0  0  0  0  0  0  0  0
    9.1915  -15.9987   15.4478 C   0  0  0  0  0  0  0  0  0  0  0  0
    9.4021  -15.1775   16.6633 C   0  0  0  0  0  0  0  0  0  0  0  0
    8.2187  -14.5511   17.2921 C   0  0  2  0  0  0  0  0  0  0  0  0
    7.9035  -13.3567   16.4760 N   0  0  0  0  0  0  0  0  0  0  0  0
    8.3534  -14.1138   18.6824 C   0  0  0  0  0  0  0  0  0  0  0  0
    8.8988  -12.9857   18.9438 O   0  0  0  0  0  0  0  0  0  0  0  0
    6.2274  -15.5237   21.8362 O   0  0  0  0  0  0  0  0  0  0  0  0
    6.9513  -14.3399   21.9582 C   0  0  0  0  0  0  0  0  0  0  0  0
    8.2721  -14.4676   21.1865 C   0  0  2  0  0  0  0  0  0  0  0  0
    7.9281  -14.8273   19.8352 N   0  0  0  0  0  0  0  0  0  0  0  0
    9.0596  -15.5053   21.8764 C   0  0  0  0  0  0  0  0  0  0  0  0
    9.0479  -16.7233   21.5813 O   0  0  0  0  0  0  0  0  0  0  0  0
    9.8912  -15.0961   22.9524 N   0  0  0  0  0  0  0  0  0  0  0  0
   10.6549  -16.0624   23.7288 C   0  0  0  0  0  0  0  0  0  0  0  0
   12.0481  -16.1667   23.2207 C   0  0  0  0  0  0  0  0  0  0  0  0
   12.3129  -15.5463   22.1588 O   0  0  0  0  0  0  0  0  0  0  0  0
   13.0422  -16.8884   23.8339 O   0  0  0  0  0  0  0  0  0  0  0  0
  2  1  1  0
  3  2  2  0
  4  2  1  0
  5  4  1  0
  6  7  1  6
  6  5  1  0
  8  9  2  0
  8  6  1  0
 10 11  1  0
 12 11  1  1
 12 13  1  0
 12 14  1  0
 13  8  1  0
 14 15  2  0
 14 16  1  0
 16 17  1  0
 18 17  1  0
 18 20  1  0
 19 18  2  0
M  END
$$$$
