QSG.pdb
     RDKit          3D

 20 19  0  0  1  0  0  0  0  0999 V2000
    7.4458  -11.9424   18.9048 N   0  0  0  0  0  0  0  0  0  0  0  0
    7.7905  -12.7381   20.0535 C   0  0  0  0  0  0  0  0  0  0  0  0
    7.4452  -12.3637   21.1830 O   0  0  0  0  0  0  0  0  0  0  0  0
    8.5699  -14.0091   19.8007 C   0  0  0  0  0  0  0  0  0  0  0  0
    8.7067  -14.1275   18.3299 C   0  0  0  0  0  0  0  0  0  0  0  0
    9.4209  -15.3057   17.7913 C   0  0  2  0  0  0  0  0  0  0  0  0
    8.4319  -16.4070   17.7602 N   0  0  0  0  0  0  0  0  0  0  0  0
   10.5871  -15.7795   18.5382 C   0  0  0  0  0  0  0  0  0  0  0  0
   10.4397  -16.6608   19.4547 O   0  0  0  0  0  0  0  0  0  0  0  0
   14.2426  -13.8028   18.7298 O   0  0  0  0  0  0  0  0  0  0  0  0
   14.3047  -15.1829   18.5507 C   0  0  0  0  0  0  0  0  0  0  0  0
   13.0442  -15.8311   19.1399 C   0  0  2  0  0  0  0  0  0  0  0  0
   11.9319  -15.3579   18.3573 N   0  0  0  0  0  0  0  0  0  0  0  0
   12.9779  -15.4080   20.5505 C   0  0  0  0  0  0  0  0  0  0  0  0
   12.2920  -14.4492   20.9758 O   0  0  0  0  0  0  0  0  0  0  0  0
   13.7459  -16.1389   21.4953 N   0  0  0  0  0  0  0  0  0  0  0  0
   13.6208  -15.8932   22.9249 C   0  0  0  0  0  0  0  0  0  0  0  0
   14.5291  -16.7823   23.6959 C   0  0  0  0  0  0  0  0  0  0  0  0
   14.6127  -16.5727   24.9335 O   0  0  0  0  0  0  0  0  0  0  0  0
   15.2673  -17.7995   23.1431 O   0  0  0  0  0  0  0  0  0  0  0  0
  2  1  1  0
  3  2  2  0
  4  2  1  0
  5  4  1  0
  6  7  1  1
  6  5  1  0
  8  9  2  0
  8  6  1  0
 10 11  1  0
 12 11  1  6
 12 13  1  0
 12 14  1  0
 13  8  1  0
 14 15  2  0
 14 16  1  0
 16 17  1  0
 18 17  1  0
 18 20  1  0
 19 18  2  0
M  END
$$$$
