QSG.pdb
     RDKit          3D

 20 19  0  0  1  0  0  0  0  0999 V2000
    4.7223  -20.1648   16.9874 N   0  0  0  0  0  0  0  0  0  0  0  0
    5.9426  -20.0592   17.7431 C   0  0  0  0  0  0  0  0  0  0  0  0
    6.1660  -20.8622   18.6599 O   0  0  0  0  0  0  0  0  0  0  0  0
    6.8949  -18.9488   17.3596 C   0  0  0  0  0  0  0  0  0  0  0  0
    7.0900  -18.1287   18.5783 C   0  0  0  0  0  0  0  0  0  0  0  0
    7.2512  -16.6675   18.4139 C   0  0  2  0  0  0  0  0  0  0  0  0
    7.8223  -16.4664   17.0628 N   0  0  0  0  0  0  0  0  0  0  0  0
    8.1214  -15.9795   19.3687 C   0  0  0  0  0  0  0  0  0  0  0  0
    9.3669  -15.8411   19.1082 O   0  0  0  0  0  0  0  0  0  0  0  0
    6.6927  -14.3488   22.8640 O   0  0  0  0  0  0  0  0  0  0  0  0
    7.8789  -13.8095   22.3716 C   0  0  0  0  0  0  0  0  0  0  0  0
    8.6438  -14.8869   21.5904 C   0  0  2  0  0  0  0  0  0  0  0  0
    7.7286  -15.4166   20.6129 N   0  0  0  0  0  0  0  0  0  0  0  0
    9.0759  -15.8913   22.5790 C   0  0  0  0  0  0  0  0  0  0  0  0
    8.3463  -16.8022   23.0357 O   0  0  0  0  0  0  0  0  0  0  0  0
   10.4146  -15.8222   23.0478 N   0  0  0  0  0  0  0  0  0  0  0  0
   10.9226  -16.7689   24.0304 C   0  0  0  0  0  0  0  0  0  0  0  0
   12.3354  -16.4638   24.3780 C   0  0  0  0  0  0  0  0  0  0  0  0
   12.8792  -15.5125   23.7601 O   0  0  0  0  0  0  0  0  0  0  0  0
   13.0652  -17.1491   25.3176 O   0  0  0  0  0  0  0  0  0  0  0  0
  2  1  1  0
  3  2  2  0
  4  2  1  0
  5  4  1  0
  6  7  1  6
  6  5  1  0
  8  9  2  0
  8  6  1  0
 10 11  1  0
 12 11  1  1
 12 13  1  0
 12 14  1  0
 13  8  1  0
 14 15  2  0
 14 16  1  0
 16 17  1  0
 18 17  1  0
 18 20  1  0
 19 18  2  0
M  END
$$$$
