QSG.pdb
     RDKit          3D

 20 19  0  0  1  0  0  0  0  0999 V2000
   15.8311  -23.3313   25.0076 N   0  0  0  0  0  0  0  0  0  0  0  0
   14.9390  -24.2087   25.7188 C   0  0  0  0  0  0  0  0  0  0  0  0
   15.2496  -24.6126   26.8482 O   0  0  0  0  0  0  0  0  0  0  0  0
   13.6505  -24.5891   25.0246 C   0  0  0  0  0  0  0  0  0  0  0  0
   12.8452  -25.3335   26.0212 C   0  0  0  0  0  0  0  0  0  0  0  0
   11.5617  -24.7423   26.4587 C   0  0  2  0  0  0  0  0  0  0  0  0
   11.2567  -23.6619   25.4934 N   0  0  0  0  0  0  0  0  0  0  0  0
   11.5165  -24.1615   27.8014 C   0  0  0  0  0  0  0  0  0  0  0  0
   11.7995  -22.9244   27.9686 O   0  0  0  0  0  0  0  0  0  0  0  0
    9.9395  -24.3200   32.3527 O   0  0  0  0  0  0  0  0  0  0  0  0
   10.1284  -24.9827   31.1422 C   0  0  0  0  0  0  0  0  0  0  0  0
   11.1757  -24.2325   30.3077 C   0  0  2  0  0  0  0  0  0  0  0  0
   11.1771  -24.8408   29.0024 N   0  0  0  0  0  0  0  0  0  0  0  0
   12.4599  -24.3842   31.0155 C   0  0  0  0  0  0  0  0  0  0  0  0
   13.2340  -25.3614   30.8867 O   0  0  0  0  0  0  0  0  0  0  0  0
   12.8480  -23.3493   31.9072 N   0  0  0  0  0  0  0  0  0  0  0  0
   14.1560  -23.3519   32.5466 C   0  0  0  0  0  0  0  0  0  0  0  0
   14.3090  -22.1758   33.4429 C   0  0  0  0  0  0  0  0  0  0  0  0
   13.3674  -21.3417   33.4506 O   0  0  0  0  0  0  0  0  0  0  0  0
   15.3997  -21.9538   34.2469 O   0  0  0  0  0  0  0  0  0  0  0  0
  2  1  1  0
  3  2  2  0
  4  2  1  0
  5  4  1  0
  6  7  1  6
  6  5  1  0
  8  9  2  0
  8  6  1  0
 10 11  1  0
 12 11  1  1
 12 13  1  0
 12 14  1  0
 13  8  1  0
 14 15  2  0
 14 16  1  0
 16 17  1  0
 18 17  1  0
 18 20  1  0
 19 18  2  0
M  END
$$$$
