ECK.pdb
     RDKit          3D

 25 24  0  0  1  0  0  0  0  0999 V2000
   11.6559  -17.1318   18.1044 N   0  0  0  0  0  0  0  0  0  0  0  0
   11.4425  -17.7437   19.4303 C   0  0  1  0  0  0  0  0  0  0  0  0
   12.7479  -18.0319   20.0950 C   0  0  0  0  0  0  0  0  0  0  0  0
   13.5838  -19.0891   19.4626 C   0  0  0  0  0  0  0  0  0  0  0  0
   14.7874  -19.3661   20.2862 C   0  0  0  0  0  0  0  0  0  0  0  0
   15.6033  -20.2343   19.9096 O   0  0  0  0  0  0  0  0  0  0  0  0
   10.5294  -16.8955   20.2106 C   0  0  0  0  0  0  0  0  0  0  0  0
   10.4802  -15.6681   19.9562 O   0  0  0  0  0  0  0  0  0  0  0  0
   15.0326  -18.6880   21.4634 O   0  0  0  0  0  0  0  0  0  0  0  0
    9.6894  -17.3668   21.2425 N   0  0  0  0  0  0  0  0  0  0  0  0
    8.8990  -16.4663   22.0106 C   0  0  1  0  0  0  0  0  0  0  0  0
    7.4150  -16.6200   21.7896 C   0  0  0  0  0  0  0  0  0  0  0  0
    6.7808  -18.2240   22.2465 S   0  0  0  0  0  0  0  0  0  0  0  0
    9.2371  -16.5559   23.4735 C   0  0  0  0  0  0  0  0  0  0  0  0
    9.6957  -17.6210   23.9761 O   0  0  0  0  0  0  0  0  0  0  0  0
    9.0591  -15.4599   24.3502 N   0  0  0  0  0  0  0  0  0  0  0  0
    9.1776  -15.5983   25.7894 C   0  0  1  0  0  0  0  0  0  0  0  0
    8.7810  -14.2931   26.4410 C   0  0  0  0  0  0  0  0  0  0  0  0
    8.8116  -14.3898   27.9507 C   0  0  0  0  0  0  0  0  0  0  0  0
   10.2195  -14.3234   28.4594 C   0  0  0  0  0  0  0  0  0  0  0  0
   10.2562  -14.3279   29.9547 C   0  0  0  0  0  0  0  0  0  0  0  0
   11.6609  -14.2940   30.3512 N   0  0  0  0  0  0  0  0  0  0  0  0
    8.2676  -16.6697   26.2699 C   0  0  0  0  0  0  0  0  0  0  0  0
    8.6640  -17.4981   27.1240 O   0  0  0  0  0  0  0  0  0  0  0  0
    6.9748  -16.7747   25.7891 O   0  0  0  0  0  0  0  0  0  0  0  0
  2  1  1  6
  2  7  1  0
  3  2  1  0
  4  5  1  0
  4  3  1  0
  5  9  1  0
  6  5  2  0
  7  8  2  0
 10  7  1  0
 10 11  1  0
 11 14  1  0
 11 12  1  1
 12 13  1  0
 14 15  2  0
 16 17  1  0
 16 14  1  0
 17 23  1  0
 17 18  1  1
 19 18  1  0
 20 19  1  0
 21 20  1  0
 21 22  1  0
 23 24  2  0
 23 25  1  0
M  END
$$$$
