ECK.pdb
     RDKit          3D

 25 24  0  0  1  0  0  0  0  0999 V2000
   10.8494  -19.2597   17.5629 N   0  0  0  0  0  0  0  0  0  0  0  0
    9.8684  -18.7077   18.5174 C   0  0  1  0  0  0  0  0  0  0  0  0
    8.7205  -19.6455   18.6963 C   0  0  0  0  0  0  0  0  0  0  0  0
    9.0710  -21.0438   19.0678 C   0  0  0  0  0  0  0  0  0  0  0  0
    7.8437  -21.8525   19.2761 C   0  0  0  0  0  0  0  0  0  0  0  0
    7.7112  -22.5078   20.3318 O   0  0  0  0  0  0  0  0  0  0  0  0
   10.5612  -18.3398   19.7611 C   0  0  0  0  0  0  0  0  0  0  0  0
   11.7466  -18.7160   19.9256 O   0  0  0  0  0  0  0  0  0  0  0  0
    6.8384  -21.9017   18.3312 O   0  0  0  0  0  0  0  0  0  0  0  0
    9.9826  -17.5820   20.8020 N   0  0  0  0  0  0  0  0  0  0  0  0
   10.6982  -17.3268   22.0055 C   0  0  1  0  0  0  0  0  0  0  0  0
   10.1808  -16.1406   22.7801 C   0  0  0  0  0  0  0  0  0  0  0  0
   11.0298  -15.8628   24.3247 S   0  0  0  0  0  0  0  0  0  0  0  0
   10.7571  -18.5527   22.8748 C   0  0  0  0  0  0  0  0  0  0  0  0
    9.7046  -19.1543   23.2318 O   0  0  0  0  0  0  0  0  0  0  0  0
   11.9851  -19.0870   23.3311 N   0  0  0  0  0  0  0  0  0  0  0  0
   12.0454  -20.2617   24.1801 C   0  0  1  0  0  0  0  0  0  0  0  0
   12.7650  -21.3653   23.4387 C   0  0  0  0  0  0  0  0  0  0  0  0
   11.7948  -22.3215   22.7801 C   0  0  0  0  0  0  0  0  0  0  0  0
   12.5268  -23.3478   21.9700 C   0  0  0  0  0  0  0  0  0  0  0  0
   11.5755  -24.2768   21.2850 C   0  0  0  0  0  0  0  0  0  0  0  0
   12.3689  -25.1439   20.4188 N   0  0  0  0  0  0  0  0  0  0  0  0
   12.7984  -19.9487   25.4219 C   0  0  0  0  0  0  0  0  0  0  0  0
   12.9951  -20.8400   26.2820 O   0  0  0  0  0  0  0  0  0  0  0  0
   13.2940  -18.6781   25.6530 O   0  0  0  0  0  0  0  0  0  0  0  0
  2  1  1  6
  2  7  1  0
  3  2  1  0
  4  5  1  0
  4  3  1  0
  5  9  1  0
  6  5  2  0
  7  8  2  0
 10  7  1  0
 10 11  1  0
 11 14  1  0
 11 12  1  1
 12 13  1  0
 14 15  2  0
 16 17  1  0
 16 14  1  0
 17 23  1  0
 17 18  1  6
 19 18  1  0
 20 19  1  0
 21 20  1  0
 21 22  1  0
 23 24  2  0
 23 25  1  0
M  END
$$$$
