ECK.pdb
     RDKit          3D

 25 24  0  0  1  0  0  0  0  0999 V2000
    9.7483  -17.1463   16.1492 N   0  0  0  0  0  0  0  0  0  0  0  0
    8.5345  -16.7102   16.8666 C   0  0  1  0  0  0  0  0  0  0  0  0
    7.5191  -17.8042   16.8995 C   0  0  0  0  0  0  0  0  0  0  0  0
    7.7763  -18.9055   17.8676 C   0  0  0  0  0  0  0  0  0  0  0  0
    6.7392  -19.9608   17.7465 C   0  0  0  0  0  0  0  0  0  0  0  0
    7.0276  -21.0459   17.1981 O   0  0  0  0  0  0  0  0  0  0  0  0
    8.9172  -16.1868   18.1863 C   0  0  0  0  0  0  0  0  0  0  0  0
    9.8987  -16.6979   18.7769 O   0  0  0  0  0  0  0  0  0  0  0  0
    5.4575  -19.7765   18.2253 O   0  0  0  0  0  0  0  0  0  0  0  0
    8.2513  -15.1339   18.8501 N   0  0  0  0  0  0  0  0  0  0  0  0
    8.7352  -14.6293   20.0898 C   0  0  1  0  0  0  0  0  0  0  0  0
    7.9234  -13.4821   20.6373 C   0  0  0  0  0  0  0  0  0  0  0  0
    7.8453  -12.0706   19.5484 S   0  0  0  0  0  0  0  0  0  0  0  0
    8.8709  -15.7269   21.1092 C   0  0  0  0  0  0  0  0  0  0  0  0
    8.2285  -16.8093   20.9963 O   0  0  0  0  0  0  0  0  0  0  0  0
    9.7183  -15.6005   22.2351 N   0  0  0  0  0  0  0  0  0  0  0  0
   10.0558  -16.7337   23.0756 C   0  0  1  0  0  0  0  0  0  0  0  0
   10.9602  -17.6653   22.3013 C   0  0  0  0  0  0  0  0  0  0  0  0
   11.4270  -18.8265   23.1518 C   0  0  0  0  0  0  0  0  0  0  0  0
   12.3283  -19.7313   22.3679 C   0  0  0  0  0  0  0  0  0  0  0  0
   12.8622  -20.8370   23.2221 C   0  0  0  0  0  0  0  0  0  0  0  0
   13.6597  -21.7021   22.3579 N   0  0  0  0  0  0  0  0  0  0  0  0
   10.7750  -16.2660   24.2884 C   0  0  0  0  0  0  0  0  0  0  0  0
   11.4224  -15.1922   24.2631 O   0  0  0  0  0  0  0  0  0  0  0  0
   10.7456  -16.9993   25.4609 O   0  0  0  0  0  0  0  0  0  0  0  0
  2  1  1  1
  2  7  1  0
  3  2  1  0
  4  5  1  0
  4  3  1  0
  5  9  1  0
  6  5  2  0
  7  8  2  0
 10  7  1  0
 10 11  1  0
 11 14  1  0
 11 12  1  1
 12 13  1  0
 14 15  2  0
 16 17  1  0
 16 14  1  0
 17 23  1  0
 17 18  1  6
 19 18  1  0
 20 19  1  0
 21 20  1  0
 21 22  1  0
 23 24  2  0
 23 25  1  0
M  END
$$$$
