ECK.pdb
     RDKit          3D

 25 24  0  0  1  0  0  0  0  0999 V2000
    8.0727  -12.4364   19.5017 N   0  0  0  0  0  0  0  0  0  0  0  0
    7.4019  -13.4863   20.2928 C   0  0  1  0  0  0  0  0  0  0  0  0
    7.3421  -14.7668   19.5274 C   0  0  0  0  0  0  0  0  0  0  0  0
    8.6443  -15.2969   19.0380 C   0  0  0  0  0  0  0  0  0  0  0  0
    8.4519  -16.5928   18.3399 C   0  0  0  0  0  0  0  0  0  0  0  0
    7.3024  -17.0721   18.2393 O   0  0  0  0  0  0  0  0  0  0  0  0
    8.0508  -13.5863   21.6085 C   0  0  0  0  0  0  0  0  0  0  0  0
    9.2992  -13.4832   21.6751 O   0  0  0  0  0  0  0  0  0  0  0  0
    9.5131  -17.2878   17.7951 O   0  0  0  0  0  0  0  0  0  0  0  0
    7.3624  -13.7932   22.8233 N   0  0  0  0  0  0  0  0  0  0  0  0
    8.0717  -13.9747   24.0439 C   0  0  1  0  0  0  0  0  0  0  0  0
    7.3823  -13.3725   25.2426 C   0  0  0  0  0  0  0  0  0  0  0  0
    5.6244  -13.6748   25.2899 S   0  0  0  0  0  0  0  0  0  0  0  0
    8.3896  -15.4259   24.2788 C   0  0  0  0  0  0  0  0  0  0  0  0
    8.0564  -16.3135   23.4432 O   0  0  0  0  0  0  0  0  0  0  0  0
    9.0721  -15.8632   25.4385 N   0  0  0  0  0  0  0  0  0  0  0  0
    9.7956  -17.1199   25.4778 C   0  0  1  0  0  0  0  0  0  0  0  0
   10.9245  -17.0666   24.4737 C   0  0  0  0  0  0  0  0  0  0  0  0
   11.7810  -18.3127   24.5286 C   0  0  0  0  0  0  0  0  0  0  0  0
   12.9389  -18.2041   23.5836 C   0  0  0  0  0  0  0  0  0  0  0  0
   13.7616  -19.4533   23.5887 C   0  0  0  0  0  0  0  0  0  0  0  0
   14.7396  -19.3292   22.5119 N   0  0  0  0  0  0  0  0  0  0  0  0
   10.3687  -17.3300   26.8323 C   0  0  0  0  0  0  0  0  0  0  0  0
   10.5957  -16.3493   27.5803 O   0  0  0  0  0  0  0  0  0  0  0  0
   10.6612  -18.6013   27.2924 O   0  0  0  0  0  0  0  0  0  0  0  0
  2  1  1  6
  2  7  1  0
  3  2  1  0
  4  5  1  0
  4  3  1  0
  5  9  1  0
  6  5  2  0
  7  8  2  0
 10  7  1  0
 10 11  1  0
 11 14  1  0
 11 12  1  1
 12 13  1  0
 14 15  2  0
 16 17  1  0
 16 14  1  0
 17 23  1  0
 17 18  1  6
 19 18  1  0
 20 19  1  0
 21 20  1  0
 21 22  1  0
 23 24  2  0
 23 25  1  0
M  END
$$$$
