ECK.pdb
     RDKit          3D

 25 24  0  0  1  0  0  0  0  0999 V2000
   12.7853  -16.9416   18.6328 N   0  0  0  0  0  0  0  0  0  0  0  0
   11.7901  -17.5487   19.5377 C   0  0  1  0  0  0  0  0  0  0  0  0
   11.5612  -18.9814   19.1857 C   0  0  0  0  0  0  0  0  0  0  0  0
   12.7421  -19.7227   18.6640 C   0  0  0  0  0  0  0  0  0  0  0  0
   12.3843  -21.1321   18.3653 C   0  0  0  0  0  0  0  0  0  0  0  0
   11.8201  -21.4073   17.2849 O   0  0  0  0  0  0  0  0  0  0  0  0
   12.2004  -17.3158   20.9304 C   0  0  0  0  0  0  0  0  0  0  0  0
   13.4240  -17.2281   21.1925 O   0  0  0  0  0  0  0  0  0  0  0  0
   12.6587  -22.1538   19.2524 O   0  0  0  0  0  0  0  0  0  0  0  0
   11.3052  -17.1812   22.0135 N   0  0  0  0  0  0  0  0  0  0  0  0
   11.7855  -16.9937   23.3401 C   0  0  1  0  0  0  0  0  0  0  0  0
   11.1308  -15.8455   24.0667 C   0  0  0  0  0  0  0  0  0  0  0  0
    9.3498  -15.8457   23.9579 S   0  0  0  0  0  0  0  0  0  0  0  0
   11.6860  -18.2634   24.1402 C   0  0  0  0  0  0  0  0  0  0  0  0
   10.6391  -18.9710   24.1193 O   0  0  0  0  0  0  0  0  0  0  0  0
   12.7523  -18.7227   24.9488 N   0  0  0  0  0  0  0  0  0  0  0  0
   12.6854  -19.9797   25.6698 C   0  0  1  0  0  0  0  0  0  0  0  0
   13.9107  -20.8005   25.3375 C   0  0  0  0  0  0  0  0  0  0  0  0
   14.0759  -20.9790   23.8440 C   0  0  0  0  0  0  0  0  0  0  0  0
   15.3214  -21.7531   23.5356 C   0  0  0  0  0  0  0  0  0  0  0  0
   15.5181  -21.8978   22.0599 C   0  0  0  0  0  0  0  0  0  0  0  0
   16.7647  -22.6311   21.8615 N   0  0  0  0  0  0  0  0  0  0  0  0
   12.6639  -19.7218   27.1327 C   0  0  0  0  0  0  0  0  0  0  0  0
   12.5918  -20.6780   27.9409 O   0  0  0  0  0  0  0  0  0  0  0  0
   12.7224  -18.4321   27.6293 O   0  0  0  0  0  0  0  0  0  0  0  0
  2  1  1  6
  2  7  1  0
  3  2  1  0
  4  5  1  0
  4  3  1  0
  5  9  1  0
  6  5  2  0
  7  8  2  0
 10  7  1  0
 10 11  1  0
 11 14  1  0
 11 12  1  1
 12 13  1  0
 14 15  2  0
 16 17  1  0
 16 14  1  0
 17 23  1  0
 17 18  1  1
 19 18  1  0
 20 19  1  0
 21 20  1  0
 21 22  1  0
 23 24  2  0
 23 25  1  0
M  END
$$$$
