ECK.pdb
     RDKit          3D

 25 24  0  0  1  0  0  0  0  0999 V2000
   11.6773  -18.1123   18.7663 N   0  0  0  0  0  0  0  0  0  0  0  0
   11.9140  -18.5925   20.1416 C   0  0  1  0  0  0  0  0  0  0  0  0
   13.3480  -18.4221   20.5207 C   0  0  0  0  0  0  0  0  0  0  0  0
   13.8562  -17.0230   20.5426 C   0  0  0  0  0  0  0  0  0  0  0  0
   15.2996  -16.9966   20.8886 C   0  0  0  0  0  0  0  0  0  0  0  0
   15.6445  -16.7870   22.0711 O   0  0  0  0  0  0  0  0  0  0  0  0
   10.9568  -17.9435   21.0496 C   0  0  0  0  0  0  0  0  0  0  0  0
   10.3350  -16.9308   20.6478 O   0  0  0  0  0  0  0  0  0  0  0  0
   16.2778  -17.1982   19.9354 O   0  0  0  0  0  0  0  0  0  0  0  0
   10.6801  -18.3820   22.3626 N   0  0  0  0  0  0  0  0  0  0  0  0
    9.6107  -17.8163   23.1122 C   0  0  1  0  0  0  0  0  0  0  0  0
    8.4669  -18.7695   23.3532 C   0  0  0  0  0  0  0  0  0  0  0  0
    8.9739  -20.3563   23.9925 S   0  0  0  0  0  0  0  0  0  0  0  0
   10.1032  -17.2290   24.4063 C   0  0  0  0  0  0  0  0  0  0  0  0
   11.3013  -17.3782   24.7798 O   0  0  0  0  0  0  0  0  0  0  0  0
    9.2545  -16.4868   25.2611 N   0  0  0  0  0  0  0  0  0  0  0  0
    9.7202  -15.9369   26.5201 C   0  0  1  0  0  0  0  0  0  0  0  0
    8.6456  -15.0390   27.0895 C   0  0  0  0  0  0  0  0  0  0  0  0
    8.3105  -13.9020   26.1490 C   0  0  0  0  0  0  0  0  0  0  0  0
    7.2323  -13.0354   26.7252 C   0  0  0  0  0  0  0  0  0  0  0  0
    6.8952  -11.9057   25.8047 C   0  0  0  0  0  0  0  0  0  0  0  0
    5.8117  -11.1512   26.4277 N   0  0  0  0  0  0  0  0  0  0  0  0
    9.9862  -17.0362   27.4833 C   0  0  0  0  0  0  0  0  0  0  0  0
    9.4970  -18.1749   27.2916 O   0  0  0  0  0  0  0  0  0  0  0  0
   10.7724  -16.8280   28.6022 O   0  0  0  0  0  0  0  0  0  0  0  0
  2  1  1  6
  2  7  1  0
  3  2  1  0
  4  5  1  0
  4  3  1  0
  5  9  1  0
  6  5  2  0
  7  8  2  0
 10  7  1  0
 10 11  1  0
 11 14  1  0
 11 12  1  1
 12 13  1  0
 14 15  2  0
 16 17  1  0
 16 14  1  0
 17 23  1  0
 17 18  1  1
 19 18  1  0
 20 19  1  0
 21 20  1  0
 21 22  1  0
 23 24  2  0
 23 25  1  0
M  END
$$$$
