ECK.pdb
     RDKit          3D

 25 24  0  0  1  0  0  0  0  0999 V2000
   10.0803  -18.7846   17.8445 N   0  0  0  0  0  0  0  0  0  0  0  0
   11.2517  -18.7192   18.7399 C   0  0  1  0  0  0  0  0  0  0  0  0
   12.4893  -18.4016   17.9677 C   0  0  0  0  0  0  0  0  0  0  0  0
   12.5777  -17.0229   17.4132 C   0  0  0  0  0  0  0  0  0  0  0  0
   13.8319  -16.8508   16.6379 C   0  0  0  0  0  0  0  0  0  0  0  0
   13.9008  -17.2977   15.4731 O   0  0  0  0  0  0  0  0  0  0  0  0
   10.9619  -17.7933   19.8448 C   0  0  0  0  0  0  0  0  0  0  0  0
   11.8525  -17.5787   20.7018 O   0  0  0  0  0  0  0  0  0  0  0  0
   14.9311  -16.2071   17.1703 O   0  0  0  0  0  0  0  0  0  0  0  0
    9.7354  -17.1159   20.0167 N   0  0  0  0  0  0  0  0  0  0  0  0
    9.5015  -16.3068   21.1640 C   0  0  1  0  0  0  0  0  0  0  0  0
    8.4228  -15.2712   20.9674 C   0  0  0  0  0  0  0  0  0  0  0  0
    7.9526  -14.4269   22.4674 S   0  0  0  0  0  0  0  0  0  0  0  0
    9.2228  -17.1501   22.3778 C   0  0  0  0  0  0  0  0  0  0  0  0
    8.3389  -18.0532   22.3597 O   0  0  0  0  0  0  0  0  0  0  0  0
    9.9320  -16.9736   23.5893 N   0  0  0  0  0  0  0  0  0  0  0  0
    9.6495  -17.7685   24.7694 C   0  0  1  0  0  0  0  0  0  0  0  0
   10.7380  -17.5315   25.7914 C   0  0  0  0  0  0  0  0  0  0  0  0
   10.5208  -18.3562   27.0412 C   0  0  0  0  0  0  0  0  0  0  0  0
   11.6739  -18.2038   27.9860 C   0  0  0  0  0  0  0  0  0  0  0  0
   11.4991  -19.0634   29.1975 C   0  0  0  0  0  0  0  0  0  0  0  0
   12.6583  -18.8383   30.0561 N   0  0  0  0  0  0  0  0  0  0  0  0
    8.3465  -17.3590   25.3536 C   0  0  0  0  0  0  0  0  0  0  0  0
    7.6704  -18.1763   26.0228 O   0  0  0  0  0  0  0  0  0  0  0  0
    7.8560  -16.0783   25.1728 O   0  0  0  0  0  0  0  0  0  0  0  0
  2  1  1  6
  2  7  1  0
  3  2  1  0
  4  5  1  0
  4  3  1  0
  5  9  1  0
  6  5  2  0
  7  8  2  0
 10  7  1  0
 10 11  1  0
 11 14  1  0
 11 12  1  6
 12 13  1  0
 14 15  2  0
 16 17  1  0
 16 14  1  0
 17 23  1  0
 17 18  1  1
 19 18  1  0
 20 19  1  0
 21 20  1  0
 21 22  1  0
 23 24  2  0
 23 25  1  0
M  END
$$$$
