ECK.pdb
     RDKit          3D

 25 24  0  0  1  0  0  0  0  0999 V2000
    8.6935  -18.5970   18.9664 N   0  0  0  0  0  0  0  0  0  0  0  0
   10.0360  -18.8295   19.5336 C   0  0  1  0  0  0  0  0  0  0  0  0
   11.0693  -18.8429   18.4561 C   0  0  0  0  0  0  0  0  0  0  0  0
   11.1249  -17.6340   17.5891 C   0  0  0  0  0  0  0  0  0  0  0  0
   12.2613  -17.7245   16.6383 C   0  0  0  0  0  0  0  0  0  0  0  0
   12.0325  -17.8858   15.4205 O   0  0  0  0  0  0  0  0  0  0  0  0
   10.2802  -17.8550   20.6074 C   0  0  0  0  0  0  0  0  0  0  0  0
   11.3592  -17.9164   21.2442 O   0  0  0  0  0  0  0  0  0  0  0  0
   13.5718  -17.6351   17.0635 O   0  0  0  0  0  0  0  0  0  0  0  0
    9.3759  -16.8379   20.9819 N   0  0  0  0  0  0  0  0  0  0  0  0
    9.6672  -15.9636   22.0666 C   0  0  1  0  0  0  0  0  0  0  0  0
    8.7875  -14.7394   22.1133 C   0  0  0  0  0  0  0  0  0  0  0  0
    7.1033  -15.0803   22.5941 S   0  0  0  0  0  0  0  0  0  0  0  0
    9.6393  -16.6964   23.3797 C   0  0  0  0  0  0  0  0  0  0  0  0
    8.8550  -17.6688   23.5712 O   0  0  0  0  0  0  0  0  0  0  0  0
   10.4839  -16.3346   24.4556 N   0  0  0  0  0  0  0  0  0  0  0  0
   10.5134  -17.0846   25.6970 C   0  0  1  0  0  0  0  0  0  0  0  0
   11.6263  -18.1052   25.6260 C   0  0  0  0  0  0  0  0  0  0  0  0
   11.7359  -18.9031   26.9070 C   0  0  0  0  0  0  0  0  0  0  0  0
   12.8704  -19.8791   26.8302 C   0  0  0  0  0  0  0  0  0  0  0  0
   12.8926  -20.7793   28.0245 C   0  0  0  0  0  0  0  0  0  0  0  0
   13.9587  -21.7533   27.8099 N   0  0  0  0  0  0  0  0  0  0  0  0
   10.7769  -16.1667   26.8349 C   0  0  0  0  0  0  0  0  0  0  0  0
   11.2267  -15.0149   26.6253 O   0  0  0  0  0  0  0  0  0  0  0  0
   10.5334  -16.5603   28.1385 O   0  0  0  0  0  0  0  0  0  0  0  0
  2  1  1  6
  2  7  1  0
  3  2  1  0
  4  5  1  0
  4  3  1  0
  5  9  1  0
  6  5  2  0
  7  8  2  0
 10  7  1  0
 10 11  1  0
 11 14  1  0
 11 12  1  1
 12 13  1  0
 14 15  2  0
 16 17  1  0
 16 14  1  0
 17 23  1  0
 17 18  1  6
 19 18  1  0
 20 19  1  0
 21 20  1  0
 21 22  1  0
 23 24  2  0
 23 25  1  0
M  END
$$$$
