KDC.pdb
     RDKit          3D

 24 23  0  0  1  0  0  0  0  0999 V2000
   17.8195  -12.7546  -17.4478 N   0  0  0  0  0  0  0  0  0  0  0  0
   17.3559  -12.5066  -16.1221 C   0  0  1  0  0  0  0  0  0  0  0  0
   17.3868  -13.6686  -15.1890 C   0  0  0  0  0  0  0  0  0  0  0  0
   16.8842  -14.9236  -15.8063 C   0  0  0  0  0  0  0  0  0  0  0  0
   16.9157  -16.1439  -14.9591 C   0  0  0  0  0  0  0  0  0  0  0  0
   16.2540  -17.3393  -15.5946 C   0  0  0  0  0  0  0  0  0  0  0  0
   16.4699  -18.4799  -14.7234 N   0  0  0  0  0  0  0  0  0  0  0  0
   18.0580  -11.3275  -15.5145 C   0  0  0  0  0  0  0  0  0  0  0  0
   17.7548  -10.9937  -14.3372 O   0  0  0  0  0  0  0  0  0  0  0  0
   19.0377  -10.5807  -16.2011 N   0  0  0  0  0  0  0  0  0  0  0  0
   19.7817   -9.4755  -15.5322 C   0  0  1  0  0  0  0  0  0  0  0  0
   21.1950   -9.4716  -16.0107 C   0  0  0  0  0  0  0  0  0  0  0  0
   21.9678   -8.3453  -15.4527 C   0  0  0  0  0  0  0  0  0  0  0  0
   22.7572   -7.6753  -16.2103 O   0  0  0  0  0  0  0  0  0  0  0  0
   19.0204   -8.2450  -15.8388 C   0  0  0  0  0  0  0  0  0  0  0  0
   18.7691   -7.9164  -17.0520 O   0  0  0  0  0  0  0  0  0  0  0  0
   21.8848   -7.9653  -14.1326 O   0  0  0  0  0  0  0  0  0  0  0  0
   18.5075   -7.3382  -14.8830 N   0  0  0  0  0  0  0  0  0  0  0  0
   17.8222   -6.1245  -15.2508 C   0  0  1  0  0  0  0  0  0  0  0  0
   16.8344   -5.6633  -14.2185 C   0  0  0  0  0  0  0  0  0  0  0  0
   15.6590   -6.9619  -13.7922 S   0  0  0  0  0  0  0  0  0  0  0  0
   18.8058   -5.0391  -15.4510 C   0  0  0  0  0  0  0  0  0  0  0  0
   20.1514   -5.2762  -15.2647 O   0  0  0  0  0  0  0  0  0  0  0  0
   18.4266   -3.8786  -15.7960 O   0  0  0  0  0  0  0  0  0  0  0  0
  2  1  1  6
  3  2  1  0
  4  3  1  0
  5  6  1  0
  5  4  1  0
  6  7  1  0
  8  2  1  0
  8  9  2  0
 10  8  1  0
 11 10  1  0
 11 12  1  6
 13 12  1  0
 13 17  1  0
 14 13  2  0
 15 11  1  0
 16 15  2  0
 18 15  1  0
 19 18  1  0
 19 20  1  1
 20 21  1  0
 22 23  1  0
 22 19  1  0
 24 22  2  0
M  END
$$$$
