KDC.pdb
     RDKit          3D

 24 23  0  0  1  0  0  0  0  0999 V2000
   28.5786  -20.5173  -15.5990 N   0  0  0  0  0  0  0  0  0  0  0  0
   27.6237  -21.4982  -15.9988 C   0  0  1  0  0  0  0  0  0  0  0  0
   28.1765  -22.8153  -16.4248 C   0  0  0  0  0  0  0  0  0  0  0  0
   28.3094  -22.9407  -17.8997 C   0  0  0  0  0  0  0  0  0  0  0  0
   29.6133  -22.5405  -18.4893 C   0  0  0  0  0  0  0  0  0  0  0  0
   29.6461  -22.6168  -19.9939 C   0  0  0  0  0  0  0  0  0  0  0  0
   30.9447  -22.1396  -20.4330 N   0  0  0  0  0  0  0  0  0  0  0  0
   26.5691  -21.6873  -14.9479 C   0  0  0  0  0  0  0  0  0  0  0  0
   25.6415  -22.5104  -15.1744 O   0  0  0  0  0  0  0  0  0  0  0  0
   26.5717  -20.9870  -13.7238 N   0  0  0  0  0  0  0  0  0  0  0  0
   25.5266  -21.2290  -12.6886 C   0  0  1  0  0  0  0  0  0  0  0  0
   26.0728  -20.8794  -11.3447 C   0  0  0  0  0  0  0  0  0  0  0  0
   25.0952  -21.1233  -10.2667 C   0  0  0  0  0  0  0  0  0  0  0  0
   23.9353  -21.5922  -10.5509 O   0  0  0  0  0  0  0  0  0  0  0  0
   24.3591  -20.4251  -13.1111 C   0  0  0  0  0  0  0  0  0  0  0  0
   24.4273  -19.1460  -13.1563 O   0  0  0  0  0  0  0  0  0  0  0  0
   25.3674  -20.8697   -8.9417 O   0  0  0  0  0  0  0  0  0  0  0  0
   23.1013  -20.9444  -13.4949 N   0  0  0  0  0  0  0  0  0  0  0  0
   21.9923  -20.1023  -13.8672 C   0  0  1  0  0  0  0  0  0  0  0  0
   21.7712  -20.0314  -15.3505 C   0  0  0  0  0  0  0  0  0  0  0  0
   21.8413  -21.6627  -16.1146 S   0  0  0  0  0  0  0  0  0  0  0  0
   20.7502  -20.6137  -13.2497 C   0  0  0  0  0  0  0  0  0  0  0  0
   19.5807  -19.8880  -13.3348 O   0  0  0  0  0  0  0  0  0  0  0  0
   20.7432  -21.7237  -12.6353 O   0  0  0  0  0  0  0  0  0  0  0  0
  2  1  1  1
  3  2  1  0
  4  3  1  0
  5  6  1  0
  5  4  1  0
  6  7  1  0
  8  2  1  0
  8  9  2  0
 10  8  1  0
 11 10  1  0
 11 12  1  1
 13 12  1  0
 13 17  1  0
 14 13  2  0
 15 11  1  0
 16 15  2  0
 18 15  1  0
 19 18  1  0
 19 20  1  6
 20 21  1  0
 22 23  1  0
 22 19  1  0
 24 22  2  0
M  END
$$$$
