KDC.pdb
     RDKit          3D

 24 23  0  0  1  0  0  0  0  0999 V2000
   24.4346  -21.3206   -9.8189 N   0  0  0  0  0  0  0  0  0  0  0  0
   23.9316  -21.0467  -11.1250 C   0  0  1  0  0  0  0  0  0  0  0  0
   22.9089  -19.9666  -11.2201 C   0  0  0  0  0  0  0  0  0  0  0  0
   21.6572  -20.4079  -11.8889 C   0  0  0  0  0  0  0  0  0  0  0  0
   21.0536  -21.6770  -11.4062 C   0  0  0  0  0  0  0  0  0  0  0  0
   19.7889  -22.0597  -12.1304 C   0  0  0  0  0  0  0  0  0  0  0  0
   19.3209  -23.3146  -11.5711 N   0  0  0  0  0  0  0  0  0  0  0  0
   25.0495  -20.7973  -12.0947 C   0  0  0  0  0  0  0  0  0  0  0  0
   25.9350  -19.9564  -11.7814 O   0  0  0  0  0  0  0  0  0  0  0  0
   25.1511  -21.4601  -13.3353 N   0  0  0  0  0  0  0  0  0  0  0  0
   26.2842  -21.1947  -14.2670 C   0  0  1  0  0  0  0  0  0  0  0  0
   26.4868  -22.3815  -15.1484 C   0  0  0  0  0  0  0  0  0  0  0  0
   27.5722  -22.1695  -16.1253 C   0  0  0  0  0  0  0  0  0  0  0  0
   27.4924  -21.2064  -16.9691 O   0  0  0  0  0  0  0  0  0  0  0  0
   25.9262  -19.9483  -14.9786 C   0  0  0  0  0  0  0  0  0  0  0  0
   24.7267  -19.7474  -15.3831 O   0  0  0  0  0  0  0  0  0  0  0  0
   28.6920  -22.9675  -16.1807 O   0  0  0  0  0  0  0  0  0  0  0  0
   26.8152  -18.8905  -15.2779 N   0  0  0  0  0  0  0  0  0  0  0  0
   26.4078  -17.7128  -16.0025 C   0  0  1  0  0  0  0  0  0  0  0  0
   27.3527  -16.5576  -15.8391 C   0  0  0  0  0  0  0  0  0  0  0  0
   29.0002  -16.9504  -16.4565 S   0  0  0  0  0  0  0  0  0  0  0  0
   26.3188  -18.0226  -17.4454 C   0  0  0  0  0  0  0  0  0  0  0  0
   25.7070  -17.1397  -18.3102 O   0  0  0  0  0  0  0  0  0  0  0  0
   26.8025  -19.1011  -17.9061 O   0  0  0  0  0  0  0  0  0  0  0  0
  2  1  1  1
  3  2  1  0
  4  3  1  0
  5  6  1  0
  5  4  1  0
  6  7  1  0
  8  2  1  0
  8  9  2  0
 10  8  1  0
 11 10  1  0
 11 12  1  6
 13 12  1  0
 13 17  1  0
 14 13  2  0
 15 11  1  0
 16 15  2  0
 18 15  1  0
 19 18  1  0
 19 20  1  6
 20 21  1  0
 22 23  1  0
 22 19  1  0
 24 22  2  0
M  END
$$$$
