KDC.pdb
     RDKit          3D

 24 23  0  0  1  0  0  0  0  0999 V2000
   16.4956  -11.0182  -14.3503 N   0  0  0  0  0  0  0  0  0  0  0  0
   17.7540  -10.9188  -15.0138 C   0  0  1  0  0  0  0  0  0  0  0  0
   17.9241  -11.7684  -16.2266 C   0  0  0  0  0  0  0  0  0  0  0  0
   16.9945  -12.9275  -16.2600 C   0  0  0  0  0  0  0  0  0  0  0  0
   17.1034  -13.9034  -15.1448 C   0  0  0  0  0  0  0  0  0  0  0  0
   16.1479  -15.0629  -15.2597 C   0  0  0  0  0  0  0  0  0  0  0  0
   16.7871  -16.0846  -16.0686 N   0  0  0  0  0  0  0  0  0  0  0  0
   18.0919   -9.4897  -15.3231 C   0  0  0  0  0  0  0  0  0  0  0  0
   18.9005   -9.2572  -16.2619 O   0  0  0  0  0  0  0  0  0  0  0  0
   17.5460   -8.4012  -14.6118 N   0  0  0  0  0  0  0  0  0  0  0  0
   17.8898   -6.9936  -14.9625 C   0  0  1  0  0  0  0  0  0  0  0  0
   16.7308   -6.1089  -14.6458 C   0  0  0  0  0  0  0  0  0  0  0  0
   15.5240   -6.4787  -15.4101 C   0  0  0  0  0  0  0  0  0  0  0  0
   15.5727   -6.5377  -16.6908 O   0  0  0  0  0  0  0  0  0  0  0  0
   19.1255   -6.6897  -14.2084 C   0  0  0  0  0  0  0  0  0  0  0  0
   19.1642   -6.8241  -12.9344 O   0  0  0  0  0  0  0  0  0  0  0  0
   14.3211   -6.7715  -14.8089 O   0  0  0  0  0  0  0  0  0  0  0  0
   20.3418   -6.2416  -14.7732 N   0  0  0  0  0  0  0  0  0  0  0  0
   21.5305   -6.0223  -13.9879 C   0  0  1  0  0  0  0  0  0  0  0  0
   22.7934   -6.4147  -14.6986 C   0  0  0  0  0  0  0  0  0  0  0  0
   22.7341   -8.1232  -15.2707 S   0  0  0  0  0  0  0  0  0  0  0  0
   21.6369   -4.5904  -13.6358 C   0  0  0  0  0  0  0  0  0  0  0  0
   22.5924   -4.1638  -12.7377 O   0  0  0  0  0  0  0  0  0  0  0  0
   20.8534   -3.7374  -14.1535 O   0  0  0  0  0  0  0  0  0  0  0  0
  2  1  1  6
  3  2  1  0
  4  3  1  0
  5  6  1  0
  5  4  1  0
  6  7  1  0
  8  2  1  0
  8  9  2  0
 10  8  1  0
 11 10  1  0
 11 12  1  1
 13 12  1  0
 13 17  1  0
 14 13  2  0
 15 11  1  0
 16 15  2  0
 18 15  1  0
 19 18  1  0
 19 20  1  6
 20 21  1  0
 22 23  1  0
 22 19  1  0
 24 22  2  0
M  END
$$$$
