DTT.pdb
     RDKit          3D

 23 22  0  0  1  0  0  0  0  0999 V2000
   10.4232  -18.4434   20.2479 N   0  0  0  0  0  0  0  0  0  0  0  0
   11.2825  -17.3201   20.5521 C   0  0  1  0  0  0  0  0  0  0  0  0
   11.9880  -16.7971   19.3329 C   0  0  0  0  0  0  0  0  0  0  0  0
   13.1142  -17.6761   18.9779 C   0  0  0  0  0  0  0  0  0  0  0  0
   13.6786  -17.5971   17.8538 O   0  0  0  0  0  0  0  0  0  0  0  0
   10.5032  -16.2331   21.2175 C   0  0  0  0  0  0  0  0  0  0  0  0
   10.7831  -15.0312   20.9742 O   0  0  0  0  0  0  0  0  0  0  0  0
   13.6002  -18.6269   19.8659 O   0  0  0  0  0  0  0  0  0  0  0  0
    6.6472  -15.9417   21.1636 C   0  0  0  0  0  0  0  0  0  0  0  0
    7.1527  -15.8508   22.5813 C   0  0  1  0  0  0  0  0  0  0  0  0
    7.0558  -17.1310   23.1529 O   0  0  0  0  0  0  0  0  0  0  0  0
    8.5876  -15.3662   22.6023 C   0  0  2  0  0  0  0  0  0  0  0  0
    9.4496  -16.4815   22.1217 N   0  0  0  0  0  0  0  0  0  0  0  0
    9.0025  -15.1451   24.0037 C   0  0  0  0  0  0  0  0  0  0  0  0
   10.0326  -15.7683   24.4352 O   0  0  0  0  0  0  0  0  0  0  0  0
    8.2814  -11.7257   26.1600 C   0  0  0  0  0  0  0  0  0  0  0  0
    7.8972  -13.0136   26.8502 C   0  0  1  0  0  0  0  0  0  0  0  0
    6.5684  -13.3179   26.5734 O   0  0  0  0  0  0  0  0  0  0  0  0
    8.7447  -14.1363   26.2646 C   0  0  2  0  0  0  0  0  0  0  0  0
    8.3220  -14.2797   24.8852 N   0  0  0  0  0  0  0  0  0  0  0  0
    8.5873  -15.3791   27.0235 C   0  0  0  0  0  0  0  0  0  0  0  0
    9.0250  -15.5116   28.3180 O   0  0  0  0  0  0  0  0  0  0  0  0
    8.0299  -16.3699   26.4747 O   0  0  0  0  0  0  0  0  0  0  0  0
  2  1  1  6
  2  3  1  0
  3  4  1  0
  4  8  1  0
  5  4  2  0
  6 13  1  0
  6  2  1  0
  7  6  2  0
 10  9  1  6
 10 12  1  0
 11 10  1  0
 12 13  1  1
 12 14  1  0
 14 20  1  0
 15 14  2  0
 17 18  1  0
 17 16  1  6
 19 17  1  0
 19 20  1  6
 21 22  1  0
 21 19  1  0
 23 21  2  0
M  END
$$$$
