DTT.pdb
     RDKit          3D

 23 22  0  0  1  0  0  0  0  0999 V2000
    7.0812  -17.8749   17.9891 N   0  0  0  0  0  0  0  0  0  0  0  0
    8.4555  -17.5528   17.6722 C   0  0  1  0  0  0  0  0  0  0  0  0
    8.5916  -16.9063   16.3227 C   0  0  0  0  0  0  0  0  0  0  0  0
    9.6040  -17.6103   15.5188 C   0  0  0  0  0  0  0  0  0  0  0  0
    9.8789  -18.8227   15.7259 O   0  0  0  0  0  0  0  0  0  0  0  0
    9.0455  -16.6844   18.7350 C   0  0  0  0  0  0  0  0  0  0  0  0
   10.2946  -16.5571   18.8093 O   0  0  0  0  0  0  0  0  0  0  0  0
   10.2967  -16.9683   14.5005 O   0  0  0  0  0  0  0  0  0  0  0  0
    7.6892  -13.1241   19.9279 C   0  0  0  0  0  0  0  0  0  0  0  0
    7.9392  -14.0428   21.0971 C   0  0  1  0  0  0  0  0  0  0  0  0
    6.7052  -14.5982   21.4763 O   0  0  0  0  0  0  0  0  0  0  0  0
    8.9181  -15.1334   20.7142 C   0  0  2  0  0  0  0  0  0  0  0  0
    8.2667  -15.9843   19.6798 N   0  0  0  0  0  0  0  0  0  0  0  0
    9.1175  -16.0317   21.8711 C   0  0  0  0  0  0  0  0  0  0  0  0
    8.3901  -17.0801   21.9555 O   0  0  0  0  0  0  0  0  0  0  0  0
   10.3087  -18.5138   22.4170 C   0  0  0  0  0  0  0  0  0  0  0  0
   11.0129  -17.8578   23.5817 C   0  0  1  0  0  0  0  0  0  0  0  0
   12.2430  -17.3578   23.1670 O   0  0  0  0  0  0  0  0  0  0  0  0
   10.1753  -16.6676   24.0327 C   0  0  2  0  0  0  0  0  0  0  0  0
   10.0712  -15.7918   22.8821 N   0  0  0  0  0  0  0  0  0  0  0  0
   10.7759  -15.9955   25.1871 C   0  0  0  0  0  0  0  0  0  0  0  0
   10.7768  -16.5495   26.4432 O   0  0  0  0  0  0  0  0  0  0  0  0
   11.3147  -14.8647   25.0302 O   0  0  0  0  0  0  0  0  0  0  0  0
  2  1  1  1
  2  3  1  0
  3  4  1  0
  4  8  1  0
  5  4  2  0
  6 13  1  0
  6  2  1  0
  7  6  2  0
 10  9  1  6
 10 12  1  0
 11 10  1  0
 12 13  1  6
 12 14  1  0
 14 20  1  0
 15 14  2  0
 17 18  1  0
 17 16  1  6
 19 17  1  0
 19 20  1  6
 21 22  1  0
 21 19  1  0
 23 21  2  0
M  END
$$$$
