DTT.pdb
     RDKit          3D

 23 22  0  0  1  0  0  0  0  0999 V2000
    8.7870  -15.0589   14.9196 N   0  0  0  0  0  0  0  0  0  0  0  0
    9.4457  -15.9395   15.8596 C   0  0  1  0  0  0  0  0  0  0  0  0
   10.7505  -16.4634   15.3298 C   0  0  0  0  0  0  0  0  0  0  0  0
   10.5100  -17.5176   14.3310 C   0  0  0  0  0  0  0  0  0  0  0  0
   11.4441  -17.9674   13.6143 O   0  0  0  0  0  0  0  0  0  0  0  0
    9.6475  -15.2477   17.1682 C   0  0  0  0  0  0  0  0  0  0  0  0
   10.3132  -14.1814   17.2098 O   0  0  0  0  0  0  0  0  0  0  0  0
    9.2457  -18.0590   14.1377 O   0  0  0  0  0  0  0  0  0  0  0  0
    7.8547  -13.0945   18.8708 C   0  0  0  0  0  0  0  0  0  0  0  0
    8.0239  -14.1857   19.8976 C   0  0  1  0  0  0  0  0  0  0  0  0
    6.9085  -15.0358   19.8061 O   0  0  0  0  0  0  0  0  0  0  0  0
    9.3026  -14.9572   19.6452 C   0  0  2  0  0  0  0  0  0  0  0  0
    9.1238  -15.7311   18.3853 N   0  0  0  0  0  0  0  0  0  0  0  0
    9.4645  -15.9821   20.6981 C   0  0  0  0  0  0  0  0  0  0  0  0
    8.8678  -17.1033   20.5479 O   0  0  0  0  0  0  0  0  0  0  0  0
   12.5477  -17.4320   22.0919 C   0  0  0  0  0  0  0  0  0  0  0  0
   11.7812  -16.9049   23.2825 C   0  0  1  0  0  0  0  0  0  0  0  0
   12.2160  -15.6200   23.5910 O   0  0  0  0  0  0  0  0  0  0  0  0
   10.3125  -16.7984   22.8913 C   0  0  2  0  0  0  0  0  0  0  0  0
   10.2460  -15.7861   21.8556 N   0  0  0  0  0  0  0  0  0  0  0  0
    9.4729  -16.4661   24.0445 C   0  0  0  0  0  0  0  0  0  0  0  0
    9.3087  -17.3208   25.1063 O   0  0  0  0  0  0  0  0  0  0  0  0
    8.8744  -15.3549   24.0712 O   0  0  0  0  0  0  0  0  0  0  0  0
  2  1  1  6
  2  3  1  0
  3  4  1  0
  4  8  1  0
  5  4  2  0
  6 13  1  0
  6  2  1  0
  7  6  2  0
 10  9  1  6
 10 12  1  0
 11 10  1  0
 12 13  1  6
 12 14  1  0
 14 20  1  0
 15 14  2  0
 17 18  1  0
 17 16  1  6
 19 17  1  0
 19 20  1  6
 21 22  1  0
 21 19  1  0
 23 21  2  0
M  END
$$$$
