DTT.pdb
     RDKit          3D

 23 22  0  0  1  0  0  0  0  0999 V2000
    9.5828  -15.2840   15.3635 N   0  0  0  0  0  0  0  0  0  0  0  0
    9.7025  -16.1977   16.4788 C   0  0  1  0  0  0  0  0  0  0  0  0
   10.8468  -17.1564   16.3084 C   0  0  0  0  0  0  0  0  0  0  0  0
   10.6787  -17.9380   15.0724 C   0  0  0  0  0  0  0  0  0  0  0  0
    9.7023  -18.7199   14.9187 O   0  0  0  0  0  0  0  0  0  0  0  0
    9.8346  -15.4412   17.7601 C   0  0  0  0  0  0  0  0  0  0  0  0
   10.6696  -14.5043   17.8440 O   0  0  0  0  0  0  0  0  0  0  0  0
   11.5878  -17.8458   14.0264 O   0  0  0  0  0  0  0  0  0  0  0  0
    7.7568  -13.0793   19.1827 C   0  0  0  0  0  0  0  0  0  0  0  0
    7.8933  -14.1020   20.2824 C   0  0  1  0  0  0  0  0  0  0  0  0
    6.7863  -14.9643   20.2044 O   0  0  0  0  0  0  0  0  0  0  0  0
    9.1843  -14.8786   20.1265 C   0  0  2  0  0  0  0  0  0  0  0  0
    9.0610  -15.7225   18.9055 N   0  0  0  0  0  0  0  0  0  0  0  0
    9.3061  -15.8423   21.2408 C   0  0  0  0  0  0  0  0  0  0  0  0
    8.5915  -16.9023   21.2046 O   0  0  0  0  0  0  0  0  0  0  0  0
   11.6731  -18.0628   22.1538 C   0  0  0  0  0  0  0  0  0  0  0  0
   11.5662  -17.2436   23.4189 C   0  0  1  0  0  0  0  0  0  0  0  0
   12.5067  -16.2189   23.3972 O   0  0  0  0  0  0  0  0  0  0  0  0
   10.1910  -16.5882   23.4444 C   0  0  2  0  0  0  0  0  0  0  0  0
   10.1724  -15.6524   22.3373 N   0  0  0  0  0  0  0  0  0  0  0  0
    9.9332  -15.9318   24.7282 C   0  0  0  0  0  0  0  0  0  0  0  0
    9.8023  -16.6337   25.9008 O   0  0  0  0  0  0  0  0  0  0  0  0
    9.8260  -14.6745   24.7668 O   0  0  0  0  0  0  0  0  0  0  0  0
  2  1  1  6
  2  3  1  0
  3  4  1  0
  4  8  1  0
  5  4  2  0
  6 13  1  0
  6  2  1  0
  7  6  2  0
 10  9  1  6
 10 12  1  0
 11 10  1  0
 12 13  1  6
 12 14  1  0
 14 20  1  0
 15 14  2  0
 17 18  1  0
 17 16  1  6
 19 17  1  0
 19 20  1  6
 21 22  1  0
 21 19  1  0
 23 21  2  0
M  END
$$$$
