DTT.pdb
     RDKit          3D

 23 22  0  0  1  0  0  0  0  0999 V2000
    8.2896  -17.6413   17.3902 N   0  0  0  0  0  0  0  0  0  0  0  0
    9.7108  -17.4446   17.5756 C   0  0  1  0  0  0  0  0  0  0  0  0
   10.3728  -16.8870   16.3474 C   0  0  0  0  0  0  0  0  0  0  0  0
   10.2354  -17.8259   15.2221 C   0  0  0  0  0  0  0  0  0  0  0  0
   10.2684  -19.0731   15.4009 O   0  0  0  0  0  0  0  0  0  0  0  0
    9.9655  -16.5663   18.7569 C   0  0  0  0  0  0  0  0  0  0  0  0
   11.1373  -16.1805   19.0016 O   0  0  0  0  0  0  0  0  0  0  0  0
   10.0641  -17.3767   13.9191 O   0  0  0  0  0  0  0  0  0  0  0  0
    7.8319  -13.4172   19.9785 C   0  0  0  0  0  0  0  0  0  0  0  0
    8.0532  -14.4135   21.0885 C   0  0  1  0  0  0  0  0  0  0  0  0
    6.9005  -15.2119   21.1828 O   0  0  0  0  0  0  0  0  0  0  0  0
    9.2697  -15.2680   20.7988 C   0  0  2  0  0  0  0  0  0  0  0  0
    8.9467  -16.1356   19.6321 N   0  0  0  0  0  0  0  0  0  0  0  0
    9.4790  -16.2071   21.9211 C   0  0  0  0  0  0  0  0  0  0  0  0
    8.7379  -17.2474   21.9857 O   0  0  0  0  0  0  0  0  0  0  0  0
   12.0024  -18.3542   22.7454 C   0  0  0  0  0  0  0  0  0  0  0  0
   11.9132  -17.5388   24.0143 C   0  0  1  0  0  0  0  0  0  0  0  0
   12.8440  -16.5057   23.9765 O   0  0  0  0  0  0  0  0  0  0  0  0
   10.5330  -16.8956   24.0683 C   0  0  2  0  0  0  0  0  0  0  0  0
   10.4562  -16.0145   22.9196 N   0  0  0  0  0  0  0  0  0  0  0  0
   10.3233  -16.1805   25.3292 C   0  0  0  0  0  0  0  0  0  0  0  0
   10.3244  -16.8170   26.5456 O   0  0  0  0  0  0  0  0  0  0  0  0
   10.1338  -14.9326   25.3058 O   0  0  0  0  0  0  0  0  0  0  0  0
  2  1  1  6
  2  3  1  0
  3  4  1  0
  4  8  1  0
  5  4  2  0
  6 13  1  0
  6  2  1  0
  7  6  2  0
 10  9  1  6
 10 12  1  0
 11 10  1  0
 12 13  1  6
 12 14  1  0
 14 20  1  0
 15 14  2  0
 17 18  1  0
 17 16  1  6
 19 17  1  0
 19 20  1  6
 21 22  1  0
 21 19  1  0
 23 21  2  0
M  END
$$$$
