DTT.pdb
     RDKit          3D

 23 22  0  0  1  0  0  0  0  0999 V2000
   12.9468  -16.9012   19.9177 N   0  0  0  0  0  0  0  0  0  0  0  0
   13.2755  -16.7954   21.3226 C   0  0  1  0  0  0  0  0  0  0  0  0
   14.4417  -15.8799   21.5665 C   0  0  0  0  0  0  0  0  0  0  0  0
   15.6288  -16.3603   20.8406 C   0  0  0  0  0  0  0  0  0  0  0  0
   16.2151  -15.6371   19.9912 O   0  0  0  0  0  0  0  0  0  0  0  0
   12.0830  -16.3503   22.1046 C   0  0  0  0  0  0  0  0  0  0  0  0
   11.3503  -15.4343   21.6506 O   0  0  0  0  0  0  0  0  0  0  0  0
   16.1506  -17.6283   21.0618 O   0  0  0  0  0  0  0  0  0  0  0  0
    9.0161  -17.9119   22.6713 C   0  0  0  0  0  0  0  0  0  0  0  0
    9.5192  -17.6267   24.0638 C   0  0  1  0  0  0  0  0  0  0  0  0
   10.1524  -18.7890   24.5363 O   0  0  0  0  0  0  0  0  0  0  0  0
   10.4876  -16.4621   24.0491 C   0  0  2  0  0  0  0  0  0  0  0  0
   11.7236  -16.9092   23.3487 N   0  0  0  0  0  0  0  0  0  0  0  0
   10.9205  -16.1762   25.4333 C   0  0  0  0  0  0  0  0  0  0  0  0
   12.0590  -16.6167   25.8143 O   0  0  0  0  0  0  0  0  0  0  0  0
   10.2671  -12.8714   27.6994 C   0  0  0  0  0  0  0  0  0  0  0  0
    9.7405  -14.1511   28.3060 C   0  0  1  0  0  0  0  0  0  0  0  0
    8.4179  -14.3452   27.9211 O   0  0  0  0  0  0  0  0  0  0  0  0
   10.5469  -15.3121   27.7375 C   0  0  2  0  0  0  0  0  0  0  0  0
   10.1431  -15.4397   26.3510 N   0  0  0  0  0  0  0  0  0  0  0  0
   10.3203  -16.5447   28.4955 C   0  0  0  0  0  0  0  0  0  0  0  0
   10.6836  -16.6763   29.8128 O   0  0  0  0  0  0  0  0  0  0  0  0
    9.7711  -17.5274   27.9240 O   0  0  0  0  0  0  0  0  0  0  0  0
  2  1  1  6
  2  3  1  0
  3  4  1  0
  4  8  1  0
  5  4  2  0
  6 13  1  0
  6  2  1  0
  7  6  2  0
 10  9  1  6
 10 12  1  0
 11 10  1  0
 12 13  1  6
 12 14  1  0
 14 20  1  0
 15 14  2  0
 17 18  1  0
 17 16  1  6
 19 17  1  0
 19 20  1  6
 21 22  1  0
 21 19  1  0
 23 21  2  0
M  END
$$$$
