DTT.pdb
     RDKit          3D

 23 22  0  0  1  0  0  0  0  0999 V2000
   13.0773  -14.6890   16.7317 N   0  0  0  0  0  0  0  0  0  0  0  0
   11.8482  -15.3038   17.1836 C   0  0  1  0  0  0  0  0  0  0  0  0
   11.9397  -16.8033   17.2132 C   0  0  0  0  0  0  0  0  0  0  0  0
   12.2272  -17.3242   15.8668 C   0  0  0  0  0  0  0  0  0  0  0  0
   13.1043  -18.2097   15.6798 O   0  0  0  0  0  0  0  0  0  0  0  0
   11.4624  -14.7723   18.5253 C   0  0  0  0  0  0  0  0  0  0  0  0
   12.3557  -14.3643   19.3111 O   0  0  0  0  0  0  0  0  0  0  0  0
   11.5447  -16.8620   14.7490 O   0  0  0  0  0  0  0  0  0  0  0  0
    8.4585  -12.3323   19.3886 C   0  0  0  0  0  0  0  0  0  0  0  0
    8.4394  -13.5481   20.2803 C   0  0  1  0  0  0  0  0  0  0  0  0
    7.4959  -14.4482   19.7562 O   0  0  0  0  0  0  0  0  0  0  0  0
    9.8115  -14.1874   20.3341 C   0  0  2  0  0  0  0  0  0  0  0  0
   10.1263  -14.7001   18.9716 N   0  0  0  0  0  0  0  0  0  0  0  0
    9.7495  -15.3937   21.1863 C   0  0  0  0  0  0  0  0  0  0  0  0
    9.2015  -16.4453   20.7074 O   0  0  0  0  0  0  0  0  0  0  0  0
   11.7277  -17.8459   22.0280 C   0  0  0  0  0  0  0  0  0  0  0  0
   11.4038  -17.3203   23.4070 C   0  0  1  0  0  0  0  0  0  0  0  0
   12.3511  -16.3742   23.7848 O   0  0  0  0  0  0  0  0  0  0  0  0
   10.0601  -16.6053   23.3383 C   0  0  2  0  0  0  0  0  0  0  0  0
   10.2673  -15.4428   22.4972 N   0  0  0  0  0  0  0  0  0  0  0  0
    9.5758  -16.2438   24.6724 C   0  0  0  0  0  0  0  0  0  0  0  0
    9.3000  -17.1830   25.6350 O   0  0  0  0  0  0  0  0  0  0  0  0
    9.4029  -15.0259   24.9562 O   0  0  0  0  0  0  0  0  0  0  0  0
  2  1  1  1
  2  3  1  0
  3  4  1  0
  4  8  1  0
  5  4  2  0
  6 13  1  0
  6  2  1  0
  7  6  2  0
 10  9  1  6
 10 12  1  0
 11 10  1  0
 12 13  1  6
 12 14  1  0
 14 20  1  0
 15 14  2  0
 17 18  1  0
 17 16  1  6
 19 17  1  0
 19 20  1  6
 21 22  1  0
 21 19  1  0
 23 21  2  0
M  END
$$$$
