DTT.pdb
     RDKit          3D

 23 22  0  0  1  0  0  0  0  0999 V2000
   11.9884  -16.3699   18.0583 N   0  0  0  0  0  0  0  0  0  0  0  0
   12.7523  -15.1929   18.4104 C   0  0  1  0  0  0  0  0  0  0  0  0
   13.3604  -14.5287   17.2077 C   0  0  0  0  0  0  0  0  0  0  0  0
   14.2416  -15.4686   16.4959 C   0  0  0  0  0  0  0  0  0  0  0  0
   13.7935  -16.5324   15.9898 O   0  0  0  0  0  0  0  0  0  0  0  0
   11.9025  -14.2289   19.1721 C   0  0  0  0  0  0  0  0  0  0  0  0
   12.4198  -13.1830   19.6417 O   0  0  0  0  0  0  0  0  0  0  0  0
   15.6009  -15.2222   16.3529 O   0  0  0  0  0  0  0  0  0  0  0  0
    8.5971  -12.4194   18.1563 C   0  0  0  0  0  0  0  0  0  0  0  0
    8.4085  -13.2420   19.4058 C   0  0  1  0  0  0  0  0  0  0  0  0
    7.8963  -14.4929   19.0212 O   0  0  0  0  0  0  0  0  0  0  0  0
    9.7258  -13.4081   20.1348 C   0  0  2  0  0  0  0  0  0  0  0  0
   10.5249  -14.4277   19.4001 N   0  0  0  0  0  0  0  0  0  0  0  0
    9.4718  -14.0108   21.4605 C   0  0  0  0  0  0  0  0  0  0  0  0
    8.7477  -13.3621   22.2914 O   0  0  0  0  0  0  0  0  0  0  0  0
    7.6974  -14.4328   23.0527 C   0  0  0  0  0  0  0  0  0  0  0  0
    8.2293  -15.8142   23.3558 C   0  0  1  0  0  0  0  0  0  0  0  0
    7.7276  -16.7250   22.4317 O   0  0  0  0  0  0  0  0  0  0  0  0
    9.7427  -15.7881   23.1820 C   0  0  2  0  0  0  0  0  0  0  0  0
    9.9844  -15.2651   21.8516 N   0  0  0  0  0  0  0  0  0  0  0  0
   10.3272  -17.1181   23.3683 C   0  0  0  0  0  0  0  0  0  0  0  0
   10.3380  -17.7536   24.5851 O   0  0  0  0  0  0  0  0  0  0  0  0
   10.8422  -17.7090   22.3787 O   0  0  0  0  0  0  0  0  0  0  0  0
  2  1  1  6
  2  3  1  0
  3  4  1  0
  4  8  1  0
  5  4  2  0
  6 13  1  0
  6  2  1  0
  7  6  2  0
 10  9  1  6
 10 12  1  0
 11 10  1  0
 12 13  1  6
 12 14  1  0
 14 20  1  0
 15 14  2  0
 17 18  1  0
 17 16  1  6
 19 17  1  0
 19 20  1  6
 21 22  1  0
 21 19  1  0
 23 21  2  0
M  END
$$$$
