DTT.pdb
     RDKit          3D

 23 22  0  0  1  0  0  0  0  0999 V2000
   13.2113  -14.2723   18.2074 N   0  0  0  0  0  0  0  0  0  0  0  0
   12.5529  -15.2977   18.9871 C   0  0  1  0  0  0  0  0  0  0  0  0
   13.5320  -16.2245   19.6504 C   0  0  0  0  0  0  0  0  0  0  0  0
   14.1794  -17.0863   18.6479 C   0  0  0  0  0  0  0  0  0  0  0  0
   14.6807  -16.6061   17.5960 O   0  0  0  0  0  0  0  0  0  0  0  0
   11.6434  -14.6798   19.9984 C   0  0  0  0  0  0  0  0  0  0  0  0
   12.0789  -13.7710   20.7509 O   0  0  0  0  0  0  0  0  0  0  0  0
   14.2641  -18.4619   18.8197 O   0  0  0  0  0  0  0  0  0  0  0  0
    8.3428  -13.0667   19.1666 C   0  0  0  0  0  0  0  0  0  0  0  0
    8.1051  -14.0326   20.2998 C   0  0  1  0  0  0  0  0  0  0  0  0
    7.6108  -15.2266   19.7476 O   0  0  0  0  0  0  0  0  0  0  0  0
    9.3922  -14.2893   21.0560 C   0  0  2  0  0  0  0  0  0  0  0  0
   10.2963  -15.0646   20.1618 N   0  0  0  0  0  0  0  0  0  0  0  0
    9.1139  -15.1962   22.1897 C   0  0  0  0  0  0  0  0  0  0  0  0
    9.5042  -16.4109   22.1027 O   0  0  0  0  0  0  0  0  0  0  0  0
    9.0790  -14.2788   26.0322 C   0  0  0  0  0  0  0  0  0  0  0  0
    7.7869  -14.9559   25.6385 C   0  0  1  0  0  0  0  0  0  0  0  0
    6.8254  -13.9967   25.3375 O   0  0  0  0  0  0  0  0  0  0  0  0
    8.0383  -15.7527   24.3644 C   0  0  2  0  0  0  0  0  0  0  0  0
    8.4440  -14.7875   23.3616 N   0  0  0  0  0  0  0  0  0  0  0  0
    6.8491  -16.5053   23.9588 C   0  0  0  0  0  0  0  0  0  0  0  0
    6.2838  -17.4724   24.7524 O   0  0  0  0  0  0  0  0  0  0  0  0
    6.3179  -16.2621   22.8397 O   0  0  0  0  0  0  0  0  0  0  0  0
  2  1  1  1
  2  3  1  0
  3  4  1  0
  4  8  1  0
  5  4  2  0
  6 13  1  0
  6  2  1  0
  7  6  2  0
 10  9  1  6
 10 12  1  0
 11 10  1  0
 12 13  1  6
 12 14  1  0
 14 20  1  0
 15 14  2  0
 17 18  1  0
 17 16  1  6
 19 17  1  0
 19 20  1  6
 21 22  1  0
 21 19  1  0
 23 21  2  0
M  END
$$$$
