DTT.pdb
     RDKit          3D

 23 22  0  0  1  0  0  0  0  0999 V2000
   11.2136  -16.9107   19.5128 N   0  0  0  0  0  0  0  0  0  0  0  0
   11.4766  -15.9768   20.5858 C   0  0  1  0  0  0  0  0  0  0  0  0
   12.3221  -14.8185   20.1372 C   0  0  0  0  0  0  0  0  0  0  0  0
   13.7303  -15.2298   20.0180 C   0  0  0  0  0  0  0  0  0  0  0  0
   14.1962  -16.1800   20.7025 O   0  0  0  0  0  0  0  0  0  0  0  0
   10.1949  -15.4944   21.1825 C   0  0  0  0  0  0  0  0  0  0  0  0
    9.3607  -14.8937   20.4577 O   0  0  0  0  0  0  0  0  0  0  0  0
   14.6023  -14.5887   19.1476 O   0  0  0  0  0  0  0  0  0  0  0  0
    7.3396  -17.0578   21.7935 C   0  0  0  0  0  0  0  0  0  0  0  0
    7.6700  -16.5182   23.1622 C   0  0  1  0  0  0  0  0  0  0  0  0
    8.3599  -17.5223   23.8628 O   0  0  0  0  0  0  0  0  0  0  0  0
    8.5196  -15.2694   23.0485 C   0  0  2  0  0  0  0  0  0  0  0  0
    9.8588  -15.6772   22.5401 N   0  0  0  0  0  0  0  0  0  0  0  0
    8.7765  -14.7349   24.4025 C   0  0  0  0  0  0  0  0  0  0  0  0
    9.9287  -14.9310   24.9218 O   0  0  0  0  0  0  0  0  0  0  0  0
    7.0619  -11.4219   26.1830 C   0  0  0  0  0  0  0  0  0  0  0  0
    6.9172  -12.7284   26.9279 C   0  0  1  0  0  0  0  0  0  0  0  0
    5.7421  -13.3638   26.5400 O   0  0  0  0  0  0  0  0  0  0  0  0
    8.0717  -13.6360   26.5218 C   0  0  2  0  0  0  0  0  0  0  0  0
    7.8169  -14.0174   25.1465 N   0  0  0  0  0  0  0  0  0  0  0  0
    8.1781  -14.7977   27.4075 C   0  0  0  0  0  0  0  0  0  0  0  0
    8.5244  -14.6849   28.7312 O   0  0  0  0  0  0  0  0  0  0  0  0
    7.9445  -15.9488   26.9449 O   0  0  0  0  0  0  0  0  0  0  0  0
  2  1  1  6
  2  3  1  0
  3  4  1  0
  4  8  1  0
  5  4  2  0
  6 13  1  0
  6  2  1  0
  7  6  2  0
 10  9  1  6
 10 12  1  0
 11 10  1  0
 12 13  1  1
 12 14  1  0
 14 20  1  0
 15 14  2  0
 17 18  1  0
 17 16  1  6
 19 17  1  0
 19 20  1  6
 21 22  1  0
 21 19  1  0
 23 21  2  0
M  END
$$$$
