DTT.pdb
     RDKit          3D

 23 22  0  0  1  0  0  0  0  0999 V2000
   12.6991  -14.7016   17.2528 N   0  0  0  0  0  0  0  0  0  0  0  0
   12.7457  -15.1751   18.6190 C   0  0  1  0  0  0  0  0  0  0  0  0
   14.1294  -15.1009   19.1999 C   0  0  0  0  0  0  0  0  0  0  0  0
   15.0463  -15.9738   18.4488 C   0  0  0  0  0  0  0  0  0  0  0  0
   14.6929  -17.1215   18.0661 O   0  0  0  0  0  0  0  0  0  0  0  0
   11.7766  -14.4173   19.4664 C   0  0  0  0  0  0  0  0  0  0  0  0
   12.0124  -13.2161   19.7552 O   0  0  0  0  0  0  0  0  0  0  0  0
   16.3365  -15.5692   18.1316 O   0  0  0  0  0  0  0  0  0  0  0  0
    8.4983  -13.2520   18.7979 C   0  0  0  0  0  0  0  0  0  0  0  0
    8.3386  -14.0758   20.0507 C   0  0  1  0  0  0  0  0  0  0  0  0
    7.8993  -15.3549   19.6685 O   0  0  0  0  0  0  0  0  0  0  0  0
    9.6538  -14.1662   20.7967 C   0  0  2  0  0  0  0  0  0  0  0  0
   10.5874  -14.9826   19.9721 N   0  0  0  0  0  0  0  0  0  0  0  0
    9.4553  -14.9526   22.0325 C   0  0  0  0  0  0  0  0  0  0  0  0
   10.0264  -16.0934   22.1220 O   0  0  0  0  0  0  0  0  0  0  0  0
    8.8062  -13.4647   25.7091 C   0  0  0  0  0  0  0  0  0  0  0  0
    7.7726  -14.4942   25.3159 C   0  0  1  0  0  0  0  0  0  0  0  0
    6.6669  -13.8617   24.7569 O   0  0  0  0  0  0  0  0  0  0  0  0
    8.3752  -15.3815   24.2337 C   0  0  2  0  0  0  0  0  0  0  0  0
    8.6720  -14.5059   23.1169 N   0  0  0  0  0  0  0  0  0  0  0  0
    7.4640  -16.4655   23.8598 C   0  0  0  0  0  0  0  0  0  0  0  0
    6.8977  -16.5539   22.6123 O   0  0  0  0  0  0  0  0  0  0  0  0
    7.1837  -17.3557   24.7099 O   0  0  0  0  0  0  0  0  0  0  0  0
  2  1  1  6
  2  3  1  0
  3  4  1  0
  4  8  1  0
  5  4  2  0
  6 13  1  0
  6  2  1  0
  7  6  2  0
 10  9  1  6
 10 12  1  0
 11 10  1  0
 12 13  1  6
 12 14  1  0
 14 20  1  0
 15 14  2  0
 17 18  1  0
 17 16  1  6
 19 17  1  0
 19 20  1  6
 21 22  1  0
 21 19  1  0
 23 21  2  0
M  END
$$$$
