YKG.pdb
     RDKit          3D

 26 26  0  0  1  0  0  0  0  0999 V2000
   10.1536  -14.0226   30.6552 O   0  0  0  0  0  0  0  0  0  0  0  0
    9.9271  -14.3854   29.3371 C   0  0  0  0  0  0  0  0  0  0  0  0
    9.2330  -13.5798   28.4586 C   0  0  0  0  0  0  0  0  0  0  0  0
    9.0068  -13.9423   27.1421 C   0  0  0  0  0  0  0  0  0  0  0  0
    9.4836  -15.1536   26.6612 C   0  0  0  0  0  0  0  0  0  0  0  0
    9.2821  -15.6090   25.2703 C   0  0  0  0  0  0  0  0  0  0  0  0
    7.8275  -15.9163   24.9815 C   0  0  2  0  0  0  0  0  0  0  0  0
    7.3305  -16.9730   25.8518 N   0  0  0  0  0  0  0  0  0  0  0  0
    7.5960  -16.2724   23.5761 C   0  0  0  0  0  0  0  0  0  0  0  0
    7.5375  -17.4917   23.2551 O   0  0  0  0  0  0  0  0  0  0  0  0
   10.1754  -15.9531   27.5426 C   0  0  0  0  0  0  0  0  0  0  0  0
   10.4025  -15.5923   28.8591 C   0  0  0  0  0  0  0  0  0  0  0  0
    7.4287  -15.3290   22.5231 N   0  0  0  0  0  0  0  0  0  0  0  0
    7.9495  -15.5523   21.1890 C   0  0  1  0  0  0  0  0  0  0  0  0
    7.5769  -14.4061   20.3017 C   0  0  0  0  0  0  0  0  0  0  0  0
    8.0161  -14.5591   18.8830 C   0  0  0  0  0  0  0  0  0  0  0  0
    7.4673  -13.3754   18.1009 C   0  0  0  0  0  0  0  0  0  0  0  0
    7.8005  -13.4859   16.6250 C   0  0  0  0  0  0  0  0  0  0  0  0
    7.4437  -12.2580   15.9601 N   0  0  0  0  0  0  0  0  0  0  0  0
    9.4060  -15.8244   21.2050 C   0  0  0  0  0  0  0  0  0  0  0  0
   10.1930  -15.2994   22.0300 O   0  0  0  0  0  0  0  0  0  0  0  0
    9.9621  -16.7198   20.2497 N   0  0  0  0  0  0  0  0  0  0  0  0
   11.3953  -16.9429   20.2044 C   0  0  0  0  0  0  0  0  0  0  0  0
   11.7606  -17.7398   19.0375 C   0  0  0  0  0  0  0  0  0  0  0  0
   12.2158  -19.0342   19.2029 O   0  0  0  0  0  0  0  0  0  0  0  0
   11.6678  -17.2673   17.8822 O   0  0  0  0  0  0  0  0  0  0  0  0
  2  3  2  0
  2  1  1  0
  4  3  1  0
  5  4  2  0
  6  5  1  0
  7  6  1  0
  7  9  1  0
  7  8  1  1
  9 10  2  0
 11  5  1  0
 11 12  2  0
 12  2  1  0
 13  9  1  0
 13 14  1  0
 14 15  1  6
 15 16  1  0
 17 16  1  0
 18 19  1  0
 18 17  1  0
 20 21  2  0
 20 14  1  0
 22 20  1  0
 23 24  1  0
 23 22  1  0
 24 25  1  0
 26 24  2  0
M  END
$$$$
