YKG.pdb
     RDKit          3D

 26 26  0  0  1  0  0  0  0  0999 V2000
    5.7125  -10.5582   27.0514 O   0  0  0  0  0  0  0  0  0  0  0  0
    6.1903  -11.8485   26.8857 C   0  0  0  0  0  0  0  0  0  0  0  0
    7.5373  -12.1306   26.7927 C   0  0  0  0  0  0  0  0  0  0  0  0
    8.0144  -13.4192   26.6272 C   0  0  0  0  0  0  0  0  0  0  0  0
    7.1293  -14.4852   26.5489 C   0  0  0  0  0  0  0  0  0  0  0  0
    7.5622  -15.8866   26.3729 C   0  0  0  0  0  0  0  0  0  0  0  0
    6.8511  -16.5566   25.2156 C   0  0  2  0  0  0  0  0  0  0  0  0
    6.4600  -17.9176   25.5557 N   0  0  0  0  0  0  0  0  0  0  0  0
    7.6536  -16.5567   23.9862 C   0  0  0  0  0  0  0  0  0  0  0  0
    8.5004  -17.4756   23.8080 O   0  0  0  0  0  0  0  0  0  0  0  0
    5.7864  -14.1974   26.6424 C   0  0  0  0  0  0  0  0  0  0  0  0
    5.3076  -12.9096   26.8078 C   0  0  0  0  0  0  0  0  0  0  0  0
    7.5493  -15.5796   22.9561 N   0  0  0  0  0  0  0  0  0  0  0  0
    8.4086  -15.5855   21.7888 C   0  0  1  0  0  0  0  0  0  0  0  0
    8.0399  -14.4526   20.8831 C   0  0  0  0  0  0  0  0  0  0  0  0
    8.8099  -14.4123   19.6046 C   0  0  0  0  0  0  0  0  0  0  0  0
    8.1135  -13.4267   18.6785 C   0  0  0  0  0  0  0  0  0  0  0  0
    8.7947  -13.3648   17.3243 C   0  0  0  0  0  0  0  0  0  0  0  0
    8.1108  -12.4115   16.4872 N   0  0  0  0  0  0  0  0  0  0  0  0
    9.8428  -15.5880   22.1611 C   0  0  0  0  0  0  0  0  0  0  0  0
   10.3394  -14.7809   22.9842 O   0  0  0  0  0  0  0  0  0  0  0  0
   10.7183  -16.5413   21.5708 N   0  0  0  0  0  0  0  0  0  0  0  0
   12.1157  -16.5894   21.9590 C   0  0  0  0  0  0  0  0  0  0  0  0
   12.9724  -16.1143   20.8771 C   0  0  0  0  0  0  0  0  0  0  0  0
   12.4188  -15.7871   19.6537 O   0  0  0  0  0  0  0  0  0  0  0  0
   14.2078  -15.9977   21.0399 O   0  0  0  0  0  0  0  0  0  0  0  0
  2  3  2  0
  2  1  1  0
  4  3  1  0
  5  4  2  0
  6  5  1  0
  7  6  1  0
  7  9  1  0
  7  8  1  1
  9 10  2  0
 11  5  1  0
 11 12  2  0
 12  2  1  0
 13  9  1  0
 13 14  1  0
 14 15  1  6
 15 16  1  0
 17 16  1  0
 18 19  1  0
 18 17  1  0
 20 21  2  0
 20 14  1  0
 22 20  1  0
 23 24  1  0
 23 22  1  0
 24 25  1  0
 26 24  2  0
M  END
$$$$
