YKG.pdb
     RDKit          3D

 26 26  0  0  1  0  0  0  0  0999 V2000
    5.5630  -10.7635   28.5178 O   0  0  0  0  0  0  0  0  0  0  0  0
    6.2212  -11.7084   27.7469 C   0  0  0  0  0  0  0  0  0  0  0  0
    7.3027  -12.4227   28.2187 C   0  0  0  0  0  0  0  0  0  0  0  0
    7.9600  -13.3664   27.4487 C   0  0  0  0  0  0  0  0  0  0  0  0
    7.5379  -13.6242   26.1521 C   0  0  0  0  0  0  0  0  0  0  0  0
    8.1879  -14.6154   25.2703 C   0  0  0  0  0  0  0  0  0  0  0  0
    7.1846  -15.5703   24.6575 C   0  0  2  0  0  0  0  0  0  0  0  0
    6.9204  -16.6954   25.5436 N   0  0  0  0  0  0  0  0  0  0  0  0
    7.6052  -16.0577   23.3380 C   0  0  0  0  0  0  0  0  0  0  0  0
    8.1665  -17.1850   23.2522 O   0  0  0  0  0  0  0  0  0  0  0  0
    6.4582  -12.9083   25.6868 C   0  0  0  0  0  0  0  0  0  0  0  0
    5.7998  -11.9644   26.4554 C   0  0  0  0  0  0  0  0  0  0  0  0
    7.4257  -15.3424   22.1203 N   0  0  0  0  0  0  0  0  0  0  0  0
    8.2222  -15.6069   20.9385 C   0  0  1  0  0  0  0  0  0  0  0  0
    7.8759  -14.6240   19.8643 C   0  0  0  0  0  0  0  0  0  0  0  0
    8.5468  -14.8820   18.5557 C   0  0  0  0  0  0  0  0  0  0  0  0
    8.0204  -13.8605   17.5591 C   0  0  0  0  0  0  0  0  0  0  0  0
    8.4611  -14.1898   16.1452 C   0  0  0  0  0  0  0  0  0  0  0  0
    7.9762  -13.1753   15.2437 N   0  0  0  0  0  0  0  0  0  0  0  0
    9.6709  -15.6425   21.2477 C   0  0  0  0  0  0  0  0  0  0  0  0
   10.2247  -14.8357   22.0338 O   0  0  0  0  0  0  0  0  0  0  0  0
   10.4938  -16.6289   20.6366 N   0  0  0  0  0  0  0  0  0  0  0  0
   11.9214  -16.6531   20.8960 C   0  0  0  0  0  0  0  0  0  0  0  0
   12.5582  -17.7635   20.1949 C   0  0  0  0  0  0  0  0  0  0  0  0
   13.9337  -17.7966   20.0636 O   0  0  0  0  0  0  0  0  0  0  0  0
   11.8750  -18.6921   19.7077 O   0  0  0  0  0  0  0  0  0  0  0  0
  2  3  2  0
  2  1  1  0
  4  3  1  0
  5  4  2  0
  6  5  1  0
  7  6  1  0
  7  9  1  0
  7  8  1  1
  9 10  2  0
 11  5  1  0
 11 12  2  0
 12  2  1  0
 13  9  1  0
 13 14  1  0
 14 15  1  6
 15 16  1  0
 17 16  1  0
 18 19  1  0
 18 17  1  0
 20 21  2  0
 20 14  1  0
 22 20  1  0
 23 24  1  0
 23 22  1  0
 24 25  1  0
 26 24  2  0
M  END
$$$$
