YKG.pdb
     RDKit          3D

 26 26  0  0  1  0  0  0  0  0999 V2000
    6.5656  -10.2862   26.6290 O   0  0  0  0  0  0  0  0  0  0  0  0
    6.7543  -11.6550   26.5223 C   0  0  0  0  0  0  0  0  0  0  0  0
    7.7368  -12.2048   25.7255 C   0  0  0  0  0  0  0  0  0  0  0  0
    7.9251  -13.5719   25.6190 C   0  0  0  0  0  0  0  0  0  0  0  0
    7.1113  -14.4446   26.3275 C   0  0  0  0  0  0  0  0  0  0  0  0
    7.2510  -15.9140   26.2651 C   0  0  0  0  0  0  0  0  0  0  0  0
    6.5858  -16.4931   25.0338 C   0  0  2  0  0  0  0  0  0  0  0  0
    6.0857  -17.8368   25.2892 N   0  0  0  0  0  0  0  0  0  0  0  0
    7.4748  -16.5013   23.8655 C   0  0  0  0  0  0  0  0  0  0  0  0
    7.9591  -17.5987   23.4725 O   0  0  0  0  0  0  0  0  0  0  0  0
    6.1327  -13.8900   27.1208 C   0  0  0  0  0  0  0  0  0  0  0  0
    5.9430  -12.5234   27.2285 C   0  0  0  0  0  0  0  0  0  0  0  0
    7.8416  -15.3425   23.1242 N   0  0  0  0  0  0  0  0  0  0  0  0
    8.1214  -15.3852   21.7026 C   0  0  1  0  0  0  0  0  0  0  0  0
    7.6206  -14.1348   21.0504 C   0  0  0  0  0  0  0  0  0  0  0  0
    7.3036  -14.2832   19.5989 C   0  0  0  0  0  0  0  0  0  0  0  0
    8.4741  -13.7143   18.8115 C   0  0  0  0  0  0  0  0  0  0  0  0
    8.2196  -13.7811   17.3173 C   0  0  0  0  0  0  0  0  0  0  0  0
    9.3049  -13.1413   16.6175 N   0  0  0  0  0  0  0  0  0  0  0  0
    9.5542  -15.6477   21.4312 C   0  0  0  0  0  0  0  0  0  0  0  0
    9.9936  -15.9472   20.2942 O   0  0  0  0  0  0  0  0  0  0  0  0
   10.4959  -15.5622   22.4941 N   0  0  0  0  0  0  0  0  0  0  0  0
   11.6652  -16.4215   22.5059 C   0  0  0  0  0  0  0  0  0  0  0  0
   12.6931  -15.9127   21.6032 C   0  0  0  0  0  0  0  0  0  0  0  0
   14.0280  -16.0426   21.9369 O   0  0  0  0  0  0  0  0  0  0  0  0
   12.3836  -15.3574   20.5252 O   0  0  0  0  0  0  0  0  0  0  0  0
  2  3  2  0
  2  1  1  0
  4  3  1  0
  5  4  2  0
  6  5  1  0
  7  6  1  0
  7  9  1  0
  7  8  1  1
  9 10  2  0
 11  5  1  0
 11 12  2  0
 12  2  1  0
 13  9  1  0
 13 14  1  0
 14 15  1  1
 15 16  1  0
 17 16  1  0
 18 19  1  0
 18 17  1  0
 20 21  2  0
 20 14  1  0
 22 20  1  0
 23 24  1  0
 23 22  1  0
 24 25  1  0
 26 24  2  0
M  END
$$$$
