YKG.pdb
     RDKit          3D

 26 26  0  0  1  0  0  0  0  0999 V2000
    4.8960  -10.8264   28.0668 O   0  0  0  0  0  0  0  0  0  0  0  0
    5.6926  -11.7804   27.4538 C   0  0  0  0  0  0  0  0  0  0  0  0
    6.9841  -12.0379   27.8641 C   0  0  0  0  0  0  0  0  0  0  0  0
    7.7797  -12.9906   27.2517 C   0  0  0  0  0  0  0  0  0  0  0  0
    7.2869  -13.7283   26.1845 C   0  0  0  0  0  0  0  0  0  0  0  0
    8.0749  -14.7611   25.4809 C   0  0  0  0  0  0  0  0  0  0  0  0
    7.2368  -15.9751   25.1380 C   0  0  2  0  0  0  0  0  0  0  0  0
    7.1904  -16.9133   26.2509 N   0  0  0  0  0  0  0  0  0  0  0  0
    7.7045  -16.6572   23.9249 C   0  0  0  0  0  0  0  0  0  0  0  0
    8.3230  -17.7516   24.0379 O   0  0  0  0  0  0  0  0  0  0  0  0
    5.9975  -13.4669   25.7797 C   0  0  0  0  0  0  0  0  0  0  0  0
    5.2007  -12.5146   26.3908 C   0  0  0  0  0  0  0  0  0  0  0  0
    7.5108  -16.1699   22.6014 N   0  0  0  0  0  0  0  0  0  0  0  0
    8.4491  -16.4370   21.5293 C   0  0  1  0  0  0  0  0  0  0  0  0
    7.9434  -15.8401   20.2536 C   0  0  0  0  0  0  0  0  0  0  0  0
    8.4061  -14.4428   20.0030 C   0  0  0  0  0  0  0  0  0  0  0  0
    8.1269  -14.1202   18.5429 C   0  0  0  0  0  0  0  0  0  0  0  0
    8.4535  -12.6732   18.2245 C   0  0  0  0  0  0  0  0  0  0  0  0
    8.0456  -12.3760   16.8745 N   0  0  0  0  0  0  0  0  0  0  0  0
    9.8201  -15.9935   21.8745 C   0  0  0  0  0  0  0  0  0  0  0  0
   10.0572  -14.9777   22.5727 O   0  0  0  0  0  0  0  0  0  0  0  0
   10.9370  -16.7382   21.4035 N   0  0  0  0  0  0  0  0  0  0  0  0
   12.2869  -16.2655   21.6488 C   0  0  0  0  0  0  0  0  0  0  0  0
   13.2700  -17.1854   21.0853 C   0  0  0  0  0  0  0  0  0  0  0  0
   12.8480  -18.3140   20.4084 O   0  0  0  0  0  0  0  0  0  0  0  0
   14.4966  -16.9675   21.2058 O   0  0  0  0  0  0  0  0  0  0  0  0
  2  3  2  0
  2  1  1  0
  4  3  1  0
  5  4  2  0
  6  5  1  0
  7  6  1  0
  7  9  1  0
  7  8  1  1
  9 10  2  0
 11  5  1  0
 11 12  2  0
 12  2  1  0
 13  9  1  0
 13 14  1  0
 14 15  1  6
 15 16  1  0
 17 16  1  0
 18 19  1  0
 18 17  1  0
 20 21  2  0
 20 14  1  0
 22 20  1  0
 23 24  1  0
 23 22  1  0
 24 25  1  0
 26 24  2  0
M  END
$$$$
