YKG.pdb
     RDKit          3D

 26 26  0  0  1  0  0  0  0  0999 V2000
    5.9213  -10.5203   27.6917 O   0  0  0  0  0  0  0  0  0  0  0  0
    6.3531  -11.7695   27.2748 C   0  0  0  0  0  0  0  0  0  0  0  0
    5.7322  -12.4635   26.2574 C   0  0  0  0  0  0  0  0  0  0  0  0
    6.1635  -13.7111   25.8411 C   0  0  0  0  0  0  0  0  0  0  0  0
    7.2571  -14.3094   26.4510 C   0  0  0  0  0  0  0  0  0  0  0  0
    7.7756  -15.6371   26.0623 C   0  0  0  0  0  0  0  0  0  0  0  0
    7.0077  -16.2245   24.8965 C   0  0  2  0  0  0  0  0  0  0  0  0
    6.4385  -17.5199   25.2410 N   0  0  0  0  0  0  0  0  0  0  0  0
    7.8282  -16.3423   23.6847 C   0  0  0  0  0  0  0  0  0  0  0  0
    8.5819  -17.3459   23.5509 O   0  0  0  0  0  0  0  0  0  0  0  0
    7.8725  -13.6120   27.4656 C   0  0  0  0  0  0  0  0  0  0  0  0
    7.4426  -12.3646   27.8831 C   0  0  0  0  0  0  0  0  0  0  0  0
    7.8407  -15.3919   22.6248 N   0  0  0  0  0  0  0  0  0  0  0  0
    8.7881  -15.4606   21.5299 C   0  0  1  0  0  0  0  0  0  0  0  0
    8.4572  -14.4185   20.5080 C   0  0  0  0  0  0  0  0  0  0  0  0
    8.2735  -14.9503   19.1251 C   0  0  0  0  0  0  0  0  0  0  0  0
    8.2123  -13.7610   18.1788 C   0  0  0  0  0  0  0  0  0  0  0  0
    7.9207  -14.2009   16.7564 C   0  0  0  0  0  0  0  0  0  0  0  0
    7.7191  -13.0393   15.9275 N   0  0  0  0  0  0  0  0  0  0  0  0
   10.1884  -15.3809   22.0080 C   0  0  0  0  0  0  0  0  0  0  0  0
   10.4947  -15.0790   23.1872 O   0  0  0  0  0  0  0  0  0  0  0  0
   11.2535  -15.6552   21.1057 N   0  0  0  0  0  0  0  0  0  0  0  0
   11.9173  -16.9454   21.1287 C   0  0  0  0  0  0  0  0  0  0  0  0
   12.8720  -17.0192   22.2302 C   0  0  0  0  0  0  0  0  0  0  0  0
   12.4450  -17.4054   23.4867 O   0  0  0  0  0  0  0  0  0  0  0  0
   14.0785  -16.7366   22.0545 O   0  0  0  0  0  0  0  0  0  0  0  0
  2  3  2  0
  2  1  1  0
  4  3  1  0
  5  4  2  0
  6  5  1  0
  7  6  1  0
  7  9  1  0
  7  8  1  1
  9 10  2  0
 11  5  1  0
 11 12  2  0
 12  2  1  0
 13  9  1  0
 13 14  1  0
 14 15  1  6
 15 16  1  0
 17 16  1  0
 18 19  1  0
 18 17  1  0
 20 21  2  0
 20 14  1  0
 22 20  1  0
 23 24  1  0
 23 22  1  0
 24 25  1  0
 26 24  2  0
M  END
$$$$
