YKG.pdb
     RDKit          3D

 26 26  0  0  1  0  0  0  0  0999 V2000
    6.7439  -11.0016   27.0728 O   0  0  0  0  0  0  0  0  0  0  0  0
    6.8828  -12.3712   26.9128 C   0  0  0  0  0  0  0  0  0  0  0  0
    8.1137  -12.9764   26.7684 C   0  0  0  0  0  0  0  0  0  0  0  0
    8.2523  -14.3442   26.6085 C   0  0  0  0  0  0  0  0  0  0  0  0
    7.1303  -15.1606   26.5891 C   0  0  0  0  0  0  0  0  0  0  0  0
    7.1980  -16.6270   26.4228 C   0  0  0  0  0  0  0  0  0  0  0  0
    6.6520  -17.0694   25.0811 C   0  0  2  0  0  0  0  0  0  0  0  0
    6.4851  -18.5153   25.0322 N   0  0  0  0  0  0  0  0  0  0  0  0
    7.4860  -16.6215   23.9590 C   0  0  0  0  0  0  0  0  0  0  0  0
    8.4943  -17.3076   23.6336 O   0  0  0  0  0  0  0  0  0  0  0  0
    5.9047  -14.5508   26.7337 C   0  0  0  0  0  0  0  0  0  0  0  0
    5.7643  -13.1834   26.8936 C   0  0  0  0  0  0  0  0  0  0  0  0
    7.2413  -15.4475   23.1918 N   0  0  0  0  0  0  0  0  0  0  0  0
    8.0742  -15.0648   22.0689 C   0  0  1  0  0  0  0  0  0  0  0  0
    7.6190  -13.7460   21.5273 C   0  0  0  0  0  0  0  0  0  0  0  0
    8.4592  -13.2163   20.4126 C   0  0  0  0  0  0  0  0  0  0  0  0
    7.8627  -13.7196   19.1070 C   0  0  0  0  0  0  0  0  0  0  0  0
    8.6750  -13.2550   17.9128 C   0  0  0  0  0  0  0  0  0  0  0  0
    8.0208  -13.6702   16.6976 N   0  0  0  0  0  0  0  0  0  0  0  0
    9.5136  -15.0825   22.4199 C   0  0  0  0  0  0  0  0  0  0  0  0
   10.0155  -14.3365   23.2958 O   0  0  0  0  0  0  0  0  0  0  0  0
   10.3884  -15.9792   21.7458 N   0  0  0  0  0  0  0  0  0  0  0  0
   11.8047  -15.9950   22.0615 C   0  0  0  0  0  0  0  0  0  0  0  0
   12.6061  -15.7457   20.8675 C   0  0  0  0  0  0  0  0  0  0  0  0
   13.9774  -15.6108   20.9747 O   0  0  0  0  0  0  0  0  0  0  0  0
   12.0686  -15.6513   19.7412 O   0  0  0  0  0  0  0  0  0  0  0  0
  2  3  2  0
  2  1  1  0
  4  3  1  0
  5  4  2  0
  6  5  1  0
  7  6  1  0
  7  9  1  0
  7  8  1  1
  9 10  2  0
 11  5  1  0
 11 12  2  0
 12  2  1  0
 13  9  1  0
 13 14  1  0
 14 15  1  1
 15 16  1  0
 17 16  1  0
 18 19  1  0
 18 17  1  0
 20 21  2  0
 20 14  1  0
 22 20  1  0
 23 24  1  0
 23 22  1  0
 24 25  1  0
 26 24  2  0
M  END
$$$$
