YKG.pdb
     RDKit          3D

 26 26  0  0  1  0  0  0  0  0999 V2000
   10.4943  -14.3608   31.3155 O   0  0  0  0  0  0  0  0  0  0  0  0
   10.2371  -14.5921   29.9736 C   0  0  0  0  0  0  0  0  0  0  0  0
    9.6880  -13.6308   29.1509 C   0  0  0  0  0  0  0  0  0  0  0  0
    9.4311  -13.8619   27.8106 C   0  0  0  0  0  0  0  0  0  0  0  0
    9.7262  -15.0953   27.2472 C   0  0  0  0  0  0  0  0  0  0  0  0
    9.4809  -15.4167   25.8263 C   0  0  0  0  0  0  0  0  0  0  0  0
    8.0457  -15.8335   25.5809 C   0  0  2  0  0  0  0  0  0  0  0  0
    7.7040  -17.0211   26.3515 N   0  0  0  0  0  0  0  0  0  0  0  0
    7.7605  -16.0583   24.1583 C   0  0  0  0  0  0  0  0  0  0  0  0
    7.3725  -17.1998   23.7847 O   0  0  0  0  0  0  0  0  0  0  0  0
   10.2740  -16.0505   28.0733 C   0  0  0  0  0  0  0  0  0  0  0  0
   10.5315  -15.8212   29.4135 C   0  0  0  0  0  0  0  0  0  0  0  0
    7.8903  -15.0674   23.1444 N   0  0  0  0  0  0  0  0  0  0  0  0
    7.6293  -15.3468   21.7462 C   0  0  1  0  0  0  0  0  0  0  0  0
    7.4120  -14.0644   21.0058 C   0  0  0  0  0  0  0  0  0  0  0  0
    7.1548  -14.2342   19.5450 C   0  0  0  0  0  0  0  0  0  0  0  0
    7.8850  -13.1166   18.8159 C   0  0  0  0  0  0  0  0  0  0  0  0
    7.7308  -13.2447   17.3121 C   0  0  0  0  0  0  0  0  0  0  0  0
    8.3472  -12.1117   16.6691 N   0  0  0  0  0  0  0  0  0  0  0  0
    8.6890  -16.1910   21.1465 C   0  0  0  0  0  0  0  0  0  0  0  0
    8.5473  -16.7998   20.0580 O   0  0  0  0  0  0  0  0  0  0  0  0
    9.9351  -16.3337   21.8178 N   0  0  0  0  0  0  0  0  0  0  0  0
   11.0216  -17.0667   21.1947 C   0  0  0  0  0  0  0  0  0  0  0  0
   12.2258  -17.0099   22.0174 C   0  0  0  0  0  0  0  0  0  0  0  0
   13.4582  -17.2811   21.4536 O   0  0  0  0  0  0  0  0  0  0  0  0
   12.1604  -16.7177   23.2326 O   0  0  0  0  0  0  0  0  0  0  0  0
  2  3  2  0
  2  1  1  0
  4  3  1  0
  5  4  2  0
  6  5  1  0
  7  6  1  0
  7  9  1  0
  7  8  1  1
  9 10  2  0
 11  5  1  0
 11 12  2  0
 12  2  1  0
 13  9  1  0
 13 14  1  0
 14 15  1  6
 15 16  1  0
 17 16  1  0
 18 19  1  0
 18 17  1  0
 20 21  2  0
 20 14  1  0
 22 20  1  0
 23 24  1  0
 23 22  1  0
 24 25  1  0
 26 24  2  0
M  END
$$$$
