GEW.pdb
     RDKit          3D

 28 29  0  0  1  0  0  0  0  0999 V2000
    6.4121  -15.4406   19.9975 N   0  0  0  0  0  0  0  0  0  0  0  0
    7.7248  -14.9844   20.4597 C   0  0  0  0  0  0  0  0  0  0  0  0
    8.3314  -15.9491   21.3844 C   0  0  0  0  0  0  0  0  0  0  0  0
    7.6109  -16.7481   22.0391 O   0  0  0  0  0  0  0  0  0  0  0  0
    9.7540  -15.9803   21.5421 N   0  0  0  0  0  0  0  0  0  0  0  0
   10.3784  -16.9496   22.3596 C   0  0  1  0  0  0  0  0  0  0  0  0
   11.7936  -17.3041   22.1272 C   0  0  0  0  0  0  0  0  0  0  0  0
   12.1962  -17.8452   20.8163 C   0  0  0  0  0  0  0  0  0  0  0  0
   13.6238  -18.0990   20.6769 C   0  0  0  0  0  0  0  0  0  0  0  0
   14.4526  -17.4760   20.0065 O   0  0  0  0  0  0  0  0  0  0  0  0
   10.2892  -16.4602   23.7880 C   0  0  0  0  0  0  0  0  0  0  0  0
   10.8227  -15.3452   24.0873 O   0  0  0  0  0  0  0  0  0  0  0  0
   14.1401  -19.2026   21.4000 O   0  0  0  0  0  0  0  0  0  0  0  0
    9.6403  -17.1819   24.8101 N   0  0  0  0  0  0  0  0  0  0  0  0
    9.6723  -16.6775   26.1675 C   0  0  1  0  0  0  0  0  0  0  0  0
    8.2764  -16.6443   26.7667 C   0  0  0  0  0  0  0  0  0  0  0  0
    7.4780  -15.6308   26.0358 C   0  0  0  0  0  0  0  0  0  0  0  0
    6.6047  -15.9039   25.0041 C   0  0  0  0  0  0  0  0  0  0  0  0
    6.0871  -14.7327   24.6058 N   0  0  0  0  0  0  0  0  0  0  0  0
    6.5921  -13.7201   25.3389 C   0  0  0  0  0  0  0  0  0  0  0  0
    6.3668  -12.3505   25.3015 C   0  0  0  0  0  0  0  0  0  0  0  0
    7.0496  -11.5630   26.1993 C   0  0  0  0  0  0  0  0  0  0  0  0
    7.9302  -12.1066   27.1094 C   0  0  0  0  0  0  0  0  0  0  0  0
    8.1495  -13.4673   27.1409 C   0  0  0  0  0  0  0  0  0  0  0  0
    7.4616  -14.2804   26.2330 C   0  0  0  0  0  0  0  0  0  0  0  0
   10.5959  -17.4978   26.9801 C   0  0  0  0  0  0  0  0  0  0  0  0
   11.1440  -18.5013   26.4743 O   0  0  0  0  0  0  0  0  0  0  0  0
   10.8713  -17.1800   28.2954 O   0  0  0  0  0  0  0  0  0  0  0  0
  1  2  1  0
  3  4  2  0
  3  2  1  0
  5  3  1  0
  6  5  1  0
  6  7  1  6
  8  7  1  0
  9 13  1  0
  9  8  1  0
 10  9  2  0
 11  6  1  0
 11 12  2  0
 14 11  1  0
 15 14  1  0
 15 16  1  1
 17 16  1  0
 17 25  1  0
 18 19  1  0
 18 17  2  0
 19 20  1  0
 20 25  2  0
 20 21  1  0
 21 22  2  0
 22 23  1  0
 24 23  2  0
 25 24  1  0
 26 15  1  0
 26 28  1  0
 27 26  2  0
M  END
$$$$
