GEW.pdb
     RDKit          3D

 28 29  0  0  1  0  0  0  0  0999 V2000
    5.5909  -15.5563   20.3663 N   0  0  0  0  0  0  0  0  0  0  0  0
    6.6267  -14.8639   21.1362 C   0  0  0  0  0  0  0  0  0  0  0  0
    7.5502  -15.8145   21.7665 C   0  0  0  0  0  0  0  0  0  0  0  0
    7.1105  -16.7716   22.4569 O   0  0  0  0  0  0  0  0  0  0  0  0
    8.9618  -15.6505   21.5939 N   0  0  0  0  0  0  0  0  0  0  0  0
    9.8824  -16.5033   22.2445 C   0  0  1  0  0  0  0  0  0  0  0  0
   11.2823  -16.5651   21.7768 C   0  0  0  0  0  0  0  0  0  0  0  0
   12.1826  -17.5945   22.3277 C   0  0  0  0  0  0  0  0  0  0  0  0
   13.5086  -17.6263   21.7256 C   0  0  0  0  0  0  0  0  0  0  0  0
   14.2349  -16.6766   21.4174 O   0  0  0  0  0  0  0  0  0  0  0  0
    9.9350  -16.0858   23.6973 C   0  0  0  0  0  0  0  0  0  0  0  0
   10.2830  -14.8957   23.9799 O   0  0  0  0  0  0  0  0  0  0  0  0
   14.0451  -18.9089   21.4529 O   0  0  0  0  0  0  0  0  0  0  0  0
    9.6153  -16.9546   24.7601 N   0  0  0  0  0  0  0  0  0  0  0  0
    9.8251  -16.5166   26.1247 C   0  0  1  0  0  0  0  0  0  0  0  0
    8.5377  -16.6050   26.9268 C   0  0  0  0  0  0  0  0  0  0  0  0
    7.5438  -15.6883   26.3179 C   0  0  0  0  0  0  0  0  0  0  0  0
    6.4642  -16.0834   25.5563 C   0  0  0  0  0  0  0  0  0  0  0  0
    5.8146  -14.9701   25.1866 N   0  0  0  0  0  0  0  0  0  0  0  0
    6.4325  -13.8777   25.6792 C   0  0  0  0  0  0  0  0  0  0  0  0
    6.1430  -12.5241   25.5696 C   0  0  0  0  0  0  0  0  0  0  0  0
    6.9826  -11.6351   26.1997 C   0  0  0  0  0  0  0  0  0  0  0  0
    8.0774  -12.0645   26.9182 C   0  0  0  0  0  0  0  0  0  0  0  0
    8.3593  -13.4099   27.0227 C   0  0  0  0  0  0  0  0  0  0  0  0
    7.5134  -14.3256   26.3866 C   0  0  0  0  0  0  0  0  0  0  0  0
   10.9079  -17.3132   26.7407 C   0  0  0  0  0  0  0  0  0  0  0  0
   11.4411  -18.2412   26.0942 O   0  0  0  0  0  0  0  0  0  0  0  0
   11.3494  -17.0551   28.0234 O   0  0  0  0  0  0  0  0  0  0  0  0
  1  2  1  0
  3  4  2  0
  3  2  1  0
  5  3  1  0
  6  5  1  0
  6  7  1  6
  8  7  1  0
  9 13  1  0
  9  8  1  0
 10  9  2  0
 11  6  1  0
 11 12  2  0
 14 11  1  0
 15 14  1  0
 15 16  1  1
 17 16  1  0
 17 25  1  0
 18 19  1  0
 18 17  2  0
 19 20  1  0
 20 25  2  0
 20 21  1  0
 21 22  2  0
 22 23  1  0
 24 23  2  0
 25 24  1  0
 26 15  1  0
 26 28  1  0
 27 26  2  0
M  END
$$$$
