GEW.pdb
     RDKit          3D

 28 29  0  0  1  0  0  0  0  0999 V2000
    6.1536  -15.4807   19.9113 N   0  0  0  0  0  0  0  0  0  0  0  0
    7.0049  -14.8152   20.8999 C   0  0  0  0  0  0  0  0  0  0  0  0
    7.8293  -15.7825   21.6337 C   0  0  0  0  0  0  0  0  0  0  0  0
    7.2934  -16.7332   22.2623 O   0  0  0  0  0  0  0  0  0  0  0  0
    9.2540  -15.6423   21.6338 N   0  0  0  0  0  0  0  0  0  0  0  0
   10.0755  -16.5192   22.3782 C   0  0  1  0  0  0  0  0  0  0  0  0
   11.5095  -16.6415   22.0450 C   0  0  0  0  0  0  0  0  0  0  0  0
   12.3152  -17.6898   22.6972 C   0  0  0  0  0  0  0  0  0  0  0  0
   13.7029  -17.7496   22.2588 C   0  0  0  0  0  0  0  0  0  0  0  0
   14.6675  -17.0989   22.6720 O   0  0  0  0  0  0  0  0  0  0  0  0
   10.0084  -16.0814   23.8245 C   0  0  0  0  0  0  0  0  0  0  0  0
   10.3542  -14.8941   24.1211 O   0  0  0  0  0  0  0  0  0  0  0  0
   13.9963  -18.6706   21.2229 O   0  0  0  0  0  0  0  0  0  0  0  0
    9.5788  -16.9282   24.8661 N   0  0  0  0  0  0  0  0  0  0  0  0
    9.7052  -16.4866   26.2398 C   0  0  1  0  0  0  0  0  0  0  0  0
    8.3677  -16.5573   26.9574 C   0  0  0  0  0  0  0  0  0  0  0  0
    7.4480  -15.5783   26.3292 C   0  0  0  0  0  0  0  0  0  0  0  0
    6.4784  -15.8869   25.3984 C   0  0  0  0  0  0  0  0  0  0  0  0
    5.8674  -14.7389   25.0711 N   0  0  0  0  0  0  0  0  0  0  0  0
    6.4047  -13.7074   25.7530 C   0  0  0  0  0  0  0  0  0  0  0  0
    6.1150  -12.3494   25.7538 C   0  0  0  0  0  0  0  0  0  0  0  0
    6.8573  -11.5353   26.5776 C   0  0  0  0  0  0  0  0  0  0  0  0
    7.8574  -12.0418   27.3791 C   0  0  0  0  0  0  0  0  0  0  0  0
    8.1400  -13.3911   27.3732 C   0  0  0  0  0  0  0  0  0  0  0  0
    7.3927  -14.2310   26.5397 C   0  0  0  0  0  0  0  0  0  0  0  0
   10.7369  -17.2924   26.9272 C   0  0  0  0  0  0  0  0  0  0  0  0
   11.0216  -17.0497   28.1202 O   0  0  0  0  0  0  0  0  0  0  0  0
   11.3995  -18.3158   26.2788 O   0  0  0  0  0  0  0  0  0  0  0  0
  1  2  1  0
  3  4  2  0
  3  2  1  0
  5  3  1  0
  6  5  1  0
  6  7  1  6
  8  7  1  0
  9 13  1  0
  9  8  1  0
 10  9  2  0
 11  6  1  0
 11 12  2  0
 14 11  1  0
 15 14  1  0
 15 16  1  1
 17 16  1  0
 17 25  1  0
 18 19  1  0
 18 17  2  0
 19 20  1  0
 20 25  2  0
 20 21  1  0
 21 22  2  0
 22 23  1  0
 24 23  2  0
 25 24  1  0
 26 15  1  0
 26 28  1  0
 27 26  2  0
M  END
$$$$
