GEW.pdb
     RDKit          3D

 28 29  0  0  1  0  0  0  0  0999 V2000
    7.6507  -12.7412   18.1873 N   0  0  0  0  0  0  0  0  0  0  0  0
    8.8628  -13.3162   18.7749 C   0  0  0  0  0  0  0  0  0  0  0  0
    8.5387  -14.3350   19.7802 C   0  0  0  0  0  0  0  0  0  0  0  0
    7.4051  -14.3549   20.3286 O   0  0  0  0  0  0  0  0  0  0  0  0
    9.5206  -15.3130   20.1392 N   0  0  0  0  0  0  0  0  0  0  0  0
    9.2000  -16.3922   20.9937 C   0  0  1  0  0  0  0  0  0  0  0  0
    9.4838  -17.7771   20.5648 C   0  0  0  0  0  0  0  0  0  0  0  0
   10.5074  -18.0173   19.5313 C   0  0  0  0  0  0  0  0  0  0  0  0
   11.3796  -19.1540   19.7935 C   0  0  0  0  0  0  0  0  0  0  0  0
   12.5204  -19.1537   20.2656 O   0  0  0  0  0  0  0  0  0  0  0  0
    9.9541  -16.1824   22.2879 C   0  0  0  0  0  0  0  0  0  0  0  0
   11.1544  -15.7653   22.2361 O   0  0  0  0  0  0  0  0  0  0  0  0
   10.8624  -20.4322   19.4676 O   0  0  0  0  0  0  0  0  0  0  0  0
    9.3898  -16.4268   23.5561 N   0  0  0  0  0  0  0  0  0  0  0  0
   10.1842  -16.1947   24.7449 C   0  0  1  0  0  0  0  0  0  0  0  0
    9.9235  -14.8082   25.3092 C   0  0  0  0  0  0  0  0  0  0  0  0
    8.4765  -14.6912   25.6117 C   0  0  0  0  0  0  0  0  0  0  0  0
    7.5712  -15.7304   25.5659 C   0  0  0  0  0  0  0  0  0  0  0  0
    6.3738  -15.2243   25.8951 N   0  0  0  0  0  0  0  0  0  0  0  0
    6.4736  -13.9041   26.1500 C   0  0  0  0  0  0  0  0  0  0  0  0
    5.5251  -12.9608   26.5224 C   0  0  0  0  0  0  0  0  0  0  0  0
    5.9481  -11.6655   26.7113 C   0  0  0  0  0  0  0  0  0  0  0  0
    7.2674  -11.3066   26.5390 C   0  0  0  0  0  0  0  0  0  0  0  0
    8.2039  -12.2482   26.1689 C   0  0  0  0  0  0  0  0  0  0  0  0
    7.7875  -13.5699   25.9732 C   0  0  0  0  0  0  0  0  0  0  0  0
    9.9063  -17.2510   25.7415 C   0  0  0  0  0  0  0  0  0  0  0  0
    9.0040  -18.0887   25.5235 O   0  0  0  0  0  0  0  0  0  0  0  0
   10.6252  -17.3365   26.9174 O   0  0  0  0  0  0  0  0  0  0  0  0
  1  2  1  0
  3  4  2  0
  3  2  1  0
  5  3  1  0
  6  5  1  0
  6  7  1  6
  8  7  1  0
  9 13  1  0
  9  8  1  0
 10  9  2  0
 11  6  1  0
 11 12  2  0
 14 11  1  0
 15 14  1  0
 15 16  1  1
 17 16  1  0
 17 25  1  0
 18 19  1  0
 18 17  2  0
 19 20  1  0
 20 25  2  0
 20 21  1  0
 21 22  2  0
 22 23  1  0
 24 23  2  0
 25 24  1  0
 26 15  1  0
 26 28  1  0
 27 26  2  0
M  END
$$$$
