GEW.pdb
     RDKit          3D

 28 29  0  0  1  0  0  0  0  0999 V2000
    7.2724  -12.9292   18.2167 N   0  0  0  0  0  0  0  0  0  0  0  0
    8.4102  -12.5987   19.0777 C   0  0  0  0  0  0  0  0  0  0  0  0
    9.0062  -13.8052   19.6632 C   0  0  0  0  0  0  0  0  0  0  0  0
    8.3131  -14.8426   19.8350 O   0  0  0  0  0  0  0  0  0  0  0  0
   10.3869  -13.8006   20.0416 N   0  0  0  0  0  0  0  0  0  0  0  0
   10.9833  -14.9298   20.6474 C   0  0  1  0  0  0  0  0  0  0  0  0
   12.3393  -15.3509   20.2395 C   0  0  0  0  0  0  0  0  0  0  0  0
   12.7641  -15.1605   18.8406 C   0  0  0  0  0  0  0  0  0  0  0  0
   14.1529  -15.5102   18.5751 C   0  0  0  0  0  0  0  0  0  0  0  0
   14.5952  -16.3651   17.8018 O   0  0  0  0  0  0  0  0  0  0  0  0
   11.0479  -14.6626   22.1347 C   0  0  0  0  0  0  0  0  0  0  0  0
   11.3248  -13.4872   22.5338 O   0  0  0  0  0  0  0  0  0  0  0  0
   15.1334  -14.7811   19.2924 O   0  0  0  0  0  0  0  0  0  0  0  0
   10.8147  -15.6565   23.1064 N   0  0  0  0  0  0  0  0  0  0  0  0
    9.7965  -15.4414   24.1138 C   0  0  1  0  0  0  0  0  0  0  0  0
    8.4509  -15.1493   23.4713 C   0  0  0  0  0  0  0  0  0  0  0  0
    7.4537  -14.9411   24.5488 C   0  0  0  0  0  0  0  0  0  0  0  0
    6.5798  -15.9005   25.0153 C   0  0  0  0  0  0  0  0  0  0  0  0
    5.8423  -15.3270   25.9772 N   0  0  0  0  0  0  0  0  0  0  0  0
    6.2067  -14.0400   26.1470 C   0  0  0  0  0  0  0  0  0  0  0  0
    5.7426  -13.0542   27.0077 C   0  0  0  0  0  0  0  0  0  0  0  0
    6.3309  -11.8126   26.9381 C   0  0  0  0  0  0  0  0  0  0  0  0
    7.3477  -11.5467   26.0467 C   0  0  0  0  0  0  0  0  0  0  0  0
    7.8035  -12.5300   25.1947 C   0  0  0  0  0  0  0  0  0  0  0  0
    7.2139  -13.7979   25.2547 C   0  0  0  0  0  0  0  0  0  0  0  0
    9.7299  -16.6151   25.0107 C   0  0  0  0  0  0  0  0  0  0  0  0
    9.5621  -17.7564   24.5286 O   0  0  0  0  0  0  0  0  0  0  0  0
    9.8502  -16.4810   26.3798 O   0  0  0  0  0  0  0  0  0  0  0  0
  1  2  1  0
  3  4  2  0
  3  2  1  0
  5  3  1  0
  6  5  1  0
  6  7  1  6
  8  7  1  0
  9 13  1  0
  9  8  1  0
 10  9  2  0
 11  6  1  0
 11 12  2  0
 14 11  1  0
 15 14  1  0
 15 16  1  6
 17 16  1  0
 17 25  1  0
 18 19  1  0
 18 17  2  0
 19 20  1  0
 20 25  2  0
 20 21  1  0
 21 22  2  0
 22 23  1  0
 24 23  2  0
 25 24  1  0
 26 15  1  0
 26 28  1  0
 27 26  2  0
M  END
$$$$
