GEW.pdb
     RDKit          3D

 28 29  0  0  1  0  0  0  0  0999 V2000
    7.5868  -13.0849   18.1070 N   0  0  0  0  0  0  0  0  0  0  0  0
    8.8353  -13.7198   18.5351 C   0  0  0  0  0  0  0  0  0  0  0  0
    8.5844  -14.7967   19.5000 C   0  0  0  0  0  0  0  0  0  0  0  0
    7.4077  -15.1663   19.7547 O   0  0  0  0  0  0  0  0  0  0  0  0
    9.6876  -15.4308   20.1559 N   0  0  0  0  0  0  0  0  0  0  0  0
    9.5835  -16.7500   20.6528 C   0  0  1  0  0  0  0  0  0  0  0  0
   10.0971  -17.8790   19.8504 C   0  0  0  0  0  0  0  0  0  0  0  0
   11.4543  -17.8006   19.2799 C   0  0  0  0  0  0  0  0  0  0  0  0
   11.5069  -17.8769   17.8262 C   0  0  0  0  0  0  0  0  0  0  0  0
   10.9554  -18.6910   17.0795 O   0  0  0  0  0  0  0  0  0  0  0  0
   10.3196  -16.7941   21.9733 C   0  0  0  0  0  0  0  0  0  0  0  0
   10.7471  -17.9139   22.3985 O   0  0  0  0  0  0  0  0  0  0  0  0
   12.2909  -16.8942   17.1726 O   0  0  0  0  0  0  0  0  0  0  0  0
   10.5576  -15.6497   22.7608 N   0  0  0  0  0  0  0  0  0  0  0  0
    9.6927  -15.3697   23.8885 C   0  0  1  0  0  0  0  0  0  0  0  0
    8.3044  -14.9671   23.4203 C   0  0  0  0  0  0  0  0  0  0  0  0
    7.5055  -14.5777   24.6073 C   0  0  0  0  0  0  0  0  0  0  0  0
    6.7578  -15.4434   25.3775 C   0  0  0  0  0  0  0  0  0  0  0  0
    6.1826  -14.7135   26.3443 N   0  0  0  0  0  0  0  0  0  0  0  0
    6.5302  -13.4162   26.2262 C   0  0  0  0  0  0  0  0  0  0  0  0
    6.1932  -12.2974   26.9765 C   0  0  0  0  0  0  0  0  0  0  0  0
    6.7205  -11.0858   26.5941 C   0  0  0  0  0  0  0  0  0  0  0  0
    7.5563  -10.9762   25.5039 C   0  0  0  0  0  0  0  0  0  0  0  0
    7.8865  -12.0910   24.7631 C   0  0  0  0  0  0  0  0  0  0  0  0
    7.3571  -13.3303   25.1408 C   0  0  0  0  0  0  0  0  0  0  0  0
    9.6475  -16.5460   24.7833 C   0  0  0  0  0  0  0  0  0  0  0  0
    9.4744  -17.6866   24.3013 O   0  0  0  0  0  0  0  0  0  0  0  0
    9.7934  -16.4150   26.1502 O   0  0  0  0  0  0  0  0  0  0  0  0
  1  2  1  0
  3  4  2  0
  3  2  1  0
  5  3  1  0
  6  5  1  0
  6  7  1  6
  8  7  1  0
  9 13  1  0
  9  8  1  0
 10  9  2  0
 11  6  1  0
 11 12  2  0
 14 11  1  0
 15 14  1  0
 15 16  1  6
 17 16  1  0
 17 25  1  0
 18 19  1  0
 18 17  2  0
 19 20  1  0
 20 25  2  0
 20 21  1  0
 21 22  2  0
 22 23  1  0
 24 23  2  0
 25 24  1  0
 26 15  1  0
 26 28  1  0
 27 26  2  0
M  END
$$$$
