GEW.pdb
     RDKit          3D

 28 29  0  0  1  0  0  0  0  0999 V2000
    7.5911  -13.0026   17.3118 N   0  0  0  0  0  0  0  0  0  0  0  0
    8.8197  -13.4797   17.9503 C   0  0  0  0  0  0  0  0  0  0  0  0
    8.5369  -14.5263   18.9395 C   0  0  0  0  0  0  0  0  0  0  0  0
    7.5626  -15.3087   18.7825 O   0  0  0  0  0  0  0  0  0  0  0  0
    9.3767  -14.6571   20.0915 N   0  0  0  0  0  0  0  0  0  0  0  0
    9.6758  -15.9255   20.6387 C   0  0  1  0  0  0  0  0  0  0  0  0
   10.4294  -16.9114   19.8371 C   0  0  0  0  0  0  0  0  0  0  0  0
   11.7358  -16.5322   19.2687 C   0  0  0  0  0  0  0  0  0  0  0  0
   12.3264  -17.5296   18.3866 C   0  0  0  0  0  0  0  0  0  0  0  0
   12.7241  -17.3893   17.2262 O   0  0  0  0  0  0  0  0  0  0  0  0
   10.4798  -15.6950   21.8990 C   0  0  0  0  0  0  0  0  0  0  0  0
   11.3365  -14.7553   21.9150 O   0  0  0  0  0  0  0  0  0  0  0  0
   12.4676  -18.8352   18.9186 O   0  0  0  0  0  0  0  0  0  0  0  0
   10.3259  -16.4738   23.0636 N   0  0  0  0  0  0  0  0  0  0  0  0
    9.5117  -15.9728   24.1518 C   0  0  1  0  0  0  0  0  0  0  0  0
    8.1081  -15.6437   23.6720 C   0  0  0  0  0  0  0  0  0  0  0  0
    7.3195  -15.1595   24.8308 C   0  0  0  0  0  0  0  0  0  0  0  0
    6.4934  -15.9426   25.6093 C   0  0  0  0  0  0  0  0  0  0  0  0
    5.9580  -15.1427   26.5431 N   0  0  0  0  0  0  0  0  0  0  0  0
    6.4062  -13.8797   26.3957 C   0  0  0  0  0  0  0  0  0  0  0  0
    6.1423  -12.7167   27.1069 C   0  0  0  0  0  0  0  0  0  0  0  0
    6.7680  -11.5606   26.7016 C   0  0  0  0  0  0  0  0  0  0  0  0
    7.6298  -11.5474   25.6263 C   0  0  0  0  0  0  0  0  0  0  0  0
    7.8872  -12.7056   24.9243 C   0  0  0  0  0  0  0  0  0  0  0  0
    7.2574  -13.8892   25.3257 C   0  0  0  0  0  0  0  0  0  0  0  0
    9.4949  -16.9587   25.2537 C   0  0  0  0  0  0  0  0  0  0  0  0
    9.3713  -18.1759   24.9962 O   0  0  0  0  0  0  0  0  0  0  0  0
    9.6141  -16.5650   26.5720 O   0  0  0  0  0  0  0  0  0  0  0  0
  1  2  1  0
  3  4  2  0
  3  2  1  0
  5  3  1  0
  6  5  1  0
  6  7  1  6
  8  7  1  0
  9 13  1  0
  9  8  1  0
 10  9  2  0
 11  6  1  0
 11 12  2  0
 14 11  1  0
 15 14  1  0
 15 16  1  6
 17 16  1  0
 17 25  1  0
 18 19  1  0
 18 17  2  0
 19 20  1  0
 20 25  2  0
 20 21  1  0
 21 22  2  0
 22 23  1  0
 24 23  2  0
 25 24  1  0
 26 15  1  0
 26 28  1  0
 27 26  2  0
M  END
$$$$
