GEW.pdb
     RDKit          3D

 28 29  0  0  1  0  0  0  0  0999 V2000
    7.0275  -13.3503   18.0855 N   0  0  0  0  0  0  0  0  0  0  0  0
    8.4598  -13.4143   18.3847 C   0  0  0  0  0  0  0  0  0  0  0  0
    8.7662  -14.5198   19.2999 C   0  0  0  0  0  0  0  0  0  0  0  0
    7.8419  -15.1253   19.9041 O   0  0  0  0  0  0  0  0  0  0  0  0
   10.1277  -14.9113   19.5062 N   0  0  0  0  0  0  0  0  0  0  0  0
   10.4541  -16.0310   20.3047 C   0  0  1  0  0  0  0  0  0  0  0  0
   11.7724  -16.6805   20.1540 C   0  0  0  0  0  0  0  0  0  0  0  0
   12.1366  -17.2827   18.8586 C   0  0  0  0  0  0  0  0  0  0  0  0
   13.4897  -17.8184   18.7973 C   0  0  0  0  0  0  0  0  0  0  0  0
   14.3594  -17.8097   19.6736 O   0  0  0  0  0  0  0  0  0  0  0  0
   10.3531  -15.5989   21.7506 C   0  0  0  0  0  0  0  0  0  0  0  0
   10.7725  -14.4427   22.0745 O   0  0  0  0  0  0  0  0  0  0  0  0
   13.8689  -18.4314   17.5775 O   0  0  0  0  0  0  0  0  0  0  0  0
    9.8139  -16.4178   22.7631 N   0  0  0  0  0  0  0  0  0  0  0  0
    9.2000  -15.8041   23.9227 C   0  0  1  0  0  0  0  0  0  0  0  0
    7.7255  -15.5329   23.6761 C   0  0  0  0  0  0  0  0  0  0  0  0
    7.1252  -15.0322   24.9362 C   0  0  0  0  0  0  0  0  0  0  0  0
    6.3659  -15.7862   25.8061 C   0  0  0  0  0  0  0  0  0  0  0  0
    6.0044  -14.9792   26.8142 N   0  0  0  0  0  0  0  0  0  0  0  0
    6.5000  -13.7394   26.6270 C   0  0  0  0  0  0  0  0  0  0  0  0
    6.3983  -12.5797   27.3839 C   0  0  0  0  0  0  0  0  0  0  0  0
    7.0296  -11.4505   26.9159 C   0  0  0  0  0  0  0  0  0  0  0  0
    7.7415  -11.4605   25.7360 C   0  0  0  0  0  0  0  0  0  0  0  0
    7.8382  -12.6153   24.9892 C   0  0  0  0  0  0  0  0  0  0  0  0
    7.2008  -13.7715   25.4535 C   0  0  0  0  0  0  0  0  0  0  0  0
    9.4062  -16.6648   25.1072 C   0  0  0  0  0  0  0  0  0  0  0  0
    9.4030  -17.9085   24.9793 O   0  0  0  0  0  0  0  0  0  0  0  0
    9.6047  -16.1244   26.3624 O   0  0  0  0  0  0  0  0  0  0  0  0
  1  2  1  0
  3  4  2  0
  3  2  1  0
  5  3  1  0
  6  5  1  0
  6  7  1  6
  8  7  1  0
  9 13  1  0
  9  8  1  0
 10  9  2  0
 11  6  1  0
 11 12  2  0
 14 11  1  0
 15 14  1  0
 15 16  1  6
 17 16  1  0
 17 25  1  0
 18 19  1  0
 18 17  2  0
 19 20  1  0
 20 25  2  0
 20 21  1  0
 21 22  2  0
 22 23  1  0
 24 23  2  0
 25 24  1  0
 26 15  1  0
 26 28  1  0
 27 26  2  0
M  END
$$$$
