GEW.pdb
     RDKit          3D

 28 29  0  0  1  0  0  0  0  0999 V2000
    7.4275  -13.0748   18.8002 N   0  0  0  0  0  0  0  0  0  0  0  0
    8.7666  -13.5192   19.1930 C   0  0  0  0  0  0  0  0  0  0  0  0
    8.7058  -14.7139   20.0432 C   0  0  0  0  0  0  0  0  0  0  0  0
    7.6277  -15.0470   20.6026 O   0  0  0  0  0  0  0  0  0  0  0  0
    9.8828  -15.5054   20.2371 N   0  0  0  0  0  0  0  0  0  0  0  0
    9.8780  -16.6242   21.1009 C   0  0  1  0  0  0  0  0  0  0  0  0
   10.7248  -17.7943   20.7907 C   0  0  0  0  0  0  0  0  0  0  0  0
   10.5882  -18.4573   19.4810 C   0  0  0  0  0  0  0  0  0  0  0  0
    9.6236  -19.5484   19.4506 C   0  0  0  0  0  0  0  0  0  0  0  0
    9.5470  -20.5266   20.2000 O   0  0  0  0  0  0  0  0  0  0  0  0
   10.3030  -16.1396   22.4692 C   0  0  0  0  0  0  0  0  0  0  0  0
   11.1666  -15.2093   22.5479 O   0  0  0  0  0  0  0  0  0  0  0  0
    8.6403  -19.4906   18.4322 O   0  0  0  0  0  0  0  0  0  0  0  0
    9.7865  -16.6700   23.6685 N   0  0  0  0  0  0  0  0  0  0  0  0
   10.2435  -16.1388   24.9362 C   0  0  1  0  0  0  0  0  0  0  0  0
    9.7976  -14.6970   25.1124 C   0  0  0  0  0  0  0  0  0  0  0  0
    8.3929  -14.6969   25.5875 C   0  0  0  0  0  0  0  0  0  0  0  0
    7.5284  -15.7681   25.5038 C   0  0  0  0  0  0  0  0  0  0  0  0
    6.3598  -15.3730   26.0297 N   0  0  0  0  0  0  0  0  0  0  0  0
    6.4389  -14.0934   26.4470 C   0  0  0  0  0  0  0  0  0  0  0  0
    5.5058  -13.2576   27.0462 C   0  0  0  0  0  0  0  0  0  0  0  0
    5.8988  -11.9770   27.3591 C   0  0  0  0  0  0  0  0  0  0  0  0
    7.1742  -11.5294   27.0904 C   0  0  0  0  0  0  0  0  0  0  0  0
    8.0956  -12.3643   26.4949 C   0  0  0  0  0  0  0  0  0  0  0  0
    7.7093  -13.6699   26.1711 C   0  0  0  0  0  0  0  0  0  0  0  0
    9.7599  -16.9984   26.0378 C   0  0  0  0  0  0  0  0  0  0  0  0
    8.9652  -17.9324   25.7938 O   0  0  0  0  0  0  0  0  0  0  0  0
   10.1682  -16.7940   27.3410 O   0  0  0  0  0  0  0  0  0  0  0  0
  1  2  1  0
  3  4  2  0
  3  2  1  0
  5  3  1  0
  6  5  1  0
  6  7  1  6
  8  7  1  0
  9 13  1  0
  9  8  1  0
 10  9  2  0
 11  6  1  0
 11 12  2  0
 14 11  1  0
 15 14  1  0
 15 16  1  1
 17 16  1  0
 17 25  1  0
 18 19  1  0
 18 17  2  0
 19 20  1  0
 20 25  2  0
 20 21  1  0
 21 22  2  0
 22 23  1  0
 24 23  2  0
 25 24  1  0
 26 15  1  0
 26 28  1  0
 27 26  2  0
M  END
$$$$
