FCN.pdb
     RDKit          3D

 26 26  0  0  1  0  0  0  0  0999 V2000
   27.5760  -20.8985  -16.4389 N   0  0  0  0  0  0  0  0  0  0  0  0
   27.1340  -20.0736  -15.3624 C   0  0  1  0  0  0  0  0  0  0  0  0
   26.3773  -18.8465  -15.7481 C   0  0  0  0  0  0  0  0  0  0  0  0
   27.2515  -18.0043  -16.6031 C   0  0  0  0  0  0  0  0  0  0  0  0
   28.2233  -17.1878  -16.0600 C   0  0  0  0  0  0  0  0  0  0  0  0
   29.0384  -16.3929  -16.8307 C   0  0  0  0  0  0  0  0  0  0  0  0
   28.8855  -16.4051  -18.1962 C   0  0  0  0  0  0  0  0  0  0  0  0
   27.9186  -17.2125  -18.7850 C   0  0  0  0  0  0  0  0  0  0  0  0
   27.1090  -18.0077  -17.9733 C   0  0  0  0  0  0  0  0  0  0  0  0
   26.4653  -20.8824  -14.2986 C   0  0  0  0  0  0  0  0  0  0  0  0
   25.8224  -21.8946  -14.6606 O   0  0  0  0  0  0  0  0  0  0  0  0
   26.5283  -20.5589  -12.9372 N   0  0  0  0  0  0  0  0  0  0  0  0
   25.5997  -20.9755  -11.9403 C   0  0  1  0  0  0  0  0  0  0  0  0
   25.9819  -20.5169  -10.5508 C   0  0  0  0  0  0  0  0  0  0  0  0
   24.5801  -20.7999   -9.4075 S   0  0  0  0  0  0  0  0  0  0  0  0
   24.2414  -20.4078  -12.2299 C   0  0  0  0  0  0  0  0  0  0  0  0
   24.1076  -19.1817  -12.4470 O   0  0  0  0  0  0  0  0  0  0  0  0
   19.6672  -20.5705  -15.3439 N   0  0  0  0  0  0  0  0  0  0  0  0
   19.9234  -21.3616  -14.1970 C   0  0  0  0  0  0  0  0  0  0  0  0
   18.9430  -21.8510  -13.5703 O   0  0  0  0  0  0  0  0  0  0  0  0
   21.2825  -21.6111  -13.7468 C   0  0  0  0  0  0  0  0  0  0  0  0
   21.7466  -20.7472  -12.5980 C   0  0  2  0  0  0  0  0  0  0  0  0
   23.0850  -21.2196  -12.2662 N   0  0  0  0  0  0  0  0  0  0  0  0
   20.8077  -21.0499  -11.4544 C   0  0  0  0  0  0  0  0  0  0  0  0
   19.7727  -20.3511  -11.3257 O   0  0  0  0  0  0  0  0  0  0  0  0
   21.0552  -22.0591  -10.5596 O   0  0  0  0  0  0  0  0  0  0  0  0
  2  1  1  6
  3  2  1  0
  4  9  2  0
  4  3  1  0
  5  4  1  0
  6  7  1  0
  6  5  2  0
  7  8  2  0
  8  9  1  0
 10  2  1  0
 10 11  2  0
 12 13  1  0
 12 10  1  0
 13 14  1  1
 15 14  1  0
 16 17  2  0
 16 13  1  0
 19 21  1  0
 19 18  1  0
 20 19  2  0
 22 21  1  6
 22 23  1  0
 23 16  1  0
 24 22  1  0
 24 26  1  0
 25 24  2  0
M  END
$$$$
