FCN.pdb
     RDKit          3D

 26 26  0  0  1  0  0  0  0  0999 V2000
   33.3978  -32.3301  -16.1938 N   0  0  0  0  0  0  0  0  0  0  0  0
   32.3600  -31.9293  -17.0865 C   0  0  1  0  0  0  0  0  0  0  0  0
   31.4547  -33.0150  -17.5648 C   0  0  0  0  0  0  0  0  0  0  0  0
   32.2479  -33.9577  -18.3935 C   0  0  0  0  0  0  0  0  0  0  0  0
   32.6321  -33.6406  -19.6811 C   0  0  0  0  0  0  0  0  0  0  0  0
   33.3590  -34.5005  -20.4701 C   0  0  0  0  0  0  0  0  0  0  0  0
   33.7204  -35.7262  -19.9650 C   0  0  0  0  0  0  0  0  0  0  0  0
   33.3538  -36.0864  -18.6730 C   0  0  0  0  0  0  0  0  0  0  0  0
   32.6171  -35.1893  -17.8990 C   0  0  0  0  0  0  0  0  0  0  0  0
   31.6370  -30.7267  -16.5727 C   0  0  0  0  0  0  0  0  0  0  0  0
   31.4280  -30.6614  -15.3394 O   0  0  0  0  0  0  0  0  0  0  0  0
   31.1920  -29.6886  -17.4010 N   0  0  0  0  0  0  0  0  0  0  0  0
   30.5770  -28.4808  -16.9621 C   0  0  1  0  0  0  0  0  0  0  0  0
   31.3941  -27.2510  -17.2890 C   0  0  0  0  0  0  0  0  0  0  0  0
   30.5940  -25.7747  -16.5593 S   0  0  0  0  0  0  0  0  0  0  0  0
   29.2431  -28.3089  -17.6272 C   0  0  0  0  0  0  0  0  0  0  0  0
   29.1533  -28.3612  -18.8752 O   0  0  0  0  0  0  0  0  0  0  0  0
   25.7676  -30.5298  -18.0891 N   0  0  0  0  0  0  0  0  0  0  0  0
   25.3866  -29.9606  -16.8491 C   0  0  0  0  0  0  0  0  0  0  0  0
   24.6870  -30.6516  -16.0575 O   0  0  0  0  0  0  0  0  0  0  0  0
   25.7905  -28.6121  -16.4877 C   0  0  0  0  0  0  0  0  0  0  0  0
   26.7307  -27.9413  -17.4610 C   0  0  2  0  0  0  0  0  0  0  0  0
   28.0617  -28.0844  -16.8845 N   0  0  0  0  0  0  0  0  0  0  0  0
   26.3388  -26.4827  -17.4678 C   0  0  0  0  0  0  0  0  0  0  0  0
   25.3392  -26.1323  -18.1416 O   0  0  0  0  0  0  0  0  0  0  0  0
   27.0417  -25.5389  -16.7639 O   0  0  0  0  0  0  0  0  0  0  0  0
  2  1  1  1
  3  2  1  0
  4  9  2  0
  4  3  1  0
  5  4  1  0
  6  7  1  0
  6  5  2  0
  7  8  2  0
  8  9  1  0
 10  2  1  0
 10 11  2  0
 12 13  1  0
 12 10  1  0
 13 14  1  6
 15 14  1  0
 16 17  2  0
 16 13  1  0
 19 21  1  0
 19 18  1  0
 20 19  2  0
 22 21  1  1
 22 23  1  0
 23 16  1  0
 24 22  1  0
 24 26  1  0
 25 24  2  0
M  END
$$$$
