FCN.pdb
     RDKit          3D

 26 26  0  0  1  0  0  0  0  0999 V2000
   23.6403  -19.2439  -16.5940 N   0  0  0  0  0  0  0  0  0  0  0  0
   22.4258  -18.7647  -16.0197 C   0  0  1  0  0  0  0  0  0  0  0  0
   21.3440  -18.4074  -16.9837 C   0  0  0  0  0  0  0  0  0  0  0  0
   21.8366  -17.3140  -17.8591 C   0  0  0  0  0  0  0  0  0  0  0  0
   22.2487  -17.5555  -19.1545 C   0  0  0  0  0  0  0  0  0  0  0  0
   22.7166  -16.5609  -19.9804 C   0  0  0  0  0  0  0  0  0  0  0  0
   22.7808  -15.2733  -19.5052 C   0  0  0  0  0  0  0  0  0  0  0  0
   22.3764  -14.9857  -18.2063 C   0  0  0  0  0  0  0  0  0  0  0  0
   21.9055  -16.0187  -17.3951 C   0  0  0  0  0  0  0  0  0  0  0  0
   21.9687  -19.6466  -14.9033 C   0  0  0  0  0  0  0  0  0  0  0  0
   21.9640  -20.8823  -15.1080 O   0  0  0  0  0  0  0  0  0  0  0  0
   21.5530  -19.1545  -13.6596 N   0  0  0  0  0  0  0  0  0  0  0  0
   21.0611  -19.9398  -12.5775 C   0  0  1  0  0  0  0  0  0  0  0  0
   21.1387  -19.2243  -11.2474 C   0  0  0  0  0  0  0  0  0  0  0  0
   20.5504  -20.3390   -9.9194 S   0  0  0  0  0  0  0  0  0  0  0  0
   19.6189  -20.2860  -12.8041 C   0  0  0  0  0  0  0  0  0  0  0  0
   18.8016  -19.3915  -13.1208 O   0  0  0  0  0  0  0  0  0  0  0  0
   15.3449  -23.4085  -13.4134 N   0  0  0  0  0  0  0  0  0  0  0  0
   16.4630  -24.1579  -12.9719 C   0  0  0  0  0  0  0  0  0  0  0  0
   16.3199  -25.3968  -12.7762 O   0  0  0  0  0  0  0  0  0  0  0  0
   17.7509  -23.5224  -12.7494 C   0  0  0  0  0  0  0  0  0  0  0  0
   17.7573  -22.0186  -12.8912 C   0  0  2  0  0  0  0  0  0  0  0  0
   19.1383  -21.6084  -12.6699 N   0  0  0  0  0  0  0  0  0  0  0  0
   16.8914  -21.4990  -11.7681 C   0  0  0  0  0  0  0  0  0  0  0  0
   17.2545  -21.7061  -10.5844 O   0  0  0  0  0  0  0  0  0  0  0  0
   15.7277  -20.8137  -12.0062 O   0  0  0  0  0  0  0  0  0  0  0  0
  2  1  1  6
  3  2  1  0
  4  9  2  0
  4  3  1  0
  5  4  1  0
  6  7  1  0
  6  5  2  0
  7  8  2  0
  8  9  1  0
 10  2  1  0
 10 11  2  0
 12 13  1  0
 12 10  1  0
 13 14  1  1
 15 14  1  0
 16 17  2  0
 16 13  1  0
 19 21  1  0
 19 18  1  0
 20 19  2  0
 22 21  1  1
 22 23  1  0
 23 16  1  0
 24 22  1  0
 24 26  1  0
 25 24  2  0
M  END
$$$$
