VYG.pdb
     RDKit          3D

 24 24  0  0  1  0  0  0  0  0999 V2000
    7.6032  -14.8086   18.1935 C   0  0  0  0  0  0  0  0  0  0  0  0
    8.2241  -15.0285   19.5537 C   0  0  2  0  0  0  0  0  0  0  0  0
    7.9810  -16.4100   20.0714 C   0  0  0  0  0  0  0  0  0  0  0  0
    7.7397  -14.0251   20.5651 C   0  0  2  0  0  0  0  0  0  0  0  0
    7.7638  -12.6802   20.0880 N   0  0  0  0  0  0  0  0  0  0  0  0
    8.5088  -14.1928   21.8381 C   0  0  0  0  0  0  0  0  0  0  0  0
    9.6234  -13.6225   21.9541 O   0  0  0  0  0  0  0  0  0  0  0  0
    5.6061  -10.4127   27.0476 O   0  0  0  0  0  0  0  0  0  0  0  0
    6.1189  -11.6272   26.6012 C   0  0  0  0  0  0  0  0  0  0  0  0
    7.4275  -11.9610   26.8774 C   0  0  0  0  0  0  0  0  0  0  0  0
    7.9685  -13.1628   26.4471 C   0  0  0  0  0  0  0  0  0  0  0  0
    7.2296  -14.0778   25.7263 C   0  0  0  0  0  0  0  0  0  0  0  0
    7.7844  -15.3606   25.2527 C   0  0  0  0  0  0  0  0  0  0  0  0
    8.7698  -15.2336   24.1269 C   0  0  2  0  0  0  0  0  0  0  0  0
    8.0106  -14.9685   22.8933 N   0  0  0  0  0  0  0  0  0  0  0  0
    9.6131  -16.4390   23.9457 C   0  0  0  0  0  0  0  0  0  0  0  0
    9.0632  -17.5772   24.0548 O   0  0  0  0  0  0  0  0  0  0  0  0
    5.9121  -13.7267   25.4560 C   0  0  0  0  0  0  0  0  0  0  0  0
    5.3703  -12.5320   25.8825 C   0  0  0  0  0  0  0  0  0  0  0  0
   10.9934  -16.2941   23.6593 N   0  0  0  0  0  0  0  0  0  0  0  0
   11.8678  -17.4403   23.5698 C   0  0  0  0  0  0  0  0  0  0  0  0
   13.2343  -17.0400   23.1607 C   0  0  0  0  0  0  0  0  0  0  0  0
   13.4642  -15.8280   22.9463 O   0  0  0  0  0  0  0  0  0  0  0  0
   14.2231  -17.9740   23.0203 O   0  0  0  0  0  0  0  0  0  0  0  0
  2  1  1  6
  2  4  1  0
  2  3  1  0
  4  6  1  0
  4  5  1  6
  6  7  2  0
  8  9  1  0
  9 10  2  0
 10 11  1  0
 12 11  2  0
 12 13  1  0
 14 13  1  1
 14 16  1  0
 15 14  1  0
 15  6  1  0
 16 20  1  0
 16 17  2  0
 18 12  1  0
 19  9  1  0
 19 18  2  0
 20 21  1  0
 22 24  1  0
 22 21  1  0
 23 22  2  0
M  END
$$$$
