VYG.pdb
     RDKit          3D

 24 24  0  0  1  0  0  0  0  0999 V2000
    6.9770  -14.6533   18.1446 C   0  0  0  0  0  0  0  0  0  0  0  0
    7.7836  -14.7438   19.4196 C   0  0  2  0  0  0  0  0  0  0  0  0
    7.5111  -16.0052   20.1746 C   0  0  0  0  0  0  0  0  0  0  0  0
    7.5489  -13.5625   20.3218 C   0  0  2  0  0  0  0  0  0  0  0  0
    7.6903  -12.3055   19.6608 N   0  0  0  0  0  0  0  0  0  0  0  0
    8.4296  -13.6759   21.5266 C   0  0  0  0  0  0  0  0  0  0  0  0
    9.6297  -13.3107   21.4386 O   0  0  0  0  0  0  0  0  0  0  0  0
   10.6771  -15.1815   30.0496 O   0  0  0  0  0  0  0  0  0  0  0  0
   10.0291  -14.8896   28.8529 C   0  0  0  0  0  0  0  0  0  0  0  0
    9.4328  -15.9022   28.1323 C   0  0  0  0  0  0  0  0  0  0  0  0
    8.7796  -15.6447   26.9368 C   0  0  0  0  0  0  0  0  0  0  0  0
    8.6945  -14.3717   26.4125 C   0  0  0  0  0  0  0  0  0  0  0  0
    8.0098  -14.0735   25.1398 C   0  0  0  0  0  0  0  0  0  0  0  0
    8.7991  -14.4262   23.9121 C   0  0  2  0  0  0  0  0  0  0  0  0
    7.9423  -14.1781   22.7406 N   0  0  0  0  0  0  0  0  0  0  0  0
    9.2684  -15.8321   23.8996 C   0  0  0  0  0  0  0  0  0  0  0  0
    8.3977  -16.7545   23.8712 O   0  0  0  0  0  0  0  0  0  0  0  0
    9.3006  -13.3618   27.1508 C   0  0  0  0  0  0  0  0  0  0  0  0
    9.9513  -13.6140   28.3406 C   0  0  0  0  0  0  0  0  0  0  0  0
   10.6581  -16.1090   23.9193 N   0  0  0  0  0  0  0  0  0  0  0  0
   11.1547  -17.4633   23.9947 C   0  0  0  0  0  0  0  0  0  0  0  0
   12.6356  -17.4924   23.9657 C   0  0  0  0  0  0  0  0  0  0  0  0
   13.2114  -18.6016   23.8891 O   0  0  0  0  0  0  0  0  0  0  0  0
   13.3580  -16.3327   24.0213 O   0  0  0  0  0  0  0  0  0  0  0  0
  2  1  1  6
  2  4  1  0
  2  3  1  0
  4  6  1  0
  4  5  1  6
  6  7  2  0
  8  9  1  0
  9 10  2  0
 10 11  1  0
 12 11  2  0
 12 13  1  0
 14 13  1  1
 14 16  1  0
 15 14  1  0
 15  6  1  0
 16 20  1  0
 16 17  2  0
 18 12  1  0
 19  9  1  0
 19 18  2  0
 20 21  1  0
 22 24  1  0
 22 21  1  0
 23 22  2  0
M  END
$$$$
