VYG.pdb
     RDKit          3D

 24 24  0  0  1  0  0  0  0  0999 V2000
    8.6664  -18.6620   19.5894 C   0  0  0  0  0  0  0  0  0  0  0  0
    7.2939  -18.0322   19.5270 C   0  0  2  0  0  0  0  0  0  0  0  0
    6.4292  -18.6596   18.4809 C   0  0  0  0  0  0  0  0  0  0  0  0
    7.3634  -16.5476   19.2912 C   0  0  2  0  0  0  0  0  0  0  0  0
    7.9896  -16.1968   18.0575 N   0  0  0  0  0  0  0  0  0  0  0  0
    8.0118  -15.8882   20.4679 C   0  0  0  0  0  0  0  0  0  0  0  0
    9.2358  -15.6063   20.4084 O   0  0  0  0  0  0  0  0  0  0  0  0
    8.5801  -12.6160   28.7968 O   0  0  0  0  0  0  0  0  0  0  0  0
    8.1429  -13.0829   27.5607 C   0  0  0  0  0  0  0  0  0  0  0  0
    7.9411  -14.4332   27.3710 C   0  0  0  0  0  0  0  0  0  0  0  0
    7.5061  -14.9304   26.1520 C   0  0  0  0  0  0  0  0  0  0  0  0
    7.2557  -14.1045   25.0759 C   0  0  0  0  0  0  0  0  0  0  0  0
    6.7976  -14.6101   23.7674 C   0  0  0  0  0  0  0  0  0  0  0  0
    7.9019  -15.0517   22.8508 C   0  0  2  0  0  0  0  0  0  0  0  0
    7.2827  -15.5825   21.6249 N   0  0  0  0  0  0  0  0  0  0  0  0
    8.7865  -16.0792   23.4496 C   0  0  0  0  0  0  0  0  0  0  0  0
    8.2702  -17.1836   23.8011 O   0  0  0  0  0  0  0  0  0  0  0  0
    7.4638  -12.7458   25.2831 C   0  0  0  0  0  0  0  0  0  0  0  0
    7.8963  -12.2474   26.4944 C   0  0  0  0  0  0  0  0  0  0  0  0
   10.1679  -15.8081   23.6131 N   0  0  0  0  0  0  0  0  0  0  0  0
   11.0644  -16.7862   24.1841 C   0  0  0  0  0  0  0  0  0  0  0  0
   11.7930  -16.2290   25.3475 C   0  0  0  0  0  0  0  0  0  0  0  0
   11.2495  -16.2792   26.4744 O   0  0  0  0  0  0  0  0  0  0  0  0
   13.0324  -15.6721   25.1938 O   0  0  0  0  0  0  0  0  0  0  0  0
  2  1  1  6
  2  4  1  0
  2  3  1  0
  4  6  1  0
  4  5  1  6
  6  7  2  0
  8  9  1  0
  9 10  2  0
 10 11  1  0
 12 11  2  0
 12 13  1  0
 14 13  1  1
 14 16  1  0
 15 14  1  0
 15  6  1  0
 16 20  1  0
 16 17  2  0
 18 12  1  0
 19  9  1  0
 19 18  2  0
 20 21  1  0
 22 24  1  0
 22 21  1  0
 23 22  2  0
M  END
$$$$
