VYG.pdb
     RDKit          3D

 24 24  0  0  1  0  0  0  0  0999 V2000
    7.8936  -19.0241   19.0495 C   0  0  0  0  0  0  0  0  0  0  0  0
    8.0045  -18.3270   20.3859 C   0  0  2  0  0  0  0  0  0  0  0  0
    6.6671  -17.9765   20.9551 C   0  0  0  0  0  0  0  0  0  0  0  0
    8.8533  -17.0868   20.3079 C   0  0  2  0  0  0  0  0  0  0  0  0
   10.1220  -17.3043   19.6914 N   0  0  0  0  0  0  0  0  0  0  0  0
    8.9776  -16.4842   21.6722 C   0  0  0  0  0  0  0  0  0  0  0  0
    9.9198  -16.8563   22.4172 O   0  0  0  0  0  0  0  0  0  0  0  0
    6.8781  -11.1831   28.5809 O   0  0  0  0  0  0  0  0  0  0  0  0
    6.9904  -11.7985   27.3376 C   0  0  0  0  0  0  0  0  0  0  0  0
    5.8659  -12.2990   26.7170 C   0  0  0  0  0  0  0  0  0  0  0  0
    5.9439  -12.9175   25.4786 C   0  0  0  0  0  0  0  0  0  0  0  0
    7.1421  -13.0621   24.8107 C   0  0  0  0  0  0  0  0  0  0  0  0
    7.2515  -13.7213   23.4950 C   0  0  0  0  0  0  0  0  0  0  0  0
    8.1086  -14.9541   23.4870 C   0  0  2  0  0  0  0  0  0  0  0  0
    8.0687  -15.5202   22.1283 N   0  0  0  0  0  0  0  0  0  0  0  0
    7.6749  -15.9772   24.4680 C   0  0  0  0  0  0  0  0  0  0  0  0
    8.0628  -15.8575   25.6701 O   0  0  0  0  0  0  0  0  0  0  0  0
    8.2666  -12.5524   25.4494 C   0  0  0  0  0  0  0  0  0  0  0  0
    8.1930  -11.9362   26.6813 C   0  0  0  0  0  0  0  0  0  0  0  0
    6.8494  -17.0493   24.0464 N   0  0  0  0  0  0  0  0  0  0  0  0
    6.3663  -18.0394   24.9806 C   0  0  0  0  0  0  0  0  0  0  0  0
    7.1520  -19.2919   24.8863 C   0  0  0  0  0  0  0  0  0  0  0  0
    6.6855  -20.2425   24.2180 O   0  0  0  0  0  0  0  0  0  0  0  0
    8.3605  -19.4072   25.5156 O   0  0  0  0  0  0  0  0  0  0  0  0
  2  1  1  6
  2  4  1  0
  2  3  1  0
  4  6  1  0
  4  5  1  1
  6  7  2  0
  8  9  1  0
  9 10  2  0
 10 11  1  0
 12 11  2  0
 12 13  1  0
 14 13  1  6
 14 16  1  0
 15 14  1  0
 15  6  1  0
 16 20  1  0
 16 17  2  0
 18 12  1  0
 19  9  1  0
 19 18  2  0
 20 21  1  0
 22 24  1  0
 22 21  1  0
 23 22  2  0
M  END
$$$$
