VYG.pdb
     RDKit          3D

 24 24  0  0  1  0  0  0  0  0999 V2000
    7.5416  -12.7642   20.4751 C   0  0  0  0  0  0  0  0  0  0  0  0
    7.7650  -14.2305   20.1847 C   0  0  2  0  0  0  0  0  0  0  0  0
    7.2267  -14.6323   18.8489 C   0  0  0  0  0  0  0  0  0  0  0  0
    7.1705  -15.1142   21.2478 C   0  0  2  0  0  0  0  0  0  0  0  0
    5.7471  -15.0375   21.3201 N   0  0  0  0  0  0  0  0  0  0  0  0
    7.8253  -14.8197   22.5610 C   0  0  0  0  0  0  0  0  0  0  0  0
    7.1560  -14.2477   23.4589 O   0  0  0  0  0  0  0  0  0  0  0  0
   10.8646  -14.9544   30.4883 O   0  0  0  0  0  0  0  0  0  0  0  0
   10.4206  -15.1531   29.1843 C   0  0  0  0  0  0  0  0  0  0  0  0
    9.9678  -14.0819   28.4443 C   0  0  0  0  0  0  0  0  0  0  0  0
    9.5189  -14.2463   27.1428 C   0  0  0  0  0  0  0  0  0  0  0  0
    9.5030  -15.4810   26.5281 C   0  0  0  0  0  0  0  0  0  0  0  0
    9.0250  -15.6821   25.1466 C   0  0  0  0  0  0  0  0  0  0  0  0
    9.8249  -14.9598   24.1010 C   0  0  2  0  0  0  0  0  0  0  0  0
    9.1606  -15.1683   22.8036 N   0  0  0  0  0  0  0  0  0  0  0  0
   11.2332  -15.4151   24.0206 C   0  0  0  0  0  0  0  0  0  0  0  0
   11.9754  -15.2504   25.0364 O   0  0  0  0  0  0  0  0  0  0  0  0
    9.9627  -16.5509   27.2873 C   0  0  0  0  0  0  0  0  0  0  0  0
   10.4102  -16.3913   28.5823 C   0  0  0  0  0  0  0  0  0  0  0  0
   11.7107  -16.0147   22.8287 N   0  0  0  0  0  0  0  0  0  0  0  0
   11.6406  -17.4429   22.6243 C   0  0  0  0  0  0  0  0  0  0  0  0
   12.7530  -18.1371   23.3140 C   0  0  0  0  0  0  0  0  0  0  0  0
   13.5881  -18.7637   22.6228 O   0  0  0  0  0  0  0  0  0  0  0  0
   12.8653  -18.0942   24.6762 O   0  0  0  0  0  0  0  0  0  0  0  0
  2  1  1  1
  2  4  1  0
  2  3  1  0
  4  6  1  0
  4  5  1  1
  6  7  2  0
  8  9  1  0
  9 10  2  0
 10 11  1  0
 12 11  2  0
 12 13  1  0
 14 13  1  1
 14 16  1  0
 15 14  1  0
 15  6  1  0
 16 20  1  0
 16 17  2  0
 18 12  1  0
 19  9  1  0
 19 18  2  0
 20 21  1  0
 22 24  1  0
 22 21  1  0
 23 22  2  0
M  END
$$$$
