VYG.pdb
     RDKit          3D

 24 24  0  0  1  0  0  0  0  0999 V2000
    9.7417  -15.8823   18.3965 C   0  0  0  0  0  0  0  0  0  0  0  0
    8.2364  -15.7665   18.4656 C   0  0  2  0  0  0  0  0  0  0  0  0
    7.5764  -16.1845   17.1908 C   0  0  0  0  0  0  0  0  0  0  0  0
    7.7924  -14.3739   18.8231 C   0  0  2  0  0  0  0  0  0  0  0  0
    8.1334  -13.3983   17.8387 N   0  0  0  0  0  0  0  0  0  0  0  0
    8.3130  -14.0204   20.1811 C   0  0  0  0  0  0  0  0  0  0  0  0
    9.2879  -13.2314   20.2716 O   0  0  0  0  0  0  0  0  0  0  0  0
    6.9981  -11.7586   28.6528 O   0  0  0  0  0  0  0  0  0  0  0  0
    6.9366  -12.3490   27.3939 C   0  0  0  0  0  0  0  0  0  0  0  0
    7.4718  -13.6043   27.1994 C   0  0  0  0  0  0  0  0  0  0  0  0
    7.4268  -14.2200   25.9579 C   0  0  0  0  0  0  0  0  0  0  0  0
    6.8485  -13.6114   24.8635 C   0  0  0  0  0  0  0  0  0  0  0  0
    6.7932  -14.2437   23.5313 C   0  0  0  0  0  0  0  0  0  0  0  0
    8.0201  -14.0324   22.6918 C   0  0  2  0  0  0  0  0  0  0  0  0
    7.7362  -14.5502   21.3430 N   0  0  0  0  0  0  0  0  0  0  0  0
    9.2272  -14.6965   23.2385 C   0  0  0  0  0  0  0  0  0  0  0  0
    9.6995  -14.2719   24.3369 O   0  0  0  0  0  0  0  0  0  0  0  0
    6.3133  -12.3462   25.0759 C   0  0  0  0  0  0  0  0  0  0  0  0
    6.3561  -11.7305   26.3095 C   0  0  0  0  0  0  0  0  0  0  0  0
    9.8169  -15.7743   22.5321 N   0  0  0  0  0  0  0  0  0  0  0  0
   10.9160  -16.5278   23.0893 C   0  0  0  0  0  0  0  0  0  0  0  0
   10.5500  -17.9518   23.2721 C   0  0  0  0  0  0  0  0  0  0  0  0
    9.6623  -18.2394   24.1070 O   0  0  0  0  0  0  0  0  0  0  0  0
   11.1683  -18.9306   22.5445 O   0  0  0  0  0  0  0  0  0  0  0  0
  2  1  1  6
  2  4  1  0
  2  3  1  0
  4  6  1  0
  4  5  1  6
  6  7  2  0
  8  9  1  0
  9 10  2  0
 10 11  1  0
 12 11  2  0
 12 13  1  0
 14 13  1  1
 14 16  1  0
 15 14  1  0
 15  6  1  0
 16 20  1  0
 16 17  2  0
 18 12  1  0
 19  9  1  0
 19 18  2  0
 20 21  1  0
 22 24  1  0
 22 21  1  0
 23 22  2  0
M  END
$$$$
