VYG.pdb
     RDKit          3D

 24 24  0  0  1  0  0  0  0  0999 V2000
    6.8443  -14.5142   18.2712 C   0  0  0  0  0  0  0  0  0  0  0  0
    7.6259  -14.6890   19.5529 C   0  0  2  0  0  0  0  0  0  0  0  0
    7.1753  -15.8819   20.3336 C   0  0  0  0  0  0  0  0  0  0  0  0
    7.5580  -13.4665   20.4277 C   0  0  2  0  0  0  0  0  0  0  0  0
    7.8554  -12.2546   19.7349 N   0  0  0  0  0  0  0  0  0  0  0  0
    8.4295  -13.6662   21.6280 C   0  0  0  0  0  0  0  0  0  0  0  0
    9.6714  -13.5081   21.5102 O   0  0  0  0  0  0  0  0  0  0  0  0
   10.6028  -15.1520   30.1703 O   0  0  0  0  0  0  0  0  0  0  0  0
    9.9466  -14.8682   28.9761 C   0  0  0  0  0  0  0  0  0  0  0  0
    9.3387  -15.8844   28.2706 C   0  0  0  0  0  0  0  0  0  0  0  0
    8.6770  -15.6351   27.0779 C   0  0  0  0  0  0  0  0  0  0  0  0
    8.5949  -14.3668   26.5418 C   0  0  0  0  0  0  0  0  0  0  0  0
    7.9014  -14.0773   25.2718 C   0  0  0  0  0  0  0  0  0  0  0  0
    8.7134  -14.3624   24.0414 C   0  0  2  0  0  0  0  0  0  0  0  0
    7.8881  -14.0235   22.8700 N   0  0  0  0  0  0  0  0  0  0  0  0
    9.1609  -15.7723   23.9468 C   0  0  0  0  0  0  0  0  0  0  0  0
    8.2778  -16.6741   23.8179 O   0  0  0  0  0  0  0  0  0  0  0  0
    9.2127  -13.3532   27.2650 C   0  0  0  0  0  0  0  0  0  0  0  0
    9.8717  -13.5973   28.4519 C   0  0  0  0  0  0  0  0  0  0  0  0
   10.5442  -16.0755   24.0017 N   0  0  0  0  0  0  0  0  0  0  0  0
   11.0132  -17.4396   24.0772 C   0  0  0  0  0  0  0  0  0  0  0  0
   12.4916  -17.4932   24.1563 C   0  0  0  0  0  0  0  0  0  0  0  0
   13.0933  -16.5702   24.7511 O   0  0  0  0  0  0  0  0  0  0  0  0
   13.1840  -18.5285   23.5918 O   0  0  0  0  0  0  0  0  0  0  0  0
  2  1  1  6
  2  4  1  0
  2  3  1  0
  4  6  1  0
  4  5  1  6
  6  7  2  0
  8  9  1  0
  9 10  2  0
 10 11  1  0
 12 11  2  0
 12 13  1  0
 14 13  1  1
 14 16  1  0
 15 14  1  0
 15  6  1  0
 16 20  1  0
 16 17  2  0
 18 12  1  0
 19  9  1  0
 19 18  2  0
 20 21  1  0
 22 24  1  0
 22 21  1  0
 23 22  2  0
M  END
$$$$
