VYG.pdb
     RDKit          3D

 24 24  0  0  1  0  0  0  0  0999 V2000
    8.0789  -18.0099   18.7057 C   0  0  0  0  0  0  0  0  0  0  0  0
    8.8154  -17.5596   19.9462 C   0  0  2  0  0  0  0  0  0  0  0  0
    8.6161  -18.4955   21.0951 C   0  0  0  0  0  0  0  0  0  0  0  0
    8.4223  -16.1681   20.3632 C   0  0  2  0  0  0  0  0  0  0  0  0
    8.5036  -15.2134   19.3054 N   0  0  0  0  0  0  0  0  0  0  0  0
    9.2248  -15.7635   21.5600 C   0  0  0  0  0  0  0  0  0  0  0  0
   10.3997  -15.3483   21.3916 O   0  0  0  0  0  0  0  0  0  0  0  0
   10.7865  -14.1023   30.2388 O   0  0  0  0  0  0  0  0  0  0  0  0
   10.2189  -14.3876   29.0004 C   0  0  0  0  0  0  0  0  0  0  0  0
    9.9529  -13.3637   28.1167 C   0  0  0  0  0  0  0  0  0  0  0  0
    9.3880  -13.6144   26.8756 C   0  0  0  0  0  0  0  0  0  0  0  0
    9.0661  -14.8917   26.4663 C   0  0  0  0  0  0  0  0  0  0  0  0
    8.4593  -15.1831   25.1531 C   0  0  0  0  0  0  0  0  0  0  0  0
    9.4493  -15.4657   24.0601 C   0  0  2  0  0  0  0  0  0  0  0  0
    8.6922  -15.8394   22.8538 N   0  0  0  0  0  0  0  0  0  0  0  0
   10.4094  -16.5422   24.4014 C   0  0  0  0  0  0  0  0  0  0  0  0
    9.9469  -17.6852   24.7005 O   0  0  0  0  0  0  0  0  0  0  0  0
    9.3404  -15.9130   27.3684 C   0  0  0  0  0  0  0  0  0  0  0  0
    9.9024  -15.6676   28.6040 C   0  0  0  0  0  0  0  0  0  0  0  0
   11.8008  -16.2736   24.3858 N   0  0  0  0  0  0  0  0  0  0  0  0
   12.7680  -17.2938   24.7175 C   0  0  0  0  0  0  0  0  0  0  0  0
   14.1511  -16.7727   24.6161 C   0  0  0  0  0  0  0  0  0  0  0  0
   14.7875  -16.9661   23.5553 O   0  0  0  0  0  0  0  0  0  0  0  0
   14.7203  -16.0952   25.6586 O   0  0  0  0  0  0  0  0  0  0  0  0
  2  1  1  6
  2  4  1  0
  2  3  1  0
  4  6  1  0
  4  5  1  6
  6  7  2  0
  8  9  1  0
  9 10  2  0
 10 11  1  0
 12 11  2  0
 12 13  1  0
 14 13  1  1
 14 16  1  0
 15 14  1  0
 15  6  1  0
 16 20  1  0
 16 17  2  0
 18 12  1  0
 19  9  1  0
 19 18  2  0
 20 21  1  0
 22 24  1  0
 22 21  1  0
 23 22  2  0
M  END
$$$$
