TWN.pdb
     RDKit          3D

 30 31  0  0  1  0  0  0  0  0999 V2000
    8.8577  -18.3243   16.8950 C   0  0  0  0  0  0  0  0  0  0  0  0
    9.0031  -17.7633   18.2928 C   0  0  1  0  0  0  0  0  0  0  0  0
   10.3673  -17.9651   18.6159 O   0  0  0  0  0  0  0  0  0  0  0  0
    8.7885  -16.2760   18.3642 C   0  0  2  0  0  0  0  0  0  0  0  0
    9.6876  -15.6089   17.4602 N   0  0  0  0  0  0  0  0  0  0  0  0
    8.9386  -15.7492   19.7605 C   0  0  0  0  0  0  0  0  0  0  0  0
   10.0495  -15.3187   20.1687 O   0  0  0  0  0  0  0  0  0  0  0  0
    7.8510  -15.7153   20.6638 N   0  0  0  0  0  0  0  0  0  0  0  0
    8.0699  -15.4015   22.0664 C   0  0  1  0  0  0  0  0  0  0  0  0
    6.7494  -15.1455   22.7176 C   0  0  0  0  0  0  0  0  0  0  0  0
    6.7755  -14.9082   24.1599 C   0  0  0  0  0  0  0  0  0  0  0  0
    6.6134  -15.8915   25.1463 C   0  0  0  0  0  0  0  0  0  0  0  0
    6.7156  -15.3078   26.3430 N   0  0  0  0  0  0  0  0  0  0  0  0
    6.9400  -13.9694   26.1981 C   0  0  0  0  0  0  0  0  0  0  0  0
    7.1040  -12.9592   27.1261 C   0  0  0  0  0  0  0  0  0  0  0  0
    7.3101  -11.6591   26.7327 C   0  0  0  0  0  0  0  0  0  0  0  0
    7.3465  -11.4097   25.3758 C   0  0  0  0  0  0  0  0  0  0  0  0
    7.1842  -12.4170   24.4550 C   0  0  0  0  0  0  0  0  0  0  0  0
    6.9756  -13.7351   24.8472 C   0  0  0  0  0  0  0  0  0  0  0  0
    8.9899  -16.3170   22.7244 C   0  0  0  0  0  0  0  0  0  0  0  0
    8.9844  -17.5784   22.5164 O   0  0  0  0  0  0  0  0  0  0  0  0
   14.2557  -16.6761   25.6233 N   0  0  0  0  0  0  0  0  0  0  0  0
   13.3700  -17.0931   24.5915 C   0  0  0  0  0  0  0  0  0  0  0  0
   13.4551  -18.2384   24.0637 O   0  0  0  0  0  0  0  0  0  0  0  0
   12.3008  -16.2006   24.0792 C   0  0  0  0  0  0  0  0  0  0  0  0
   10.8941  -16.8295   24.3080 C   0  0  2  0  0  0  0  0  0  0  0  0
   10.0124  -15.9103   23.6660 N   0  0  0  0  0  0  0  0  0  0  0  0
   10.7042  -17.0975   25.7154 C   0  0  0  0  0  0  0  0  0  0  0  0
   10.0813  -16.3324   26.4708 O   0  0  0  0  0  0  0  0  0  0  0  0
   11.2297  -18.2521   26.2721 O   0  0  0  0  0  0  0  0  0  0  0  0
  2  1  1  6
  2  3  1  0
  4  6  1  0
  4  2  1  0
  4  5  1  6
  6  7  2  0
  8  9  1  0
  8  6  1  0
  9 10  1  1
 10 11  1  0
 11 19  1  0
 12 11  2  0
 12 13  1  0
 13 14  1  0
 14 15  1  0
 15 16  2  0
 17 16  1  0
 18 17  2  0
 19 14  2  0
 19 18  1  0
 20  9  1  0
 21 20  2  0
 22 23  1  0
 23 24  2  0
 25 23  1  0
 26 27  1  0
 26 25  1  1
 27 20  1  0
 28 30  1  0
 28 26  1  0
 29 28  2  0
M  END
$$$$
