TWN.pdb
     RDKit          3D

 30 31  0  0  1  0  0  0  0  0999 V2000
    8.9958  -20.4675   18.9561 C   0  0  0  0  0  0  0  0  0  0  0  0
    9.2029  -19.4689   20.0740 C   0  0  1  0  0  0  0  0  0  0  0  0
   10.4808  -19.7830   20.5979 O   0  0  0  0  0  0  0  0  0  0  0  0
    9.3037  -18.0471   19.5930 C   0  0  2  0  0  0  0  0  0  0  0  0
   10.3719  -17.9298   18.6360 N   0  0  0  0  0  0  0  0  0  0  0  0
    9.4845  -17.0787   20.7240 C   0  0  0  0  0  0  0  0  0  0  0  0
   10.6290  -16.6468   21.0233 O   0  0  0  0  0  0  0  0  0  0  0  0
    8.3893  -16.6173   21.4906 N   0  0  0  0  0  0  0  0  0  0  0  0
    8.6076  -15.7491   22.6362 C   0  0  1  0  0  0  0  0  0  0  0  0
    7.4050  -14.8818   22.8232 C   0  0  0  0  0  0  0  0  0  0  0  0
    7.5433  -13.7824   23.7768 C   0  0  0  0  0  0  0  0  0  0  0  0
    8.3080  -12.6247   23.5739 C   0  0  0  0  0  0  0  0  0  0  0  0
    8.1793  -11.8419   24.6480 N   0  0  0  0  0  0  0  0  0  0  0  0
    7.3571  -12.4298   25.5652 C   0  0  0  0  0  0  0  0  0  0  0  0
    6.9336  -12.0212   26.8151 C   0  0  0  0  0  0  0  0  0  0  0  0
    6.0985  -12.8049   27.5740 C   0  0  0  0  0  0  0  0  0  0  0  0
    5.7035  -14.0119   27.0336 C   0  0  0  0  0  0  0  0  0  0  0  0
    6.1257  -14.4150   25.7893 C   0  0  0  0  0  0  0  0  0  0  0  0
    6.9707  -13.6257   25.0162 C   0  0  0  0  0  0  0  0  0  0  0  0
    9.1314  -16.4504   23.7986 C   0  0  0  0  0  0  0  0  0  0  0  0
    8.6377  -17.5479   24.2301 O   0  0  0  0  0  0  0  0  0  0  0  0
   13.4692  -16.2256   23.3763 N   0  0  0  0  0  0  0  0  0  0  0  0
   12.8101  -17.0619   24.3193 C   0  0  0  0  0  0  0  0  0  0  0  0
   12.6241  -18.2929   24.1015 O   0  0  0  0  0  0  0  0  0  0  0  0
   12.3035  -16.5287   25.6082 C   0  0  0  0  0  0  0  0  0  0  0  0
   10.7599  -16.7085   25.7163 C   0  0  2  0  0  0  0  0  0  0  0  0
   10.2642  -16.0012   24.5811 N   0  0  0  0  0  0  0  0  0  0  0  0
   10.3138  -16.3024   27.0296 C   0  0  0  0  0  0  0  0  0  0  0  0
    9.5336  -15.3532   27.2146 O   0  0  0  0  0  0  0  0  0  0  0  0
   10.7608  -16.9855   28.1488 O   0  0  0  0  0  0  0  0  0  0  0  0
  2  1  1  6
  2  3  1  0
  4  6  1  0
  4  2  1  0
  4  5  1  6
  6  7  2  0
  8  9  1  0
  8  6  1  0
  9 10  1  1
 10 11  1  0
 11 19  1  0
 12 11  2  0
 12 13  1  0
 13 14  1  0
 14 15  1  0
 15 16  2  0
 17 16  1  0
 18 17  2  0
 19 14  2  0
 19 18  1  0
 20  9  1  0
 21 20  2  0
 22 23  1  0
 23 24  2  0
 25 23  1  0
 26 27  1  0
 26 25  1  1
 27 20  1  0
 28 30  1  0
 28 26  1  0
 29 28  2  0
M  END
$$$$
