TWN.pdb
     RDKit          3D

 30 31  0  0  1  0  0  0  0  0999 V2000
   10.9175  -17.3895   18.3623 C   0  0  0  0  0  0  0  0  0  0  0  0
   10.8680  -17.3238   19.8733 C   0  0  1  0  0  0  0  0  0  0  0  0
   12.1648  -17.7143   20.2879 O   0  0  0  0  0  0  0  0  0  0  0  0
   10.6789  -15.9289   20.4040 C   0  0  2  0  0  0  0  0  0  0  0  0
   11.7813  -15.0981   19.9977 N   0  0  0  0  0  0  0  0  0  0  0  0
   10.5093  -15.9088   21.8941 C   0  0  0  0  0  0  0  0  0  0  0  0
   11.4758  -15.6167   22.6468 O   0  0  0  0  0  0  0  0  0  0  0  0
    9.2714  -16.2136   22.5061 N   0  0  0  0  0  0  0  0  0  0  0  0
    9.1770  -16.3390   23.9515 C   0  0  1  0  0  0  0  0  0  0  0  0
    7.7627  -16.0947   24.3680 C   0  0  0  0  0  0  0  0  0  0  0  0
    7.2818  -14.7195   24.2464 C   0  0  0  0  0  0  0  0  0  0  0  0
    6.7923  -14.1329   23.0707 C   0  0  0  0  0  0  0  0  0  0  0  0
    6.4299  -12.8776   23.3461 N   0  0  0  0  0  0  0  0  0  0  0  0
    6.6574  -12.5984   24.6626 C   0  0  0  0  0  0  0  0  0  0  0  0
    6.4570  -11.4519   25.4068 C   0  0  0  0  0  0  0  0  0  0  0  0
    6.7803  -11.4051   26.7413 C   0  0  0  0  0  0  0  0  0  0  0  0
    7.3109  -12.5494   27.3015 C   0  0  0  0  0  0  0  0  0  0  0  0
    7.5080  -13.6888   26.5587 C   0  0  0  0  0  0  0  0  0  0  0  0
    7.1823  -13.7423   25.2075 C   0  0  0  0  0  0  0  0  0  0  0  0
    9.8477  -17.5209   24.4718 C   0  0  0  0  0  0  0  0  0  0  0  0
    9.6673  -18.6918   23.9913 O   0  0  0  0  0  0  0  0  0  0  0  0
   14.0991  -20.6236   24.7441 N   0  0  0  0  0  0  0  0  0  0  0  0
   13.8597  -19.5406   25.6344 C   0  0  0  0  0  0  0  0  0  0  0  0
   14.4294  -19.4658   26.7602 O   0  0  0  0  0  0  0  0  0  0  0  0
   12.9238  -18.4428   25.2866 C   0  0  0  0  0  0  0  0  0  0  0  0
   11.5406  -18.6529   25.9716 C   0  0  2  0  0  0  0  0  0  0  0  0
   10.7940  -17.5064   25.5681 N   0  0  0  0  0  0  0  0  0  0  0  0
   11.7287  -18.8900   27.3848 C   0  0  0  0  0  0  0  0  0  0  0  0
   11.8347  -20.0288   27.8706 O   0  0  0  0  0  0  0  0  0  0  0  0
   11.7978  -17.8171   28.2583 O   0  0  0  0  0  0  0  0  0  0  0  0
  2  1  1  6
  2  3  1  0
  4  6  1  0
  4  2  1  0
  4  5  1  1
  6  7  2  0
  8  9  1  0
  8  6  1  0
  9 10  1  6
 10 11  1  0
 11 19  1  0
 12 11  2  0
 12 13  1  0
 13 14  1  0
 14 15  1  0
 15 16  2  0
 17 16  1  0
 18 17  2  0
 19 14  2  0
 19 18  1  0
 20  9  1  0
 21 20  2  0
 22 23  1  0
 23 24  2  0
 25 23  1  0
 26 27  1  0
 26 25  1  6
 27 20  1  0
 28 30  1  0
 28 26  1  0
 29 28  2  0
M  END
$$$$
