TWN.pdb
     RDKit          3D

 30 31  0  0  1  0  0  0  0  0999 V2000
    8.4211  -16.5366   19.1182 C   0  0  0  0  0  0  0  0  0  0  0  0
    8.3433  -15.0268   19.0542 C   0  0  1  0  0  0  0  0  0  0  0  0
    7.6133  -14.7591   17.8703 O   0  0  0  0  0  0  0  0  0  0  0  0
    7.5351  -14.4230   20.1702 C   0  0  2  0  0  0  0  0  0  0  0  0
    7.2908  -13.0311   19.8987 N   0  0  0  0  0  0  0  0  0  0  0  0
    8.1918  -14.6045   21.5064 C   0  0  0  0  0  0  0  0  0  0  0  0
    9.0416  -13.7735   21.9228 O   0  0  0  0  0  0  0  0  0  0  0  0
    7.8863  -15.7034   22.3424 N   0  0  0  0  0  0  0  0  0  0  0  0
    8.5891  -15.8867   23.6019 C   0  0  1  0  0  0  0  0  0  0  0  0
    7.5907  -16.1698   24.6773 C   0  0  0  0  0  0  0  0  0  0  0  0
    6.8667  -15.0155   25.2070 C   0  0  0  0  0  0  0  0  0  0  0  0
    5.4713  -14.8924   25.2686 C   0  0  0  0  0  0  0  0  0  0  0  0
    5.1770  -13.7162   25.8280 N   0  0  0  0  0  0  0  0  0  0  0  0
    6.3220  -13.0440   26.1445 C   0  0  0  0  0  0  0  0  0  0  0  0
    6.5315  -11.8066   26.7219 C   0  0  0  0  0  0  0  0  0  0  0  0
    7.8014  -11.3272   26.9344 C   0  0  0  0  0  0  0  0  0  0  0  0
    8.8523  -12.1339   26.5477 C   0  0  0  0  0  0  0  0  0  0  0  0
    8.6406  -13.3650   25.9746 C   0  0  0  0  0  0  0  0  0  0  0  0
    7.3574  -13.8558   25.7572 C   0  0  0  0  0  0  0  0  0  0  0  0
    9.7443  -16.7649   23.4941 C   0  0  0  0  0  0  0  0  0  0  0  0
    9.7288  -17.8570   22.8295 O   0  0  0  0  0  0  0  0  0  0  0  0
   14.2252  -17.3847   21.9180 N   0  0  0  0  0  0  0  0  0  0  0  0
   13.7125  -16.3874   22.7929 C   0  0  0  0  0  0  0  0  0  0  0  0
   13.5342  -15.1955   22.4118 O   0  0  0  0  0  0  0  0  0  0  0  0
   13.3636  -16.6962   24.2018 C   0  0  0  0  0  0  0  0  0  0  0  0
   12.0322  -17.5009   24.2816 C   0  0  2  0  0  0  0  0  0  0  0  0
   11.0303  -16.5010   24.1056 N   0  0  0  0  0  0  0  0  0  0  0  0
   12.0127  -18.2900   25.4923 C   0  0  0  0  0  0  0  0  0  0  0  0
   11.2042  -18.0919   26.4149 O   0  0  0  0  0  0  0  0  0  0  0  0
   12.9251  -19.3193   25.6564 O   0  0  0  0  0  0  0  0  0  0  0  0
  2  1  1  1
  2  3  1  0
  4  6  1  0
  4  2  1  0
  4  5  1  6
  6  7  2  0
  8  9  1  0
  8  6  1  0
  9 10  1  1
 10 11  1  0
 11 19  1  0
 12 11  2  0
 12 13  1  0
 13 14  1  0
 14 15  1  0
 15 16  2  0
 17 16  1  0
 18 17  2  0
 19 14  2  0
 19 18  1  0
 20  9  1  0
 21 20  2  0
 22 23  1  0
 23 24  2  0
 25 23  1  0
 26 27  1  0
 26 25  1  1
 27 20  1  0
 28 30  1  0
 28 26  1  0
 29 28  2  0
M  END
$$$$
