TWN.pdb
     RDKit          3D

 30 31  0  0  1  0  0  0  0  0999 V2000
    7.7987  -16.6233   19.2144 C   0  0  0  0  0  0  0  0  0  0  0  0
    8.1692  -15.1680   19.0286 C   0  0  1  0  0  0  0  0  0  0  0  0
    7.4358  -14.7581   17.8884 O   0  0  0  0  0  0  0  0  0  0  0  0
    7.6964  -14.2839   20.1502 C   0  0  2  0  0  0  0  0  0  0  0  0
    7.7206  -12.9076   19.7307 N   0  0  0  0  0  0  0  0  0  0  0  0
    8.4990  -14.4802   21.4020 C   0  0  0  0  0  0  0  0  0  0  0  0
    9.5873  -13.8690   21.5698 O   0  0  0  0  0  0  0  0  0  0  0  0
    8.0704  -15.3494   22.4319 N   0  0  0  0  0  0  0  0  0  0  0  0
    8.9603  -15.6793   23.5332 C   0  0  1  0  0  0  0  0  0  0  0  0
    8.1395  -16.0027   24.7395 C   0  0  0  0  0  0  0  0  0  0  0  0
    7.1807  -14.9827   25.1609 C   0  0  0  0  0  0  0  0  0  0  0  0
    5.7879  -15.0753   25.0280 C   0  0  0  0  0  0  0  0  0  0  0  0
    5.2421  -13.9687   25.5385 N   0  0  0  0  0  0  0  0  0  0  0  0
    6.2155  -13.1358   26.0093 C   0  0  0  0  0  0  0  0  0  0  0  0
    6.1507  -11.8922   26.6074 C   0  0  0  0  0  0  0  0  0  0  0  0
    7.2903  -11.2287   26.9930 C   0  0  0  0  0  0  0  0  0  0  0  0
    8.4959  -11.8579   26.7578 C   0  0  0  0  0  0  0  0  0  0  0  0
    8.5569  -13.0958   26.1635 C   0  0  0  0  0  0  0  0  0  0  0  0
    7.4067  -13.7724   25.7713 C   0  0  0  0  0  0  0  0  0  0  0  0
   10.0198  -16.6044   23.1601 C   0  0  0  0  0  0  0  0  0  0  0  0
    9.8115  -17.6583   22.4670 O   0  0  0  0  0  0  0  0  0  0  0  0
   14.4486  -18.4088   21.3777 N   0  0  0  0  0  0  0  0  0  0  0  0
   13.4854  -17.6063   20.7061 C   0  0  0  0  0  0  0  0  0  0  0  0
   13.4673  -17.5024   19.4465 O   0  0  0  0  0  0  0  0  0  0  0  0
   12.4526  -16.8460   21.4527 C   0  0  0  0  0  0  0  0  0  0  0  0
   12.4625  -17.2293   22.9625 C   0  0  2  0  0  0  0  0  0  0  0  0
   11.4141  -16.4339   23.5127 N   0  0  0  0  0  0  0  0  0  0  0  0
   13.7970  -17.0739   23.4951 C   0  0  0  0  0  0  0  0  0  0  0  0
   14.7284  -17.8494   23.2210 O   0  0  0  0  0  0  0  0  0  0  0  0
   14.0769  -16.0214   24.3512 O   0  0  0  0  0  0  0  0  0  0  0  0
  2  1  1  1
  2  3  1  0
  4  6  1  0
  4  2  1  0
  4  5  1  6
  6  7  2  0
  8  9  1  0
  8  6  1  0
  9 10  1  1
 10 11  1  0
 11 19  1  0
 12 11  2  0
 12 13  1  0
 13 14  1  0
 14 15  1  0
 15 16  2  0
 17 16  1  0
 18 17  2  0
 19 14  2  0
 19 18  1  0
 20  9  1  0
 21 20  2  0
 22 23  1  0
 23 24  2  0
 25 23  1  0
 26 27  1  0
 26 25  1  6
 27 20  1  0
 28 30  1  0
 28 26  1  0
 29 28  2  0
M  END
$$$$
