TWN.pdb
     RDKit          3D

 30 31  0  0  1  0  0  0  0  0999 V2000
    6.6924  -15.7357   18.3503 C   0  0  0  0  0  0  0  0  0  0  0  0
    7.6102  -15.7568   19.5532 C   0  0  1  0  0  0  0  0  0  0  0  0
    8.8927  -15.4683   19.0258 O   0  0  0  0  0  0  0  0  0  0  0  0
    7.3250  -14.6584   20.5407 C   0  0  2  0  0  0  0  0  0  0  0  0
    7.3319  -13.3850   19.8705 N   0  0  0  0  0  0  0  0  0  0  0  0
    8.2878  -14.6676   21.6908 C   0  0  0  0  0  0  0  0  0  0  0  0
    9.2694  -13.8790   21.7131 O   0  0  0  0  0  0  0  0  0  0  0  0
    8.1333  -15.5521   22.7833 N   0  0  0  0  0  0  0  0  0  0  0  0
    9.1044  -15.5606   23.8653 C   0  0  1  0  0  0  0  0  0  0  0  0
    8.3995  -15.8679   25.1468 C   0  0  0  0  0  0  0  0  0  0  0  0
    7.3543  -14.9290   25.5506 C   0  0  0  0  0  0  0  0  0  0  0  0
    5.9874  -15.2280   25.6426 C   0  0  0  0  0  0  0  0  0  0  0  0
    5.3446  -14.1342   26.0588 N   0  0  0  0  0  0  0  0  0  0  0  0
    6.2277  -13.1112   26.2499 C   0  0  0  0  0  0  0  0  0  0  0  0
    6.0457  -11.8045   26.6595 C   0  0  0  0  0  0  0  0  0  0  0  0
    7.1073  -10.9391   26.7677 C   0  0  0  0  0  0  0  0  0  0  0  0
    8.3569  -11.4321   26.4510 C   0  0  0  0  0  0  0  0  0  0  0  0
    8.5348  -12.7330   26.0448 C   0  0  0  0  0  0  0  0  0  0  0  0
    7.4640  -13.6138   25.9338 C   0  0  0  0  0  0  0  0  0  0  0  0
   10.3096  -16.3130   23.5513 C   0  0  0  0  0  0  0  0  0  0  0  0
   10.2854  -17.4838   23.0385 O   0  0  0  0  0  0  0  0  0  0  0  0
   15.7017  -16.4549   21.8529 N   0  0  0  0  0  0  0  0  0  0  0  0
   15.2699  -16.2022   23.1842 C   0  0  0  0  0  0  0  0  0  0  0  0
   15.9750  -16.5191   24.1842 O   0  0  0  0  0  0  0  0  0  0  0  0
   13.9646  -15.5553   23.4669 C   0  0  0  0  0  0  0  0  0  0  0  0
   12.8209  -16.6114   23.5238 C   0  0  2  0  0  0  0  0  0  0  0  0
   11.6560  -15.8248   23.7665 N   0  0  0  0  0  0  0  0  0  0  0  0
   13.1623  -17.6474   24.4718 C   0  0  0  0  0  0  0  0  0  0  0  0
   12.8726  -17.5814   25.6783 O   0  0  0  0  0  0  0  0  0  0  0  0
   13.8427  -18.7750   24.0420 O   0  0  0  0  0  0  0  0  0  0  0  0
  2  1  1  6
  2  3  1  0
  4  6  1  0
  4  2  1  0
  4  5  1  6
  6  7  2  0
  8  9  1  0
  8  6  1  0
  9 10  1  1
 10 11  1  0
 11 19  1  0
 12 11  2  0
 12 13  1  0
 13 14  1  0
 14 15  1  0
 15 16  2  0
 17 16  1  0
 18 17  2  0
 19 14  2  0
 19 18  1  0
 20  9  1  0
 21 20  2  0
 22 23  1  0
 23 24  2  0
 25 23  1  0
 26 27  1  0
 26 25  1  1
 27 20  1  0
 28 30  1  0
 28 26  1  0
 29 28  2  0
M  END
$$$$
