TWN.pdb
     RDKit          3D

 30 31  0  0  1  0  0  0  0  0999 V2000
    9.0759  -14.1058   20.0068 C   0  0  0  0  0  0  0  0  0  0  0  0
    8.0016  -14.9577   20.6471 C   0  0  1  0  0  0  0  0  0  0  0  0
    7.2003  -15.3920   19.5630 O   0  0  0  0  0  0  0  0  0  0  0  0
    8.5349  -16.2132   21.2815 C   0  0  2  0  0  0  0  0  0  0  0  0
    7.4570  -17.1370   21.5174 N   0  0  0  0  0  0  0  0  0  0  0  0
    9.2898  -15.9312   22.5466 C   0  0  0  0  0  0  0  0  0  0  0  0
   10.3209  -15.2084   22.5318 O   0  0  0  0  0  0  0  0  0  0  0  0
    8.8782  -16.4597   23.7921 N   0  0  0  0  0  0  0  0  0  0  0  0
    9.7085  -16.2895   24.9733 C   0  0  1  0  0  0  0  0  0  0  0  0
    8.8263  -16.1889   26.1755 C   0  0  0  0  0  0  0  0  0  0  0  0
    7.6547  -15.3241   26.0465 C   0  0  0  0  0  0  0  0  0  0  0  0
    6.3472  -15.7629   25.7935 C   0  0  0  0  0  0  0  0  0  0  0  0
    5.5443  -14.6964   25.7618 N   0  0  0  0  0  0  0  0  0  0  0  0
    6.2628  -13.5574   25.9838 C   0  0  0  0  0  0  0  0  0  0  0  0
    5.8867  -12.2292   26.0366 C   0  0  0  0  0  0  0  0  0  0  0  0
    6.8095  -11.2377   26.2670 C   0  0  0  0  0  0  0  0  0  0  0  0
    8.1218  -11.6270   26.4431 C   0  0  0  0  0  0  0  0  0  0  0  0
    8.4926  -12.9494   26.3911 C   0  0  0  0  0  0  0  0  0  0  0  0
    7.5629  -13.9575   26.1586 C   0  0  0  0  0  0  0  0  0  0  0  0
   10.8314  -17.2135   25.0257 C   0  0  0  0  0  0  0  0  0  0  0  0
   11.7853  -17.1987   24.1746 O   0  0  0  0  0  0  0  0  0  0  0  0
   12.5654  -16.8730   28.9540 N   0  0  0  0  0  0  0  0  0  0  0  0
   11.9977  -18.1601   29.1639 C   0  0  0  0  0  0  0  0  0  0  0  0
   11.6201  -18.5426   30.3079 O   0  0  0  0  0  0  0  0  0  0  0  0
   11.8229  -19.1223   28.0478 C   0  0  0  0  0  0  0  0  0  0  0  0
   12.2477  -18.4844   26.6916 C   0  0  2  0  0  0  0  0  0  0  0  0
   11.0039  -18.2320   26.0407 N   0  0  0  0  0  0  0  0  0  0  0  0
   13.2093  -19.3385   26.0325 C   0  0  0  0  0  0  0  0  0  0  0  0
   14.4374  -19.1889   26.1487 O   0  0  0  0  0  0  0  0  0  0  0  0
   12.7685  -20.3780   25.2298 O   0  0  0  0  0  0  0  0  0  0  0  0
  2  1  1  6
  2  3  1  0
  4  6  1  0
  4  2  1  0
  4  5  1  1
  6  7  2  0
  8  9  1  0
  8  6  1  0
  9 10  1  1
 10 11  1  0
 11 19  1  0
 12 11  2  0
 12 13  1  0
 13 14  1  0
 14 15  1  0
 15 16  2  0
 17 16  1  0
 18 17  2  0
 19 14  2  0
 19 18  1  0
 20  9  1  0
 21 20  2  0
 22 23  1  0
 23 24  2  0
 25 23  1  0
 26 27  1  0
 26 25  1  1
 27 20  1  0
 28 30  1  0
 28 26  1  0
 29 28  2  0
M  END
$$$$
