LTY.pdb
     RDKit          3D

 28 28  0  0  1  0  0  0  0  0999 V2000
   34.2073  -25.0972  -17.8076 C   0  0  0  0  0  0  0  0  0  0  0  0
   32.7648  -25.4120  -17.5173 C   0  0  1  0  0  0  0  0  0  0  0  0
   32.7309  -26.4854  -16.4340 C   0  0  0  0  0  0  0  0  0  0  0  0
   31.9969  -24.2016  -17.0879 C   0  0  0  0  0  0  0  0  0  0  0  0
   30.5553  -24.4133  -16.8026 C   0  0  2  0  0  0  0  0  0  0  0  0
   29.8978  -25.1388  -17.8985 N   0  0  0  0  0  0  0  0  0  0  0  0
   29.7467  -23.2745  -16.3992 C   0  0  0  0  0  0  0  0  0  0  0  0
   30.1428  -22.5095  -15.4516 O   0  0  0  0  0  0  0  0  0  0  0  0
   28.0750  -20.6807  -18.7506 C   0  0  0  0  0  0  0  0  0  0  0  0
   27.0190  -21.1201  -17.7574 C   0  0  1  0  0  0  0  0  0  0  0  0
   26.0803  -21.8480  -18.4003 O   0  0  0  0  0  0  0  0  0  0  0  0
   27.7239  -21.7861  -16.6120 C   0  0  2  0  0  0  0  0  0  0  0  0
   28.5111  -22.9269  -16.9991 N   0  0  0  0  0  0  0  0  0  0  0  0
   26.9077  -21.9490  -15.4115 C   0  0  0  0  0  0  0  0  0  0  0  0
   26.4699  -23.0519  -15.0098 O   0  0  0  0  0  0  0  0  0  0  0  0
   22.7787  -20.7712   -7.6952 O   0  0  0  0  0  0  0  0  0  0  0  0
   23.5723  -20.6024   -8.8253 C   0  0  0  0  0  0  0  0  0  0  0  0
   23.0964  -19.9375   -9.9274 C   0  0  0  0  0  0  0  0  0  0  0  0
   23.8959  -19.7763  -11.0470 C   0  0  0  0  0  0  0  0  0  0  0  0
   25.1788  -20.2633  -11.1102 C   0  0  0  0  0  0  0  0  0  0  0  0
   26.0577  -20.1151  -12.2906 C   0  0  0  0  0  0  0  0  0  0  0  0
   25.6799  -21.0241  -13.4125 C   0  0  2  0  0  0  0  0  0  0  0  0
   26.5345  -20.8362  -14.5740 N   0  0  0  0  0  0  0  0  0  0  0  0
   24.2775  -20.8253  -13.7917 C   0  0  0  0  0  0  0  0  0  0  0  0
   23.8684  -19.9957  -14.6262 O   0  0  0  0  0  0  0  0  0  0  0  0
   25.6359  -20.9321   -9.9822 C   0  0  0  0  0  0  0  0  0  0  0  0
   24.8443  -21.0935   -8.8686 C   0  0  0  0  0  0  0  0  0  0  0  0
   23.2887  -21.6223  -13.1807 O   0  0  0  0  0  0  0  0  0  0  0  0
  2  1  1  1
  2  4  1  0
  2  3  1  0
  4  5  1  0
  5  6  1  6
  7  5  1  0
  8  7  2  0
 10  9  1  6
 11 10  1  0
 12 13  1  6
 12 10  1  0
 13  7  1  0
 14 12  1  0
 15 14  2  0
 17 16  1  0
 17 27  2  0
 18 17  1  0
 19 18  2  0
 19 20  1  0
 20 26  2  0
 21 20  1  0
 22 21  1  1
 22 23  1  0
 23 14  1  0
 24 22  1  0
 24 28  1  0
 25 24  2  0
 26 27  1  0
M  END
$$$$
