LTY.pdb
     RDKit          3D

 28 28  0  0  1  0  0  0  0  0999 V2000
   27.1622  -12.7074  -15.4089 C   0  0  0  0  0  0  0  0  0  0  0  0
   27.2860  -13.6668  -16.5615 C   0  0  1  0  0  0  0  0  0  0  0  0
   28.3238  -14.7186  -16.1830 C   0  0  0  0  0  0  0  0  0  0  0  0
   25.9796  -14.3109  -16.9042 C   0  0  0  0  0  0  0  0  0  0  0  0
   26.0268  -15.3584  -17.9554 C   0  0  2  0  0  0  0  0  0  0  0  0
   26.5079  -14.8097  -19.2309 N   0  0  0  0  0  0  0  0  0  0  0  0
   24.8497  -16.1824  -18.1764 C   0  0  0  0  0  0  0  0  0  0  0  0
   23.8513  -15.7142  -18.8275 O   0  0  0  0  0  0  0  0  0  0  0  0
   24.2137  -18.9275  -20.1832 C   0  0  0  0  0  0  0  0  0  0  0  0
   23.7645  -19.4850  -18.8483 C   0  0  1  0  0  0  0  0  0  0  0  0
   24.6424  -20.4281  -18.4429 O   0  0  0  0  0  0  0  0  0  0  0  0
   23.5446  -18.3237  -17.9235 C   0  0  2  0  0  0  0  0  0  0  0  0
   24.7176  -17.5161  -17.7166 N   0  0  0  0  0  0  0  0  0  0  0  0
   22.7665  -18.6407  -16.7284 C   0  0  0  0  0  0  0  0  0  0  0  0
   23.2501  -18.6898  -15.5737 O   0  0  0  0  0  0  0  0  0  0  0  0
   15.8236  -17.3540  -19.4172 O   0  0  0  0  0  0  0  0  0  0  0  0
   16.7600  -17.5321  -18.4039 C   0  0  0  0  0  0  0  0  0  0  0  0
   17.9432  -16.8371  -18.4080 C   0  0  0  0  0  0  0  0  0  0  0  0
   18.8681  -17.0234  -17.3937 C   0  0  0  0  0  0  0  0  0  0  0  0
   18.6528  -17.8950  -16.3539 C   0  0  0  0  0  0  0  0  0  0  0  0
   19.6200  -18.1234  -15.2584 C   0  0  0  0  0  0  0  0  0  0  0  0
   20.6006  -19.2055  -15.5671 C   0  0  2  0  0  0  0  0  0  0  0  0
   21.3540  -18.9251  -16.7790 N   0  0  0  0  0  0  0  0  0  0  0  0
   19.9228  -20.4996  -15.6932 C   0  0  0  0  0  0  0  0  0  0  0  0
   19.2404  -21.0442  -14.8045 O   0  0  0  0  0  0  0  0  0  0  0  0
   17.4482  -18.5858  -16.3737 C   0  0  0  0  0  0  0  0  0  0  0  0
   16.5276  -18.4026  -17.3795 C   0  0  0  0  0  0  0  0  0  0  0  0
   20.0327  -21.2090  -16.9061 O   0  0  0  0  0  0  0  0  0  0  0  0
  2  1  1  1
  2  4  1  0
  2  3  1  0
  4  5  1  0
  5  6  1  6
  7  5  1  0
  8  7  2  0
 10  9  1  6
 11 10  1  0
 12 13  1  1
 12 10  1  0
 13  7  1  0
 14 12  1  0
 15 14  2  0
 17 16  1  0
 17 27  2  0
 18 17  1  0
 19 18  2  0
 19 20  1  0
 20 26  2  0
 21 20  1  0
 22 21  1  6
 22 23  1  0
 23 14  1  0
 24 22  1  0
 24 28  1  0
 25 24  2  0
 26 27  1  0
M  END
$$$$
