LTY.pdb
     RDKit          3D

 28 28  0  0  1  0  0  0  0  0999 V2000
   26.7586  -14.1117  -20.2914 C   0  0  0  0  0  0  0  0  0  0  0  0
   26.7016  -15.6079  -20.1429 C   0  0  1  0  0  0  0  0  0  0  0  0
   28.1116  -16.0994  -19.8316 C   0  0  0  0  0  0  0  0  0  0  0  0
   25.7441  -16.0345  -19.0752 C   0  0  0  0  0  0  0  0  0  0  0  0
   25.6155  -17.4985  -18.8638 C   0  0  2  0  0  0  0  0  0  0  0  0
   25.7619  -18.2326  -20.1284 N   0  0  0  0  0  0  0  0  0  0  0  0
   24.4706  -18.0011  -18.1221 C   0  0  0  0  0  0  0  0  0  0  0  0
   24.1314  -17.4526  -17.0158 O   0  0  0  0  0  0  0  0  0  0  0  0
   20.5060  -20.8909  -17.6351 C   0  0  0  0  0  0  0  0  0  0  0  0
   21.5582  -20.3614  -18.5875 C   0  0  1  0  0  0  0  0  0  0  0  0
   20.9546  -19.6547  -19.5677 O   0  0  0  0  0  0  0  0  0  0  0  0
   22.5876  -19.6388  -17.7687 C   0  0  2  0  0  0  0  0  0  0  0  0
   23.6654  -19.0870  -18.5465 N   0  0  0  0  0  0  0  0  0  0  0  0
   22.9722  -20.3248  -16.5376 C   0  0  0  0  0  0  0  0  0  0  0  0
   24.0553  -20.9367  -16.3891 O   0  0  0  0  0  0  0  0  0  0  0  0
   25.8416  -21.4070   -8.5542 O   0  0  0  0  0  0  0  0  0  0  0  0
   25.3362  -21.0396   -9.7971 C   0  0  0  0  0  0  0  0  0  0  0  0
   25.9298  -21.4741  -10.9555 C   0  0  0  0  0  0  0  0  0  0  0  0
   25.4177  -21.1010  -12.1873 C   0  0  0  0  0  0  0  0  0  0  0  0
   24.3127  -20.2940  -12.3098 C   0  0  0  0  0  0  0  0  0  0  0  0
   23.7429  -19.8710  -13.6076 C   0  0  0  0  0  0  0  0  0  0  0  0
   22.6429  -20.7643  -14.0765 C   0  0  2  0  0  0  0  0  0  0  0  0
   22.1249  -20.3526  -15.3715 N   0  0  0  0  0  0  0  0  0  0  0  0
   21.5530  -20.8036  -13.0965 C   0  0  0  0  0  0  0  0  0  0  0  0
   21.5935  -21.3904  -11.9983 O   0  0  0  0  0  0  0  0  0  0  0  0
   23.7313  -19.8680  -11.1228 C   0  0  0  0  0  0  0  0  0  0  0  0
   24.2375  -20.2372   -9.8980 C   0  0  0  0  0  0  0  0  0  0  0  0
   20.3493  -20.1324  -13.3914 O   0  0  0  0  0  0  0  0  0  0  0  0
  2  1  1  1
  2  4  1  0
  2  3  1  0
  4  5  1  0
  5  6  1  6
  7  5  1  0
  8  7  2  0
 10  9  1  1
 11 10  1  0
 12 13  1  6
 12 10  1  0
 13  7  1  0
 14 12  1  0
 15 14  2  0
 17 16  1  0
 17 27  2  0
 18 17  1  0
 19 18  2  0
 19 20  1  0
 20 26  2  0
 21 20  1  0
 22 21  1  1
 22 23  1  0
 23 14  1  0
 24 22  1  0
 24 28  1  0
 25 24  2  0
 26 27  1  0
M  END
$$$$
