LTY.pdb
     RDKit          3D

 28 28  0  0  1  0  0  0  0  0999 V2000
   16.9255  -15.5269  -14.9534 C   0  0  0  0  0  0  0  0  0  0  0  0
   17.6586  -15.1023  -16.1970 C   0  0  1  0  0  0  0  0  0  0  0  0
   16.6276  -14.5687  -17.1865 C   0  0  0  0  0  0  0  0  0  0  0  0
   18.7039  -14.0701  -15.9129 C   0  0  0  0  0  0  0  0  0  0  0  0
   19.4864  -13.5975  -17.0829 C   0  0  2  0  0  0  0  0  0  0  0  0
   20.3746  -14.6531  -17.5892 N   0  0  0  0  0  0  0  0  0  0  0  0
   20.2094  -12.3405  -16.9804 C   0  0  0  0  0  0  0  0  0  0  0  0
   21.3850  -12.3156  -16.4730 O   0  0  0  0  0  0  0  0  0  0  0  0
   20.9620   -9.8355  -19.6654 C   0  0  0  0  0  0  0  0  0  0  0  0
   20.3779   -9.0074  -18.5394 C   0  0  1  0  0  0  0  0  0  0  0  0
   19.1742   -8.5269  -18.9198 O   0  0  0  0  0  0  0  0  0  0  0  0
   20.4083   -9.8479  -17.2964 C   0  0  2  0  0  0  0  0  0  0  0  0
   19.6994  -11.0941  -17.4207 N   0  0  0  0  0  0  0  0  0  0  0  0
   20.1856   -9.1053  -16.0582 C   0  0  0  0  0  0  0  0  0  0  0  0
   19.1280   -9.1653  -15.3893 O   0  0  0  0  0  0  0  0  0  0  0  0
   25.7035   -4.0364  -16.7424 O   0  0  0  0  0  0  0  0  0  0  0  0
   24.8548   -4.8160  -15.9632 C   0  0  0  0  0  0  0  0  0  0  0  0
   24.8918   -6.1858  -16.0358 C   0  0  0  0  0  0  0  0  0  0  0  0
   24.0412   -6.9515  -15.2553 C   0  0  0  0  0  0  0  0  0  0  0  0
   23.1362   -6.3906  -14.3872 C   0  0  0  0  0  0  0  0  0  0  0  0
   22.2093   -7.1766  -13.5441 C   0  0  0  0  0  0  0  0  0  0  0  0
   20.9380   -7.5214  -14.2461 C   0  0  2  0  0  0  0  0  0  0  0  0
   21.1817   -8.2299  -15.4925 N   0  0  0  0  0  0  0  0  0  0  0  0
   20.1464   -6.3153  -14.5082 C   0  0  0  0  0  0  0  0  0  0  0  0
   19.9457   -5.8164  -15.6320 O   0  0  0  0  0  0  0  0  0  0  0  0
   23.1189   -5.0030  -14.3331 C   0  0  0  0  0  0  0  0  0  0  0  0
   23.9626   -4.2401  -15.1068 C   0  0  0  0  0  0  0  0  0  0  0  0
   19.5508   -5.6438  -13.4216 O   0  0  0  0  0  0  0  0  0  0  0  0
  2  1  1  1
  2  4  1  0
  2  3  1  0
  4  5  1  0
  5  6  1  1
  7  5  1  0
  8  7  2  0
 10  9  1  6
 11 10  1  0
 12 13  1  6
 12 10  1  0
 13  7  1  0
 14 12  1  0
 15 14  2  0
 17 16  1  0
 17 27  2  0
 18 17  1  0
 19 18  2  0
 19 20  1  0
 20 26  2  0
 21 20  1  0
 22 21  1  6
 22 23  1  0
 23 14  1  0
 24 22  1  0
 24 28  1  0
 25 24  2  0
 26 27  1  0
M  END
$$$$
