LTY.pdb
     RDKit          3D

 28 28  0  0  1  0  0  0  0  0999 V2000
   17.8497  -13.5843  -20.2747 C   0  0  0  0  0  0  0  0  0  0  0  0
   19.0242  -13.6158  -19.3346 C   0  0  1  0  0  0  0  0  0  0  0  0
   20.2933  -13.6967  -20.1769 C   0  0  0  0  0  0  0  0  0  0  0  0
   19.0608  -12.4207  -18.4349 C   0  0  0  0  0  0  0  0  0  0  0  0
   20.1353  -12.4107  -17.4102 C   0  0  2  0  0  0  0  0  0  0  0  0
   20.1336  -13.6539  -16.6267 N   0  0  0  0  0  0  0  0  0  0  0  0
   20.2500  -11.2616  -16.5270 C   0  0  0  0  0  0  0  0  0  0  0  0
   19.3504  -11.0389  -15.6432 O   0  0  0  0  0  0  0  0  0  0  0  0
   22.7064  -10.4255  -14.0126 C   0  0  0  0  0  0  0  0  0  0  0  0
   22.6987   -9.1825  -14.8783 C   0  0  1  0  0  0  0  0  0  0  0  0
   23.8594   -9.1128  -15.5655 O   0  0  0  0  0  0  0  0  0  0  0  0
   21.4344   -9.2016  -15.6868 C   0  0  2  0  0  0  0  0  0  0  0  0
   21.3232  -10.3373  -16.5637 N   0  0  0  0  0  0  0  0  0  0  0  0
   21.0637   -7.9106  -16.2610 C   0  0  0  0  0  0  0  0  0  0  0  0
   21.3284   -7.5680  -17.4366 O   0  0  0  0  0  0  0  0  0  0  0  0
   13.9500   -7.2976  -16.6777 O   0  0  0  0  0  0  0  0  0  0  0  0
   15.2750   -6.9117  -16.8524 C   0  0  0  0  0  0  0  0  0  0  0  0
   16.2164   -7.8057  -17.2969 C   0  0  0  0  0  0  0  0  0  0  0  0
   17.5330   -7.4098  -17.4664 C   0  0  0  0  0  0  0  0  0  0  0  0
   17.9548   -6.1290  -17.2037 C   0  0  0  0  0  0  0  0  0  0  0  0
   19.3524   -5.6735  -17.3673 C   0  0  0  0  0  0  0  0  0  0  0  0
   20.0908   -5.5918  -16.0727 C   0  0  2  0  0  0  0  0  0  0  0  0
   20.3482   -6.9083  -15.5111 N   0  0  0  0  0  0  0  0  0  0  0  0
   19.3516   -4.7758  -15.1043 C   0  0  0  0  0  0  0  0  0  0  0  0
   18.8424   -5.1972  -14.0483 O   0  0  0  0  0  0  0  0  0  0  0  0
   16.9828   -5.2444  -16.7550 C   0  0  0  0  0  0  0  0  0  0  0  0
   15.6745   -5.6347  -16.5860 C   0  0  0  0  0  0  0  0  0  0  0  0
   19.1873   -3.3996  -15.3603 O   0  0  0  0  0  0  0  0  0  0  0  0
  2  1  1  6
  2  4  1  0
  2  3  1  0
  4  5  1  0
  5  6  1  1
  7  5  1  0
  8  7  2  0
 10  9  1  6
 11 10  1  0
 12 13  1  6
 12 10  1  0
 13  7  1  0
 14 12  1  0
 15 14  2  0
 17 16  1  0
 17 27  2  0
 18 17  1  0
 19 18  2  0
 19 20  1  0
 20 26  2  0
 21 20  1  0
 22 21  1  6
 22 23  1  0
 23 14  1  0
 24 22  1  0
 24 28  1  0
 25 24  2  0
 26 27  1  0
M  END
$$$$
