LTY.pdb
     RDKit          3D

 28 28  0  0  1  0  0  0  0  0999 V2000
   27.5686  -20.3448  -21.4910 C   0  0  0  0  0  0  0  0  0  0  0  0
   27.0682  -20.9732  -20.2187 C   0  0  1  0  0  0  0  0  0  0  0  0
   26.6840  -22.4159  -20.5311 C   0  0  0  0  0  0  0  0  0  0  0  0
   28.0865  -20.9214  -19.1235 C   0  0  0  0  0  0  0  0  0  0  0  0
   27.8075  -21.7669  -17.9353 C   0  0  2  0  0  0  0  0  0  0  0  0
   26.4313  -22.2816  -17.9610 N   0  0  0  0  0  0  0  0  0  0  0  0
   28.1233  -21.2459  -16.6154 C   0  0  0  0  0  0  0  0  0  0  0  0
   29.2656  -20.7116  -16.3925 O   0  0  0  0  0  0  0  0  0  0  0  0
   26.5237  -18.4673  -15.0212 C   0  0  0  0  0  0  0  0  0  0  0  0
   27.7603  -19.1245  -14.4437 C   0  0  1  0  0  0  0  0  0  0  0  0
   28.1459  -18.4511  -13.3382 O   0  0  0  0  0  0  0  0  0  0  0  0
   27.4600  -20.5853  -14.2752 C   0  0  2  0  0  0  0  0  0  0  0  0
   27.2303  -21.2776  -15.5158 N   0  0  0  0  0  0  0  0  0  0  0  0
   26.5313  -20.8909  -13.1899 C   0  0  0  0  0  0  0  0  0  0  0  0
   25.3053  -21.0883  -13.3555 O   0  0  0  0  0  0  0  0  0  0  0  0
   28.2577  -18.2233   -5.6425 O   0  0  0  0  0  0  0  0  0  0  0  0
   27.8719  -19.1435   -6.6119 C   0  0  0  0  0  0  0  0  0  0  0  0
   26.5522  -19.2911   -6.9576 C   0  0  0  0  0  0  0  0  0  0  0  0
   26.1803  -20.2113   -7.9239 C   0  0  0  0  0  0  0  0  0  0  0  0
   27.0942  -21.0064   -8.5719 C   0  0  0  0  0  0  0  0  0  0  0  0
   26.7323  -22.0029   -9.6033 C   0  0  0  0  0  0  0  0  0  0  0  0
   26.0275  -21.3982  -10.7717 C   0  0  2  0  0  0  0  0  0  0  0  0
   26.9559  -20.9953  -11.8160 N   0  0  0  0  0  0  0  0  0  0  0  0
   25.2225  -20.2464  -10.3529 C   0  0  0  0  0  0  0  0  0  0  0  0
   24.1297  -20.3103   -9.7583 O   0  0  0  0  0  0  0  0  0  0  0  0
   28.4224  -20.8375   -8.2034 C   0  0  0  0  0  0  0  0  0  0  0  0
   28.7948  -19.9243   -7.2443 C   0  0  0  0  0  0  0  0  0  0  0  0
   25.6970  -18.9487  -10.6306 O   0  0  0  0  0  0  0  0  0  0  0  0
  2  1  1  6
  2  4  1  0
  2  3  1  0
  4  5  1  0
  5  6  1  1
  7  5  1  0
  8  7  2  0
 10  9  1  1
 11 10  1  0
 12 13  1  6
 12 10  1  0
 13  7  1  0
 14 12  1  0
 15 14  2  0
 17 16  1  0
 17 27  2  0
 18 17  1  0
 19 18  2  0
 19 20  1  0
 20 26  2  0
 21 20  1  0
 22 21  1  1
 22 23  1  0
 23 14  1  0
 24 22  1  0
 24 28  1  0
 25 24  2  0
 26 27  1  0
M  END
$$$$
