LTY.pdb
     RDKit          3D

 28 28  0  0  1  0  0  0  0  0999 V2000
   27.9320  -28.4333  -16.7541 C   0  0  0  0  0  0  0  0  0  0  0  0
   27.5602  -27.2579  -17.6167 C   0  0  1  0  0  0  0  0  0  0  0  0
   26.0401  -27.2326  -17.7399 C   0  0  0  0  0  0  0  0  0  0  0  0
   28.0682  -25.9649  -17.0607 C   0  0  0  0  0  0  0  0  0  0  0  0
   27.7164  -24.7437  -17.8285 C   0  0  2  0  0  0  0  0  0  0  0  0
   28.4659  -24.6755  -19.0906 N   0  0  0  0  0  0  0  0  0  0  0  0
   27.7537  -23.4569  -17.1531 C   0  0  0  0  0  0  0  0  0  0  0  0
   28.8588  -22.8182  -17.0492 O   0  0  0  0  0  0  0  0  0  0  0  0
   27.0409  -20.2928  -17.8670 C   0  0  0  0  0  0  0  0  0  0  0  0
   26.1916  -20.4008  -16.6174 C   0  0  1  0  0  0  0  0  0  0  0  0
   24.8864  -20.3875  -16.9651 O   0  0  0  0  0  0  0  0  0  0  0  0
   26.6732  -21.5936  -15.8443 C   0  0  2  0  0  0  0  0  0  0  0  0
   26.6192  -22.8262  -16.5852 N   0  0  0  0  0  0  0  0  0  0  0  0
   26.1952  -21.6541  -14.4651 C   0  0  0  0  0  0  0  0  0  0  0  0
   25.2614  -22.3963  -14.0823 O   0  0  0  0  0  0  0  0  0  0  0  0
   25.3022  -20.3893   -5.7135 O   0  0  0  0  0  0  0  0  0  0  0  0
   25.7462  -20.3516   -7.0313 C   0  0  0  0  0  0  0  0  0  0  0  0
   25.9232  -21.5081   -7.7484 C   0  0  0  0  0  0  0  0  0  0  0  0
   26.3664  -21.4578   -9.0599 C   0  0  0  0  0  0  0  0  0  0  0  0
   26.6455  -20.2728   -9.6963 C   0  0  0  0  0  0  0  0  0  0  0  0
   27.1260  -20.1821  -11.0922 C   0  0  0  0  0  0  0  0  0  0  0  0
   26.2518  -20.9147  -12.0550 C   0  0  2  0  0  0  0  0  0  0  0  0
   26.7699  -20.8539  -13.4125 N   0  0  0  0  0  0  0  0  0  0  0  0
   24.8851  -20.3846  -12.0219 C   0  0  0  0  0  0  0  0  0  0  0  0
   23.9787  -20.7783  -11.2634 O   0  0  0  0  0  0  0  0  0  0  0  0
   26.4584  -19.1176   -8.9485 C   0  0  0  0  0  0  0  0  0  0  0  0
   26.0181  -19.1644   -7.6460 C   0  0  0  0  0  0  0  0  0  0  0  0
   24.5380  -19.3445  -12.9074 O   0  0  0  0  0  0  0  0  0  0  0  0
  2  1  1  1
  2  4  1  0
  2  3  1  0
  4  5  1  0
  5  6  1  6
  7  5  1  0
  8  7  2  0
 10  9  1  6
 11 10  1  0
 12 13  1  6
 12 10  1  0
 13  7  1  0
 14 12  1  0
 15 14  2  0
 17 16  1  0
 17 27  2  0
 18 17  1  0
 19 18  2  0
 19 20  1  0
 20 26  2  0
 21 20  1  0
 22 21  1  1
 22 23  1  0
 23 14  1  0
 24 22  1  0
 24 28  1  0
 25 24  2  0
 26 27  1  0
M  END
$$$$
