LTY.pdb
     RDKit          3D

 28 28  0  0  1  0  0  0  0  0999 V2000
   24.5803  -23.3778  -19.1912 C   0  0  0  0  0  0  0  0  0  0  0  0
   23.8180  -22.9003  -17.9849 C   0  0  1  0  0  0  0  0  0  0  0  0
   22.6321  -23.8379  -17.7818 C   0  0  0  0  0  0  0  0  0  0  0  0
   24.6726  -22.8537  -16.7575 C   0  0  0  0  0  0  0  0  0  0  0  0
   25.7975  -21.8849  -16.7846 C   0  0  2  0  0  0  0  0  0  0  0  0
   26.7707  -22.2300  -17.8301 N   0  0  0  0  0  0  0  0  0  0  0  0
   26.4853  -21.5755  -15.5418 C   0  0  0  0  0  0  0  0  0  0  0  0
   27.4940  -22.2742  -15.1753 O   0  0  0  0  0  0  0  0  0  0  0  0
   28.2528  -18.6256  -14.4794 C   0  0  0  0  0  0  0  0  0  0  0  0
   27.3091  -18.8441  -13.3148 C   0  0  1  0  0  0  0  0  0  0  0  0
   26.4014  -17.8444  -13.2853 O   0  0  0  0  0  0  0  0  0  0  0  0
   26.7727  -20.2416  -13.4227 C   0  0  2  0  0  0  0  0  0  0  0  0
   26.1181  -20.5171  -14.6744 N   0  0  0  0  0  0  0  0  0  0  0  0
   26.0902  -20.7221  -12.2238 C   0  0  0  0  0  0  0  0  0  0  0  0
   24.8571  -20.9340  -12.1606 O   0  0  0  0  0  0  0  0  0  0  0  0
   28.6110  -18.0999   -4.9087 O   0  0  0  0  0  0  0  0  0  0  0  0
   28.2032  -19.0475   -5.8418 C   0  0  0  0  0  0  0  0  0  0  0  0
   27.2996  -20.0240   -5.5054 C   0  0  0  0  0  0  0  0  0  0  0  0
   26.9015  -20.9626   -6.4432 C   0  0  0  0  0  0  0  0  0  0  0  0
   27.3806  -20.9640   -7.7307 C   0  0  0  0  0  0  0  0  0  0  0  0
   26.9827  -21.9536   -8.7554 C   0  0  0  0  0  0  0  0  0  0  0  0
   26.0714  -21.3821   -9.7902 C   0  0  2  0  0  0  0  0  0  0  0  0
   26.7909  -20.9996  -10.9947 N   0  0  0  0  0  0  0  0  0  0  0  0
   25.3438  -20.2252   -9.2590 C   0  0  0  0  0  0  0  0  0  0  0  0
   24.4016  -20.2791   -8.4458 O   0  0  0  0  0  0  0  0  0  0  0  0
   28.2936  -19.9658   -8.0450 C   0  0  0  0  0  0  0  0  0  0  0  0
   28.6906  -19.0322   -7.1159 C   0  0  0  0  0  0  0  0  0  0  0  0
   25.7173  -18.9342   -9.6833 O   0  0  0  0  0  0  0  0  0  0  0  0
  2  1  1  6
  2  4  1  0
  2  3  1  0
  4  5  1  0
  5  6  1  6
  7  5  1  0
  8  7  2  0
 10  9  1  6
 11 10  1  0
 12 13  1  6
 12 10  1  0
 13  7  1  0
 14 12  1  0
 15 14  2  0
 17 16  1  0
 17 27  2  0
 18 17  1  0
 19 18  2  0
 19 20  1  0
 20 26  2  0
 21 20  1  0
 22 21  1  1
 22 23  1  0
 23 14  1  0
 24 22  1  0
 24 28  1  0
 25 24  2  0
 26 27  1  0
M  END
$$$$
