LTY.pdb
     RDKit          3D

 28 28  0  0  1  0  0  0  0  0999 V2000
   27.3151  -17.5081  -22.6299 C   0  0  0  0  0  0  0  0  0  0  0  0
   27.8361  -17.7964  -21.2481 C   0  0  1  0  0  0  0  0  0  0  0  0
   28.1940  -16.4640  -20.5975 C   0  0  0  0  0  0  0  0  0  0  0  0
   26.8438  -18.5437  -20.4138 C   0  0  0  0  0  0  0  0  0  0  0  0
   26.9017  -18.2909  -18.9519 C   0  0  2  0  0  0  0  0  0  0  0  0
   28.2893  -18.1330  -18.4947 N   0  0  0  0  0  0  0  0  0  0  0  0
   26.1775  -19.1800  -18.0582 C   0  0  0  0  0  0  0  0  0  0  0  0
   24.9980  -19.5750  -18.3628 O   0  0  0  0  0  0  0  0  0  0  0  0
   27.9451  -22.1089  -16.2309 C   0  0  0  0  0  0  0  0  0  0  0  0
   26.9546  -21.5298  -15.2418 C   0  0  1  0  0  0  0  0  0  0  0  0
   27.6291  -20.9719  -14.2131 O   0  0  0  0  0  0  0  0  0  0  0  0
   26.0236  -20.6338  -16.0052 C   0  0  2  0  0  0  0  0  0  0  0  0
   26.6963  -19.6682  -16.8335 N   0  0  0  0  0  0  0  0  0  0  0  0
   24.8924  -20.1335  -15.2280 C   0  0  0  0  0  0  0  0  0  0  0  0
   24.8847  -19.0272  -14.6401 O   0  0  0  0  0  0  0  0  0  0  0  0
   19.4279  -20.5131  -19.9019 O   0  0  0  0  0  0  0  0  0  0  0  0
   20.0527  -20.1767  -18.7054 C   0  0  0  0  0  0  0  0  0  0  0  0
   21.3269  -19.6674  -18.6948 C   0  0  0  0  0  0  0  0  0  0  0  0
   21.9387  -19.3367  -17.4969 C   0  0  0  0  0  0  0  0  0  0  0  0
   21.3146  -19.4982  -16.2838 C   0  0  0  0  0  0  0  0  0  0  0  0
   21.9395  -19.1619  -14.9860 C   0  0  0  0  0  0  0  0  0  0  0  0
   22.5520  -20.3453  -14.3135 C   0  0  2  0  0  0  0  0  0  0  0  0
   23.6700  -20.8821  -15.0728 N   0  0  0  0  0  0  0  0  0  0  0  0
   21.5510  -21.3946  -14.0965 C   0  0  0  0  0  0  0  0  0  0  0  0
   21.6084  -22.5503  -14.5578 O   0  0  0  0  0  0  0  0  0  0  0  0
   20.0264  -20.0154  -16.3223 C   0  0  0  0  0  0  0  0  0  0  0  0
   19.4160  -20.3445  -17.5105 C   0  0  0  0  0  0  0  0  0  0  0  0
   20.4212  -21.1030  -13.3060 O   0  0  0  0  0  0  0  0  0  0  0  0
  2  1  1  6
  2  4  1  0
  2  3  1  0
  4  5  1  0
  5  6  1  1
  7  5  1  0
  8  7  2  0
 10  9  1  6
 11 10  1  0
 12 13  1  1
 12 10  1  0
 13  7  1  0
 14 12  1  0
 15 14  2  0
 17 16  1  0
 17 27  2  0
 18 17  1  0
 19 18  2  0
 19 20  1  0
 20 26  2  0
 21 20  1  0
 22 21  1  6
 22 23  1  0
 23 14  1  0
 24 22  1  0
 24 28  1  0
 25 24  2  0
 26 27  1  0
M  END
$$$$
