LTY.pdb
     RDKit          3D

 28 28  0  0  1  0  0  0  0  0999 V2000
   25.3561  -16.3785  -21.5719 C   0  0  0  0  0  0  0  0  0  0  0  0
   24.5140  -15.4308  -20.7614 C   0  0  1  0  0  0  0  0  0  0  0  0
   24.2045  -16.1055  -19.4289 C   0  0  0  0  0  0  0  0  0  0  0  0
   25.1928  -14.1152  -20.5441 C   0  0  0  0  0  0  0  0  0  0  0  0
   24.3832  -13.0690  -19.8699 C   0  0  2  0  0  0  0  0  0  0  0  0
   22.9486  -13.2620  -20.1234 N   0  0  0  0  0  0  0  0  0  0  0  0
   24.7427  -11.6734  -20.0614 C   0  0  0  0  0  0  0  0  0  0  0  0
   25.9442  -11.2850  -19.8481 O   0  0  0  0  0  0  0  0  0  0  0  0
   23.8954   -9.6578  -23.1832 C   0  0  0  0  0  0  0  0  0  0  0  0
   23.5446   -8.7608  -22.0141 C   0  0  1  0  0  0  0  0  0  0  0  0
   22.2032   -8.6147  -21.9533 O   0  0  0  0  0  0  0  0  0  0  0  0
   24.2198   -9.3198  -20.7959 C   0  0  2  0  0  0  0  0  0  0  0  0
   23.8357  -10.6723  -20.4885 N   0  0  0  0  0  0  0  0  0  0  0  0
   24.2840   -8.3992  -19.6635 C   0  0  0  0  0  0  0  0  0  0  0  0
   23.4569   -8.3919  -18.7226 O   0  0  0  0  0  0  0  0  0  0  0  0
   27.6062  -11.9463  -15.7670 O   0  0  0  0  0  0  0  0  0  0  0  0
   27.3861  -10.6552  -16.2360 C   0  0  0  0  0  0  0  0  0  0  0  0
   28.0924  -10.1641  -17.3052 C   0  0  0  0  0  0  0  0  0  0  0  0
   27.8648   -8.8767  -17.7627 C   0  0  0  0  0  0  0  0  0  0  0  0
   26.9398   -8.0432  -17.1821 C   0  0  0  0  0  0  0  0  0  0  0  0
   26.6754   -6.6619  -17.6402 C   0  0  0  0  0  0  0  0  0  0  0  0
   25.3813   -6.5317  -18.3724 C   0  0  2  0  0  0  0  0  0  0  0  0
   25.3231   -7.4086  -19.5310 N   0  0  0  0  0  0  0  0  0  0  0  0
   25.1585   -5.1438  -18.7896 C   0  0  0  0  0  0  0  0  0  0  0  0
   25.1056   -4.7467  -19.9692 O   0  0  0  0  0  0  0  0  0  0  0  0
   26.2391   -8.5643  -16.1023 C   0  0  0  0  0  0  0  0  0  0  0  0
   26.4628   -9.8426  -15.6458 C   0  0  0  0  0  0  0  0  0  0  0  0
   24.9860   -4.1558  -17.7994 O   0  0  0  0  0  0  0  0  0  0  0  0
  2  1  1  6
  2  4  1  0
  2  3  1  0
  4  5  1  0
  5  6  1  6
  7  5  1  0
  8  7  2  0
 10  9  1  6
 11 10  1  0
 12 13  1  1
 12 10  1  0
 13  7  1  0
 14 12  1  0
 15 14  2  0
 17 16  1  0
 17 27  2  0
 18 17  1  0
 19 18  2  0
 19 20  1  0
 20 26  2  0
 21 20  1  0
 22 21  1  6
 22 23  1  0
 23 14  1  0
 24 22  1  0
 24 28  1  0
 25 24  2  0
 26 27  1  0
M  END
$$$$
