TKC.pdb
     RDKit          3D

 23 22  0  0  1  0  0  0  0  0999 V2000
    6.2555  -18.8043   16.3657 C   0  0  0  0  0  0  0  0  0  0  0  0
    7.1457  -18.7556   17.5768 C   0  0  1  0  0  0  0  0  0  0  0  0
    6.5122  -18.0939   18.6497 O   0  0  0  0  0  0  0  0  0  0  0  0
    7.5056  -20.1329   18.0950 C   0  0  2  0  0  0  0  0  0  0  0  0
    6.3246  -20.9263   18.3660 N   0  0  0  0  0  0  0  0  0  0  0  0
    8.4216  -20.0526   19.2638 C   0  0  0  0  0  0  0  0  0  0  0  0
    7.9349  -20.2095   20.3925 O   0  0  0  0  0  0  0  0  0  0  0  0
    9.8026  -19.8050   19.0911 N   0  0  0  0  0  0  0  0  0  0  0  0
   10.7272  -19.7114   20.2564 C   0  0  1  0  0  0  0  0  0  0  0  0
   12.0882  -19.9557   19.7013 C   0  0  0  0  0  0  0  0  0  0  0  0
   13.2340  -19.9185   20.6386 C   0  0  0  0  0  0  0  0  0  0  0  0
   14.5746  -20.0794   19.9885 C   0  0  0  0  0  0  0  0  0  0  0  0
   15.6583  -20.1475   21.0502 C   0  0  0  0  0  0  0  0  0  0  0  0
   16.9506  -20.3437   20.4402 N   0  0  0  0  0  0  0  0  0  0  0  0
   10.4936  -18.3832   20.8431 C   0  0  0  0  0  0  0  0  0  0  0  0
   10.1328  -17.4419   20.0872 O   0  0  0  0  0  0  0  0  0  0  0  0
   10.6465  -18.0870   22.2209 N   0  0  0  0  0  0  0  0  0  0  0  0
   10.4556  -16.7399   22.7482 C   0  0  1  0  0  0  0  0  0  0  0  0
    9.0464  -16.5556   23.2672 C   0  0  0  0  0  0  0  0  0  0  0  0
    8.8645  -14.9919   24.1464 S   0  0  0  0  0  0  0  0  0  0  0  0
   11.3974  -16.5266   23.8492 C   0  0  0  0  0  0  0  0  0  0  0  0
   11.5939  -15.2219   24.3125 O   0  0  0  0  0  0  0  0  0  0  0  0
   12.0490  -17.4420   24.4138 O   0  0  0  0  0  0  0  0  0  0  0  0
  2  1  1  6
  2  4  1  0
  3  2  1  0
  4  6  1  0
  4  5  1  1
  6  8  1  0
  7  6  2  0
  8  9  1  0
  9 10  1  6
 10 11  1  0
 11 12  1  0
 12 13  1  0
 13 14  1  0
 15 17  1  0
 15  9  1  0
 16 15  2  0
 18 17  1  0
 18 19  1  1
 19 20  1  0
 21 18  1  0
 22 21  1  0
 23 21  2  0
M  END
$$$$
