TKC.pdb
     RDKit          3D

 23 22  0  0  1  0  0  0  0  0999 V2000
   10.4289  -14.2975   18.0616 C   0  0  0  0  0  0  0  0  0  0  0  0
    9.7659  -14.4635   19.4012 C   0  0  1  0  0  0  0  0  0  0  0  0
   10.3855  -13.6589   20.3805 O   0  0  0  0  0  0  0  0  0  0  0  0
    8.3083  -14.0507   19.3885 C   0  0  2  0  0  0  0  0  0  0  0  0
    8.1424  -12.6934   18.9108 N   0  0  0  0  0  0  0  0  0  0  0  0
    7.6679  -14.2737   20.7120 C   0  0  0  0  0  0  0  0  0  0  0  0
    7.3702  -13.2776   21.3863 O   0  0  0  0  0  0  0  0  0  0  0  0
    7.4077  -15.5805   21.1841 N   0  0  0  0  0  0  0  0  0  0  0  0
    6.7308  -15.8143   22.4913 C   0  0  1  0  0  0  0  0  0  0  0  0
    6.2159  -17.2110   22.4251 C   0  0  0  0  0  0  0  0  0  0  0  0
    4.9945  -17.4605   21.6259 C   0  0  0  0  0  0  0  0  0  0  0  0
    4.6388  -18.9076   21.4689 C   0  0  0  0  0  0  0  0  0  0  0  0
    3.3262  -19.0380   20.7165 C   0  0  0  0  0  0  0  0  0  0  0  0
    3.0395  -20.4240   20.4383 N   0  0  0  0  0  0  0  0  0  0  0  0
    7.7475  -15.5447   23.5190 C   0  0  0  0  0  0  0  0  0  0  0  0
    8.9454  -15.8561   23.2827 O   0  0  0  0  0  0  0  0  0  0  0  0
    7.4676  -14.9475   24.7738 N   0  0  0  0  0  0  0  0  0  0  0  0
    8.4917  -14.7907   25.8014 C   0  0  1  0  0  0  0  0  0  0  0  0
    8.0291  -13.8447   26.8879 C   0  0  0  0  0  0  0  0  0  0  0  0
    7.3912  -12.3060   26.1977 S   0  0  0  0  0  0  0  0  0  0  0  0
    8.7652  -16.0998   26.3982 C   0  0  0  0  0  0  0  0  0  0  0  0
    9.7974  -16.2001   27.3363 O   0  0  0  0  0  0  0  0  0  0  0  0
    8.1318  -17.1512   26.1249 O   0  0  0  0  0  0  0  0  0  0  0  0
  2  1  1  6
  2  4  1  0
  3  2  1  0
  4  6  1  0
  4  5  1  1
  6  8  1  0
  7  6  2  0
  8  9  1  0
  9 10  1  6
 10 11  1  0
 11 12  1  0
 12 13  1  0
 13 14  1  0
 15 17  1  0
 15  9  1  0
 16 15  2  0
 18 17  1  0
 18 19  1  1
 19 20  1  0
 21 18  1  0
 22 21  1  0
 23 21  2  0
M  END
$$$$
