TKC.pdb
     RDKit          3D

 23 22  0  0  1  0  0  0  0  0999 V2000
   13.6159  -17.7576   20.6830 C   0  0  0  0  0  0  0  0  0  0  0  0
   12.6540  -17.1084   21.6395 C   0  0  1  0  0  0  0  0  0  0  0  0
   13.0914  -15.8183   22.0065 O   0  0  0  0  0  0  0  0  0  0  0  0
   11.2726  -16.9233   21.0456 C   0  0  2  0  0  0  0  0  0  0  0  0
   11.2496  -15.8505   20.0728 N   0  0  0  0  0  0  0  0  0  0  0  0
   10.2424  -16.7572   22.1051 C   0  0  0  0  0  0  0  0  0  0  0  0
    9.8353  -15.6111   22.3421 O   0  0  0  0  0  0  0  0  0  0  0  0
    9.7446  -17.8718   22.8179 N   0  0  0  0  0  0  0  0  0  0  0  0
    8.7310  -17.7135   23.8991 C   0  0  1  0  0  0  0  0  0  0  0  0
    8.1202  -19.0620   24.0684 C   0  0  0  0  0  0  0  0  0  0  0  0
    7.1967  -19.2646   25.2081 C   0  0  0  0  0  0  0  0  0  0  0  0
    6.6788  -20.6638   25.3478 C   0  0  0  0  0  0  0  0  0  0  0  0
    5.7952  -20.7668   26.5785 C   0  0  0  0  0  0  0  0  0  0  0  0
    5.3202  -22.1183   26.7470 N   0  0  0  0  0  0  0  0  0  0  0  0
    9.4653  -17.1828   25.0575 C   0  0  0  0  0  0  0  0  0  0  0  0
   10.5830  -17.6864   25.3489 O   0  0  0  0  0  0  0  0  0  0  0  0
    8.9955  -16.1268   25.8782 N   0  0  0  0  0  0  0  0  0  0  0  0
    9.7654  -15.6278   27.0129 C   0  0  1  0  0  0  0  0  0  0  0  0
    9.1171  -14.3975   27.6089 C   0  0  0  0  0  0  0  0  0  0  0  0
   10.1811  -13.6193   28.8390 S   0  0  0  0  0  0  0  0  0  0  0  0
    9.8279  -16.6732   28.0365 C   0  0  0  0  0  0  0  0  0  0  0  0
   10.9846  -16.7718   28.8161 O   0  0  0  0  0  0  0  0  0  0  0  0
    8.9064  -17.4972   28.2673 O   0  0  0  0  0  0  0  0  0  0  0  0
  2  1  1  6
  2  4  1  0
  3  2  1  0
  4  6  1  0
  4  5  1  6
  6  8  1  0
  7  6  2  0
  8  9  1  0
  9 10  1  1
 10 11  1  0
 11 12  1  0
 12 13  1  0
 13 14  1  0
 15 17  1  0
 15  9  1  0
 16 15  2  0
 18 17  1  0
 18 19  1  1
 19 20  1  0
 21 18  1  0
 22 21  1  0
 23 21  2  0
M  END
$$$$
