TKC.pdb
     RDKit          3D

 23 22  0  0  1  0  0  0  0  0999 V2000
   11.6777  -18.0853   16.9449 C   0  0  0  0  0  0  0  0  0  0  0  0
   11.1687  -19.4931   16.8020 C   0  0  1  0  0  0  0  0  0  0  0  0
   11.6136  -20.3071   17.8650 O   0  0  0  0  0  0  0  0  0  0  0  0
    9.6561  -19.5742   16.8242 C   0  0  2  0  0  0  0  0  0  0  0  0
    9.0700  -18.9217   15.6716 N   0  0  0  0  0  0  0  0  0  0  0  0
    9.1028  -19.0708   18.1095 C   0  0  0  0  0  0  0  0  0  0  0  0
    8.8250  -17.8657   18.1878 O   0  0  0  0  0  0  0  0  0  0  0  0
    8.9009  -19.9402   19.2057 N   0  0  0  0  0  0  0  0  0  0  0  0
    8.2371  -19.4736   20.4560 C   0  0  1  0  0  0  0  0  0  0  0  0
    7.6622  -20.6990   21.0789 C   0  0  0  0  0  0  0  0  0  0  0  0
    6.2258  -20.9800   20.8539 C   0  0  0  0  0  0  0  0  0  0  0  0
    5.7262  -22.2301   21.5121 C   0  0  0  0  0  0  0  0  0  0  0  0
    4.2943  -22.5014   21.0854 C   0  0  0  0  0  0  0  0  0  0  0  0
    3.7770  -23.6640   21.7647 N   0  0  0  0  0  0  0  0  0  0  0  0
    9.2820  -18.7823   21.2261 C   0  0  0  0  0  0  0  0  0  0  0  0
   10.4716  -19.1869   21.1325 O   0  0  0  0  0  0  0  0  0  0  0  0
    9.0382  -17.6746   22.0765 N   0  0  0  0  0  0  0  0  0  0  0  0
   10.1169  -16.9849   22.7766 C   0  0  1  0  0  0  0  0  0  0  0  0
    9.6531  -15.6427   23.2988 C   0  0  0  0  0  0  0  0  0  0  0  0
    8.9376  -14.6338   21.9869 S   0  0  0  0  0  0  0  0  0  0  0  0
   10.5483  -17.8095   23.9072 C   0  0  0  0  0  0  0  0  0  0  0  0
    9.8063  -18.9537   24.2167 O   0  0  0  0  0  0  0  0  0  0  0  0
   11.5486  -17.5600   24.6274 O   0  0  0  0  0  0  0  0  0  0  0  0
  2  1  1  1
  2  4  1  0
  3  2  1  0
  4  6  1  0
  4  5  1  6
  6  8  1  0
  7  6  2  0
  8  9  1  0
  9 10  1  1
 10 11  1  0
 11 12  1  0
 12 13  1  0
 13 14  1  0
 15 17  1  0
 15  9  1  0
 16 15  2  0
 18 17  1  0
 18 19  1  1
 19 20  1  0
 21 18  1  0
 22 21  1  0
 23 21  2  0
M  END
$$$$
