TKC.pdb
     RDKit          3D

 23 22  0  0  1  0  0  0  0  0999 V2000
   10.1660  -14.0757   18.3935 C   0  0  0  0  0  0  0  0  0  0  0  0
    9.4993  -14.3083   19.7213 C   0  0  1  0  0  0  0  0  0  0  0  0
    9.9060  -13.3483   20.6717 O   0  0  0  0  0  0  0  0  0  0  0  0
    7.9900  -14.2018   19.6455 C   0  0  2  0  0  0  0  0  0  0  0  0
    7.5715  -12.9172   19.1234 N   0  0  0  0  0  0  0  0  0  0  0  0
    7.3555  -14.5229   20.9516 C   0  0  0  0  0  0  0  0  0  0  0  0
    6.8282  -13.5958   21.5825 O   0  0  0  0  0  0  0  0  0  0  0  0
    7.3547  -15.8435   21.4557 N   0  0  0  0  0  0  0  0  0  0  0  0
    6.6553  -16.1905   22.7253 C   0  0  1  0  0  0  0  0  0  0  0  0
    6.3413  -17.6431   22.6190 C   0  0  0  0  0  0  0  0  0  0  0  0
    5.4298  -18.0759   21.5351 C   0  0  0  0  0  0  0  0  0  0  0  0
    4.1965  -18.7852   22.0058 C   0  0  0  0  0  0  0  0  0  0  0  0
    3.2525  -19.0095   20.8376 C   0  0  0  0  0  0  0  0  0  0  0  0
    2.0752  -19.7221   21.2700 N   0  0  0  0  0  0  0  0  0  0  0  0
    7.5755  -15.8020   23.8047 C   0  0  0  0  0  0  0  0  0  0  0  0
    8.7988  -16.0802   23.6875 O   0  0  0  0  0  0  0  0  0  0  0  0
    7.1741  -15.1241   24.9832 N   0  0  0  0  0  0  0  0  0  0  0  0
    8.1266  -14.7530   26.0245 C   0  0  1  0  0  0  0  0  0  0  0  0
    7.5154  -13.7611   26.9898 C   0  0  0  0  0  0  0  0  0  0  0  0
    6.8160  -12.3417   26.1254 S   0  0  0  0  0  0  0  0  0  0  0  0
    8.5107  -15.9576   26.7633 C   0  0  0  0  0  0  0  0  0  0  0  0
    9.4571  -15.8369   27.7857 O   0  0  0  0  0  0  0  0  0  0  0  0
    8.0457  -17.1049   26.5421 O   0  0  0  0  0  0  0  0  0  0  0  0
  2  1  1  6
  2  4  1  0
  3  2  1  0
  4  6  1  0
  4  5  1  1
  6  8  1  0
  7  6  2  0
  8  9  1  0
  9 10  1  6
 10 11  1  0
 11 12  1  0
 12 13  1  0
 13 14  1  0
 15 17  1  0
 15  9  1  0
 16 15  2  0
 18 17  1  0
 18 19  1  1
 19 20  1  0
 21 18  1  0
 22 21  1  0
 23 21  2  0
M  END
$$$$
