TKC.pdb
     RDKit          3D

 23 22  0  0  1  0  0  0  0  0999 V2000
   10.4634  -13.9057   20.6641 C   0  0  0  0  0  0  0  0  0  0  0  0
    9.3935  -13.2710   19.8191 C   0  0  1  0  0  0  0  0  0  0  0  0
    9.8384  -13.0750   18.4947 O   0  0  0  0  0  0  0  0  0  0  0  0
    8.1464  -14.1248   19.7144 C   0  0  2  0  0  0  0  0  0  0  0  0
    7.1695  -13.5349   18.8224 N   0  0  0  0  0  0  0  0  0  0  0  0
    7.5837  -14.4331   21.0560 C   0  0  0  0  0  0  0  0  0  0  0  0
    6.8532  -13.5843   21.5864 O   0  0  0  0  0  0  0  0  0  0  0  0
    7.8737  -15.6556   21.7038 N   0  0  0  0  0  0  0  0  0  0  0  0
    7.2433  -16.0138   23.0061 C   0  0  1  0  0  0  0  0  0  0  0  0
    7.1679  -17.5019   23.0122 C   0  0  0  0  0  0  0  0  0  0  0  0
    5.8678  -18.1296   22.6823 C   0  0  0  0  0  0  0  0  0  0  0  0
    5.9111  -19.6225   22.5612 C   0  0  0  0  0  0  0  0  0  0  0  0
    4.5087  -20.1638   22.3458 C   0  0  0  0  0  0  0  0  0  0  0  0
    4.5400  -21.5972   22.1870 N   0  0  0  0  0  0  0  0  0  0  0  0
    8.0919  -15.4020   24.0398 C   0  0  0  0  0  0  0  0  0  0  0  0
    9.3434  -15.5026   23.9339 O   0  0  0  0  0  0  0  0  0  0  0  0
    7.5900  -14.6949   25.1613 N   0  0  0  0  0  0  0  0  0  0  0  0
    8.4686  -14.1729   26.2029 C   0  0  1  0  0  0  0  0  0  0  0  0
    7.7618  -13.1234   27.0325 C   0  0  0  0  0  0  0  0  0  0  0  0
    6.9635  -11.8854   25.9928 S   0  0  0  0  0  0  0  0  0  0  0  0
    8.8703  -15.2765   27.0776 C   0  0  0  0  0  0  0  0  0  0  0  0
    9.7508  -15.0044   28.1294 O   0  0  0  0  0  0  0  0  0  0  0  0
    8.4763  -16.4639   26.9496 O   0  0  0  0  0  0  0  0  0  0  0  0
  2  1  1  1
  2  4  1  0
  3  2  1  0
  4  6  1  0
  4  5  1  6
  6  8  1  0
  7  6  2  0
  8  9  1  0
  9 10  1  1
 10 11  1  0
 11 12  1  0
 12 13  1  0
 13 14  1  0
 15 17  1  0
 15  9  1  0
 16 15  2  0
 18 17  1  0
 18 19  1  1
 19 20  1  0
 21 18  1  0
 22 21  1  0
 23 21  2  0
M  END
$$$$
