FVW.pdb
     RDKit          3D

 33 35  0  0  1  0  0  0  0  0999 V2000
   29.7198  -20.8761  -14.7655 N   0  0  0  0  0  0  0  0  0  0  0  0
   29.6113  -21.0795  -13.3161 C   0  0  1  0  0  0  0  0  0  0  0  0
   30.8475  -20.5574  -12.6647 C   0  0  0  0  0  0  0  0  0  0  0  0
   31.7491  -21.6911  -12.3350 C   0  0  0  0  0  0  0  0  0  0  0  0
   31.7639  -22.2040  -11.0556 C   0  0  0  0  0  0  0  0  0  0  0  0
   32.5869  -23.2579  -10.7514 C   0  0  0  0  0  0  0  0  0  0  0  0
   33.4105  -23.8312  -11.6890 C   0  0  0  0  0  0  0  0  0  0  0  0
   33.3782  -23.2990  -12.9679 C   0  0  0  0  0  0  0  0  0  0  0  0
   32.5620  -22.2430  -13.2974 C   0  0  0  0  0  0  0  0  0  0  0  0
   28.3513  -20.4422  -12.8732 C   0  0  0  0  0  0  0  0  0  0  0  0
   28.0141  -19.2803  -13.2322 O   0  0  0  0  0  0  0  0  0  0  0  0
   25.5305  -19.8414  -13.8971 C   0  0  0  0  0  0  0  0  0  0  0  0
   25.1240  -20.7204  -12.7332 C   0  0  2  0  0  0  0  0  0  0  0  0
   23.7708  -20.2163  -12.2242 C   0  0  0  0  0  0  0  0  0  0  0  0
   26.1371  -20.5838  -11.6489 C   0  0  2  0  0  0  0  0  0  0  0  0
   27.4337  -21.1033  -12.0081 N   0  0  0  0  0  0  0  0  0  0  0  0
   25.7426  -21.1071  -10.3492 C   0  0  0  0  0  0  0  0  0  0  0  0
   25.8335  -22.3478  -10.1480 O   0  0  0  0  0  0  0  0  0  0  0  0
   25.2537  -20.2850   -9.2794 N   0  0  0  0  0  0  0  0  0  0  0  0
   24.9246  -20.9207   -8.0320 C   0  0  1  0  0  0  0  0  0  0  0  0
   24.9962  -19.9598   -6.8671 C   0  0  0  0  0  0  0  0  0  0  0  0
   26.3884  -19.4914   -6.7135 C   0  0  0  0  0  0  0  0  0  0  0  0
   27.1062  -18.7301   -7.6100 C   0  0  0  0  0  0  0  0  0  0  0  0
   28.3565  -18.5083   -7.1132 N   0  0  0  0  0  0  0  0  0  0  0  0
   28.4579  -19.1126   -5.9130 C   0  0  0  0  0  0  0  0  0  0  0  0
   29.5232  -19.1647   -5.0437 C   0  0  0  0  0  0  0  0  0  0  0  0
   29.3742  -19.8599   -3.8604 C   0  0  0  0  0  0  0  0  0  0  0  0
   28.1657  -20.4834   -3.5781 C   0  0  0  0  0  0  0  0  0  0  0  0
   27.1203  -20.4168   -4.4596 C   0  0  0  0  0  0  0  0  0  0  0  0
   27.2381  -19.7291   -5.6518 C   0  0  0  0  0  0  0  0  0  0  0  0
   23.5626  -21.5353   -8.1433 C   0  0  0  0  0  0  0  0  0  0  0  0
   22.7993  -21.1234   -9.0407 O   0  0  0  0  0  0  0  0  0  0  0  0
   23.1451  -22.5452   -7.2710 O   0  0  0  0  0  0  0  0  0  0  0  0
  2  3  1  0
  2  1  1  6
  4  3  1  0
  5  4  2  0
  6  5  1  0
  7  6  2  0
  7  8  1  0
  8  9  2  0
  9  4  1  0
 10 16  1  0
 10  2  1  0
 11 10  2  0
 13 14  1  1
 13 12  1  0
 15 13  1  0
 15 16  1  6
 17 15  1  0
 17 18  2  0
 19 17  1  0
 20 21  1  1
 20 19  1  0
 22 21  1  0
 22 30  1  0
 23 22  2  0
 24 23  1  0
 24 25  1  0
 25 26  1  0
 25 30  2  0
 26 27  2  0
 27 28  1  0
 29 28  2  0
 30 29  1  0
 31 20  1  0
 31 33  1  0
 32 31  2  0
M  END
$$$$
