FVW.pdb
     RDKit          3D

 33 35  0  0  1  0  0  0  0  0999 V2000
   28.3903  -20.5760  -17.2972 N   0  0  0  0  0  0  0  0  0  0  0  0
   27.5880  -19.6848  -16.4510 C   0  0  1  0  0  0  0  0  0  0  0  0
   26.6028  -18.9661  -17.3102 C   0  0  0  0  0  0  0  0  0  0  0  0
   27.3247  -18.0479  -18.2281 C   0  0  0  0  0  0  0  0  0  0  0  0
   26.8797  -17.8847  -19.5225 C   0  0  0  0  0  0  0  0  0  0  0  0
   27.5374  -17.0290  -20.3685 C   0  0  0  0  0  0  0  0  0  0  0  0
   28.6411  -16.3166  -19.9681 C   0  0  0  0  0  0  0  0  0  0  0  0
   29.0697  -16.4968  -18.6628 C   0  0  0  0  0  0  0  0  0  0  0  0
   28.4274  -17.3486  -17.7958 C   0  0  0  0  0  0  0  0  0  0  0  0
   26.9972  -20.5106  -15.3745 C   0  0  0  0  0  0  0  0  0  0  0  0
   26.9418  -21.7699  -15.4360 O   0  0  0  0  0  0  0  0  0  0  0  0
   27.8652  -20.6026  -11.7723 C   0  0  0  0  0  0  0  0  0  0  0  0
   26.3716  -20.3548  -11.7802 C   0  0  2  0  0  0  0  0  0  0  0  0
   25.7427  -21.2893  -10.7432 C   0  0  0  0  0  0  0  0  0  0  0  0
   25.8346  -20.6883  -13.1298 C   0  0  2  0  0  0  0  0  0  0  0  0
   26.4499  -19.9333  -14.1935 N   0  0  0  0  0  0  0  0  0  0  0  0
   24.3863  -20.6311  -13.2628 C   0  0  0  0  0  0  0  0  0  0  0  0
   23.7145  -20.1431  -12.3149 O   0  0  0  0  0  0  0  0  0  0  0  0
   23.6778  -21.1016  -14.4187 N   0  0  0  0  0  0  0  0  0  0  0  0
   22.3635  -20.5739  -14.6693 C   0  0  1  0  0  0  0  0  0  0  0  0
   22.3655  -19.0654  -14.7697 C   0  0  0  0  0  0  0  0  0  0  0  0
   21.0139  -18.6058  -15.1479 C   0  0  0  0  0  0  0  0  0  0  0  0
   19.8786  -18.6521  -14.3684 C   0  0  0  0  0  0  0  0  0  0  0  0
   18.8281  -18.1407  -15.0712 N   0  0  0  0  0  0  0  0  0  0  0  0
   19.2651  -17.7656  -16.2895 C   0  0  0  0  0  0  0  0  0  0  0  0
   18.5713  -17.2029  -17.3361 C   0  0  0  0  0  0  0  0  0  0  0  0
   19.2566  -16.9081  -18.4976 C   0  0  0  0  0  0  0  0  0  0  0  0
   20.6153  -17.1831  -18.5816 C   0  0  0  0  0  0  0  0  0  0  0  0
   21.2833  -17.7432  -17.5260 C   0  0  0  0  0  0  0  0  0  0  0  0
   20.6259  -18.0499  -16.3505 C   0  0  0  0  0  0  0  0  0  0  0  0
   21.8181  -21.1983  -15.9174 C   0  0  0  0  0  0  0  0  0  0  0  0
   20.6156  -21.5320  -15.9351 O   0  0  0  0  0  0  0  0  0  0  0  0
   22.6244  -21.4068  -17.0406 O   0  0  0  0  0  0  0  0  0  0  0  0
  2  3  1  0
  2  1  1  6
  4  3  1  0
  5  4  2  0
  6  5  1  0
  7  6  2  0
  7  8  1  0
  8  9  2  0
  9  4  1  0
 10 16  1  0
 10  2  1  0
 11 10  2  0
 13 14  1  1
 13 12  1  0
 15 13  1  0
 15 16  1  6
 17 15  1  0
 17 18  2  0
 19 17  1  0
 20 21  1  6
 20 19  1  0
 22 21  1  0
 22 30  1  0
 23 22  2  0
 24 23  1  0
 24 25  1  0
 25 26  1  0
 25 30  2  0
 26 27  2  0
 27 28  1  0
 29 28  2  0
 30 29  1  0
 31 20  1  0
 31 33  1  0
 32 31  2  0
M  END
$$$$
