FVW.pdb
     RDKit          3D

 33 35  0  0  1  0  0  0  0  0999 V2000
   28.3943  -20.9688   -9.5154 N   0  0  0  0  0  0  0  0  0  0  0  0
   26.9884  -20.5476   -9.5036 C   0  0  1  0  0  0  0  0  0  0  0  0
   26.8924  -19.2158   -8.8385 C   0  0  0  0  0  0  0  0  0  0  0  0
   27.2951  -19.3442   -7.4144 C   0  0  0  0  0  0  0  0  0  0  0  0
   28.4841  -18.7930   -6.9871 C   0  0  0  0  0  0  0  0  0  0  0  0
   28.8529  -18.9001   -5.6706 C   0  0  0  0  0  0  0  0  0  0  0  0
   28.0692  -19.5467   -4.7466 C   0  0  0  0  0  0  0  0  0  0  0  0
   26.8788  -20.0925   -5.1993 C   0  0  0  0  0  0  0  0  0  0  0  0
   26.4872  -19.9982   -6.5137 C   0  0  0  0  0  0  0  0  0  0  0  0
   26.5029  -20.5879  -10.9009 C   0  0  0  0  0  0  0  0  0  0  0  0
   27.1931  -20.1738  -11.8729 O   0  0  0  0  0  0  0  0  0  0  0  0
   26.1481  -23.3468  -12.8978 C   0  0  0  0  0  0  0  0  0  0  0  0
   24.7378  -22.7978  -12.9404 C   0  0  2  0  0  0  0  0  0  0  0  0
   24.2240  -22.9550  -14.3741 C   0  0  0  0  0  0  0  0  0  0  0  0
   24.7730  -21.3502  -12.5885 C   0  0  2  0  0  0  0  0  0  0  0  0
   25.2179  -21.0994  -11.2397 N   0  0  0  0  0  0  0  0  0  0  0  0
   23.5462  -20.6099  -12.8452 C   0  0  0  0  0  0  0  0  0  0  0  0
   22.6260  -20.6550  -11.9855 O   0  0  0  0  0  0  0  0  0  0  0  0
   23.3256  -19.8281  -14.0282 N   0  0  0  0  0  0  0  0  0  0  0  0
   22.0496  -19.1837  -14.1865 C   0  0  1  0  0  0  0  0  0  0  0  0
   22.0968  -18.0711  -15.2090 C   0  0  0  0  0  0  0  0  0  0  0  0
   20.7638  -17.4416  -15.2982 C   0  0  0  0  0  0  0  0  0  0  0  0
   20.2381  -16.4983  -14.4423 C   0  0  0  0  0  0  0  0  0  0  0  0
   18.9806  -16.1680  -14.8531 N   0  0  0  0  0  0  0  0  0  0  0  0
   18.6859  -16.8809  -15.9581 C   0  0  0  0  0  0  0  0  0  0  0  0
   17.5401  -16.8857  -16.7199 C   0  0  0  0  0  0  0  0  0  0  0  0
   17.4834  -17.7196  -17.8185 C   0  0  0  0  0  0  0  0  0  0  0  0
   18.5722  -18.5252  -18.1259 C   0  0  0  0  0  0  0  0  0  0  0  0
   19.7013  -18.5021  -17.3520 C   0  0  0  0  0  0  0  0  0  0  0  0
   19.7889  -17.6788  -16.2463 C   0  0  0  0  0  0  0  0  0  0  0  0
   21.0262  -20.2141  -14.5553 C   0  0  0  0  0  0  0  0  0  0  0  0
   21.3379  -21.0833  -15.3949 O   0  0  0  0  0  0  0  0  0  0  0  0
   19.7514  -20.2137  -13.9808 O   0  0  0  0  0  0  0  0  0  0  0  0
  2  3  1  0
  2  1  1  6
  4  3  1  0
  5  4  2  0
  6  5  1  0
  7  6  2  0
  7  8  1  0
  8  9  2  0
  9  4  1  0
 10 16  1  0
 10  2  1  0
 11 10  2  0
 13 14  1  6
 13 12  1  0
 15 13  1  0
 15 16  1  1
 17 15  1  0
 17 18  2  0
 19 17  1  0
 20 21  1  6
 20 19  1  0
 22 21  1  0
 22 30  1  0
 23 22  2  0
 24 23  1  0
 24 25  1  0
 25 26  1  0
 25 30  2  0
 26 27  2  0
 27 28  1  0
 29 28  2  0
 30 29  1  0
 31 20  1  0
 31 33  1  0
 32 31  2  0
M  END
$$$$
