FVW.pdb
     RDKit          3D

 33 35  0  0  1  0  0  0  0  0999 V2000
   27.8041  -21.6722  -11.7440 N   0  0  0  0  0  0  0  0  0  0  0  0
   26.4639  -21.2622  -11.3085 C   0  0  1  0  0  0  0  0  0  0  0  0
   26.5637  -19.9353  -10.6342 C   0  0  0  0  0  0  0  0  0  0  0  0
   27.1824  -20.1068   -9.2946 C   0  0  0  0  0  0  0  0  0  0  0  0
   26.4403  -20.6368   -8.2608 C   0  0  0  0  0  0  0  0  0  0  0  0
   27.0123  -20.8068   -7.0261 C   0  0  0  0  0  0  0  0  0  0  0  0
   28.3184  -20.4633   -6.7767 C   0  0  0  0  0  0  0  0  0  0  0  0
   29.0444  -19.9328   -7.8309 C   0  0  0  0  0  0  0  0  0  0  0  0
   28.4936  -19.7527   -9.0775 C   0  0  0  0  0  0  0  0  0  0  0  0
   25.5826  -21.2977  -12.4967 C   0  0  0  0  0  0  0  0  0  0  0  0
   25.7483  -20.5362  -13.4893 O   0  0  0  0  0  0  0  0  0  0  0  0
   25.1928  -23.7916  -14.9350 C   0  0  0  0  0  0  0  0  0  0  0  0
   23.7675  -23.6342  -14.4490 C   0  0  2  0  0  0  0  0  0  0  0  0
   22.8559  -23.6476  -15.6791 C   0  0  0  0  0  0  0  0  0  0  0  0
   23.6365  -22.3213  -13.7563 C   0  0  2  0  0  0  0  0  0  0  0  0
   24.4845  -22.1988  -12.5962 N   0  0  0  0  0  0  0  0  0  0  0  0
   22.2788  -21.9224  -13.4149 C   0  0  0  0  0  0  0  0  0  0  0  0
   21.7366  -22.4411  -12.4027 O   0  0  0  0  0  0  0  0  0  0  0  0
   21.5203  -20.9669  -14.1706 N   0  0  0  0  0  0  0  0  0  0  0  0
   20.1327  -20.7873  -13.8376 C   0  0  1  0  0  0  0  0  0  0  0  0
   19.6841  -19.3552  -14.0211 C   0  0  0  0  0  0  0  0  0  0  0  0
   18.2250  -19.2761  -13.8074 C   0  0  0  0  0  0  0  0  0  0  0  0
   17.5728  -19.1722  -12.5980 C   0  0  0  0  0  0  0  0  0  0  0  0
   16.2272  -19.1310  -12.8136 N   0  0  0  0  0  0  0  0  0  0  0  0
   15.9996  -19.2065  -14.1398 C   0  0  0  0  0  0  0  0  0  0  0  0
   14.8079  -19.2034  -14.8275 C   0  0  0  0  0  0  0  0  0  0  0  0
   14.8421  -19.2946  -16.2045 C   0  0  0  0  0  0  0  0  0  0  0  0
   16.0651  -19.3862  -16.8563 C   0  0  0  0  0  0  0  0  0  0  0  0
   17.2374  -19.3872  -16.1492 C   0  0  0  0  0  0  0  0  0  0  0  0
   17.2365  -19.2973  -14.7708 C   0  0  0  0  0  0  0  0  0  0  0  0
   19.3077  -21.7230  -14.6675 C   0  0  0  0  0  0  0  0  0  0  0  0
   19.6274  -21.8927  -15.8619 O   0  0  0  0  0  0  0  0  0  0  0  0
   18.2059  -22.3955  -14.1301 O   0  0  0  0  0  0  0  0  0  0  0  0
  2  3  1  0
  2  1  1  6
  4  3  1  0
  5  4  2  0
  6  5  1  0
  7  6  2  0
  7  8  1  0
  8  9  2  0
  9  4  1  0
 10 16  1  0
 10  2  1  0
 11 10  2  0
 13 14  1  6
 13 12  1  0
 15 13  1  0
 15 16  1  1
 17 15  1  0
 17 18  2  0
 19 17  1  0
 20 21  1  6
 20 19  1  0
 22 21  1  0
 22 30  1  0
 23 22  2  0
 24 23  1  0
 24 25  1  0
 25 26  1  0
 25 30  2  0
 26 27  2  0
 27 28  1  0
 29 28  2  0
 30 29  1  0
 31 20  1  0
 31 33  1  0
 32 31  2  0
M  END
$$$$
