FVW.pdb
     RDKit          3D

 33 35  0  0  1  0  0  0  0  0999 V2000
   24.7764  -21.7746  -11.8766 N   0  0  0  0  0  0  0  0  0  0  0  0
   24.7440  -20.3372  -11.5819 C   0  0  1  0  0  0  0  0  0  0  0  0
   25.1735  -20.1276  -10.1688 C   0  0  0  0  0  0  0  0  0  0  0  0
   24.1804  -20.7462   -9.2534 C   0  0  0  0  0  0  0  0  0  0  0  0
   24.6061  -21.3536   -8.0915 C   0  0  0  0  0  0  0  0  0  0  0  0
   23.6905  -21.9155   -7.2391 C   0  0  0  0  0  0  0  0  0  0  0  0
   22.3431  -21.8953   -7.5038 C   0  0  0  0  0  0  0  0  0  0  0  0
   21.9391  -21.2792   -8.6772 C   0  0  0  0  0  0  0  0  0  0  0  0
   22.8374  -20.7089   -9.5476 C   0  0  0  0  0  0  0  0  0  0  0  0
   25.5778  -19.6584  -12.5987 C   0  0  0  0  0  0  0  0  0  0  0  0
   25.8209  -18.4206  -12.5627 O   0  0  0  0  0  0  0  0  0  0  0  0
   28.9685  -19.7627  -13.4109 C   0  0  0  0  0  0  0  0  0  0  0  0
   28.3602  -20.1280  -14.7484 C   0  0  2  0  0  0  0  0  0  0  0  0
   29.0959  -19.3256  -15.8250 C   0  0  0  0  0  0  0  0  0  0  0  0
   26.9213  -19.7402  -14.7458 C   0  0  2  0  0  0  0  0  0  0  0  0
   26.1623  -20.3630  -13.6893 N   0  0  0  0  0  0  0  0  0  0  0  0
   26.2230  -19.9036  -16.0125 C   0  0  0  0  0  0  0  0  0  0  0  0
   26.0404  -21.0704  -16.4519 O   0  0  0  0  0  0  0  0  0  0  0  0
   25.7289  -18.8048  -16.7921 N   0  0  0  0  0  0  0  0  0  0  0  0
   24.8405  -19.0948  -17.8853 C   0  0  1  0  0  0  0  0  0  0  0  0
   23.5419  -19.7100  -17.4156 C   0  0  0  0  0  0  0  0  0  0  0  0
   22.6555  -18.6404  -16.9141 C   0  0  0  0  0  0  0  0  0  0  0  0
   22.3243  -17.4713  -17.5637 C   0  0  0  0  0  0  0  0  0  0  0  0
   21.4880  -16.7386  -16.7745 N   0  0  0  0  0  0  0  0  0  0  0  0
   21.2739  -17.4138  -15.6280 C   0  0  0  0  0  0  0  0  0  0  0  0
   20.5066  -17.0721  -14.5382 C   0  0  0  0  0  0  0  0  0  0  0  0
   20.4514  -17.9466  -13.4715 C   0  0  0  0  0  0  0  0  0  0  0  0
   21.1637  -19.1378  -13.5228 C   0  0  0  0  0  0  0  0  0  0  0  0
   21.9201  -19.4550  -14.6189 C   0  0  0  0  0  0  0  0  0  0  0  0
   21.9958  -18.6011  -15.7020 C   0  0  0  0  0  0  0  0  0  0  0  0
   24.5938  -17.8357  -18.6593 C   0  0  0  0  0  0  0  0  0  0  0  0
   24.9486  -16.7513  -18.1536 O   0  0  0  0  0  0  0  0  0  0  0  0
   23.9831  -17.8610  -19.9169 O   0  0  0  0  0  0  0  0  0  0  0  0
  2  3  1  0
  2  1  1  6
  4  3  1  0
  5  4  2  0
  6  5  1  0
  7  6  2  0
  7  8  1  0
  8  9  2  0
  9  4  1  0
 10 16  1  0
 10  2  1  0
 11 10  2  0
 13 14  1  6
 13 12  1  0
 15 13  1  0
 15 16  1  1
 17 15  1  0
 17 18  2  0
 19 17  1  0
 20 21  1  1
 20 19  1  0
 22 21  1  0
 22 30  1  0
 23 22  2  0
 24 23  1  0
 24 25  1  0
 25 26  1  0
 25 30  2  0
 26 27  2  0
 27 28  1  0
 29 28  2  0
 30 29  1  0
 31 20  1  0
 31 33  1  0
 32 31  2  0
M  END
$$$$
