FVW.pdb
     RDKit          3D

 33 35  0  0  1  0  0  0  0  0999 V2000
   26.7231  -17.0102  -16.7262 N   0  0  0  0  0  0  0  0  0  0  0  0
   27.4171  -17.7708  -15.6804 C   0  0  1  0  0  0  0  0  0  0  0  0
   28.5616  -16.9579  -15.1756 C   0  0  0  0  0  0  0  0  0  0  0  0
   29.5642  -16.7898  -16.2587 C   0  0  0  0  0  0  0  0  0  0  0  0
   29.6996  -15.5680  -16.8824 C   0  0  0  0  0  0  0  0  0  0  0  0
   30.6323  -15.4068  -17.8748 C   0  0  0  0  0  0  0  0  0  0  0  0
   31.4501  -16.4341  -18.2773 C   0  0  0  0  0  0  0  0  0  0  0  0
   31.2959  -17.6526  -17.6360 C   0  0  0  0  0  0  0  0  0  0  0  0
   30.3684  -17.8390  -16.6386 C   0  0  0  0  0  0  0  0  0  0  0  0
   26.4108  -18.1395  -14.6600 C   0  0  0  0  0  0  0  0  0  0  0  0
   25.2897  -17.5666  -14.5725 O   0  0  0  0  0  0  0  0  0  0  0  0
   23.7840  -19.2899  -14.4556 C   0  0  0  0  0  0  0  0  0  0  0  0
   24.5233  -20.3971  -13.7348 C   0  0  2  0  0  0  0  0  0  0  0  0
   23.5229  -21.0935  -12.8082 C   0  0  0  0  0  0  0  0  0  0  0  0
   25.6132  -19.7955  -12.9156 C   0  0  2  0  0  0  0  0  0  0  0  0
   26.6449  -19.1702  -13.7058 N   0  0  0  0  0  0  0  0  0  0  0  0
   26.2189  -20.6773  -11.9286 C   0  0  0  0  0  0  0  0  0  0  0  0
   26.7070  -21.7714  -12.3193 O   0  0  0  0  0  0  0  0  0  0  0  0
   26.2913  -20.3686  -10.5290 N   0  0  0  0  0  0  0  0  0  0  0  0
   26.5011  -21.4515   -9.6061 C   0  0  1  0  0  0  0  0  0  0  0  0
   27.8229  -21.3341   -8.8817 C   0  0  0  0  0  0  0  0  0  0  0  0
   27.7486  -20.2143   -7.9217 C   0  0  0  0  0  0  0  0  0  0  0  0
   27.0565  -19.0338   -8.0833 C   0  0  0  0  0  0  0  0  0  0  0  0
   27.2375  -18.2508   -6.9818 N   0  0  0  0  0  0  0  0  0  0  0  0
   28.0335  -18.9048   -6.1130 C   0  0  0  0  0  0  0  0  0  0  0  0
   28.4900  -18.5137   -4.8753 C   0  0  0  0  0  0  0  0  0  0  0  0
   29.3074  -19.3759   -4.1723 C   0  0  0  0  0  0  0  0  0  0  0  0
   29.6461  -20.6043   -4.7248 C   0  0  0  0  0  0  0  0  0  0  0  0
   29.1788  -20.9704   -5.9584 C   0  0  0  0  0  0  0  0  0  0  0  0
   28.3593  -20.1300   -6.6866 C   0  0  0  0  0  0  0  0  0  0  0  0
   25.3569  -21.4962   -8.6397 C   0  0  0  0  0  0  0  0  0  0  0  0
   25.4674  -22.2141   -7.6248 O   0  0  0  0  0  0  0  0  0  0  0  0
   24.1899  -20.7573   -8.8570 O   0  0  0  0  0  0  0  0  0  0  0  0
  2  3  1  0
  2  1  1  6
  4  3  1  0
  5  4  2  0
  6  5  1  0
  7  6  2  0
  7  8  1  0
  8  9  2  0
  9  4  1  0
 10 16  1  0
 10  2  1  0
 11 10  2  0
 13 14  1  1
 13 12  1  0
 15 13  1  0
 15 16  1  6
 17 15  1  0
 17 18  2  0
 19 17  1  0
 20 21  1  1
 20 19  1  0
 22 21  1  0
 22 30  1  0
 23 22  2  0
 24 23  1  0
 24 25  1  0
 25 26  1  0
 25 30  2  0
 26 27  2  0
 27 28  1  0
 29 28  2  0
 30 29  1  0
 31 20  1  0
 31 33  1  0
 32 31  2  0
M  END
$$$$
