FVW.pdb
     RDKit          3D

 33 35  0  0  1  0  0  0  0  0999 V2000
   17.5251  -19.7258    1.0311 N   0  0  0  0  0  0  0  0  0  0  0  0
   16.7414  -19.2105    2.1599 C   0  0  1  0  0  0  0  0  0  0  0  0
   16.4179  -20.3428    3.0757 C   0  0  0  0  0  0  0  0  0  0  0  0
   15.5845  -21.3390    2.3547 C   0  0  0  0  0  0  0  0  0  0  0  0
   16.1201  -22.5638    2.0180 C   0  0  0  0  0  0  0  0  0  0  0  0
   15.3495  -23.4897    1.3625 C   0  0  0  0  0  0  0  0  0  0  0  0
   14.0426  -23.2384    1.0234 C   0  0  0  0  0  0  0  0  0  0  0  0
   13.5262  -22.0009    1.3723 C   0  0  0  0  0  0  0  0  0  0  0  0
   14.2784  -21.0563    2.0295 C   0  0  0  0  0  0  0  0  0  0  0  0
   17.5187  -18.1103    2.7723 C   0  0  0  0  0  0  0  0  0  0  0  0
   18.7759  -18.1429    2.8784 O   0  0  0  0  0  0  0  0  0  0  0  0
   17.4719  -14.3614    1.9896 C   0  0  0  0  0  0  0  0  0  0  0  0
   17.1538  -14.5071    3.4626 C   0  0  2  0  0  0  0  0  0  0  0  0
   17.9436  -13.4321    4.2143 C   0  0  0  0  0  0  0  0  0  0  0  0
   17.5995  -15.8531    3.9214 C   0  0  2  0  0  0  0  0  0  0  0  0
   16.8939  -16.9378    3.2845 N   0  0  0  0  0  0  0  0  0  0  0  0
   17.6104  -16.0553    5.3628 C   0  0  0  0  0  0  0  0  0  0  0  0
   18.3371  -15.3064    6.0692 O   0  0  0  0  0  0  0  0  0  0  0  0
   16.8361  -17.0645    6.0270 N   0  0  0  0  0  0  0  0  0  0  0  0
   16.9143  -17.1445    7.4609 C   0  0  1  0  0  0  0  0  0  0  0  0
   15.5469  -17.2038    8.1031 C   0  0  0  0  0  0  0  0  0  0  0  0
   14.8059  -18.3570    7.5535 C   0  0  0  0  0  0  0  0  0  0  0  0
   15.1764  -19.6826    7.6188 C   0  0  0  0  0  0  0  0  0  0  0  0
   14.2361  -20.4448    6.9912 N   0  0  0  0  0  0  0  0  0  0  0  0
   13.2662  -19.6351    6.5225 C   0  0  0  0  0  0  0  0  0  0  0  0
   12.1218  -19.9483    5.8256 C   0  0  0  0  0  0  0  0  0  0  0  0
   11.2772  -18.9226    5.4513 C   0  0  0  0  0  0  0  0  0  0  0  0
   11.5988  -17.6129    5.7833 C   0  0  0  0  0  0  0  0  0  0  0  0
   12.7436  -17.3270    6.4775 C   0  0  0  0  0  0  0  0  0  0  0  0
   13.6090  -18.3310    6.8662 C   0  0  0  0  0  0  0  0  0  0  0  0
   17.7409  -18.3360    7.8378 C   0  0  0  0  0  0  0  0  0  0  0  0
   18.0021  -18.5170    9.0447 O   0  0  0  0  0  0  0  0  0  0  0  0
   18.2135  -19.2303    6.8722 O   0  0  0  0  0  0  0  0  0  0  0  0
  2  3  1  0
  2  1  1  6
  4  3  1  0
  5  4  2  0
  6  5  1  0
  7  6  2  0
  7  8  1  0
  8  9  2  0
  9  4  1  0
 10 16  1  0
 10  2  1  0
 11 10  2  0
 13 14  1  1
 13 12  1  0
 15 13  1  0
 15 16  1  6
 17 15  1  0
 17 18  2  0
 19 17  1  0
 20 21  1  1
 20 19  1  0
 22 21  1  0
 22 30  1  0
 23 22  2  0
 24 23  1  0
 24 25  1  0
 25 26  1  0
 25 30  2  0
 26 27  2  0
 27 28  1  0
 29 28  2  0
 30 29  1  0
 31 20  1  0
 31 33  1  0
 32 31  2  0
M  END
$$$$
