FVW.pdb
     RDKit          3D

 33 35  0  0  1  0  0  0  0  0999 V2000
   28.0089  -24.8652  -17.3958 N   0  0  0  0  0  0  0  0  0  0  0  0
   27.1488  -23.6902  -17.2126 C   0  0  1  0  0  0  0  0  0  0  0  0
   25.7516  -24.1520  -16.9680 C   0  0  0  0  0  0  0  0  0  0  0  0
   25.1293  -24.5489  -18.2572 C   0  0  0  0  0  0  0  0  0  0  0  0
   24.5682  -23.5880  -19.0708 C   0  0  0  0  0  0  0  0  0  0  0  0
   24.0032  -23.9502  -20.2668 C   0  0  0  0  0  0  0  0  0  0  0  0
   23.9749  -25.2560  -20.6913 C   0  0  0  0  0  0  0  0  0  0  0  0
   24.5449  -26.2040  -19.8569 C   0  0  0  0  0  0  0  0  0  0  0  0
   25.1174  -25.8659  -18.6537 C   0  0  0  0  0  0  0  0  0  0  0  0
   27.7392  -22.8746  -16.1282 C   0  0  0  0  0  0  0  0  0  0  0  0
   28.9846  -22.7199  -15.9946 O   0  0  0  0  0  0  0  0  0  0  0  0
   28.8837  -20.2448  -16.2943 C   0  0  0  0  0  0  0  0  0  0  0  0
   27.5492  -19.8918  -15.6723 C   0  0  2  0  0  0  0  0  0  0  0  0
   27.6945  -18.5155  -15.0174 C   0  0  0  0  0  0  0  0  0  0  0  0
   27.2233  -20.9008  -14.6251 C   0  0  2  0  0  0  0  0  0  0  0  0
   26.9349  -22.2086  -15.1602 N   0  0  0  0  0  0  0  0  0  0  0  0
   26.1824  -20.5165  -13.6829 C   0  0  0  0  0  0  0  0  0  0  0  0
   25.1308  -19.9873  -14.1322 O   0  0  0  0  0  0  0  0  0  0  0  0
   26.2879  -20.7077  -12.2646 N   0  0  0  0  0  0  0  0  0  0  0  0
   25.1588  -21.2656  -11.5701 C   0  0  1  0  0  0  0  0  0  0  0  0
   25.5587  -21.9214  -10.2680 C   0  0  0  0  0  0  0  0  0  0  0  0
   26.2626  -20.9326   -9.4266 C   0  0  0  0  0  0  0  0  0  0  0  0
   25.7032  -19.8509   -8.7818 C   0  0  0  0  0  0  0  0  0  0  0  0
   26.6774  -19.1729   -8.1109 N   0  0  0  0  0  0  0  0  0  0  0  0
   27.8546  -19.7975   -8.3111 C   0  0  0  0  0  0  0  0  0  0  0  0
   29.1077  -19.4809   -7.8391 C   0  0  0  0  0  0  0  0  0  0  0  0
   30.1687  -20.2897   -8.1939 C   0  0  0  0  0  0  0  0  0  0  0  0
   29.9489  -21.3918   -9.0099 C   0  0  0  0  0  0  0  0  0  0  0  0
   28.6922  -21.6857   -9.4667 C   0  0  0  0  0  0  0  0  0  0  0  0
   27.6102  -20.8960   -9.1295 C   0  0  0  0  0  0  0  0  0  0  0  0
   24.1449  -20.1860  -11.3430 C   0  0  0  0  0  0  0  0  0  0  0  0
   23.0071  -20.5161  -10.9506 O   0  0  0  0  0  0  0  0  0  0  0  0
   24.4526  -18.8395  -11.5607 O   0  0  0  0  0  0  0  0  0  0  0  0
  2  3  1  0
  2  1  1  1
  4  3  1  0
  5  4  2  0
  6  5  1  0
  7  6  2  0
  7  8  1  0
  8  9  2  0
  9  4  1  0
 10 16  1  0
 10  2  1  0
 11 10  2  0
 13 14  1  1
 13 12  1  0
 15 13  1  0
 15 16  1  6
 17 15  1  0
 17 18  2  0
 19 17  1  0
 20 21  1  1
 20 19  1  0
 22 21  1  0
 22 30  1  0
 23 22  2  0
 24 23  1  0
 24 25  1  0
 25 26  1  0
 25 30  2  0
 26 27  2  0
 27 28  1  0
 29 28  2  0
 30 29  1  0
 31 20  1  0
 31 33  1  0
 32 31  2  0
M  END
$$$$
