IYC.pdb
     RDKit          3D

 27 27  0  0  1  0  0  0  0  0999 V2000
   19.8689  -27.5434  -19.4620 C   0  0  0  0  0  0  0  0  0  0  0  0
   19.5192  -28.2793  -18.1910 C   0  0  0  0  0  0  0  0  0  0  0  0
   20.6432  -29.2159  -17.7776 C   0  0  2  0  0  0  0  0  0  0  0  0
   20.8601  -30.2177  -18.8816 C   0  0  0  0  0  0  0  0  0  0  0  0
   20.2118  -29.8716  -16.4869 C   0  0  2  0  0  0  0  0  0  0  0  0
   20.2143  -28.8614  -15.4527 N   0  0  0  0  0  0  0  0  0  0  0  0
   21.1388  -30.9588  -16.0957 C   0  0  0  0  0  0  0  0  0  0  0  0
   21.4562  -31.7614  -17.0112 O   0  0  0  0  0  0  0  0  0  0  0  0
   28.0654  -35.3199  -13.9506 O   0  0  0  0  0  0  0  0  0  0  0  0
   26.9994  -34.4881  -14.2876 C   0  0  0  0  0  0  0  0  0  0  0  0
   26.8895  -33.2763  -13.6648 C   0  0  0  0  0  0  0  0  0  0  0  0
   25.8493  -32.4227  -13.9690 C   0  0  0  0  0  0  0  0  0  0  0  0
   24.8884  -32.7483  -14.9009 C   0  0  0  0  0  0  0  0  0  0  0  0
   23.8168  -31.7940  -15.1728 C   0  0  0  0  0  0  0  0  0  0  0  0
   22.5720  -32.0128  -14.3983 C   0  0  2  0  0  0  0  0  0  0  0  0
   21.5928  -31.0217  -14.7592 N   0  0  0  0  0  0  0  0  0  0  0  0
   22.7813  -31.9605  -12.9090 C   0  0  0  0  0  0  0  0  0  0  0  0
   23.0804  -30.9173  -12.2849 O   0  0  0  0  0  0  0  0  0  0  0  0
   25.0056  -33.9748  -15.5266 C   0  0  0  0  0  0  0  0  0  0  0  0
   26.0473  -34.8310  -15.2227 C   0  0  0  0  0  0  0  0  0  0  0  0
   22.6366  -33.1622  -12.1285 N   0  0  0  0  0  0  0  0  0  0  0  0
   22.8648  -33.1151  -10.7064 C   0  0  1  0  0  0  0  0  0  0  0  0
   21.5920  -33.5620   -9.9714 C   0  0  0  0  0  0  0  0  0  0  0  0
   20.1819  -32.5831  -10.5541 S   0  0  0  0  0  0  0  0  0  0  0  0
   24.0148  -33.9479  -10.2940 C   0  0  0  0  0  0  0  0  0  0  0  0
   24.6805  -34.6826  -11.2617 O   0  0  0  0  0  0  0  0  0  0  0  0
   24.3958  -34.0025   -9.1010 O   0  0  0  0  0  0  0  0  0  0  0  0
  1  2  1  0
  2  3  1  0
  3  5  1  0
  3  4  1  6
  5  6  1  1
  7  5  1  0
  7  8  2  0
  9 10  1  0
 10 20  2  0
 10 11  1  0
 11 12  2  0
 13 12  1  0
 13 14  1  0
 15 14  1  6
 15 16  1  0
 16  7  1  0
 17 15  1  0
 18 17  2  0
 19 13  2  0
 20 19  1  0
 21 17  1  0
 22 23  1  1
 22 21  1  0
 24 23  1  0
 25 22  1  0
 26 25  1  0
 27 25  2  0
M  END
$$$$
