IYC.pdb
     RDKit          3D

 27 27  0  0  1  0  0  0  0  0999 V2000
   28.2707  -17.4559  -16.8801 C   0  0  0  0  0  0  0  0  0  0  0  0
   28.7237  -18.1831  -15.6371 C   0  0  0  0  0  0  0  0  0  0  0  0
   27.5987  -19.0276  -15.0602 C   0  0  2  0  0  0  0  0  0  0  0  0
   26.4156  -18.1325  -14.7991 C   0  0  0  0  0  0  0  0  0  0  0  0
   28.1308  -19.6564  -13.7940 C   0  0  2  0  0  0  0  0  0  0  0  0
   29.2863  -20.4516  -14.1441 N   0  0  0  0  0  0  0  0  0  0  0  0
   27.1205  -20.5344  -13.1595 C   0  0  0  0  0  0  0  0  0  0  0  0
   27.0399  -21.7001  -13.6263 O   0  0  0  0  0  0  0  0  0  0  0  0
   29.1741  -20.3117   -6.2846 O   0  0  0  0  0  0  0  0  0  0  0  0
   28.1801  -20.3613   -7.2599 C   0  0  0  0  0  0  0  0  0  0  0  0
   27.0892  -19.5483   -7.1279 C   0  0  0  0  0  0  0  0  0  0  0  0
   26.0824  -19.5662   -8.0707 C   0  0  0  0  0  0  0  0  0  0  0  0
   26.1302  -20.3923   -9.1721 C   0  0  0  0  0  0  0  0  0  0  0  0
   25.0283  -20.3563  -10.1299 C   0  0  0  0  0  0  0  0  0  0  0  0
   25.3557  -20.8715  -11.4807 C   0  0  2  0  0  0  0  0  0  0  0  0
   26.3361  -20.0208  -12.1024 N   0  0  0  0  0  0  0  0  0  0  0  0
   24.1584  -20.9660  -12.3875 C   0  0  0  0  0  0  0  0  0  0  0  0
   23.6066  -19.9745  -12.9165 O   0  0  0  0  0  0  0  0  0  0  0  0
   27.2358  -21.2116   -9.2992 C   0  0  0  0  0  0  0  0  0  0  0  0
   28.2453  -21.1946   -8.3552 C   0  0  0  0  0  0  0  0  0  0  0  0
   23.5912  -22.2564  -12.6833 N   0  0  0  0  0  0  0  0  0  0  0  0
   22.4402  -22.3433  -13.5460 C   0  0  1  0  0  0  0  0  0  0  0  0
   22.3175  -23.7753  -14.0883 C   0  0  0  0  0  0  0  0  0  0  0  0
   23.9170  -24.3091  -14.7539 S   0  0  0  0  0  0  0  0  0  0  0  0
   21.1924  -21.9458  -12.8596 C   0  0  0  0  0  0  0  0  0  0  0  0
   20.0068  -21.9698  -13.5759 O   0  0  0  0  0  0  0  0  0  0  0  0
   21.1847  -21.5915  -11.6573 O   0  0  0  0  0  0  0  0  0  0  0  0
  1  2  1  0
  2  3  1  0
  3  5  1  0
  3  4  1  1
  5  6  1  6
  7  5  1  0
  7  8  2  0
  9 10  1  0
 10 20  2  0
 10 11  1  0
 11 12  2  0
 13 12  1  0
 13 14  1  0
 15 14  1  1
 15 16  1  0
 16  7  1  0
 17 15  1  0
 18 17  2  0
 19 13  2  0
 20 19  1  0
 21 17  1  0
 22 23  1  1
 22 21  1  0
 24 23  1  0
 25 22  1  0
 26 25  1  0
 27 25  2  0
M  END
$$$$
