IYC.pdb
     RDKit          3D

 27 27  0  0  1  0  0  0  0  0999 V2000
   27.1777  -22.0764  -20.9056 C   0  0  0  0  0  0  0  0  0  0  0  0
   27.8699  -22.4713  -19.6233 C   0  0  0  0  0  0  0  0  0  0  0  0
   26.9385  -22.3158  -18.4318 C   0  0  2  0  0  0  0  0  0  0  0  0
   26.5020  -20.8762  -18.3518 C   0  0  0  0  0  0  0  0  0  0  0  0
   27.7169  -22.7462  -17.2108 C   0  0  2  0  0  0  0  0  0  0  0  0
   28.0771  -24.1360  -17.3805 N   0  0  0  0  0  0  0  0  0  0  0  0
   26.9086  -22.6088  -15.9771 C   0  0  0  0  0  0  0  0  0  0  0  0
   25.9436  -23.4084  -15.8649 O   0  0  0  0  0  0  0  0  0  0  0  0
   24.6039  -20.0267   -7.8769 O   0  0  0  0  0  0  0  0  0  0  0  0
   25.2524  -20.1541   -9.1037 C   0  0  0  0  0  0  0  0  0  0  0  0
   25.8138  -21.3574   -9.4280 C   0  0  0  0  0  0  0  0  0  0  0  0
   26.4650  -21.5262  -10.6324 C   0  0  0  0  0  0  0  0  0  0  0  0
   26.5772  -20.5043  -11.5494 C   0  0  0  0  0  0  0  0  0  0  0  0
   27.2796  -20.7564  -12.8049 C   0  0  0  0  0  0  0  0  0  0  0  0
   26.4975  -21.4988  -13.8219 C   0  0  2  0  0  0  0  0  0  0  0  0
   27.2635  -21.6179  -15.0345 N   0  0  0  0  0  0  0  0  0  0  0  0
   25.1796  -20.8499  -14.1488 C   0  0  0  0  0  0  0  0  0  0  0  0
   25.0693  -19.7996  -14.8210 O   0  0  0  0  0  0  0  0  0  0  0  0
   26.0074  -19.2906  -11.2151 C   0  0  0  0  0  0  0  0  0  0  0  0
   25.3547  -19.1202  -10.0087 C   0  0  0  0  0  0  0  0  0  0  0  0
   23.9571  -21.4467  -13.6758 N   0  0  0  0  0  0  0  0  0  0  0  0
   22.7149  -20.7324  -13.8280 C   0  0  1  0  0  0  0  0  0  0  0  0
   21.9034  -21.3600  -14.9714 C   0  0  0  0  0  0  0  0  0  0  0  0
   20.2176  -20.6936  -14.9534 S   0  0  0  0  0  0  0  0  0  0  0  0
   21.9191  -20.7173  -12.5819 C   0  0  0  0  0  0  0  0  0  0  0  0
   20.7734  -19.9396  -12.5379 O   0  0  0  0  0  0  0  0  0  0  0  0
   22.2553  -21.3857  -11.5762 O   0  0  0  0  0  0  0  0  0  0  0  0
  1  2  1  0
  2  3  1  0
  3  5  1  0
  3  4  1  1
  5  6  1  6
  7  5  1  0
  7  8  2  0
  9 10  1  0
 10 20  2  0
 10 11  1  0
 11 12  2  0
 13 12  1  0
 13 14  1  0
 15 14  1  1
 15 16  1  0
 16  7  1  0
 17 15  1  0
 18 17  2  0
 19 13  2  0
 20 19  1  0
 21 17  1  0
 22 23  1  6
 22 21  1  0
 24 23  1  0
 25 22  1  0
 26 25  1  0
 27 25  2  0
M  END
$$$$
