IYC.pdb
     RDKit          3D

 27 27  0  0  1  0  0  0  0  0999 V2000
   28.5318  -16.7310  -15.2232 C   0  0  0  0  0  0  0  0  0  0  0  0
   27.4677  -17.7723  -14.9732 C   0  0  0  0  0  0  0  0  0  0  0  0
   28.0841  -19.1531  -14.8145 C   0  0  2  0  0  0  0  0  0  0  0  0
   28.7096  -19.5502  -16.1261 C   0  0  0  0  0  0  0  0  0  0  0  0
   26.9669  -20.0851  -14.4080 C   0  0  2  0  0  0  0  0  0  0  0  0
   25.9210  -19.9849  -15.4010 N   0  0  0  0  0  0  0  0  0  0  0  0
   26.4084  -19.7169  -13.0863 C   0  0  0  0  0  0  0  0  0  0  0  0
   25.5382  -18.8082  -13.0954 O   0  0  0  0  0  0  0  0  0  0  0  0
   20.9440  -21.1804   -6.9545 O   0  0  0  0  0  0  0  0  0  0  0  0
   21.9951  -21.2839   -7.8636 C   0  0  0  0  0  0  0  0  0  0  0  0
   21.8454  -20.7342   -9.1060 C   0  0  0  0  0  0  0  0  0  0  0  0
   22.8613  -20.8143  -10.0359 C   0  0  0  0  0  0  0  0  0  0  0  0
   24.0552  -21.4429   -9.7583 C   0  0  0  0  0  0  0  0  0  0  0  0
   25.0865  -21.4877  -10.7915 C   0  0  0  0  0  0  0  0  0  0  0  0
   26.0702  -20.3798  -10.7428 C   0  0  2  0  0  0  0  0  0  0  0  0
   26.8756  -20.3904  -11.9355 N   0  0  0  0  0  0  0  0  0  0  0  0
   26.9820  -20.4463   -9.5475 C   0  0  0  0  0  0  0  0  0  0  0  0
   27.9749  -21.2050   -9.4715 O   0  0  0  0  0  0  0  0  0  0  0  0
   24.1997  -21.9965   -8.5003 C   0  0  0  0  0  0  0  0  0  0  0  0
   23.1826  -21.9169   -7.5677 C   0  0  0  0  0  0  0  0  0  0  0  0
   26.7247  -19.6015   -8.4097 N   0  0  0  0  0  0  0  0  0  0  0  0
   27.5684  -19.7041   -7.2460 C   0  0  1  0  0  0  0  0  0  0  0  0
   28.0050  -18.2979   -6.8080 C   0  0  0  0  0  0  0  0  0  0  0  0
   28.9493  -18.4110   -5.2647 S   0  0  0  0  0  0  0  0  0  0  0  0
   26.9013  -20.4058   -6.1284 C   0  0  0  0  0  0  0  0  0  0  0  0
   27.6889  -21.0279   -5.1735 O   0  0  0  0  0  0  0  0  0  0  0  0
   25.6525  -20.4490   -6.0280 O   0  0  0  0  0  0  0  0  0  0  0  0
  1  2  1  0
  2  3  1  0
  3  5  1  0
  3  4  1  6
  5  6  1  6
  7  5  1  0
  7  8  2  0
  9 10  1  0
 10 20  2  0
 10 11  1  0
 11 12  2  0
 13 12  1  0
 13 14  1  0
 15 14  1  6
 15 16  1  0
 16  7  1  0
 17 15  1  0
 18 17  2  0
 19 13  2  0
 20 19  1  0
 21 17  1  0
 22 23  1  1
 22 21  1  0
 24 23  1  0
 25 22  1  0
 26 25  1  0
 27 25  2  0
M  END
$$$$
