IYC.pdb
     RDKit          3D

 27 27  0  0  1  0  0  0  0  0999 V2000
   26.7193  -20.6057  -20.0273 C   0  0  0  0  0  0  0  0  0  0  0  0
   27.4853  -21.2303  -18.8861 C   0  0  0  0  0  0  0  0  0  0  0  0
   26.6338  -21.2915  -17.6281 C   0  0  2  0  0  0  0  0  0  0  0  0
   26.2301  -19.8887  -17.2562 C   0  0  0  0  0  0  0  0  0  0  0  0
   27.4793  -21.9455  -16.5607 C   0  0  2  0  0  0  0  0  0  0  0  0
   27.7849  -23.2895  -16.9971 N   0  0  0  0  0  0  0  0  0  0  0  0
   26.7607  -22.0144  -15.2673 C   0  0  0  0  0  0  0  0  0  0  0  0
   25.8376  -22.8668  -15.2004 O   0  0  0  0  0  0  0  0  0  0  0  0
   24.7575  -19.9802   -6.8756 O   0  0  0  0  0  0  0  0  0  0  0  0
   25.3803  -20.2013   -8.1024 C   0  0  0  0  0  0  0  0  0  0  0  0
   25.6895  -19.1245   -8.8856 C   0  0  0  0  0  0  0  0  0  0  0  0
   26.3063  -19.2992  -10.1071 C   0  0  0  0  0  0  0  0  0  0  0  0
   26.6338  -20.5487  -10.5859 C   0  0  0  0  0  0  0  0  0  0  0  0
   27.2872  -20.6570  -11.8876 C   0  0  0  0  0  0  0  0  0  0  0  0
   26.4307  -21.1852  -12.9761 C   0  0  2  0  0  0  0  0  0  0  0  0
   27.1472  -21.1440  -14.2236 N   0  0  0  0  0  0  0  0  0  0  0  0
   25.1407  -20.4275  -13.1384 C   0  0  0  0  0  0  0  0  0  0  0  0
   25.0760  -19.2400  -13.5293 O   0  0  0  0  0  0  0  0  0  0  0  0
   26.3183  -21.6328   -9.7890 C   0  0  0  0  0  0  0  0  0  0  0  0
   25.7003  -21.4591   -8.5649 C   0  0  0  0  0  0  0  0  0  0  0  0
   23.8918  -21.0777  -12.8350 N   0  0  0  0  0  0  0  0  0  0  0  0
   22.6638  -20.3286  -12.9216 C   0  0  1  0  0  0  0  0  0  0  0  0
   21.8988  -20.7493  -14.1855 C   0  0  0  0  0  0  0  0  0  0  0  0
   22.8480  -20.2712  -15.6542 S   0  0  0  0  0  0  0  0  0  0  0  0
   21.8134  -20.5036  -11.7248 C   0  0  0  0  0  0  0  0  0  0  0  0
   20.6348  -19.7804  -11.6391 O   0  0  0  0  0  0  0  0  0  0  0  0
   22.1326  -21.2834  -10.7968 O   0  0  0  0  0  0  0  0  0  0  0  0
  1  2  1  0
  2  3  1  0
  3  5  1  0
  3  4  1  1
  5  6  1  6
  7  5  1  0
  7  8  2  0
  9 10  1  0
 10 20  2  0
 10 11  1  0
 11 12  2  0
 13 12  1  0
 13 14  1  0
 15 14  1  1
 15 16  1  0
 16  7  1  0
 17 15  1  0
 18 17  2  0
 19 13  2  0
 20 19  1  0
 21 17  1  0
 22 23  1  6
 22 21  1  0
 24 23  1  0
 25 22  1  0
 26 25  1  0
 27 25  2  0
M  END
$$$$
