IYC.pdb
     RDKit          3D

 27 27  0  0  1  0  0  0  0  0999 V2000
   19.9048  -14.0873  -19.5800 C   0  0  0  0  0  0  0  0  0  0  0  0
   21.1737  -13.3361  -19.2561 C   0  0  0  0  0  0  0  0  0  0  0  0
   20.9576  -12.3779  -18.0956 C   0  0  2  0  0  0  0  0  0  0  0  0
   19.8523  -11.4231  -18.4644 C   0  0  0  0  0  0  0  0  0  0  0  0
   22.2718  -11.6698  -17.8644 C   0  0  2  0  0  0  0  0  0  0  0  0
   23.2840  -12.6757  -17.6329 N   0  0  0  0  0  0  0  0  0  0  0  0
   22.2057  -10.7773  -16.6840 C   0  0  0  0  0  0  0  0  0  0  0  0
   21.8265  -11.3167  -15.6124 O   0  0  0  0  0  0  0  0  0  0  0  0
   26.8365   -5.6159  -19.2816 O   0  0  0  0  0  0  0  0  0  0  0  0
   26.0111   -6.1378  -18.2875 C   0  0  0  0  0  0  0  0  0  0  0  0
   26.1568   -7.4504  -17.9349 C   0  0  0  0  0  0  0  0  0  0  0  0
   25.3601   -8.0066  -16.9557 C   0  0  0  0  0  0  0  0  0  0  0  0
   24.3956   -7.2749  -16.2984 C   0  0  0  0  0  0  0  0  0  0  0  0
   23.5902   -7.9301  -15.2712 C   0  0  0  0  0  0  0  0  0  0  0  0
   22.3107   -8.5049  -15.7507 C   0  0  2  0  0  0  0  0  0  0  0  0
   22.5624   -9.4184  -16.8340 N   0  0  0  0  0  0  0  0  0  0  0  0
   21.3298   -7.4641  -16.2189 C   0  0  0  0  0  0  0  0  0  0  0  0
   21.1478   -7.1713  -17.4224 O   0  0  0  0  0  0  0  0  0  0  0  0
   24.2537   -5.9487  -16.6598 C   0  0  0  0  0  0  0  0  0  0  0  0
   25.0513   -5.3901  -17.6408 C   0  0  0  0  0  0  0  0  0  0  0  0
   20.5399   -6.7462  -15.2518 N   0  0  0  0  0  0  0  0  0  0  0  0
   19.6476   -5.7061  -15.6976 C   0  0  1  0  0  0  0  0  0  0  0  0
   18.1974   -6.1194  -15.4047 C   0  0  0  0  0  0  0  0  0  0  0  0
   17.1005   -4.6988  -15.6595 S   0  0  0  0  0  0  0  0  0  0  0  0
   19.9466   -4.4017  -15.0689 C   0  0  0  0  0  0  0  0  0  0  0  0
   19.6747   -3.2456  -15.7822 O   0  0  0  0  0  0  0  0  0  0  0  0
   20.4352   -4.3208  -13.9173 O   0  0  0  0  0  0  0  0  0  0  0  0
  1  2  1  0
  2  3  1  0
  3  5  1  0
  3  4  1  6
  5  6  1  1
  7  5  1  0
  7  8  2  0
  9 10  1  0
 10 20  2  0
 10 11  1  0
 11 12  2  0
 13 12  1  0
 13 14  1  0
 15 14  1  6
 15 16  1  0
 16  7  1  0
 17 15  1  0
 18 17  2  0
 19 13  2  0
 20 19  1  0
 21 17  1  0
 22 23  1  1
 22 21  1  0
 24 23  1  0
 25 22  1  0
 26 25  1  0
 27 25  2  0
M  END
$$$$
