IYC.pdb
     RDKit          3D

 27 27  0  0  1  0  0  0  0  0999 V2000
   27.7130  -26.7640  -16.0669 C   0  0  0  0  0  0  0  0  0  0  0  0
   28.4618  -25.4748  -16.3043 C   0  0  0  0  0  0  0  0  0  0  0  0
   28.1775  -24.9282  -17.6942 C   0  0  2  0  0  0  0  0  0  0  0  0
   28.7436  -25.8868  -18.7091 C   0  0  0  0  0  0  0  0  0  0  0  0
   28.8274  -23.5666  -17.7687 C   0  0  2  0  0  0  0  0  0  0  0  0
   30.2479  -23.7404  -17.5640 N   0  0  0  0  0  0  0  0  0  0  0  0
   28.3013  -22.6577  -16.7240 C   0  0  0  0  0  0  0  0  0  0  0  0
   29.1609  -22.1536  -15.9557 O   0  0  0  0  0  0  0  0  0  0  0  0
   25.5886  -18.0566  -21.1942 O   0  0  0  0  0  0  0  0  0  0  0  0
   25.8880  -18.5428  -19.9230 C   0  0  0  0  0  0  0  0  0  0  0  0
   27.0937  -19.1541  -19.7208 C   0  0  0  0  0  0  0  0  0  0  0  0
   27.4297  -19.6495  -18.4779 C   0  0  0  0  0  0  0  0  0  0  0  0
   26.5776  -19.5518  -17.4000 C   0  0  0  0  0  0  0  0  0  0  0  0
   27.0012  -20.0978  -16.1134 C   0  0  0  0  0  0  0  0  0  0  0  0
   26.4103  -21.4120  -15.7657 C   0  0  2  0  0  0  0  0  0  0  0  0
   26.9095  -22.4229  -16.6602 N   0  0  0  0  0  0  0  0  0  0  0  0
   24.9065  -21.4215  -15.8223 C   0  0  0  0  0  0  0  0  0  0  0  0
   24.2512  -21.6530  -16.8636 O   0  0  0  0  0  0  0  0  0  0  0  0
   25.3603  -18.9327  -17.6115 C   0  0  0  0  0  0  0  0  0  0  0  0
   25.0225  -18.4359  -18.8564 C   0  0  0  0  0  0  0  0  0  0  0  0
   24.1487  -21.1527  -14.6274 N   0  0  0  0  0  0  0  0  0  0  0  0
   22.7089  -21.1780  -14.6809 C   0  0  1  0  0  0  0  0  0  0  0  0
   22.1488  -21.3128  -13.2568 C   0  0  0  0  0  0  0  0  0  0  0  0
   20.3377  -21.3577  -13.3209 S   0  0  0  0  0  0  0  0  0  0  0  0
   22.1500  -19.9787  -15.3408 C   0  0  0  0  0  0  0  0  0  0  0  0
   21.0410  -20.1292  -16.1574 O   0  0  0  0  0  0  0  0  0  0  0  0
   22.6526  -18.8419  -15.1789 O   0  0  0  0  0  0  0  0  0  0  0  0
  1  2  1  0
  2  3  1  0
  3  5  1  0
  3  4  1  6
  5  6  1  1
  7  5  1  0
  7  8  2  0
  9 10  1  0
 10 20  2  0
 10 11  1  0
 11 12  2  0
 13 12  1  0
 13 14  1  0
 15 14  1  6
 15 16  1  0
 16  7  1  0
 17 15  1  0
 18 17  2  0
 19 13  2  0
 20 19  1  0
 21 17  1  0
 22 23  1  1
 22 21  1  0
 24 23  1  0
 25 22  1  0
 26 25  1  0
 27 25  2  0
M  END
$$$$
