IYC.pdb
     RDKit          3D

 27 27  0  0  1  0  0  0  0  0999 V2000
   28.1560  -20.4631  -20.6537 C   0  0  0  0  0  0  0  0  0  0  0  0
   28.7724  -21.0710  -19.4168 C   0  0  0  0  0  0  0  0  0  0  0  0
   27.7433  -21.2054  -18.3057 C   0  0  2  0  0  0  0  0  0  0  0  0
   27.1951  -19.8371  -17.9948 C   0  0  0  0  0  0  0  0  0  0  0  0
   28.4560  -21.8184  -17.1232 C   0  0  2  0  0  0  0  0  0  0  0  0
   28.8758  -23.1499  -17.4986 N   0  0  0  0  0  0  0  0  0  0  0  0
   27.5651  -21.9126  -15.9435 C   0  0  0  0  0  0  0  0  0  0  0  0
   26.6797  -22.8049  -15.9980 O   0  0  0  0  0  0  0  0  0  0  0  0
   24.3791  -20.3587   -7.8779 O   0  0  0  0  0  0  0  0  0  0  0  0
   25.1688  -20.3507   -9.0260 C   0  0  0  0  0  0  0  0  0  0  0  0
   25.5970  -21.5440   -9.5370 C   0  0  0  0  0  0  0  0  0  0  0  0
   26.3805  -21.5808  -10.6719 C   0  0  0  0  0  0  0  0  0  0  0  0
   26.7612  -20.4331  -11.3319 C   0  0  0  0  0  0  0  0  0  0  0  0
   27.5904  -20.5490  -12.5285 C   0  0  0  0  0  0  0  0  0  0  0  0
   26.9029  -21.1129  -13.7146 C   0  0  2  0  0  0  0  0  0  0  0  0
   27.7620  -21.0206  -14.8656 N   0  0  0  0  0  0  0  0  0  0  0  0
   25.6020  -20.4256  -14.0305 C   0  0  0  0  0  0  0  0  0  0  0  0
   25.5179  -19.3661  -14.6921 O   0  0  0  0  0  0  0  0  0  0  0  0
   26.3248  -19.2303  -10.8099 C   0  0  0  0  0  0  0  0  0  0  0  0
   25.5397  -19.1921   -9.6728 C   0  0  0  0  0  0  0  0  0  0  0  0
   24.3654  -20.9938  -13.5591 N   0  0  0  0  0  0  0  0  0  0  0  0
   23.1207  -20.3360  -13.8668 C   0  0  1  0  0  0  0  0  0  0  0  0
   22.9171  -20.3183  -15.3893 C   0  0  0  0  0  0  0  0  0  0  0  0
   21.2598  -19.6901  -15.7706 S   0  0  0  0  0  0  0  0  0  0  0  0
   21.9665  -20.9780  -13.2020 C   0  0  0  0  0  0  0  0  0  0  0  0
   20.7251  -20.3709  -13.2993 O   0  0  0  0  0  0  0  0  0  0  0  0
   22.0863  -22.0478  -12.5597 O   0  0  0  0  0  0  0  0  0  0  0  0
  1  2  1  0
  2  3  1  0
  3  5  1  0
  3  4  1  1
  5  6  1  6
  7  5  1  0
  7  8  2  0
  9 10  1  0
 10 20  2  0
 10 11  1  0
 11 12  2  0
 13 12  1  0
 13 14  1  0
 15 14  1  1
 15 16  1  0
 16  7  1  0
 17 15  1  0
 18 17  2  0
 19 13  2  0
 20 19  1  0
 21 17  1  0
 22 23  1  6
 22 21  1  0
 24 23  1  0
 25 22  1  0
 26 25  1  0
 27 25  2  0
M  END
$$$$
