GNH.pdb
     RDKit          3D

 23 23  0  0  1  0  0  0  0  0999 V2000
   23.9476  -21.5714  -14.5138 N   0  0  0  0  0  0  0  0  0  0  0  0
   25.3641  -21.8035  -14.3358 C   0  0  0  0  0  0  0  0  0  0  0  0
   25.9378  -22.2921  -15.6154 C   0  0  0  0  0  0  0  0  0  0  0  0
   25.1894  -22.7013  -16.5310 O   0  0  0  0  0  0  0  0  0  0  0  0
   27.1358  -20.1947  -17.5196 N   0  0  0  0  0  0  0  0  0  0  0  0
   28.4615  -20.5443  -17.8450 C   0  0  0  0  0  0  0  0  0  0  0  0
   29.2250  -19.6618  -18.2802 O   0  0  0  0  0  0  0  0  0  0  0  0
   28.9322  -21.9091  -17.6765 C   0  0  0  0  0  0  0  0  0  0  0  0
   27.9096  -22.8357  -17.0599 C   0  0  2  0  0  0  0  0  0  0  0  0
   27.3465  -22.3160  -15.8536 N   0  0  0  0  0  0  0  0  0  0  0  0
   28.4738  -24.2067  -16.8602 C   0  0  0  0  0  0  0  0  0  0  0  0
   28.8270  -24.5132  -15.7099 O   0  0  0  0  0  0  0  0  0  0  0  0
   28.6138  -25.1358  -17.9037 N   0  0  0  0  0  0  0  0  0  0  0  0
   28.8621  -26.5492  -17.7898 C   0  0  1  0  0  0  0  0  0  0  0  0
   28.0336  -27.2076  -16.7511 C   0  0  0  0  0  0  0  0  0  0  0  0
   28.3510  -28.6455  -16.6484 C   0  0  0  0  0  0  0  0  0  0  0  0
   29.2211  -29.4209  -17.3456 C   0  0  0  0  0  0  0  0  0  0  0  0
   29.1281  -30.6830  -16.9074 N   0  0  0  0  0  0  0  0  0  0  0  0
   28.2068  -30.7351  -15.9332 C   0  0  0  0  0  0  0  0  0  0  0  0
   27.7307  -29.4916  -15.7733 N   0  0  0  0  0  0  0  0  0  0  0  0
   28.9410  -27.2635  -19.0782 C   0  0  0  0  0  0  0  0  0  0  0  0
   28.4802  -26.6720  -20.1161 O   0  0  0  0  0  0  0  0  0  0  0  0
   29.4698  -28.5155  -19.2724 O   0  0  0  0  0  0  0  0  0  0  0  0
  2  3  1  0
  2  1  1  0
  3 10  1  0
  4  3  2  0
  6  8  1  0
  6  5  1  0
  7  6  2  0
  9  8  1  1
 10  9  1  0
 11  9  1  0
 12 11  2  0
 13 11  1  0
 14 15  1  1
 14 13  1  0
 15 16  1  0
 16 17  2  0
 18 17  1  0
 19 18  1  0
 20 19  2  0
 20 16  1  0
 21 14  1  0
 21 23  1  0
 22 21  2  0
M  END
$$$$
