GNH.pdb
     RDKit          3D

 23 23  0  0  1  0  0  0  0  0999 V2000
   12.1659  -18.0623    9.1110 N   0  0  0  0  0  0  0  0  0  0  0  0
   12.7149  -17.5073    7.8933 C   0  0  0  0  0  0  0  0  0  0  0  0
   14.1601  -17.8407    7.8194 C   0  0  0  0  0  0  0  0  0  0  0  0
   14.7960  -18.1397    8.8548 O   0  0  0  0  0  0  0  0  0  0  0  0
   16.0800  -20.8462    6.8554 N   0  0  0  0  0  0  0  0  0  0  0  0
   16.4586  -20.3779    5.5814 C   0  0  0  0  0  0  0  0  0  0  0  0
   16.6127  -21.2023    4.6607 O   0  0  0  0  0  0  0  0  0  0  0  0
   16.6659  -18.9590    5.3432 C   0  0  0  0  0  0  0  0  0  0  0  0
   16.2824  -18.0814    6.5124 C   0  0  2  0  0  0  0  0  0  0  0  0
   14.8764  -17.8351    6.5831 N   0  0  0  0  0  0  0  0  0  0  0  0
   17.0668  -16.8076    6.5121 C   0  0  0  0  0  0  0  0  0  0  0  0
   16.4779  -15.7784    6.1441 O   0  0  0  0  0  0  0  0  0  0  0  0
   18.4134  -16.7384    6.9043 N   0  0  0  0  0  0  0  0  0  0  0  0
   19.1750  -15.5569    7.2146 C   0  0  1  0  0  0  0  0  0  0  0  0
   18.4206  -14.2993    6.9952 C   0  0  0  0  0  0  0  0  0  0  0  0
   19.2981  -13.1204    7.1321 C   0  0  0  0  0  0  0  0  0  0  0  0
   20.5583  -12.8871    6.6825 C   0  0  0  0  0  0  0  0  0  0  0  0
   20.9486  -11.6724    7.0899 N   0  0  0  0  0  0  0  0  0  0  0  0
   19.9553  -11.1149    7.7991 C   0  0  0  0  0  0  0  0  0  0  0  0
   18.9461  -11.9977    7.8263 N   0  0  0  0  0  0  0  0  0  0  0  0
   19.9262  -15.6273    8.4823 C   0  0  0  0  0  0  0  0  0  0  0  0
   21.1915  -15.4366    8.4360 O   0  0  0  0  0  0  0  0  0  0  0  0
   19.3908  -15.8784    9.7214 O   0  0  0  0  0  0  0  0  0  0  0  0
  2  3  1  0
  2  1  1  0
  3 10  1  0
  4  3  2  0
  6  8  1  0
  6  5  1  0
  7  6  2  0
  9  8  1  6
 10  9  1  0
 11  9  1  0
 12 11  2  0
 13 11  1  0
 14 15  1  1
 14 13  1  0
 15 16  1  0
 16 17  2  0
 18 17  1  0
 19 18  1  0
 20 19  2  0
 20 16  1  0
 21 14  1  0
 21 23  1  0
 22 21  2  0
M  END
$$$$
