GNH.pdb
     RDKit          3D

 23 23  0  0  1  0  0  0  0  0999 V2000
   20.6191  -12.8137  -18.4638 N   0  0  0  0  0  0  0  0  0  0  0  0
   20.8201  -11.9266  -19.5884 C   0  0  0  0  0  0  0  0  0  0  0  0
   21.5093  -10.6985  -19.1174 C   0  0  0  0  0  0  0  0  0  0  0  0
   21.8526   -9.8118  -19.9310 O   0  0  0  0  0  0  0  0  0  0  0  0
   23.3760   -6.8441  -16.3020 N   0  0  0  0  0  0  0  0  0  0  0  0
   22.4607   -7.5508  -15.4967 C   0  0  0  0  0  0  0  0  0  0  0  0
   22.1047   -7.0507  -14.4130 O   0  0  0  0  0  0  0  0  0  0  0  0
   21.9398   -8.8399  -15.9206 C   0  0  0  0  0  0  0  0  0  0  0  0
   22.4459   -9.2882  -17.2723 C   0  0  2  0  0  0  0  0  0  0  0  0
   21.8060  -10.4785  -17.7371 N   0  0  0  0  0  0  0  0  0  0  0  0
   23.9355   -9.4255  -17.2732 C   0  0  0  0  0  0  0  0  0  0  0  0
   24.6009   -8.3924  -17.0953 O   0  0  0  0  0  0  0  0  0  0  0  0
   24.5904  -10.6529  -17.4637 N   0  0  0  0  0  0  0  0  0  0  0  0
   26.0093  -10.8874  -17.5270 C   0  0  1  0  0  0  0  0  0  0  0  0
   26.4950  -11.8254  -16.4863 C   0  0  0  0  0  0  0  0  0  0  0  0
   27.9450  -12.0664  -16.6206 C   0  0  0  0  0  0  0  0  0  0  0  0
   28.8658  -11.5312  -17.4634 C   0  0  0  0  0  0  0  0  0  0  0  0
   30.0566  -12.0953  -17.2233 N   0  0  0  0  0  0  0  0  0  0  0  0
   29.9185  -12.9908  -16.2337 C   0  0  0  0  0  0  0  0  0  0  0  0
   28.6294  -12.9750  -15.8640 N   0  0  0  0  0  0  0  0  0  0  0  0
   26.5305  -11.1299  -18.8857 C   0  0  0  0  0  0  0  0  0  0  0  0
   25.8840  -11.9423  -19.6351 O   0  0  0  0  0  0  0  0  0  0  0  0
   27.6543  -10.5589  -19.4296 O   0  0  0  0  0  0  0  0  0  0  0  0
  2  3  1  0
  2  1  1  0
  3 10  1  0
  4  3  2  0
  6  8  1  0
  6  5  1  0
  7  6  2  0
  9  8  1  1
 10  9  1  0
 11  9  1  0
 12 11  2  0
 13 11  1  0
 14 15  1  1
 14 13  1  0
 15 16  1  0
 16 17  2  0
 18 17  1  0
 19 18  1  0
 20 19  2  0
 20 16  1  0
 21 14  1  0
 21 23  1  0
 22 21  2  0
M  END
$$$$
