GNH.pdb
     RDKit          3D

 23 23  0  0  1  0  0  0  0  0999 V2000
   31.1980  -39.0646   -4.5467 N   0  0  0  0  0  0  0  0  0  0  0  0
   30.0371  -38.6618   -3.7836 C   0  0  0  0  0  0  0  0  0  0  0  0
   30.2438  -37.2788   -3.2839 C   0  0  0  0  0  0  0  0  0  0  0  0
   31.3394  -36.6991   -3.4560 O   0  0  0  0  0  0  0  0  0  0  0  0
   29.4513  -34.4799   -4.7316 N   0  0  0  0  0  0  0  0  0  0  0  0
   28.4789  -33.8922   -3.8982 C   0  0  0  0  0  0  0  0  0  0  0  0
   27.7006  -33.0508   -4.3855 O   0  0  0  0  0  0  0  0  0  0  0  0
   28.3835  -34.2593   -2.4950 C   0  0  0  0  0  0  0  0  0  0  0  0
   29.4298  -35.2562   -2.0524 C   0  0  2  0  0  0  0  0  0  0  0  0
   29.2177  -36.5607   -2.5961 N   0  0  0  0  0  0  0  0  0  0  0  0
   29.5460  -35.2914   -0.5614 C   0  0  0  0  0  0  0  0  0  0  0  0
   28.4891  -35.3092    0.0901 O   0  0  0  0  0  0  0  0  0  0  0  0
   30.7794  -35.3048    0.1096 N   0  0  0  0  0  0  0  0  0  0  0  0
   31.0057  -35.4665    1.5221 C   0  0  1  0  0  0  0  0  0  0  0  0
   30.2050  -36.5609    2.1220 C   0  0  0  0  0  0  0  0  0  0  0  0
   30.3544  -36.5877    3.5902 C   0  0  0  0  0  0  0  0  0  0  0  0
   30.6553  -35.6033    4.4762 C   0  0  0  0  0  0  0  0  0  0  0  0
   30.7106  -36.1270    5.7076 N   0  0  0  0  0  0  0  0  0  0  0  0
   30.4488  -37.4407    5.6304 C   0  0  0  0  0  0  0  0  0  0  0  0
   30.2310  -37.7244    4.3378 N   0  0  0  0  0  0  0  0  0  0  0  0
   32.4249  -35.4320    1.9234 C   0  0  0  0  0  0  0  0  0  0  0  0
   32.6984  -35.6151    3.1608 O   0  0  0  0  0  0  0  0  0  0  0  0
   33.4924  -35.2221    1.0860 O   0  0  0  0  0  0  0  0  0  0  0  0
  2  3  1  0
  2  1  1  0
  3 10  1  0
  4  3  2  0
  6  8  1  0
  6  5  1  0
  7  6  2  0
  9  8  1  1
 10  9  1  0
 11  9  1  0
 12 11  2  0
 13 11  1  0
 14 15  1  6
 14 13  1  0
 15 16  1  0
 16 17  2  0
 18 17  1  0
 19 18  1  0
 20 19  2  0
 20 16  1  0
 21 14  1  0
 21 23  1  0
 22 21  2  0
M  END
$$$$
