GNH.pdb
     RDKit          3D

 23 23  0  0  1  0  0  0  0  0999 V2000
   12.7869  -10.7509   -9.3101 N   0  0  0  0  0  0  0  0  0  0  0  0
   14.0416  -10.7955  -10.0283 C   0  0  0  0  0  0  0  0  0  0  0  0
   14.4750   -9.4075  -10.3297 C   0  0  0  0  0  0  0  0  0  0  0  0
   14.3329   -8.9339  -11.4793 O   0  0  0  0  0  0  0  0  0  0  0  0
   13.0888   -6.3978   -8.5810 N   0  0  0  0  0  0  0  0  0  0  0  0
   14.2572   -5.9941   -7.9048 C   0  0  0  0  0  0  0  0  0  0  0  0
   14.1450   -5.3223   -6.8620 O   0  0  0  0  0  0  0  0  0  0  0  0
   15.5708   -6.3538   -8.4124 C   0  0  0  0  0  0  0  0  0  0  0  0
   15.5308   -7.2472   -9.6308 C   0  0  2  0  0  0  0  0  0  0  0  0
   15.0636   -8.5653   -9.3368 N   0  0  0  0  0  0  0  0  0  0  0  0
   16.8552   -7.2728  -10.3258 C   0  0  0  0  0  0  0  0  0  0  0  0
   17.6714   -8.1342   -9.9603 O   0  0  0  0  0  0  0  0  0  0  0  0
   17.1981   -6.3779  -11.3521 N   0  0  0  0  0  0  0  0  0  0  0  0
   18.2729   -6.5048  -12.3013 C   0  0  1  0  0  0  0  0  0  0  0  0
   18.3261   -7.8365  -12.9513 C   0  0  0  0  0  0  0  0  0  0  0  0
   19.4050   -7.8963  -13.9569 C   0  0  0  0  0  0  0  0  0  0  0  0
   19.5045   -7.3467  -15.1949 C   0  0  0  0  0  0  0  0  0  0  0  0
   20.6699   -7.7145  -15.7428 N   0  0  0  0  0  0  0  0  0  0  0  0
   21.3279   -8.4969  -14.8736 C   0  0  0  0  0  0  0  0  0  0  0  0
   20.5570   -8.6094  -13.7820 N   0  0  0  0  0  0  0  0  0  0  0  0
   18.4264   -5.3537  -13.2111 C   0  0  0  0  0  0  0  0  0  0  0  0
   19.4314   -5.3518  -14.0045 O   0  0  0  0  0  0  0  0  0  0  0  0
   17.5829   -4.2734  -13.2903 O   0  0  0  0  0  0  0  0  0  0  0  0
  2  3  1  0
  2  1  1  0
  3 10  1  0
  4  3  2  0
  6  8  1  0
  6  5  1  0
  7  6  2  0
  9  8  1  1
 10  9  1  0
 11  9  1  0
 12 11  2  0
 13 11  1  0
 14 15  1  6
 14 13  1  0
 15 16  1  0
 16 17  2  0
 18 17  1  0
 19 18  1  0
 20 19  2  0
 20 16  1  0
 21 14  1  0
 21 23  1  0
 22 21  2  0
M  END
$$$$
