GNH.pdb
     RDKit          3D

 23 23  0  0  1  0  0  0  0  0999 V2000
   25.9376  -22.0243  -14.6734 N   0  0  0  0  0  0  0  0  0  0  0  0
   25.2651  -21.3851  -15.7830 C   0  0  0  0  0  0  0  0  0  0  0  0
   24.8741  -20.0094  -15.3829 C   0  0  0  0  0  0  0  0  0  0  0  0
   24.1269  -19.8238  -14.3964 O   0  0  0  0  0  0  0  0  0  0  0  0
   27.2395  -17.1141  -14.0296 N   0  0  0  0  0  0  0  0  0  0  0  0
   27.1895  -16.7440  -15.3883 C   0  0  0  0  0  0  0  0  0  0  0  0
   28.2565  -16.6478  -16.0235 O   0  0  0  0  0  0  0  0  0  0  0  0
   25.9173  -16.4790  -16.0395 C   0  0  0  0  0  0  0  0  0  0  0  0
   24.8693  -17.5380  -15.7854 C   0  0  2  0  0  0  0  0  0  0  0  0
   25.3266  -18.8562  -16.0947 N   0  0  0  0  0  0  0  0  0  0  0  0
   23.5924  -17.2157  -16.4951 C   0  0  0  0  0  0  0  0  0  0  0  0
   23.5162  -17.5251  -17.6951 O   0  0  0  0  0  0  0  0  0  0  0  0
   22.5040  -16.5907  -15.8654 N   0  0  0  0  0  0  0  0  0  0  0  0
   21.2663  -16.1713  -16.4691 C   0  0  1  0  0  0  0  0  0  0  0  0
   20.0671  -16.6811  -15.7613 C   0  0  0  0  0  0  0  0  0  0  0  0
   19.8969  -18.1313  -15.9774 C   0  0  0  0  0  0  0  0  0  0  0  0
   20.6228  -19.0176  -16.7067 C   0  0  0  0  0  0  0  0  0  0  0  0
   20.0506  -20.2254  -16.6203 N   0  0  0  0  0  0  0  0  0  0  0  0
   18.9610  -20.1325  -15.8428 C   0  0  0  0  0  0  0  0  0  0  0  0
   18.8651  -18.8541  -15.4489 N   0  0  0  0  0  0  0  0  0  0  0  0
   21.2184  -14.7446  -16.8414 C   0  0  0  0  0  0  0  0  0  0  0  0
   20.6197  -14.4330  -17.9295 O   0  0  0  0  0  0  0  0  0  0  0  0
   21.7589  -13.7074  -16.1224 O   0  0  0  0  0  0  0  0  0  0  0  0
  2  3  1  0
  2  1  1  0
  3 10  1  0
  4  3  2  0
  6  8  1  0
  6  5  1  0
  7  6  2  0
  9  8  1  6
 10  9  1  0
 11  9  1  0
 12 11  2  0
 13 11  1  0
 14 15  1  1
 14 13  1  0
 15 16  1  0
 16 17  2  0
 18 17  1  0
 19 18  1  0
 20 19  2  0
 20 16  1  0
 21 14  1  0
 21 23  1  0
 22 21  2  0
M  END
$$$$
