GNH.pdb
     RDKit          3D

 23 23  0  0  1  0  0  0  0  0999 V2000
   18.7282   -6.3435  -19.9742 N   0  0  0  0  0  0  0  0  0  0  0  0
   17.9655   -7.5420  -20.2460 C   0  0  0  0  0  0  0  0  0  0  0  0
   18.1505   -8.4970  -19.1239 C   0  0  0  0  0  0  0  0  0  0  0  0
   17.2494   -8.6546  -18.2699 O   0  0  0  0  0  0  0  0  0  0  0  0
   19.7840  -13.5224  -17.2905 N   0  0  0  0  0  0  0  0  0  0  0  0
   20.5424  -12.3383  -17.1998 C   0  0  0  0  0  0  0  0  0  0  0  0
   21.2896  -12.1783  -16.2162 O   0  0  0  0  0  0  0  0  0  0  0  0
   20.4564  -11.3204  -18.2338 C   0  0  0  0  0  0  0  0  0  0  0  0
   19.5403  -10.1704  -17.8837 C   0  0  2  0  0  0  0  0  0  0  0  0
   19.3456   -9.2653  -18.9724 N   0  0  0  0  0  0  0  0  0  0  0  0
   20.0097   -9.4611  -16.6530 C   0  0  0  0  0  0  0  0  0  0  0  0
   20.1418  -10.1403  -15.6220 O   0  0  0  0  0  0  0  0  0  0  0  0
   20.2988   -8.0873  -16.6252 N   0  0  0  0  0  0  0  0  0  0  0  0
   20.8810   -7.3371  -15.5433 C   0  0  1  0  0  0  0  0  0  0  0  0
   22.3573   -7.4577  -15.4748 C   0  0  0  0  0  0  0  0  0  0  0  0
   22.7623   -8.8105  -15.0450 C   0  0  0  0  0  0  0  0  0  0  0  0
   22.3234   -9.5934  -14.0256 C   0  0  0  0  0  0  0  0  0  0  0  0
   23.0253  -10.7339  -14.0184 N   0  0  0  0  0  0  0  0  0  0  0  0
   23.9151  -10.6998  -15.0222 C   0  0  0  0  0  0  0  0  0  0  0  0
   23.7563   -9.5257  -15.6506 N   0  0  0  0  0  0  0  0  0  0  0  0
   20.3538   -5.9674  -15.3937 C   0  0  0  0  0  0  0  0  0  0  0  0
   19.4644   -5.5773  -16.2282 O   0  0  0  0  0  0  0  0  0  0  0  0
   20.7290   -5.0619  -14.4323 O   0  0  0  0  0  0  0  0  0  0  0  0
  2  3  1  0
  2  1  1  0
  3 10  1  0
  4  3  2  0
  6  8  1  0
  6  5  1  0
  7  6  2  0
  9  8  1  6
 10  9  1  0
 11  9  1  0
 12 11  2  0
 13 11  1  0
 14 15  1  6
 14 13  1  0
 15 16  1  0
 16 17  2  0
 18 17  1  0
 19 18  1  0
 20 19  2  0
 20 16  1  0
 21 14  1  0
 21 23  1  0
 22 21  2  0
M  END
$$$$
