GNH.pdb
     RDKit          3D

 23 23  0  0  1  0  0  0  0  0999 V2000
   28.1087  -21.1236  -16.2781 N   0  0  0  0  0  0  0  0  0  0  0  0
   27.8522  -20.3721  -15.0692 C   0  0  0  0  0  0  0  0  0  0  0  0
   26.4364  -20.5715  -14.6679 C   0  0  0  0  0  0  0  0  0  0  0  0
   25.6521  -21.2104  -15.4046 O   0  0  0  0  0  0  0  0  0  0  0  0
   26.2296  -22.1265  -11.9446 N   0  0  0  0  0  0  0  0  0  0  0  0
   25.2872  -21.5185  -11.0915 C   0  0  0  0  0  0  0  0  0  0  0  0
   25.2514  -21.8625   -9.8950 O   0  0  0  0  0  0  0  0  0  0  0  0
   24.3724  -20.5078  -11.5959 C   0  0  0  0  0  0  0  0  0  0  0  0
   24.5459  -20.2069  -13.0668 C   0  0  2  0  0  0  0  0  0  0  0  0
   25.9158  -20.0514  -13.4431 N   0  0  0  0  0  0  0  0  0  0  0  0
   23.7229  -19.0272  -13.4778 C   0  0  0  0  0  0  0  0  0  0  0  0
   24.1296  -17.9048  -13.1365 O   0  0  0  0  0  0  0  0  0  0  0  0
   22.5355  -19.1435  -14.2182 N   0  0  0  0  0  0  0  0  0  0  0  0
   22.0260  -18.2275  -15.2050 C   0  0  1  0  0  0  0  0  0  0  0  0
   23.0803  -17.6698  -16.0860 C   0  0  0  0  0  0  0  0  0  0  0  0
   22.5169  -16.6944  -17.0399 C   0  0  0  0  0  0  0  0  0  0  0  0
   21.2507  -16.2301  -17.2006 C   0  0  0  0  0  0  0  0  0  0  0  0
   21.2276  -15.3740  -18.2302 N   0  0  0  0  0  0  0  0  0  0  0  0
   22.4652  -15.2775  -18.7395 C   0  0  0  0  0  0  0  0  0  0  0  0
   23.2545  -16.0833  -18.0140 N   0  0  0  0  0  0  0  0  0  0  0  0
   20.8063  -18.6870  -15.8960 C   0  0  0  0  0  0  0  0  0  0  0  0
   20.8058  -19.8735  -16.3772 O   0  0  0  0  0  0  0  0  0  0  0  0
   19.6579  -17.9555  -16.0719 O   0  0  0  0  0  0  0  0  0  0  0  0
  2  3  1  0
  2  1  1  0
  3 10  1  0
  4  3  2  0
  6  8  1  0
  6  5  1  0
  7  6  2  0
  9  8  1  1
 10  9  1  0
 11  9  1  0
 12 11  2  0
 13 11  1  0
 14 15  1  6
 14 13  1  0
 15 16  1  0
 16 17  2  0
 18 17  1  0
 19 18  1  0
 20 19  2  0
 20 16  1  0
 21 14  1  0
 21 23  1  0
 22 21  2  0
M  END
$$$$
