GNH.pdb
     RDKit          3D

 23 23  0  0  1  0  0  0  0  0999 V2000
   23.9401  -16.8758  -19.8348 N   0  0  0  0  0  0  0  0  0  0  0  0
   24.1955  -16.8743  -18.4111 C   0  0  0  0  0  0  0  0  0  0  0  0
   24.1481  -18.2716  -17.9106 C   0  0  0  0  0  0  0  0  0  0  0  0
   24.6924  -19.1955  -18.5557 O   0  0  0  0  0  0  0  0  0  0  0  0
   25.9391  -22.4270  -15.7308 N   0  0  0  0  0  0  0  0  0  0  0  0
   25.3623  -21.3792  -14.9859 C   0  0  0  0  0  0  0  0  0  0  0  0
   25.0631  -21.5843  -13.7944 O   0  0  0  0  0  0  0  0  0  0  0  0
   25.1198  -20.0815  -15.5942 C   0  0  0  0  0  0  0  0  0  0  0  0
   23.6912  -19.8747  -16.0420 C   0  0  2  0  0  0  0  0  0  0  0  0
   23.4899  -18.6171  -16.6903 N   0  0  0  0  0  0  0  0  0  0  0  0
   22.7357  -20.0704  -14.9077 C   0  0  0  0  0  0  0  0  0  0  0  0
   22.8759  -19.3385  -13.9146 O   0  0  0  0  0  0  0  0  0  0  0  0
   21.7109  -21.0302  -14.9277 N   0  0  0  0  0  0  0  0  0  0  0  0
   20.3236  -20.8365  -14.5958 C   0  0  1  0  0  0  0  0  0  0  0  0
   19.7516  -19.5951  -15.1709 C   0  0  0  0  0  0  0  0  0  0  0  0
   19.7551  -18.4988  -14.1826 C   0  0  0  0  0  0  0  0  0  0  0  0
   20.2066  -18.4507  -12.9026 C   0  0  0  0  0  0  0  0  0  0  0  0
   19.9565  -17.2358  -12.3975 N   0  0  0  0  0  0  0  0  0  0  0  0
   19.3475  -16.4949  -13.3359 C   0  0  0  0  0  0  0  0  0  0  0  0
   19.2234  -17.2644  -14.4272 N   0  0  0  0  0  0  0  0  0  0  0  0
   19.4848  -22.0415  -14.7396 C   0  0  0  0  0  0  0  0  0  0  0  0
   19.5414  -22.6773  -15.8496 O   0  0  0  0  0  0  0  0  0  0  0  0
   18.6416  -22.5529  -13.7844 O   0  0  0  0  0  0  0  0  0  0  0  0
  2  3  1  0
  2  1  1  0
  3 10  1  0
  4  3  2  0
  6  8  1  0
  6  5  1  0
  7  6  2  0
  9  8  1  1
 10  9  1  0
 11  9  1  0
 12 11  2  0
 13 11  1  0
 14 15  1  6
 14 13  1  0
 15 16  1  0
 16 17  2  0
 18 17  1  0
 19 18  1  0
 20 19  2  0
 20 16  1  0
 21 14  1  0
 21 23  1  0
 22 21  2  0
M  END
$$$$
