PII.pdb
     RDKit          3D

 24 24  0  0  1  0  0  0  0  0999 V2000
   24.5964  -16.9744  -16.9847 N   0  0  0  0  0  0  0  0  0  0  0  0
   24.3416  -15.7247  -17.6426 C   0  0  0  0  0  0  0  0  0  0  0  0
   23.2022  -15.1157  -16.8869 C   0  0  0  0  0  0  0  0  0  0  0  0
   23.0738  -15.8922  -15.5802 C   0  0  0  0  0  0  0  0  0  0  0  0
   24.3419  -16.7023  -15.5885 C   0  0  1  0  0  0  0  0  0  0  0  0
   24.2464  -17.9504  -14.8123 C   0  0  0  0  0  0  0  0  0  0  0  0
   23.1600  -18.2151  -14.2429 O   0  0  0  0  0  0  0  0  0  0  0  0
   24.5123  -22.2052  -17.1192 C   0  0  0  0  0  0  0  0  0  0  0  0
   24.3774  -21.1536  -16.0760 C   0  0  0  0  0  0  0  0  0  0  0  0
   25.3954  -21.2393  -14.9732 C   0  0  2  0  0  0  0  0  0  0  0  0
   25.3755  -22.6229  -14.4112 C   0  0  0  0  0  0  0  0  0  0  0  0
   25.1613  -20.1578  -13.9894 C   0  0  2  0  0  0  0  0  0  0  0  0
   25.3081  -18.8799  -14.6642 N   0  0  0  0  0  0  0  0  0  0  0  0
   26.0833  -20.2180  -12.8181 C   0  0  0  0  0  0  0  0  0  0  0  0
   27.3165  -19.9945  -12.9179 O   0  0  0  0  0  0  0  0  0  0  0  0
   26.8467  -18.6544   -7.1421 C   0  0  0  0  0  0  0  0  0  0  0  0
   27.1360  -19.7278   -8.1898 C   0  0  0  0  0  0  0  0  0  0  0  0
   26.1368  -19.6590   -9.3147 C   0  0  2  0  0  0  0  0  0  0  0  0
   24.7349  -19.7507   -8.7556 C   0  0  0  0  0  0  0  0  0  0  0  0
   26.4640  -20.6567  -10.3607 C   0  0  2  0  0  0  0  0  0  0  0  0
   25.5905  -20.5352  -11.5298 N   0  0  0  0  0  0  0  0  0  0  0  0
   26.3083  -22.0255   -9.8357 C   0  0  0  0  0  0  0  0  0  0  0  0
   25.3364  -22.7909  -10.0392 O   0  0  0  0  0  0  0  0  0  0  0  0
   27.3155  -22.5899   -9.0173 O   0  0  0  0  0  0  0  0  0  0  0  0
  1  5  1  0
  2  1  1  0
  2  3  1  0
  3  4  1  0
  5  4  1  0
  5  6  1  1
  7  6  2  0
  9  8  1  0
  9 10  1  0
 10 12  1  0
 10 11  1  1
 12 13  1  6
 13  6  1  0
 14 12  1  0
 14 15  2  0
 16 17  1  0
 17 18  1  0
 18 19  1  1
 18 20  1  0
 20 21  1  6
 20 22  1  0
 21 14  1  0
 22 24  1  0
 23 22  2  0
M  END
$$$$
