PII.pdb
     RDKit          3D

 24 24  0  0  1  0  0  0  0  0999 V2000
   26.3569  -22.6627  -13.7276 N   0  0  0  0  0  0  0  0  0  0  0  0
   26.4820  -23.0145  -15.1132 C   0  0  0  0  0  0  0  0  0  0  0  0
   26.7614  -21.7228  -15.8160 C   0  0  0  0  0  0  0  0  0  0  0  0
   27.1430  -20.7093  -14.7417 C   0  0  0  0  0  0  0  0  0  0  0  0
   27.3166  -21.5987  -13.5403 C   0  0  1  0  0  0  0  0  0  0  0  0
   27.0983  -20.9050  -12.2596 C   0  0  0  0  0  0  0  0  0  0  0  0
   27.7526  -19.8590  -12.0306 O   0  0  0  0  0  0  0  0  0  0  0  0
   22.3386  -19.8153  -11.8144 C   0  0  0  0  0  0  0  0  0  0  0  0
   23.8104  -19.8769  -11.6080 C   0  0  0  0  0  0  0  0  0  0  0  0
   24.2272  -20.4281  -10.2730 C   0  0  2  0  0  0  0  0  0  0  0  0
   23.5651  -19.6294   -9.1986 C   0  0  0  0  0  0  0  0  0  0  0  0
   25.7046  -20.4861  -10.1934 C   0  0  2  0  0  0  0  0  0  0  0  0
   26.1913  -21.3432  -11.2603 N   0  0  0  0  0  0  0  0  0  0  0  0
   26.2040  -20.9846   -8.8790 C   0  0  0  0  0  0  0  0  0  0  0  0
   25.8418  -22.0863   -8.3934 O   0  0  0  0  0  0  0  0  0  0  0  0
   31.3110  -20.6897   -7.0854 C   0  0  0  0  0  0  0  0  0  0  0  0
   29.8528  -21.0699   -7.3362 C   0  0  0  0  0  0  0  0  0  0  0  0
   28.9306  -20.2443   -6.4781 C   0  0  2  0  0  0  0  0  0  0  0  0
   29.3445  -20.3615   -5.0284 C   0  0  0  0  0  0  0  0  0  0  0  0
   27.5162  -20.5864   -6.7587 C   0  0  2  0  0  0  0  0  0  0  0  0
   27.1205  -20.2186   -8.1199 N   0  0  0  0  0  0  0  0  0  0  0  0
   26.6186  -19.8733   -5.8318 C   0  0  0  0  0  0  0  0  0  0  0  0
   26.0439  -18.7808   -6.0507 O   0  0  0  0  0  0  0  0  0  0  0  0
   26.3366  -20.4192   -4.5570 O   0  0  0  0  0  0  0  0  0  0  0  0
  1  5  1  0
  2  1  1  0
  2  3  1  0
  3  4  1  0
  5  4  1  0
  5  6  1  1
  7  6  2  0
  9  8  1  0
  9 10  1  0
 10 12  1  0
 10 11  1  1
 12 13  1  6
 13  6  1  0
 14 12  1  0
 14 15  2  0
 16 17  1  0
 17 18  1  0
 18 19  1  1
 18 20  1  0
 20 21  1  6
 20 22  1  0
 21 14  1  0
 22 24  1  0
 23 22  2  0
M  END
$$$$
