PII.pdb
     RDKit          3D

 24 24  0  0  1  0  0  0  0  0999 V2000
   23.6270  -21.8423  -13.7709 N   0  0  0  0  0  0  0  0  0  0  0  0
   22.2924  -22.1619  -14.1907 C   0  0  0  0  0  0  0  0  0  0  0  0
   21.6915  -22.9024  -13.0370 C   0  0  0  0  0  0  0  0  0  0  0  0
   22.6050  -22.6682  -11.8381 C   0  0  0  0  0  0  0  0  0  0  0  0
   23.5032  -21.5774  -12.3557 C   0  0  1  0  0  0  0  0  0  0  0  0
   24.8234  -21.5448  -11.7034 C   0  0  0  0  0  0  0  0  0  0  0  0
   25.4819  -22.6111  -11.6400 O   0  0  0  0  0  0  0  0  0  0  0  0
   28.3732  -18.7540  -13.5086 C   0  0  0  0  0  0  0  0  0  0  0  0
   27.5511  -19.6850  -12.6901 C   0  0  0  0  0  0  0  0  0  0  0  0
   27.5717  -19.3975  -11.2147 C   0  0  2  0  0  0  0  0  0  0  0  0
   28.9925  -19.3545  -10.7562 C   0  0  0  0  0  0  0  0  0  0  0  0
   26.7104  -20.3686  -10.5024 C   0  0  2  0  0  0  0  0  0  0  0  0
   25.4043  -20.3805  -11.1379 N   0  0  0  0  0  0  0  0  0  0  0  0
   26.5610  -20.0673   -9.0490 C   0  0  0  0  0  0  0  0  0  0  0  0
   25.5400  -19.5049   -8.5780 O   0  0  0  0  0  0  0  0  0  0  0  0
   30.2505  -22.4266   -5.4594 C   0  0  0  0  0  0  0  0  0  0  0  0
   28.9185  -22.0144   -6.0834 C   0  0  0  0  0  0  0  0  0  0  0  0
   28.7130  -20.5267   -5.9691 C   0  0  2  0  0  0  0  0  0  0  0  0
   28.7568  -20.1178   -4.5140 C   0  0  0  0  0  0  0  0  0  0  0  0
   27.4932  -20.1139   -6.7027 C   0  0  2  0  0  0  0  0  0  0  0  0
   27.5843  -20.4114   -8.1337 N   0  0  0  0  0  0  0  0  0  0  0  0
   27.2763  -18.6619   -6.5682 C   0  0  0  0  0  0  0  0  0  0  0  0
   27.8881  -17.7608   -7.1892 O   0  0  0  0  0  0  0  0  0  0  0  0
   26.2991  -18.1711   -5.6699 O   0  0  0  0  0  0  0  0  0  0  0  0
  1  5  1  0
  2  1  1  0
  2  3  1  0
  3  4  1  0
  5  4  1  0
  5  6  1  1
  7  6  2  0
  9  8  1  0
  9 10  1  0
 10 12  1  0
 10 11  1  1
 12 13  1  6
 13  6  1  0
 14 12  1  0
 14 15  2  0
 16 17  1  0
 17 18  1  0
 18 19  1  1
 18 20  1  0
 20 21  1  6
 20 22  1  0
 21 14  1  0
 22 24  1  0
 23 22  2  0
M  END
$$$$
