PII.pdb
     RDKit          3D

 24 24  0  0  1  0  0  0  0  0999 V2000
   27.6214  -19.4653  -15.5065 N   0  0  0  0  0  0  0  0  0  0  0  0
   28.7886  -19.2349  -16.3089 C   0  0  0  0  0  0  0  0  0  0  0  0
   29.6964  -20.3868  -16.0100 C   0  0  0  0  0  0  0  0  0  0  0  0
   28.8530  -21.4408  -15.2997 C   0  0  0  0  0  0  0  0  0  0  0  0
   27.4636  -20.9018  -15.5082 C   0  0  1  0  0  0  0  0  0  0  0  0
   26.5054  -21.3328  -14.4761 C   0  0  0  0  0  0  0  0  0  0  0  0
   25.9898  -22.4719  -14.5818 O   0  0  0  0  0  0  0  0  0  0  0  0
   27.5717  -20.7524   -9.4746 C   0  0  0  0  0  0  0  0  0  0  0  0
   26.9452  -21.1911  -10.7503 C   0  0  0  0  0  0  0  0  0  0  0  0
   25.6123  -20.5578  -11.0370 C   0  0  2  0  0  0  0  0  0  0  0  0
   24.6804  -20.8773   -9.9145 C   0  0  0  0  0  0  0  0  0  0  0  0
   25.1417  -20.9659  -12.3803 C   0  0  2  0  0  0  0  0  0  0  0  0
   26.1238  -20.5408  -13.3625 N   0  0  0  0  0  0  0  0  0  0  0  0
   23.8040  -20.4061  -12.7303 C   0  0  0  0  0  0  0  0  0  0  0  0
   23.5686  -19.1711  -12.7316 O   0  0  0  0  0  0  0  0  0  0  0  0
   19.9946  -20.5078  -17.1121 C   0  0  0  0  0  0  0  0  0  0  0  0
   20.0453  -20.4321  -15.5872 C   0  0  0  0  0  0  0  0  0  0  0  0
   21.3323  -21.0156  -15.0662 C   0  0  2  0  0  0  0  0  0  0  0  0
   21.4359  -22.4668  -15.4783 C   0  0  0  0  0  0  0  0  0  0  0  0
   21.4648  -20.7631  -13.6118 C   0  0  2  0  0  0  0  0  0  0  0  0
   22.7338  -21.2640  -13.0795 N   0  0  0  0  0  0  0  0  0  0  0  0
   20.3814  -21.4338  -12.8703 C   0  0  0  0  0  0  0  0  0  0  0  0
   20.4718  -22.5166  -12.2448 O   0  0  0  0  0  0  0  0  0  0  0  0
   19.0917  -20.8535  -12.8198 O   0  0  0  0  0  0  0  0  0  0  0  0
  1  5  1  0
  2  1  1  0
  2  3  1  0
  3  4  1  0
  5  4  1  0
  5  6  1  1
  7  6  2  0
  9  8  1  0
  9 10  1  0
 10 12  1  0
 10 11  1  1
 12 13  1  6
 13  6  1  0
 14 12  1  0
 14 15  2  0
 16 17  1  0
 17 18  1  0
 18 19  1  1
 18 20  1  0
 20 21  1  1
 20 22  1  0
 21 14  1  0
 22 24  1  0
 23 22  2  0
M  END
$$$$
