PII.pdb
     RDKit          3D

 24 24  0  0  1  0  0  0  0  0999 V2000
   27.1469  -19.9391  -15.1666 N   0  0  0  0  0  0  0  0  0  0  0  0
   28.0260  -20.4910  -16.1576 C   0  0  0  0  0  0  0  0  0  0  0  0
   29.1339  -21.1288  -15.3790 C   0  0  0  0  0  0  0  0  0  0  0  0
   28.6578  -21.2268  -13.9331 C   0  0  0  0  0  0  0  0  0  0  0  0
   27.1992  -20.8849  -14.0752 C   0  0  1  0  0  0  0  0  0  0  0  0
   26.6070  -20.3181  -12.8515 C   0  0  0  0  0  0  0  0  0  0  0  0
   26.7249  -19.0852  -12.6497 O   0  0  0  0  0  0  0  0  0  0  0  0
   21.7805  -20.3457  -12.0233 C   0  0  0  0  0  0  0  0  0  0  0  0
   23.2501  -20.1446  -11.9124 C   0  0  0  0  0  0  0  0  0  0  0  0
   23.8699  -20.7594  -10.6886 C   0  0  2  0  0  0  0  0  0  0  0  0
   23.1317  -20.2743   -9.4843 C   0  0  0  0  0  0  0  0  0  0  0  0
   25.3274  -20.4988  -10.6797 C   0  0  2  0  0  0  0  0  0  0  0  0
   25.9074  -21.0780  -11.8789 N   0  0  0  0  0  0  0  0  0  0  0  0
   26.0153  -21.0437   -9.4734 C   0  0  0  0  0  0  0  0  0  0  0  0
   26.2395  -22.2714   -9.3213 O   0  0  0  0  0  0  0  0  0  0  0  0
   29.5375  -19.1718   -4.7187 C   0  0  0  0  0  0  0  0  0  0  0  0
   28.6541  -20.2257   -5.3838 C   0  0  0  0  0  0  0  0  0  0  0  0
   27.9709  -19.6591   -6.6006 C   0  0  2  0  0  0  0  0  0  0  0  0
   27.3050  -18.3487   -6.2456 C   0  0  0  0  0  0  0  0  0  0  0  0
   27.0799  -20.6722   -7.2139 C   0  0  2  0  0  0  0  0  0  0  0  0
   26.4472  -20.1792   -8.4392 N   0  0  0  0  0  0  0  0  0  0  0  0
   26.0010  -21.0440   -6.2806 C   0  0  0  0  0  0  0  0  0  0  0  0
   24.8063  -20.6685   -6.3421 O   0  0  0  0  0  0  0  0  0  0  0  0
   26.2719  -21.9035   -5.1896 O   0  0  0  0  0  0  0  0  0  0  0  0
  1  5  1  0
  2  1  1  0
  2  3  1  0
  3  4  1  0
  5  4  1  0
  5  6  1  1
  7  6  2  0
  9  8  1  0
  9 10  1  0
 10 12  1  0
 10 11  1  1
 12 13  1  6
 13  6  1  0
 14 12  1  0
 14 15  2  0
 16 17  1  0
 17 18  1  0
 18 19  1  1
 18 20  1  0
 20 21  1  6
 20 22  1  0
 21 14  1  0
 22 24  1  0
 23 22  2  0
M  END
$$$$
