PII.pdb
     RDKit          3D

 24 24  0  0  1  0  0  0  0  0999 V2000
   28.4001  -20.8430  -15.6446 N   0  0  0  0  0  0  0  0  0  0  0  0
   29.0620  -19.9550  -16.5571 C   0  0  0  0  0  0  0  0  0  0  0  0
   28.2291  -18.7113  -16.5584 C   0  0  0  0  0  0  0  0  0  0  0  0
   27.2965  -18.8034  -15.3548 C   0  0  0  0  0  0  0  0  0  0  0  0
   27.8814  -19.9745  -14.6127 C   0  0  1  0  0  0  0  0  0  0  0  0
   26.9048  -20.6799  -13.7653 C   0  0  0  0  0  0  0  0  0  0  0  0
   26.3111  -21.6759  -14.2449 O   0  0  0  0  0  0  0  0  0  0  0  0
   27.1150  -20.2618   -8.4068 C   0  0  0  0  0  0  0  0  0  0  0  0
   26.7768  -20.8482   -9.7313 C   0  0  0  0  0  0  0  0  0  0  0  0
   25.4891  -20.3454  -10.3219 C   0  0  2  0  0  0  0  0  0  0  0  0
   24.3587  -20.7933   -9.4546 C   0  0  0  0  0  0  0  0  0  0  0  0
   25.3938  -20.7569  -11.7410 C   0  0  2  0  0  0  0  0  0  0  0  0
   26.5882  -20.3059  -12.4338 N   0  0  0  0  0  0  0  0  0  0  0  0
   24.1814  -20.2245  -12.4280 C   0  0  0  0  0  0  0  0  0  0  0  0
   23.9852  -18.9937  -12.5932 O   0  0  0  0  0  0  0  0  0  0  0  0
   23.2698  -21.3629  -17.1927 C   0  0  0  0  0  0  0  0  0  0  0  0
   23.2689  -20.7925  -15.7756 C   0  0  0  0  0  0  0  0  0  0  0  0
   21.9946  -21.1502  -15.0568 C   0  0  2  0  0  0  0  0  0  0  0  0
   20.8055  -20.7141  -15.8828 C   0  0  0  0  0  0  0  0  0  0  0  0
   22.0200  -20.6336  -13.6680 C   0  0  2  0  0  0  0  0  0  0  0  0
   23.1917  -21.1049  -12.9266 N   0  0  0  0  0  0  0  0  0  0  0  0
   20.8241  -21.0784  -12.9295 C   0  0  0  0  0  0  0  0  0  0  0  0
   20.5986  -22.2402  -12.5155 O   0  0  0  0  0  0  0  0  0  0  0  0
   19.7943  -20.1564  -12.6262 O   0  0  0  0  0  0  0  0  0  0  0  0
  1  5  1  0
  2  1  1  0
  2  3  1  0
  3  4  1  0
  5  4  1  0
  5  6  1  6
  7  6  2  0
  9  8  1  0
  9 10  1  0
 10 12  1  0
 10 11  1  1
 12 13  1  6
 13  6  1  0
 14 12  1  0
 14 15  2  0
 16 17  1  0
 17 18  1  0
 18 19  1  6
 18 20  1  0
 20 21  1  1
 20 22  1  0
 21 14  1  0
 22 24  1  0
 23 22  2  0
M  END
$$$$
