PII.pdb
     RDKit          3D

 24 24  0  0  1  0  0  0  0  0999 V2000
   30.0069  -17.9570  -11.5622 N   0  0  0  0  0  0  0  0  0  0  0  0
   30.2279  -16.8470  -12.4445 C   0  0  0  0  0  0  0  0  0  0  0  0
   30.2840  -17.4476  -13.8143 C   0  0  0  0  0  0  0  0  0  0  0  0
   29.7305  -18.8643  -13.6983 C   0  0  0  0  0  0  0  0  0  0  0  0
   29.1467  -18.8440  -12.3115 C   0  0  1  0  0  0  0  0  0  0  0  0
   29.0784  -20.1746  -11.6835 C   0  0  0  0  0  0  0  0  0  0  0  0
   28.3071  -21.0291  -12.1830 O   0  0  0  0  0  0  0  0  0  0  0  0
   33.2934  -22.8085  -10.8027 C   0  0  0  0  0  0  0  0  0  0  0  0
   31.8403  -22.5307  -10.9573 C   0  0  0  0  0  0  0  0  0  0  0  0
   31.0978  -22.3701   -9.6601 C   0  0  2  0  0  0  0  0  0  0  0  0
   31.1654  -23.6589   -8.9082 C   0  0  0  0  0  0  0  0  0  0  0  0
   29.7304  -21.8671   -9.9237 C   0  0  2  0  0  0  0  0  0  0  0  0
   29.8317  -20.5575  -10.5438 N   0  0  0  0  0  0  0  0  0  0  0  0
   28.8887  -21.7793   -8.6952 C   0  0  0  0  0  0  0  0  0  0  0  0
   28.2351  -22.7583   -8.2536 O   0  0  0  0  0  0  0  0  0  0  0  0
   30.7321  -19.2333   -4.3157 C   0  0  0  0  0  0  0  0  0  0  0  0
   30.0177  -20.1619   -5.2960 C   0  0  0  0  0  0  0  0  0  0  0  0
   28.7119  -19.5610   -5.7456 C   0  0  2  0  0  0  0  0  0  0  0  0
   27.8809  -19.1895   -4.5381 C   0  0  0  0  0  0  0  0  0  0  0  0
   28.0406  -20.4509   -6.7223 C   0  0  2  0  0  0  0  0  0  0  0  0
   28.7960  -20.5664   -7.9715 N   0  0  0  0  0  0  0  0  0  0  0  0
   26.7044  -19.9293   -7.0629 C   0  0  0  0  0  0  0  0  0  0  0  0
   26.4246  -19.1857   -8.0327 O   0  0  0  0  0  0  0  0  0  0  0  0
   25.5876  -20.2614   -6.2597 O   0  0  0  0  0  0  0  0  0  0  0  0
  1  5  1  0
  2  1  1  0
  2  3  1  0
  3  4  1  0
  5  4  1  0
  5  6  1  1
  7  6  2  0
  9  8  1  0
  9 10  1  0
 10 12  1  0
 10 11  1  6
 12 13  1  1
 13  6  1  0
 14 12  1  0
 14 15  2  0
 16 17  1  0
 17 18  1  0
 18 19  1  1
 18 20  1  0
 20 21  1  6
 20 22  1  0
 21 14  1  0
 22 24  1  0
 23 22  2  0
M  END
$$$$
