PII.pdb
     RDKit          3D

 24 24  0  0  1  0  0  0  0  0999 V2000
   28.6902  -18.3119  -15.7789 N   0  0  0  0  0  0  0  0  0  0  0  0
   29.0059  -17.8391  -17.0966 C   0  0  0  0  0  0  0  0  0  0  0  0
   28.9497  -19.0554  -17.9671 C   0  0  0  0  0  0  0  0  0  0  0  0
   28.2445  -20.1423  -17.1621 C   0  0  0  0  0  0  0  0  0  0  0  0
   27.7119  -19.3529  -15.9969 C   0  0  1  0  0  0  0  0  0  0  0  0
   27.5150  -20.1606  -14.7812 C   0  0  0  0  0  0  0  0  0  0  0  0
   26.5745  -20.9912  -14.7649 O   0  0  0  0  0  0  0  0  0  0  0  0
   31.7340  -21.6282  -11.7770 C   0  0  0  0  0  0  0  0  0  0  0  0
   30.3972  -21.5938  -12.4284 C   0  0  0  0  0  0  0  0  0  0  0  0
   29.3357  -20.8901  -11.6297 C   0  0  2  0  0  0  0  0  0  0  0  0
   29.2225  -21.5537  -10.2964 C   0  0  0  0  0  0  0  0  0  0  0  0
   28.0789  -20.8288  -12.4101 C   0  0  2  0  0  0  0  0  0  0  0  0
   28.3231  -20.0619  -13.6192 N   0  0  0  0  0  0  0  0  0  0  0  0
   26.9442  -20.2265  -11.6518 C   0  0  0  0  0  0  0  0  0  0  0  0
   26.9034  -19.0054  -11.3552 O   0  0  0  0  0  0  0  0  0  0  0  0
   22.0709  -20.7953  -13.0863 C   0  0  0  0  0  0  0  0  0  0  0  0
   23.3171  -20.2550  -12.3872 C   0  0  0  0  0  0  0  0  0  0  0  0
   23.4311  -20.8127  -10.9928 C   0  0  2  0  0  0  0  0  0  0  0  0
   22.2480  -20.3611  -10.1664 C   0  0  0  0  0  0  0  0  0  0  0  0
   24.7592  -20.4980  -10.4153 C   0  0  2  0  0  0  0  0  0  0  0  0
   25.8539  -21.0257  -11.2326 N   0  0  0  0  0  0  0  0  0  0  0  0
   24.8906  -21.0876   -9.0705 C   0  0  0  0  0  0  0  0  0  0  0  0
   25.4348  -22.1821   -8.7914 O   0  0  0  0  0  0  0  0  0  0  0  0
   24.3749  -20.4048   -7.9434 O   0  0  0  0  0  0  0  0  0  0  0  0
  1  5  1  0
  2  1  1  0
  2  3  1  0
  3  4  1  0
  5  4  1  0
  5  6  1  1
  7  6  2  0
  9  8  1  0
  9 10  1  0
 10 12  1  0
 10 11  1  1
 12 13  1  6
 13  6  1  0
 14 12  1  0
 14 15  2  0
 16 17  1  0
 17 18  1  0
 18 19  1  1
 18 20  1  0
 20 21  1  6
 20 22  1  0
 21 14  1  0
 22 24  1  0
 23 22  2  0
M  END
$$$$
