PII.pdb
     RDKit          3D

 24 24  0  0  1  0  0  0  0  0999 V2000
   22.9862  -12.2464  -16.0785 N   0  0  0  0  0  0  0  0  0  0  0  0
   23.7980  -13.3708  -16.4474 C   0  0  0  0  0  0  0  0  0  0  0  0
   23.3869  -13.7010  -17.8483 C   0  0  0  0  0  0  0  0  0  0  0  0
   22.5882  -12.5092  -18.3665 C   0  0  0  0  0  0  0  0  0  0  0  0
   22.8561  -11.4832  -17.2987 C   0  0  1  0  0  0  0  0  0  0  0  0
   21.7955  -10.4681  -17.1804 C   0  0  0  0  0  0  0  0  0  0  0  0
   21.6690   -9.6296  -18.1054 O   0  0  0  0  0  0  0  0  0  0  0  0
   17.0447  -11.9046  -15.9988 C   0  0  0  0  0  0  0  0  0  0  0  0
   18.1350  -11.0223  -16.4939 C   0  0  0  0  0  0  0  0  0  0  0  0
   18.6232  -10.0158  -15.4897 C   0  0  2  0  0  0  0  0  0  0  0  0
   17.5034   -9.0821  -15.1661 C   0  0  0  0  0  0  0  0  0  0  0  0
   19.8577   -9.3680  -15.9881 C   0  0  2  0  0  0  0  0  0  0  0  0
   20.9012  -10.3740  -16.0830 N   0  0  0  0  0  0  0  0  0  0  0  0
   20.3205   -8.2417  -15.1262 C   0  0  0  0  0  0  0  0  0  0  0  0
   20.5193   -8.3741  -13.8919 O   0  0  0  0  0  0  0  0  0  0  0  0
   24.5547   -5.8937  -16.5233 C   0  0  0  0  0  0  0  0  0  0  0  0
   23.3528   -6.4113  -15.7352 C   0  0  0  0  0  0  0  0  0  0  0  0
   22.3503   -5.3109  -15.5064 C   0  0  2  0  0  0  0  0  0  0  0  0
   23.0007   -4.1824  -14.7382 C   0  0  0  0  0  0  0  0  0  0  0  0
   21.1128   -5.8549  -14.8989 C   0  0  2  0  0  0  0  0  0  0  0  0
   20.5559   -6.9609  -15.6807 N   0  0  0  0  0  0  0  0  0  0  0  0
   20.0761   -4.8100  -14.8148 C   0  0  0  0  0  0  0  0  0  0  0  0
   19.2778   -4.4836  -15.7248 O   0  0  0  0  0  0  0  0  0  0  0  0
   19.9134   -4.0669  -13.6215 O   0  0  0  0  0  0  0  0  0  0  0  0
  1  5  1  0
  2  1  1  0
  2  3  1  0
  3  4  1  0
  5  4  1  0
  5  6  1  1
  7  6  2  0
  9  8  1  0
  9 10  1  0
 10 12  1  0
 10 11  1  6
 12 13  1  1
 13  6  1  0
 14 12  1  0
 14 15  2  0
 16 17  1  0
 17 18  1  0
 18 19  1  1
 18 20  1  0
 20 21  1  6
 20 22  1  0
 21 14  1  0
 22 24  1  0
 23 22  2  0
M  END
$$$$
