PII.pdb
     RDKit          3D

 24 24  0  0  1  0  0  0  0  0999 V2000
   27.3553  -20.1949  -15.5443 N   0  0  0  0  0  0  0  0  0  0  0  0
   28.3022  -20.8104  -16.4297 C   0  0  0  0  0  0  0  0  0  0  0  0
   29.3243  -21.4325  -15.5304 C   0  0  0  0  0  0  0  0  0  0  0  0
   28.7246  -21.4524  -14.1279 C   0  0  0  0  0  0  0  0  0  0  0  0
   27.2920  -21.0887  -14.4105 C   0  0  1  0  0  0  0  0  0  0  0  0
   26.6116  -20.4529  -13.2695 C   0  0  0  0  0  0  0  0  0  0  0  0
   26.7246  -19.2114  -13.1261 O   0  0  0  0  0  0  0  0  0  0  0  0
   21.7652  -20.2282  -12.6966 C   0  0  0  0  0  0  0  0  0  0  0  0
   23.2331  -20.0847  -12.5040 C   0  0  0  0  0  0  0  0  0  0  0  0
   23.7563  -20.7035  -11.2379 C   0  0  2  0  0  0  0  0  0  0  0  0
   22.9851  -20.1533  -10.0832 C   0  0  0  0  0  0  0  0  0  0  0  0
   25.2233  -20.5197  -11.1587 C   0  0  2  0  0  0  0  0  0  0  0  0
   25.8313  -21.1550  -12.3149 N   0  0  0  0  0  0  0  0  0  0  0  0
   25.8191  -21.0733   -9.9081 C   0  0  0  0  0  0  0  0  0  0  0  0
   25.9166  -22.3087   -9.6964 O   0  0  0  0  0  0  0  0  0  0  0  0
   29.2871  -19.2154   -5.0882 C   0  0  0  0  0  0  0  0  0  0  0  0
   28.4036  -20.2597   -5.7682 C   0  0  0  0  0  0  0  0  0  0  0  0
   27.7454  -19.6850   -6.9950 C   0  0  2  0  0  0  0  0  0  0  0  0
   27.0402  -18.3962   -6.6369 C   0  0  0  0  0  0  0  0  0  0  0  0
   26.8962  -20.7052   -7.6540 C   0  0  2  0  0  0  0  0  0  0  0  0
   26.3042  -20.2086   -8.8980 N   0  0  0  0  0  0  0  0  0  0  0  0
   25.7877  -21.1050   -6.7682 C   0  0  0  0  0  0  0  0  0  0  0  0
   24.6132  -20.6679   -6.8078 O   0  0  0  0  0  0  0  0  0  0  0  0
   26.0019  -22.0698   -5.7553 O   0  0  0  0  0  0  0  0  0  0  0  0
  1  5  1  0
  2  1  1  0
  2  3  1  0
  3  4  1  0
  5  4  1  0
  5  6  1  1
  7  6  2  0
  9  8  1  0
  9 10  1  0
 10 12  1  0
 10 11  1  1
 12 13  1  6
 13  6  1  0
 14 12  1  0
 14 15  2  0
 16 17  1  0
 17 18  1  0
 18 19  1  1
 18 20  1  0
 20 21  1  6
 20 22  1  0
 21 14  1  0
 22 24  1  0
 23 22  2  0
M  END
$$$$
