RNY.pdb
     RDKit          3D

 32 32  0  0  1  0  0  0  0  0999 V2000
   27.3730  -24.5586  -15.8786 N   0  0  0  0  0  0  0  0  0  0  0  0
   27.3101  -24.4426  -17.2871 C   0  0  0  0  0  0  0  0  0  0  0  0
   26.4737  -25.1524  -17.9939 N   0  0  0  0  0  0  0  0  0  0  0  0
   28.1727  -23.5328  -17.9448 N   0  0  0  0  0  0  0  0  0  0  0  0
   28.9066  -22.4968  -17.2794 C   0  0  0  0  0  0  0  0  0  0  0  0
   28.0720  -21.7710  -16.2890 C   0  0  0  0  0  0  0  0  0  0  0  0
   28.0589  -20.3015  -16.4846 C   0  0  0  0  0  0  0  0  0  0  0  0
   27.6724  -19.9507  -17.9330 C   0  0  2  0  0  0  0  0  0  0  0  0
   28.7613  -19.3760  -18.6700 N   0  0  0  0  0  0  0  0  0  0  0  0
   26.5589  -18.9861  -17.8356 C   0  0  0  0  0  0  0  0  0  0  0  0
   26.7805  -17.7449  -18.0420 O   0  0  0  0  0  0  0  0  0  0  0  0
   26.4248  -25.0865  -19.0283 N   0  0  0  0  0  0  0  0  0  0  0  0
   24.3701  -16.1994  -19.6771 C   0  0  0  0  0  0  0  0  0  0  0  0
   24.3162  -17.6016  -19.8454 O   0  0  0  0  0  0  0  0  0  0  0  0
   24.9105  -18.1112  -20.8252 C   0  0  0  0  0  0  0  0  0  0  0  0
   23.5824  -18.4545  -18.8978 C   0  0  2  0  0  0  0  0  0  0  0  0
   24.1687  -18.4266  -17.4765 N   0  0  0  0  0  0  0  0  0  0  0  0
   25.2571  -19.4310  -17.5185 C   0  0  0  0  0  0  0  0  0  0  0  0
   23.1398  -18.8870  -16.5409 O   0  0  0  0  0  0  0  0  0  0  0  0
   22.7290  -20.0873  -16.6575 O   0  0  0  0  0  0  0  0  0  0  0  0
   16.6230  -20.0250  -10.8208 C   0  0  0  0  0  0  0  0  0  0  0  0
   17.6461  -19.4334  -11.5543 C   0  0  0  0  0  0  0  0  0  0  0  0
   17.4046  -18.7850  -12.7488 C   0  0  0  0  0  0  0  0  0  0  0  0
   18.4158  -18.1902  -13.4894 C   0  0  0  0  0  0  0  0  0  0  0  0
   19.7353  -18.2274  -13.0453 C   0  0  0  0  0  0  0  0  0  0  0  0
   20.8314  -17.6197  -13.8294 C   0  0  2  0  0  0  0  0  0  0  0  0
   21.4374  -18.6996  -14.7092 N   0  0  0  0  0  0  0  0  0  0  0  0
   22.5395  -18.1354  -15.4963 C   0  0  0  0  0  0  0  0  0  0  0  0
   20.4157  -19.3338  -15.5539 O   0  0  0  0  0  0  0  0  0  0  0  0
   20.0585  -18.7998  -16.6601 C   0  0  0  0  0  0  0  0  0  0  0  0
   19.9716  -18.8747  -11.8556 C   0  0  0  0  0  0  0  0  0  0  0  0
   18.9595  -19.4664  -11.1195 O   0  0  0  0  0  0  0  0  0  0  0  0
  2  1  1  0
  3  2  2  0
  4  2  1  0
  5  4  1  0
  6  5  1  0
  7  6  1  0
  8 10  1  0
  8  9  1  1
  8  7  1  0
 10 11  2  0
 12 13  1  0
 13 14  2  0
 15 13  1  0
 16 15  1  6
 16 18  1  0
 17 16  1  0
 17 10  1  0
 18 19  2  0
 18 27  1  0
 20 21  1  0
 21 22  2  0
 21 31  1  0
 22 23  1  0
 23 24  2  0
 24 25  1  0
 26 25  1  1
 26 28  1  0
 27 26  1  0
 28 29  2  0
 28 32  1  0
 30 24  1  0
 31 30  2  0
M  END
$$$$
