RNY.pdb
     RDKit          3D

 32 32  0  0  1  0  0  0  0  0999 V2000
   27.9504  -25.3685  -16.8063 N   0  0  0  0  0  0  0  0  0  0  0  0
   29.2886  -25.7936  -16.9782 C   0  0  0  0  0  0  0  0  0  0  0  0
   29.5773  -27.0212  -17.3136 N   0  0  0  0  0  0  0  0  0  0  0  0
   30.3392  -24.8643  -16.7847 N   0  0  0  0  0  0  0  0  0  0  0  0
   30.2239  -23.4575  -17.0335 C   0  0  0  0  0  0  0  0  0  0  0  0
   29.1054  -22.8469  -16.2717 C   0  0  0  0  0  0  0  0  0  0  0  0
   28.9551  -21.3898  -16.5000 C   0  0  0  0  0  0  0  0  0  0  0  0
   28.4096  -21.1158  -17.9133 C   0  0  2  0  0  0  0  0  0  0  0  0
   29.4194  -20.6286  -18.8089 N   0  0  0  0  0  0  0  0  0  0  0  0
   27.3442  -20.1066  -17.7506 C   0  0  0  0  0  0  0  0  0  0  0  0
   27.6309  -18.9602  -17.2648 O   0  0  0  0  0  0  0  0  0  0  0  0
   30.5526  -27.3411  -17.4655 N   0  0  0  0  0  0  0  0  0  0  0  0
   24.8991  -16.8123  -20.0965 C   0  0  0  0  0  0  0  0  0  0  0  0
   25.1597  -18.2009  -20.1320 O   0  0  0  0  0  0  0  0  0  0  0  0
   26.0737  -18.6206  -20.8812 C   0  0  0  0  0  0  0  0  0  0  0  0
   24.3823  -19.1426  -19.3116 C   0  0  2  0  0  0  0  0  0  0  0  0
   24.9815  -19.3674  -17.9134 N   0  0  0  0  0  0  0  0  0  0  0  0
   26.0174  -20.4043  -18.1305 C   0  0  0  0  0  0  0  0  0  0  0  0
   23.9389  -19.9190  -17.0449 O   0  0  0  0  0  0  0  0  0  0  0  0
   23.6866  -21.1640  -17.1411 O   0  0  0  0  0  0  0  0  0  0  0  0
   17.1751  -21.6146  -11.7571 C   0  0  0  0  0  0  0  0  0  0  0  0
   18.2589  -20.9759  -12.3506 C   0  0  0  0  0  0  0  0  0  0  0  0
   18.0911  -19.9663  -13.2770 C   0  0  0  0  0  0  0  0  0  0  0  0
   19.1634  -19.3209  -13.8755 C   0  0  0  0  0  0  0  0  0  0  0  0
   20.4719  -19.6758  -13.5568 C   0  0  0  0  0  0  0  0  0  0  0  0
   21.6290  -19.0167  -14.1988 C   0  0  1  0  0  0  0  0  0  0  0  0
   22.0787  -19.8820  -15.3636 N   0  0  0  0  0  0  0  0  0  0  0  0
   23.1653  -19.2120  -16.0867 C   0  0  0  0  0  0  0  0  0  0  0  0
   20.9501  -20.2216  -16.2415 O   0  0  0  0  0  0  0  0  0  0  0  0
   20.5780  -19.4208  -17.1671 C   0  0  0  0  0  0  0  0  0  0  0  0
   20.6346  -20.6822  -12.6344 C   0  0  0  0  0  0  0  0  0  0  0  0
   19.5618  -21.3233  -12.0391 O   0  0  0  0  0  0  0  0  0  0  0  0
  2  1  1  0
  3  2  2  0
  4  2  1  0
  5  4  1  0
  6  5  1  0
  7  6  1  0
  8 10  1  0
  8  9  1  6
  8  7  1  0
 10 11  2  0
 12 13  1  0
 13 14  2  0
 15 13  1  0
 16 15  1  6
 16 18  1  0
 17 16  1  0
 17 10  1  0
 18 19  2  0
 18 27  1  0
 20 21  1  0
 21 22  2  0
 21 31  1  0
 22 23  1  0
 23 24  2  0
 24 25  1  0
 26 25  1  1
 26 28  1  0
 27 26  1  0
 28 29  2  0
 28 32  1  0
 30 24  1  0
 31 30  2  0
M  END
$$$$
