RNY.pdb
     RDKit          3D

 32 32  0  0  1  0  0  0  0  0999 V2000
   18.0385  -16.3270  -19.7466 N   0  0  0  0  0  0  0  0  0  0  0  0
   19.2099  -16.8697  -19.1683 C   0  0  0  0  0  0  0  0  0  0  0  0
   19.6630  -18.0429  -19.5168 N   0  0  0  0  0  0  0  0  0  0  0  0
   19.9088  -16.1210  -18.1907 N   0  0  0  0  0  0  0  0  0  0  0  0
   19.4667  -14.8575  -17.6783 C   0  0  0  0  0  0  0  0  0  0  0  0
   19.6235  -13.7670  -18.6736 C   0  0  0  0  0  0  0  0  0  0  0  0
   19.2428  -12.4306  -18.1573 C   0  0  0  0  0  0  0  0  0  0  0  0
   20.2570  -11.9466  -17.1050 C   0  0  2  0  0  0  0  0  0  0  0  0
   20.3048  -12.8001  -15.9524 N   0  0  0  0  0  0  0  0  0  0  0  0
   19.8244  -10.5898  -16.7156 C   0  0  0  0  0  0  0  0  0  0  0  0
   19.6992   -9.6870  -17.6109 O   0  0  0  0  0  0  0  0  0  0  0  0
   20.4868  -18.4784  -19.0605 N   0  0  0  0  0  0  0  0  0  0  0  0
   15.7250   -8.4570  -14.0996 C   0  0  0  0  0  0  0  0  0  0  0  0
   16.7762   -9.3767  -14.3156 O   0  0  0  0  0  0  0  0  0  0  0  0
   16.5187  -10.4544  -14.9031 C   0  0  0  0  0  0  0  0  0  0  0  0
   18.1464   -9.0863  -13.8660 C   0  0  2  0  0  0  0  0  0  0  0  0
   19.1406   -8.9072  -15.0254 N   0  0  0  0  0  0  0  0  0  0  0  0
   19.5489  -10.2908  -15.3635 C   0  0  0  0  0  0  0  0  0  0  0  0
   20.3101   -8.1805  -14.5258 O   0  0  0  0  0  0  0  0  0  0  0  0
   21.0552   -8.7708  -13.6776 O   0  0  0  0  0  0  0  0  0  0  0  0
   20.9876   -2.6892  -19.4589 C   0  0  0  0  0  0  0  0  0  0  0  0
   21.4726   -3.5154  -18.4504 C   0  0  0  0  0  0  0  0  0  0  0  0
   22.1523   -3.0111  -17.3598 C   0  0  0  0  0  0  0  0  0  0  0  0
   22.6401   -3.8239  -16.3470 C   0  0  0  0  0  0  0  0  0  0  0  0
   22.4579   -5.2039  -16.3960 C   0  0  0  0  0  0  0  0  0  0  0  0
   22.9886   -6.0909  -15.3391 C   0  0  1  0  0  0  0  0  0  0  0  0
   21.9103   -6.2650  -14.2834 N   0  0  0  0  0  0  0  0  0  0  0  0
   20.7187   -6.8699  -14.8888 C   0  0  0  0  0  0  0  0  0  0  0  0
   21.6108   -4.9919  -13.6131 O   0  0  0  0  0  0  0  0  0  0  0  0
   20.4588   -4.4478  -13.7280 C   0  0  0  0  0  0  0  0  0  0  0  0
   21.7812   -5.7021  -17.4841 C   0  0  0  0  0  0  0  0  0  0  0  0
   21.2955   -4.8873  -18.4923 O   0  0  0  0  0  0  0  0  0  0  0  0
  2  1  1  0
  3  2  2  0
  4  2  1  0
  5  4  1  0
  6  5  1  0
  7  6  1  0
  8 10  1  0
  8  9  1  1
  8  7  1  0
 10 11  2  0
 12 13  1  0
 13 14  2  0
 15 13  1  0
 16 15  1  6
 16 18  1  0
 17 16  1  0
 17 10  1  0
 18 19  2  0
 18 27  1  0
 20 21  1  0
 21 22  2  0
 21 31  1  0
 22 23  1  0
 23 24  2  0
 24 25  1  0
 26 25  1  1
 26 28  1  0
 27 26  1  0
 28 29  2  0
 28 32  1  0
 30 24  1  0
 31 30  2  0
M  END
$$$$
