RNY.pdb
     RDKit          3D

 32 32  0  0  1  0  0  0  0  0999 V2000
   30.6158  -23.9394  -16.6631 N   0  0  0  0  0  0  0  0  0  0  0  0
   30.7208  -23.3573  -17.9482 C   0  0  0  0  0  0  0  0  0  0  0  0
   31.3292  -23.9692  -18.9272 N   0  0  0  0  0  0  0  0  0  0  0  0
   30.1496  -22.0824  -18.1782 N   0  0  0  0  0  0  0  0  0  0  0  0
   29.4982  -21.2997  -17.1694 C   0  0  0  0  0  0  0  0  0  0  0  0
   28.2621  -21.9527  -16.6694 C   0  0  0  0  0  0  0  0  0  0  0  0
   27.1804  -20.9978  -16.3289 C   0  0  0  0  0  0  0  0  0  0  0  0
   26.0433  -21.0749  -17.3639 C   0  0  2  0  0  0  0  0  0  0  0  0
   26.4479  -20.6165  -18.6621 N   0  0  0  0  0  0  0  0  0  0  0  0
   24.9566  -20.2238  -16.8398 C   0  0  0  0  0  0  0  0  0  0  0  0
   24.7176  -19.0962  -17.3911 O   0  0  0  0  0  0  0  0  0  0  0  0
   31.4097  -23.5565  -19.8758 N   0  0  0  0  0  0  0  0  0  0  0  0
   20.6110  -17.8097  -16.5445 C   0  0  0  0  0  0  0  0  0  0  0  0
   20.7966  -19.1652  -16.1900 O   0  0  0  0  0  0  0  0  0  0  0  0
   19.8535  -19.7730  -15.6296 C   0  0  0  0  0  0  0  0  0  0  0  0
   22.0641  -19.8582  -16.4680 C   0  0  1  0  0  0  0  0  0  0  0  0
   23.0606  -19.7930  -15.2987 N   0  0  0  0  0  0  0  0  0  0  0  0
   24.1847  -20.6525  -15.7382 C   0  0  0  0  0  0  0  0  0  0  0  0
   22.4358  -20.4013  -14.1218 O   0  0  0  0  0  0  0  0  0  0  0  0
   22.3200  -21.6699  -14.1031 O   0  0  0  0  0  0  0  0  0  0  0  0
   19.6176  -22.7659   -6.1856 C   0  0  0  0  0  0  0  0  0  0  0  0
   20.0361  -21.9989   -7.2680 C   0  0  0  0  0  0  0  0  0  0  0  0
   21.3735  -21.8160   -7.5569 C   0  0  0  0  0  0  0  0  0  0  0  0
   21.8039  -21.0544   -8.6337 C   0  0  0  0  0  0  0  0  0  0  0  0
   20.8842  -20.4356   -9.4769 C   0  0  0  0  0  0  0  0  0  0  0  0
   21.3208  -19.6015  -10.6166 C   0  0  2  0  0  0  0  0  0  0  0  0
   21.3672  -20.4807  -11.8546 N   0  0  0  0  0  0  0  0  0  0  0  0
   21.9385  -19.7263  -12.9757 C   0  0  0  0  0  0  0  0  0  0  0  0
   20.0401  -21.0283  -12.1688 O   0  0  0  0  0  0  0  0  0  0  0  0
   19.1672  -20.3181  -12.7771 C   0  0  0  0  0  0  0  0  0  0  0  0
   19.5533  -20.6197   -9.1851 C   0  0  0  0  0  0  0  0  0  0  0  0
   19.1281  -21.3809   -8.1099 O   0  0  0  0  0  0  0  0  0  0  0  0
  2  1  1  0
  3  2  2  0
  4  2  1  0
  5  4  1  0
  6  5  1  0
  7  6  1  0
  8 10  1  0
  8  9  1  6
  8  7  1  0
 10 11  2  0
 12 13  1  0
 13 14  2  0
 15 13  1  0
 16 15  1  6
 16 18  1  0
 17 16  1  0
 17 10  1  0
 18 19  2  0
 18 27  1  0
 20 21  1  0
 21 22  2  0
 21 31  1  0
 22 23  1  0
 23 24  2  0
 24 25  1  0
 26 25  1  1
 26 28  1  0
 27 26  1  0
 28 29  2  0
 28 32  1  0
 30 24  1  0
 31 30  2  0
M  END
$$$$
