RNY.pdb
     RDKit          3D

 32 32  0  0  1  0  0  0  0  0999 V2000
   16.8962  -24.2032  -16.1643 N   0  0  0  0  0  0  0  0  0  0  0  0
   16.7003  -23.0270  -16.9254 C   0  0  0  0  0  0  0  0  0  0  0  0
   15.7002  -22.9096  -17.7555 N   0  0  0  0  0  0  0  0  0  0  0  0
   17.6089  -21.9509  -16.7808 N   0  0  0  0  0  0  0  0  0  0  0  0
   18.7784  -21.9921  -15.9531 C   0  0  0  0  0  0  0  0  0  0  0  0
   18.4393  -21.9655  -14.5080 C   0  0  0  0  0  0  0  0  0  0  0  0
   19.6215  -22.0500  -13.6175 C   0  0  0  0  0  0  0  0  0  0  0  0
   20.8754  -21.5088  -14.3280 C   0  0  2  0  0  0  0  0  0  0  0  0
   20.9687  -21.9470  -15.6912 N   0  0  0  0  0  0  0  0  0  0  0  0
   22.0297  -22.0065  -13.5535 C   0  0  0  0  0  0  0  0  0  0  0  0
   21.8863  -23.0213  -12.7906 O   0  0  0  0  0  0  0  0  0  0  0  0
   15.5473  -22.0553  -18.3242 N   0  0  0  0  0  0  0  0  0  0  0  0
   24.4806  -24.1796  -14.7619 C   0  0  0  0  0  0  0  0  0  0  0  0
   25.5173  -23.2272  -14.8860 O   0  0  0  0  0  0  0  0  0  0  0  0
   26.4264  -23.4362  -15.7244 C   0  0  0  0  0  0  0  0  0  0  0  0
   25.5393  -22.0132  -14.0556 C   0  0  2  0  0  0  0  0  0  0  0  0
   24.4429  -21.9952  -12.9776 N   0  0  0  0  0  0  0  0  0  0  0  0
   23.2846  -21.3676  -13.6556 C   0  0  0  0  0  0  0  0  0  0  0  0
   24.8793  -21.1209  -11.8863 O   0  0  0  0  0  0  0  0  0  0  0  0
   24.8527  -19.8635  -12.0894 O   0  0  0  0  0  0  0  0  0  0  0  0
   29.9048  -17.8922   -5.5450 C   0  0  0  0  0  0  0  0  0  0  0  0
   29.1530  -18.7855   -6.3011 C   0  0  0  0  0  0  0  0  0  0  0  0
   29.7196  -19.8984   -6.8892 C   0  0  0  0  0  0  0  0  0  0  0  0
   28.9809  -20.7974   -7.6447 C   0  0  0  0  0  0  0  0  0  0  0  0
   27.6155  -20.6046   -7.8404 C   0  0  0  0  0  0  0  0  0  0  0  0
   26.8135  -21.5375   -8.6601 C   0  0  2  0  0  0  0  0  0  0  0  0
   26.4648  -20.8403   -9.9639 N   0  0  0  0  0  0  0  0  0  0  0  0
   25.3334  -21.5221  -10.6020 C   0  0  0  0  0  0  0  0  0  0  0  0
   27.6343  -20.7510  -10.8494 O   0  0  0  0  0  0  0  0  0  0  0  0
   28.1080  -21.7966  -11.4140 C   0  0  0  0  0  0  0  0  0  0  0  0
   27.0553  -19.4946   -7.2537 C   0  0  0  0  0  0  0  0  0  0  0  0
   27.7960  -18.6004   -6.5000 O   0  0  0  0  0  0  0  0  0  0  0  0
  2  1  1  0
  3  2  2  0
  4  2  1  0
  5  4  1  0
  6  5  1  0
  7  6  1  0
  8 10  1  0
  8  9  1  6
  8  7  1  0
 10 11  2  0
 12 13  1  0
 13 14  2  0
 15 13  1  0
 16 15  1  6
 16 18  1  0
 17 16  1  0
 17 10  1  0
 18 19  2  0
 18 27  1  0
 20 21  1  0
 21 22  2  0
 21 31  1  0
 22 23  1  0
 23 24  2  0
 24 25  1  0
 26 25  1  1
 26 28  1  0
 27 26  1  0
 28 29  2  0
 28 32  1  0
 30 24  1  0
 31 30  2  0
M  END
$$$$
