RNY.pdb
     RDKit          3D

 32 32  0  0  1  0  0  0  0  0999 V2000
   30.6007  -18.6076  -18.6664 N   0  0  0  0  0  0  0  0  0  0  0  0
   30.2067  -17.2510  -18.5918 C   0  0  0  0  0  0  0  0  0  0  0  0
   30.9748  -16.2918  -19.0313 N   0  0  0  0  0  0  0  0  0  0  0  0
   28.9483  -16.9267  -18.0300 N   0  0  0  0  0  0  0  0  0  0  0  0
   28.0355  -17.8920  -17.4919 C   0  0  0  0  0  0  0  0  0  0  0  0
   28.7180  -19.1567  -17.1192 C   0  0  0  0  0  0  0  0  0  0  0  0
   27.7949  -20.2110  -16.6354 C   0  0  0  0  0  0  0  0  0  0  0  0
   28.0917  -21.5524  -17.3302 C   0  0  2  0  0  0  0  0  0  0  0  0
   28.4593  -21.3899  -18.7078 N   0  0  0  0  0  0  0  0  0  0  0  0
   26.8532  -22.3491  -17.2248 C   0  0  0  0  0  0  0  0  0  0  0  0
   25.9933  -22.3052  -18.1687 O   0  0  0  0  0  0  0  0  0  0  0  0
   30.6706  -15.2999  -19.0483 N   0  0  0  0  0  0  0  0  0  0  0  0
   27.9420  -26.4903  -16.5345 C   0  0  0  0  0  0  0  0  0  0  0  0
   26.6052  -26.0691  -16.7162 O   0  0  0  0  0  0  0  0  0  0  0  0
   26.0470  -26.3027  -17.8147 C   0  0  0  0  0  0  0  0  0  0  0  0
   25.8747  -25.3715  -15.6467 C   0  0  2  0  0  0  0  0  0  0  0  0
   25.3847  -23.9734  -16.0584 N   0  0  0  0  0  0  0  0  0  0  0  0
   26.6201  -23.1560  -16.0900 C   0  0  0  0  0  0  0  0  0  0  0  0
   24.5078  -23.4597  -15.0035 O   0  0  0  0  0  0  0  0  0  0  0  0
   25.0542  -23.0476  -13.9289 O   0  0  0  0  0  0  0  0  0  0  0  0
   19.7768  -18.4261  -10.0002 C   0  0  0  0  0  0  0  0  0  0  0  0
   20.5257  -19.1094  -10.9526 C   0  0  0  0  0  0  0  0  0  0  0  0
   21.6855  -19.7812  -10.6220 C   0  0  0  0  0  0  0  0  0  0  0  0
   22.4409  -20.4672  -11.5619 C   0  0  0  0  0  0  0  0  0  0  0  0
   22.0482  -20.5026  -12.8977 C   0  0  0  0  0  0  0  0  0  0  0  0
   22.8498  -21.2086  -13.9198 C   0  0  1  0  0  0  0  0  0  0  0  0
   22.3623  -22.6455  -13.9922 N   0  0  0  0  0  0  0  0  0  0  0  0
   23.0917  -23.3627  -15.0439 C   0  0  0  0  0  0  0  0  0  0  0  0
   20.9063  -22.7050  -14.1827 O   0  0  0  0  0  0  0  0  0  0  0  0
   20.1261  -22.9255  -13.1932 C   0  0  0  0  0  0  0  0  0  0  0  0
   20.8931  -19.8317  -13.2229 C   0  0  0  0  0  0  0  0  0  0  0  0
   20.1420  -19.1489  -12.2817 O   0  0  0  0  0  0  0  0  0  0  0  0
  2  1  1  0
  3  2  2  0
  4  2  1  0
  5  4  1  0
  6  5  1  0
  7  6  1  0
  8 10  1  0
  8  9  1  6
  8  7  1  0
 10 11  2  0
 12 13  1  0
 13 14  2  0
 15 13  1  0
 16 15  1  6
 16 18  1  0
 17 16  1  0
 17 10  1  0
 18 19  2  0
 18 27  1  0
 20 21  1  0
 21 22  2  0
 21 31  1  0
 22 23  1  0
 23 24  2  0
 24 25  1  0
 26 25  1  1
 26 28  1  0
 27 26  1  0
 28 29  2  0
 28 32  1  0
 30 24  1  0
 31 30  2  0
M  END
$$$$
