RNY.pdb
     RDKit          3D

 32 32  0  0  1  0  0  0  0  0999 V2000
   31.1789  -24.6903  -19.4710 N   0  0  0  0  0  0  0  0  0  0  0  0
   31.7583  -24.9661  -18.2103 C   0  0  0  0  0  0  0  0  0  0  0  0
   32.6795  -25.8793  -18.0673 N   0  0  0  0  0  0  0  0  0  0  0  0
   31.3307  -24.2319  -17.0777 N   0  0  0  0  0  0  0  0  0  0  0  0
   30.1303  -23.4499  -17.0330 C   0  0  0  0  0  0  0  0  0  0  0  0
   30.2574  -22.1895  -17.8073 C   0  0  0  0  0  0  0  0  0  0  0  0
   29.0959  -21.2803  -17.6593 C   0  0  0  0  0  0  0  0  0  0  0  0
   27.9759  -21.9587  -16.8497 C   0  0  2  0  0  0  0  0  0  0  0  0
   27.5526  -23.2015  -17.4288 N   0  0  0  0  0  0  0  0  0  0  0  0
   26.8529  -21.0004  -16.8250 C   0  0  0  0  0  0  0  0  0  0  0  0
   27.0559  -19.8016  -16.4327 O   0  0  0  0  0  0  0  0  0  0  0  0
   33.1036  -26.1015  -17.1468 N   0  0  0  0  0  0  0  0  0  0  0  0
   24.1320  -20.3078  -20.6109 C   0  0  0  0  0  0  0  0  0  0  0  0
   23.7578  -19.8094  -19.3424 O   0  0  0  0  0  0  0  0  0  0  0  0
   23.6421  -18.5692  -19.1957 C   0  0  0  0  0  0  0  0  0  0  0  0
   23.5064  -20.7164  -18.2119 C   0  0  2  0  0  0  0  0  0  0  0  0
   24.4375  -20.4661  -17.0141 N   0  0  0  0  0  0  0  0  0  0  0  0
   25.5632  -21.4041  -17.2336 C   0  0  0  0  0  0  0  0  0  0  0  0
   23.7335  -20.8547  -15.7898 O   0  0  0  0  0  0  0  0  0  0  0  0
   24.3978  -21.4758  -14.8975 O   0  0  0  0  0  0  0  0  0  0  0  0
   20.9289  -20.1616   -7.8507 C   0  0  0  0  0  0  0  0  0  0  0  0
   21.3423  -20.0184   -9.1711 C   0  0  0  0  0  0  0  0  0  0  0  0
   20.6005  -19.3078  -10.0933 C   0  0  0  0  0  0  0  0  0  0  0  0
   21.0020  -19.1568  -11.4126 C   0  0  0  0  0  0  0  0  0  0  0  0
   22.1903  -19.7279  -11.8616 C   0  0  0  0  0  0  0  0  0  0  0  0
   22.6262  -19.5984  -13.2683 C   0  0  2  0  0  0  0  0  0  0  0  0
   21.9048  -20.6565  -14.0854 N   0  0  0  0  0  0  0  0  0  0  0  0
   22.3704  -20.6102  -15.4759 C   0  0  0  0  0  0  0  0  0  0  0  0
   20.4465  -20.5083  -13.9798 O   0  0  0  0  0  0  0  0  0  0  0  0
   19.7919  -21.1189  -13.0661 C   0  0  0  0  0  0  0  0  0  0  0  0
   22.9256  -20.4354  -10.9403 C   0  0  0  0  0  0  0  0  0  0  0  0
   22.5216  -20.5832   -9.6245 O   0  0  0  0  0  0  0  0  0  0  0  0
  2  1  1  0
  3  2  2  0
  4  2  1  0
  5  4  1  0
  6  5  1  0
  7  6  1  0
  8 10  1  0
  8  9  1  6
  8  7  1  0
 10 11  2  0
 12 13  1  0
 13 14  2  0
 15 13  1  0
 16 15  1  6
 16 18  1  0
 17 16  1  0
 17 10  1  0
 18 19  2  0
 18 27  1  0
 20 21  1  0
 21 22  2  0
 21 31  1  0
 22 23  1  0
 23 24  2  0
 24 25  1  0
 26 25  1  1
 26 28  1  0
 27 26  1  0
 28 29  2  0
 28 32  1  0
 30 24  1  0
 31 30  2  0
M  END
$$$$
