RNY.pdb
     RDKit          3D

 32 32  0  0  1  0  0  0  0  0999 V2000
   25.9509  -29.5833  -18.0018 N   0  0  0  0  0  0  0  0  0  0  0  0
   27.0497  -30.3712  -17.5858 C   0  0  0  0  0  0  0  0  0  0  0  0
   27.1412  -31.6348  -17.8991 N   0  0  0  0  0  0  0  0  0  0  0  0
   28.0755  -29.7741  -16.8140 N   0  0  0  0  0  0  0  0  0  0  0  0
   28.0677  -28.4055  -16.3881 C   0  0  0  0  0  0  0  0  0  0  0  0
   28.6301  -27.4978  -17.4196 C   0  0  0  0  0  0  0  0  0  0  0  0
   28.7093  -26.0819  -16.9874 C   0  0  0  0  0  0  0  0  0  0  0  0
   29.2143  -25.1913  -18.1371 C   0  0  2  0  0  0  0  0  0  0  0  0
   30.6203  -25.3471  -18.3779 N   0  0  0  0  0  0  0  0  0  0  0  0
   28.9177  -23.8015  -17.7368 C   0  0  0  0  0  0  0  0  0  0  0  0
   29.8363  -23.0883  -17.2077 O   0  0  0  0  0  0  0  0  0  0  0  0
   27.9582  -32.2158  -17.6317 N   0  0  0  0  0  0  0  0  0  0  0  0
   27.3015  -19.1829  -19.5504 C   0  0  0  0  0  0  0  0  0  0  0  0
   27.0797  -20.5751  -19.6515 O   0  0  0  0  0  0  0  0  0  0  0  0
   27.4672  -21.1705  -20.6850 C   0  0  0  0  0  0  0  0  0  0  0  0
   26.4105  -21.3197  -18.5736 C   0  0  2  0  0  0  0  0  0  0  0  0
   27.3850  -21.8631  -17.5155 N   0  0  0  0  0  0  0  0  0  0  0  0
   27.6286  -23.2621  -17.9383 C   0  0  0  0  0  0  0  0  0  0  0  0
   26.7030  -21.8756  -16.2193 O   0  0  0  0  0  0  0  0  0  0  0  0
   25.7646  -22.7211  -16.0529 O   0  0  0  0  0  0  0  0  0  0  0  0
   23.8124  -20.8894   -7.9802 C   0  0  0  0  0  0  0  0  0  0  0  0
   24.4944  -20.6983   -9.1774 C   0  0  0  0  0  0  0  0  0  0  0  0
   25.7934  -21.1313   -9.3524 C   0  0  0  0  0  0  0  0  0  0  0  0
   26.4843  -20.9477  -10.5414 C   0  0  0  0  0  0  0  0  0  0  0  0
   25.8800  -20.3076  -11.6207 C   0  0  0  0  0  0  0  0  0  0  0  0
   26.6049  -20.0816  -12.8891 C   0  0  2  0  0  0  0  0  0  0  0  0
   26.2092  -21.1798  -13.8612 N   0  0  0  0  0  0  0  0  0  0  0  0
   26.9759  -21.0399  -15.1041 C   0  0  0  0  0  0  0  0  0  0  0  0
   24.7588  -21.1846  -14.0975 O   0  0  0  0  0  0  0  0  0  0  0  0
   24.2236  -20.3391  -14.8944 C   0  0  0  0  0  0  0  0  0  0  0  0
   24.5865  -19.8772  -11.4419 C   0  0  0  0  0  0  0  0  0  0  0  0
   23.9006  -20.0629  -10.2539 O   0  0  0  0  0  0  0  0  0  0  0  0
  2  1  1  0
  3  2  2  0
  4  2  1  0
  5  4  1  0
  6  5  1  0
  7  6  1  0
  8 10  1  0
  8  9  1  1
  8  7  1  0
 10 11  2  0
 12 13  1  0
 13 14  2  0
 15 13  1  0
 16 15  1  6
 16 18  1  0
 17 16  1  0
 17 10  1  0
 18 19  2  0
 18 27  1  0
 20 21  1  0
 21 22  2  0
 21 31  1  0
 22 23  1  0
 23 24  2  0
 24 25  1  0
 26 25  1  1
 26 28  1  0
 27 26  1  0
 28 29  2  0
 28 32  1  0
 30 24  1  0
 31 30  2  0
M  END
$$$$
