RNY.pdb
     RDKit          3D

 32 32  0  0  1  0  0  0  0  0999 V2000
   31.4210  -26.8534  -17.9814 N   0  0  0  0  0  0  0  0  0  0  0  0
   32.2337  -25.7380  -17.6708 C   0  0  0  0  0  0  0  0  0  0  0  0
   33.5085  -25.8695  -17.4247 N   0  0  0  0  0  0  0  0  0  0  0  0
   31.6508  -24.4484  -17.6290 N   0  0  0  0  0  0  0  0  0  0  0  0
   30.3427  -24.1740  -17.1113 C   0  0  0  0  0  0  0  0  0  0  0  0
   29.2718  -24.6685  -18.0129 C   0  0  0  0  0  0  0  0  0  0  0  0
   28.0224  -23.8734  -17.9453 C   0  0  0  0  0  0  0  0  0  0  0  0
   27.4968  -23.8111  -16.4995 C   0  0  2  0  0  0  0  0  0  0  0  0
   27.9010  -24.9439  -15.7170 N   0  0  0  0  0  0  0  0  0  0  0  0
   26.0248  -23.7630  -16.6025 C   0  0  0  0  0  0  0  0  0  0  0  0
   25.4773  -22.9703  -17.4417 O   0  0  0  0  0  0  0  0  0  0  0  0
   34.1271  -25.0555  -17.2471 N   0  0  0  0  0  0  0  0  0  0  0  0
   21.0702  -25.1609  -16.3659 C   0  0  0  0  0  0  0  0  0  0  0  0
   21.8241  -26.0247  -15.5396 O   0  0  0  0  0  0  0  0  0  0  0  0
   21.2804  -27.0706  -15.1113 C   0  0  0  0  0  0  0  0  0  0  0  0
   23.2173  -25.7141  -15.1837 C   0  0  2  0  0  0  0  0  0  0  0  0
   23.7540  -24.4514  -15.8779 N   0  0  0  0  0  0  0  0  0  0  0  0
   25.2262  -24.5881  -15.7812 C   0  0  0  0  0  0  0  0  0  0  0  0
   23.3383  -23.2819  -15.1001 O   0  0  0  0  0  0  0  0  0  0  0  0
   24.1009  -22.8995  -14.1539 O   0  0  0  0  0  0  0  0  0  0  0  0
   18.9435  -18.8887   -9.4690 C   0  0  0  0  0  0  0  0  0  0  0  0
   19.8095  -19.5068  -10.3651 C   0  0  0  0  0  0  0  0  0  0  0  0
   19.6479  -20.8248  -10.7424 C   0  0  0  0  0  0  0  0  0  0  0  0
   20.5038  -21.4525  -11.6357 C   0  0  0  0  0  0  0  0  0  0  0  0
   21.5769  -20.7618  -12.1937 C   0  0  0  0  0  0  0  0  0  0  0  0
   22.5142  -21.4174  -13.1303 C   0  0  2  0  0  0  0  0  0  0  0  0
   21.9612  -21.2632  -14.5367 N   0  0  0  0  0  0  0  0  0  0  0  0
   22.1621  -22.5083  -15.2862 C   0  0  0  0  0  0  0  0  0  0  0  0
   22.5508  -20.1012  -15.2163 O   0  0  0  0  0  0  0  0  0  0  0  0
   23.5883  -20.2318  -15.9532 C   0  0  0  0  0  0  0  0  0  0  0  0
   21.7347  -19.4497  -11.8147 C   0  0  0  0  0  0  0  0  0  0  0  0
   20.8779  -18.8269  -10.9234 O   0  0  0  0  0  0  0  0  0  0  0  0
  2  1  1  0
  3  2  2  0
  4  2  1  0
  5  4  1  0
  6  5  1  0
  7  6  1  0
  8 10  1  0
  8  9  1  1
  8  7  1  0
 10 11  2  0
 12 13  1  0
 13 14  2  0
 15 13  1  0
 16 15  1  6
 16 18  1  0
 17 16  1  0
 17 10  1  0
 18 19  2  0
 18 27  1  0
 20 21  1  0
 21 22  2  0
 21 31  1  0
 22 23  1  0
 23 24  2  0
 24 25  1  0
 26 25  1  1
 26 28  1  0
 27 26  1  0
 28 29  2  0
 28 32  1  0
 30 24  1  0
 31 30  2  0
M  END
$$$$
