RNY.pdb
     RDKit          3D

 32 32  0  0  1  0  0  0  0  0999 V2000
   22.1096  -15.9495  -17.9200 N   0  0  0  0  0  0  0  0  0  0  0  0
   22.3402  -16.9284  -18.9150 C   0  0  0  0  0  0  0  0  0  0  0  0
   21.3544  -17.5158  -19.5363 N   0  0  0  0  0  0  0  0  0  0  0  0
   23.6720  -17.2764  -19.2465 N   0  0  0  0  0  0  0  0  0  0  0  0
   24.6737  -17.6299  -18.2841 C   0  0  0  0  0  0  0  0  0  0  0  0
   24.1018  -18.3700  -17.1311 C   0  0  0  0  0  0  0  0  0  0  0  0
   25.1020  -18.7239  -16.0957 C   0  0  0  0  0  0  0  0  0  0  0  0
   26.0760  -19.7921  -16.6251 C   0  0  2  0  0  0  0  0  0  0  0  0
   25.4564  -20.6883  -17.5590 N   0  0  0  0  0  0  0  0  0  0  0  0
   26.5469  -20.5374  -15.4408 C   0  0  0  0  0  0  0  0  0  0  0  0
   26.1870  -21.7523  -15.2765 O   0  0  0  0  0  0  0  0  0  0  0  0
   21.5086  -18.2087  -20.2932 N   0  0  0  0  0  0  0  0  0  0  0  0
   29.1740  -21.8586  -11.1359 C   0  0  0  0  0  0  0  0  0  0  0  0
   29.8929  -20.9318  -11.9242 O   0  0  0  0  0  0  0  0  0  0  0  0
   31.0903  -20.6986  -11.6330 C   0  0  0  0  0  0  0  0  0  0  0  0
   29.2608  -20.2501  -13.0642 C   0  0  2  0  0  0  0  0  0  0  0  0
   27.8111  -20.6991  -13.3122 N   0  0  0  0  0  0  0  0  0  0  0  0
   27.3907  -19.9138  -14.4961 C   0  0  0  0  0  0  0  0  0  0  0  0
   26.9966  -20.2924  -12.1647 O   0  0  0  0  0  0  0  0  0  0  0  0
   26.8142  -19.0449  -11.9815 O   0  0  0  0  0  0  0  0  0  0  0  0
   20.4866  -18.6713  -13.3205 C   0  0  0  0  0  0  0  0  0  0  0  0
   21.4162  -19.3085  -12.5052 C   0  0  0  0  0  0  0  0  0  0  0  0
   22.4308  -20.0855  -13.0271 C   0  0  0  0  0  0  0  0  0  0  0  0
   23.3647  -20.7254  -12.2251 C   0  0  0  0  0  0  0  0  0  0  0  0
   23.3100  -20.6040  -10.8387 C   0  0  0  0  0  0  0  0  0  0  0  0
   24.2812  -21.2950   -9.9642 C   0  0  2  0  0  0  0  0  0  0  0  0
   25.6184  -20.5852  -10.0902 N   0  0  0  0  0  0  0  0  0  0  0  0
   26.3715  -21.1460  -11.2175 C   0  0  0  0  0  0  0  0  0  0  0  0
   26.3730  -20.6434   -8.8306 O   0  0  0  0  0  0  0  0  0  0  0  0
   25.8946  -20.1366   -7.7579 C   0  0  0  0  0  0  0  0  0  0  0  0
   22.2976  -19.8299  -10.3230 C   0  0  0  0  0  0  0  0  0  0  0  0
   21.3682  -19.1926  -11.1270 O   0  0  0  0  0  0  0  0  0  0  0  0
  2  1  1  0
  3  2  2  0
  4  2  1  0
  5  4  1  0
  6  5  1  0
  7  6  1  0
  8 10  1  0
  8  9  1  6
  8  7  1  0
 10 11  2  0
 12 13  1  0
 13 14  2  0
 15 13  1  0
 16 15  1  6
 16 18  1  0
 17 16  1  0
 17 10  1  0
 18 19  2  0
 18 27  1  0
 20 21  1  0
 21 22  2  0
 21 31  1  0
 22 23  1  0
 23 24  2  0
 24 25  1  0
 26 25  1  6
 26 28  1  0
 27 26  1  0
 28 29  2  0
 28 32  1  0
 30 24  1  0
 31 30  2  0
M  END
$$$$
