RNY.pdb
     RDKit          3D

 32 32  0  0  1  0  0  0  0  0999 V2000
   28.1038  -19.6224  -19.8223 N   0  0  0  0  0  0  0  0  0  0  0  0
   29.2637  -19.0080  -19.2947 C   0  0  0  0  0  0  0  0  0  0  0  0
   30.1400  -18.4268  -20.0676 N   0  0  0  0  0  0  0  0  0  0  0  0
   29.4771  -19.0211  -17.8952 N   0  0  0  0  0  0  0  0  0  0  0  0
   28.5642  -19.5909  -16.9483 C   0  0  0  0  0  0  0  0  0  0  0  0
   27.2710  -18.8624  -16.9134 C   0  0  0  0  0  0  0  0  0  0  0  0
   26.3133  -19.3972  -15.9162 C   0  0  0  0  0  0  0  0  0  0  0  0
   26.9894  -20.4591  -15.0301 C   0  0  2  0  0  0  0  0  0  0  0  0
   27.5763  -21.5222  -15.7946 N   0  0  0  0  0  0  0  0  0  0  0  0
   25.9298  -20.9905  -14.1499 C   0  0  0  0  0  0  0  0  0  0  0  0
   25.1351  -21.8882  -14.5914 O   0  0  0  0  0  0  0  0  0  0  0  0
   30.9968  -17.9754  -19.6951 N   0  0  0  0  0  0  0  0  0  0  0  0
   27.0622  -22.0506  -10.8138 C   0  0  0  0  0  0  0  0  0  0  0  0
   26.2953  -21.1392  -10.0532 O   0  0  0  0  0  0  0  0  0  0  0  0
   26.7095  -20.8096   -8.9163 C   0  0  0  0  0  0  0  0  0  0  0  0
   25.0374  -20.5823  -10.5743 C   0  0  2  0  0  0  0  0  0  0  0  0
   24.7022  -21.0652  -11.9952 N   0  0  0  0  0  0  0  0  0  0  0  0
   25.7954  -20.5121  -12.8284 C   0  0  0  0  0  0  0  0  0  0  0  0
   23.4387  -20.4502  -12.4085 O   0  0  0  0  0  0  0  0  0  0  0  0
   23.4760  -19.2484  -12.8297 O   0  0  0  0  0  0  0  0  0  0  0  0
   16.9546  -18.2400  -17.4466 C   0  0  0  0  0  0  0  0  0  0  0  0
   18.0175  -18.8287  -16.7695 C   0  0  0  0  0  0  0  0  0  0  0  0
   18.0416  -20.1795  -16.4859 C   0  0  0  0  0  0  0  0  0  0  0  0
   19.0958  -20.7789  -15.8122 C   0  0  0  0  0  0  0  0  0  0  0  0
   20.1878  -20.0244  -15.3902 C   0  0  0  0  0  0  0  0  0  0  0  0
   21.3115  -20.6384  -14.6513 C   0  0  2  0  0  0  0  0  0  0  0  0
   21.0479  -20.4688  -13.1650 N   0  0  0  0  0  0  0  0  0  0  0  0
   22.1530  -21.0530  -12.3970 C   0  0  0  0  0  0  0  0  0  0  0  0
   19.7452  -21.0345  -12.7871 O   0  0  0  0  0  0  0  0  0  0  0  0
   18.7399  -20.2735  -12.5714 C   0  0  0  0  0  0  0  0  0  0  0  0
   20.1595  -18.6795  -15.6739 C   0  0  0  0  0  0  0  0  0  0  0  0
   19.1057  -18.0854  -16.3469 O   0  0  0  0  0  0  0  0  0  0  0  0
  2  1  1  0
  3  2  2  0
  4  2  1  0
  5  4  1  0
  6  5  1  0
  7  6  1  0
  8 10  1  0
  8  9  1  6
  8  7  1  0
 10 11  2  0
 12 13  1  0
 13 14  2  0
 15 13  1  0
 16 15  1  1
 16 18  1  0
 17 16  1  0
 17 10  1  0
 18 19  2  0
 18 27  1  0
 20 21  1  0
 21 22  2  0
 21 31  1  0
 22 23  1  0
 23 24  2  0
 24 25  1  0
 26 25  1  6
 26 28  1  0
 27 26  1  0
 28 29  2  0
 28 32  1  0
 30 24  1  0
 31 30  2  0
M  END
$$$$
