RNY.pdb
     RDKit          3D

 32 32  0  0  1  0  0  0  0  0999 V2000
   27.8372  -18.9670  -21.7523 N   0  0  0  0  0  0  0  0  0  0  0  0
   28.1953  -17.8005  -22.4680 C   0  0  0  0  0  0  0  0  0  0  0  0
   27.7032  -17.5464  -23.6497 N   0  0  0  0  0  0  0  0  0  0  0  0
   29.1067  -16.8858  -21.8872 N   0  0  0  0  0  0  0  0  0  0  0  0
   29.4622  -16.8776  -20.4987 C   0  0  0  0  0  0  0  0  0  0  0  0
   28.8049  -15.7689  -19.7619 C   0  0  0  0  0  0  0  0  0  0  0  0
   28.1669  -16.1934  -18.4928 C   0  0  0  0  0  0  0  0  0  0  0  0
   27.3730  -17.4969  -18.6945 C   0  0  2  0  0  0  0  0  0  0  0  0
   26.5086  -17.4443  -19.8387 N   0  0  0  0  0  0  0  0  0  0  0  0
   26.5780  -17.6846  -17.4646 C   0  0  0  0  0  0  0  0  0  0  0  0
   26.3351  -16.6811  -16.7120 O   0  0  0  0  0  0  0  0  0  0  0  0
   27.9318  -16.6796  -24.1722 N   0  0  0  0  0  0  0  0  0  0  0  0
   23.1296  -19.5746  -14.0999 C   0  0  0  0  0  0  0  0  0  0  0  0
   23.0449  -20.2090  -15.3600 O   0  0  0  0  0  0  0  0  0  0  0  0
   22.0840  -20.9850  -15.5772 C   0  0  0  0  0  0  0  0  0  0  0  0
   24.0560  -19.9711  -16.4016 C   0  0  1  0  0  0  0  0  0  0  0  0
   25.2156  -19.0783  -15.9295 N   0  0  0  0  0  0  0  0  0  0  0  0
   26.0872  -18.9633  -17.1220 C   0  0  0  0  0  0  0  0  0  0  0  0
   25.9486  -19.7872  -14.8779 O   0  0  0  0  0  0  0  0  0  0  0  0
   26.5618  -20.8558  -15.2020 O   0  0  0  0  0  0  0  0  0  0  0  0
   22.0023  -21.2187   -8.6993 C   0  0  0  0  0  0  0  0  0  0  0  0
   23.1862  -20.8192   -9.3105 C   0  0  0  0  0  0  0  0  0  0  0  0
   24.4180  -21.0480   -8.7309 C   0  0  0  0  0  0  0  0  0  0  0  0
   25.6060  -20.6555   -9.3304 C   0  0  0  0  0  0  0  0  0  0  0  0
   25.5973  -20.0043  -10.5615 C   0  0  0  0  0  0  0  0  0  0  0  0
   26.8497  -19.5576  -11.2077 C   0  0  1  0  0  0  0  0  0  0  0  0
   26.9111  -20.1739  -12.5948 N   0  0  0  0  0  0  0  0  0  0  0  0
   26.0594  -19.4102  -13.5133 C   0  0  0  0  0  0  0  0  0  0  0  0
   26.5568  -21.5997  -12.5601 O   0  0  0  0  0  0  0  0  0  0  0  0
   25.5045  -22.0263  -13.1493 C   0  0  0  0  0  0  0  0  0  0  0  0
   24.3685  -19.7778  -11.1349 C   0  0  0  0  0  0  0  0  0  0  0  0
   23.1854  -20.1716  -10.5336 O   0  0  0  0  0  0  0  0  0  0  0  0
  2  1  1  0
  3  2  2  0
  4  2  1  0
  5  4  1  0
  6  5  1  0
  7  6  1  0
  8 10  1  0
  8  9  1  6
  8  7  1  0
 10 11  2  0
 12 13  1  0
 13 14  2  0
 15 13  1  0
 16 15  1  6
 16 18  1  0
 17 16  1  0
 17 10  1  0
 18 19  2  0
 18 27  1  0
 20 21  1  0
 21 22  2  0
 21 31  1  0
 22 23  1  0
 23 24  2  0
 24 25  1  0
 26 25  1  6
 26 28  1  0
 27 26  1  0
 28 29  2  0
 28 32  1  0
 30 24  1  0
 31 30  2  0
M  END
$$$$
