RNY.pdb
     RDKit          3D

 32 32  0  0  1  0  0  0  0  0999 V2000
   22.8602  -18.8153  -20.5534 N   0  0  0  0  0  0  0  0  0  0  0  0
   21.8728  -17.9674  -19.9989 C   0  0  0  0  0  0  0  0  0  0  0  0
   20.7977  -17.6448  -20.6646 N   0  0  0  0  0  0  0  0  0  0  0  0
   22.0539  -17.4595  -18.6898 N   0  0  0  0  0  0  0  0  0  0  0  0
   23.1915  -17.7468  -17.8664 C   0  0  0  0  0  0  0  0  0  0  0  0
   24.4704  -17.4531  -18.5611 C   0  0  0  0  0  0  0  0  0  0  0  0
   25.6726  -17.8210  -17.7755 C   0  0  0  0  0  0  0  0  0  0  0  0
   26.3490  -19.0689  -18.3717 C   0  0  2  0  0  0  0  0  0  0  0  0
   26.3344  -19.0710  -19.8066 N   0  0  0  0  0  0  0  0  0  0  0  0
   25.5953  -20.2280  -17.8537 C   0  0  0  0  0  0  0  0  0  0  0  0
   25.1491  -21.1049  -18.6687 O   0  0  0  0  0  0  0  0  0  0  0  0
   20.0578  -17.0373  -20.2647 N   0  0  0  0  0  0  0  0  0  0  0  0
   25.6223  -25.0337  -15.9562 C   0  0  0  0  0  0  0  0  0  0  0  0
   25.5347  -23.8620  -15.1707 O   0  0  0  0  0  0  0  0  0  0  0  0
   25.1077  -23.9585  -13.9955 C   0  0  0  0  0  0  0  0  0  0  0  0
   25.9335  -22.5526  -15.7096 C   0  0  1  0  0  0  0  0  0  0  0  0
   24.7415  -21.6218  -15.9872 N   0  0  0  0  0  0  0  0  0  0  0  0
   25.3700  -20.3688  -16.4671 C   0  0  0  0  0  0  0  0  0  0  0  0
   24.0595  -21.3503  -14.7196 O   0  0  0  0  0  0  0  0  0  0  0  0
   24.6437  -20.5841  -13.8861 O   0  0  0  0  0  0  0  0  0  0  0  0
   26.4523  -20.9618   -8.6582 C   0  0  0  0  0  0  0  0  0  0  0  0
   25.5475  -20.7057   -9.6831 C   0  0  0  0  0  0  0  0  0  0  0  0
   25.9080  -20.7977  -11.0125 C   0  0  0  0  0  0  0  0  0  0  0  0
   25.0151  -20.5459  -12.0440 C   0  0  0  0  0  0  0  0  0  0  0  0
   23.6984  -20.1842  -11.7691 C   0  0  0  0  0  0  0  0  0  0  0  0
   22.7364  -19.8897  -12.8523 C   0  0  2  0  0  0  0  0  0  0  0  0
   22.0449  -21.1869  -13.2352 N   0  0  0  0  0  0  0  0  0  0  0  0
   22.7957  -21.8497  -14.3073 C   0  0  0  0  0  0  0  0  0  0  0  0
   20.6401  -20.9545  -13.5988 O   0  0  0  0  0  0  0  0  0  0  0  0
   20.2410  -21.1177  -14.8031 C   0  0  0  0  0  0  0  0  0  0  0  0
   23.3438  -20.0930  -10.4440 C   0  0  0  0  0  0  0  0  0  0  0  0
   24.2378  -20.3457   -9.4178 O   0  0  0  0  0  0  0  0  0  0  0  0
  2  1  1  0
  3  2  2  0
  4  2  1  0
  5  4  1  0
  6  5  1  0
  7  6  1  0
  8 10  1  0
  8  9  1  6
  8  7  1  0
 10 11  2  0
 12 13  1  0
 13 14  2  0
 15 13  1  0
 16 15  1  6
 16 18  1  0
 17 16  1  0
 17 10  1  0
 18 19  2  0
 18 27  1  0
 20 21  1  0
 21 22  2  0
 21 31  1  0
 22 23  1  0
 23 24  2  0
 24 25  1  0
 26 25  1  1
 26 28  1  0
 27 26  1  0
 28 29  2  0
 28 32  1  0
 30 24  1  0
 31 30  2  0
M  END
$$$$
