RNY.pdb
     RDKit          3D

 32 32  0  0  1  0  0  0  0  0999 V2000
   26.8988  -32.9774  -16.3099 N   0  0  0  0  0  0  0  0  0  0  0  0
   25.6296  -33.1580  -16.9079 C   0  0  0  0  0  0  0  0  0  0  0  0
   24.9720  -34.2788  -16.7887 N   0  0  0  0  0  0  0  0  0  0  0  0
   25.0582  -32.0966  -17.6506 N   0  0  0  0  0  0  0  0  0  0  0  0
   25.5185  -30.7402  -17.5985 C   0  0  0  0  0  0  0  0  0  0  0  0
   26.3475  -30.4791  -16.3948 C   0  0  0  0  0  0  0  0  0  0  0  0
   26.1000  -29.1542  -15.7774 C   0  0  0  0  0  0  0  0  0  0  0  0
   26.7675  -28.0385  -16.6018 C   0  0  2  0  0  0  0  0  0  0  0  0
   28.2004  -28.1027  -16.5575 N   0  0  0  0  0  0  0  0  0  0  0  0
   26.2971  -26.7652  -16.0210 C   0  0  0  0  0  0  0  0  0  0  0  0
   26.8360  -26.3241  -14.9499 O   0  0  0  0  0  0  0  0  0  0  0  0
   24.0421  -34.4267  -17.2248 N   0  0  0  0  0  0  0  0  0  0  0  0
   27.2638  -23.1893  -17.9089 C   0  0  0  0  0  0  0  0  0  0  0  0
   26.3274  -23.0950  -16.8545 O   0  0  0  0  0  0  0  0  0  0  0  0
   26.6591  -22.4839  -15.8107 C   0  0  0  0  0  0  0  0  0  0  0  0
   24.9898  -23.6964  -16.9682 C   0  0  2  0  0  0  0  0  0  0  0  0
   24.7459  -24.8300  -15.9582 N   0  0  0  0  0  0  0  0  0  0  0  0
   25.2603  -26.0380  -16.6449 C   0  0  0  0  0  0  0  0  0  0  0  0
   23.3014  -24.9776  -15.7660 O   0  0  0  0  0  0  0  0  0  0  0  0
   22.6112  -25.3823  -16.7574 O   0  0  0  0  0  0  0  0  0  0  0  0
   22.4134  -31.0049  -13.2042 C   0  0  0  0  0  0  0  0  0  0  0  0
   22.0053  -29.6751  -13.2105 C   0  0  0  0  0  0  0  0  0  0  0  0
   22.9107  -28.6353  -13.1416 C   0  0  0  0  0  0  0  0  0  0  0  0
   22.5169  -27.3051  -13.1480 C   0  0  0  0  0  0  0  0  0  0  0  0
   21.1683  -26.9656  -13.2254 C   0  0  0  0  0  0  0  0  0  0  0  0
   20.7250  -25.5553  -13.2112 C   0  0  2  0  0  0  0  0  0  0  0  0
   21.1165  -24.9241  -14.5364 N   0  0  0  0  0  0  0  0  0  0  0  0
   22.5687  -24.7202  -14.5771 C   0  0  0  0  0  0  0  0  0  0  0  0
   20.3711  -23.6802  -14.7745 O   0  0  0  0  0  0  0  0  0  0  0  0
   19.0956  -23.6906  -14.8709 C   0  0  0  0  0  0  0  0  0  0  0  0
   20.2700  -28.0041  -13.2931 C   0  0  0  0  0  0  0  0  0  0  0  0
   20.6673  -29.3301  -13.2871 O   0  0  0  0  0  0  0  0  0  0  0  0
  2  1  1  0
  3  2  2  0
  4  2  1  0
  5  4  1  0
  6  5  1  0
  7  6  1  0
  8 10  1  0
  8  9  1  1
  8  7  1  0
 10 11  2  0
 12 13  1  0
 13 14  2  0
 15 13  1  0
 16 15  1  1
 16 18  1  0
 17 16  1  0
 17 10  1  0
 18 19  2  0
 18 27  1  0
 20 21  1  0
 21 22  2  0
 21 31  1  0
 22 23  1  0
 23 24  2  0
 24 25  1  0
 26 25  1  6
 26 28  1  0
 27 26  1  0
 28 29  2  0
 28 32  1  0
 30 24  1  0
 31 30  2  0
M  END
$$$$
