ADT.pdb
     RDKit          3D

 21 20  0  0  1  0  0  0  0  0999 V2000
    7.7200  -18.8633   14.9774 C   0  0  0  0  0  0  0  0  0  0  0  0
    8.6665  -17.8266   15.4777 C   0  0  2  0  0  0  0  0  0  0  0  0
   10.0050  -18.0808   14.9937 N   0  0  0  0  0  0  0  0  0  0  0  0
    8.6412  -17.7534   16.9634 C   0  0  0  0  0  0  0  0  0  0  0  0
    7.5609  -17.4634   17.5263 O   0  0  0  0  0  0  0  0  0  0  0  0
    9.7866  -17.9980   17.7366 N   0  0  0  0  0  0  0  0  0  0  0  0
    9.7964  -18.0179   19.1829 C   0  0  1  0  0  0  0  0  0  0  0  0
   10.8187  -18.9645   19.7307 C   0  0  0  0  0  0  0  0  0  0  0  0
   10.5925  -20.3680   19.4528 C   0  0  0  0  0  0  0  0  0  0  0  0
    9.4509  -20.8604   19.4263 O   0  0  0  0  0  0  0  0  0  0  0  0
    9.8962  -16.6555   19.6886 C   0  0  0  0  0  0  0  0  0  0  0  0
   10.9464  -15.9570   19.6805 O   0  0  0  0  0  0  0  0  0  0  0  0
   11.6605  -21.2154   19.2042 O   0  0  0  0  0  0  0  0  0  0  0  0
    7.5434  -12.5327   20.5668 C   0  0  0  0  0  0  0  0  0  0  0  0
    7.5293  -13.9659   20.1231 C   0  0  1  0  0  0  0  0  0  0  0  0
    7.6004  -13.9825   18.7341 O   0  0  0  0  0  0  0  0  0  0  0  0
    8.6977  -14.6835   20.7175 C   0  0  2  0  0  0  0  0  0  0  0  0
    8.7356  -16.0457   20.2385 N   0  0  0  0  0  0  0  0  0  0  0  0
    8.6983  -14.6228   22.2026 C   0  0  0  0  0  0  0  0  0  0  0  0
    8.3736  -15.6314   22.8673 O   0  0  0  0  0  0  0  0  0  0  0  0
    9.0565  -13.4556   22.8335 O   0  0  0  0  0  0  0  0  0  0  0  0
  2  1  1  1
  2  4  1  0
  3  2  1  0
  4  5  2  0
  6  7  1  0
  6  4  1  0
  7 11  1  0
  8  9  1  0
  7  8  1  6
  9 10  2  0
 11 18  1  0
 11 12  2  0
 13  9  1  0
 15 14  1  1
 15 17  1  0
 16 15  1  0
 17 19  1  0
 17 18  1  1
 19 20  2  0
 19 21  1  0
M  END
$$$$
