ADT.pdb
     RDKit          3D

 21 20  0  0  1  0  0  0  0  0999 V2000
    8.3979  -18.2046   11.1172 C   0  0  0  0  0  0  0  0  0  0  0  0
    9.5122  -18.8035   10.3294 C   0  0  2  0  0  0  0  0  0  0  0  0
    8.9960  -19.6213    9.2546 N   0  0  0  0  0  0  0  0  0  0  0  0
   10.4243  -19.5869   11.2055 C   0  0  0  0  0  0  0  0  0  0  0  0
   10.1808  -20.8023   11.3822 O   0  0  0  0  0  0  0  0  0  0  0  0
   11.5358  -19.0005   11.8302 N   0  0  0  0  0  0  0  0  0  0  0  0
   12.4505  -19.7173   12.6915 C   0  0  1  0  0  0  0  0  0  0  0  0
   13.8819  -19.3998   12.3890 C   0  0  0  0  0  0  0  0  0  0  0  0
   14.8670  -20.2105   13.0748 C   0  0  0  0  0  0  0  0  0  0  0  0
   14.5511  -21.2157   13.7353 O   0  0  0  0  0  0  0  0  0  0  0  0
   12.0649  -19.5220   14.0825 C   0  0  0  0  0  0  0  0  0  0  0  0
   11.9525  -18.4014   14.6505 O   0  0  0  0  0  0  0  0  0  0  0  0
   16.2122  -19.8831   13.0125 O   0  0  0  0  0  0  0  0  0  0  0  0
    8.9970  -20.7905   15.7320 C   0  0  0  0  0  0  0  0  0  0  0  0
   10.1442  -21.4168   16.4686 C   0  0  1  0  0  0  0  0  0  0  0  0
   10.3226  -22.7015   15.9661 O   0  0  0  0  0  0  0  0  0  0  0  0
   11.3764  -20.5966   16.2630 C   0  0  2  0  0  0  0  0  0  0  0  0
   11.7901  -20.6658   14.8809 N   0  0  0  0  0  0  0  0  0  0  0  0
   12.4735  -20.9896   17.1857 C   0  0  0  0  0  0  0  0  0  0  0  0
   13.5317  -21.4720   16.7251 O   0  0  0  0  0  0  0  0  0  0  0  0
   12.3146  -20.8192   18.5400 O   0  0  0  0  0  0  0  0  0  0  0  0
  2  1  1  1
  2  4  1  0
  3  2  1  0
  4  5  2  0
  6  7  1  0
  6  4  1  0
  7 11  1  0
  8  9  1  0
  7  8  1  1
  9 10  2  0
 11 18  1  0
 11 12  2  0
 13  9  1  0
 15 14  1  6
 15 17  1  0
 16 15  1  0
 17 19  1  0
 17 18  1  6
 19 20  2  0
 19 21  1  0
M  END
$$$$
