ADT.pdb
     RDKit          3D

 21 20  0  0  1  0  0  0  0  0999 V2000
    8.0004  -12.1389   19.9754 C   0  0  0  0  0  0  0  0  0  0  0  0
    7.9686  -13.5741   19.5751 C   0  0  2  0  0  0  0  0  0  0  0  0
    6.7736  -13.8662   18.8154 N   0  0  0  0  0  0  0  0  0  0  0  0
    8.0758  -14.4622   20.7638 C   0  0  0  0  0  0  0  0  0  0  0  0
    7.0233  -14.7927   21.3562 O   0  0  0  0  0  0  0  0  0  0  0  0
    9.3144  -14.9300   21.2294 N   0  0  0  0  0  0  0  0  0  0  0  0
    9.4638  -15.9249   22.2687 C   0  0  1  0  0  0  0  0  0  0  0  0
   10.6196  -16.8419   22.0148 C   0  0  0  0  0  0  0  0  0  0  0  0
   10.7592  -17.9516   22.9352 C   0  0  0  0  0  0  0  0  0  0  0  0
   11.7965  -18.6351   22.9932 O   0  0  0  0  0  0  0  0  0  0  0  0
    9.4801  -15.2716   23.5705 C   0  0  0  0  0  0  0  0  0  0  0  0
   10.4344  -14.5798   24.0197 O   0  0  0  0  0  0  0  0  0  0  0  0
    9.7229  -18.2880   23.7916 O   0  0  0  0  0  0  0  0  0  0  0  0
    6.7881  -13.0057   25.0376 C   0  0  0  0  0  0  0  0  0  0  0  0
    6.9147  -14.2046   25.9307 C   0  0  1  0  0  0  0  0  0  0  0  0
    5.9048  -15.0983   25.5897 O   0  0  0  0  0  0  0  0  0  0  0  0
    8.2577  -14.8311   25.7374 C   0  0  2  0  0  0  0  0  0  0  0  0
    8.3465  -15.4103   24.4172 N   0  0  0  0  0  0  0  0  0  0  0  0
    8.5715  -15.8257   26.7964 C   0  0  0  0  0  0  0  0  0  0  0  0
    8.7572  -17.0241   26.4898 O   0  0  0  0  0  0  0  0  0  0  0  0
    8.6547  -15.4185   28.1063 O   0  0  0  0  0  0  0  0  0  0  0  0
  2  1  1  1
  2  4  1  0
  3  2  1  0
  4  5  2  0
  6  7  1  0
  6  4  1  0
  7 11  1  0
  8  9  1  0
  7  8  1  6
  9 10  2  0
 11 18  1  0
 11 12  2  0
 13  9  1  0
 15 14  1  6
 15 17  1  0
 16 15  1  0
 17 19  1  0
 17 18  1  6
 19 20  2  0
 19 21  1  0
M  END
$$$$
