ADT.pdb
     RDKit          3D

 21 20  0  0  1  0  0  0  0  0999 V2000
    8.1926  -12.4258   19.2430 C   0  0  0  0  0  0  0  0  0  0  0  0
    8.3596  -13.6332   18.3856 C   0  0  2  0  0  0  0  0  0  0  0  0
    7.1560  -13.8918   17.6274 N   0  0  0  0  0  0  0  0  0  0  0  0
    8.7419  -14.8177   19.2006 C   0  0  0  0  0  0  0  0  0  0  0  0
    7.8359  -15.5898   19.5892 O   0  0  0  0  0  0  0  0  0  0  0  0
   10.0776  -15.0838   19.5392 N   0  0  0  0  0  0  0  0  0  0  0  0
   10.4987  -16.2098   20.3437 C   0  0  1  0  0  0  0  0  0  0  0  0
   11.7142  -16.8827   19.7863 C   0  0  0  0  0  0  0  0  0  0  0  0
   12.1700  -18.0567   20.5018 C   0  0  0  0  0  0  0  0  0  0  0  0
   13.2988  -18.1175   21.0200 O   0  0  0  0  0  0  0  0  0  0  0  0
   10.6160  -15.7977   21.7358 C   0  0  0  0  0  0  0  0  0  0  0  0
   11.4562  -14.9655   22.1746 O   0  0  0  0  0  0  0  0  0  0  0  0
   11.3464  -19.1637   20.6314 O   0  0  0  0  0  0  0  0  0  0  0  0
    7.9106  -14.3636   23.8138 C   0  0  0  0  0  0  0  0  0  0  0  0
    8.3253  -15.6291   24.5047 C   0  0  1  0  0  0  0  0  0  0  0  0
    7.4276  -16.6271   24.1402 O   0  0  0  0  0  0  0  0  0  0  0  0
    9.7133  -15.9933   24.0876 C   0  0  2  0  0  0  0  0  0  0  0  0
    9.7279  -16.3630   22.6914 N   0  0  0  0  0  0  0  0  0  0  0  0
   10.2963  -17.0588   24.9445 C   0  0  0  0  0  0  0  0  0  0  0  0
   10.6181  -18.1572   24.4401 O   0  0  0  0  0  0  0  0  0  0  0  0
   10.4766  -16.8266   26.2870 O   0  0  0  0  0  0  0  0  0  0  0  0
  2  1  1  1
  2  4  1  0
  3  2  1  0
  4  5  2  0
  6  7  1  0
  6  4  1  0
  7 11  1  0
  8  9  1  0
  7  8  1  6
  9 10  2  0
 11 18  1  0
 11 12  2  0
 13  9  1  0
 15 14  1  6
 15 17  1  0
 16 15  1  0
 17 19  1  0
 17 18  1  6
 19 20  2  0
 19 21  1  0
M  END
$$$$
