ADT.pdb
     RDKit          3D

 21 20  0  0  1  0  0  0  0  0999 V2000
    7.8746  -12.1076   19.6941 C   0  0  0  0  0  0  0  0  0  0  0  0
    8.2432  -13.4225   19.0974 C   0  0  2  0  0  0  0  0  0  0  0  0
    7.3996  -13.7227   17.9622 N   0  0  0  0  0  0  0  0  0  0  0  0
    8.1766  -14.5071   20.1135 C   0  0  0  0  0  0  0  0  0  0  0  0
    7.1898  -15.2778   20.0971 O   0  0  0  0  0  0  0  0  0  0  0  0
    9.1818  -14.6818   21.0772 N   0  0  0  0  0  0  0  0  0  0  0  0
    9.2224  -15.7848   22.0121 C   0  0  1  0  0  0  0  0  0  0  0  0
   10.2457  -16.8107   21.6356 C   0  0  0  0  0  0  0  0  0  0  0  0
   10.3791  -17.9319   22.5428 C   0  0  0  0  0  0  0  0  0  0  0  0
    9.3938  -18.4681   23.0796 O   0  0  0  0  0  0  0  0  0  0  0  0
    9.3480  -15.2697   23.3688 C   0  0  0  0  0  0  0  0  0  0  0  0
   10.3784  -14.7137   23.8380 O   0  0  0  0  0  0  0  0  0  0  0  0
   11.6301  -18.4474   22.8426 O   0  0  0  0  0  0  0  0  0  0  0  0
    6.7066  -13.0361   25.1086 C   0  0  0  0  0  0  0  0  0  0  0  0
    6.8970  -14.2870   25.9148 C   0  0  1  0  0  0  0  0  0  0  0  0
    5.8756  -15.1696   25.5793 O   0  0  0  0  0  0  0  0  0  0  0  0
    8.2308  -14.8840   25.6019 C   0  0  2  0  0  0  0  0  0  0  0  0
    8.2390  -15.3921   24.2499 N   0  0  0  0  0  0  0  0  0  0  0  0
    8.6235  -15.9282   26.5841 C   0  0  0  0  0  0  0  0  0  0  0  0
    8.8417  -17.0972   26.1964 O   0  0  0  0  0  0  0  0  0  0  0  0
    8.7433  -15.5988   27.9129 O   0  0  0  0  0  0  0  0  0  0  0  0
  2  1  1  1
  2  4  1  0
  3  2  1  0
  4  5  2  0
  6  7  1  0
  6  4  1  0
  7 11  1  0
  8  9  1  0
  7  8  1  6
  9 10  2  0
 11 18  1  0
 11 12  2  0
 13  9  1  0
 15 14  1  6
 15 17  1  0
 16 15  1  0
 17 19  1  0
 17 18  1  6
 19 20  2  0
 19 21  1  0
M  END
$$$$
