ADT.pdb
     RDKit          3D

 21 20  0  0  1  0  0  0  0  0999 V2000
   -2.2081  -28.2573   30.1670 C   0  0  0  0  0  0  0  0  0  0  0  0
   -2.3429  -26.9834   30.9286 C   0  0  2  0  0  0  0  0  0  0  0  0
   -2.0164  -27.1846   32.3226 N   0  0  0  0  0  0  0  0  0  0  0  0
   -3.7086  -26.4132   30.7772 C   0  0  0  0  0  0  0  0  0  0  0  0
   -4.1345  -26.1879   29.6214 O   0  0  0  0  0  0  0  0  0  0  0  0
   -4.5182  -26.1255   31.8870 N   0  0  0  0  0  0  0  0  0  0  0  0
   -5.8879  -25.6701   31.7920 C   0  0  1  0  0  0  0  0  0  0  0  0
   -6.7591  -26.2660   32.8536 C   0  0  0  0  0  0  0  0  0  0  0  0
   -6.9658  -27.6972   32.7711 C   0  0  0  0  0  0  0  0  0  0  0  0
   -6.4372  -28.4881   33.5720 O   0  0  0  0  0  0  0  0  0  0  0  0
   -5.9147  -24.2151   31.7288 C   0  0  0  0  0  0  0  0  0  0  0  0
   -5.4946  -23.4448   32.6349 O   0  0  0  0  0  0  0  0  0  0  0  0
   -7.7725  -28.2341   31.7804 O   0  0  0  0  0  0  0  0  0  0  0  0
   -4.6595  -22.0454   28.8349 C   0  0  0  0  0  0  0  0  0  0  0  0
   -6.1275  -21.7886   29.0082 C   0  0  1  0  0  0  0  0  0  0  0  0
   -6.8082  -22.5605   28.0726 O   0  0  0  0  0  0  0  0  0  0  0  0
   -6.5387  -22.1615   30.3958 C   0  0  2  0  0  0  0  0  0  0  0  0
   -6.4510  -23.5929   30.5684 N   0  0  0  0  0  0  0  0  0  0  0  0
   -7.8909  -21.6483   30.7382 C   0  0  0  0  0  0  0  0  0  0  0  0
   -8.8428  -22.4473   30.8800 O   0  0  0  0  0  0  0  0  0  0  0  0
   -8.0836  -20.2967   30.8960 O   0  0  0  0  0  0  0  0  0  0  0  0
  2  1  1  6
  2  4  1  0
  3  2  1  0
  4  5  2  0
  6  7  1  0
  6  4  1  0
  7 11  1  0
  8  9  1  0
  7  8  1  1
  9 10  2  0
 11 18  1  0
 11 12  2  0
 13  9  1  0
 15 14  1  1
 15 17  1  0
 16 15  1  0
 17 19  1  0
 17 18  1  6
 19 20  2  0
 19 21  1  0
M  END
$$$$
