ADT.pdb
     RDKit          3D

 21 20  0  0  1  0  0  0  0  0999 V2000
    9.2638  -19.7708   18.6539 C   0  0  0  0  0  0  0  0  0  0  0  0
    9.7117  -18.4327   19.1331 C   0  0  2  0  0  0  0  0  0  0  0  0
   10.6359  -17.8369   18.1943 N   0  0  0  0  0  0  0  0  0  0  0  0
   10.3151  -18.5262   20.4897 C   0  0  0  0  0  0  0  0  0  0  0  0
    9.5909  -18.9061   21.4380 O   0  0  0  0  0  0  0  0  0  0  0  0
   11.6598  -18.2014   20.7262 N   0  0  0  0  0  0  0  0  0  0  0  0
   12.2930  -18.2754   22.0246 C   0  0  1  0  0  0  0  0  0  0  0  0
   13.7702  -18.4969   21.9240 C   0  0  0  0  0  0  0  0  0  0  0  0
   14.1814  -19.7629   21.3529 C   0  0  0  0  0  0  0  0  0  0  0  0
   13.7910  -20.8515   21.8100 O   0  0  0  0  0  0  0  0  0  0  0  0
   11.9040  -17.1212   22.8234 C   0  0  0  0  0  0  0  0  0  0  0  0
   12.4034  -15.9678   22.7173 O   0  0  0  0  0  0  0  0  0  0  0  0
   15.0356  -19.7967   20.2622 O   0  0  0  0  0  0  0  0  0  0  0  0
    9.2822  -14.8976   23.1018 C   0  0  0  0  0  0  0  0  0  0  0  0
    9.1630  -15.6987   24.3647 C   0  0  1  0  0  0  0  0  0  0  0  0
    8.2598  -16.7303   24.1311 O   0  0  0  0  0  0  0  0  0  0  0  0
   10.5027  -16.2475   24.7356 C   0  0  2  0  0  0  0  0  0  0  0  0
   10.8871  -17.2821   23.8038 N   0  0  0  0  0  0  0  0  0  0  0  0
   10.5426  -16.7306   26.1407 C   0  0  0  0  0  0  0  0  0  0  0  0
   10.7255  -17.9453   26.3767 O   0  0  0  0  0  0  0  0  0  0  0  0
   10.3776  -15.8358   27.1706 O   0  0  0  0  0  0  0  0  0  0  0  0
  2  1  1  6
  2  4  1  0
  3  2  1  0
  4  5  2  0
  6  7  1  0
  6  4  1  0
  7 11  1  0
  8  9  1  0
  7  8  1  6
  9 10  2  0
 11 18  1  0
 11 12  2  0
 13  9  1  0
 15 14  1  6
 15 17  1  0
 16 15  1  0
 17 19  1  0
 17 18  1  6
 19 20  2  0
 19 21  1  0
M  END
$$$$
