ADT.pdb
     RDKit          3D

 21 20  0  0  1  0  0  0  0  0999 V2000
    8.1493  -12.1744   19.9703 C   0  0  0  0  0  0  0  0  0  0  0  0
    8.1995  -13.4959   19.2833 C   0  0  2  0  0  0  0  0  0  0  0  0
    7.0293  -13.6861   18.4557 N   0  0  0  0  0  0  0  0  0  0  0  0
    8.3438  -14.6032   20.2662 C   0  0  0  0  0  0  0  0  0  0  0  0
    7.3062  -15.1621   20.6892 O   0  0  0  0  0  0  0  0  0  0  0  0
    9.6007  -15.0280   20.7240 N   0  0  0  0  0  0  0  0  0  0  0  0
    9.7978  -16.1356   21.6332 C   0  0  1  0  0  0  0  0  0  0  0  0
   10.9862  -16.9681   21.2646 C   0  0  0  0  0  0  0  0  0  0  0  0
   11.1577  -18.1927   22.0189 C   0  0  0  0  0  0  0  0  0  0  0  0
   10.7407  -18.3146   23.1841 O   0  0  0  0  0  0  0  0  0  0  0  0
    9.7999  -15.6460   23.0050 C   0  0  0  0  0  0  0  0  0  0  0  0
   10.7456  -15.0077   23.5429 O   0  0  0  0  0  0  0  0  0  0  0  0
   11.8020  -19.2813   21.4530 O   0  0  0  0  0  0  0  0  0  0  0  0
    7.0118  -13.6670   24.7593 C   0  0  0  0  0  0  0  0  0  0  0  0
    7.2030  -14.9621   25.4921 C   0  0  1  0  0  0  0  0  0  0  0  0
    6.2256  -15.8486   25.0524 O   0  0  0  0  0  0  0  0  0  0  0  0
    8.5675  -15.5004   25.2059 C   0  0  2  0  0  0  0  0  0  0  0  0
    8.6614  -15.8946   23.8195 N   0  0  0  0  0  0  0  0  0  0  0  0
    8.9358  -16.6131   26.1200 C   0  0  0  0  0  0  0  0  0  0  0  0
    9.1970  -17.7432   25.6518 O   0  0  0  0  0  0  0  0  0  0  0  0
    8.9858  -16.3894   27.4750 O   0  0  0  0  0  0  0  0  0  0  0  0
  2  1  1  1
  2  4  1  0
  3  2  1  0
  4  5  2  0
  6  7  1  0
  6  4  1  0
  7 11  1  0
  8  9  1  0
  7  8  1  6
  9 10  2  0
 11 18  1  0
 11 12  2  0
 13  9  1  0
 15 14  1  6
 15 17  1  0
 16 15  1  0
 17 19  1  0
 17 18  1  6
 19 20  2  0
 19 21  1  0
M  END
$$$$
