AEL.pdb
     RDKit          3D

 23 22  0  0  1  0  0  0  0  0999 V2000
   17.5489  -11.8972  -16.9190 C   0  0  0  0  0  0  0  0  0  0  0  0
   16.6914  -10.7923  -17.5079 C   0  0  2  0  0  0  0  0  0  0  0  0
   16.3940  -11.0306  -18.8882 N   0  0  0  0  0  0  0  0  0  0  0  0
   17.4094   -9.5024  -17.2973 C   0  0  0  0  0  0  0  0  0  0  0  0
   18.4565   -9.2455  -17.9454 O   0  0  0  0  0  0  0  0  0  0  0  0
   16.9644   -8.5137  -16.3761 N   0  0  0  0  0  0  0  0  0  0  0  0
   17.6832   -7.2877  -16.1140 C   0  0  1  0  0  0  0  0  0  0  0  0
   16.7717   -6.1505  -15.7295 C   0  0  0  0  0  0  0  0  0  0  0  0
   16.0382   -5.5594  -16.8897 C   0  0  0  0  0  0  0  0  0  0  0  0
   15.1822   -4.4583  -16.3748 C   0  0  0  0  0  0  0  0  0  0  0  0
   15.3520   -3.2522  -16.7241 O   0  0  0  0  0  0  0  0  0  0  0  0
   18.6519   -7.5625  -15.0213 C   0  0  0  0  0  0  0  0  0  0  0  0
   18.4866   -8.5048  -14.1897 O   0  0  0  0  0  0  0  0  0  0  0  0
   14.1361   -4.6830  -15.4731 O   0  0  0  0  0  0  0  0  0  0  0  0
   24.0417   -8.2893  -15.0406 C   0  0  0  0  0  0  0  0  0  0  0  0
   22.8393   -9.0747  -14.5986 C   0  0  1  0  0  0  0  0  0  0  0  0
   22.8981   -9.1760  -13.0806 C   0  0  0  0  0  0  0  0  0  0  0  0
   21.5781   -8.4773  -15.0787 C   0  0  0  0  0  0  0  0  0  0  0  0
   21.0598   -7.3058  -14.3416 C   0  0  2  0  0  0  0  0  0  0  0  0
   19.8397   -6.7584  -14.8559 N   0  0  0  0  0  0  0  0  0  0  0  0
   22.0690   -6.1818  -14.3354 C   0  0  0  0  0  0  0  0  0  0  0  0
   22.8046   -5.9071  -13.2096 O   0  0  0  0  0  0  0  0  0  0  0  0
   22.2384   -5.4933  -15.3634 O   0  0  0  0  0  0  0  0  0  0  0  0
  2  3  1  0
  2  1  1  6
  4  2  1  0
  4  5  2  0
  6  4  1  0
  7  6  1  0
  7 12  1  0
  7  8  1  1
  9 10  1  0
  9  8  1  0
 10 11  2  0
 12 13  2  0
 12 20  1  0
 14 10  1  0
 16 15  1  1
 16 17  1  0
 18 16  1  0
 19 18  1  6
 20 19  1  0
 21 19  1  0
 21 22  1  0
 23 21  2  0
M  END
$$$$
