AEL.pdb
     RDKit          3D

 23 22  0  0  1  0  0  0  0  0999 V2000
   28.1624  -21.7696  -15.8458 C   0  0  0  0  0  0  0  0  0  0  0  0
   27.3062  -21.1019  -16.9059 C   0  0  2  0  0  0  0  0  0  0  0  0
   28.0910  -20.2929  -17.7892 N   0  0  0  0  0  0  0  0  0  0  0  0
   26.2505  -20.3157  -16.2049 C   0  0  0  0  0  0  0  0  0  0  0  0
   26.5647  -19.3408  -15.4748 O   0  0  0  0  0  0  0  0  0  0  0  0
   24.8641  -20.6142  -16.3177 N   0  0  0  0  0  0  0  0  0  0  0  0
   23.8321  -19.8838  -15.6177 C   0  0  1  0  0  0  0  0  0  0  0  0
   22.6668  -19.5296  -16.5055 C   0  0  0  0  0  0  0  0  0  0  0  0
   21.5716  -18.8089  -15.7881 C   0  0  0  0  0  0  0  0  0  0  0  0
   20.4693  -18.5736  -16.7576 C   0  0  0  0  0  0  0  0  0  0  0  0
   19.3192  -19.0838  -16.6080 O   0  0  0  0  0  0  0  0  0  0  0  0
   23.3768  -20.7297  -14.4841 C   0  0  0  0  0  0  0  0  0  0  0  0
   22.9364  -21.9066  -14.6503 O   0  0  0  0  0  0  0  0  0  0  0  0
   20.6311  -17.7752  -17.8952 O   0  0  0  0  0  0  0  0  0  0  0  0
   25.7311  -20.2995   -9.4324 C   0  0  0  0  0  0  0  0  0  0  0  0
   25.1566  -20.8211  -10.7192 C   0  0  1  0  0  0  0  0  0  0  0  0
   25.6770  -22.2398  -10.9048 C   0  0  0  0  0  0  0  0  0  0  0  0
   23.6825  -20.7507  -10.7385 C   0  0  0  0  0  0  0  0  0  0  0  0
   23.0066  -21.0536  -12.0175 C   0  0  2  0  0  0  0  0  0  0  0  0
   23.4161  -20.2426  -13.1254 N   0  0  0  0  0  0  0  0  0  0  0  0
   21.5106  -20.8880  -11.8903 C   0  0  0  0  0  0  0  0  0  0  0  0
   20.7589  -21.8122  -11.2084 O   0  0  0  0  0  0  0  0  0  0  0  0
   20.9484  -19.9011  -12.4095 O   0  0  0  0  0  0  0  0  0  0  0  0
  2  3  1  0
  2  1  1  1
  4  2  1  0
  4  5  2  0
  6  4  1  0
  7  6  1  0
  7 12  1  0
  7  8  1  6
  9 10  1  0
  9  8  1  0
 10 11  2  0
 12 13  2  0
 12 20  1  0
 14 10  1  0
 16 15  1  1
 16 17  1  0
 18 16  1  0
 19 18  1  1
 20 19  1  0
 21 19  1  0
 21 22  1  0
 23 21  2  0
M  END
$$$$
