AEL.pdb
     RDKit          3D

 23 22  0  0  1  0  0  0  0  0999 V2000
   16.9095  -13.4542  -19.4727 C   0  0  0  0  0  0  0  0  0  0  0  0
   17.3691  -13.4174  -18.0269 C   0  0  2  0  0  0  0  0  0  0  0  0
   16.4117  -14.0225  -17.1507 N   0  0  0  0  0  0  0  0  0  0  0  0
   17.6392  -11.9937  -17.6748 C   0  0  0  0  0  0  0  0  0  0  0  0
   18.5424  -11.3526  -18.2712 O   0  0  0  0  0  0  0  0  0  0  0  0
   16.9112  -11.2962  -16.6712 N   0  0  0  0  0  0  0  0  0  0  0  0
   17.1048   -9.8950  -16.3749 C   0  0  1  0  0  0  0  0  0  0  0  0
   15.9066   -9.2714  -15.7061 C   0  0  0  0  0  0  0  0  0  0  0  0
   16.1274   -7.8512  -15.2968 C   0  0  0  0  0  0  0  0  0  0  0  0
   14.9009   -7.3815  -14.6003 C   0  0  0  0  0  0  0  0  0  0  0  0
   13.7917   -7.2546  -15.1995 O   0  0  0  0  0  0  0  0  0  0  0  0
   18.2990   -9.7847  -15.4976 C   0  0  0  0  0  0  0  0  0  0  0  0
   18.4441  -10.4945  -14.4575 O   0  0  0  0  0  0  0  0  0  0  0  0
   14.8929   -7.0501  -13.2409 O   0  0  0  0  0  0  0  0  0  0  0  0
   22.9340  -10.2508  -13.5784 C   0  0  0  0  0  0  0  0  0  0  0  0
   22.9856   -9.5705  -14.9172 C   0  0  1  0  0  0  0  0  0  0  0  0
   24.1032  -10.2272  -15.7157 C   0  0  0  0  0  0  0  0  0  0  0  0
   21.6862   -9.6184  -15.6153 C   0  0  0  0  0  0  0  0  0  0  0  0
   20.5789   -8.8260  -15.0405 C   0  0  2  0  0  0  0  0  0  0  0  0
   19.3608   -8.8523  -15.7944 N   0  0  0  0  0  0  0  0  0  0  0  0
   20.9696   -7.3735  -14.9014 C   0  0  0  0  0  0  0  0  0  0  0  0
   21.6093   -6.9252  -13.7727 O   0  0  0  0  0  0  0  0  0  0  0  0
   20.7096   -6.5693  -15.8208 O   0  0  0  0  0  0  0  0  0  0  0  0
  2  3  1  0
  2  1  1  6
  4  2  1  0
  4  5  2  0
  6  4  1  0
  7  6  1  0
  7 12  1  0
  7  8  1  1
  9 10  1  0
  9  8  1  0
 10 11  2  0
 12 13  2  0
 12 20  1  0
 14 10  1  0
 16 15  1  1
 16 17  1  0
 18 16  1  0
 19 18  1  6
 20 19  1  0
 21 19  1  0
 21 22  1  0
 23 21  2  0
M  END
$$$$
