AEL.pdb
     RDKit          3D

 23 22  0  0  1  0  0  0  0  0999 V2000
   29.3047  -20.9549  -18.9710 C   0  0  0  0  0  0  0  0  0  0  0  0
   28.8655  -21.6272  -17.6833 C   0  0  2  0  0  0  0  0  0  0  0  0
   28.2506  -22.8965  -17.9309 N   0  0  0  0  0  0  0  0  0  0  0  0
   27.9550  -20.6859  -16.9700 C   0  0  0  0  0  0  0  0  0  0  0  0
   28.3555  -19.5382  -16.6462 O   0  0  0  0  0  0  0  0  0  0  0  0
   26.6167  -21.0215  -16.6234 N   0  0  0  0  0  0  0  0  0  0  0  0
   25.7089  -20.1058  -15.9707 C   0  0  1  0  0  0  0  0  0  0  0  0
   24.6784  -19.5386  -16.9130 C   0  0  0  0  0  0  0  0  0  0  0  0
   25.2726  -18.8791  -18.1152 C   0  0  0  0  0  0  0  0  0  0  0  0
   24.1555  -18.3945  -18.9682 C   0  0  0  0  0  0  0  0  0  0  0  0
   22.9409  -18.5675  -18.6514 O   0  0  0  0  0  0  0  0  0  0  0  0
   25.0445  -20.8462  -14.8669 C   0  0  0  0  0  0  0  0  0  0  0  0
   24.7511  -22.0761  -14.9556 O   0  0  0  0  0  0  0  0  0  0  0  0
   24.3735  -17.7178  -20.1733 O   0  0  0  0  0  0  0  0  0  0  0  0
   26.3288  -20.0581   -9.4228 C   0  0  0  0  0  0  0  0  0  0  0  0
   26.0048  -20.6890  -10.7476 C   0  0  1  0  0  0  0  0  0  0  0  0
   26.2659  -22.1829  -10.6132 C   0  0  0  0  0  0  0  0  0  0  0  0
   24.6265  -20.3910  -11.1828 C   0  0  0  0  0  0  0  0  0  0  0  0
   24.2028  -20.9162  -12.4978 C   0  0  2  0  0  0  0  0  0  0  0  0
   24.6990  -20.1893  -13.6283 N   0  0  0  0  0  0  0  0  0  0  0  0
   22.6969  -20.9245  -12.6164 C   0  0  0  0  0  0  0  0  0  0  0  0
   21.9544  -21.9246  -12.0397 O   0  0  0  0  0  0  0  0  0  0  0  0
   22.1182  -20.0137  -13.2448 O   0  0  0  0  0  0  0  0  0  0  0  0
  2  3  1  0
  2  1  1  6
  4  2  1  0
  4  5  2  0
  6  4  1  0
  7  6  1  0
  7 12  1  0
  7  8  1  6
  9 10  1  0
  9  8  1  0
 10 11  2  0
 12 13  2  0
 12 20  1  0
 14 10  1  0
 16 15  1  1
 16 17  1  0
 18 16  1  0
 19 18  1  1
 20 19  1  0
 21 19  1  0
 21 22  1  0
 23 21  2  0
M  END
$$$$
