AEL.pdb
     RDKit          3D

 23 22  0  0  1  0  0  0  0  0999 V2000
   17.9400  -13.0174  -16.4650 C   0  0  0  0  0  0  0  0  0  0  0  0
   17.0590  -11.8146  -16.1824 C   0  0  2  0  0  0  0  0  0  0  0  0
   15.8638  -11.8359  -16.9708 N   0  0  0  0  0  0  0  0  0  0  0  0
   17.8753  -10.5901  -16.4236 C   0  0  0  0  0  0  0  0  0  0  0  0
   18.9493  -10.6612  -17.0746 O   0  0  0  0  0  0  0  0  0  0  0  0
   17.4975   -9.3048  -15.9447 N   0  0  0  0  0  0  0  0  0  0  0  0
   18.2073   -8.0904  -16.2764 C   0  0  1  0  0  0  0  0  0  0  0  0
   17.2878   -6.9090  -16.4505 C   0  0  0  0  0  0  0  0  0  0  0  0
   18.0053   -5.6439  -16.7941 C   0  0  0  0  0  0  0  0  0  0  0  0
   16.9933   -4.5599  -16.8993 C   0  0  0  0  0  0  0  0  0  0  0  0
   15.7569   -4.7718  -16.7207 O   0  0  0  0  0  0  0  0  0  0  0  0
   19.1798   -7.8288  -15.1839 C   0  0  0  0  0  0  0  0  0  0  0  0
   18.9011   -8.0336  -13.9644 O   0  0  0  0  0  0  0  0  0  0  0  0
   17.3407   -3.2387  -17.2018 O   0  0  0  0  0  0  0  0  0  0  0  0
   23.7981  -10.2400  -14.6676 C   0  0  0  0  0  0  0  0  0  0  0  0
   22.5446   -9.4745  -14.3498 C   0  0  1  0  0  0  0  0  0  0  0  0
   22.1894   -9.7703  -12.8992 C   0  0  0  0  0  0  0  0  0  0  0  0
   22.6935   -8.0302  -14.6140 C   0  0  0  0  0  0  0  0  0  0  0  0
   21.4947   -7.1830  -14.4420 C   0  0  2  0  0  0  0  0  0  0  0  0
   20.5025   -7.3231  -15.4661 N   0  0  0  0  0  0  0  0  0  0  0  0
   21.8687   -5.7201  -14.3998 C   0  0  0  0  0  0  0  0  0  0  0  0
   22.5023   -5.1904  -13.3034 O   0  0  0  0  0  0  0  0  0  0  0  0
   21.6002   -4.9820  -15.3707 O   0  0  0  0  0  0  0  0  0  0  0  0
  2  3  1  0
  2  1  1  6
  4  2  1  0
  4  5  2  0
  6  4  1  0
  7  6  1  0
  7 12  1  0
  7  8  1  1
  9 10  1  0
  9  8  1  0
 10 11  2  0
 12 13  2  0
 12 20  1  0
 14 10  1  0
 16 15  1  1
 16 17  1  0
 18 16  1  0
 19 18  1  6
 20 19  1  0
 21 19  1  0
 21 22  1  0
 23 21  2  0
M  END
$$$$
