AEL.pdb
     RDKit          3D

 23 22  0  0  1  0  0  0  0  0999 V2000
   17.7618   -8.6689  -20.3013 C   0  0  0  0  0  0  0  0  0  0  0  0
   18.4507   -7.3204  -20.4003 C   0  0  2  0  0  0  0  0  0  0  0  0
   19.7373   -7.4265  -21.0199 N   0  0  0  0  0  0  0  0  0  0  0  0
   18.5296   -6.7513  -19.0241 C   0  0  0  0  0  0  0  0  0  0  0  0
   17.4834   -6.5804  -18.3469 O   0  0  0  0  0  0  0  0  0  0  0  0
   19.7592   -6.3785  -18.4133 N   0  0  0  0  0  0  0  0  0  0  0  0
   19.8514   -5.8202  -17.0835 C   0  0  1  0  0  0  0  0  0  0  0  0
   20.7312   -6.6353  -16.1707 C   0  0  0  0  0  0  0  0  0  0  0  0
   20.8597   -6.0575  -14.7984 C   0  0  0  0  0  0  0  0  0  0  0  0
   21.7299   -6.9626  -14.0023 C   0  0  0  0  0  0  0  0  0  0  0  0
   22.3135   -7.9624  -14.5175 O   0  0  0  0  0  0  0  0  0  0  0  0
   20.3851   -4.4396  -17.2145 C   0  0  0  0  0  0  0  0  0  0  0  0
   21.3333   -4.1514  -18.0047 O   0  0  0  0  0  0  0  0  0  0  0  0
   21.9597   -6.7687  -12.6358 O   0  0  0  0  0  0  0  0  0  0  0  0
   17.3446    0.2878  -16.8762 C   0  0  0  0  0  0  0  0  0  0  0  0
   18.3591   -0.7370  -17.2986 C   0  0  1  0  0  0  0  0  0  0  0  0
   18.9314   -0.2832  -18.6345 C   0  0  0  0  0  0  0  0  0  0  0  0
   19.4023   -0.9411  -16.2748 C   0  0  0  0  0  0  0  0  0  0  0  0
   20.3790   -2.0253  -16.5096 C   0  0  2  0  0  0  0  0  0  0  0  0
   19.8405   -3.3510  -16.4378 N   0  0  0  0  0  0  0  0  0  0  0  0
   21.5073   -1.9623  -15.5073 C   0  0  0  0  0  0  0  0  0  0  0  0
   21.7563   -3.0175  -14.6655 O   0  0  0  0  0  0  0  0  0  0  0  0
   22.2230   -0.9410  -15.4409 O   0  0  0  0  0  0  0  0  0  0  0  0
  2  3  1  0
  2  1  1  1
  4  2  1  0
  4  5  2  0
  6  4  1  0
  7  6  1  0
  7 12  1  0
  7  8  1  1
  9 10  1  0
  9  8  1  0
 10 11  2  0
 12 13  2  0
 12 20  1  0
 14 10  1  0
 16 15  1  1
 16 17  1  0
 18 16  1  0
 19 18  1  1
 20 19  1  0
 21 19  1  0
 21 22  1  0
 23 21  2  0
M  END
$$$$
