AEL.pdb
     RDKit          3D

 23 22  0  0  1  0  0  0  0  0999 V2000
   13.7493  -12.0387  -14.4126 C   0  0  0  0  0  0  0  0  0  0  0  0
   15.2592  -12.1884  -14.4379 C   0  0  2  0  0  0  0  0  0  0  0  0
   15.6596  -13.5525  -14.2664 N   0  0  0  0  0  0  0  0  0  0  0  0
   15.8194  -11.2963  -13.3824 C   0  0  0  0  0  0  0  0  0  0  0  0
   15.7404  -11.6205  -12.1696 O   0  0  0  0  0  0  0  0  0  0  0  0
   16.4587  -10.0601  -13.6773 N   0  0  0  0  0  0  0  0  0  0  0  0
   17.1273   -9.2516  -12.6834 C   0  0  1  0  0  0  0  0  0  0  0  0
   18.1568   -8.3279  -13.2823 C   0  0  0  0  0  0  0  0  0  0  0  0
   19.3359   -9.0451  -13.8555 C   0  0  0  0  0  0  0  0  0  0  0  0
   20.2155   -8.0343  -14.4996 C   0  0  0  0  0  0  0  0  0  0  0  0
   21.1284   -7.4301  -13.8615 O   0  0  0  0  0  0  0  0  0  0  0  0
   16.0856   -8.4678  -11.9705 C   0  0  0  0  0  0  0  0  0  0  0  0
   15.1013   -7.9429  -12.5725 O   0  0  0  0  0  0  0  0  0  0  0  0
   20.0917   -7.6861  -15.8491 O   0  0  0  0  0  0  0  0  0  0  0  0
   12.2511   -8.5297   -7.5608 C   0  0  0  0  0  0  0  0  0  0  0  0
   13.2401   -7.5920   -8.1939 C   0  0  1  0  0  0  0  0  0  0  0  0
   13.8037   -6.7132   -7.0857 C   0  0  0  0  0  0  0  0  0  0  0  0
   14.2923   -8.3128   -8.9366 C   0  0  0  0  0  0  0  0  0  0  0  0
   15.1516   -7.5165   -9.8377 C   0  0  2  0  0  0  0  0  0  0  0  0
   16.1488   -8.2664  -10.5421 N   0  0  0  0  0  0  0  0  0  0  0  0
   15.8820   -6.4374   -9.0735 C   0  0  0  0  0  0  0  0  0  0  0  0
   17.0822   -6.7020   -8.4622 O   0  0  0  0  0  0  0  0  0  0  0  0
   15.3917   -5.2916   -8.9950 O   0  0  0  0  0  0  0  0  0  0  0  0
  2  3  1  0
  2  1  1  1
  4  2  1  0
  4  5  2  0
  6  4  1  0
  7  6  1  0
  7 12  1  0
  7  8  1  6
  9 10  1  0
  9  8  1  0
 10 11  2  0
 12 13  2  0
 12 20  1  0
 14 10  1  0
 16 15  1  1
 16 17  1  0
 18 16  1  0
 19 18  1  1
 20 19  1  0
 21 19  1  0
 21 22  1  0
 23 21  2  0
M  END
$$$$
