AEL.pdb
     RDKit          3D

 23 22  0  0  1  0  0  0  0  0999 V2000
   28.7650  -20.8843  -17.7544 C   0  0  0  0  0  0  0  0  0  0  0  0
   28.1842  -21.7127  -16.6233 C   0  0  2  0  0  0  0  0  0  0  0  0
   27.5921  -22.9247  -17.1038 N   0  0  0  0  0  0  0  0  0  0  0  0
   27.2073  -20.8560  -15.8914 C   0  0  0  0  0  0  0  0  0  0  0  0
   27.5586  -19.7353  -15.4409 O   0  0  0  0  0  0  0  0  0  0  0  0
   25.8577  -21.2453  -15.6660 N   0  0  0  0  0  0  0  0  0  0  0  0
   24.8767  -20.3918  -15.0355 C   0  0  1  0  0  0  0  0  0  0  0  0
   23.6993  -20.1002  -15.9302 C   0  0  0  0  0  0  0  0  0  0  0  0
   23.9784  -19.0487  -16.9548 C   0  0  0  0  0  0  0  0  0  0  0  0
   22.7292  -18.8232  -17.7286 C   0  0  0  0  0  0  0  0  0  0  0  0
   22.5205  -19.3770  -18.8490 O   0  0  0  0  0  0  0  0  0  0  0  0
   24.4238  -21.0723  -13.7947 C   0  0  0  0  0  0  0  0  0  0  0  0
   24.0550  -22.2850  -13.7824 O   0  0  0  0  0  0  0  0  0  0  0  0
   21.7058  -17.9864  -17.2701 O   0  0  0  0  0  0  0  0  0  0  0  0
   26.2595  -19.6583   -8.6560 C   0  0  0  0  0  0  0  0  0  0  0  0
   25.8554  -20.3876   -9.9061 C   0  0  1  0  0  0  0  0  0  0  0  0
   26.4743  -21.7770   -9.8394 C   0  0  0  0  0  0  0  0  0  0  0  0
   24.3900  -20.4272  -10.0773 C   0  0  0  0  0  0  0  0  0  0  0  0
   23.8708  -20.9875  -11.3426 C   0  0  2  0  0  0  0  0  0  0  0  0
   24.3830  -20.3739  -12.5316 N   0  0  0  0  0  0  0  0  0  0  0  0
   22.3663  -20.8687  -11.4087 C   0  0  0  0  0  0  0  0  0  0  0  0
   21.5637  -21.7414  -10.7171 O   0  0  0  0  0  0  0  0  0  0  0  0
   21.8439  -19.9684  -12.0986 O   0  0  0  0  0  0  0  0  0  0  0  0
  2  3  1  0
  2  1  1  6
  4  2  1  0
  4  5  2  0
  6  4  1  0
  7  6  1  0
  7 12  1  0
  7  8  1  6
  9 10  1  0
  9  8  1  0
 10 11  2  0
 12 13  2  0
 12 20  1  0
 14 10  1  0
 16 15  1  1
 16 17  1  0
 18 16  1  0
 19 18  1  1
 20 19  1  0
 21 19  1  0
 21 22  1  0
 23 21  2  0
M  END
$$$$
