AEL.pdb
     RDKit          3D

 23 22  0  0  1  0  0  0  0  0999 V2000
   18.2702  -21.4104  -15.0794 C   0  0  0  0  0  0  0  0  0  0  0  0
   19.4527  -20.4594  -15.0924 C   0  0  2  0  0  0  0  0  0  0  0  0
   19.7820  -20.0411  -16.4218 N   0  0  0  0  0  0  0  0  0  0  0  0
   20.5912  -21.1448  -14.4156 C   0  0  0  0  0  0  0  0  0  0  0  0
   20.4941  -21.4991  -13.2125 O   0  0  0  0  0  0  0  0  0  0  0  0
   21.8201  -21.4303  -15.0729 N   0  0  0  0  0  0  0  0  0  0  0  0
   22.8827  -22.2057  -14.4743 C   0  0  1  0  0  0  0  0  0  0  0  0
   23.7314  -22.9158  -15.4977 C   0  0  0  0  0  0  0  0  0  0  0  0
   24.8654  -23.6832  -14.8990 C   0  0  0  0  0  0  0  0  0  0  0  0
   25.6666  -24.2559  -16.0127 C   0  0  0  0  0  0  0  0  0  0  0  0
   25.4347  -23.9723  -17.2257 O   0  0  0  0  0  0  0  0  0  0  0  0
   23.7169  -21.2750  -13.6707 C   0  0  0  0  0  0  0  0  0  0  0  0
   23.8755  -20.0587  -13.9903 O   0  0  0  0  0  0  0  0  0  0  0  0
   26.7260  -25.1432  -15.7931 O   0  0  0  0  0  0  0  0  0  0  0  0
   25.5496  -19.0301   -9.1092 C   0  0  0  0  0  0  0  0  0  0  0  0
   26.1445  -20.3826   -9.3828 C   0  0  1  0  0  0  0  0  0  0  0  0
   26.4263  -21.0339   -8.0358 C   0  0  0  0  0  0  0  0  0  0  0  0
   25.2739  -21.2092  -10.2413 C   0  0  0  0  0  0  0  0  0  0  0  0
   25.1670  -20.8272  -11.6651 C   0  0  2  0  0  0  0  0  0  0  0  0
   24.3926  -21.7201  -12.4748 N   0  0  0  0  0  0  0  0  0  0  0  0
   26.5327  -20.7384  -12.3045 C   0  0  0  0  0  0  0  0  0  0  0  0
   27.2196  -19.5502  -12.3274 O   0  0  0  0  0  0  0  0  0  0  0  0
   27.0453  -21.7546  -12.8185 O   0  0  0  0  0  0  0  0  0  0  0  0
  2  3  1  0
  2  1  1  6
  4  2  1  0
  4  5  2  0
  6  4  1  0
  7  6  1  0
  7 12  1  0
  7  8  1  6
  9 10  1  0
  9  8  1  0
 10 11  2  0
 12 13  2  0
 12 20  1  0
 14 10  1  0
 16 15  1  1
 16 17  1  0
 18 16  1  0
 19 18  1  1
 20 19  1  0
 21 19  1  0
 21 22  1  0
 23 21  2  0
M  END
$$$$
