HFD.pdb
     RDKit          3D

 30 31  0  0  1  0  0  0  0  0999 V2000
    8.8404  -17.8810   20.7837 N   0  0  0  0  0  0  0  0  0  0  0  0
   10.0382  -17.0738   20.8246 C   0  0  1  0  0  0  0  0  0  0  0  0
   10.2670  -16.3717   19.5189 C   0  0  0  0  0  0  0  0  0  0  0  0
   10.2978  -17.3617   18.4050 C   0  0  0  0  0  0  0  0  0  0  0  0
   10.2245  -18.7452   18.5689 C   0  0  0  0  0  0  0  0  0  0  0  0
   10.2825  -19.3301   17.3625 N   0  0  0  0  0  0  0  0  0  0  0  0
   10.3899  -18.3418   16.4562 C   0  0  0  0  0  0  0  0  0  0  0  0
   10.3996  -17.1511   17.0815 N   0  0  0  0  0  0  0  0  0  0  0  0
    9.9893  -16.0467   21.9147 C   0  0  0  0  0  0  0  0  0  0  0  0
   10.9741  -15.2762   21.9975 O   0  0  0  0  0  0  0  0  0  0  0  0
    8.8781  -15.9669   22.7972 N   0  0  0  0  0  0  0  0  0  0  0  0
    8.8267  -14.9945   23.8639 C   0  0  1  0  0  0  0  0  0  0  0  0
    7.4911  -14.3357   23.8504 C   0  0  0  0  0  0  0  0  0  0  0  0
    7.2571  -13.3248   24.8668 C   0  0  0  0  0  0  0  0  0  0  0  0
    7.9117  -12.1262   24.9667 C   0  0  0  0  0  0  0  0  0  0  0  0
    7.6420  -11.2248   25.9629 C   0  0  0  0  0  0  0  0  0  0  0  0
    6.6783  -11.5180   26.9099 C   0  0  0  0  0  0  0  0  0  0  0  0
    6.0092  -12.7134   26.8300 C   0  0  0  0  0  0  0  0  0  0  0  0
    6.2915  -13.5992   25.8301 C   0  0  0  0  0  0  0  0  0  0  0  0
    9.1130  -15.6847   25.1506 C   0  0  0  0  0  0  0  0  0  0  0  0
    9.2473  -15.0213   26.2072 O   0  0  0  0  0  0  0  0  0  0  0  0
    9.2448  -17.0968   25.2370 N   0  0  0  0  0  0  0  0  0  0  0  0
    9.5208  -17.8389   26.4467 C   0  0  1  0  0  0  0  0  0  0  0  0
    9.0534  -19.2758   26.3655 C   0  0  0  0  0  0  0  0  0  0  0  0
    7.7341  -19.4116   25.7505 C   0  0  0  0  0  0  0  0  0  0  0  0
    6.7058  -19.1786   26.4274 O   0  0  0  0  0  0  0  0  0  0  0  0
   10.9364  -17.7546   26.8478 C   0  0  0  0  0  0  0  0  0  0  0  0
   11.3572  -18.3235   28.0227 O   0  0  0  0  0  0  0  0  0  0  0  0
    7.5719  -19.7919   24.4303 O   0  0  0  0  0  0  0  0  0  0  0  0
   11.7534  -17.1636   26.1159 O   0  0  0  0  0  0  0  0  0  0  0  0
  2  1  1  6
  3  4  1  0
  3  2  1  0
  4  8  1  0
  5  4  2  0
  5  6  1  0
  6  7  1  0
  8  7  2  0
  9  2  1  0
 10  9  2  0
 11  9  1  0
 12 11  1  0
 12 13  1  1
 13 14  1  0
 14 15  2  0
 15 16  1  0
 17 16  2  0
 18 17  1  0
 19 14  1  0
 19 18  2  0
 20 12  1  0
 21 20  2  0
 22 20  1  0
 23 27  1  0
 23 22  1  0
 23 24  1  6
 25 29  1  0
 25 24  1  0
 26 25  2  0
 27 28  1  0
 30 27  2  0
M  END
$$$$
