HFD.pdb
     RDKit          3D

 30 31  0  0  1  0  0  0  0  0999 V2000
   10.2022  -16.4521   19.3117 N   0  0  0  0  0  0  0  0  0  0  0  0
    9.1984  -16.8286   20.2804 C   0  0  1  0  0  0  0  0  0  0  0  0
    9.1935  -18.3106   20.5121 C   0  0  0  0  0  0  0  0  0  0  0  0
    8.8435  -19.0238   19.2509 C   0  0  0  0  0  0  0  0  0  0  0  0
    7.5427  -19.2506   18.8006 C   0  0  0  0  0  0  0  0  0  0  0  0
    7.5948  -19.9197   17.6385 N   0  0  0  0  0  0  0  0  0  0  0  0
    8.8965  -20.1123   17.3589 C   0  0  0  0  0  0  0  0  0  0  0  0
    9.6544  -19.5727   18.3302 N   0  0  0  0  0  0  0  0  0  0  0  0
    9.3995  -16.1420   21.5972 C   0  0  0  0  0  0  0  0  0  0  0  0
   10.5663  -16.1466   22.0543 O   0  0  0  0  0  0  0  0  0  0  0  0
    8.3135  -15.5257   22.2757 N   0  0  0  0  0  0  0  0  0  0  0  0
    8.4949  -14.8533   23.5411 C   0  0  1  0  0  0  0  0  0  0  0  0
    7.2765  -14.0500   23.8380 C   0  0  0  0  0  0  0  0  0  0  0  0
    7.2093  -13.4372   25.1533 C   0  0  0  0  0  0  0  0  0  0  0  0
    6.4010  -13.8411   26.1822 C   0  0  0  0  0  0  0  0  0  0  0  0
    6.3859  -13.2044   27.3955 C   0  0  0  0  0  0  0  0  0  0  0  0
    7.2087  -12.1138   27.6073 C   0  0  0  0  0  0  0  0  0  0  0  0
    8.0275  -11.6909   26.5906 C   0  0  0  0  0  0  0  0  0  0  0  0
    8.0289  -12.3379   25.3883 C   0  0  0  0  0  0  0  0  0  0  0  0
    8.7775  -15.8745   24.5858 C   0  0  0  0  0  0  0  0  0  0  0  0
    7.9473  -16.7860   24.8192 O   0  0  0  0  0  0  0  0  0  0  0  0
    9.9752  -15.8615   25.3500 N   0  0  0  0  0  0  0  0  0  0  0  0
   10.3213  -16.8159   26.3795 C   0  0  1  0  0  0  0  0  0  0  0  0
   11.7429  -17.3181   26.2511 C   0  0  0  0  0  0  0  0  0  0  0  0
   11.9001  -18.3193   25.1974 C   0  0  0  0  0  0  0  0  0  0  0  0
   10.8906  -18.7481   24.5919 O   0  0  0  0  0  0  0  0  0  0  0  0
   10.0509  -16.3041   27.7349 C   0  0  0  0  0  0  0  0  0  0  0  0
    9.9297  -17.1717   28.7901 O   0  0  0  0  0  0  0  0  0  0  0  0
   13.1379  -18.8198   24.8352 O   0  0  0  0  0  0  0  0  0  0  0  0
    9.9319  -15.0780   27.9216 O   0  0  0  0  0  0  0  0  0  0  0  0
  2  1  1  6
  3  4  1  0
  3  2  1  0
  4  8  1  0
  5  4  2  0
  5  6  1  0
  6  7  1  0
  8  7  2  0
  9  2  1  0
 10  9  2  0
 11  9  1  0
 12 11  1  0
 12 13  1  1
 13 14  1  0
 14 15  2  0
 15 16  1  0
 17 16  2  0
 18 17  1  0
 19 14  1  0
 19 18  2  0
 20 12  1  0
 21 20  2  0
 22 20  1  0
 23 27  1  0
 23 22  1  0
 23 24  1  1
 25 29  1  0
 25 24  1  0
 26 25  2  0
 27 28  1  0
 30 27  2  0
M  END
$$$$
