HFD.pdb
     RDKit          3D

 30 31  0  0  1  0  0  0  0  0999 V2000
   10.9755  -15.6033   19.8843 N   0  0  0  0  0  0  0  0  0  0  0  0
    9.6444  -15.3765   20.3985 C   0  0  1  0  0  0  0  0  0  0  0  0
    8.7357  -16.5283   20.0855 C   0  0  0  0  0  0  0  0  0  0  0  0
    8.1788  -16.3807   18.7108 C   0  0  0  0  0  0  0  0  0  0  0  0
    8.5170  -15.3604   17.8214 C   0  0  0  0  0  0  0  0  0  0  0  0
    7.8300  -15.5312   16.6813 N   0  0  0  0  0  0  0  0  0  0  0  0
    7.0749  -16.6326   16.8439 C   0  0  0  0  0  0  0  0  0  0  0  0
    7.2824  -17.1490   18.0683 N   0  0  0  0  0  0  0  0  0  0  0  0
    9.6419  -15.1581   21.8811 C   0  0  0  0  0  0  0  0  0  0  0  0
   10.7241  -15.3701   22.4763 O   0  0  0  0  0  0  0  0  0  0  0  0
    8.4660  -14.7344   22.5574 N   0  0  0  0  0  0  0  0  0  0  0  0
    8.5135  -14.2099   23.9024 C   0  0  1  0  0  0  0  0  0  0  0  0
    7.3082  -13.3660   24.1325 C   0  0  0  0  0  0  0  0  0  0  0  0
    7.1384  -12.8307   25.4721 C   0  0  0  0  0  0  0  0  0  0  0  0
    8.0052  -11.9837   26.1095 C   0  0  0  0  0  0  0  0  0  0  0  0
    7.7812  -11.5274   27.3821 C   0  0  0  0  0  0  0  0  0  0  0  0
    6.6454  -11.9253   28.0626 C   0  0  0  0  0  0  0  0  0  0  0  0
    5.7622  -12.7739   27.4439 C   0  0  0  0  0  0  0  0  0  0  0  0
    6.0023  -13.2182   26.1754 C   0  0  0  0  0  0  0  0  0  0  0  0
    8.6058  -15.3500   24.8541 C   0  0  0  0  0  0  0  0  0  0  0  0
    8.6635  -15.1385   26.0896 O   0  0  0  0  0  0  0  0  0  0  0  0
    8.6329  -16.7007   24.4140 N   0  0  0  0  0  0  0  0  0  0  0  0
    8.6823  -17.8607   25.2758 C   0  0  1  0  0  0  0  0  0  0  0  0
    8.3394  -19.1410   24.5458 C   0  0  0  0  0  0  0  0  0  0  0  0
    7.3718  -19.9661   25.2671 C   0  0  0  0  0  0  0  0  0  0  0  0
    6.5361  -20.6463   24.6277 O   0  0  0  0  0  0  0  0  0  0  0  0
    9.9655  -17.9755   25.9915 C   0  0  0  0  0  0  0  0  0  0  0  0
   11.1496  -17.8191   25.3175 O   0  0  0  0  0  0  0  0  0  0  0  0
    7.3412  -20.0284   26.6487 O   0  0  0  0  0  0  0  0  0  0  0  0
    9.9733  -18.2159   27.2141 O   0  0  0  0  0  0  0  0  0  0  0  0
  2  1  1  1
  3  4  1  0
  3  2  1  0
  4  8  1  0
  5  4  2  0
  5  6  1  0
  6  7  1  0
  8  7  2  0
  9  2  1  0
 10  9  2  0
 11  9  1  0
 12 11  1  0
 12 13  1  1
 13 14  1  0
 14 15  2  0
 15 16  1  0
 17 16  2  0
 18 17  1  0
 19 14  1  0
 19 18  2  0
 20 12  1  0
 21 20  2  0
 22 20  1  0
 23 27  1  0
 23 22  1  0
 23 24  1  6
 25 29  1  0
 25 24  1  0
 26 25  2  0
 27 28  1  0
 30 27  2  0
M  END
$$$$
