HFD.pdb
     RDKit          3D

 30 31  0  0  1  0  0  0  0  0999 V2000
   10.3968  -16.3798   19.1818 N   0  0  0  0  0  0  0  0  0  0  0  0
    9.3527  -16.7115   20.1239 C   0  0  1  0  0  0  0  0  0  0  0  0
    9.3200  -18.1847   20.4048 C   0  0  0  0  0  0  0  0  0  0  0  0
    8.8719  -18.9263   19.1919 C   0  0  0  0  0  0  0  0  0  0  0  0
    7.8045  -18.5471   18.3775 C   0  0  0  0  0  0  0  0  0  0  0  0
    7.6788  -19.4379   17.3817 N   0  0  0  0  0  0  0  0  0  0  0  0
    8.6428  -20.3591   17.5604 C   0  0  0  0  0  0  0  0  0  0  0  0
    9.3659  -20.0540   18.6527 N   0  0  0  0  0  0  0  0  0  0  0  0
    9.5132  -15.9831   21.4236 C   0  0  0  0  0  0  0  0  0  0  0  0
   10.6807  -15.8924   21.8698 O   0  0  0  0  0  0  0  0  0  0  0  0
    8.3903  -15.4326   22.0987 N   0  0  0  0  0  0  0  0  0  0  0  0
    8.5253  -14.7637   23.3717 C   0  0  1  0  0  0  0  0  0  0  0  0
    7.3470  -13.8760   23.5761 C   0  0  0  0  0  0  0  0  0  0  0  0
    7.2341  -13.2386   24.8764 C   0  0  0  0  0  0  0  0  0  0  0  0
    7.9844  -12.1804   25.3150 C   0  0  0  0  0  0  0  0  0  0  0  0
    7.8265  -11.6375   26.5632 C   0  0  0  0  0  0  0  0  0  0  0  0
    6.8813  -12.1632   27.4245 C   0  0  0  0  0  0  0  0  0  0  0  0
    6.1176  -13.2240   27.0068 C   0  0  0  0  0  0  0  0  0  0  0  0
    6.2892  -13.7517   25.7593 C   0  0  0  0  0  0  0  0  0  0  0  0
    8.6598  -15.7931   24.4377 C   0  0  0  0  0  0  0  0  0  0  0  0
    7.8342  -16.7349   24.5143 O   0  0  0  0  0  0  0  0  0  0  0  0
    9.7075  -15.7546   25.3967 N   0  0  0  0  0  0  0  0  0  0  0  0
    9.9061  -16.7161   26.4581 C   0  0  1  0  0  0  0  0  0  0  0  0
   11.2234  -17.4506   26.3369 C   0  0  0  0  0  0  0  0  0  0  0  0
   11.5247  -17.8570   24.9653 C   0  0  0  0  0  0  0  0  0  0  0  0
   10.7307  -18.6061   24.3503 O   0  0  0  0  0  0  0  0  0  0  0  0
    9.7431  -16.1191   27.7957 C   0  0  0  0  0  0  0  0  0  0  0  0
    9.7730  -16.9113   28.9148 O   0  0  0  0  0  0  0  0  0  0  0  0
   12.6685  -17.4408   24.3076 O   0  0  0  0  0  0  0  0  0  0  0  0
    9.5773  -14.8894   27.9090 O   0  0  0  0  0  0  0  0  0  0  0  0
  2  1  1  6
  3  4  1  0
  3  2  1  0
  4  8  1  0
  5  4  2  0
  5  6  1  0
  6  7  1  0
  8  7  2  0
  9  2  1  0
 10  9  2  0
 11  9  1  0
 12 11  1  0
 12 13  1  1
 13 14  1  0
 14 15  2  0
 15 16  1  0
 17 16  2  0
 18 17  1  0
 19 14  1  0
 19 18  2  0
 20 12  1  0
 21 20  2  0
 22 20  1  0
 23 27  1  0
 23 22  1  0
 23 24  1  1
 25 29  1  0
 25 24  1  0
 26 25  2  0
 27 28  1  0
 30 27  2  0
M  END
$$$$
