HFD.pdb
     RDKit          3D

 30 31  0  0  1  0  0  0  0  0999 V2000
    8.7023  -17.4148   19.6821 N   0  0  0  0  0  0  0  0  0  0  0  0
    9.9774  -16.7976   19.9669 C   0  0  1  0  0  0  0  0  0  0  0  0
   10.4775  -16.0124   18.7906 C   0  0  0  0  0  0  0  0  0  0  0  0
   10.2351  -16.7701   17.5302 C   0  0  0  0  0  0  0  0  0  0  0  0
   10.1510  -18.1599   17.4418 C   0  0  0  0  0  0  0  0  0  0  0  0
    9.9293  -18.5022   16.1633 N   0  0  0  0  0  0  0  0  0  0  0  0
    9.8743  -17.3577   15.4585 C   0  0  0  0  0  0  0  0  0  0  0  0
   10.0584  -16.3089   16.2801 N   0  0  0  0  0  0  0  0  0  0  0  0
    9.9100  -15.8853   21.1538 C   0  0  0  0  0  0  0  0  0  0  0  0
   10.9665  -15.2804   21.4510 O   0  0  0  0  0  0  0  0  0  0  0  0
    8.7046  -15.7284   21.8900 N   0  0  0  0  0  0  0  0  0  0  0  0
    8.6922  -15.1265   23.2030 C   0  0  1  0  0  0  0  0  0  0  0  0
    7.4142  -14.3824   23.3790 C   0  0  0  0  0  0  0  0  0  0  0  0
    7.1995  -13.7611   24.6743 C   0  0  0  0  0  0  0  0  0  0  0  0
    6.4365  -14.2737   25.6893 C   0  0  0  0  0  0  0  0  0  0  0  0
    6.2725  -13.6223   26.8837 C   0  0  0  0  0  0  0  0  0  0  0  0
    6.8914  -12.4034   27.0900 C   0  0  0  0  0  0  0  0  0  0  0  0
    7.6611  -11.8700   26.0869 C   0  0  0  0  0  0  0  0  0  0  0  0
    7.8129  -12.5336   24.9035 C   0  0  0  0  0  0  0  0  0  0  0  0
    8.8767  -16.1980   24.2188 C   0  0  0  0  0  0  0  0  0  0  0  0
    8.1572  -17.2256   24.1911 O   0  0  0  0  0  0  0  0  0  0  0  0
    9.8556  -16.1055   25.2446 N   0  0  0  0  0  0  0  0  0  0  0  0
   10.1476  -17.1342   26.2177 C   0  0  1  0  0  0  0  0  0  0  0  0
   11.6056  -17.5389   26.2147 C   0  0  0  0  0  0  0  0  0  0  0  0
   11.9122  -18.5709   27.2038 C   0  0  0  0  0  0  0  0  0  0  0  0
   11.1958  -19.5963   27.2746 O   0  0  0  0  0  0  0  0  0  0  0  0
    9.6912  -16.7735   27.5718 C   0  0  0  0  0  0  0  0  0  0  0  0
   10.1573  -15.6350   28.1781 O   0  0  0  0  0  0  0  0  0  0  0  0
   12.9785  -18.4602   28.0782 O   0  0  0  0  0  0  0  0  0  0  0  0
    8.8787  -17.5067   28.1673 O   0  0  0  0  0  0  0  0  0  0  0  0
  2  1  1  6
  3  4  1  0
  3  2  1  0
  4  8  1  0
  5  4  2  0
  5  6  1  0
  6  7  1  0
  8  7  2  0
  9  2  1  0
 10  9  2  0
 11  9  1  0
 12 11  1  0
 12 13  1  1
 13 14  1  0
 14 15  2  0
 15 16  1  0
 17 16  2  0
 18 17  1  0
 19 14  1  0
 19 18  2  0
 20 12  1  0
 21 20  2  0
 22 20  1  0
 23 27  1  0
 23 22  1  0
 23 24  1  1
 25 29  1  0
 25 24  1  0
 26 25  2  0
 27 28  1  0
 30 27  2  0
M  END
$$$$
