HFD.pdb
     RDKit          3D

 30 31  0  0  1  0  0  0  0  0999 V2000
    9.7901  -16.9279   19.1374 N   0  0  0  0  0  0  0  0  0  0  0  0
    8.9094  -17.2294   20.2425 C   0  0  1  0  0  0  0  0  0  0  0  0
    9.0184  -18.6692   20.6491 C   0  0  0  0  0  0  0  0  0  0  0  0
    8.3265  -19.5352   19.6526 C   0  0  0  0  0  0  0  0  0  0  0  0
    8.5551  -19.5029   18.2767 C   0  0  0  0  0  0  0  0  0  0  0  0
    7.7633  -20.4089   17.6824 N   0  0  0  0  0  0  0  0  0  0  0  0
    7.0504  -21.0010   18.6575 C   0  0  0  0  0  0  0  0  0  0  0  0
    7.3874  -20.4764   19.8492 N   0  0  0  0  0  0  0  0  0  0  0  0
    9.1936  -16.3743   21.4399 C   0  0  0  0  0  0  0  0  0  0  0  0
   10.4016  -16.1712   21.7042 O   0  0  0  0  0  0  0  0  0  0  0  0
    8.1371  -15.8328   22.2211 N   0  0  0  0  0  0  0  0  0  0  0  0
    8.3964  -15.0586   23.4125 C   0  0  1  0  0  0  0  0  0  0  0  0
    7.1825  -14.2610   23.7417 C   0  0  0  0  0  0  0  0  0  0  0  0
    7.2180  -13.5105   24.9848 C   0  0  0  0  0  0  0  0  0  0  0  0
    7.9959  -12.4109   25.2320 C   0  0  0  0  0  0  0  0  0  0  0  0
    7.9822  -11.7596   26.4375 C   0  0  0  0  0  0  0  0  0  0  0  0
    7.1606  -12.2138   27.4524 C   0  0  0  0  0  0  0  0  0  0  0  0
    6.3720  -13.3141   27.2278 C   0  0  0  0  0  0  0  0  0  0  0  0
    6.3991  -13.9501   26.0200 C   0  0  0  0  0  0  0  0  0  0  0  0
    8.7868  -15.9875   24.5074 C   0  0  0  0  0  0  0  0  0  0  0  0
    8.0401  -16.9467   24.8184 O   0  0  0  0  0  0  0  0  0  0  0  0
    9.9975  -15.8312   25.2345 N   0  0  0  0  0  0  0  0  0  0  0  0
   10.4393  -16.6819   26.3169 C   0  0  1  0  0  0  0  0  0  0  0  0
   11.8872  -17.0976   26.1745 C   0  0  0  0  0  0  0  0  0  0  0  0
   12.2028  -17.6158   24.8444 C   0  0  0  0  0  0  0  0  0  0  0  0
   11.6649  -18.6750   24.4463 O   0  0  0  0  0  0  0  0  0  0  0  0
   10.1762  -16.0901   27.6408 C   0  0  0  0  0  0  0  0  0  0  0  0
   10.3186  -16.8457   28.7765 O   0  0  0  0  0  0  0  0  0  0  0  0
   13.0843  -16.9737   23.9932 O   0  0  0  0  0  0  0  0  0  0  0  0
    9.8229  -14.8984   27.7273 O   0  0  0  0  0  0  0  0  0  0  0  0
  2  1  1  6
  3  4  1  0
  3  2  1  0
  4  8  1  0
  5  4  2  0
  5  6  1  0
  6  7  1  0
  8  7  2  0
  9  2  1  0
 10  9  2  0
 11  9  1  0
 12 11  1  0
 12 13  1  1
 13 14  1  0
 14 15  2  0
 15 16  1  0
 17 16  2  0
 18 17  1  0
 19 14  1  0
 19 18  2  0
 20 12  1  0
 21 20  2  0
 22 20  1  0
 23 27  1  0
 23 22  1  0
 23 24  1  6
 25 29  1  0
 25 24  1  0
 26 25  2  0
 27 28  1  0
 30 27  2  0
M  END
$$$$
