HFD.pdb
     RDKit          3D

 30 31  0  0  1  0  0  0  0  0999 V2000
    8.2466  -17.1655   19.9982 N   0  0  0  0  0  0  0  0  0  0  0  0
    8.9927  -15.9414   19.8180 C   0  0  1  0  0  0  0  0  0  0  0  0
    8.3806  -15.0819   18.7518 C   0  0  0  0  0  0  0  0  0  0  0  0
    8.3825  -15.8055   17.4487 C   0  0  0  0  0  0  0  0  0  0  0  0
    9.4275  -15.7766   16.5248 C   0  0  0  0  0  0  0  0  0  0  0  0
    9.0951  -16.5336   15.4678 N   0  0  0  0  0  0  0  0  0  0  0  0
    7.8697  -17.0302   15.7153 C   0  0  0  0  0  0  0  0  0  0  0  0
    7.4353  -16.5930   16.9108 N   0  0  0  0  0  0  0  0  0  0  0  0
    9.0785  -15.1417   21.0825 C   0  0  0  0  0  0  0  0  0  0  0  0
    9.9477  -14.2396   21.1121 O   0  0  0  0  0  0  0  0  0  0  0  0
    8.2128  -15.4074   22.1778 N   0  0  0  0  0  0  0  0  0  0  0  0
    8.3676  -14.7337   23.4460 C   0  0  1  0  0  0  0  0  0  0  0  0
    7.0269  -14.2971   23.9256 C   0  0  0  0  0  0  0  0  0  0  0  0
    7.0005  -13.5076   25.1446 C   0  0  0  0  0  0  0  0  0  0  0  0
    6.1930  -13.7361   26.2267 C   0  0  0  0  0  0  0  0  0  0  0  0
    6.2181  -12.9389   27.3410 C   0  0  0  0  0  0  0  0  0  0  0  0
    7.0824  -11.8611   27.3931 C   0  0  0  0  0  0  0  0  0  0  0  0
    7.9011  -11.6125   26.3203 C   0  0  0  0  0  0  0  0  0  0  0  0
    7.8621  -12.4179   25.2186 C   0  0  0  0  0  0  0  0  0  0  0  0
    9.0436  -15.6581   24.3960 C   0  0  0  0  0  0  0  0  0  0  0  0
    9.1732  -15.3400   25.6028 O   0  0  0  0  0  0  0  0  0  0  0  0
    9.5623  -16.9157   23.9858 N   0  0  0  0  0  0  0  0  0  0  0  0
   10.4439  -17.7527   24.7686 C   0  0  1  0  0  0  0  0  0  0  0  0
   11.9004  -17.5594   24.4069 C   0  0  0  0  0  0  0  0  0  0  0  0
   12.8006  -18.3887   25.2064 C   0  0  0  0  0  0  0  0  0  0  0  0
   12.5988  -19.6224   25.2904 O   0  0  0  0  0  0  0  0  0  0  0  0
   10.2237  -17.6009   26.2179 C   0  0  0  0  0  0  0  0  0  0  0  0
   10.1472  -16.3515   26.7785 O   0  0  0  0  0  0  0  0  0  0  0  0
   13.8839  -17.8588   25.8842 O   0  0  0  0  0  0  0  0  0  0  0  0
   10.1070  -18.6125   26.9359 O   0  0  0  0  0  0  0  0  0  0  0  0
  2  1  1  1
  3  4  1  0
  3  2  1  0
  4  8  1  0
  5  4  2  0
  5  6  1  0
  6  7  1  0
  8  7  2  0
  9  2  1  0
 10  9  2  0
 11  9  1  0
 12 11  1  0
 12 13  1  1
 13 14  1  0
 14 15  2  0
 15 16  1  0
 17 16  2  0
 18 17  1  0
 19 14  1  0
 19 18  2  0
 20 12  1  0
 21 20  2  0
 22 20  1  0
 23 27  1  0
 23 22  1  0
 23 24  1  1
 25 29  1  0
 25 24  1  0
 26 25  2  0
 27 28  1  0
 30 27  2  0
M  END
$$$$
