HFD.pdb
     RDKit          3D

 30 31  0  0  1  0  0  0  0  0999 V2000
    9.8348  -16.7730   19.1644 N   0  0  0  0  0  0  0  0  0  0  0  0
    8.7496  -16.8779   20.1126 C   0  0  1  0  0  0  0  0  0  0  0  0
    8.3972  -18.3111   20.3812 C   0  0  0  0  0  0  0  0  0  0  0  0
    7.7966  -18.9264   19.1637 C   0  0  0  0  0  0  0  0  0  0  0  0
    8.4805  -19.7509   18.2698 C   0  0  0  0  0  0  0  0  0  0  0  0
    7.6407  -20.1236   17.2916 N   0  0  0  0  0  0  0  0  0  0  0  0
    6.4538  -19.5495   17.5588 C   0  0  0  0  0  0  0  0  0  0  0  0
    6.5434  -18.8255   18.6887 N   0  0  0  0  0  0  0  0  0  0  0  0
    9.0740  -16.2154   21.4170 C   0  0  0  0  0  0  0  0  0  0  0  0
   10.2636  -16.2985   21.8022 O   0  0  0  0  0  0  0  0  0  0  0  0
    8.0733  -15.5354   22.1624 N   0  0  0  0  0  0  0  0  0  0  0  0
    8.3788  -14.8658   23.4052 C   0  0  1  0  0  0  0  0  0  0  0  0
    7.3271  -13.8460   23.6734 C   0  0  0  0  0  0  0  0  0  0  0  0
    7.4012  -13.1597   24.9515 C   0  0  0  0  0  0  0  0  0  0  0  0
    8.4655  -12.4263   25.4037 C   0  0  0  0  0  0  0  0  0  0  0  0
    8.4656  -11.8140   26.6296 C   0  0  0  0  0  0  0  0  0  0  0  0
    7.3612  -11.9295   27.4532 C   0  0  0  0  0  0  0  0  0  0  0  0
    6.2827  -12.6597   27.0213 C   0  0  0  0  0  0  0  0  0  0  0  0
    6.3008  -13.2627   25.7965 C   0  0  0  0  0  0  0  0  0  0  0  0
    8.4764  -15.8865   24.4836 C   0  0  0  0  0  0  0  0  0  0  0  0
    7.5828  -16.7580   24.6113 O   0  0  0  0  0  0  0  0  0  0  0  0
    9.5636  -15.9173   25.3979 N   0  0  0  0  0  0  0  0  0  0  0  0
    9.9223  -17.0413   26.2337 C   0  0  1  0  0  0  0  0  0  0  0  0
   11.0331  -17.8773   25.6365 C   0  0  0  0  0  0  0  0  0  0  0  0
   11.4639  -18.9633   26.5154 C   0  0  0  0  0  0  0  0  0  0  0  0
   10.6511  -19.8601   26.8394 O   0  0  0  0  0  0  0  0  0  0  0  0
   10.2355  -16.6370   27.6159 C   0  0  0  0  0  0  0  0  0  0  0  0
   10.7302  -15.3843   27.8747 O   0  0  0  0  0  0  0  0  0  0  0  0
   12.7530  -19.0432   27.0110 O   0  0  0  0  0  0  0  0  0  0  0  0
   10.0499  -17.4376   28.5524 O   0  0  0  0  0  0  0  0  0  0  0  0
  2  1  1  6
  3  4  1  0
  3  2  1  0
  4  8  1  0
  5  4  2  0
  5  6  1  0
  6  7  1  0
  8  7  2  0
  9  2  1  0
 10  9  2  0
 11  9  1  0
 12 11  1  0
 12 13  1  1
 13 14  1  0
 14 15  2  0
 15 16  1  0
 17 16  2  0
 18 17  1  0
 19 14  1  0
 19 18  2  0
 20 12  1  0
 21 20  2  0
 22 20  1  0
 23 27  1  0
 23 22  1  0
 23 24  1  6
 25 29  1  0
 25 24  1  0
 26 25  2  0
 27 28  1  0
 30 27  2  0
M  END
$$$$
