HFD.pdb
     RDKit          3D

 30 31  0  0  1  0  0  0  0  0999 V2000
   10.3286  -16.5961   19.0720 N   0  0  0  0  0  0  0  0  0  0  0  0
    9.1047  -16.4426   19.8245 C   0  0  1  0  0  0  0  0  0  0  0  0
    8.3829  -17.7503   19.9638 C   0  0  0  0  0  0  0  0  0  0  0  0
    7.7386  -18.1184   18.6711 C   0  0  0  0  0  0  0  0  0  0  0  0
    7.8305  -17.3719   17.4961 C   0  0  0  0  0  0  0  0  0  0  0  0
    7.1313  -17.9900   16.5318 N   0  0  0  0  0  0  0  0  0  0  0  0
    6.6090  -19.1010   17.0819 C   0  0  0  0  0  0  0  0  0  0  0  0
    6.9733  -19.1826   18.3740 N   0  0  0  0  0  0  0  0  0  0  0  0
    9.3506  -15.8869   21.1944 C   0  0  0  0  0  0  0  0  0  0  0  0
   10.4699  -16.1325   21.7015 O   0  0  0  0  0  0  0  0  0  0  0  0
    8.3558  -15.1259   21.8659 N   0  0  0  0  0  0  0  0  0  0  0  0
    8.5586  -14.6311   23.2077 C   0  0  1  0  0  0  0  0  0  0  0  0
    7.4795  -13.6563   23.5291 C   0  0  0  0  0  0  0  0  0  0  0  0
    7.5146  -13.0651   24.8554 C   0  0  0  0  0  0  0  0  0  0  0  0
    8.5674  -12.3753   25.3948 C   0  0  0  0  0  0  0  0  0  0  0  0
    8.5298  -11.8536   26.6613 C   0  0  0  0  0  0  0  0  0  0  0  0
    7.3976  -12.0191   27.4373 C   0  0  0  0  0  0  0  0  0  0  0  0
    6.3299  -12.7070   26.9178 C   0  0  0  0  0  0  0  0  0  0  0  0
    6.3857  -13.2198   25.6537 C   0  0  0  0  0  0  0  0  0  0  0  0
    8.5831  -15.7885   24.1425 C   0  0  0  0  0  0  0  0  0  0  0  0
    7.5986  -16.5631   24.2150 O   0  0  0  0  0  0  0  0  0  0  0  0
    9.6998  -16.0609   24.9778 N   0  0  0  0  0  0  0  0  0  0  0  0
    9.8407  -17.2159   25.8360 C   0  0  1  0  0  0  0  0  0  0  0  0
   11.1796  -17.9014   25.6714 C   0  0  0  0  0  0  0  0  0  0  0  0
   11.4736  -18.2508   24.2827 C   0  0  0  0  0  0  0  0  0  0  0  0
   12.4890  -17.7750   23.7236 O   0  0  0  0  0  0  0  0  0  0  0  0
    9.5656  -16.9032   27.2497 C   0  0  0  0  0  0  0  0  0  0  0  0
    9.1783  -17.8947   28.1145 O   0  0  0  0  0  0  0  0  0  0  0  0
   10.6642  -19.0995   23.5490 O   0  0  0  0  0  0  0  0  0  0  0  0
    9.6855  -15.7327   27.6598 O   0  0  0  0  0  0  0  0  0  0  0  0
  2  1  1  1
  3  4  1  0
  3  2  1  0
  4  8  1  0
  5  4  2  0
  5  6  1  0
  6  7  1  0
  8  7  2  0
  9  2  1  0
 10  9  2  0
 11  9  1  0
 12 11  1  0
 12 13  1  1
 13 14  1  0
 14 15  2  0
 15 16  1  0
 17 16  2  0
 18 17  1  0
 19 14  1  0
 19 18  2  0
 20 12  1  0
 21 20  2  0
 22 20  1  0
 23 27  1  0
 23 22  1  0
 23 24  1  1
 25 29  1  0
 25 24  1  0
 26 25  2  0
 27 28  1  0
 30 27  2  0
M  END
$$$$
