HFD.pdb
     RDKit          3D

 30 31  0  0  1  0  0  0  0  0999 V2000
   10.9845  -14.8954   19.3652 N   0  0  0  0  0  0  0  0  0  0  0  0
    9.6316  -14.7514   19.8517 C   0  0  1  0  0  0  0  0  0  0  0  0
    8.7359  -15.8185   19.2956 C   0  0  0  0  0  0  0  0  0  0  0  0
    8.1731  -15.3820   17.9863 C   0  0  0  0  0  0  0  0  0  0  0  0
    8.4426  -14.1579   17.3736 C   0  0  0  0  0  0  0  0  0  0  0  0
    7.7714  -14.0947   16.2133 N   0  0  0  0  0  0  0  0  0  0  0  0
    7.0929  -15.2501   16.0934 C   0  0  0  0  0  0  0  0  0  0  0  0
    7.3327  -16.0307   17.1621 N   0  0  0  0  0  0  0  0  0  0  0  0
    9.5615  -14.8037   21.3477 C   0  0  0  0  0  0  0  0  0  0  0  0
   10.5035  -15.3916   21.9284 O   0  0  0  0  0  0  0  0  0  0  0  0
    8.4771  -14.2134   22.0516 N   0  0  0  0  0  0  0  0  0  0  0  0
    8.4606  -14.1411   23.4941 C   0  0  1  0  0  0  0  0  0  0  0  0
    7.2698  -13.3560   23.9228 C   0  0  0  0  0  0  0  0  0  0  0  0
    7.1289  -13.1196   25.3490 C   0  0  0  0  0  0  0  0  0  0  0  0
    6.0740  -12.4899   25.9539 C   0  0  0  0  0  0  0  0  0  0  0  0
    6.0165  -12.2943   27.3089 C   0  0  0  0  0  0  0  0  0  0  0  0
    7.0506  -12.7414   28.1103 C   0  0  0  0  0  0  0  0  0  0  0  0
    8.1184  -13.3754   27.5263 C   0  0  0  0  0  0  0  0  0  0  0  0
    8.1581  -13.5613   26.1743 C   0  0  0  0  0  0  0  0  0  0  0  0
    8.4616  -15.5255   24.0395 C   0  0  0  0  0  0  0  0  0  0  0  0
    7.5485  -16.3279   23.7283 O   0  0  0  0  0  0  0  0  0  0  0  0
    9.4760  -15.9896   24.9196 N   0  0  0  0  0  0  0  0  0  0  0  0
    9.5710  -17.3295   25.4544 C   0  0  1  0  0  0  0  0  0  0  0  0
   10.3734  -18.2538   24.5648 C   0  0  0  0  0  0  0  0  0  0  0  0
   10.5344  -19.5918   25.1316 C   0  0  0  0  0  0  0  0  0  0  0  0
    9.5297  -20.3222   25.2958 O   0  0  0  0  0  0  0  0  0  0  0  0
   10.0707  -17.3477   26.8408 C   0  0  0  0  0  0  0  0  0  0  0  0
   10.8151  -16.3008   27.3212 O   0  0  0  0  0  0  0  0  0  0  0  0
   11.7704  -20.0928   25.4992 O   0  0  0  0  0  0  0  0  0  0  0  0
    9.8154  -18.3189   27.5784 O   0  0  0  0  0  0  0  0  0  0  0  0
  2  1  1  1
  3  4  1  0
  3  2  1  0
  4  8  1  0
  5  4  2  0
  5  6  1  0
  6  7  1  0
  8  7  2  0
  9  2  1  0
 10  9  2  0
 11  9  1  0
 12 11  1  0
 12 13  1  6
 13 14  1  0
 14 15  2  0
 15 16  1  0
 17 16  2  0
 18 17  1  0
 19 14  1  0
 19 18  2  0
 20 12  1  0
 21 20  2  0
 22 20  1  0
 23 27  1  0
 23 22  1  0
 23 24  1  6
 25 29  1  0
 25 24  1  0
 26 25  2  0
 27 28  1  0
 30 27  2  0
M  END
$$$$
