HFD.pdb
     RDKit          3D

 30 31  0  0  1  0  0  0  0  0999 V2000
    8.4422  -17.6315   19.9946 N   0  0  0  0  0  0  0  0  0  0  0  0
    9.5846  -16.7473   19.9644 C   0  0  1  0  0  0  0  0  0  0  0  0
    9.5954  -15.9133   18.7175 C   0  0  0  0  0  0  0  0  0  0  0  0
    9.5985  -16.7931   17.5144 C   0  0  0  0  0  0  0  0  0  0  0  0
    8.4901  -17.4951   17.0400 C   0  0  0  0  0  0  0  0  0  0  0  0
    8.8474  -18.1851   15.9459 N   0  0  0  0  0  0  0  0  0  0  0  0
   10.1502  -17.9269   15.7319 C   0  0  0  0  0  0  0  0  0  0  0  0
   10.6080  -17.0865   16.6769 N   0  0  0  0  0  0  0  0  0  0  0  0
    9.6205  -15.8311   21.1497 C   0  0  0  0  0  0  0  0  0  0  0  0
   10.6449  -15.1199   21.2721 O   0  0  0  0  0  0  0  0  0  0  0  0
    8.5419  -15.7861   22.0740 N   0  0  0  0  0  0  0  0  0  0  0  0
    8.6323  -15.0398   23.3073 C   0  0  1  0  0  0  0  0  0  0  0  0
    7.3277  -14.3670   23.5593 C   0  0  0  0  0  0  0  0  0  0  0  0
    7.2227  -13.5961   24.7859 C   0  0  0  0  0  0  0  0  0  0  0  0
    7.8926  -12.4331   25.0581 C   0  0  0  0  0  0  0  0  0  0  0  0
    7.7490  -11.7657   26.2462 C   0  0  0  0  0  0  0  0  0  0  0  0
    6.9025  -12.2686   27.2167 C   0  0  0  0  0  0  0  0  0  0  0  0
    6.2206  -13.4328   26.9663 C   0  0  0  0  0  0  0  0  0  0  0  0
    6.3764  -14.0840   25.7764 C   0  0  0  0  0  0  0  0  0  0  0  0
    9.0171  -15.9730   24.4005 C   0  0  0  0  0  0  0  0  0  0  0  0
    8.3132  -16.9821   24.6468 O   0  0  0  0  0  0  0  0  0  0  0  0
   10.1747  -15.7656   25.1979 N   0  0  0  0  0  0  0  0  0  0  0  0
   10.6921  -16.6930   26.1790 C   0  0  1  0  0  0  0  0  0  0  0  0
   12.2027  -16.6665   26.2628 C   0  0  0  0  0  0  0  0  0  0  0  0
   12.8473  -16.7635   24.9542 C   0  0  0  0  0  0  0  0  0  0  0  0
   13.7790  -15.9788   24.6606 O   0  0  0  0  0  0  0  0  0  0  0  0
   10.0756  -16.5108   27.5053 C   0  0  0  0  0  0  0  0  0  0  0  0
   10.3283  -17.4050   28.5139 O   0  0  0  0  0  0  0  0  0  0  0  0
   12.4653  -17.7017   24.0120 O   0  0  0  0  0  0  0  0  0  0  0  0
    9.3217  -15.5401   27.7097 O   0  0  0  0  0  0  0  0  0  0  0  0
  2  1  1  1
  3  4  1  0
  3  2  1  0
  4  8  1  0
  5  4  2  0
  5  6  1  0
  6  7  1  0
  8  7  2  0
  9  2  1  0
 10  9  2  0
 11  9  1  0
 12 11  1  0
 12 13  1  1
 13 14  1  0
 14 15  2  0
 15 16  1  0
 17 16  2  0
 18 17  1  0
 19 14  1  0
 19 18  2  0
 20 12  1  0
 21 20  2  0
 22 20  1  0
 23 27  1  0
 23 22  1  0
 23 24  1  1
 25 29  1  0
 25 24  1  0
 26 25  2  0
 27 28  1  0
 30 27  2  0
M  END
$$$$
