WLG.pdb
     RDKit          3D

 27 28  0  0  1  0  0  0  0  0999 V2000
    6.4291  -18.5450   24.5887 N   0  0  0  0  0  0  0  0  0  0  0  0
    6.7869  -17.1775   24.2828 C   0  0  1  0  0  0  0  0  0  0  0  0
    7.6132  -16.6654   25.4713 C   0  0  0  0  0  0  0  0  0  0  0  0
    7.0087  -15.3799   25.9202 C   0  0  0  0  0  0  0  0  0  0  0  0
    5.6727  -15.0892   26.0360 C   0  0  0  0  0  0  0  0  0  0  0  0
    5.6124  -13.8034   26.4743 N   0  0  0  0  0  0  0  0  0  0  0  0
    6.8397  -13.2992   26.6305 C   0  0  0  0  0  0  0  0  0  0  0  0
    7.3490  -12.0938   27.0350 C   0  0  0  0  0  0  0  0  0  0  0  0
    8.6996  -11.8850   27.0899 C   0  0  0  0  0  0  0  0  0  0  0  0
    9.6214  -12.8527   26.7491 C   0  0  0  0  0  0  0  0  0  0  0  0
    9.1149  -14.0721   26.3397 C   0  0  0  0  0  0  0  0  0  0  0  0
    7.7538  -14.2819   26.2846 C   0  0  0  0  0  0  0  0  0  0  0  0
    7.6401  -17.0767   23.0803 C   0  0  0  0  0  0  0  0  0  0  0  0
    7.8758  -18.1149   22.4209 O   0  0  0  0  0  0  0  0  0  0  0  0
    7.1027  -14.2445   19.2707 C   0  0  0  0  0  0  0  0  0  0  0  0
    7.4474  -13.6741   20.6111 C   0  0  2  0  0  0  0  0  0  0  0  0
    7.4748  -12.1399   20.4941 C   0  0  0  0  0  0  0  0  0  0  0  0
    8.7171  -14.2014   21.1326 C   0  0  0  0  0  0  0  0  0  0  0  0
    8.9185  -15.6341   21.4181 C   0  0  2  0  0  0  0  0  0  0  0  0
    8.1620  -15.8269   22.7084 N   0  0  0  0  0  0  0  0  0  0  0  0
   10.2488  -16.1601   21.6978 C   0  0  0  0  0  0  0  0  0  0  0  0
   11.1436  -16.2252   20.7714 O   0  0  0  0  0  0  0  0  0  0  0  0
   10.7328  -16.6379   22.9560 N   0  0  0  0  0  0  0  0  0  0  0  0
   12.0184  -17.2116   23.1716 C   0  0  0  0  0  0  0  0  0  0  0  0
   13.1504  -16.2815   23.2692 C   0  0  0  0  0  0  0  0  0  0  0  0
   12.9874  -15.0549   23.1523 O   0  0  0  0  0  0  0  0  0  0  0  0
   14.4292  -16.7602   23.4951 O   0  0  0  0  0  0  0  0  0  0  0  0
  2  1  1  1
  2 13  1  0
  2  3  1  0
  3  4  1  0
  4  5  2  0
  6  5  1  0
  7  6  1  0
  8  7  2  0
  9  8  1  0
 10  9  2  0
 10 11  1  0
 11 12  2  0
 12  7  1  0
 12  4  1  0
 13 20  1  0
 14 13  2  0
 16 18  1  0
 16 15  1  6
 17 16  1  0
 19 18  1  1
 20 19  1  0
 21 22  2  0
 21 19  1  0
 23 21  1  0
 24 25  1  0
 24 23  1  0
 25 27  1  0
 26 25  2  0
M  END
$$$$
