WLG.pdb
     RDKit          3D

 27 28  0  0  1  0  0  0  0  0999 V2000
    6.1731  -18.2322   24.5566 N   0  0  0  0  0  0  0  0  0  0  0  0
    6.7060  -16.9078   24.3254 C   0  0  1  0  0  0  0  0  0  0  0  0
    7.4466  -16.5042   25.6084 C   0  0  0  0  0  0  0  0  0  0  0  0
    6.8396  -15.2353   26.0991 C   0  0  0  0  0  0  0  0  0  0  0  0
    5.5119  -14.9951   26.3492 C   0  0  0  0  0  0  0  0  0  0  0  0
    5.4447  -13.7048   26.7728 N   0  0  0  0  0  0  0  0  0  0  0  0
    6.6598  -13.1500   26.7931 C   0  0  0  0  0  0  0  0  0  0  0  0
    7.1584  -11.9182   27.1250 C   0  0  0  0  0  0  0  0  0  0  0  0
    8.4977  -11.6555   27.0359 C   0  0  0  0  0  0  0  0  0  0  0  0
    9.4182  -12.5924   26.6150 C   0  0  0  0  0  0  0  0  0  0  0  0
    8.9224  -13.8382   26.2782 C   0  0  0  0  0  0  0  0  0  0  0  0
    7.5727  -14.1023   26.3681 C   0  0  0  0  0  0  0  0  0  0  0  0
    7.6920  -16.8843   23.2247 C   0  0  0  0  0  0  0  0  0  0  0  0
    8.1308  -17.9724   22.7867 O   0  0  0  0  0  0  0  0  0  0  0  0
    7.2923  -14.4761   19.2001 C   0  0  0  0  0  0  0  0  0  0  0  0
    7.6150  -13.7526   20.4702 C   0  0  2  0  0  0  0  0  0  0  0  0
    7.6151  -12.2409   20.1821 C   0  0  0  0  0  0  0  0  0  0  0  0
    8.8896  -14.1936   21.0558 C   0  0  0  0  0  0  0  0  0  0  0  0
    9.0938  -15.5642   21.5603 C   0  0  2  0  0  0  0  0  0  0  0  0
    8.1098  -15.6504   22.6998 N   0  0  0  0  0  0  0  0  0  0  0  0
   10.3658  -15.9608   22.1512 C   0  0  0  0  0  0  0  0  0  0  0  0
   10.7640  -15.4537   23.2682 O   0  0  0  0  0  0  0  0  0  0  0  0
   11.2931  -16.9145   21.6256 N   0  0  0  0  0  0  0  0  0  0  0  0
   12.5453  -17.2472   22.2168 C   0  0  0  0  0  0  0  0  0  0  0  0
   13.6967  -16.4178   21.8393 C   0  0  0  0  0  0  0  0  0  0  0  0
   13.5751  -15.4730   21.0409 O   0  0  0  0  0  0  0  0  0  0  0  0
   14.9477  -16.6771   22.3715 O   0  0  0  0  0  0  0  0  0  0  0  0
  2  1  1  1
  2 13  1  0
  2  3  1  0
  3  4  1  0
  4  5  2  0
  6  5  1  0
  7  6  1  0
  8  7  2  0
  9  8  1  0
 10  9  2  0
 10 11  1  0
 11 12  2  0
 12  7  1  0
 12  4  1  0
 13 20  1  0
 14 13  2  0
 16 18  1  0
 16 15  1  6
 17 16  1  0
 19 18  1  1
 20 19  1  0
 21 22  2  0
 21 19  1  0
 23 21  1  0
 24 25  1  0
 24 23  1  0
 25 27  1  0
 26 25  2  0
M  END
$$$$
