WLG.pdb
     RDKit          3D

 27 28  0  0  1  0  0  0  0  0999 V2000
    7.1278  -18.8968   26.2480 N   0  0  0  0  0  0  0  0  0  0  0  0
    7.7348  -17.5899   26.3717 C   0  0  1  0  0  0  0  0  0  0  0  0
    9.2542  -17.8098   26.3515 C   0  0  0  0  0  0  0  0  0  0  0  0
    9.7840  -17.4203   27.6883 C   0  0  0  0  0  0  0  0  0  0  0  0
   10.1579  -18.2597   28.7074 C   0  0  0  0  0  0  0  0  0  0  0  0
   10.5684  -17.4498   29.7195 N   0  0  0  0  0  0  0  0  0  0  0  0
   10.4637  -16.1649   29.3689 C   0  0  0  0  0  0  0  0  0  0  0  0
   10.7291  -14.9680   29.9796 C   0  0  0  0  0  0  0  0  0  0  0  0
   10.5076  -13.7844   29.3310 C   0  0  0  0  0  0  0  0  0  0  0  0
   10.0125  -13.7162   28.0455 C   0  0  0  0  0  0  0  0  0  0  0  0
    9.7421  -14.9203   27.4225 C   0  0  0  0  0  0  0  0  0  0  0  0
    9.9655  -16.1127   28.0766 C   0  0  0  0  0  0  0  0  0  0  0  0
    7.4046  -16.7081   25.2327 C   0  0  0  0  0  0  0  0  0  0  0  0
    6.7533  -17.1821   24.2738 O   0  0  0  0  0  0  0  0  0  0  0  0
    5.2072  -13.1168   25.9014 C   0  0  0  0  0  0  0  0  0  0  0  0
    6.6742  -12.8886   26.0924 C   0  0  2  0  0  0  0  0  0  0  0  0
    6.8772  -11.4666   26.6446 C   0  0  0  0  0  0  0  0  0  0  0  0
    7.4388  -13.1046   24.8552 C   0  0  0  0  0  0  0  0  0  0  0  0
    7.4572  -14.4026   24.1555 C   0  0  2  0  0  0  0  0  0  0  0  0
    7.8260  -15.3684   25.2534 N   0  0  0  0  0  0  0  0  0  0  0  0
    8.4268  -14.6687   23.1003 C   0  0  0  0  0  0  0  0  0  0  0  0
    8.2967  -14.1380   21.9321 O   0  0  0  0  0  0  0  0  0  0  0  0
    9.5936  -15.4901   23.1976 N   0  0  0  0  0  0  0  0  0  0  0  0
   10.5754  -15.6380   22.1766 C   0  0  0  0  0  0  0  0  0  0  0  0
   10.3764  -16.7349   21.2209 C   0  0  0  0  0  0  0  0  0  0  0  0
    9.3838  -17.4794   21.2933 O   0  0  0  0  0  0  0  0  0  0  0  0
   11.2995  -16.9593   20.2144 O   0  0  0  0  0  0  0  0  0  0  0  0
  2  1  1  6
  2 13  1  0
  2  3  1  0
  3  4  1  0
  4  5  2  0
  6  5  1  0
  7  6  1  0
  8  7  2  0
  9  8  1  0
 10  9  2  0
 10 11  1  0
 11 12  2  0
 12  7  1  0
 12  4  1  0
 13 20  1  0
 14 13  2  0
 16 18  1  0
 16 15  1  6
 17 16  1  0
 19 18  1  1
 20 19  1  0
 21 22  2  0
 21 19  1  0
 23 21  1  0
 24 25  1  0
 24 23  1  0
 25 27  1  0
 26 25  2  0
M  END
$$$$
