WLG.pdb
     RDKit          3D

 27 28  0  0  1  0  0  0  0  0999 V2000
    7.5642  -19.0226   26.1301 N   0  0  0  0  0  0  0  0  0  0  0  0
    8.0265  -17.6684   26.3394 C   0  0  1  0  0  0  0  0  0  0  0  0
    9.5578  -17.7378   26.4275 C   0  0  0  0  0  0  0  0  0  0  0  0
    9.9489  -17.3320   27.8066 C   0  0  0  0  0  0  0  0  0  0  0  0
   10.2356  -18.1594   28.8631 C   0  0  0  0  0  0  0  0  0  0  0  0
   10.5327  -17.3372   29.9046 N   0  0  0  0  0  0  0  0  0  0  0  0
   10.4416  -16.0562   29.5363 C   0  0  0  0  0  0  0  0  0  0  0  0
   10.6269  -14.8516   30.1614 C   0  0  0  0  0  0  0  0  0  0  0  0
   10.4502  -13.6755   29.4860 C   0  0  0  0  0  0  0  0  0  0  0  0
   10.0812  -13.6227   28.1581 C   0  0  0  0  0  0  0  0  0  0  0  0
    9.8922  -14.8346   27.5204 C   0  0  0  0  0  0  0  0  0  0  0  0
   10.0705  -16.0194   28.2015 C   0  0  0  0  0  0  0  0  0  0  0  0
    7.6928  -16.7804   25.2061 C   0  0  0  0  0  0  0  0  0  0  0  0
    7.1447  -17.2756   24.1948 O   0  0  0  0  0  0  0  0  0  0  0  0
    7.0129  -11.1953   26.1818 C   0  0  0  0  0  0  0  0  0  0  0  0
    6.6045  -12.4240   25.4308 C   0  0  2  0  0  0  0  0  0  0  0  0
    5.7963  -13.3273   26.3790 C   0  0  0  0  0  0  0  0  0  0  0  0
    7.7555  -13.1345   24.8543 C   0  0  0  0  0  0  0  0  0  0  0  0
    7.6228  -14.4463   24.1937 C   0  0  2  0  0  0  0  0  0  0  0  0
    7.9960  -15.4116   25.2905 N   0  0  0  0  0  0  0  0  0  0  0  0
    8.4890  -14.8129   23.0802 C   0  0  0  0  0  0  0  0  0  0  0  0
    8.1605  -14.5319   21.8651 O   0  0  0  0  0  0  0  0  0  0  0  0
    9.7510  -15.4809   23.1619 N   0  0  0  0  0  0  0  0  0  0  0  0
   10.5650  -15.8273   22.0459 C   0  0  0  0  0  0  0  0  0  0  0  0
   11.8668  -16.4394   22.3407 C   0  0  0  0  0  0  0  0  0  0  0  0
   12.1097  -16.9289   23.4570 O   0  0  0  0  0  0  0  0  0  0  0  0
   12.8535  -16.4818   21.3711 O   0  0  0  0  0  0  0  0  0  0  0  0
  2  1  1  6
  2 13  1  0
  2  3  1  0
  3  4  1  0
  4  5  2  0
  6  5  1  0
  7  6  1  0
  8  7  2  0
  9  8  1  0
 10  9  2  0
 10 11  1  0
 11 12  2  0
 12  7  1  0
 12  4  1  0
 13 20  1  0
 14 13  2  0
 16 18  1  0
 16 15  1  1
 17 16  1  0
 19 18  1  1
 20 19  1  0
 21 22  2  0
 21 19  1  0
 23 21  1  0
 24 25  1  0
 24 23  1  0
 25 27  1  0
 26 25  2  0
M  END
$$$$
