WLG.pdb
     RDKit          3D

 27 28  0  0  1  0  0  0  0  0999 V2000
    6.4894  -17.4892   24.9292 N   0  0  0  0  0  0  0  0  0  0  0  0
    7.1763  -16.2933   24.4938 C   0  0  1  0  0  0  0  0  0  0  0  0
    8.3288  -16.0663   25.4826 C   0  0  0  0  0  0  0  0  0  0  0  0
    7.8242  -15.1780   26.5669 C   0  0  0  0  0  0  0  0  0  0  0  0
    7.4690  -15.5457   27.8404 C   0  0  0  0  0  0  0  0  0  0  0  0
    7.0705  -14.4009   28.4564 N   0  0  0  0  0  0  0  0  0  0  0  0
    7.1649  -13.3593   27.6252 C   0  0  0  0  0  0  0  0  0  0  0  0
    6.9053  -12.0176   27.7178 C   0  0  0  0  0  0  0  0  0  0  0  0
    7.1139  -11.1868   26.6516 C   0  0  0  0  0  0  0  0  0  0  0  0
    7.5896  -11.6330   25.4363 C   0  0  0  0  0  0  0  0  0  0  0  0
    7.8540  -12.9862   25.3352 C   0  0  0  0  0  0  0  0  0  0  0  0
    7.6436  -13.8229   26.4099 C   0  0  0  0  0  0  0  0  0  0  0  0
    7.7749  -16.4477   23.1514 C   0  0  0  0  0  0  0  0  0  0  0  0
    7.6691  -17.5512   22.5687 O   0  0  0  0  0  0  0  0  0  0  0  0
    6.6590  -14.3470   19.3003 C   0  0  0  0  0  0  0  0  0  0  0  0
    7.3408  -13.5783   20.3888 C   0  0  2  0  0  0  0  0  0  0  0  0
    7.3312  -12.0867   20.0100 C   0  0  0  0  0  0  0  0  0  0  0  0
    8.7046  -14.0642   20.6457 C   0  0  0  0  0  0  0  0  0  0  0  0
    8.9757  -15.4209   21.1559 C   0  0  2  0  0  0  0  0  0  0  0  0
    8.4430  -15.3601   22.5654 N   0  0  0  0  0  0  0  0  0  0  0  0
   10.3431  -15.9026   21.3075 C   0  0  0  0  0  0  0  0  0  0  0  0
   11.0774  -16.1470   20.2759 O   0  0  0  0  0  0  0  0  0  0  0  0
   11.0327  -16.1472   22.5364 N   0  0  0  0  0  0  0  0  0  0  0  0
   12.4037  -16.5178   22.6434 C   0  0  0  0  0  0  0  0  0  0  0  0
   12.7119  -17.9500   22.5435 C   0  0  0  0  0  0  0  0  0  0  0  0
   11.8480  -18.7712   22.1914 O   0  0  0  0  0  0  0  0  0  0  0  0
   13.9815  -18.4129   22.8423 O   0  0  0  0  0  0  0  0  0  0  0  0
  2  1  1  1
  2 13  1  0
  2  3  1  0
  3  4  1  0
  4  5  2  0
  6  5  1  0
  7  6  1  0
  8  7  2  0
  9  8  1  0
 10  9  2  0
 10 11  1  0
 11 12  2  0
 12  7  1  0
 12  4  1  0
 13 20  1  0
 14 13  2  0
 16 18  1  0
 16 15  1  6
 17 16  1  0
 19 18  1  1
 20 19  1  0
 21 22  2  0
 21 19  1  0
 23 21  1  0
 24 25  1  0
 24 23  1  0
 25 27  1  0
 26 25  2  0
M  END
$$$$
