WLG.pdb
     RDKit          3D

 27 28  0  0  1  0  0  0  0  0999 V2000
    6.5818  -17.4839   24.9259 N   0  0  0  0  0  0  0  0  0  0  0  0
    7.2244  -16.2829   24.4398 C   0  0  1  0  0  0  0  0  0  0  0  0
    8.3589  -15.9649   25.4243 C   0  0  0  0  0  0  0  0  0  0  0  0
    7.7842  -15.1392   26.5231 C   0  0  0  0  0  0  0  0  0  0  0  0
    7.4209  -15.5654   27.7758 C   0  0  0  0  0  0  0  0  0  0  0  0
    6.9488  -14.4632   28.4171 N   0  0  0  0  0  0  0  0  0  0  0  0
    7.0064  -13.3921   27.6208 C   0  0  0  0  0  0  0  0  0  0  0  0
    6.6741  -12.0694   27.7484 C   0  0  0  0  0  0  0  0  0  0  0  0
    6.8620  -11.1952   26.7135 C   0  0  0  0  0  0  0  0  0  0  0  0
    7.3875  -11.5770   25.4967 C   0  0  0  0  0  0  0  0  0  0  0  0
    7.7252  -12.9106   25.3603 C   0  0  0  0  0  0  0  0  0  0  0  0
    7.5356  -13.7910   26.4036 C   0  0  0  0  0  0  0  0  0  0  0  0
    7.8395  -16.4750   23.1099 C   0  0  0  0  0  0  0  0  0  0  0  0
    7.7367  -17.5930   22.5551 O   0  0  0  0  0  0  0  0  0  0  0  0
    6.6076  -14.3347   19.4241 C   0  0  0  0  0  0  0  0  0  0  0  0
    7.4212  -13.5629   20.4155 C   0  0  2  0  0  0  0  0  0  0  0  0
    7.4597  -12.0899   19.9713 C   0  0  0  0  0  0  0  0  0  0  0  0
    8.7738  -14.1158   20.5793 C   0  0  0  0  0  0  0  0  0  0  0  0
    9.0122  -15.4820   21.0808 C   0  0  2  0  0  0  0  0  0  0  0  0
    8.5195  -15.4057   22.5041 N   0  0  0  0  0  0  0  0  0  0  0  0
   10.3659  -16.0099   21.1954 C   0  0  0  0  0  0  0  0  0  0  0  0
   11.0739  -16.2514   20.1448 O   0  0  0  0  0  0  0  0  0  0  0  0
   11.0690  -16.3068   22.4050 N   0  0  0  0  0  0  0  0  0  0  0  0
   12.4228  -16.7429   22.4764 C   0  0  0  0  0  0  0  0  0  0  0  0
   12.6564  -18.0929   23.0047 C   0  0  0  0  0  0  0  0  0  0  0  0
   11.7157  -18.8851   23.1849 O   0  0  0  0  0  0  0  0  0  0  0  0
   13.9398  -18.5090   23.3133 O   0  0  0  0  0  0  0  0  0  0  0  0
  2  1  1  1
  2 13  1  0
  2  3  1  0
  3  4  1  0
  4  5  2  0
  6  5  1  0
  7  6  1  0
  8  7  2  0
  9  8  1  0
 10  9  2  0
 10 11  1  0
 11 12  2  0
 12  7  1  0
 12  4  1  0
 13 20  1  0
 14 13  2  0
 16 18  1  0
 16 15  1  6
 17 16  1  0
 19 18  1  1
 20 19  1  0
 21 22  2  0
 21 19  1  0
 23 21  1  0
 24 25  1  0
 24 23  1  0
 25 27  1  0
 26 25  2  0
M  END
$$$$
