WLG.pdb
     RDKit          3D

 27 28  0  0  1  0  0  0  0  0999 V2000
    6.4596  -17.1299   25.5690 N   0  0  0  0  0  0  0  0  0  0  0  0
    7.1537  -16.0780   24.8595 C   0  0  1  0  0  0  0  0  0  0  0  0
    8.5066  -15.8954   25.5623 C   0  0  0  0  0  0  0  0  0  0  0  0
    8.3275  -14.8668   26.6250 C   0  0  0  0  0  0  0  0  0  0  0  0
    8.6485  -14.9848   27.9539 C   0  0  0  0  0  0  0  0  0  0  0  0
    8.3020  -13.7994   28.5229 N   0  0  0  0  0  0  0  0  0  0  0  0
    7.7884  -12.9694   27.6107 C   0  0  0  0  0  0  0  0  0  0  0  0
    7.2933  -11.6925   27.6306 C   0  0  0  0  0  0  0  0  0  0  0  0
    6.8269  -11.1023   26.4883 C   0  0  0  0  0  0  0  0  0  0  0  0
    6.8231  -11.7385   25.2646 C   0  0  0  0  0  0  0  0  0  0  0  0
    7.3213  -13.0278   25.2366 C   0  0  0  0  0  0  0  0  0  0  0  0
    7.7911  -13.6219   26.3880 C   0  0  0  0  0  0  0  0  0  0  0  0
    7.4353  -16.4402   23.4547 C   0  0  0  0  0  0  0  0  0  0  0  0
    6.9590  -17.5059   23.0010 O   0  0  0  0  0  0  0  0  0  0  0  0
    6.2997  -14.3662   19.6418 C   0  0  0  0  0  0  0  0  0  0  0  0
    7.3575  -13.7338   20.4913 C   0  0  2  0  0  0  0  0  0  0  0  0
    7.6791  -12.3443   19.9132 C   0  0  0  0  0  0  0  0  0  0  0  0
    8.5626  -14.5697   20.5971 C   0  0  0  0  0  0  0  0  0  0  0  0
    8.5453  -15.9023   21.2284 C   0  0  2  0  0  0  0  0  0  0  0  0
    8.2246  -15.5859   22.6675 N   0  0  0  0  0  0  0  0  0  0  0  0
    9.7557  -16.7115   21.2981 C   0  0  0  0  0  0  0  0  0  0  0  0
   10.2355  -17.2778   20.2434 O   0  0  0  0  0  0  0  0  0  0  0  0
   10.5457  -16.9709   22.4618 N   0  0  0  0  0  0  0  0  0  0  0  0
   11.6860  -17.8231   22.5011 C   0  0  0  0  0  0  0  0  0  0  0  0
   12.9479  -17.2638   21.9999 C   0  0  0  0  0  0  0  0  0  0  0  0
   14.0316  -17.5280   22.5481 O   0  0  0  0  0  0  0  0  0  0  0  0
   12.9509  -16.4258   20.8985 O   0  0  0  0  0  0  0  0  0  0  0  0
  2  1  1  1
  2 13  1  0
  2  3  1  0
  3  4  1  0
  4  5  2  0
  6  5  1  0
  7  6  1  0
  8  7  2  0
  9  8  1  0
 10  9  2  0
 10 11  1  0
 11 12  2  0
 12  7  1  0
 12  4  1  0
 13 20  1  0
 14 13  2  0
 16 18  1  0
 16 15  1  6
 17 16  1  0
 19 18  1  6
 20 19  1  0
 21 22  2  0
 21 19  1  0
 23 21  1  0
 24 25  1  0
 24 23  1  0
 25 27  1  0
 26 25  2  0
M  END
$$$$
