WLG.pdb
     RDKit          3D

 27 28  0  0  1  0  0  0  0  0999 V2000
    9.6575  -16.0659   25.7285 N   0  0  0  0  0  0  0  0  0  0  0  0
    8.7448  -17.0487   25.1876 C   0  0  1  0  0  0  0  0  0  0  0  0
    7.3829  -16.7909   25.8480 C   0  0  0  0  0  0  0  0  0  0  0  0
    7.3549  -15.3660   26.2822 C   0  0  0  0  0  0  0  0  0  0  0  0
    6.3985  -14.4283   25.9838 C   0  0  0  0  0  0  0  0  0  0  0  0
    6.8033  -13.2827   26.5942 N   0  0  0  0  0  0  0  0  0  0  0  0
    7.9532  -13.4754   27.2465 C   0  0  0  0  0  0  0  0  0  0  0  0
    8.7806  -12.6917   28.0062 C   0  0  0  0  0  0  0  0  0  0  0  0
    9.9239  -13.2038   28.5551 C   0  0  0  0  0  0  0  0  0  0  0  0
   10.3138  -14.5158   28.3851 C   0  0  0  0  0  0  0  0  0  0  0  0
    9.4836  -15.3131   27.6193 C   0  0  0  0  0  0  0  0  0  0  0  0
    8.3316  -14.7965   27.0665 C   0  0  0  0  0  0  0  0  0  0  0  0
    8.5596  -16.8993   23.7290 C   0  0  0  0  0  0  0  0  0  0  0  0
    7.7337  -17.6401   23.1482 O   0  0  0  0  0  0  0  0  0  0  0  0
    6.5287  -14.5388   20.7466 C   0  0  0  0  0  0  0  0  0  0  0  0
    7.5831  -13.8829   21.5824 C   0  0  2  0  0  0  0  0  0  0  0  0
    7.5166  -12.3639   21.3448 C   0  0  0  0  0  0  0  0  0  0  0  0
    8.9254  -14.4169   21.3084 C   0  0  0  0  0  0  0  0  0  0  0  0
    9.2715  -15.8331   21.5302 C   0  0  2  0  0  0  0  0  0  0  0  0
    9.3092  -15.9359   23.0343 N   0  0  0  0  0  0  0  0  0  0  0  0
   10.5591  -16.3636   21.1000 C   0  0  0  0  0  0  0  0  0  0  0  0
   10.8915  -16.3661   19.8539 O   0  0  0  0  0  0  0  0  0  0  0  0
   11.5818  -16.9108   21.9368 N   0  0  0  0  0  0  0  0  0  0  0  0
   12.8525  -17.3653   21.4819 C   0  0  0  0  0  0  0  0  0  0  0  0
   12.9222  -18.7440   20.9815 C   0  0  0  0  0  0  0  0  0  0  0  0
   11.9008  -19.4452   20.8830 O   0  0  0  0  0  0  0  0  0  0  0  0
   14.1378  -19.2899   20.6076 O   0  0  0  0  0  0  0  0  0  0  0  0
  2  1  1  1
  2 13  1  0
  2  3  1  0
  3  4  1  0
  4  5  2  0
  6  5  1  0
  7  6  1  0
  8  7  2  0
  9  8  1  0
 10  9  2  0
 10 11  1  0
 11 12  2  0
 12  7  1  0
 12  4  1  0
 13 20  1  0
 14 13  2  0
 16 18  1  0
 16 15  1  6
 17 16  1  0
 19 18  1  1
 20 19  1  0
 21 22  2  0
 21 19  1  0
 23 21  1  0
 24 25  1  0
 24 23  1  0
 25 27  1  0
 26 25  2  0
M  END
$$$$
