WLG.pdb
     RDKit          3D

 27 28  0  0  1  0  0  0  0  0999 V2000
    6.8369  -17.6139   25.7236 N   0  0  0  0  0  0  0  0  0  0  0  0
    7.3451  -16.3844   25.1565 C   0  0  1  0  0  0  0  0  0  0  0  0
    8.6864  -16.1048   25.8494 C   0  0  0  0  0  0  0  0  0  0  0  0
    8.4537  -15.0466   26.8719 C   0  0  0  0  0  0  0  0  0  0  0  0
    8.7715  -15.1000   28.2058 C   0  0  0  0  0  0  0  0  0  0  0  0
    8.3675  -13.9114   28.7283 N   0  0  0  0  0  0  0  0  0  0  0  0
    7.8221  -13.1405   27.7832 C   0  0  0  0  0  0  0  0  0  0  0  0
    7.2689  -11.8879   27.7529 C   0  0  0  0  0  0  0  0  0  0  0  0
    6.7831  -11.3629   26.5871 C   0  0  0  0  0  0  0  0  0  0  0  0
    6.8161  -12.0438   25.3881 C   0  0  0  0  0  0  0  0  0  0  0  0
    7.3730  -13.3089   25.4108 C   0  0  0  0  0  0  0  0  0  0  0  0
    7.8624  -13.8374   26.5859 C   0  0  0  0  0  0  0  0  0  0  0  0
    7.6168  -16.5048   23.7088 C   0  0  0  0  0  0  0  0  0  0  0  0
    7.4473  -17.6152   23.1550 O   0  0  0  0  0  0  0  0  0  0  0  0
    8.2037  -12.0044   19.6727 C   0  0  0  0  0  0  0  0  0  0  0  0
    7.9537  -13.4779   19.7575 C   0  0  2  0  0  0  0  0  0  0  0  0
    6.6332  -13.7895   19.0311 C   0  0  0  0  0  0  0  0  0  0  0  0
    7.9369  -13.9625   21.1456 C   0  0  0  0  0  0  0  0  0  0  0  0
    8.1515  -15.3806   21.4888 C   0  0  2  0  0  0  0  0  0  0  0  0
    8.0549  -15.3781   22.9937 N   0  0  0  0  0  0  0  0  0  0  0  0
    9.4252  -16.0320   21.2101 C   0  0  0  0  0  0  0  0  0  0  0  0
    9.6312  -16.6305   20.0864 O   0  0  0  0  0  0  0  0  0  0  0  0
   10.5634  -16.0907   22.0742 N   0  0  0  0  0  0  0  0  0  0  0  0
   11.8430  -16.5959   21.7058 C   0  0  0  0  0  0  0  0  0  0  0  0
   12.9179  -16.4623   22.6972 C   0  0  0  0  0  0  0  0  0  0  0  0
   12.6889  -16.0327   23.8408 O   0  0  0  0  0  0  0  0  0  0  0  0
   14.2156  -16.8162   22.3712 O   0  0  0  0  0  0  0  0  0  0  0  0
  2  1  1  1
  2 13  1  0
  2  3  1  0
  3  4  1  0
  4  5  2  0
  6  5  1  0
  7  6  1  0
  8  7  2  0
  9  8  1  0
 10  9  2  0
 10 11  1  0
 11 12  2  0
 12  7  1  0
 12  4  1  0
 13 20  1  0
 14 13  2  0
 16 18  1  0
 16 15  1  1
 17 16  1  0
 19 18  1  1
 20 19  1  0
 21 22  2  0
 21 19  1  0
 23 21  1  0
 24 25  1  0
 24 23  1  0
 25 27  1  0
 26 25  2  0
M  END
$$$$
