WLG.pdb
     RDKit          3D

 27 28  0  0  1  0  0  0  0  0999 V2000
    8.2944  -16.9256   25.0906 N   0  0  0  0  0  0  0  0  0  0  0  0
    7.1022  -16.9751   24.2734 C   0  0  1  0  0  0  0  0  0  0  0  0
    6.2466  -15.7649   24.6744 C   0  0  0  0  0  0  0  0  0  0  0  0
    7.0384  -14.9533   25.6407 C   0  0  0  0  0  0  0  0  0  0  0  0
    8.1951  -15.3230   26.2798 C   0  0  0  0  0  0  0  0  0  0  0  0
    8.5409  -14.2626   27.0576 N   0  0  0  0  0  0  0  0  0  0  0  0
    7.6564  -13.2703   26.9244 C   0  0  0  0  0  0  0  0  0  0  0  0
    7.5197  -12.0150   27.4551 C   0  0  0  0  0  0  0  0  0  0  0  0
    6.4669  -11.2153   27.1044 C   0  0  0  0  0  0  0  0  0  0  0  0
    5.4919  -11.6093   26.2119 C   0  0  0  0  0  0  0  0  0  0  0  0
    5.6232  -12.8752   25.6722 C   0  0  0  0  0  0  0  0  0  0  0  0
    6.6842  -13.6806   26.0259 C   0  0  0  0  0  0  0  0  0  0  0  0
    7.4037  -16.8404   22.8329 C   0  0  0  0  0  0  0  0  0  0  0  0
    6.4513  -16.7772   22.0221 O   0  0  0  0  0  0  0  0  0  0  0  0
    7.3770  -14.0088   19.6428 C   0  0  0  0  0  0  0  0  0  0  0  0
    7.5011  -14.0011   21.1345 C   0  0  2  0  0  0  0  0  0  0  0  0
    7.3524  -12.5508   21.6272 C   0  0  0  0  0  0  0  0  0  0  0  0
    8.7615  -14.6035   21.5932 C   0  0  0  0  0  0  0  0  0  0  0  0
    9.1659  -15.9704   21.2155 C   0  0  2  0  0  0  0  0  0  0  0  0
    8.7422  -16.7862   22.4110 N   0  0  0  0  0  0  0  0  0  0  0  0
   10.5713  -16.3085   21.0278 C   0  0  0  0  0  0  0  0  0  0  0  0
   11.2401  -15.8320   20.0334 O   0  0  0  0  0  0  0  0  0  0  0  0
   11.3682  -17.1500   21.8659 N   0  0  0  0  0  0  0  0  0  0  0  0
   11.4099  -18.5716   21.7921 C   0  0  0  0  0  0  0  0  0  0  0  0
   12.2437  -19.1553   20.7337 C   0  0  0  0  0  0  0  0  0  0  0  0
   11.8232  -19.2632   19.5691 O   0  0  0  0  0  0  0  0  0  0  0  0
   13.5235  -19.5988   21.0185 O   0  0  0  0  0  0  0  0  0  0  0  0
  2  1  1  1
  2 13  1  0
  2  3  1  0
  3  4  1  0
  4  5  2  0
  6  5  1  0
  7  6  1  0
  8  7  2  0
  9  8  1  0
 10  9  2  0
 10 11  1  0
 11 12  2  0
 12  7  1  0
 12  4  1  0
 13 20  1  0
 14 13  2  0
 16 18  1  0
 16 15  1  6
 17 16  1  0
 19 18  1  1
 20 19  1  0
 21 22  2  0
 21 19  1  0
 23 21  1  0
 24 25  1  0
 24 23  1  0
 25 27  1  0
 26 25  2  0
M  END
$$$$
