WLG.pdb
     RDKit          3D

 27 28  0  0  1  0  0  0  0  0999 V2000
    8.8999  -16.8090   25.0140 N   0  0  0  0  0  0  0  0  0  0  0  0
    7.6283  -17.1192   24.3987 C   0  0  1  0  0  0  0  0  0  0  0  0
    6.5727  -16.2749   25.1269 C   0  0  0  0  0  0  0  0  0  0  0  0
    7.2859  -15.4080   26.1063 C   0  0  0  0  0  0  0  0  0  0  0  0
    8.1866  -15.8060   27.0619 C   0  0  0  0  0  0  0  0  0  0  0  0
    8.5610  -14.6709   27.7103 N   0  0  0  0  0  0  0  0  0  0  0  0
    7.9359  -13.6065   27.1992 C   0  0  0  0  0  0  0  0  0  0  0  0
    7.9384  -12.2620   27.4606 C   0  0  0  0  0  0  0  0  0  0  0  0
    7.1604  -11.4039   26.7333 C   0  0  0  0  0  0  0  0  0  0  0  0
    6.3378  -11.8242   25.7090 C   0  0  0  0  0  0  0  0  0  0  0  0
    6.3300  -13.1801   25.4394 C   0  0  0  0  0  0  0  0  0  0  0  0
    7.1141  -14.0443   26.1726 C   0  0  0  0  0  0  0  0  0  0  0  0
    7.5875  -16.7364   22.9719 C   0  0  0  0  0  0  0  0  0  0  0  0
    6.5586  -16.9984   22.3078 O   0  0  0  0  0  0  0  0  0  0  0  0
    7.7948  -11.9923   20.2919 C   0  0  0  0  0  0  0  0  0  0  0  0
    7.7942  -13.4632   20.0148 C   0  0  2  0  0  0  0  0  0  0  0  0
    6.3339  -13.9424   19.9352 C   0  0  0  0  0  0  0  0  0  0  0  0
    8.5600  -14.2205   21.0158 C   0  0  0  0  0  0  0  0  0  0  0  0
    8.7161  -15.6853   20.9472 C   0  0  2  0  0  0  0  0  0  0  0  0
    8.6961  -16.0915   22.3993 N   0  0  0  0  0  0  0  0  0  0  0  0
    9.9377  -16.2825   20.4223 C   0  0  0  0  0  0  0  0  0  0  0  0
   10.1370  -16.3747   19.1515 O   0  0  0  0  0  0  0  0  0  0  0  0
   11.0289  -16.8076   21.1834 N   0  0  0  0  0  0  0  0  0  0  0  0
   12.1683  -17.4612   20.6331 C   0  0  0  0  0  0  0  0  0  0  0  0
   13.1766  -17.9463   21.5840 C   0  0  0  0  0  0  0  0  0  0  0  0
   12.8721  -18.7256   22.5031 O   0  0  0  0  0  0  0  0  0  0  0  0
   14.4948  -17.5399   21.4709 O   0  0  0  0  0  0  0  0  0  0  0  0
  2  1  1  1
  2 13  1  0
  2  3  1  0
  3  4  1  0
  4  5  2  0
  6  5  1  0
  7  6  1  0
  8  7  2  0
  9  8  1  0
 10  9  2  0
 10 11  1  0
 11 12  2  0
 12  7  1  0
 12  4  1  0
 13 20  1  0
 14 13  2  0
 16 18  1  0
 16 15  1  1
 17 16  1  0
 19 18  1  1
 20 19  1  0
 21 22  2  0
 21 19  1  0
 23 21  1  0
 24 25  1  0
 24 23  1  0
 25 27  1  0
 26 25  2  0
M  END
$$$$
