WLG.pdb
     RDKit          3D

 27 28  0  0  1  0  0  0  0  0999 V2000
    6.5419  -17.8007   24.3609 N   0  0  0  0  0  0  0  0  0  0  0  0
    7.1381  -16.5052   24.1201 C   0  0  1  0  0  0  0  0  0  0  0  0
    8.0426  -16.2093   25.3250 C   0  0  0  0  0  0  0  0  0  0  0  0
    7.2982  -15.2925   26.2332 C   0  0  0  0  0  0  0  0  0  0  0  0
    6.4428  -15.6454   27.2464 C   0  0  0  0  0  0  0  0  0  0  0  0
    6.0075  -14.4752   27.7851 N   0  0  0  0  0  0  0  0  0  0  0  0
    6.5529  -13.4322   27.1530 C   0  0  0  0  0  0  0  0  0  0  0  0
    6.4691  -12.0706   27.2771 C   0  0  0  0  0  0  0  0  0  0  0  0
    7.1776  -11.2451   26.4482 C   0  0  0  0  0  0  0  0  0  0  0  0
    8.0070  -11.7165   25.4521 C   0  0  0  0  0  0  0  0  0  0  0  0
    8.0967  -13.0897   25.3206 C   0  0  0  0  0  0  0  0  0  0  0  0
    7.3825  -13.9211   26.1562 C   0  0  0  0  0  0  0  0  0  0  0  0
    7.9955  -16.4975   22.9164 C   0  0  0  0  0  0  0  0  0  0  0  0
    8.2462  -17.5856   22.3492 O   0  0  0  0  0  0  0  0  0  0  0  0
    7.1746  -14.2799   18.9842 C   0  0  0  0  0  0  0  0  0  0  0  0
    7.5810  -13.4829   20.1843 C   0  0  2  0  0  0  0  0  0  0  0  0
    7.4757  -11.9881   19.8336 C   0  0  0  0  0  0  0  0  0  0  0  0
    8.9272  -13.8354   20.6592 C   0  0  0  0  0  0  0  0  0  0  0  0
    9.2647  -15.1875   21.1413 C   0  0  2  0  0  0  0  0  0  0  0  0
    8.5046  -15.2781   22.4405 N   0  0  0  0  0  0  0  0  0  0  0  0
   10.6348  -15.5321   21.5001 C   0  0  0  0  0  0  0  0  0  0  0  0
   11.5602  -15.5879   20.6036 O   0  0  0  0  0  0  0  0  0  0  0  0
   11.1279  -15.8270   22.8098 N   0  0  0  0  0  0  0  0  0  0  0  0
   12.4912  -16.0863   23.1297 C   0  0  0  0  0  0  0  0  0  0  0  0
   12.9052  -17.4946   23.1708 C   0  0  0  0  0  0  0  0  0  0  0  0
   12.1353  -18.4024   22.8132 O   0  0  0  0  0  0  0  0  0  0  0  0
   14.1714  -17.8369   23.6123 O   0  0  0  0  0  0  0  0  0  0  0  0
  2  1  1  1
  2 13  1  0
  2  3  1  0
  3  4  1  0
  4  5  2  0
  6  5  1  0
  7  6  1  0
  8  7  2  0
  9  8  1  0
 10  9  2  0
 10 11  1  0
 11 12  2  0
 12  7  1  0
 12  4  1  0
 13 20  1  0
 14 13  2  0
 16 18  1  0
 16 15  1  6
 17 16  1  0
 19 18  1  1
 20 19  1  0
 21 22  2  0
 21 19  1  0
 23 21  1  0
 24 25  1  0
 24 23  1  0
 25 27  1  0
 26 25  2  0
M  END
$$$$
