ATA.pdb
     RDKit          3D

 18 17  0  0  1  0  0  0  0  0999 V2000
    2.6551  -20.5959   19.5622 C   0  0  0  0  0  0  0  0  0  0  0  0
    3.7300  -19.6270   19.9870 C   0  0  2  0  0  0  0  0  0  0  0  0
    4.8317  -19.7314   19.0807 N   0  0  0  0  0  0  0  0  0  0  0  0
    4.1313  -19.8286   21.4045 C   0  0  0  0  0  0  0  0  0  0  0  0
    3.2752  -19.6916   22.3162 O   0  0  0  0  0  0  0  0  0  0  0  0
    5.8120  -22.8635   23.0848 C   0  0  0  0  0  0  0  0  0  0  0  0
    6.6620  -21.6361   23.3345 C   0  0  1  0  0  0  0  0  0  0  0  0
    7.7356  -21.6086   22.4416 O   0  0  0  0  0  0  0  0  0  0  0  0
    5.8175  -20.3640   23.1813 C   0  0  2  0  0  0  0  0  0  0  0  0
    5.4427  -20.1719   21.7972 N   0  0  0  0  0  0  0  0  0  0  0  0
    6.6406  -19.2423   23.6874 C   0  0  0  0  0  0  0  0  0  0  0  0
    7.4374  -18.7123   22.8858 O   0  0  0  0  0  0  0  0  0  0  0  0
    6.4878  -16.6308   26.2638 C   0  0  0  0  0  0  0  0  0  0  0  0
    7.3284  -17.6192   25.4911 C   0  0  2  0  0  0  0  0  0  0  0  0
    6.5773  -18.7418   25.0120 N   0  0  0  0  0  0  0  0  0  0  0  0
    8.3553  -18.1473   26.4480 C   0  0  0  0  0  0  0  0  0  0  0  0
    8.2584  -19.3409   26.7732 O   0  0  0  0  0  0  0  0  0  0  0  0
    9.3728  -17.3480   26.9541 O   0  0  0  0  0  0  0  0  0  0  0  0
  2  1  1  6
  3  2  1  0
  4 10  1  0
  4  2  1  0
  5  4  2  0
  7  6  1  6
  7  9  1  0
  7  8  1  0
  9 11  1  0
  9 10  1  6
 11 12  2  0
 14 13  1  1
 14 16  1  0
 15 14  1  0
 15 11  1  0
 16 18  1  0
 17 16  2  0
M  END
$$$$
