ATA.pdb
     RDKit          3D

 18 17  0  0  1  0  0  0  0  0999 V2000
    9.5911  -18.4142   15.9710 C   0  0  0  0  0  0  0  0  0  0  0  0
    9.6690  -16.9576   15.5878 C   0  0  2  0  0  0  0  0  0  0  0  0
   10.6752  -16.7963   14.5838 N   0  0  0  0  0  0  0  0  0  0  0  0
    9.8916  -16.0831   16.7696 C   0  0  0  0  0  0  0  0  0  0  0  0
   11.0670  -15.8149   17.1291 O   0  0  0  0  0  0  0  0  0  0  0  0
    8.1120  -12.9416   20.1866 C   0  0  0  0  0  0  0  0  0  0  0  0
    7.8324  -13.8662   19.0212 C   0  0  1  0  0  0  0  0  0  0  0  0
    7.4569  -13.1222   17.9004 O   0  0  0  0  0  0  0  0  0  0  0  0
    9.0740  -14.7092   18.7012 C   0  0  2  0  0  0  0  0  0  0  0  0
    8.8412  -15.5239   17.5285 N   0  0  0  0  0  0  0  0  0  0  0  0
    9.3478  -15.5364   19.8981 C   0  0  0  0  0  0  0  0  0  0  0  0
    8.5893  -16.5056   20.1075 O   0  0  0  0  0  0  0  0  0  0  0  0
   12.0395  -15.7912   22.5747 C   0  0  0  0  0  0  0  0  0  0  0  0
   10.7135  -16.1265   21.9347 C   0  0  2  0  0  0  0  0  0  0  0  0
   10.4072  -15.2949   20.8083 N   0  0  0  0  0  0  0  0  0  0  0  0
    9.6613  -15.8736   22.9730 C   0  0  0  0  0  0  0  0  0  0  0  0
    9.7036  -16.5730   23.9972 O   0  0  0  0  0  0  0  0  0  0  0  0
    8.6795  -14.9044   22.8083 O   0  0  0  0  0  0  0  0  0  0  0  0
  2  1  1  1
  3  2  1  0
  4 10  1  0
  4  2  1  0
  5  4  2  0
  7  6  1  1
  7  9  1  0
  7  8  1  0
  9 11  1  0
  9 10  1  6
 11 12  2  0
 14 13  1  1
 14 16  1  0
 15 14  1  0
 15 11  1  0
 16 18  1  0
 17 16  2  0
M  END
$$$$
