ATA.pdb
     RDKit          3D

 18 17  0  0  1  0  0  0  0  0999 V2000
    8.5603  -12.3490   18.0372 C   0  0  0  0  0  0  0  0  0  0  0  0
    8.5887  -13.8397   17.8105 C   0  0  2  0  0  0  0  0  0  0  0  0
    7.9297  -14.1327   16.5751 N   0  0  0  0  0  0  0  0  0  0  0  0
    8.0135  -14.5878   18.9597 C   0  0  0  0  0  0  0  0  0  0  0  0
    6.7641  -14.6663   19.0847 O   0  0  0  0  0  0  0  0  0  0  0  0
    7.9421  -18.0670   19.6586 C   0  0  0  0  0  0  0  0  0  0  0  0
    8.5949  -17.4755   20.8896 C   0  0  1  0  0  0  0  0  0  0  0  0
    9.9818  -17.6197   20.8110 O   0  0  0  0  0  0  0  0  0  0  0  0
    8.2270  -15.9919   21.0260 C   0  0  2  0  0  0  0  0  0  0  0  0
    8.8015  -15.2286   19.9396 N   0  0  0  0  0  0  0  0  0  0  0  0
    8.7389  -15.5449   22.3412 C   0  0  0  0  0  0  0  0  0  0  0  0
    9.9325  -15.1831   22.3959 O   0  0  0  0  0  0  0  0  0  0  0  0
    7.2764  -14.5792   25.6954 C   0  0  0  0  0  0  0  0  0  0  0  0
    8.4106  -14.9503   24.7701 C   0  0  2  0  0  0  0  0  0  0  0  0
    7.9628  -15.5043   23.5266 N   0  0  0  0  0  0  0  0  0  0  0  0
    9.2033  -16.0135   25.4704 C   0  0  0  0  0  0  0  0  0  0  0  0
    9.1000  -17.1704   25.0335 O   0  0  0  0  0  0  0  0  0  0  0  0
   10.0191  -15.7299   26.5587 O   0  0  0  0  0  0  0  0  0  0  0  0
  2  1  1  1
  3  2  1  0
  4 10  1  0
  4  2  1  0
  5  4  2  0
  7  6  1  6
  7  9  1  0
  7  8  1  0
  9 11  1  0
  9 10  1  6
 11 12  2  0
 14 13  1  1
 14 16  1  0
 15 14  1  0
 15 11  1  0
 16 18  1  0
 17 16  2  0
M  END
$$$$
