ATA.pdb
     RDKit          3D

 18 17  0  0  1  0  0  0  0  0999 V2000
   12.7883  -16.6827   18.5988 C   0  0  0  0  0  0  0  0  0  0  0  0
   12.4085  -15.2352   18.4115 C   0  0  2  0  0  0  0  0  0  0  0  0
   13.5917  -14.4771   18.1440 N   0  0  0  0  0  0  0  0  0  0  0  0
   11.6384  -14.7084   19.5693 C   0  0  0  0  0  0  0  0  0  0  0  0
   12.2459  -14.1227   20.5025 O   0  0  0  0  0  0  0  0  0  0  0  0
    8.0504  -12.7522   19.2817 C   0  0  0  0  0  0  0  0  0  0  0  0
    8.0534  -13.8921   20.2776 C   0  0  1  0  0  0  0  0  0  0  0  0
    7.4932  -15.0333   19.6994 O   0  0  0  0  0  0  0  0  0  0  0  0
    9.4853  -14.1874   20.7439 C   0  0  2  0  0  0  0  0  0  0  0  0
   10.2371  -14.8283   19.6870 N   0  0  0  0  0  0  0  0  0  0  0  0
    9.3743  -15.0523   21.9402 C   0  0  0  0  0  0  0  0  0  0  0  0
    9.6073  -16.2693   21.7880 O   0  0  0  0  0  0  0  0  0  0  0  0
    8.5666  -14.6480   25.6438 C   0  0  0  0  0  0  0  0  0  0  0  0
    8.8913  -15.4214   24.3880 C   0  0  2  0  0  0  0  0  0  0  0  0
    9.0234  -14.5851   23.2316 N   0  0  0  0  0  0  0  0  0  0  0  0
    7.7332  -16.3416   24.1410 C   0  0  0  0  0  0  0  0  0  0  0  0
    6.9877  -16.0629   23.1889 O   0  0  0  0  0  0  0  0  0  0  0  0
    7.4949  -17.4575   24.9336 O   0  0  0  0  0  0  0  0  0  0  0  0
  2  1  1  1
  3  2  1  0
  4 10  1  0
  4  2  1  0
  5  4  2  0
  7  6  1  6
  7  9  1  0
  7  8  1  0
  9 11  1  0
  9 10  1  6
 11 12  2  0
 14 13  1  1
 14 16  1  0
 15 14  1  0
 15 11  1  0
 16 18  1  0
 17 16  2  0
M  END
$$$$
