ATA.pdb
     RDKit          3D

 18 17  0  0  1  0  0  0  0  0999 V2000
   -0.2278  -25.2400   28.9493 C   0  0  0  0  0  0  0  0  0  0  0  0
   -1.1821  -26.2581   29.5213 C   0  0  2  0  0  0  0  0  0  0  0  0
   -0.7640  -27.5642   29.1144 N   0  0  0  0  0  0  0  0  0  0  0  0
   -2.5928  -25.9660   29.1529 C   0  0  0  0  0  0  0  0  0  0  0  0
   -2.9397  -26.0122   27.9444 O   0  0  0  0  0  0  0  0  0  0  0  0
   -5.7626  -27.7841   30.2151 C   0  0  0  0  0  0  0  0  0  0  0  0
   -5.8735  -26.3313   30.6256 C   0  0  1  0  0  0  0  0  0  0  0  0
   -5.5087  -26.1843   31.9657 O   0  0  0  0  0  0  0  0  0  0  0  0
   -4.9775  -25.4577   29.7375 C   0  0  2  0  0  0  0  0  0  0  0  0
   -3.5872  -25.6329   30.0973 N   0  0  0  0  0  0  0  0  0  0  0  0
   -5.4215  -24.0585   29.9293 C   0  0  0  0  0  0  0  0  0  0  0  0
   -4.9155  -23.4243   30.8782 O   0  0  0  0  0  0  0  0  0  0  0  0
   -7.7328  -21.5634   28.2174 C   0  0  0  0  0  0  0  0  0  0  0  0
   -6.8929  -22.0920   29.3556 C   0  0  2  0  0  0  0  0  0  0  0  0
   -6.3753  -23.4055   29.1089 N   0  0  0  0  0  0  0  0  0  0  0  0
   -7.7988  -22.1879   30.5470 C   0  0  0  0  0  0  0  0  0  0  0  0
   -8.2049  -21.1199   31.0310 O   0  0  0  0  0  0  0  0  0  0  0  0
   -8.1736  -23.4093   31.0930 O   0  0  0  0  0  0  0  0  0  0  0  0
  2  1  1  6
  3  2  1  0
  4 10  1  0
  4  2  1  0
  5  4  2  0
  7  6  1  6
  7  9  1  0
  7  8  1  0
  9 11  1  0
  9 10  1  1
 11 12  2  0
 14 13  1  6
 14 16  1  0
 15 14  1  0
 15 11  1  0
 16 18  1  0
 17 16  2  0
M  END
$$$$
