ATA.pdb
     RDKit          3D

 18 17  0  0  1  0  0  0  0  0999 V2000
   13.2501  -14.7549   20.7390 C   0  0  0  0  0  0  0  0  0  0  0  0
   11.9637  -15.4971   20.4769 C   0  0  2  0  0  0  0  0  0  0  0  0
   11.5097  -15.1847   19.1569 N   0  0  0  0  0  0  0  0  0  0  0  0
   10.9390  -15.2178   21.5177 C   0  0  0  0  0  0  0  0  0  0  0  0
   10.1154  -14.2833   21.3411 O   0  0  0  0  0  0  0  0  0  0  0  0
    8.0740  -17.2792   22.6164 C   0  0  0  0  0  0  0  0  0  0  0  0
    8.9450  -17.0439   23.8319 C   0  0  1  0  0  0  0  0  0  0  0  0
    9.8046  -18.1283   24.0210 O   0  0  0  0  0  0  0  0  0  0  0  0
    9.7564  -15.7524   23.6630 C   0  0  2  0  0  0  0  0  0  0  0  0
   10.8325  -15.9537   22.7173 N   0  0  0  0  0  0  0  0  0  0  0  0
   10.2661  -15.3906   25.0051 C   0  0  0  0  0  0  0  0  0  0  0  0
   11.4015  -15.8066   25.3153 O   0  0  0  0  0  0  0  0  0  0  0  0
    9.2196  -13.1310   27.8788 C   0  0  0  0  0  0  0  0  0  0  0  0
   10.0699  -14.1860   27.2122 C   0  0  2  0  0  0  0  0  0  0  0  0
    9.5493  -14.6095   25.9458 N   0  0  0  0  0  0  0  0  0  0  0  0
   10.0586  -15.3804   28.1191 C   0  0  0  0  0  0  0  0  0  0  0  0
    9.4146  -16.3698   27.7366 O   0  0  0  0  0  0  0  0  0  0  0  0
   10.7334  -15.3916   29.3335 O   0  0  0  0  0  0  0  0  0  0  0  0
  2  1  1  1
  3  2  1  0
  4 10  1  0
  4  2  1  0
  5  4  2  0
  7  6  1  6
  7  9  1  0
  7  8  1  0
  9 11  1  0
  9 10  1  6
 11 12  2  0
 14 13  1  1
 14 16  1  0
 15 14  1  0
 15 11  1  0
 16 18  1  0
 17 16  2  0
M  END
$$$$
