LWS.pdb
     RDKit          3D

 29 30  0  0  1  0  0  0  0  0999 V2000
   13.4829  -22.6494    1.2688 C   0  0  0  0  0  0  0  0  0  0  0  0
   14.6763  -23.2139    0.4859 C   0  0  2  0  0  0  0  0  0  0  0  0
   14.5497  -24.7100    0.5266 C   0  0  0  0  0  0  0  0  0  0  0  0
   15.9085  -22.6891    1.1226 C   0  0  0  0  0  0  0  0  0  0  0  0
   16.0532  -21.1975    1.1004 C   0  0  2  0  0  0  0  0  0  0  0  0
   16.2962  -20.8007   -0.2766 N   0  0  0  0  0  0  0  0  0  0  0  0
   17.1171  -20.6777    1.9919 C   0  0  0  0  0  0  0  0  0  0  0  0
   18.3348  -20.8598    1.7514 O   0  0  0  0  0  0  0  0  0  0  0  0
   16.8145  -19.9341    3.1876 N   0  0  0  0  0  0  0  0  0  0  0  0
   17.8709  -19.3995    4.0093 C   0  0  1  0  0  0  0  0  0  0  0  0
   17.6167  -17.9986    4.4322 C   0  0  0  0  0  0  0  0  0  0  0  0
   18.1033  -16.9502    3.5206 C   0  0  0  0  0  0  0  0  0  0  0  0
   17.3867  -15.7986    3.1362 C   0  0  0  0  0  0  0  0  0  0  0  0
   18.1616  -15.0667    2.3270 N   0  0  0  0  0  0  0  0  0  0  0  0
   19.3545  -15.6565    2.1441 C   0  0  0  0  0  0  0  0  0  0  0  0
   20.4472  -15.2819    1.3962 C   0  0  0  0  0  0  0  0  0  0  0  0
   21.5435  -16.1070    1.3873 C   0  0  0  0  0  0  0  0  0  0  0  0
   21.5371  -17.2717    2.1094 C   0  0  0  0  0  0  0  0  0  0  0  0
   20.4359  -17.6285    2.8507 C   0  0  0  0  0  0  0  0  0  0  0  0
   19.3186  -16.8372    2.8915 C   0  0  0  0  0  0  0  0  0  0  0  0
   17.9925  -20.2421    5.2549 C   0  0  0  0  0  0  0  0  0  0  0  0
   16.9652  -20.8011    5.7254 O   0  0  0  0  0  0  0  0  0  0  0  0
   21.1281  -22.7669    6.7266 O   0  0  0  0  0  0  0  0  0  0  0  0
   20.7218  -21.6626    7.4658 C   0  0  0  0  0  0  0  0  0  0  0  0
   19.3404  -21.2363    7.1260 C   0  0  2  0  0  0  0  0  0  0  0  0
   19.2064  -20.4483    5.9398 N   0  0  0  0  0  0  0  0  0  0  0  0
   18.8499  -20.3990    8.2800 C   0  0  0  0  0  0  0  0  0  0  0  0
   18.5628  -19.2138    8.0494 O   0  0  0  0  0  0  0  0  0  0  0  0
   18.7154  -20.9036    9.5538 O   0  0  0  0  0  0  0  0  0  0  0  0
  2  1  1  1
  2  3  1  0
  4  2  1  0
  5  4  1  0
  5  6  1  6
  7  8  2  0
  7  5  1  0
  9  7  1  0
 10  9  1  0
 10 11  1  1
 11 12  1  0
 12 20  1  0
 12 13  2  0
 13 14  1  0
 15 14  1  0
 15 16  2  0
 17 16  1  0
 18 17  2  0
 19 20  2  0
 19 18  1  0
 20 15  1  0
 21 22  2  0
 21 10  1  0
 24 23  1  0
 25 24  1  1
 25 26  1  0
 26 21  1  0
 27 25  1  0
 28 27  2  0
 29 27  1  0
M  END
$$$$
