LWS.pdb
     RDKit          3D

 29 30  0  0  1  0  0  0  0  0999 V2000
   29.0257  -18.0843  -15.6178 C   0  0  0  0  0  0  0  0  0  0  0  0
   27.7811  -18.7075  -16.2649 C   0  0  2  0  0  0  0  0  0  0  0  0
   27.0444  -17.5901  -16.9464 C   0  0  0  0  0  0  0  0  0  0  0  0
   27.0125  -19.3759  -15.1870 C   0  0  0  0  0  0  0  0  0  0  0  0
   27.7652  -20.4199  -14.4191 C   0  0  2  0  0  0  0  0  0  0  0  0
   27.9299  -21.5718  -15.2902 N   0  0  0  0  0  0  0  0  0  0  0  0
   27.1235  -20.8148  -13.1427 C   0  0  0  0  0  0  0  0  0  0  0  0
   26.1991  -21.6617  -13.0966 O   0  0  0  0  0  0  0  0  0  0  0  0
   27.5232  -20.2478  -11.8806 N   0  0  0  0  0  0  0  0  0  0  0  0
   26.8354  -20.6003  -10.6642 C   0  0  1  0  0  0  0  0  0  0  0  0
   27.4647  -20.0081   -9.4562 C   0  0  0  0  0  0  0  0  0  0  0  0
   26.8405  -20.3519   -8.1682 C   0  0  0  0  0  0  0  0  0  0  0  0
   25.6019  -21.0050   -8.0041 C   0  0  0  0  0  0  0  0  0  0  0  0
   25.3810  -21.1737   -6.6950 N   0  0  0  0  0  0  0  0  0  0  0  0
   26.3951  -20.6735   -5.9700 C   0  0  0  0  0  0  0  0  0  0  0  0
   26.5947  -20.6121   -4.6098 C   0  0  0  0  0  0  0  0  0  0  0  0
   27.7413  -20.0177   -4.1465 C   0  0  0  0  0  0  0  0  0  0  0  0
   28.6562  -19.5021   -5.0271 C   0  0  0  0  0  0  0  0  0  0  0  0
   28.4389  -19.5733   -6.3825 C   0  0  0  0  0  0  0  0  0  0  0  0
   27.3100  -20.1578   -6.8925 C   0  0  0  0  0  0  0  0  0  0  0  0
   25.4172  -20.0912  -10.7418 C   0  0  0  0  0  0  0  0  0  0  0  0
   25.2003  -18.8520  -10.6603 O   0  0  0  0  0  0  0  0  0  0  0  0
   22.5416  -22.4846  -12.4870 O   0  0  0  0  0  0  0  0  0  0  0  0
   22.4207  -21.1004  -12.5004 C   0  0  0  0  0  0  0  0  0  0  0  0
   22.9950  -20.4743  -11.2823 C   0  0  2  0  0  0  0  0  0  0  0  0
   24.2968  -20.9300  -10.9033 N   0  0  0  0  0  0  0  0  0  0  0  0
   22.0571  -20.7971  -10.1467 C   0  0  0  0  0  0  0  0  0  0  0  0
   20.8733  -20.4418  -10.2598 O   0  0  0  0  0  0  0  0  0  0  0  0
   22.4705  -21.4605   -9.0134 O   0  0  0  0  0  0  0  0  0  0  0  0
  2  1  1  1
  2  3  1  0
  4  2  1  0
  5  4  1  0
  5  6  1  6
  7  8  2  0
  7  5  1  0
  9  7  1  0
 10  9  1  0
 10 11  1  1
 11 12  1  0
 12 20  1  0
 12 13  2  0
 13 14  1  0
 15 14  1  0
 15 16  2  0
 17 16  1  0
 18 17  2  0
 19 20  2  0
 19 18  1  0
 20 15  1  0
 21 22  2  0
 21 10  1  0
 24 23  1  0
 25 24  1  6
 25 26  1  0
 26 21  1  0
 27 25  1  0
 28 27  2  0
 29 27  1  0
M  END
$$$$
