LWS.pdb
     RDKit          3D

 29 30  0  0  1  0  0  0  0  0999 V2000
   19.2410  -31.0700  -16.7444 C   0  0  0  0  0  0  0  0  0  0  0  0
   20.6880  -31.5733  -16.8384 C   0  0  2  0  0  0  0  0  0  0  0  0
   20.6163  -33.0193  -17.2383 C   0  0  0  0  0  0  0  0  0  0  0  0
   21.3230  -31.3367  -15.5193 C   0  0  0  0  0  0  0  0  0  0  0  0
   21.3621  -29.9052  -15.0770 C   0  0  2  0  0  0  0  0  0  0  0  0
   22.4661  -29.2620  -15.7700 N   0  0  0  0  0  0  0  0  0  0  0  0
   21.4871  -29.7263  -13.6111 C   0  0  0  0  0  0  0  0  0  0  0  0
   22.5601  -29.9533  -13.0019 O   0  0  0  0  0  0  0  0  0  0  0  0
   20.3829  -29.2824  -12.7999 N   0  0  0  0  0  0  0  0  0  0  0  0
   20.5331  -29.1226  -11.3755 C   0  0  1  0  0  0  0  0  0  0  0  0
   19.7454  -27.9834  -10.8391 C   0  0  0  0  0  0  0  0  0  0  0  0
   20.0665  -26.6581  -11.3934 C   0  0  0  0  0  0  0  0  0  0  0  0
   21.1735  -26.3567  -12.2127 C   0  0  0  0  0  0  0  0  0  0  0  0
   21.1157  -25.0617  -12.5450 N   0  0  0  0  0  0  0  0  0  0  0  0
   20.0380  -24.4748  -11.9988 C   0  0  0  0  0  0  0  0  0  0  0  0
   19.5844  -23.1769  -12.0560 C   0  0  0  0  0  0  0  0  0  0  0  0
   18.4384  -22.8573  -11.3723 C   0  0  0  0  0  0  0  0  0  0  0  0
   17.7724  -23.8161  -10.6545 C   0  0  0  0  0  0  0  0  0  0  0  0
   18.2413  -25.1074  -10.6097 C   0  0  0  0  0  0  0  0  0  0  0  0
   19.3802  -25.4746  -11.2764 C   0  0  0  0  0  0  0  0  0  0  0  0
   20.0519  -30.3784  -10.6914 C   0  0  0  0  0  0  0  0  0  0  0  0
   18.9210  -30.8494  -10.9888 O   0  0  0  0  0  0  0  0  0  0  0  0
   22.4204  -32.1817   -7.8557 O   0  0  0  0  0  0  0  0  0  0  0  0
   21.4371  -33.0281   -8.3533 C   0  0  0  0  0  0  0  0  0  0  0  0
   20.3851  -32.2906   -9.0981 C   0  0  2  0  0  0  0  0  0  0  0  0
   20.8019  -31.0725   -9.7215 N   0  0  0  0  0  0  0  0  0  0  0  0
   19.3123  -31.9400   -8.0982 C   0  0  0  0  0  0  0  0  0  0  0  0
   19.0178  -30.7415   -7.9672 O   0  0  0  0  0  0  0  0  0  0  0  0
   18.6659  -32.8932   -7.3439 O   0  0  0  0  0  0  0  0  0  0  0  0
  2  1  1  1
  2  3  1  0
  4  2  1  0
  5  4  1  0
  5  6  1  6
  7  8  2  0
  7  5  1  0
  9  7  1  0
 10  9  1  0
 10 11  1  1
 11 12  1  0
 12 20  1  0
 12 13  2  0
 13 14  1  0
 15 14  1  0
 15 16  2  0
 17 16  1  0
 18 17  2  0
 19 20  2  0
 19 18  1  0
 20 15  1  0
 21 22  2  0
 21 10  1  0
 24 23  1  0
 25 24  1  1
 25 26  1  0
 26 21  1  0
 27 25  1  0
 28 27  2  0
 29 27  1  0
M  END
$$$$
