LWS.pdb
     RDKit          3D

 29 30  0  0  1  0  0  0  0  0999 V2000
   29.2724  -23.0492  -18.4968 C   0  0  0  0  0  0  0  0  0  0  0  0
   29.8369  -22.7375  -17.1039 C   0  0  2  0  0  0  0  0  0  0  0  0
   31.0356  -23.6230  -16.9165 C   0  0  0  0  0  0  0  0  0  0  0  0
   28.7477  -22.9713  -16.1250 C   0  0  0  0  0  0  0  0  0  0  0  0
   27.5749  -22.0455  -16.2414 C   0  0  2  0  0  0  0  0  0  0  0  0
   28.0943  -20.7005  -16.4263 N   0  0  0  0  0  0  0  0  0  0  0  0
   26.6457  -22.0951  -15.0878 C   0  0  0  0  0  0  0  0  0  0  0  0
   26.1994  -23.1783  -14.6388 O   0  0  0  0  0  0  0  0  0  0  0  0
   26.1997  -20.9020  -14.4156 N   0  0  0  0  0  0  0  0  0  0  0  0
   25.2596  -20.9785  -13.3260 C   0  0  1  0  0  0  0  0  0  0  0  0
   25.4959  -19.9413  -12.2895 C   0  0  0  0  0  0  0  0  0  0  0  0
   26.1267  -20.4054  -11.0431 C   0  0  0  0  0  0  0  0  0  0  0  0
   25.4632  -20.6230   -9.8184 C   0  0  0  0  0  0  0  0  0  0  0  0
   26.3546  -21.0711   -8.9264 N   0  0  0  0  0  0  0  0  0  0  0  0
   27.5760  -21.1672   -9.4769 C   0  0  0  0  0  0  0  0  0  0  0  0
   28.7821  -21.5643   -8.9464 C   0  0  0  0  0  0  0  0  0  0  0  0
   29.8879  -21.5461   -9.7587 C   0  0  0  0  0  0  0  0  0  0  0  0
   29.7797  -21.1406  -11.0633 C   0  0  0  0  0  0  0  0  0  0  0  0
   28.5659  -20.7479  -11.5750 C   0  0  0  0  0  0  0  0  0  0  0  0
   27.4342  -20.7498  -10.8034 C   0  0  0  0  0  0  0  0  0  0  0  0
   23.8666  -20.7776  -13.8700 C   0  0  0  0  0  0  0  0  0  0  0  0
   23.7128  -20.1788  -14.9687 O   0  0  0  0  0  0  0  0  0  0  0  0
   21.2478  -23.9369  -13.7111 O   0  0  0  0  0  0  0  0  0  0  0  0
   21.4736  -22.8764  -14.5801 C   0  0  0  0  0  0  0  0  0  0  0  0
   21.4829  -21.5674  -13.8788 C   0  0  2  0  0  0  0  0  0  0  0  0
   22.7029  -21.2260  -13.2146 N   0  0  0  0  0  0  0  0  0  0  0  0
   20.4020  -21.6311  -12.8294 C   0  0  0  0  0  0  0  0  0  0  0  0
   19.2367  -21.8155  -13.2146 O   0  0  0  0  0  0  0  0  0  0  0  0
   20.6682  -21.4931  -11.4857 O   0  0  0  0  0  0  0  0  0  0  0  0
  2  1  1  6
  2  3  1  0
  4  2  1  0
  5  4  1  0
  5  6  1  1
  7  8  2  0
  7  5  1  0
  9  7  1  0
 10  9  1  0
 10 11  1  1
 11 12  1  0
 12 20  1  0
 12 13  2  0
 13 14  1  0
 15 14  1  0
 15 16  2  0
 17 16  1  0
 18 17  2  0
 19 20  2  0
 19 18  1  0
 20 15  1  0
 21 22  2  0
 21 10  1  0
 24 23  1  0
 25 24  1  1
 25 26  1  0
 26 21  1  0
 27 25  1  0
 28 27  2  0
 29 27  1  0
M  END
$$$$
