LWS.pdb
     RDKit          3D

 29 30  0  0  1  0  0  0  0  0999 V2000
   20.3008  -13.4147  -19.4891 C   0  0  0  0  0  0  0  0  0  0  0  0
   20.4430  -14.0082  -18.0808 C   0  0  2  0  0  0  0  0  0  0  0  0
   19.0832  -14.5079  -17.6843 C   0  0  0  0  0  0  0  0  0  0  0  0
   20.9786  -12.9386  -17.2042 C   0  0  0  0  0  0  0  0  0  0  0  0
   22.3192  -12.3990  -17.6014 C   0  0  2  0  0  0  0  0  0  0  0  0
   23.2848  -13.4763  -17.4613 N   0  0  0  0  0  0  0  0  0  0  0  0
   22.7465  -11.2076  -16.8302 C   0  0  0  0  0  0  0  0  0  0  0  0
   22.9889  -11.2625  -15.6005 O   0  0  0  0  0  0  0  0  0  0  0  0
   22.9072   -9.9165  -17.4479 N   0  0  0  0  0  0  0  0  0  0  0  0
   23.3413   -8.7798  -16.6756 C   0  0  1  0  0  0  0  0  0  0  0  0
   24.5230   -8.1013  -17.2667 C   0  0  0  0  0  0  0  0  0  0  0  0
   25.7497   -8.9090  -17.3646 C   0  0  0  0  0  0  0  0  0  0  0  0
   26.6097   -8.9644  -18.4803 C   0  0  0  0  0  0  0  0  0  0  0  0
   27.6320   -9.7772  -18.1884 N   0  0  0  0  0  0  0  0  0  0  0  0
   27.5110  -10.2714  -16.9453 C   0  0  0  0  0  0  0  0  0  0  0  0
   28.3047  -11.1410  -16.2329 C   0  0  0  0  0  0  0  0  0  0  0  0
   27.9153  -11.4859  -14.9631 C   0  0  0  0  0  0  0  0  0  0  0  0
   26.7629  -10.9701  -14.4301 C   0  0  0  0  0  0  0  0  0  0  0  0
   25.9835  -10.1025  -15.1575 C   0  0  0  0  0  0  0  0  0  0  0  0
   26.3312   -9.7281  -16.4284 C   0  0  0  0  0  0  0  0  0  0  0  0
   22.2168   -7.7757  -16.6130 C   0  0  0  0  0  0  0  0  0  0  0  0
   21.5300   -7.5521  -17.6461 O   0  0  0  0  0  0  0  0  0  0  0  0
   19.5465   -7.1010  -13.5878 O   0  0  0  0  0  0  0  0  0  0  0  0
   20.1967   -5.9509  -14.0185 C   0  0  0  0  0  0  0  0  0  0  0  0
   20.8030   -6.1184  -15.3638 C   0  0  2  0  0  0  0  0  0  0  0  0
   21.8785   -7.0576  -15.4490 N   0  0  0  0  0  0  0  0  0  0  0  0
   21.3497   -4.7710  -15.7627 C   0  0  0  0  0  0  0  0  0  0  0  0
   22.5596   -4.6974  -16.0295 O   0  0  0  0  0  0  0  0  0  0  0  0
   20.5597   -3.6460  -15.8368 O   0  0  0  0  0  0  0  0  0  0  0  0
  2  1  1  6
  2  3  1  0
  4  2  1  0
  5  4  1  0
  5  6  1  1
  7  8  2  0
  7  5  1  0
  9  7  1  0
 10  9  1  0
 10 11  1  6
 11 12  1  0
 12 20  1  0
 12 13  2  0
 13 14  1  0
 15 14  1  0
 15 16  2  0
 17 16  1  0
 18 17  2  0
 19 20  2  0
 19 18  1  0
 20 15  1  0
 21 22  2  0
 21 10  1  0
 24 23  1  0
 25 24  1  1
 25 26  1  0
 26 21  1  0
 27 25  1  0
 28 27  2  0
 29 27  1  0
M  END
$$$$
