LWS.pdb
     RDKit          3D

 29 30  0  0  1  0  0  0  0  0999 V2000
   16.2401  -28.2903   -3.7276 C   0  0  0  0  0  0  0  0  0  0  0  0
   17.5129  -27.4989   -3.3966 C   0  0  2  0  0  0  0  0  0  0  0  0
   18.4740  -28.4696   -2.7722 C   0  0  0  0  0  0  0  0  0  0  0  0
   17.1164  -26.3783   -2.5099 C   0  0  0  0  0  0  0  0  0  0  0  0
   16.1649  -25.3910   -3.1149 C   0  0  2  0  0  0  0  0  0  0  0  0
   16.8299  -24.7833   -4.2557 N   0  0  0  0  0  0  0  0  0  0  0  0
   15.6868  -24.3525   -2.1717 C   0  0  0  0  0  0  0  0  0  0  0  0
   16.3673  -23.3333   -1.9031 O   0  0  0  0  0  0  0  0  0  0  0  0
   14.4131  -24.4538   -1.5073 N   0  0  0  0  0  0  0  0  0  0  0  0
   13.9577  -23.4090   -0.6251 C   0  0  1  0  0  0  0  0  0  0  0  0
   12.5318  -23.0547   -0.8424 C   0  0  0  0  0  0  0  0  0  0  0  0
   12.2737  -21.6986   -1.3534 C   0  0  0  0  0  0  0  0  0  0  0  0
   12.1029  -21.3503   -2.7087 C   0  0  0  0  0  0  0  0  0  0  0  0
   11.8561  -20.0370   -2.7817 N   0  0  0  0  0  0  0  0  0  0  0  0
   11.8512  -19.4820   -1.5585 C   0  0  0  0  0  0  0  0  0  0  0  0
   11.6559  -18.1817   -1.1525 C   0  0  0  0  0  0  0  0  0  0  0  0
   11.7239  -17.9018    0.1891 C   0  0  0  0  0  0  0  0  0  0  0  0
   11.9804  -18.9013    1.0910 C   0  0  0  0  0  0  0  0  0  0  0  0
   12.1723  -20.1942    0.6657 C   0  0  0  0  0  0  0  0  0  0  0  0
   12.1133  -20.5226   -0.6628 C   0  0  0  0  0  0  0  0  0  0  0  0
   14.1038  -23.8783    0.8014 C   0  0  0  0  0  0  0  0  0  0  0  0
   13.8151  -25.0705    1.0922 O   0  0  0  0  0  0  0  0  0  0  0  0
   16.7743  -22.4183    3.6234 O   0  0  0  0  0  0  0  0  0  0  0  0
   15.4770  -22.5854    4.0926 C   0  0  0  0  0  0  0  0  0  0  0  0
   14.6710  -23.4701    3.2134 C   0  0  2  0  0  0  0  0  0  0  0  0
   14.5520  -23.0518    1.8506 N   0  0  0  0  0  0  0  0  0  0  0  0
   13.2805  -23.5078    3.7954 C   0  0  0  0  0  0  0  0  0  0  0  0
   12.3508  -23.0828    3.0916 O   0  0  0  0  0  0  0  0  0  0  0  0
   13.0216  -23.9902    5.0585 O   0  0  0  0  0  0  0  0  0  0  0  0
  2  1  1  1
  2  3  1  0
  4  2  1  0
  5  4  1  0
  5  6  1  6
  7  8  2  0
  7  5  1  0
  9  7  1  0
 10  9  1  0
 10 11  1  6
 11 12  1  0
 12 20  1  0
 12 13  2  0
 13 14  1  0
 15 14  1  0
 15 16  2  0
 17 16  1  0
 18 17  2  0
 19 20  2  0
 19 18  1  0
 20 15  1  0
 21 22  2  0
 21 10  1  0
 24 23  1  0
 25 24  1  1
 25 26  1  0
 26 21  1  0
 27 25  1  0
 28 27  2  0
 29 27  1  0
M  END
$$$$
