LWS.pdb
     RDKit          3D

 29 30  0  0  1  0  0  0  0  0999 V2000
   22.7421  -19.6047  -16.1596 C   0  0  0  0  0  0  0  0  0  0  0  0
   24.1134  -20.2576  -15.9375 C   0  0  2  0  0  0  0  0  0  0  0  0
   24.3305  -21.2045  -17.0830 C   0  0  0  0  0  0  0  0  0  0  0  0
   24.0801  -20.9096  -14.6060 C   0  0  0  0  0  0  0  0  0  0  0  0
   23.8225  -19.9900  -13.4509 C   0  0  2  0  0  0  0  0  0  0  0  0
   24.6592  -18.8151  -13.6304 N   0  0  0  0  0  0  0  0  0  0  0  0
   24.0576  -20.6037  -12.1225 C   0  0  0  0  0  0  0  0  0  0  0  0
   23.5562  -21.7080  -11.8013 O   0  0  0  0  0  0  0  0  0  0  0  0
   24.8746  -19.9670  -11.1219 N   0  0  0  0  0  0  0  0  0  0  0  0
   25.0247  -20.5510   -9.8129 C   0  0  1  0  0  0  0  0  0  0  0  0
   26.0235  -19.8376   -8.9767 C   0  0  0  0  0  0  0  0  0  0  0  0
   26.2724  -20.4058   -7.6418 C   0  0  0  0  0  0  0  0  0  0  0  0
   25.6703  -21.5683   -7.1187 C   0  0  0  0  0  0  0  0  0  0  0  0
   26.1654  -21.7890   -5.8951 N   0  0  0  0  0  0  0  0  0  0  0  0
   27.0625  -20.8457   -5.5642 C   0  0  0  0  0  0  0  0  0  0  0  0
   27.8066  -20.6617   -4.4214 C   0  0  0  0  0  0  0  0  0  0  0  0
   28.6470  -19.5787   -4.3593 C   0  0  0  0  0  0  0  0  0  0  0  0
   28.7333  -18.7102   -5.4159 C   0  0  0  0  0  0  0  0  0  0  0  0
   27.9819  -18.9112   -6.5492 C   0  0  0  0  0  0  0  0  0  0  0  0
   27.1298  -19.9781   -6.6582 C   0  0  0  0  0  0  0  0  0  0  0  0
   23.6974  -20.4904   -9.0979 C   0  0  0  0  0  0  0  0  0  0  0  0
   23.0318  -19.4200   -9.1203 O   0  0  0  0  0  0  0  0  0  0  0  0
   19.6494  -22.4936   -7.6784 O   0  0  0  0  0  0  0  0  0  0  0  0
   20.9011  -22.6054   -8.2715 C   0  0  0  0  0  0  0  0  0  0  0  0
   21.8475  -21.5690   -7.7862 C   0  0  2  0  0  0  0  0  0  0  0  0
   23.1431  -21.5766   -8.3923 N   0  0  0  0  0  0  0  0  0  0  0  0
   22.0396  -21.8153   -6.3110 C   0  0  0  0  0  0  0  0  0  0  0  0
   23.1572  -22.2004   -5.9330 O   0  0  0  0  0  0  0  0  0  0  0  0
   21.0303  -21.6285   -5.3936 O   0  0  0  0  0  0  0  0  0  0  0  0
  2  1  1  6
  2  3  1  0
  4  2  1  0
  5  4  1  0
  5  6  1  6
  7  8  2  0
  7  5  1  0
  9  7  1  0
 10  9  1  0
 10 11  1  1
 11 12  1  0
 12 20  1  0
 12 13  2  0
 13 14  1  0
 15 14  1  0
 15 16  2  0
 17 16  1  0
 18 17  2  0
 19 20  2  0
 19 18  1  0
 20 15  1  0
 21 22  2  0
 21 10  1  0
 24 23  1  0
 25 24  1  6
 25 26  1  0
 26 21  1  0
 27 25  1  0
 28 27  2  0
 29 27  1  0
M  END
$$$$
