LWS.pdb
     RDKit          3D

 29 30  0  0  1  0  0  0  0  0999 V2000
   25.4832  -16.4978  -19.8555 C   0  0  0  0  0  0  0  0  0  0  0  0
   26.9240  -16.6386  -19.3453 C   0  0  2  0  0  0  0  0  0  0  0  0
   27.7821  -16.9124  -20.5472 C   0  0  0  0  0  0  0  0  0  0  0  0
   26.9287  -17.7228  -18.3334 C   0  0  0  0  0  0  0  0  0  0  0  0
   25.9478  -17.5547  -17.2128 C   0  0  2  0  0  0  0  0  0  0  0  0
   26.1640  -16.2390  -16.6341 N   0  0  0  0  0  0  0  0  0  0  0  0
   26.0302  -18.6060  -16.1714 C   0  0  0  0  0  0  0  0  0  0  0  0
   26.0079  -19.8277  -16.4557 O   0  0  0  0  0  0  0  0  0  0  0  0
   26.1395  -18.2860  -14.7714 N   0  0  0  0  0  0  0  0  0  0  0  0
   26.2246  -19.3303  -13.7819 C   0  0  1  0  0  0  0  0  0  0  0  0
   26.7528  -18.8469  -12.4806 C   0  0  0  0  0  0  0  0  0  0  0  0
   27.1435  -19.8874  -11.5153 C   0  0  0  0  0  0  0  0  0  0  0  0
   27.8478  -21.0694  -11.8220 C   0  0  0  0  0  0  0  0  0  0  0  0
   28.0479  -21.7508  -10.6877 N   0  0  0  0  0  0  0  0  0  0  0  0
   27.5206  -21.0991   -9.6382 C   0  0  0  0  0  0  0  0  0  0  0  0
   27.4750  -21.4190   -8.3006 C   0  0  0  0  0  0  0  0  0  0  0  0
   26.8437  -20.5515   -7.4451 C   0  0  0  0  0  0  0  0  0  0  0  0
   26.2771  -19.3993   -7.9241 C   0  0  0  0  0  0  0  0  0  0  0  0
   26.3333  -19.0971   -9.2638 C   0  0  0  0  0  0  0  0  0  0  0  0
   26.9531  -19.9313  -10.1561 C   0  0  0  0  0  0  0  0  0  0  0  0
   24.8428  -19.8861  -13.5407 C   0  0  0  0  0  0  0  0  0  0  0  0
   23.8620  -19.0967  -13.4760 O   0  0  0  0  0  0  0  0  0  0  0  0
   23.4208  -23.7398  -14.5057 O   0  0  0  0  0  0  0  0  0  0  0  0
   23.1617  -23.2798  -13.2203 C   0  0  0  0  0  0  0  0  0  0  0  0
   23.2762  -21.8027  -13.1184 C   0  0  2  0  0  0  0  0  0  0  0  0
   24.5733  -21.2596  -13.3800 N   0  0  0  0  0  0  0  0  0  0  0  0
   22.9131  -21.4375  -11.7012 C   0  0  0  0  0  0  0  0  0  0  0  0
   23.7900  -20.9067  -11.0014 O   0  0  0  0  0  0  0  0  0  0  0  0
   21.6626  -21.6724  -11.1754 O   0  0  0  0  0  0  0  0  0  0  0  0
  2  1  1  6
  2  3  1  0
  4  2  1  0
  5  4  1  0
  5  6  1  1
  7  8  2  0
  7  5  1  0
  9  7  1  0
 10  9  1  0
 10 11  1  1
 11 12  1  0
 12 20  1  0
 12 13  2  0
 13 14  1  0
 15 14  1  0
 15 16  2  0
 17 16  1  0
 18 17  2  0
 19 20  2  0
 19 18  1  0
 20 15  1  0
 21 22  2  0
 21 10  1  0
 24 23  1  0
 25 24  1  1
 25 26  1  0
 26 21  1  0
 27 25  1  0
 28 27  2  0
 29 27  1  0
M  END
$$$$
