LWS.pdb
     RDKit          3D

 29 30  0  0  1  0  0  0  0  0999 V2000
   16.0109   -6.7206  -20.4935 C   0  0  0  0  0  0  0  0  0  0  0  0
   17.0806   -7.8102  -20.3371 C   0  0  2  0  0  0  0  0  0  0  0  0
   16.6979   -8.9265  -21.2663 C   0  0  0  0  0  0  0  0  0  0  0  0
   17.1125   -8.1935  -18.9048 C   0  0  0  0  0  0  0  0  0  0  0  0
   17.4064   -7.0755  -17.9509 C   0  0  2  0  0  0  0  0  0  0  0  0
   18.8070   -6.7205  -18.1093 N   0  0  0  0  0  0  0  0  0  0  0  0
   17.1016   -7.3899  -16.5350 C   0  0  0  0  0  0  0  0  0  0  0  0
   15.9621   -7.7640  -16.1668 O   0  0  0  0  0  0  0  0  0  0  0  0
   18.0960   -7.2829  -15.4987 N   0  0  0  0  0  0  0  0  0  0  0  0
   17.8201   -7.7479  -14.1628 C   0  0  1  0  0  0  0  0  0  0  0  0
   18.8228   -8.7306  -13.6782 C   0  0  0  0  0  0  0  0  0  0  0  0
   20.2153   -8.4892  -14.0899 C   0  0  0  0  0  0  0  0  0  0  0  0
   20.7260   -7.2724  -14.5858 C   0  0  0  0  0  0  0  0  0  0  0  0
   22.0344   -7.4257  -14.8216 N   0  0  0  0  0  0  0  0  0  0  0  0
   22.4335   -8.6710  -14.5150 C   0  0  0  0  0  0  0  0  0  0  0  0
   23.6659   -9.2769  -14.6032 C   0  0  0  0  0  0  0  0  0  0  0  0
   23.7734  -10.5915  -14.2250 C   0  0  0  0  0  0  0  0  0  0  0  0
   22.6732  -11.2721  -13.7727 C   0  0  0  0  0  0  0  0  0  0  0  0
   21.4505  -10.6493  -13.6915 C   0  0  0  0  0  0  0  0  0  0  0  0
   21.2939   -9.3384  -14.0568 C   0  0  0  0  0  0  0  0  0  0  0  0
   17.8398   -6.5677  -13.2229 C   0  0  0  0  0  0  0  0  0  0  0  0
   18.4914   -5.5361  -13.5399 O   0  0  0  0  0  0  0  0  0  0  0  0
   15.8562   -3.4694  -10.4408 O   0  0  0  0  0  0  0  0  0  0  0  0
   15.8404   -4.5875  -11.2658 C   0  0  0  0  0  0  0  0  0  0  0  0
   17.0767   -5.3999  -11.1349 C   0  0  2  0  0  0  0  0  0  0  0  0
   17.1620   -6.5449  -11.9879 N   0  0  0  0  0  0  0  0  0  0  0  0
   17.1200   -5.8953   -9.7114 C   0  0  0  0  0  0  0  0  0  0  0  0
   17.0769   -7.1220   -9.5278 O   0  0  0  0  0  0  0  0  0  0  0  0
   17.2041   -5.0415   -8.6347 O   0  0  0  0  0  0  0  0  0  0  0  0
  2  1  1  1
  2  3  1  0
  4  2  1  0
  5  4  1  0
  5  6  1  1
  7  8  2  0
  7  5  1  0
  9  7  1  0
 10  9  1  0
 10 11  1  1
 11 12  1  0
 12 20  1  0
 12 13  2  0
 13 14  1  0
 15 14  1  0
 15 16  2  0
 17 16  1  0
 18 17  2  0
 19 20  2  0
 19 18  1  0
 20 15  1  0
 21 22  2  0
 21 10  1  0
 24 23  1  0
 25 24  1  1
 25 26  1  0
 26 21  1  0
 27 25  1  0
 28 27  2  0
 29 27  1  0
M  END
$$$$
