QLP.pdb
     RDKit          3D

 25 25  0  0  1  0  0  0  0  0999 V2000
    8.9250  -22.0590   23.4427 N   0  0  0  0  0  0  0  0  0  0  0  0
    9.2596  -20.6932   23.6789 C   0  0  0  0  0  0  0  0  0  0  0  0
   10.3644  -20.4277   24.2423 O   0  0  0  0  0  0  0  0  0  0  0  0
    8.3049  -19.6211   23.2583 C   0  0  0  0  0  0  0  0  0  0  0  0
    6.9258  -20.1012   23.5693 C   0  0  0  0  0  0  0  0  0  0  0  0
    6.1732  -19.2176   24.5190 C   0  0  2  0  0  0  0  0  0  0  0  0
    4.8738  -19.7495   24.7854 N   0  0  0  0  0  0  0  0  0  0  0  0
    6.1089  -17.8152   24.0860 C   0  0  0  0  0  0  0  0  0  0  0  0
    5.6663  -17.4356   22.9753 O   0  0  0  0  0  0  0  0  0  0  0  0
    5.9774  -12.2167   26.0213 C   0  0  0  0  0  0  0  0  0  0  0  0
    7.0662  -13.1624   25.6389 C   0  0  1  0  0  0  0  0  0  0  0  0
    8.3219  -12.7826   26.4287 C   0  0  0  0  0  0  0  0  0  0  0  0
    6.7633  -14.6163   25.7990 C   0  0  0  0  0  0  0  0  0  0  0  0
    6.8116  -15.4267   24.5311 C   0  0  2  0  0  0  0  0  0  0  0  0
    6.5736  -16.8121   24.9696 N   0  0  0  0  0  0  0  0  0  0  0  0
    8.0203  -15.3056   23.7331 C   0  0  0  0  0  0  0  0  0  0  0  0
    8.9829  -16.1014   24.0567 O   0  0  0  0  0  0  0  0  0  0  0  0
    8.2521  -14.4213   22.6504 N   0  0  0  0  0  0  0  0  0  0  0  0
    7.7141  -13.0605   22.5574 C   0  0  0  0  0  0  0  0  0  0  0  0
    7.3919  -12.9351   21.0996 C   0  0  0  0  0  0  0  0  0  0  0  0
    8.0781  -14.0736   20.3829 C   0  0  0  0  0  0  0  0  0  0  0  0
    9.0357  -14.5969   21.4597 C   0  0  1  0  0  0  0  0  0  0  0  0
   10.2790  -13.7645   21.4745 C   0  0  0  0  0  0  0  0  0  0  0  0
   11.0851  -13.7754   20.5203 O   0  0  0  0  0  0  0  0  0  0  0  0
   10.5386  -12.9696   22.5667 O   0  0  0  0  0  0  0  0  0  0  0  0
  2  4  1  0
  2  1  1  0
  3  2  2  0
  5  4  1  0
  6  5  1  0
  6  7  1  6
  8  6  1  0
  9  8  2  0
 11 10  1  1
 11 12  1  0
 14 13  1  1
 13 11  1  0
 14 15  1  0
 15  8  1  0
 16 14  1  0
 17 16  2  0
 18 19  1  0
 18 16  1  0
 20 19  1  0
 21 20  1  0
 21 22  1  0
 22 18  1  0
 23 25  1  0
 22 23  1  1
 24 23  2  0
M  END
$$$$
