QLP.pdb
     RDKit          3D

 25 25  0  0  1  0  0  0  0  0999 V2000
    7.9411  -12.6635   17.9832 N   0  0  0  0  0  0  0  0  0  0  0  0
    8.6233  -13.9075   18.1252 C   0  0  0  0  0  0  0  0  0  0  0  0
    9.5982  -14.1566   17.3531 O   0  0  0  0  0  0  0  0  0  0  0  0
    8.1726  -14.8754   19.1729 C   0  0  0  0  0  0  0  0  0  0  0  0
    8.8307  -14.4868   20.4556 C   0  0  0  0  0  0  0  0  0  0  0  0
    8.6232  -15.4701   21.5687 C   0  0  2  0  0  0  0  0  0  0  0  0
    7.2560  -15.8811   21.6344 N   0  0  0  0  0  0  0  0  0  0  0  0
    9.1108  -14.9919   22.8694 C   0  0  0  0  0  0  0  0  0  0  0  0
   10.2827  -14.6011   23.0873 O   0  0  0  0  0  0  0  0  0  0  0  0
    5.3638  -12.6223   26.1681 C   0  0  0  0  0  0  0  0  0  0  0  0
    6.6691  -12.9583   25.5283 C   0  0  1  0  0  0  0  0  0  0  0  0
    7.5966  -11.7498   25.6828 C   0  0  0  0  0  0  0  0  0  0  0  0
    7.3399  -14.2021   26.0122 C   0  0  0  0  0  0  0  0  0  0  0  0
    8.6260  -14.5530   25.3125 C   0  0  2  0  0  0  0  0  0  0  0  0
    8.2104  -14.9636   23.9609 N   0  0  0  0  0  0  0  0  0  0  0  0
    9.4588  -15.5548   25.9568 C   0  0  0  0  0  0  0  0  0  0  0  0
    9.7337  -16.5933   25.2421 O   0  0  0  0  0  0  0  0  0  0  0  0
    9.9969  -15.5140   27.2670 N   0  0  0  0  0  0  0  0  0  0  0  0
    9.4949  -14.6580   28.3466 C   0  0  0  0  0  0  0  0  0  0  0  0
   10.7524  -14.2469   29.0496 C   0  0  0  0  0  0  0  0  0  0  0  0
   11.8596  -15.1544   28.5685 C   0  0  0  0  0  0  0  0  0  0  0  0
   11.0763  -16.2600   27.8511 C   0  0  1  0  0  0  0  0  0  0  0  0
   10.5930  -17.2633   28.8503 C   0  0  0  0  0  0  0  0  0  0  0  0
    9.3877  -17.3405   29.1696 O   0  0  0  0  0  0  0  0  0  0  0  0
   11.4998  -18.1195   29.4306 O   0  0  0  0  0  0  0  0  0  0  0  0
  2  4  1  0
  2  1  1  0
  3  2  2  0
  5  4  1  0
  6  5  1  0
  6  7  1  1
  8  6  1  0
  9  8  2  0
 11 10  1  1
 11 12  1  0
 14 13  1  1
 13 11  1  0
 14 15  1  0
 15  8  1  0
 16 14  1  0
 17 16  2  0
 18 19  1  0
 18 16  1  0
 20 19  1  0
 21 20  1  0
 21 22  1  0
 22 18  1  0
 23 25  1  0
 22 23  1  1
 24 23  2  0
M  END
$$$$
