QLP.pdb
     RDKit          3D

 25 25  0  0  1  0  0  0  0  0999 V2000
    8.0961  -20.1673   20.9994 N   0  0  0  0  0  0  0  0  0  0  0  0
    9.1009  -19.7425   21.9175 C   0  0  0  0  0  0  0  0  0  0  0  0
    9.9301  -20.5997   22.3491 O   0  0  0  0  0  0  0  0  0  0  0  0
    9.1475  -18.3088   22.3418 C   0  0  0  0  0  0  0  0  0  0  0  0
    9.8161  -17.5395   21.2508 C   0  0  0  0  0  0  0  0  0  0  0  0
    9.4778  -16.0786   21.2404 C   0  0  2  0  0  0  0  0  0  0  0  0
   10.1810  -15.4023   20.1961 N   0  0  0  0  0  0  0  0  0  0  0  0
    9.6738  -15.4240   22.5409 C   0  0  0  0  0  0  0  0  0  0  0  0
   10.7914  -15.1050   23.0129 O   0  0  0  0  0  0  0  0  0  0  0  0
    7.6528  -11.5930   26.1063 C   0  0  0  0  0  0  0  0  0  0  0  0
    7.1877  -13.0107   26.1070 C   0  0  1  0  0  0  0  0  0  0  0  0
    5.7298  -13.0300   26.5748 C   0  0  0  0  0  0  0  0  0  0  0  0
    7.3377  -13.7546   24.8205 C   0  0  0  0  0  0  0  0  0  0  0  0
    8.6388  -14.4934   24.6527 C   0  0  2  0  0  0  0  0  0  0  0  0
    8.5353  -15.1262   23.3271 N   0  0  0  0  0  0  0  0  0  0  0  0
    8.9753  -15.4523   25.6917 C   0  0  0  0  0  0  0  0  0  0  0  0
    8.6982  -16.6836   25.4237 O   0  0  0  0  0  0  0  0  0  0  0  0
    9.5696  -15.1851   26.9500 N   0  0  0  0  0  0  0  0  0  0  0  0
    9.2477  -14.0301   27.7940 C   0  0  0  0  0  0  0  0  0  0  0  0
   10.5816  -13.6636   28.3693 C   0  0  0  0  0  0  0  0  0  0  0  0
   11.5196  -14.8195   28.1149 C   0  0  0  0  0  0  0  0  0  0  0  0
   10.5501  -15.9289   27.6904 C   0  0  1  0  0  0  0  0  0  0  0  0
    9.9666  -16.5787   28.9052 C   0  0  0  0  0  0  0  0  0  0  0  0
    8.7645  -16.4319   29.2122 O   0  0  0  0  0  0  0  0  0  0  0  0
   10.7754  -17.3552   29.7020 O   0  0  0  0  0  0  0  0  0  0  0  0
  2  4  1  0
  2  1  1  0
  3  2  2  0
  5  4  1  0
  6  5  1  0
  6  7  1  6
  8  6  1  0
  9  8  2  0
 11 10  1  6
 11 12  1  0
 14 13  1  1
 13 11  1  0
 14 15  1  0
 15  8  1  0
 16 14  1  0
 17 16  2  0
 18 19  1  0
 18 16  1  0
 20 19  1  0
 21 20  1  0
 21 22  1  0
 22 18  1  0
 23 25  1  0
 22 23  1  1
 24 23  2  0
M  END
$$$$
