QLP.pdb
     RDKit          3D

 25 25  0  0  1  0  0  0  0  0999 V2000
    8.0937  -12.4041   18.5389 N   0  0  0  0  0  0  0  0  0  0  0  0
    8.0953  -13.7361   18.0301 C   0  0  0  0  0  0  0  0  0  0  0  0
    7.9755  -13.9080   16.7792 O   0  0  0  0  0  0  0  0  0  0  0  0
    8.2373  -14.8834   18.9793 C   0  0  0  0  0  0  0  0  0  0  0  0
    8.4522  -14.3139   20.3427 C   0  0  0  0  0  0  0  0  0  0  0  0
    8.7459  -15.3431   21.3931 C   0  0  2  0  0  0  0  0  0  0  0  0
    7.6693  -16.2762   21.5042 N   0  0  0  0  0  0  0  0  0  0  0  0
    9.1006  -14.7638   22.6958 C   0  0  0  0  0  0  0  0  0  0  0  0
   10.1435  -14.1029   22.9176 O   0  0  0  0  0  0  0  0  0  0  0  0
    5.2846  -12.7356   26.0855 C   0  0  0  0  0  0  0  0  0  0  0  0
    6.5509  -13.0751   25.3733 C   0  0  1  0  0  0  0  0  0  0  0  0
    7.4787  -11.8595   25.4525 C   0  0  0  0  0  0  0  0  0  0  0  0
    7.2573  -14.3075   25.8352 C   0  0  0  0  0  0  0  0  0  0  0  0
    8.5761  -14.5829   25.1633 C   0  0  2  0  0  0  0  0  0  0  0  0
    8.2171  -14.9550   23.7846 N   0  0  0  0  0  0  0  0  0  0  0  0
    9.4269  -15.5779   25.7946 C   0  0  0  0  0  0  0  0  0  0  0  0
    9.7835  -16.5634   25.0420 O   0  0  0  0  0  0  0  0  0  0  0  0
    9.9032  -15.5816   27.1292 N   0  0  0  0  0  0  0  0  0  0  0  0
    9.3805  -14.7292   28.2017 C   0  0  0  0  0  0  0  0  0  0  0  0
   10.6167  -14.3770   28.9713 C   0  0  0  0  0  0  0  0  0  0  0  0
   11.7133  -15.3141   28.5237 C   0  0  0  0  0  0  0  0  0  0  0  0
   10.9269  -16.3769   27.7474 C   0  0  1  0  0  0  0  0  0  0  0  0
   10.3620  -17.3813   28.7016 C   0  0  0  0  0  0  0  0  0  0  0  0
    9.1407  -17.4226   28.9611 O   0  0  0  0  0  0  0  0  0  0  0  0
   11.2102  -18.2792   29.3071 O   0  0  0  0  0  0  0  0  0  0  0  0
  2  4  1  0
  2  1  1  0
  3  2  2  0
  5  4  1  0
  6  5  1  0
  6  7  1  1
  8  6  1  0
  9  8  2  0
 11 10  1  1
 11 12  1  0
 14 13  1  1
 13 11  1  0
 14 15  1  0
 15  8  1  0
 16 14  1  0
 17 16  2  0
 18 19  1  0
 18 16  1  0
 20 19  1  0
 21 20  1  0
 21 22  1  0
 22 18  1  0
 23 25  1  0
 22 23  1  1
 24 23  2  0
M  END
$$$$
