QLP.pdb
     RDKit          3D

 25 25  0  0  1  0  0  0  0  0999 V2000
    7.8462  -19.7251   21.8648 N   0  0  0  0  0  0  0  0  0  0  0  0
    9.1380  -19.2781   21.4593 C   0  0  0  0  0  0  0  0  0  0  0  0
   10.0319  -20.1447   21.2178 O   0  0  0  0  0  0  0  0  0  0  0  0
    9.3994  -17.8108   21.3315 C   0  0  0  0  0  0  0  0  0  0  0  0
    8.1322  -17.0980   21.6712 C   0  0  0  0  0  0  0  0  0  0  0  0
    8.2415  -15.6033   21.6186 C   0  0  2  0  0  0  0  0  0  0  0  0
    8.9472  -15.1869   20.4477 N   0  0  0  0  0  0  0  0  0  0  0  0
    8.8148  -15.0160   22.8371 C   0  0  0  0  0  0  0  0  0  0  0  0
   10.0054  -14.6372   22.9492 O   0  0  0  0  0  0  0  0  0  0  0  0
    5.4448  -12.1770   26.1901 C   0  0  0  0  0  0  0  0  0  0  0  0
    6.6675  -12.6598   25.4845 C   0  0  1  0  0  0  0  0  0  0  0  0
    7.6917  -11.5215   25.4802 C   0  0  0  0  0  0  0  0  0  0  0  0
    7.2795  -13.9167   26.0105 C   0  0  0  0  0  0  0  0  0  0  0  0
    8.4983  -14.3979   25.2690 C   0  0  2  0  0  0  0  0  0  0  0  0
    7.9812  -14.8599   23.9700 N   0  0  0  0  0  0  0  0  0  0  0  0
    9.2980  -15.4143   25.9323 C   0  0  0  0  0  0  0  0  0  0  0  0
    9.4852  -16.5005   25.2615 O   0  0  0  0  0  0  0  0  0  0  0  0
    9.8889  -15.3414   27.2181 N   0  0  0  0  0  0  0  0  0  0  0  0
    9.4638  -14.4223   28.2785 C   0  0  0  0  0  0  0  0  0  0  0  0
   10.7633  -14.0338   28.9150 C   0  0  0  0  0  0  0  0  0  0  0  0
   11.8144  -15.0043   28.4312 C   0  0  0  0  0  0  0  0  0  0  0  0
   10.9608  -16.1058   27.7919 C   0  0  1  0  0  0  0  0  0  0  0  0
   10.4791  -17.0469   28.8507 C   0  0  0  0  0  0  0  0  0  0  0  0
   11.2702  -17.7692   29.4933 O   0  0  0  0  0  0  0  0  0  0  0  0
    9.1321  -17.1171   29.1204 O   0  0  0  0  0  0  0  0  0  0  0  0
  2  4  1  0
  2  1  1  0
  3  2  2  0
  5  4  1  0
  6  5  1  0
  6  7  1  6
  8  6  1  0
  9  8  2  0
 11 10  1  1
 11 12  1  0
 14 13  1  1
 13 11  1  0
 14 15  1  0
 15  8  1  0
 16 14  1  0
 17 16  2  0
 18 19  1  0
 18 16  1  0
 20 19  1  0
 21 20  1  0
 21 22  1  0
 22 18  1  0
 23 25  1  0
 22 23  1  1
 24 23  2  0
M  END
$$$$
