QLP.pdb
     RDKit          3D

 25 25  0  0  1  0  0  0  0  0999 V2000
    8.7862  -12.4111   18.3427 N   0  0  0  0  0  0  0  0  0  0  0  0
    8.3992  -13.7078   17.8936 C   0  0  0  0  0  0  0  0  0  0  0  0
    8.1812  -13.8815   16.6563 O   0  0  0  0  0  0  0  0  0  0  0  0
    8.2625  -14.8175   18.8873 C   0  0  0  0  0  0  0  0  0  0  0  0
    8.5959  -14.2596   20.2315 C   0  0  0  0  0  0  0  0  0  0  0  0
    8.6335  -15.2858   21.3244 C   0  0  2  0  0  0  0  0  0  0  0  0
    7.3930  -15.9913   21.4009 N   0  0  0  0  0  0  0  0  0  0  0  0
    9.0285  -14.7365   22.6285 C   0  0  0  0  0  0  0  0  0  0  0  0
   10.1239  -14.1695   22.8567 O   0  0  0  0  0  0  0  0  0  0  0  0
    5.2218  -12.5305   25.9034 C   0  0  0  0  0  0  0  0  0  0  0  0
    6.5092  -12.8955   25.2435 C   0  0  1  0  0  0  0  0  0  0  0  0
    7.4493  -11.6908   25.3416 C   0  0  0  0  0  0  0  0  0  0  0  0
    7.1816  -14.1304   25.7473 C   0  0  0  0  0  0  0  0  0  0  0  0
    8.4916  -14.4652   25.0851 C   0  0  2  0  0  0  0  0  0  0  0  0
    8.1236  -14.8461   23.7111 N   0  0  0  0  0  0  0  0  0  0  0  0
    9.3029  -15.4806   25.7355 C   0  0  0  0  0  0  0  0  0  0  0  0
    9.6148  -16.4966   25.0040 O   0  0  0  0  0  0  0  0  0  0  0  0
    9.7844  -15.4745   27.0682 N   0  0  0  0  0  0  0  0  0  0  0  0
    9.2702  -14.6098   28.1350 C   0  0  0  0  0  0  0  0  0  0  0  0
   10.5112  -14.2566   28.8965 C   0  0  0  0  0  0  0  0  0  0  0  0
   11.6013  -15.2031   28.4531 C   0  0  0  0  0  0  0  0  0  0  0  0
   10.8068  -16.2690   27.6896 C   0  0  1  0  0  0  0  0  0  0  0  0
   10.2408  -17.2620   28.6552 C   0  0  0  0  0  0  0  0  0  0  0  0
    9.0182  -17.3052   28.9080 O   0  0  0  0  0  0  0  0  0  0  0  0
   11.0894  -18.1469   29.2790 O   0  0  0  0  0  0  0  0  0  0  0  0
  2  4  1  0
  2  1  1  0
  3  2  2  0
  5  4  1  0
  6  5  1  0
  6  7  1  1
  8  6  1  0
  9  8  2  0
 11 10  1  1
 11 12  1  0
 14 13  1  1
 13 11  1  0
 14 15  1  0
 15  8  1  0
 16 14  1  0
 17 16  2  0
 18 19  1  0
 18 16  1  0
 20 19  1  0
 21 20  1  0
 21 22  1  0
 22 18  1  0
 23 25  1  0
 22 23  1  1
 24 23  2  0
M  END
$$$$
