QLP.pdb
     RDKit          3D

 25 25  0  0  1  0  0  0  0  0999 V2000
    9.8266  -20.4787   22.7373 N   0  0  0  0  0  0  0  0  0  0  0  0
   10.2020  -20.2253   21.3853 C   0  0  0  0  0  0  0  0  0  0  0  0
   10.6994  -21.1735   20.7056 O   0  0  0  0  0  0  0  0  0  0  0  0
    9.9997  -18.8585   20.8121 C   0  0  0  0  0  0  0  0  0  0  0  0
    9.4698  -17.9882   21.9034 C   0  0  0  0  0  0  0  0  0  0  0  0
    9.2323  -16.5670   21.4878 C   0  0  2  0  0  0  0  0  0  0  0  0
    9.9904  -16.2466   20.3194 N   0  0  0  0  0  0  0  0  0  0  0  0
    9.4597  -15.5966   22.5671 C   0  0  0  0  0  0  0  0  0  0  0  0
   10.5742  -15.0915   22.8432 O   0  0  0  0  0  0  0  0  0  0  0  0
    7.7005  -11.6521   25.9669 C   0  0  0  0  0  0  0  0  0  0  0  0
    7.1596  -13.0291   26.1598 C   0  0  1  0  0  0  0  0  0  0  0  0
    5.7324  -12.9054   26.7005 C   0  0  0  0  0  0  0  0  0  0  0  0
    7.1940  -13.9246   24.9647 C   0  0  0  0  0  0  0  0  0  0  0  0
    8.5260  -14.5656   24.6794 C   0  0  2  0  0  0  0  0  0  0  0  0
    8.3577  -15.1937   23.3582 N   0  0  0  0  0  0  0  0  0  0  0  0
    9.0162  -15.5056   25.6735 C   0  0  0  0  0  0  0  0  0  0  0  0
    8.9500  -16.7509   25.3423 O   0  0  0  0  0  0  0  0  0  0  0  0
    9.5544  -15.2064   26.9498 N   0  0  0  0  0  0  0  0  0  0  0  0
    9.1961  -14.0306   27.7492 C   0  0  0  0  0  0  0  0  0  0  0  0
   10.5035  -13.6489   28.3735 C   0  0  0  0  0  0  0  0  0  0  0  0
   11.4511  -14.8105   28.1901 C   0  0  0  0  0  0  0  0  0  0  0  0
   10.5007  -15.9307   27.7513 C   0  0  1  0  0  0  0  0  0  0  0  0
    9.8636  -16.5499   28.9552 C   0  0  0  0  0  0  0  0  0  0  0  0
    8.6517  -16.3870   29.2108 O   0  0  0  0  0  0  0  0  0  0  0  0
   10.6332  -17.3158   29.7997 O   0  0  0  0  0  0  0  0  0  0  0  0
  2  4  1  0
  2  1  1  0
  3  2  2  0
  5  4  1  0
  6  5  1  0
  6  7  1  6
  8  6  1  0
  9  8  2  0
 11 10  1  6
 11 12  1  0
 14 13  1  1
 13 11  1  0
 14 15  1  0
 15  8  1  0
 16 14  1  0
 17 16  2  0
 18 19  1  0
 18 16  1  0
 20 19  1  0
 21 20  1  0
 21 22  1  0
 22 18  1  0
 23 25  1  0
 22 23  1  1
 24 23  2  0
M  END
$$$$
