QLP.pdb
     RDKit          3D

 25 25  0  0  1  0  0  0  0  0999 V2000
    9.6407  -19.9967   23.1422 N   0  0  0  0  0  0  0  0  0  0  0  0
   10.4425  -19.8238   21.9759 C   0  0  0  0  0  0  0  0  0  0  0  0
   11.3789  -20.6503   21.7552 O   0  0  0  0  0  0  0  0  0  0  0  0
   10.1582  -18.6811   21.0535 C   0  0  0  0  0  0  0  0  0  0  0  0
    9.0495  -17.8831   21.6562 C   0  0  0  0  0  0  0  0  0  0  0  0
    9.1131  -16.4181   21.3419 C   0  0  2  0  0  0  0  0  0  0  0  0
   10.0264  -16.1679   20.2716 N   0  0  0  0  0  0  0  0  0  0  0  0
    9.4052  -15.5812   22.5134 C   0  0  0  0  0  0  0  0  0  0  0  0
   10.5571  -15.2288   22.8636 O   0  0  0  0  0  0  0  0  0  0  0  0
    7.7914  -11.5374   26.0360 C   0  0  0  0  0  0  0  0  0  0  0  0
    7.2265  -12.9157   26.1204 C   0  0  1  0  0  0  0  0  0  0  0  0
    5.7967  -12.8090   26.6582 C   0  0  0  0  0  0  0  0  0  0  0  0
    7.2568  -13.7191   24.8615 C   0  0  0  0  0  0  0  0  0  0  0  0
    8.5295  -14.4856   24.6180 C   0  0  2  0  0  0  0  0  0  0  0  0
    8.3257  -15.1337   23.3117 N   0  0  0  0  0  0  0  0  0  0  0  0
    8.9169  -15.4369   25.6462 C   0  0  0  0  0  0  0  0  0  0  0  0
    8.6021  -16.6664   25.4139 O   0  0  0  0  0  0  0  0  0  0  0  0
    9.5965  -15.1643   26.8594 N   0  0  0  0  0  0  0  0  0  0  0  0
    9.4115  -13.9517   27.6627 C   0  0  0  0  0  0  0  0  0  0  0  0
   10.7987  -13.6693   28.1530 C   0  0  0  0  0  0  0  0  0  0  0  0
   11.6284  -14.9071   27.9072 C   0  0  0  0  0  0  0  0  0  0  0  0
   10.5539  -15.9520   27.5844 C   0  0  1  0  0  0  0  0  0  0  0  0
    9.9869  -16.4995   28.8562 C   0  0  0  0  0  0  0  0  0  0  0  0
   10.6826  -17.1714   29.6469 O   0  0  0  0  0  0  0  0  0  0  0  0
    8.6673  -16.2566   29.1592 O   0  0  0  0  0  0  0  0  0  0  0  0
  2  4  1  0
  2  1  1  0
  3  2  2  0
  5  4  1  0
  6  5  1  0
  6  7  1  6
  8  6  1  0
  9  8  2  0
 11 10  1  6
 11 12  1  0
 14 13  1  1
 13 11  1  0
 14 15  1  0
 15  8  1  0
 16 14  1  0
 17 16  2  0
 18 19  1  0
 18 16  1  0
 20 19  1  0
 21 20  1  0
 21 22  1  0
 22 18  1  0
 23 25  1  0
 22 23  1  1
 24 23  2  0
M  END
$$$$
