RHY.pdb
     RDKit          3D

 34 35  0  0  1  0  0  0  0  0999 V2000
   28.5700  -32.7025  -15.0164 N   0  0  0  0  0  0  0  0  0  0  0  0
   27.1540  -32.6566  -14.9924 C   0  0  0  0  0  0  0  0  0  0  0  0
   26.5658  -31.7366  -15.6934 N   0  0  0  0  0  0  0  0  0  0  0  0
   26.3710  -33.5623  -14.2355 N   0  0  0  0  0  0  0  0  0  0  0  0
   26.9206  -34.5094  -13.3027 C   0  0  0  0  0  0  0  0  0  0  0  0
   27.0711  -34.0261  -11.9095 C   0  0  0  0  0  0  0  0  0  0  0  0
   26.3701  -34.7173  -10.8183 C   0  0  0  0  0  0  0  0  0  0  0  0
   26.8191  -36.0875  -10.4618 C   0  0  2  0  0  0  0  0  0  0  0  0
   25.9299  -37.1654  -10.6261 N   0  0  0  0  0  0  0  0  0  0  0  0
   27.3602  -36.1384   -9.0546 C   0  0  0  0  0  0  0  0  0  0  0  0
   26.6247  -36.4964   -8.1108 O   0  0  0  0  0  0  0  0  0  0  0  0
   25.5437  -31.6431  -15.6920 N   0  0  0  0  0  0  0  0  0  0  0  0
   28.7000  -35.7770   -8.8187 C   0  0  2  0  0  0  0  0  0  0  0  0
   29.2272  -35.7880   -7.4195 C   0  0  0  0  0  0  0  0  0  0  0  0
   30.6255  -35.2800   -7.4408 C   0  0  0  0  0  0  0  0  0  0  0  0
   31.3212  -35.2768   -6.1555 C   0  0  0  0  0  0  0  0  0  0  0  0
   30.7774  -35.6666   -4.9500 N   0  0  0  0  0  0  0  0  0  0  0  0
   31.7137  -35.5303   -4.0065 C   0  0  0  0  0  0  0  0  0  0  0  0
   32.8182  -35.0699   -4.5843 N   0  0  0  0  0  0  0  0  0  0  0  0
   32.5846  -34.9111   -5.9082 C   0  0  0  0  0  0  0  0  0  0  0  0
   28.3442  -34.9333   -6.6274 O   0  0  0  0  0  0  0  0  0  0  0  0
   27.5921  -34.0624   -7.1986 O   0  0  0  0  0  0  0  0  0  0  0  0
   21.7816  -30.7276   -4.4516 C   0  0  0  0  0  0  0  0  0  0  0  0
   22.7638  -31.6687   -4.5840 C   0  0  0  0  0  0  0  0  0  0  0  0
   23.8450  -31.4296   -5.4243 C   0  0  0  0  0  0  0  0  0  0  0  0
   24.8484  -32.3667   -5.5726 C   0  0  0  0  0  0  0  0  0  0  0  0
   24.7983  -33.5785   -4.8795 C   0  0  0  0  0  0  0  0  0  0  0  0
   25.8593  -34.6090   -5.0237 C   0  0  2  0  0  0  0  0  0  0  0  0
   27.2202  -34.1130   -4.5463 N   0  0  0  0  0  0  0  0  0  0  0  0
   28.2110  -34.9660   -5.2118 C   0  0  0  0  0  0  0  0  0  0  0  0
   27.3226  -34.2399   -3.1017 O   0  0  0  0  0  0  0  0  0  0  0  0
   28.1925  -35.1419   -2.5209 C   0  0  0  0  0  0  0  0  0  0  0  0
   23.7281  -33.8079   -4.0512 C   0  0  0  0  0  0  0  0  0  0  0  0
   22.7468  -32.8613   -3.9224 O   0  0  0  0  0  0  0  0  0  0  0  0
  1  2  1  0
  2  3  2  0
  4  2  1  0
  4  5  1  0
  6  7  1  0
  6  5  1  0
  8  9  1  1
  8  7  1  0
 10  8  1  0
 11 10  2  0
 12 10  1  0
 13 12  1  0
 13 14  1  6
 15 14  1  0
 16 15  2  0
 17 16  1  0
 18 17  1  0
 18 19  2  0
 19 15  1  0
 20 13  1  0
 20 29  1  0
 21 20  2  0
 22 23  1  0
 23 33  2  0
 24 25  2  0
 24 23  1  0
 25 26  1  0
 26 27  1  0
 26 32  2  0
 28 27  1  6
 28 30  1  0
 28 29  1  0
 30 31  1  0
 33 32  1  0
 34 30  2  0
M  END
$$$$
