RHY.pdb
     RDKit          3D

 34 35  0  0  1  0  0  0  0  0999 V2000
   18.8760  -15.7739  -17.3870 N   0  0  0  0  0  0  0  0  0  0  0  0
   19.8753  -14.8637  -16.9618 C   0  0  0  0  0  0  0  0  0  0  0  0
   19.6055  -13.5958  -17.0235 N   0  0  0  0  0  0  0  0  0  0  0  0
   21.1415  -15.2836  -16.4858 N   0  0  0  0  0  0  0  0  0  0  0  0
   21.7070  -16.5793  -16.7519 C   0  0  0  0  0  0  0  0  0  0  0  0
   21.4459  -17.6174  -15.7266 C   0  0  0  0  0  0  0  0  0  0  0  0
   22.5684  -18.2053  -14.9821 C   0  0  0  0  0  0  0  0  0  0  0  0
   23.1433  -19.4798  -15.4835 C   0  0  2  0  0  0  0  0  0  0  0  0
   22.4549  -20.1987  -16.4779 N   0  0  0  0  0  0  0  0  0  0  0  0
   23.4496  -20.4266  -14.3499 C   0  0  0  0  0  0  0  0  0  0  0  0
   22.5318  -21.0811  -13.8119 O   0  0  0  0  0  0  0  0  0  0  0  0
   20.3052  -12.8929  -16.7593 N   0  0  0  0  0  0  0  0  0  0  0  0
   24.7784  -20.5620  -13.9059 C   0  0  1  0  0  0  0  0  0  0  0  0
   25.0930  -21.5412  -12.8206 C   0  0  0  0  0  0  0  0  0  0  0  0
   25.9347  -22.6249  -13.3957 C   0  0  0  0  0  0  0  0  0  0  0  0
   25.2362  -23.5952  -14.2364 C   0  0  0  0  0  0  0  0  0  0  0  0
   25.1087  -23.5215  -15.6072 N   0  0  0  0  0  0  0  0  0  0  0  0
   24.4133  -24.5854  -16.0193 C   0  0  0  0  0  0  0  0  0  0  0  0
   24.1053  -25.3158  -14.9527 N   0  0  0  0  0  0  0  0  0  0  0  0
   24.6087  -24.7125  -13.8505 C   0  0  0  0  0  0  0  0  0  0  0  0
   25.7922  -20.8008  -11.7716 O   0  0  0  0  0  0  0  0  0  0  0  0
   26.5775  -19.8287  -12.0697 O   0  0  0  0  0  0  0  0  0  0  0  0
   29.3075  -18.5117   -3.9460 C   0  0  0  0  0  0  0  0  0  0  0  0
   28.5555  -19.0774   -4.9372 C   0  0  0  0  0  0  0  0  0  0  0  0
   27.5635  -18.3336   -5.5658 C   0  0  0  0  0  0  0  0  0  0  0  0
   26.7924  -18.8855   -6.5697 C   0  0  0  0  0  0  0  0  0  0  0  0
   26.9931  -20.2068   -6.9762 C   0  0  0  0  0  0  0  0  0  0  0  0
   26.1750  -20.8304   -8.0487 C   0  0  2  0  0  0  0  0  0  0  0  0
   26.6218  -20.4039   -9.4431 N   0  0  0  0  0  0  0  0  0  0  0  0
   25.6875  -21.0456  -10.3744 C   0  0  0  0  0  0  0  0  0  0  0  0
   27.9824  -20.8508   -9.6931 O   0  0  0  0  0  0  0  0  0  0  0  0
   29.0493  -19.9769   -9.6191 C   0  0  0  0  0  0  0  0  0  0  0  0
   27.9745  -20.9354   -6.3516 C   0  0  0  0  0  0  0  0  0  0  0  0
   28.7250  -20.3634   -5.3590 O   0  0  0  0  0  0  0  0  0  0  0  0
  1  2  1  0
  2  3  2  0
  4  2  1  0
  4  5  1  0
  6  7  1  0
  6  5  1  0
  8  9  1  6
  8  7  1  0
 10  8  1  0
 11 10  2  0
 12 10  1  0
 13 12  1  0
 13 14  1  1
 15 14  1  0
 16 15  2  0
 17 16  1  0
 18 17  1  0
 18 19  2  0
 19 15  1  0
 20 13  1  0
 20 29  1  0
 21 20  2  0
 22 23  1  0
 23 33  2  0
 24 25  2  0
 24 23  1  0
 25 26  1  0
 26 27  1  0
 26 32  2  0
 28 27  1  1
 28 30  1  0
 28 29  1  0
 30 31  1  0
 33 32  1  0
 34 30  2  0
M  END
$$$$
