DQA.pdb
     RDKit          3D

 23 22  0  0  1  0  0  0  0  0999 V2000
   18.1526   -8.9343  -13.9007 N   0  0  0  0  0  0  0  0  0  0  0  0
   18.2899   -8.5594  -12.5213 C   0  0  1  0  0  0  0  0  0  0  0  0
   19.2457   -7.4100  -12.4147 C   0  0  0  0  0  0  0  0  0  0  0  0
   20.5736   -7.8278  -12.9271 C   0  0  0  0  0  0  0  0  0  0  0  0
   21.0684   -8.9556  -12.6160 O   0  0  0  0  0  0  0  0  0  0  0  0
   16.9672   -8.1523  -11.9547 C   0  0  0  0  0  0  0  0  0  0  0  0
   16.2135   -7.4037  -12.6270 O   0  0  0  0  0  0  0  0  0  0  0  0
   21.3440   -7.0267  -13.7632 O   0  0  0  0  0  0  0  0  0  0  0  0
   12.9829  -11.6278   -8.9162 N   0  0  0  0  0  0  0  0  0  0  0  0
   12.3555  -10.3710   -8.7614 C   0  0  0  0  0  0  0  0  0  0  0  0
   11.1997  -10.3670   -8.2673 O   0  0  0  0  0  0  0  0  0  0  0  0
   13.1005   -9.1752   -9.1885 C   0  0  0  0  0  0  0  0  0  0  0  0
   14.4818   -9.4134   -9.6657 C   0  0  0  0  0  0  0  0  0  0  0  0
   15.2396   -8.2123  -10.1244 C   0  0  2  0  0  0  0  0  0  0  0  0
   16.5238   -8.5733  -10.6909 N   0  0  0  0  0  0  0  0  0  0  0  0
   15.3855   -7.2089   -9.0399 C   0  0  0  0  0  0  0  0  0  0  0  0
   15.9976   -7.5098   -7.9866 O   0  0  0  0  0  0  0  0  0  0  0  0
   14.7343   -3.5292   -8.7860 C   0  0  0  0  0  0  0  0  0  0  0  0
   14.9459   -4.9054   -8.1514 C   0  0  2  0  0  0  0  0  0  0  0  0
   14.8315   -5.8963   -9.1870 N   0  0  0  0  0  0  0  0  0  0  0  0
   13.9021   -5.0575   -7.1070 C   0  0  0  0  0  0  0  0  0  0  0  0
   14.0348   -4.3819   -6.0548 O   0  0  0  0  0  0  0  0  0  0  0  0
   12.8091   -5.8836   -7.2171 O   0  0  0  0  0  0  0  0  0  0  0  0
  2  1  1  6
  3  2  1  0
  4  3  1  0
  5  4  2  0
  6  7  2  0
  6  2  1  0
  8  4  1  0
  9 10  1  0
 10 12  1  0
 11 10  2  0
 12 13  1  0
 14 13  1  1
 14 16  1  0
 14 15  1  0
 15  6  1  0
 16 17  2  0
 19 18  1  6
 20 19  1  0
 20 16  1  0
 21 19  1  0
 22 21  2  0
 23 21  1  0
M  END
$$$$
