DQA.pdb
     RDKit          3D

 23 22  0  0  1  0  0  0  0  0999 V2000
   18.0259  -11.7025  -16.0631 N   0  0  0  0  0  0  0  0  0  0  0  0
   17.9748  -10.3369  -16.5039 C   0  0  1  0  0  0  0  0  0  0  0  0
   16.6298   -9.7622  -16.1769 C   0  0  0  0  0  0  0  0  0  0  0  0
   15.6074  -10.3745  -17.0603 C   0  0  0  0  0  0  0  0  0  0  0  0
   15.6871  -10.2673  -18.3235 O   0  0  0  0  0  0  0  0  0  0  0  0
   19.0329   -9.5271  -15.8251 C   0  0  0  0  0  0  0  0  0  0  0  0
   19.1519   -9.5931  -14.5752 O   0  0  0  0  0  0  0  0  0  0  0  0
   14.5200  -11.0897  -16.5702 O   0  0  0  0  0  0  0  0  0  0  0  0
   24.7864   -9.2365  -17.5112 N   0  0  0  0  0  0  0  0  0  0  0  0
   24.8135   -8.1512  -16.6064 C   0  0  0  0  0  0  0  0  0  0  0  0
   25.9369   -7.6482  -16.3520 O   0  0  0  0  0  0  0  0  0  0  0  0
   23.5326   -7.6998  -16.0381 C   0  0  0  0  0  0  0  0  0  0  0  0
   22.3315   -8.4376  -16.4912 C   0  0  0  0  0  0  0  0  0  0  0  0
   21.0268   -7.9929  -15.9186 C   0  0  2  0  0  0  0  0  0  0  0  0
   19.9100   -8.6864  -16.5286 N   0  0  0  0  0  0  0  0  0  0  0  0
   20.8648   -6.5196  -16.0030 C   0  0  0  0  0  0  0  0  0  0  0  0
   20.7424   -5.9662  -17.1226 O   0  0  0  0  0  0  0  0  0  0  0  0
   19.7554   -3.8703  -13.7405 C   0  0  0  0  0  0  0  0  0  0  0  0
   20.7078   -4.2924  -14.8612 C   0  0  2  0  0  0  0  0  0  0  0  0
   20.8470   -5.7226  -14.8130 N   0  0  0  0  0  0  0  0  0  0  0  0
   21.9928   -3.5917  -14.6143 C   0  0  0  0  0  0  0  0  0  0  0  0
   22.8969   -4.2344  -14.0221 O   0  0  0  0  0  0  0  0  0  0  0  0
   22.2542   -2.2954  -14.9893 O   0  0  0  0  0  0  0  0  0  0  0  0
  2  1  1  1
  3  2  1  0
  4  3  1  0
  5  4  2  0
  6  7  2  0
  6  2  1  0
  8  4  1  0
  9 10  1  0
 10 12  1  0
 11 10  2  0
 12 13  1  0
 14 13  1  6
 14 16  1  0
 14 15  1  0
 15  6  1  0
 16 17  2  0
 19 18  1  1
 20 19  1  0
 20 16  1  0
 21 19  1  0
 22 21  2  0
 23 21  1  0
M  END
$$$$
