DQA.pdb
     RDKit          3D

 23 22  0  0  1  0  0  0  0  0999 V2000
   21.5865  -11.9270  -18.9382 N   0  0  0  0  0  0  0  0  0  0  0  0
   22.2634  -11.2445  -17.8715 C   0  0  1  0  0  0  0  0  0  0  0  0
   23.6383  -10.8583  -18.3262 C   0  0  0  0  0  0  0  0  0  0  0  0
   24.4758  -12.0770  -18.4439 C   0  0  0  0  0  0  0  0  0  0  0  0
   24.0046  -13.2229  -18.1641 O   0  0  0  0  0  0  0  0  0  0  0  0
   21.5125  -10.0128  -17.4775 C   0  0  0  0  0  0  0  0  0  0  0  0
   20.8813   -9.3696  -18.3541 O   0  0  0  0  0  0  0  0  0  0  0  0
   25.8025  -12.0413  -18.8597 O   0  0  0  0  0  0  0  0  0  0  0  0
   16.2014  -10.5349  -15.4221 N   0  0  0  0  0  0  0  0  0  0  0  0
   17.3111   -9.9443  -14.7763 C   0  0  0  0  0  0  0  0  0  0  0  0
   17.2676   -9.8680  -13.5224 O   0  0  0  0  0  0  0  0  0  0  0  0
   18.4213   -9.4687  -15.6180 C   0  0  0  0  0  0  0  0  0  0  0  0
   19.5295   -8.7962  -14.9025 C   0  0  0  0  0  0  0  0  0  0  0  0
   20.7023   -8.3901  -15.7315 C   0  0  2  0  0  0  0  0  0  0  0  0
   21.4800   -9.5365  -16.1572 N   0  0  0  0  0  0  0  0  0  0  0  0
   21.5466   -7.3882  -15.0333 C   0  0  0  0  0  0  0  0  0  0  0  0
   22.3397   -7.7560  -14.1331 O   0  0  0  0  0  0  0  0  0  0  0  0
   21.9980   -3.6587  -15.3833 C   0  0  0  0  0  0  0  0  0  0  0  0
   22.2066   -4.9963  -14.6701 C   0  0  2  0  0  0  0  0  0  0  0  0
   21.4627   -6.0011  -15.3803 N   0  0  0  0  0  0  0  0  0  0  0  0
   21.7245   -4.8160  -13.2778 C   0  0  0  0  0  0  0  0  0  0  0  0
   20.5767   -5.2499  -13.0030 O   0  0  0  0  0  0  0  0  0  0  0  0
   22.4480   -4.2098  -12.2787 O   0  0  0  0  0  0  0  0  0  0  0  0
  2  1  1  6
  3  2  1  0
  4  3  1  0
  5  4  2  0
  6  7  2  0
  6  2  1  0
  8  4  1  0
  9 10  1  0
 10 12  1  0
 11 10  2  0
 12 13  1  0
 14 13  1  1
 14 16  1  0
 14 15  1  0
 15  6  1  0
 16 17  2  0
 19 18  1  6
 20 19  1  0
 20 16  1  0
 21 19  1  0
 22 21  2  0
 23 21  1  0
M  END
$$$$
