DQA.pdb
     RDKit          3D

 23 22  0  0  1  0  0  0  0  0999 V2000
   17.9302   -8.7274  -15.4017 N   0  0  0  0  0  0  0  0  0  0  0  0
   17.7260   -7.4323  -15.9872 C   0  0  1  0  0  0  0  0  0  0  0  0
   16.2616   -7.1136  -15.9827 C   0  0  0  0  0  0  0  0  0  0  0  0
   15.5400   -8.1134  -16.8075 C   0  0  0  0  0  0  0  0  0  0  0  0
   15.9182   -8.3794  -17.9906 O   0  0  0  0  0  0  0  0  0  0  0  0
   18.4588   -6.3848  -15.2112 C   0  0  0  0  0  0  0  0  0  0  0  0
   18.2140   -6.2418  -13.9864 O   0  0  0  0  0  0  0  0  0  0  0  0
   14.4270   -8.8079  -16.3458 O   0  0  0  0  0  0  0  0  0  0  0  0
   22.0788   -7.8614  -15.2051 N   0  0  0  0  0  0  0  0  0  0  0  0
   21.9391   -7.4510  -13.8600 C   0  0  0  0  0  0  0  0  0  0  0  0
   21.9825   -8.3493  -12.9818 O   0  0  0  0  0  0  0  0  0  0  0  0
   21.7550   -6.0143  -13.5968 C   0  0  0  0  0  0  0  0  0  0  0  0
   21.6033   -5.1548  -14.7927 C   0  0  0  0  0  0  0  0  0  0  0  0
   20.2371   -4.6104  -15.0472 C   0  0  2  0  0  0  0  0  0  0  0  0
   19.4192   -5.5439  -15.7955 N   0  0  0  0  0  0  0  0  0  0  0  0
   20.2907   -3.2821  -15.7083 C   0  0  0  0  0  0  0  0  0  0  0  0
   20.8311   -3.1645  -16.8347 O   0  0  0  0  0  0  0  0  0  0  0  0
   18.8271    0.0922  -14.9251 C   0  0  0  0  0  0  0  0  0  0  0  0
   19.8149   -0.8204  -15.6549 C   0  0  2  0  0  0  0  0  0  0  0  0
   19.7287   -2.1304  -15.0685 N   0  0  0  0  0  0  0  0  0  0  0  0
   21.1592   -0.2141  -15.4862 C   0  0  0  0  0  0  0  0  0  0  0  0
   21.9123   -0.7126  -14.6112 O   0  0  0  0  0  0  0  0  0  0  0  0
   21.6285    0.8491  -16.2202 O   0  0  0  0  0  0  0  0  0  0  0  0
  2  1  1  1
  3  2  1  0
  4  3  1  0
  5  4  2  0
  6  7  2  0
  6  2  1  0
  8  4  1  0
  9 10  1  0
 10 12  1  0
 11 10  2  0
 12 13  1  0
 14 13  1  6
 14 16  1  0
 14 15  1  0
 15  6  1  0
 16 17  2  0
 19 18  1  1
 20 19  1  0
 20 16  1  0
 21 19  1  0
 22 21  2  0
 23 21  1  0
M  END
$$$$
