DQA.pdb
     RDKit          3D

 23 22  0  0  1  0  0  0  0  0999 V2000
   14.0539  -13.7785  -11.6054 N   0  0  0  0  0  0  0  0  0  0  0  0
   13.5767  -12.4245  -11.6289 C   0  0  1  0  0  0  0  0  0  0  0  0
   12.6352  -12.2126  -10.4821 C   0  0  0  0  0  0  0  0  0  0  0  0
   11.3763  -12.9541  -10.7383 C   0  0  0  0  0  0  0  0  0  0  0  0
   11.1080  -13.4057  -11.8949 O   0  0  0  0  0  0  0  0  0  0  0  0
   14.7173  -11.4646  -11.5115 C   0  0  0  0  0  0  0  0  0  0  0  0
   15.6241  -11.6859  -10.6694 O   0  0  0  0  0  0  0  0  0  0  0  0
   10.4304  -13.1962   -9.7479 O   0  0  0  0  0  0  0  0  0  0  0  0
   18.8819  -10.3931  -14.6742 N   0  0  0  0  0  0  0  0  0  0  0  0
   18.9618   -9.0402  -14.2733 C   0  0  0  0  0  0  0  0  0  0  0  0
   20.0876   -8.4869  -14.3528 O   0  0  0  0  0  0  0  0  0  0  0  0
   17.7287   -8.3918  -13.7978 C   0  0  0  0  0  0  0  0  0  0  0  0
   16.5432   -9.2710  -13.6796 C   0  0  0  0  0  0  0  0  0  0  0  0
   15.9749   -9.4348  -12.3093 C   0  0  2  0  0  0  0  0  0  0  0  0
   14.8227  -10.3138  -12.3087 N   0  0  0  0  0  0  0  0  0  0  0  0
   15.6606   -8.1245  -11.6859 C   0  0  0  0  0  0  0  0  0  0  0  0
   14.7104   -7.4333  -12.1264 O   0  0  0  0  0  0  0  0  0  0  0  0
   16.9949   -6.2526   -8.7034 C   0  0  0  0  0  0  0  0  0  0  0  0
   16.2250   -6.3341  -10.0232 C   0  0  2  0  0  0  0  0  0  0  0  0
   16.4357   -7.6418  -10.5824 N   0  0  0  0  0  0  0  0  0  0  0  0
   16.7568   -5.2557  -10.8936 C   0  0  0  0  0  0  0  0  0  0  0  0
   17.4996   -5.5977  -11.8488 O   0  0  0  0  0  0  0  0  0  0  0  0
   16.4904   -3.9182  -10.7223 O   0  0  0  0  0  0  0  0  0  0  0  0
  2  1  1  1
  3  2  1  0
  4  3  1  0
  5  4  2  0
  6  7  2  0
  6  2  1  0
  8  4  1  0
  9 10  1  0
 10 12  1  0
 11 10  2  0
 12 13  1  0
 14 13  1  6
 14 16  1  0
 14 15  1  0
 15  6  1  0
 16 17  2  0
 19 18  1  1
 20 19  1  0
 20 16  1  0
 21 19  1  0
 22 21  2  0
 23 21  1  0
M  END
$$$$
