DQA.pdb
     RDKit          3D

 23 22  0  0  1  0  0  0  0  0999 V2000
   16.8299  -11.8316  -16.2011 N   0  0  0  0  0  0  0  0  0  0  0  0
   18.0054  -11.5272  -15.4347 C   0  0  1  0  0  0  0  0  0  0  0  0
   19.2194  -11.7354  -16.2886 C   0  0  0  0  0  0  0  0  0  0  0  0
   19.3669  -13.1811  -16.5863 C   0  0  0  0  0  0  0  0  0  0  0  0
   19.5015  -14.0302  -15.6512 O   0  0  0  0  0  0  0  0  0  0  0  0
   17.9724  -10.1075  -14.9660 C   0  0  0  0  0  0  0  0  0  0  0  0
   17.6193   -9.2034  -15.7650 O   0  0  0  0  0  0  0  0  0  0  0  0
   19.3669  -13.6867  -17.8819 O   0  0  0  0  0  0  0  0  0  0  0  0
   16.6126   -7.9635   -9.2987 N   0  0  0  0  0  0  0  0  0  0  0  0
   16.9786   -6.7653   -9.9526 C   0  0  0  0  0  0  0  0  0  0  0  0
   16.7501   -5.6899   -9.3433 O   0  0  0  0  0  0  0  0  0  0  0  0
   17.5938   -6.8717  -11.2858 C   0  0  0  0  0  0  0  0  0  0  0  0
   17.6795   -8.2387  -11.8482 C   0  0  0  0  0  0  0  0  0  0  0  0
   18.3307   -8.3644  -13.1852 C   0  0  2  0  0  0  0  0  0  0  0  0
   18.3221   -9.7341  -13.6586 N   0  0  0  0  0  0  0  0  0  0  0  0
   19.7031   -7.7981  -13.1819 C   0  0  0  0  0  0  0  0  0  0  0  0
   20.6096   -8.3570  -12.5182 O   0  0  0  0  0  0  0  0  0  0  0  0
   21.4521   -5.1828  -15.2041 C   0  0  0  0  0  0  0  0  0  0  0  0
   21.3165   -6.0342  -13.9399 C   0  0  2  0  0  0  0  0  0  0  0  0
   20.0014   -6.6152  -13.9326 N   0  0  0  0  0  0  0  0  0  0  0  0
   21.5380   -5.1244  -12.7881 C   0  0  0  0  0  0  0  0  0  0  0  0
   20.5199   -4.6559  -12.2178 O   0  0  0  0  0  0  0  0  0  0  0  0
   22.7756   -4.7652  -12.3100 O   0  0  0  0  0  0  0  0  0  0  0  0
  2  1  1  6
  3  2  1  0
  4  3  1  0
  5  4  2  0
  6  7  2  0
  6  2  1  0
  8  4  1  0
  9 10  1  0
 10 12  1  0
 11 10  2  0
 12 13  1  0
 14 13  1  1
 14 16  1  0
 14 15  1  0
 15  6  1  0
 16 17  2  0
 19 18  1  6
 20 19  1  0
 20 16  1  0
 21 19  1  0
 22 21  2  0
 23 21  1  0
M  END
$$$$
