DQA.pdb
     RDKit          3D

 23 22  0  0  1  0  0  0  0  0999 V2000
   17.7179  -12.0460  -15.9283 N   0  0  0  0  0  0  0  0  0  0  0  0
   17.3349  -10.6819  -15.6950 C   0  0  1  0  0  0  0  0  0  0  0  0
   16.5337  -10.6030  -14.4309 C   0  0  0  0  0  0  0  0  0  0  0  0
   15.2349  -11.2916  -14.6302 C   0  0  0  0  0  0  0  0  0  0  0  0
   14.5274  -11.0658  -15.6606 O   0  0  0  0  0  0  0  0  0  0  0  0
   18.5447   -9.8127  -15.5645 C   0  0  0  0  0  0  0  0  0  0  0  0
   19.4529  -10.1385  -14.7585 O   0  0  0  0  0  0  0  0  0  0  0  0
   14.7216  -12.2088  -13.7194 O   0  0  0  0  0  0  0  0  0  0  0  0
   20.6688   -5.9703  -20.0732 N   0  0  0  0  0  0  0  0  0  0  0  0
   21.7102   -5.8999  -19.1204 C   0  0  0  0  0  0  0  0  0  0  0  0
   22.7585   -5.2976  -19.4641 O   0  0  0  0  0  0  0  0  0  0  0  0
   21.4855   -6.5335  -17.8107 C   0  0  0  0  0  0  0  0  0  0  0  0
   20.2157   -7.2812  -17.6664 C   0  0  0  0  0  0  0  0  0  0  0  0
   19.9340   -7.8526  -16.3167 C   0  0  2  0  0  0  0  0  0  0  0  0
   18.7144   -8.6353  -16.3102 N   0  0  0  0  0  0  0  0  0  0  0  0
   19.9112   -6.8002  -15.2697 C   0  0  0  0  0  0  0  0  0  0  0  0
   18.9219   -6.0343  -15.1732 O   0  0  0  0  0  0  0  0  0  0  0  0
   21.8452   -6.1588  -12.1670 C   0  0  0  0  0  0  0  0  0  0  0  0
   21.0269   -5.6356  -13.3494 C   0  0  2  0  0  0  0  0  0  0  0  0
   21.0128   -6.6518  -14.3664 N   0  0  0  0  0  0  0  0  0  0  0  0
   21.6893   -4.3885  -13.8069 C   0  0  0  0  0  0  0  0  0  0  0  0
   21.7446   -3.4316  -12.9929 O   0  0  0  0  0  0  0  0  0  0  0  0
   22.2413   -4.2157  -15.0537 O   0  0  0  0  0  0  0  0  0  0  0  0
  2  1  1  1
  3  2  1  0
  4  3  1  0
  5  4  2  0
  6  7  2  0
  6  2  1  0
  8  4  1  0
  9 10  1  0
 10 12  1  0
 11 10  2  0
 12 13  1  0
 14 13  1  6
 14 16  1  0
 14 15  1  0
 15  6  1  0
 16 17  2  0
 19 18  1  1
 20 19  1  0
 20 16  1  0
 21 19  1  0
 22 21  2  0
 23 21  1  0
M  END
$$$$
