DQA.pdb
     RDKit          3D

 23 22  0  0  1  0  0  0  0  0999 V2000
   23.8079   -9.9755  -17.6764 N   0  0  0  0  0  0  0  0  0  0  0  0
   23.4692   -9.0231  -16.6565 C   0  0  1  0  0  0  0  0  0  0  0  0
   24.5336   -7.9700  -16.5909 C   0  0  0  0  0  0  0  0  0  0  0  0
   25.8242   -8.6004  -16.2202 C   0  0  0  0  0  0  0  0  0  0  0  0
   26.8603   -8.4375  -16.9367 O   0  0  0  0  0  0  0  0  0  0  0  0
   22.1558   -8.3755  -16.9595 C   0  0  0  0  0  0  0  0  0  0  0  0
   21.8166   -8.2021  -18.1576 O   0  0  0  0  0  0  0  0  0  0  0  0
   25.9770   -9.3930  -15.0876 O   0  0  0  0  0  0  0  0  0  0  0  0
   16.8300   -9.4828  -14.2538 N   0  0  0  0  0  0  0  0  0  0  0  0
   16.4466   -8.3694  -15.0352 C   0  0  0  0  0  0  0  0  0  0  0  0
   15.2252   -8.0730  -15.0458 O   0  0  0  0  0  0  0  0  0  0  0  0
   17.5012   -7.6511  -15.7695 C   0  0  0  0  0  0  0  0  0  0  0  0
   18.8767   -8.1696  -15.5924 C   0  0  0  0  0  0  0  0  0  0  0  0
   19.9709   -7.3693  -16.2167 C   0  0  2  0  0  0  0  0  0  0  0  0
   21.2738   -7.9472  -15.9547 N   0  0  0  0  0  0  0  0  0  0  0  0
   19.9136   -5.9449  -15.8019 C   0  0  0  0  0  0  0  0  0  0  0  0
   20.1495   -5.6297  -14.6104 O   0  0  0  0  0  0  0  0  0  0  0  0
   19.5129   -2.7031  -17.6658 C   0  0  0  0  0  0  0  0  0  0  0  0
   19.5204   -3.5373  -16.3831 C   0  0  2  0  0  0  0  0  0  0  0  0
   19.5901   -4.9247  -16.7539 N   0  0  0  0  0  0  0  0  0  0  0  0
   18.2690   -3.2100  -15.6550 C   0  0  0  0  0  0  0  0  0  0  0  0
   18.1439   -2.0370  -15.2194 O   0  0  0  0  0  0  0  0  0  0  0  0
   17.2471   -4.1010  -15.4291 O   0  0  0  0  0  0  0  0  0  0  0  0
  2  1  1  6
  3  2  1  0
  4  3  1  0
  5  4  2  0
  6  7  2  0
  6  2  1  0
  8  4  1  0
  9 10  1  0
 10 12  1  0
 11 10  2  0
 12 13  1  0
 14 13  1  1
 14 16  1  0
 14 15  1  0
 15  6  1  0
 16 17  2  0
 19 18  1  6
 20 19  1  0
 20 16  1  0
 21 19  1  0
 22 21  2  0
 23 21  1  0
M  END
$$$$
