CIH.pdb
     RDKit          3D

 25 25  0  0  1  0  0  0  0  0999 V2000
   28.9108  -19.3933  -16.0209 N   0  0  0  0  0  0  0  0  0  0  0  0
   27.9237  -18.8554  -15.1417 C   0  0  1  0  0  0  0  0  0  0  0  0
   27.1333  -17.7634  -15.8319 C   0  0  0  0  0  0  0  0  0  0  0  0
   25.9586  -16.9803  -14.7013 S   0  0  0  0  0  0  0  0  0  0  0  0
   26.9633  -19.8789  -14.6535 C   0  0  0  0  0  0  0  0  0  0  0  0
   26.5391  -20.7625  -15.4406 O   0  0  0  0  0  0  0  0  0  0  0  0
   25.4505  -20.6304   -9.0421 C   0  0  0  0  0  0  0  0  0  0  0  0
   25.2111  -20.1524  -10.4756 C   0  0  0  0  0  0  0  0  0  0  0  0
   25.6966  -21.2256  -11.3854 C   0  0  2  0  0  0  0  0  0  0  0  0
   27.1214  -21.5593  -11.0669 C   0  0  0  0  0  0  0  0  0  0  0  0
   25.5524  -20.9220  -12.8427 C   0  0  2  0  0  0  0  0  0  0  0  0
   26.4749  -19.9319  -13.3190 N   0  0  0  0  0  0  0  0  0  0  0  0
   24.1494  -20.6272  -13.2484 C   0  0  0  0  0  0  0  0  0  0  0  0
   23.7526  -19.4379  -13.1921 O   0  0  0  0  0  0  0  0  0  0  0  0
   23.2572  -21.6348  -13.6912 N   0  0  0  0  0  0  0  0  0  0  0  0
   21.8546  -21.3618  -14.0602 C   0  0  1  0  0  0  0  0  0  0  0  0
   21.3187  -22.4252  -14.9442 C   0  0  0  0  0  0  0  0  0  0  0  0
   19.9432  -22.1570  -15.3986 C   0  0  0  0  0  0  0  0  0  0  0  0
   19.1350  -21.0510  -15.2771 C   0  0  0  0  0  0  0  0  0  0  0  0
   17.9594  -21.2446  -15.9332 N   0  0  0  0  0  0  0  0  0  0  0  0
   18.0441  -22.4609  -16.4565 C   0  0  0  0  0  0  0  0  0  0  0  0
   19.2112  -23.0385  -16.1614 N   0  0  0  0  0  0  0  0  0  0  0  0
   21.0867  -21.3046  -12.7489 C   0  0  0  0  0  0  0  0  0  0  0  0
   21.4258  -22.0767  -11.7876 O   0  0  0  0  0  0  0  0  0  0  0  0
   20.0332  -20.4844  -12.4904 O   0  0  0  0  0  0  0  0  0  0  0  0
  2  3  1  0
  2  1  1  6
  3  4  1  0
  5  2  1  0
  6  5  2  0
  7  8  1  0
  8  9  1  0
  9 11  1  0
  9 10  1  6
 11 12  1  1
 12  5  1  0
 13 11  1  0
 13 15  1  0
 14 13  2  0
 16 15  1  0
 16 23  1  0
 16 17  1  6
 18 17  1  0
 18 19  2  0
 20 19  1  0
 21 22  2  0
 21 20  1  0
 22 18  1  0
 23 25  1  0
 24 23  2  0
M  END
$$$$
