CIH.pdb
     RDKit          3D

 25 25  0  0  1  0  0  0  0  0999 V2000
   20.5646  -14.6918  -16.9951 N   0  0  0  0  0  0  0  0  0  0  0  0
   21.1020  -13.5638  -17.6847 C   0  0  1  0  0  0  0  0  0  0  0  0
   20.0288  -12.8798  -18.5056 C   0  0  0  0  0  0  0  0  0  0  0  0
   19.4737  -13.9254  -19.8730 S   0  0  0  0  0  0  0  0  0  0  0  0
   21.6941  -12.5537  -16.7696 C   0  0  0  0  0  0  0  0  0  0  0  0
   21.1951  -12.3757  -15.6296 O   0  0  0  0  0  0  0  0  0  0  0  0
   26.8014  -12.2539  -15.4648 C   0  0  0  0  0  0  0  0  0  0  0  0
   25.2730  -12.2567  -15.5365 C   0  0  0  0  0  0  0  0  0  0  0  0
   24.8513  -10.9111  -16.0128 C   0  0  2  0  0  0  0  0  0  0  0  0
   25.3464   -9.8576  -15.0704 C   0  0  0  0  0  0  0  0  0  0  0  0
   23.3794  -10.7578  -16.2290 C   0  0  2  0  0  0  0  0  0  0  0  0
   22.8189  -11.7494  -17.1013 N   0  0  0  0  0  0  0  0  0  0  0  0
   22.9803   -9.3756  -16.6160 C   0  0  0  0  0  0  0  0  0  0  0  0
   23.4615   -8.8917  -17.6693 O   0  0  0  0  0  0  0  0  0  0  0  0
   22.0845   -8.5969  -15.8423 N   0  0  0  0  0  0  0  0  0  0  0  0
   21.6175   -7.2595  -16.2558 C   0  0  1  0  0  0  0  0  0  0  0  0
   20.1888   -7.2920  -16.6519 C   0  0  0  0  0  0  0  0  0  0  0  0
   19.9636   -7.9732  -17.9387 C   0  0  0  0  0  0  0  0  0  0  0  0
   20.4524   -7.7351  -19.2018 C   0  0  0  0  0  0  0  0  0  0  0  0
   20.0189   -8.6889  -20.0690 N   0  0  0  0  0  0  0  0  0  0  0  0
   19.2695   -9.5098  -19.3443 C   0  0  0  0  0  0  0  0  0  0  0  0
   19.2113   -9.1186  -18.0689 N   0  0  0  0  0  0  0  0  0  0  0  0
   21.8285   -6.3577  -15.0497 C   0  0  0  0  0  0  0  0  0  0  0  0
   22.2234   -6.8671  -13.9453 O   0  0  0  0  0  0  0  0  0  0  0  0
   21.6275   -5.0129  -15.0295 O   0  0  0  0  0  0  0  0  0  0  0  0
  2  3  1  0
  2  1  1  1
  3  4  1  0
  5  2  1  0
  6  5  2  0
  7  8  1  0
  8  9  1  0
  9 11  1  0
  9 10  1  1
 11 12  1  6
 12  5  1  0
 13 11  1  0
 13 15  1  0
 14 13  2  0
 16 15  1  0
 16 23  1  0
 16 17  1  1
 18 17  1  0
 18 19  2  0
 20 19  1  0
 21 22  2  0
 21 20  1  0
 22 18  1  0
 23 25  1  0
 24 23  2  0
M  END
$$$$
