CIH.pdb
     RDKit          3D

 25 25  0  0  1  0  0  0  0  0999 V2000
   20.3607  -20.7787  -11.5203 N   0  0  0  0  0  0  0  0  0  0  0  0
   21.1700  -21.4258  -12.5017 C   0  0  1  0  0  0  0  0  0  0  0  0
   20.3983  -21.6104  -13.7916 C   0  0  0  0  0  0  0  0  0  0  0  0
   19.0010  -22.7376  -13.5721 S   0  0  0  0  0  0  0  0  0  0  0  0
   22.4136  -20.6747  -12.8139 C   0  0  0  0  0  0  0  0  0  0  0  0
   22.3962  -19.4178  -12.8298 O   0  0  0  0  0  0  0  0  0  0  0  0
   27.0255  -21.5512  -10.3974 C   0  0  0  0  0  0  0  0  0  0  0  0
   25.7585  -21.0329  -11.0807 C   0  0  0  0  0  0  0  0  0  0  0  0
   26.0295  -20.9971  -12.5438 C   0  0  2  0  0  0  0  0  0  0  0  0
   27.2138  -20.1237  -12.8225 C   0  0  0  0  0  0  0  0  0  0  0  0
   24.8676  -20.5726  -13.3842 C   0  0  2  0  0  0  0  0  0  0  0  0
   23.6599  -21.2947  -13.1046 N   0  0  0  0  0  0  0  0  0  0  0  0
   25.1762  -20.5323  -14.8412 C   0  0  0  0  0  0  0  0  0  0  0  0
   25.2371  -21.6194  -15.4654 O   0  0  0  0  0  0  0  0  0  0  0  0
   25.4012  -19.3197  -15.5387 N   0  0  0  0  0  0  0  0  0  0  0  0
   24.9421  -19.0905  -16.9224 C   0  0  1  0  0  0  0  0  0  0  0  0
   23.5469  -18.5884  -16.9455 C   0  0  0  0  0  0  0  0  0  0  0  0
   23.0535  -18.3220  -18.3079 C   0  0  0  0  0  0  0  0  0  0  0  0
   23.1213  -19.0555  -19.4690 C   0  0  0  0  0  0  0  0  0  0  0  0
   22.4458  -18.4290  -20.4695 N   0  0  0  0  0  0  0  0  0  0  0  0
   21.9637  -17.3180  -19.9274 C   0  0  0  0  0  0  0  0  0  0  0  0
   22.3032  -17.2167  -18.6400 N   0  0  0  0  0  0  0  0  0  0  0  0
   25.8999  -18.0661  -17.5103 C   0  0  0  0  0  0  0  0  0  0  0  0
   26.2359  -17.0474  -16.8142 O   0  0  0  0  0  0  0  0  0  0  0  0
   26.4519  -18.1283  -18.7517 O   0  0  0  0  0  0  0  0  0  0  0  0
  2  3  1  0
  2  1  1  1
  3  4  1  0
  5  2  1  0
  6  5  2  0
  7  8  1  0
  8  9  1  0
  9 11  1  0
  9 10  1  1
 11 12  1  6
 12  5  1  0
 13 11  1  0
 13 15  1  0
 14 13  2  0
 16 15  1  0
 16 23  1  0
 16 17  1  1
 18 17  1  0
 18 19  2  0
 20 19  1  0
 21 22  2  0
 21 20  1  0
 22 18  1  0
 23 25  1  0
 24 23  2  0
M  END
$$$$
