CIH.pdb
     RDKit          3D

 25 25  0  0  1  0  0  0  0  0999 V2000
   18.1686   -9.2080  -16.7333 N   0  0  0  0  0  0  0  0  0  0  0  0
   18.3366  -10.1847  -15.7065 C   0  0  1  0  0  0  0  0  0  0  0  0
   19.4321  -11.1632  -16.0754 C   0  0  0  0  0  0  0  0  0  0  0  0
   18.9657  -12.1727  -17.5019 S   0  0  0  0  0  0  0  0  0  0  0  0
   18.6786   -9.5875  -14.3894 C   0  0  0  0  0  0  0  0  0  0  0  0
   18.8755  -10.3345  -13.3976 O   0  0  0  0  0  0  0  0  0  0  0  0
   22.1942   -5.6202  -13.7689 C   0  0  0  0  0  0  0  0  0  0  0  0
   21.3595   -6.8954  -13.6338 C   0  0  0  0  0  0  0  0  0  0  0  0
   20.1088   -6.5299  -12.9147 C   0  0  2  0  0  0  0  0  0  0  0  0
   20.4325   -6.0816  -11.5228 C   0  0  0  0  0  0  0  0  0  0  0  0
   19.0704   -7.6057  -12.8806 C   0  0  2  0  0  0  0  0  0  0  0  0
   18.8029   -8.1890  -14.1637 N   0  0  0  0  0  0  0  0  0  0  0  0
   17.8230   -7.2002  -12.1741 C   0  0  0  0  0  0  0  0  0  0  0  0
   17.1210   -6.2927  -12.6828 O   0  0  0  0  0  0  0  0  0  0  0  0
   17.4070   -7.7988  -10.9593 N   0  0  0  0  0  0  0  0  0  0  0  0
   16.1504   -7.4391  -10.2741 C   0  0  1  0  0  0  0  0  0  0  0  0
   15.5700   -8.6107   -9.5742 C   0  0  0  0  0  0  0  0  0  0  0  0
   14.3707   -8.2749   -8.7870 C   0  0  0  0  0  0  0  0  0  0  0  0
   14.2176   -7.7277   -7.5348 C   0  0  0  0  0  0  0  0  0  0  0  0
   12.9009   -7.5275   -7.2591 N   0  0  0  0  0  0  0  0  0  0  0  0
   12.2478   -7.9472   -8.3352 C   0  0  0  0  0  0  0  0  0  0  0  0
   13.0875   -8.4000   -9.2694 N   0  0  0  0  0  0  0  0  0  0  0  0
   16.5179   -6.3418   -9.2877 C   0  0  0  0  0  0  0  0  0  0  0  0
   17.6716   -6.3527   -8.7362 O   0  0  0  0  0  0  0  0  0  0  0  0
   15.7080   -5.3136   -8.9184 O   0  0  0  0  0  0  0  0  0  0  0  0
  2  3  1  0
  2  1  1  6
  3  4  1  0
  5  2  1  0
  6  5  2  0
  7  8  1  0
  8  9  1  0
  9 11  1  0
  9 10  1  1
 11 12  1  6
 12  5  1  0
 13 11  1  0
 13 15  1  0
 14 13  2  0
 16 15  1  0
 16 23  1  0
 16 17  1  1
 18 17  1  0
 18 19  2  0
 20 19  1  0
 21 22  2  0
 21 20  1  0
 22 18  1  0
 23 25  1  0
 24 23  2  0
M  END
$$$$
