CIH.pdb
     RDKit          3D

 25 25  0  0  1  0  0  0  0  0999 V2000
   30.3765  -26.2275  -18.3986 N   0  0  0  0  0  0  0  0  0  0  0  0
   29.6513  -27.1590  -17.5967 C   0  0  1  0  0  0  0  0  0  0  0  0
   28.1948  -26.7563  -17.4971 C   0  0  0  0  0  0  0  0  0  0  0  0
   27.9918  -25.2376  -16.5360 S   0  0  0  0  0  0  0  0  0  0  0  0
   29.7091  -28.5466  -18.1255 C   0  0  0  0  0  0  0  0  0  0  0  0
   30.0209  -28.7441  -19.3272 O   0  0  0  0  0  0  0  0  0  0  0  0
   32.9044  -32.6079  -19.1369 C   0  0  0  0  0  0  0  0  0  0  0  0
   31.4662  -32.6338  -18.6157 C   0  0  0  0  0  0  0  0  0  0  0  0
   31.1535  -31.2672  -18.1157 C   0  0  2  0  0  0  0  0  0  0  0  0
   32.0246  -30.9413  -16.9418 C   0  0  0  0  0  0  0  0  0  0  0  0
   29.7163  -31.0426  -17.7683 C   0  0  2  0  0  0  0  0  0  0  0  0
   29.4283  -29.7022  -17.3458 N   0  0  0  0  0  0  0  0  0  0  0  0
   29.1703  -32.0603  -16.8271 C   0  0  0  0  0  0  0  0  0  0  0  0
   29.5069  -31.9934  -15.6199 O   0  0  0  0  0  0  0  0  0  0  0  0
   28.2927  -33.0909  -17.2452 N   0  0  0  0  0  0  0  0  0  0  0  0
   27.4587  -33.8673  -16.3073 C   0  0  1  0  0  0  0  0  0  0  0  0
   26.6634  -32.9713  -15.4333 C   0  0  0  0  0  0  0  0  0  0  0  0
   27.0071  -33.1049  -14.0069 C   0  0  0  0  0  0  0  0  0  0  0  0
   27.9594  -33.8553  -13.3580 C   0  0  0  0  0  0  0  0  0  0  0  0
   27.9518  -33.5868  -12.0248 N   0  0  0  0  0  0  0  0  0  0  0  0
   27.0023  -32.6758  -11.8542 C   0  0  0  0  0  0  0  0  0  0  0  0
   26.4151  -32.3610  -13.0113 N   0  0  0  0  0  0  0  0  0  0  0  0
   26.5532  -34.7270  -17.1751 C   0  0  0  0  0  0  0  0  0  0  0  0
   26.5961  -34.6006  -18.4469 O   0  0  0  0  0  0  0  0  0  0  0  0
   25.6666  -35.6491  -16.7132 O   0  0  0  0  0  0  0  0  0  0  0  0
  2  3  1  0
  2  1  1  6
  3  4  1  0
  5  2  1  0
  6  5  2  0
  7  8  1  0
  8  9  1  0
  9 11  1  0
  9 10  1  1
 11 12  1  1
 12  5  1  0
 13 11  1  0
 13 15  1  0
 14 13  2  0
 16 15  1  0
 16 23  1  0
 16 17  1  6
 18 17  1  0
 18 19  2  0
 20 19  1  0
 21 22  2  0
 21 20  1  0
 22 18  1  0
 23 25  1  0
 24 23  2  0
M  END
$$$$
