CIH.pdb
     RDKit          3D

 25 25  0  0  1  0  0  0  0  0999 V2000
   22.9692  -11.5002  -20.2130 N   0  0  0  0  0  0  0  0  0  0  0  0
   23.2267  -10.2438  -19.5872 C   0  0  1  0  0  0  0  0  0  0  0  0
   23.0396   -9.1091  -20.5725 C   0  0  0  0  0  0  0  0  0  0  0  0
   24.2116   -9.2238  -21.9453 S   0  0  0  0  0  0  0  0  0  0  0  0
   22.3455   -9.9873  -18.4185 C   0  0  0  0  0  0  0  0  0  0  0  0
   21.1514  -10.3800  -18.4390 O   0  0  0  0  0  0  0  0  0  0  0  0
   23.3776  -11.6199  -13.6547 C   0  0  0  0  0  0  0  0  0  0  0  0
   22.7480  -11.1747  -14.9762 C   0  0  0  0  0  0  0  0  0  0  0  0
   22.4326   -9.7258  -14.8487 C   0  0  2  0  0  0  0  0  0  0  0  0
   21.4579   -9.5118  -13.7319 C   0  0  0  0  0  0  0  0  0  0  0  0
   21.9289   -9.0833  -16.1018 C   0  0  2  0  0  0  0  0  0  0  0  0
   22.7690   -9.3088  -17.2427 N   0  0  0  0  0  0  0  0  0  0  0  0
   21.5850   -7.6439  -15.9302 C   0  0  0  0  0  0  0  0  0  0  0  0
   22.4991   -6.8507  -15.5981 O   0  0  0  0  0  0  0  0  0  0  0  0
   20.2735   -7.1456  -16.1275 N   0  0  0  0  0  0  0  0  0  0  0  0
   19.9364   -5.7114  -16.0417 C   0  0  1  0  0  0  0  0  0  0  0  0
   19.4232   -5.2054  -17.3378 C   0  0  0  0  0  0  0  0  0  0  0  0
   20.4938   -4.9194  -18.3087 C   0  0  0  0  0  0  0  0  0  0  0  0
   21.8471   -4.7308  -18.1544 C   0  0  0  0  0  0  0  0  0  0  0  0
   22.4477   -4.5705  -19.3641 N   0  0  0  0  0  0  0  0  0  0  0  0
   21.4707   -4.6615  -20.2574 C   0  0  0  0  0  0  0  0  0  0  0  0
   20.2902   -4.8699  -19.6692 N   0  0  0  0  0  0  0  0  0  0  0  0
   18.8779   -5.6007  -14.9555 C   0  0  0  0  0  0  0  0  0  0  0  0
   18.3585   -6.6650  -14.4730 O   0  0  0  0  0  0  0  0  0  0  0  0
   18.4099   -4.4369  -14.4302 O   0  0  0  0  0  0  0  0  0  0  0  0
  2  3  1  0
  2  1  1  6
  3  4  1  0
  5  2  1  0
  6  5  2  0
  7  8  1  0
  8  9  1  0
  9 11  1  0
  9 10  1  1
 11 12  1  6
 12  5  1  0
 13 11  1  0
 13 15  1  0
 14 13  2  0
 16 15  1  0
 16 23  1  0
 16 17  1  6
 18 17  1  0
 18 19  2  0
 20 19  1  0
 21 22  2  0
 21 20  1  0
 22 18  1  0
 23 25  1  0
 24 23  2  0
M  END
$$$$
