CIH.pdb
     RDKit          3D

 25 25  0  0  1  0  0  0  0  0999 V2000
   28.7810  -22.4602  -16.6226 N   0  0  0  0  0  0  0  0  0  0  0  0
   28.0072  -21.3680  -16.1274 C   0  0  1  0  0  0  0  0  0  0  0  0
   27.2920  -20.6639  -17.2615 C   0  0  0  0  0  0  0  0  0  0  0  0
   28.4560  -19.8031  -18.3457 S   0  0  0  0  0  0  0  0  0  0  0  0
   26.9876  -21.7856  -15.1303 C   0  0  0  0  0  0  0  0  0  0  0  0
   26.6490  -22.9937  -15.0523 O   0  0  0  0  0  0  0  0  0  0  0  0
   25.3968  -20.8006   -9.4446 C   0  0  0  0  0  0  0  0  0  0  0  0
   24.8395  -21.3019  -10.7784 C   0  0  0  0  0  0  0  0  0  0  0  0
   25.7986  -20.8906  -11.8396 C   0  0  2  0  0  0  0  0  0  0  0  0
   26.0220  -19.4108  -11.7804 C   0  0  0  0  0  0  0  0  0  0  0  0
   25.4096  -21.2974  -13.2252 C   0  0  2  0  0  0  0  0  0  0  0  0
   26.3481  -20.8891  -14.2306 N   0  0  0  0  0  0  0  0  0  0  0  0
   24.0096  -20.9290  -13.5776 C   0  0  0  0  0  0  0  0  0  0  0  0
   23.7608  -19.7280  -13.8433 O   0  0  0  0  0  0  0  0  0  0  0  0
   22.9603  -21.8799  -13.6222 N   0  0  0  0  0  0  0  0  0  0  0  0
   21.5671  -21.5255  -13.9560 C   0  0  1  0  0  0  0  0  0  0  0  0
   20.7221  -22.7383  -14.0759 C   0  0  0  0  0  0  0  0  0  0  0  0
   19.3134  -22.4307  -14.3785 C   0  0  0  0  0  0  0  0  0  0  0  0
   18.6644  -21.2430  -14.6213 C   0  0  0  0  0  0  0  0  0  0  0  0
   17.3601  -21.4672  -14.9348 N   0  0  0  0  0  0  0  0  0  0  0  0
   17.2076  -22.7844  -14.8870 C   0  0  0  0  0  0  0  0  0  0  0  0
   18.3485  -23.3957  -14.5593 N   0  0  0  0  0  0  0  0  0  0  0  0
   21.0849  -20.6350  -12.8216 C   0  0  0  0  0  0  0  0  0  0  0  0
   21.2806  -20.9975  -11.6110 O   0  0  0  0  0  0  0  0  0  0  0  0
   20.4387  -19.4482  -12.9747 O   0  0  0  0  0  0  0  0  0  0  0  0
  2  3  1  0
  2  1  1  6
  3  4  1  0
  5  2  1  0
  6  5  2  0
  7  8  1  0
  8  9  1  0
  9 11  1  0
  9 10  1  6
 11 12  1  6
 12  5  1  0
 13 11  1  0
 13 15  1  0
 14 13  2  0
 16 15  1  0
 16 23  1  0
 16 17  1  1
 18 17  1  0
 18 19  2  0
 20 19  1  0
 21 22  2  0
 21 20  1  0
 22 18  1  0
 23 25  1  0
 24 23  2  0
M  END
$$$$
