CIH.pdb
     RDKit          3D

 25 25  0  0  1  0  0  0  0  0999 V2000
   24.9722  -12.6175  -19.5928 N   0  0  0  0  0  0  0  0  0  0  0  0
   23.6514  -13.1170  -19.7994 C   0  0  1  0  0  0  0  0  0  0  0  0
   23.6779  -14.6127  -20.0353 C   0  0  0  0  0  0  0  0  0  0  0  0
   24.1855  -15.0079  -21.7257 S   0  0  0  0  0  0  0  0  0  0  0  0
   22.7448  -12.8487  -18.6530 C   0  0  0  0  0  0  0  0  0  0  0  0
   23.1707  -12.9767  -17.4772 O   0  0  0  0  0  0  0  0  0  0  0  0
   18.9848   -8.8724  -16.4989 C   0  0  0  0  0  0  0  0  0  0  0  0
   19.2562  -10.3771  -16.4419 C   0  0  0  0  0  0  0  0  0  0  0  0
   20.1349  -10.7109  -17.5958 C   0  0  2  0  0  0  0  0  0  0  0  0
   19.4928  -10.2635  -18.8728 C   0  0  0  0  0  0  0  0  0  0  0  0
   20.5203  -12.1528  -17.6911 C   0  0  2  0  0  0  0  0  0  0  0  0
   21.3886  -12.4454  -18.7950 N   0  0  0  0  0  0  0  0  0  0  0  0
   19.3564  -13.0806  -17.6276 C   0  0  0  0  0  0  0  0  0  0  0  0
   18.6507  -13.2189  -18.6562 O   0  0  0  0  0  0  0  0  0  0  0  0
   19.0227  -13.8046  -16.4564 N   0  0  0  0  0  0  0  0  0  0  0  0
   17.8774  -14.7323  -16.3830 C   0  0  1  0  0  0  0  0  0  0  0  0
   18.1442  -15.8350  -15.4278 C   0  0  0  0  0  0  0  0  0  0  0  0
   17.0047  -16.7572  -15.2804 C   0  0  0  0  0  0  0  0  0  0  0  0
   16.4845  -17.7156  -16.1181 C   0  0  0  0  0  0  0  0  0  0  0  0
   15.4641  -18.3781  -15.5100 N   0  0  0  0  0  0  0  0  0  0  0  0
   15.3580  -17.8323  -14.3052 C   0  0  0  0  0  0  0  0  0  0  0  0
   16.2585  -16.8624  -14.1284 N   0  0  0  0  0  0  0  0  0  0  0  0
   16.6943  -13.8919  -15.9288 C   0  0  0  0  0  0  0  0  0  0  0  0
   16.8921  -12.8959  -15.1516 O   0  0  0  0  0  0  0  0  0  0  0  0
   15.3977  -14.1063  -16.2788 O   0  0  0  0  0  0  0  0  0  0  0  0
  2  3  1  0
  2  1  1  1
  3  4  1  0
  5  2  1  0
  6  5  2  0
  7  8  1  0
  8  9  1  0
  9 11  1  0
  9 10  1  6
 11 12  1  6
 12  5  1  0
 13 11  1  0
 13 15  1  0
 14 13  2  0
 16 15  1  0
 16 23  1  0
 16 17  1  1
 18 17  1  0
 18 19  2  0
 20 19  1  0
 21 22  2  0
 21 20  1  0
 22 18  1  0
 23 25  1  0
 24 23  2  0
M  END
$$$$
