CIH.pdb
     RDKit          3D

 25 25  0  0  1  0  0  0  0  0999 V2000
   17.9165  -13.0968  -16.0932 N   0  0  0  0  0  0  0  0  0  0  0  0
   18.5353  -11.9814  -16.7334 C   0  0  1  0  0  0  0  0  0  0  0  0
   17.4989  -10.9491  -17.1252 C   0  0  0  0  0  0  0  0  0  0  0  0
   16.2213  -11.6633  -18.1878 S   0  0  0  0  0  0  0  0  0  0  0  0
   19.5498  -11.3123  -15.8782 C   0  0  0  0  0  0  0  0  0  0  0  0
   19.3177  -11.1375  -14.6551 O   0  0  0  0  0  0  0  0  0  0  0  0
   24.6044  -12.6862  -15.3493 C   0  0  0  0  0  0  0  0  0  0  0  0
   23.1552  -12.2154  -15.2104 C   0  0  0  0  0  0  0  0  0  0  0  0
   23.1241  -10.7714  -15.5696 C   0  0  2  0  0  0  0  0  0  0  0  0
   24.0550  -10.0043  -14.6819 C   0  0  0  0  0  0  0  0  0  0  0  0
   21.7634  -10.1512  -15.5474 C   0  0  2  0  0  0  0  0  0  0  0  0
   20.8024  -10.8411  -16.3590 N   0  0  0  0  0  0  0  0  0  0  0  0
   21.7782   -8.6854  -15.8139 C   0  0  0  0  0  0  0  0  0  0  0  0
   22.0975   -8.2942  -16.9629 O   0  0  0  0  0  0  0  0  0  0  0  0
   21.4473   -7.7280  -14.8234 N   0  0  0  0  0  0  0  0  0  0  0  0
   21.4274   -6.2755  -15.0833 C   0  0  1  0  0  0  0  0  0  0  0  0
   20.0430   -5.7451  -15.0434 C   0  0  0  0  0  0  0  0  0  0  0  0
   19.2674   -6.0692  -16.2533 C   0  0  0  0  0  0  0  0  0  0  0  0
   19.5839   -6.7882  -17.3820 C   0  0  0  0  0  0  0  0  0  0  0  0
   18.5049   -6.8852  -18.2042 N   0  0  0  0  0  0  0  0  0  0  0  0
   17.5301   -6.2318  -17.5851 C   0  0  0  0  0  0  0  0  0  0  0  0
   17.9434   -5.7305  -16.4185 N   0  0  0  0  0  0  0  0  0  0  0  0
   22.2827   -5.6495  -13.9929 C   0  0  0  0  0  0  0  0  0  0  0  0
   22.5375   -6.3175  -12.9326 O   0  0  0  0  0  0  0  0  0  0  0  0
   22.8201   -4.4010  -14.0354 O   0  0  0  0  0  0  0  0  0  0  0  0
  2  3  1  0
  2  1  1  1
  3  4  1  0
  5  2  1  0
  6  5  2  0
  7  8  1  0
  8  9  1  0
  9 11  1  0
  9 10  1  1
 11 12  1  6
 12  5  1  0
 13 11  1  0
 13 15  1  0
 14 13  2  0
 16 15  1  0
 16 23  1  0
 16 17  1  1
 18 17  1  0
 18 19  2  0
 20 19  1  0
 21 22  2  0
 21 20  1  0
 22 18  1  0
 23 25  1  0
 24 23  2  0
M  END
$$$$
