CIH.pdb
     RDKit          3D

 25 25  0  0  1  0  0  0  0  0999 V2000
   21.5265  -19.7862  -16.5439 N   0  0  0  0  0  0  0  0  0  0  0  0
   21.9638  -18.7256  -17.3928 C   0  0  1  0  0  0  0  0  0  0  0  0
   20.9626  -18.4842  -18.5032 C   0  0  0  0  0  0  0  0  0  0  0  0
   20.9733  -19.8319  -19.7094 S   0  0  0  0  0  0  0  0  0  0  0  0
   22.1605  -17.4449  -16.6652 C   0  0  0  0  0  0  0  0  0  0  0  0
   21.4625  -17.1895  -15.6514 O   0  0  0  0  0  0  0  0  0  0  0  0
   26.8879  -15.5343  -15.1947 C   0  0  0  0  0  0  0  0  0  0  0  0
   25.4188  -15.9523  -15.2842 C   0  0  0  0  0  0  0  0  0  0  0  0
   24.7020  -14.8866  -16.0363 C   0  0  2  0  0  0  0  0  0  0  0  0
   24.7804  -13.5921  -15.2872 C   0  0  0  0  0  0  0  0  0  0  0  0
   23.2785  -15.2046  -16.3668 C   0  0  2  0  0  0  0  0  0  0  0  0
   23.1106  -16.4575  -17.0453 N   0  0  0  0  0  0  0  0  0  0  0  0
   22.5692  -14.0904  -17.0561 C   0  0  0  0  0  0  0  0  0  0  0  0
   22.9751  -13.7403  -18.1909 O   0  0  0  0  0  0  0  0  0  0  0  0
   21.4628  -13.4195  -16.4789 N   0  0  0  0  0  0  0  0  0  0  0  0
   20.7490  -12.3177  -17.1530 C   0  0  1  0  0  0  0  0  0  0  0  0
   19.2799  -12.4969  -17.0585 C   0  0  0  0  0  0  0  0  0  0  0  0
   18.7586  -13.4909  -18.0129 C   0  0  0  0  0  0  0  0  0  0  0  0
   19.3715  -14.2244  -19.0015 C   0  0  0  0  0  0  0  0  0  0  0  0
   18.4872  -15.0824  -19.5771 N   0  0  0  0  0  0  0  0  0  0  0  0
   17.3378  -14.8798  -18.9458 C   0  0  0  0  0  0  0  0  0  0  0  0
   17.4571  -13.9391  -18.0057 N   0  0  0  0  0  0  0  0  0  0  0  0
   21.1899  -11.0463  -16.4449 C   0  0  0  0  0  0  0  0  0  0  0  0
   21.3100  -11.0452  -15.1718 O   0  0  0  0  0  0  0  0  0  0  0  0
   21.4762   -9.8656  -17.0559 O   0  0  0  0  0  0  0  0  0  0  0  0
  2  3  1  0
  2  1  1  1
  3  4  1  0
  5  2  1  0
  6  5  2  0
  7  8  1  0
  8  9  1  0
  9 11  1  0
  9 10  1  1
 11 12  1  6
 12  5  1  0
 13 11  1  0
 13 15  1  0
 14 13  2  0
 16 15  1  0
 16 23  1  0
 16 17  1  1
 18 17  1  0
 18 19  2  0
 20 19  1  0
 21 22  2  0
 21 20  1  0
 22 18  1  0
 23 25  1  0
 24 23  2  0
M  END
$$$$
