CIH.pdb
     RDKit          3D

 25 25  0  0  1  0  0  0  0  0999 V2000
   17.0108  -26.7201   -6.8227 N   0  0  0  0  0  0  0  0  0  0  0  0
   17.1956  -25.9151   -5.6588 C   0  0  1  0  0  0  0  0  0  0  0  0
   16.1141  -24.8593   -5.5637 C   0  0  0  0  0  0  0  0  0  0  0  0
   16.2588  -23.6411   -6.8928 S   0  0  0  0  0  0  0  0  0  0  0  0
   17.1789  -26.7045   -4.3999 C   0  0  0  0  0  0  0  0  0  0  0  0
   16.4369  -27.7151   -4.3067 O   0  0  0  0  0  0  0  0  0  0  0  0
   21.5661  -28.3059   -1.6909 C   0  0  0  0  0  0  0  0  0  0  0  0
   20.1924  -28.2383   -2.3614 C   0  0  0  0  0  0  0  0  0  0  0  0
   19.3136  -27.4170   -1.4848 C   0  0  2  0  0  0  0  0  0  0  0  0
   19.2022  -28.0530   -0.1335 C   0  0  0  0  0  0  0  0  0  0  0  0
   17.9516  -27.1483   -2.0412 C   0  0  2  0  0  0  0  0  0  0  0  0
   17.9659  -26.3890   -3.2584 N   0  0  0  0  0  0  0  0  0  0  0  0
   17.0040  -26.5874   -1.0377 C   0  0  0  0  0  0  0  0  0  0  0  0
   17.1158  -25.3764   -0.7276 O   0  0  0  0  0  0  0  0  0  0  0  0
   15.9909  -27.3678   -0.4277 N   0  0  0  0  0  0  0  0  0  0  0  0
   15.1525  -26.8730    0.6814 C   0  0  1  0  0  0  0  0  0  0  0  0
   13.9622  -26.1514    0.1697 C   0  0  0  0  0  0  0  0  0  0  0  0
   13.1890  -26.9370   -0.8079 C   0  0  0  0  0  0  0  0  0  0  0  0
   13.3990  -28.1786   -1.3603 C   0  0  0  0  0  0  0  0  0  0  0  0
   12.3594  -28.5246   -2.1661 N   0  0  0  0  0  0  0  0  0  0  0  0
   11.5141  -27.5034   -2.1088 C   0  0  0  0  0  0  0  0  0  0  0  0
   11.9713  -26.5364   -1.3095 N   0  0  0  0  0  0  0  0  0  0  0  0
   14.7443  -28.1063    1.4718 C   0  0  0  0  0  0  0  0  0  0  0  0
   13.9737  -27.9776    2.4841 O   0  0  0  0  0  0  0  0  0  0  0  0
   15.1363  -29.3796    1.1990 O   0  0  0  0  0  0  0  0  0  0  0  0
  2  3  1  0
  2  1  1  6
  3  4  1  0
  5  2  1  0
  6  5  2  0
  7  8  1  0
  8  9  1  0
  9 11  1  0
  9 10  1  1
 11 12  1  6
 12  5  1  0
 13 11  1  0
 13 15  1  0
 14 13  2  0
 16 15  1  0
 16 23  1  0
 16 17  1  6
 18 17  1  0
 18 19  2  0
 20 19  1  0
 21 22  2  0
 21 20  1  0
 22 18  1  0
 23 25  1  0
 24 23  2  0
M  END
$$$$
