CIH.pdb
     RDKit          3D

 25 25  0  0  1  0  0  0  0  0999 V2000
   23.3466  -13.0542  -20.9915 N   0  0  0  0  0  0  0  0  0  0  0  0
   23.8814  -11.9906  -20.2044 C   0  0  1  0  0  0  0  0  0  0  0  0
   23.9477  -10.7111  -21.0119 C   0  0  0  0  0  0  0  0  0  0  0  0
   25.0897  -10.8661  -22.4060 S   0  0  0  0  0  0  0  0  0  0  0  0
   23.0853  -11.7198  -18.9792 C   0  0  0  0  0  0  0  0  0  0  0  0
   21.8453  -11.9270  -18.9821 O   0  0  0  0  0  0  0  0  0  0  0  0
   23.8159  -13.9703  -14.3954 C   0  0  0  0  0  0  0  0  0  0  0  0
   23.2709  -13.2901  -15.6528 C   0  0  0  0  0  0  0  0  0  0  0  0
   23.3059  -11.8220  -15.4105 C   0  0  2  0  0  0  0  0  0  0  0  0
   22.4831  -11.4836  -14.2057 C   0  0  0  0  0  0  0  0  0  0  0  0
   22.8807  -10.9862  -16.5756 C   0  0  2  0  0  0  0  0  0  0  0  0
   23.6426  -11.2282  -17.7669 N   0  0  0  0  0  0  0  0  0  0  0  0
   22.7802   -9.5346  -16.2555 C   0  0  0  0  0  0  0  0  0  0  0  0
   23.8427   -8.8919  -16.0734 O   0  0  0  0  0  0  0  0  0  0  0  0
   21.5375   -8.8622  -16.1506 N   0  0  0  0  0  0  0  0  0  0  0  0
   21.4259   -7.4144  -15.8871 C   0  0  1  0  0  0  0  0  0  0  0  0
   20.6432   -6.7375  -16.9494 C   0  0  0  0  0  0  0  0  0  0  0  0
   21.3925   -6.5868  -18.2090 C   0  0  0  0  0  0  0  0  0  0  0  0
   22.6921   -6.2181  -18.4660 C   0  0  0  0  0  0  0  0  0  0  0  0
   22.9569   -6.2996  -19.7976 N   0  0  0  0  0  0  0  0  0  0  0  0
   21.8283   -6.7175  -20.3564 C   0  0  0  0  0  0  0  0  0  0  0  0
   20.8711   -6.9010  -19.4436 N   0  0  0  0  0  0  0  0  0  0  0  0
   20.7337   -7.2928  -14.5386 C   0  0  0  0  0  0  0  0  0  0  0  0
   20.5587   -6.1354  -14.0239 O   0  0  0  0  0  0  0  0  0  0  0  0
   20.2686   -8.3339  -13.7974 O   0  0  0  0  0  0  0  0  0  0  0  0
  2  3  1  0
  2  1  1  6
  3  4  1  0
  5  2  1  0
  6  5  2  0
  7  8  1  0
  8  9  1  0
  9 11  1  0
  9 10  1  1
 11 12  1  6
 12  5  1  0
 13 11  1  0
 13 15  1  0
 14 13  2  0
 16 15  1  0
 16 23  1  0
 16 17  1  6
 18 17  1  0
 18 19  2  0
 20 19  1  0
 21 22  2  0
 21 20  1  0
 22 18  1  0
 23 25  1  0
 24 23  2  0
M  END
$$$$
