IVT.pdb
     RDKit          3D

 23 22  0  0  1  0  0  0  0  0999 V2000
    6.7324  -10.9492   27.4146 C   0  0  0  0  0  0  0  0  0  0  0  0
    7.2529  -12.3500   27.5159 C   0  0  0  0  0  0  0  0  0  0  0  0
    6.8426  -13.1184   26.2819 C   0  0  2  0  0  0  0  0  0  0  0  0
    5.3529  -13.2170   26.1180 C   0  0  0  0  0  0  0  0  0  0  0  0
    7.4471  -14.5224   26.4101 C   0  0  2  0  0  0  0  0  0  0  0  0
    8.7928  -14.3828   26.9261 N   0  0  0  0  0  0  0  0  0  0  0  0
    7.5213  -15.0834   25.0497 C   0  0  0  0  0  0  0  0  0  0  0  0
    6.5668  -15.7724   24.6059 O   0  0  0  0  0  0  0  0  0  0  0  0
    8.6805  -14.9968   20.4015 C   0  0  0  0  0  0  0  0  0  0  0  0
    8.5770  -14.4766   21.7984 C   0  0  1  0  0  0  0  0  0  0  0  0
    7.4192  -13.5311   21.9132 C   0  0  0  0  0  0  0  0  0  0  0  0
    8.6286  -15.5538   22.8619 C   0  0  2  0  0  0  0  0  0  0  0  0
    8.6211  -14.8964   24.1833 N   0  0  0  0  0  0  0  0  0  0  0  0
    9.8041  -16.4461   22.7535 C   0  0  0  0  0  0  0  0  0  0  0  0
   10.9516  -16.0778   23.1628 O   0  0  0  0  0  0  0  0  0  0  0  0
    9.6367  -20.4617   23.3990 C   0  0  0  0  0  0  0  0  0  0  0  0
   10.3091  -20.0419   22.1357 C   0  0  1  0  0  0  0  0  0  0  0  0
    9.4122  -20.2113   21.0652 O   0  0  0  0  0  0  0  0  0  0  0  0
   10.8603  -18.6506   22.1768 C   0  0  2  0  0  0  0  0  0  0  0  0
    9.7301  -17.7296   22.2064 N   0  0  0  0  0  0  0  0  0  0  0  0
   11.7841  -18.3389   21.0737 C   0  0  0  0  0  0  0  0  0  0  0  0
   11.4096  -17.7529   20.0019 O   0  0  0  0  0  0  0  0  0  0  0  0
   13.1303  -18.6667   21.1341 O   0  0  0  0  0  0  0  0  0  0  0  0
  2  1  1  0
  2  3  1  0
  3  4  1  1
  3  5  1  0
  5  7  1  0
  5  6  1  6
  7  8  2  0
  7 13  1  0
 10  9  1  6
 10 11  1  0
 12 14  1  0
 12 10  1  0
 12 13  1  1
 14 20  1  0
 15 14  2  0
 17 16  1  1
 17 18  1  0
 19 17  1  0
 19 21  1  0
 19 20  1  6
 21 22  2  0
 21 23  1  0
M  END
$$$$
