IVT.pdb
     RDKit          3D

 23 22  0  0  1  0  0  0  0  0999 V2000
    7.1027  -11.1037   27.7980 C   0  0  0  0  0  0  0  0  0  0  0  0
    6.1994  -12.0077   27.0168 C   0  0  0  0  0  0  0  0  0  0  0  0
    7.0313  -13.0741   26.3443 C   0  0  2  0  0  0  0  0  0  0  0  0
    8.1625  -12.5128   25.5313 C   0  0  0  0  0  0  0  0  0  0  0  0
    6.0847  -13.8726   25.4391 C   0  0  2  0  0  0  0  0  0  0  0  0
    5.1850  -14.6250   26.2884 N   0  0  0  0  0  0  0  0  0  0  0  0
    6.9169  -14.8215   24.6789 C   0  0  0  0  0  0  0  0  0  0  0  0
    7.2107  -15.9363   25.1825 O   0  0  0  0  0  0  0  0  0  0  0  0
    9.0166  -16.2076   20.3748 C   0  0  0  0  0  0  0  0  0  0  0  0
    8.2263  -15.2526   21.2091 C   0  0  1  0  0  0  0  0  0  0  0  0
    6.8800  -15.0194   20.5923 C   0  0  0  0  0  0  0  0  0  0  0  0
    8.2011  -15.5984   22.6835 C   0  0  2  0  0  0  0  0  0  0  0  0
    7.4228  -14.5597   23.3863 N   0  0  0  0  0  0  0  0  0  0  0  0
    9.5439  -15.7164   23.2937 C   0  0  0  0  0  0  0  0  0  0  0  0
   10.2824  -14.6940   23.4654 O   0  0  0  0  0  0  0  0  0  0  0  0
   10.7039  -17.3090   26.6268 C   0  0  0  0  0  0  0  0  0  0  0  0
   11.3563  -17.9553   25.4518 C   0  0  1  0  0  0  0  0  0  0  0  0
   10.6952  -19.1654   25.1731 O   0  0  0  0  0  0  0  0  0  0  0  0
   11.4301  -17.0773   24.2415 C   0  0  2  0  0  0  0  0  0  0  0  0
   10.0771  -16.9368   23.7159 N   0  0  0  0  0  0  0  0  0  0  0  0
   12.3650  -17.5558   23.2097 C   0  0  0  0  0  0  0  0  0  0  0  0
   13.6341  -17.5024   23.3472 O   0  0  0  0  0  0  0  0  0  0  0  0
   11.9176  -18.0987   22.0145 O   0  0  0  0  0  0  0  0  0  0  0  0
  2  1  1  0
  2  3  1  0
  3  4  1  6
  3  5  1  0
  5  7  1  0
  5  6  1  1
  7  8  2  0
  7 13  1  0
 10  9  1  6
 10 11  1  0
 12 14  1  0
 12 10  1  0
 12 13  1  1
 14 20  1  0
 15 14  2  0
 17 16  1  1
 17 18  1  0
 19 17  1  0
 19 21  1  0
 19 20  1  6
 21 22  2  0
 21 23  1  0
M  END
$$$$
