IVT.pdb
     RDKit          3D

 23 22  0  0  1  0  0  0  0  0999 V2000
    9.0934  -12.7863   27.8177 C   0  0  0  0  0  0  0  0  0  0  0  0
    8.0701  -13.7204   27.2488 C   0  0  0  0  0  0  0  0  0  0  0  0
    7.2485  -12.9826   26.2182 C   0  0  2  0  0  0  0  0  0  0  0  0
    6.4909  -11.8196   26.7918 C   0  0  0  0  0  0  0  0  0  0  0  0
    6.2683  -13.9992   25.6192 C   0  0  2  0  0  0  0  0  0  0  0  0
    5.7355  -14.7970   26.7038 N   0  0  0  0  0  0  0  0  0  0  0  0
    7.0499  -14.8765   24.7303 C   0  0  0  0  0  0  0  0  0  0  0  0
    7.2596  -16.0722   25.0605 O   0  0  0  0  0  0  0  0  0  0  0  0
    9.0865  -15.7448   20.2655 C   0  0  0  0  0  0  0  0  0  0  0  0
    8.3391  -14.8843   21.2318 C   0  0  1  0  0  0  0  0  0  0  0  0
    7.0019  -14.5122   20.6652 C   0  0  0  0  0  0  0  0  0  0  0  0
    8.3035  -15.4318   22.6436 C   0  0  2  0  0  0  0  0  0  0  0  0
    7.5963  -14.4572   23.4971 N   0  0  0  0  0  0  0  0  0  0  0  0
    9.6410  -15.7150   23.2096 C   0  0  0  0  0  0  0  0  0  0  0  0
   10.3873  -14.7777   23.6391 O   0  0  0  0  0  0  0  0  0  0  0  0
   10.7939  -18.0029   26.1080 C   0  0  0  0  0  0  0  0  0  0  0  0
   11.3826  -18.4122   24.8003 C   0  0  1  0  0  0  0  0  0  0  0  0
   10.6351  -19.4848   24.2809 O   0  0  0  0  0  0  0  0  0  0  0  0
   11.4993  -17.2935   23.8122 C   0  0  2  0  0  0  0  0  0  0  0  0
   10.1604  -17.0081   23.3096 N   0  0  0  0  0  0  0  0  0  0  0  0
   12.4444  -17.5587   22.7151 C   0  0  0  0  0  0  0  0  0  0  0  0
   12.0657  -17.8166   21.5224 O   0  0  0  0  0  0  0  0  0  0  0  0
   13.8169  -17.5441   22.9142 O   0  0  0  0  0  0  0  0  0  0  0  0
  2  1  1  0
  2  3  1  0
  3  4  1  1
  3  5  1  0
  5  7  1  0
  5  6  1  1
  7  8  2  0
  7 13  1  0
 10  9  1  6
 10 11  1  0
 12 14  1  0
 12 10  1  0
 12 13  1  1
 14 20  1  0
 15 14  2  0
 17 16  1  1
 17 18  1  0
 19 17  1  0
 19 21  1  0
 19 20  1  6
 21 22  2  0
 21 23  1  0
M  END
$$$$
