IVT.pdb
     RDKit          3D

 23 22  0  0  1  0  0  0  0  0999 V2000
    7.1381  -11.0832   27.9746 C   0  0  0  0  0  0  0  0  0  0  0  0
    6.2510  -12.0291   27.2250 C   0  0  0  0  0  0  0  0  0  0  0  0
    7.1093  -13.0301   26.4883 C   0  0  2  0  0  0  0  0  0  0  0  0
    8.1420  -12.3856   25.6086 C   0  0  0  0  0  0  0  0  0  0  0  0
    6.1631  -13.8883   25.6390 C   0  0  2  0  0  0  0  0  0  0  0  0
    5.3436  -14.6723   26.5393 N   0  0  0  0  0  0  0  0  0  0  0  0
    7.0059  -14.8054   24.8518 C   0  0  0  0  0  0  0  0  0  0  0  0
    7.3946  -15.8880   25.3612 O   0  0  0  0  0  0  0  0  0  0  0  0
    8.8601  -16.1674   20.4243 C   0  0  0  0  0  0  0  0  0  0  0  0
    8.1072  -15.2237   21.3048 C   0  0  1  0  0  0  0  0  0  0  0  0
    6.7331  -14.9876   20.7537 C   0  0  0  0  0  0  0  0  0  0  0  0
    8.1512  -15.5857   22.7749 C   0  0  2  0  0  0  0  0  0  0  0  0
    7.4203  -14.5468   23.5265 N   0  0  0  0  0  0  0  0  0  0  0  0
    9.5213  -15.7245   23.3164 C   0  0  0  0  0  0  0  0  0  0  0  0
   10.2695  -14.7089   23.4860 O   0  0  0  0  0  0  0  0  0  0  0  0
   10.5771  -17.4745   26.6202 C   0  0  0  0  0  0  0  0  0  0  0  0
   11.2587  -18.0539   25.4268 C   0  0  1  0  0  0  0  0  0  0  0  0
   10.5871  -19.2299   25.0459 O   0  0  0  0  0  0  0  0  0  0  0  0
   11.3889  -17.0990   24.2811 C   0  0  2  0  0  0  0  0  0  0  0  0
   10.0711  -16.9586   23.6726 N   0  0  0  0  0  0  0  0  0  0  0  0
   12.4048  -17.4879   23.2891 C   0  0  0  0  0  0  0  0  0  0  0  0
   12.1056  -17.9748   22.1463 O   0  0  0  0  0  0  0  0  0  0  0  0
   13.7615  -17.3470   23.5398 O   0  0  0  0  0  0  0  0  0  0  0  0
  2  1  1  0
  2  3  1  0
  3  4  1  6
  3  5  1  0
  5  7  1  0
  5  6  1  1
  7  8  2  0
  7 13  1  0
 10  9  1  6
 10 11  1  0
 12 14  1  0
 12 10  1  0
 12 13  1  1
 14 20  1  0
 15 14  2  0
 17 16  1  1
 17 18  1  0
 19 17  1  0
 19 21  1  0
 19 20  1  6
 21 22  2  0
 21 23  1  0
M  END
$$$$
