IVT.pdb
     RDKit          3D

 23 22  0  0  1  0  0  0  0  0999 V2000
    7.2417  -11.3058   27.9718 C   0  0  0  0  0  0  0  0  0  0  0  0
    6.3217  -12.0245   27.0333 C   0  0  0  0  0  0  0  0  0  0  0  0
    7.0912  -13.1175   26.3300 C   0  0  2  0  0  0  0  0  0  0  0  0
    8.3023  -12.6096   25.6013 C   0  0  0  0  0  0  0  0  0  0  0  0
    6.1238  -13.7756   25.3379 C   0  0  2  0  0  0  0  0  0  0  0  0
    5.0773  -14.4246   26.0998 N   0  0  0  0  0  0  0  0  0  0  0  0
    6.8872  -14.8074   24.6145 C   0  0  0  0  0  0  0  0  0  0  0  0
    7.0304  -15.9491   25.1231 O   0  0  0  0  0  0  0  0  0  0  0  0
    6.7878  -15.2695   20.5820 C   0  0  0  0  0  0  0  0  0  0  0  0
    8.1495  -15.4285   21.1761 C   0  0  1  0  0  0  0  0  0  0  0  0
    9.0290  -14.2859   20.7655 C   0  0  0  0  0  0  0  0  0  0  0  0
    8.1422  -15.7260   22.6612 C   0  0  2  0  0  0  0  0  0  0  0  0
    7.4873  -14.5986   23.3529 N   0  0  0  0  0  0  0  0  0  0  0  0
    9.4883  -15.9503   23.2333 C   0  0  0  0  0  0  0  0  0  0  0  0
   10.1682  -14.9888   23.7162 O   0  0  0  0  0  0  0  0  0  0  0  0
   12.5285  -19.2607   25.2462 C   0  0  0  0  0  0  0  0  0  0  0  0
   11.2497  -18.7893   24.6408 C   0  0  1  0  0  0  0  0  0  0  0  0
   10.2546  -18.7734   25.6350 O   0  0  0  0  0  0  0  0  0  0  0  0
   11.3587  -17.4654   23.9502 C   0  0  2  0  0  0  0  0  0  0  0  0
   10.0879  -17.2113   23.2816 N   0  0  0  0  0  0  0  0  0  0  0  0
   12.4916  -17.3686   23.0150 C   0  0  0  0  0  0  0  0  0  0  0  0
   12.4031  -17.6993   21.7840 O   0  0  0  0  0  0  0  0  0  0  0  0
   13.7353  -16.9074   23.4200 O   0  0  0  0  0  0  0  0  0  0  0  0
  2  1  1  0
  2  3  1  0
  3  4  1  6
  3  5  1  0
  5  7  1  0
  5  6  1  1
  7  8  2  0
  7 13  1  0
 10  9  1  1
 10 11  1  0
 12 14  1  0
 12 10  1  0
 12 13  1  1
 14 20  1  0
 15 14  2  0
 17 16  1  1
 17 18  1  0
 19 17  1  0
 19 21  1  0
 19 20  1  6
 21 22  2  0
 21 23  1  0
M  END
$$$$
