IVT.pdb
     RDKit          3D

 23 22  0  0  1  0  0  0  0  0999 V2000
    7.9674  -12.3634   18.4144 C   0  0  0  0  0  0  0  0  0  0  0  0
    8.0261  -13.8295   18.7156 C   0  0  0  0  0  0  0  0  0  0  0  0
    7.4763  -14.0700   20.1016 C   0  0  2  0  0  0  0  0  0  0  0  0
    8.2222  -13.3217   21.1690 C   0  0  0  0  0  0  0  0  0  0  0  0
    7.5683  -15.5790   20.3616 C   0  0  2  0  0  0  0  0  0  0  0  0
    6.5848  -16.2360   19.5262 N   0  0  0  0  0  0  0  0  0  0  0  0
    7.2049  -15.7941   21.7732 C   0  0  0  0  0  0  0  0  0  0  0  0
    6.0084  -15.6581   22.1372 O   0  0  0  0  0  0  0  0  0  0  0  0
    7.7892  -18.0602   26.0213 C   0  0  0  0  0  0  0  0  0  0  0  0
    8.0312  -17.7706   24.5756 C   0  0  1  0  0  0  0  0  0  0  0  0
    7.4363  -18.8525   23.7252 C   0  0  0  0  0  0  0  0  0  0  0  0
    7.6664  -16.3603   24.1608 C   0  0  2  0  0  0  0  0  0  0  0  0
    8.1328  -16.1530   22.7759 N   0  0  0  0  0  0  0  0  0  0  0  0
    8.2302  -15.3128   25.0408 C   0  0  0  0  0  0  0  0  0  0  0  0
    9.4337  -14.9196   24.9107 O   0  0  0  0  0  0  0  0  0  0  0  0
    6.5882  -11.8007   25.9542 C   0  0  0  0  0  0  0  0  0  0  0  0
    6.9108  -12.6522   27.1353 C   0  0  1  0  0  0  0  0  0  0  0  0
    5.7370  -13.2980   27.5645 O   0  0  0  0  0  0  0  0  0  0  0  0
    8.0189  -13.6293   26.8926 C   0  0  2  0  0  0  0  0  0  0  0  0
    7.4889  -14.6968   26.0523 N   0  0  0  0  0  0  0  0  0  0  0  0
    8.6298  -14.1606   28.1222 C   0  0  0  0  0  0  0  0  0  0  0  0
    9.1961  -13.4151   28.9917 O   0  0  0  0  0  0  0  0  0  0  0  0
    8.6261  -15.5168   28.4120 O   0  0  0  0  0  0  0  0  0  0  0  0
  2  1  1  0
  2  3  1  0
  3  4  1  1
  3  5  1  0
  5  7  1  0
  5  6  1  6
  7  8  2  0
  7 13  1  0
 10  9  1  1
 10 11  1  0
 12 14  1  0
 12 10  1  0
 12 13  1  6
 14 20  1  0
 15 14  2  0
 17 16  1  6
 17 18  1  0
 19 17  1  0
 19 21  1  0
 19 20  1  1
 21 22  2  0
 21 23  1  0
M  END
$$$$
