IVT.pdb
     RDKit          3D

 23 22  0  0  1  0  0  0  0  0999 V2000
    5.7035  -21.9298   25.2170 C   0  0  0  0  0  0  0  0  0  0  0  0
    5.2681  -21.0507   24.0851 C   0  0  0  0  0  0  0  0  0  0  0  0
    6.2284  -19.8911   23.9645 C   0  0  2  0  0  0  0  0  0  0  0  0
    7.1816  -19.7932   25.1210 C   0  0  0  0  0  0  0  0  0  0  0  0
    5.3791  -18.6165   23.8795 C   0  0  2  0  0  0  0  0  0  0  0  0
    4.6541  -18.6468   22.6264 N   0  0  0  0  0  0  0  0  0  0  0  0
    6.3146  -17.4785   23.8538 C   0  0  0  0  0  0  0  0  0  0  0  0
    6.9633  -17.2276   22.8055 O   0  0  0  0  0  0  0  0  0  0  0  0
    8.2702  -13.4406   26.0230 C   0  0  0  0  0  0  0  0  0  0  0  0
    7.2003  -14.4669   25.8368 C   0  0  1  0  0  0  0  0  0  0  0  0
    5.8839  -13.7994   25.5741 C   0  0  0  0  0  0  0  0  0  0  0  0
    7.5646  -15.5655   24.8598 C   0  0  2  0  0  0  0  0  0  0  0  0
    6.5408  -16.6244   24.9558 N   0  0  0  0  0  0  0  0  0  0  0  0
    8.9072  -16.1455   25.0846 C   0  0  0  0  0  0  0  0  0  0  0  0
    9.1931  -16.7453   26.1701 O   0  0  0  0  0  0  0  0  0  0  0  0
   10.5265  -18.3370   22.4238 C   0  0  0  0  0  0  0  0  0  0  0  0
   11.5361  -17.3649   22.9337 C   0  0  1  0  0  0  0  0  0  0  0  0
   11.7285  -16.3604   21.9679 O   0  0  0  0  0  0  0  0  0  0  0  0
   11.1959  -16.7844   24.2712 C   0  0  2  0  0  0  0  0  0  0  0  0
    9.9290  -16.0753   24.1343 N   0  0  0  0  0  0  0  0  0  0  0  0
   12.2444  -15.9165   24.8323 C   0  0  0  0  0  0  0  0  0  0  0  0
   12.1257  -14.6464   24.9056 O   0  0  0  0  0  0  0  0  0  0  0  0
   13.4358  -16.4326   25.3196 O   0  0  0  0  0  0  0  0  0  0  0  0
  2  1  1  0
  2  3  1  0
  3  4  1  1
  3  5  1  0
  5  7  1  0
  5  6  1  6
  7  8  2  0
  7 13  1  0
 10  9  1  6
 10 11  1  0
 12 14  1  0
 12 10  1  0
 12 13  1  1
 14 20  1  0
 15 14  2  0
 17 16  1  6
 17 18  1  0
 19 17  1  0
 19 21  1  0
 19 20  1  6
 21 22  2  0
 21 23  1  0
M  END
$$$$
