CHI.pdb
     RDKit          3D

 25 25  0  0  1  0  0  0  0  0999 V2000
    7.3782  -14.8365   18.0995 N   0  0  0  0  0  0  0  0  0  0  0  0
    8.2079  -14.3149   19.1656 C   0  0  1  0  0  0  0  0  0  0  0  0
    7.8712  -12.8527   19.3266 C   0  0  0  0  0  0  0  0  0  0  0  0
    8.8378  -12.2102   20.7218 S   0  0  0  0  0  0  0  0  0  0  0  0
    7.9994  -15.0996   20.3781 C   0  0  0  0  0  0  0  0  0  0  0  0
    6.8276  -15.4152   20.7180 O   0  0  0  0  0  0  0  0  0  0  0  0
    9.1022  -15.5019   21.1641 N   0  0  0  0  0  0  0  0  0  0  0  0
    8.9020  -16.1953   22.4022 C   0  0  1  0  0  0  0  0  0  0  0  0
    9.8334  -17.4144   22.4905 C   0  0  0  0  0  0  0  0  0  0  0  0
    9.3872  -18.5209   21.6644 C   0  0  0  0  0  0  0  0  0  0  0  0
    8.2752  -18.5467   20.8567 C   0  0  0  0  0  0  0  0  0  0  0  0
    8.1880  -19.7560   20.2404 N   0  0  0  0  0  0  0  0  0  0  0  0
    9.2450  -20.4811   20.6649 C   0  0  0  0  0  0  0  0  0  0  0  0
    9.9735  -19.7202   21.5347 N   0  0  0  0  0  0  0  0  0  0  0  0
    9.2834  -15.3603   23.5789 C   0  0  0  0  0  0  0  0  0  0  0  0
   10.3578  -14.7144   23.5137 O   0  0  0  0  0  0  0  0  0  0  0  0
    5.8743  -12.0211   25.6890 C   0  0  0  0  0  0  0  0  0  0  0  0
    7.0442  -12.8240   25.1429 C   0  0  0  0  0  0  0  0  0  0  0  0
    7.6717  -13.5420   26.2994 C   0  0  2  0  0  0  0  0  0  0  0  0
    8.0832  -12.5785   27.3600 C   0  0  0  0  0  0  0  0  0  0  0  0
    8.8206  -14.4302   25.8811 C   0  0  2  0  0  0  0  0  0  0  0  0
    8.5182  -15.2503   24.7545 N   0  0  0  0  0  0  0  0  0  0  0  0
    9.2162  -15.2934   27.0103 C   0  0  0  0  0  0  0  0  0  0  0  0
    8.7194  -16.4349   27.1157 O   0  0  0  0  0  0  0  0  0  0  0  0
   10.1251  -14.8984   27.9765 O   0  0  0  0  0  0  0  0  0  0  0  0
  2  1  1  6
  3  2  1  0
  3  4  1  0
  5  6  2  0
  5  2  1  0
  7  5  1  0
  8  7  1  0
  8  9  1  6
 10  9  1  0
 11 10  2  0
 12 11  1  0
 13 12  1  0
 13 14  2  0
 14 10  1  0
 15 22  1  0
 15  8  1  0
 16 15  2  0
 18 17  1  0
 19 21  1  0
 19 18  1  0
 19 20  1  1
 21 23  1  0
 21 22  1  6
 23 25  1  0
 24 23  2  0
M  END
$$$$
