CHI.pdb
     RDKit          3D

 25 25  0  0  1  0  0  0  0  0999 V2000
    9.6805  -14.7016   18.8875 N   0  0  0  0  0  0  0  0  0  0  0  0
    8.8454  -13.7128   19.5372 C   0  0  1  0  0  0  0  0  0  0  0  0
    7.8340  -13.2382   18.5227 C   0  0  0  0  0  0  0  0  0  0  0  0
    6.7648  -14.6438   18.1044 S   0  0  0  0  0  0  0  0  0  0  0  0
    8.2448  -14.2892   20.7357 C   0  0  0  0  0  0  0  0  0  0  0  0
    7.4208  -13.6091   21.4041 O   0  0  0  0  0  0  0  0  0  0  0  0
    8.5845  -15.5985   21.1430 N   0  0  0  0  0  0  0  0  0  0  0  0
    8.0119  -16.1661   22.3278 C   0  0  1  0  0  0  0  0  0  0  0  0
    8.3192  -17.6699   22.4042 C   0  0  0  0  0  0  0  0  0  0  0  0
    7.8426  -18.2771   23.6330 C   0  0  0  0  0  0  0  0  0  0  0  0
    8.6053  -18.6527   24.7132 C   0  0  0  0  0  0  0  0  0  0  0  0
    7.8031  -19.1850   25.6740 N   0  0  0  0  0  0  0  0  0  0  0  0
    6.5430  -19.1401   25.1912 C   0  0  0  0  0  0  0  0  0  0  0  0
    6.5745  -18.5842   23.9436 N   0  0  0  0  0  0  0  0  0  0  0  0
    8.6241  -15.6064   23.5685 C   0  0  0  0  0  0  0  0  0  0  0  0
    9.8766  -15.5448   23.6257 O   0  0  0  0  0  0  0  0  0  0  0  0
    5.8731  -11.6894   26.1888 C   0  0  0  0  0  0  0  0  0  0  0  0
    6.8859  -12.5531   25.4541 C   0  0  0  0  0  0  0  0  0  0  0  0
    7.4691  -13.5057   26.4537 C   0  0  2  0  0  0  0  0  0  0  0  0
    8.1079  -12.7659   27.5794 C   0  0  0  0  0  0  0  0  0  0  0  0
    8.4243  -14.4957   25.8280 C   0  0  2  0  0  0  0  0  0  0  0  0
    7.8898  -15.1442   24.6761 N   0  0  0  0  0  0  0  0  0  0  0  0
    8.8000  -15.5183   26.8230 C   0  0  0  0  0  0  0  0  0  0  0  0
    8.0990  -16.5453   26.9447 O   0  0  0  0  0  0  0  0  0  0  0  0
    9.9081  -15.3979   27.6436 O   0  0  0  0  0  0  0  0  0  0  0  0
  2  1  1  6
  3  2  1  0
  3  4  1  0
  5  6  2  0
  5  2  1  0
  7  5  1  0
  8  7  1  0
  8  9  1  6
 10  9  1  0
 11 10  2  0
 12 11  1  0
 13 12  1  0
 13 14  2  0
 14 10  1  0
 15 22  1  0
 15  8  1  0
 16 15  2  0
 18 17  1  0
 19 21  1  0
 19 18  1  0
 19 20  1  1
 21 23  1  0
 21 22  1  6
 23 25  1  0
 24 23  2  0
M  END
$$$$
