CHI.pdb
     RDKit          3D

 25 25  0  0  1  0  0  0  0  0999 V2000
    7.6055  -14.8795   17.7671 N   0  0  0  0  0  0  0  0  0  0  0  0
    8.3271  -14.3474   18.9044 C   0  0  1  0  0  0  0  0  0  0  0  0
    7.9833  -12.8821   19.0129 C   0  0  0  0  0  0  0  0  0  0  0  0
    9.2495  -11.9459   18.1105 S   0  0  0  0  0  0  0  0  0  0  0  0
    7.9944  -15.1158   20.0996 C   0  0  0  0  0  0  0  0  0  0  0  0
    6.8100  -15.5099   20.2730 O   0  0  0  0  0  0  0  0  0  0  0  0
    8.9920  -15.4151   21.0540 N   0  0  0  0  0  0  0  0  0  0  0  0
    8.6657  -16.1337   22.2502 C   0  0  1  0  0  0  0  0  0  0  0  0
    9.5376  -17.3932   22.3736 C   0  0  0  0  0  0  0  0  0  0  0  0
    9.3242  -18.1018   23.6219 C   0  0  0  0  0  0  0  0  0  0  0  0
   10.2785  -18.7409   24.3772 C   0  0  0  0  0  0  0  0  0  0  0  0
    9.6965  -19.2891   25.4775 N   0  0  0  0  0  0  0  0  0  0  0  0
    8.3816  -18.9908   25.4059 C   0  0  0  0  0  0  0  0  0  0  0  0
    8.1612  -18.2652   24.2696 N   0  0  0  0  0  0  0  0  0  0  0  0
    8.9847  -15.3488   23.4789 C   0  0  0  0  0  0  0  0  0  0  0  0
   10.1283  -14.8386   23.5660 O   0  0  0  0  0  0  0  0  0  0  0  0
    6.9791  -11.2512   26.9602 C   0  0  0  0  0  0  0  0  0  0  0  0
    7.4518  -12.6525   27.3135 C   0  0  0  0  0  0  0  0  0  0  0  0
    7.1484  -13.5351   26.1406 C   0  0  2  0  0  0  0  0  0  0  0  0
    5.9545  -14.3853   26.4131 C   0  0  0  0  0  0  0  0  0  0  0  0
    8.3356  -14.3669   25.7135 C   0  0  2  0  0  0  0  0  0  0  0  0
    8.0883  -15.1439   24.5438 N   0  0  0  0  0  0  0  0  0  0  0  0
    8.7306  -15.2679   26.8131 C   0  0  0  0  0  0  0  0  0  0  0  0
    9.3360  -14.8030   27.8022 O   0  0  0  0  0  0  0  0  0  0  0  0
    8.4611  -16.6255   26.8067 O   0  0  0  0  0  0  0  0  0  0  0  0
  2  1  1  6
  3  2  1  0
  3  4  1  0
  5  6  2  0
  5  2  1  0
  7  5  1  0
  8  7  1  0
  8  9  1  1
 10  9  1  0
 11 10  2  0
 12 11  1  0
 13 12  1  0
 13 14  2  0
 14 10  1  0
 15 22  1  0
 15  8  1  0
 16 15  2  0
 18 17  1  0
 19 21  1  0
 19 18  1  0
 19 20  1  1
 21 23  1  0
 21 22  1  6
 23 25  1  0
 24 23  2  0
M  END
$$$$
