CHI.pdb
     RDKit          3D

 25 25  0  0  1  0  0  0  0  0999 V2000
    6.7538  -18.5104   19.2705 N   0  0  0  0  0  0  0  0  0  0  0  0
    6.3994  -17.5592   20.3033 C   0  0  1  0  0  0  0  0  0  0  0  0
    4.9718  -17.8387   20.7048 C   0  0  0  0  0  0  0  0  0  0  0  0
    4.5430  -16.7065   22.0569 S   0  0  0  0  0  0  0  0  0  0  0  0
    7.3474  -17.6587   21.4081 C   0  0  0  0  0  0  0  0  0  0  0  0
    7.4056  -18.7229   22.0807 O   0  0  0  0  0  0  0  0  0  0  0  0
    8.1928  -16.5709   21.7209 N   0  0  0  0  0  0  0  0  0  0  0  0
    9.1733  -16.6836   22.7599 C   0  0  1  0  0  0  0  0  0  0  0  0
   10.5903  -16.6398   22.1668 C   0  0  0  0  0  0  0  0  0  0  0  0
   10.9045  -17.8178   21.3796 C   0  0  0  0  0  0  0  0  0  0  0  0
   11.2595  -19.0559   21.8597 C   0  0  0  0  0  0  0  0  0  0  0  0
   11.4764  -19.9031   20.8181 N   0  0  0  0  0  0  0  0  0  0  0  0
   11.2564  -19.1920   19.6917 C   0  0  0  0  0  0  0  0  0  0  0  0
   10.9073  -17.9186   20.0422 N   0  0  0  0  0  0  0  0  0  0  0  0
    9.1342  -15.5207   23.6946 C   0  0  0  0  0  0  0  0  0  0  0  0
    9.4135  -14.3883   23.2305 O   0  0  0  0  0  0  0  0  0  0  0  0
    5.8271  -12.7147   26.0677 C   0  0  0  0  0  0  0  0  0  0  0  0
    7.0974  -13.2809   25.4532 C   0  0  0  0  0  0  0  0  0  0  0  0
    7.8928  -13.8998   26.5628 C   0  0  2  0  0  0  0  0  0  0  0  0
    8.2590  -12.8781   27.5848 C   0  0  0  0  0  0  0  0  0  0  0  0
    9.1088  -14.6454   26.0636 C   0  0  2  0  0  0  0  0  0  0  0  0
    8.8052  -15.6113   25.0595 N   0  0  0  0  0  0  0  0  0  0  0  0
    9.7741  -15.3213   27.1937 C   0  0  0  0  0  0  0  0  0  0  0  0
    9.5833  -16.5420   27.3793 O   0  0  0  0  0  0  0  0  0  0  0  0
   10.6137  -14.6627   28.0752 O   0  0  0  0  0  0  0  0  0  0  0  0
  2  1  1  6
  3  2  1  0
  3  4  1  0
  5  6  2  0
  5  2  1  0
  7  5  1  0
  8  7  1  0
  8  9  1  6
 10  9  1  0
 11 10  2  0
 12 11  1  0
 13 12  1  0
 13 14  2  0
 14 10  1  0
 15 22  1  0
 15  8  1  0
 16 15  2  0
 18 17  1  0
 19 21  1  0
 19 18  1  0
 19 20  1  1
 21 23  1  0
 21 22  1  6
 23 25  1  0
 24 23  2  0
M  END
$$$$
