CHI.pdb
     RDKit          3D

 25 25  0  0  1  0  0  0  0  0999 V2000
    7.2546  -14.1200   18.2238 N   0  0  0  0  0  0  0  0  0  0  0  0
    8.3685  -14.3810   19.1116 C   0  0  1  0  0  0  0  0  0  0  0  0
    9.1719  -13.1078   19.2156 C   0  0  0  0  0  0  0  0  0  0  0  0
    9.3947  -12.4528   17.5377 S   0  0  0  0  0  0  0  0  0  0  0  0
    7.8700  -14.8640   20.3952 C   0  0  0  0  0  0  0  0  0  0  0  0
    6.8556  -14.3214   20.9098 O   0  0  0  0  0  0  0  0  0  0  0  0
    8.5194  -15.9310   21.0551 N   0  0  0  0  0  0  0  0  0  0  0  0
    8.0213  -16.4288   22.3032 C   0  0  1  0  0  0  0  0  0  0  0  0
    8.5221  -17.8610   22.5473 C   0  0  0  0  0  0  0  0  0  0  0  0
    8.1444  -18.3715   23.8523 C   0  0  0  0  0  0  0  0  0  0  0  0
    8.9934  -18.8206   24.8357 C   0  0  0  0  0  0  0  0  0  0  0  0
    8.2689  -19.2196   25.9154 N   0  0  0  0  0  0  0  0  0  0  0  0
    6.9708  -19.0185   25.6031 C   0  0  0  0  0  0  0  0  0  0  0  0
    6.9021  -18.5001   24.3410 N   0  0  0  0  0  0  0  0  0  0  0  0
    8.5502  -15.6556   23.4651 C   0  0  0  0  0  0  0  0  0  0  0  0
    9.7749  -15.3803   23.4750 O   0  0  0  0  0  0  0  0  0  0  0  0
    6.7762  -11.1673   27.0939 C   0  0  0  0  0  0  0  0  0  0  0  0
    7.7769  -12.3038   26.9570 C   0  0  0  0  0  0  0  0  0  0  0  0
    7.2692  -13.2191   25.8841 C   0  0  2  0  0  0  0  0  0  0  0  0
    5.8900  -13.6895   26.1989 C   0  0  0  0  0  0  0  0  0  0  0  0
    8.2022  -14.3772   25.6153 C   0  0  2  0  0  0  0  0  0  0  0  0
    7.7665  -15.2162   24.5479 N   0  0  0  0  0  0  0  0  0  0  0  0
    8.3462  -15.1914   26.8372 C   0  0  0  0  0  0  0  0  0  0  0  0
    7.7337  -16.2764   26.9293 O   0  0  0  0  0  0  0  0  0  0  0  0
    9.1384  -14.8100   27.9061 O   0  0  0  0  0  0  0  0  0  0  0  0
  2  1  1  6
  3  2  1  0
  3  4  1  0
  5  6  2  0
  5  2  1  0
  7  5  1  0
  8  7  1  0
  8  9  1  1
 10  9  1  0
 11 10  2  0
 12 11  1  0
 13 12  1  0
 13 14  2  0
 14 10  1  0
 15 22  1  0
 15  8  1  0
 16 15  2  0
 18 17  1  0
 19 21  1  0
 19 18  1  0
 19 20  1  1
 21 23  1  0
 21 22  1  6
 23 25  1  0
 24 23  2  0
M  END
$$$$
