CHI.pdb
     RDKit          3D

 25 25  0  0  1  0  0  0  0  0999 V2000
    6.7403  -16.1374   18.8061 N   0  0  0  0  0  0  0  0  0  0  0  0
    7.5853  -15.3675   19.6950 C   0  0  1  0  0  0  0  0  0  0  0  0
    7.5320  -13.9304   19.2376 C   0  0  0  0  0  0  0  0  0  0  0  0
    8.4976  -12.9377   20.4107 S   0  0  0  0  0  0  0  0  0  0  0  0
    7.1490  -15.5584   21.0743 C   0  0  0  0  0  0  0  0  0  0  0  0
    5.9249  -15.7320   21.3185 O   0  0  0  0  0  0  0  0  0  0  0  0
    8.0913  -15.5486   22.1269 N   0  0  0  0  0  0  0  0  0  0  0  0
    7.8405  -16.2725   23.3380 C   0  0  1  0  0  0  0  0  0  0  0  0
    7.7070  -17.7754   23.0462 C   0  0  0  0  0  0  0  0  0  0  0  0
    7.5235  -18.5653   24.2497 C   0  0  0  0  0  0  0  0  0  0  0  0
    7.0621  -18.1165   25.4643 C   0  0  0  0  0  0  0  0  0  0  0  0
    7.0277  -19.1496   26.3483 N   0  0  0  0  0  0  0  0  0  0  0  0
    7.4674  -20.2394   25.6835 C   0  0  0  0  0  0  0  0  0  0  0  0
    7.7686  -19.8751   24.4017 N   0  0  0  0  0  0  0  0  0  0  0  0
    8.9878  -16.1871   24.2886 C   0  0  0  0  0  0  0  0  0  0  0  0
   10.1041  -16.6068   23.8966 O   0  0  0  0  0  0  0  0  0  0  0  0
    9.0216  -13.5651   29.6528 C   0  0  0  0  0  0  0  0  0  0  0  0
    9.2205  -14.7961   28.7830 C   0  0  0  0  0  0  0  0  0  0  0  0
    9.7553  -14.3287   27.4631 C   0  0  2  0  0  0  0  0  0  0  0  0
    8.8738  -13.2790   26.8768 C   0  0  0  0  0  0  0  0  0  0  0  0
    9.9872  -15.4635   26.4924 C   0  0  2  0  0  0  0  0  0  0  0  0
    8.8996  -15.6676   25.5932 N   0  0  0  0  0  0  0  0  0  0  0  0
   10.2328  -16.7120   27.2392 C   0  0  0  0  0  0  0  0  0  0  0  0
    9.3272  -17.5688   27.3202 O   0  0  0  0  0  0  0  0  0  0  0  0
   11.4352  -16.9892   27.8662 O   0  0  0  0  0  0  0  0  0  0  0  0
  2  1  1  6
  3  2  1  0
  3  4  1  0
  5  6  2  0
  5  2  1  0
  7  5  1  0
  8  7  1  0
  8  9  1  6
 10  9  1  0
 11 10  2  0
 12 11  1  0
 13 12  1  0
 13 14  2  0
 14 10  1  0
 15 22  1  0
 15  8  1  0
 16 15  2  0
 18 17  1  0
 19 21  1  0
 19 18  1  0
 19 20  1  6
 21 23  1  0
 21 22  1  6
 23 25  1  0
 24 23  2  0
M  END
$$$$
