CHI.pdb
     RDKit          3D

 25 25  0  0  1  0  0  0  0  0999 V2000
    7.6723  -15.1082   18.3610 N   0  0  0  0  0  0  0  0  0  0  0  0
    8.4266  -14.4234   19.3902 C   0  0  1  0  0  0  0  0  0  0  0  0
    7.9742  -12.9838   19.4001 C   0  0  0  0  0  0  0  0  0  0  0  0
    9.1888  -12.0131   18.4639 S   0  0  0  0  0  0  0  0  0  0  0  0
    8.2416  -15.1030   20.6682 C   0  0  0  0  0  0  0  0  0  0  0  0
    7.0753  -15.3649   21.0675 O   0  0  0  0  0  0  0  0  0  0  0  0
    9.3608  -15.4641   21.4510 N   0  0  0  0  0  0  0  0  0  0  0  0
    9.1941  -16.2139   22.6609 C   0  0  1  0  0  0  0  0  0  0  0  0
   10.2535  -17.3232   22.7544 C   0  0  0  0  0  0  0  0  0  0  0  0
    9.9852  -18.4308   21.8560 C   0  0  0  0  0  0  0  0  0  0  0  0
    8.7560  -18.9724   21.5640 C   0  0  0  0  0  0  0  0  0  0  0  0
    8.9074  -19.9954   20.6806 N   0  0  0  0  0  0  0  0  0  0  0  0
   10.2296  -20.0894   20.4239 C   0  0  0  0  0  0  0  0  0  0  0  0
   10.8822  -19.1303   21.1455 N   0  0  0  0  0  0  0  0  0  0  0  0
    9.4341  -15.3786   23.8742 C   0  0  0  0  0  0  0  0  0  0  0  0
   10.4323  -14.6173   23.8715 O   0  0  0  0  0  0  0  0  0  0  0  0
    5.4119  -12.7993   26.2131 C   0  0  0  0  0  0  0  0  0  0  0  0
    6.7124  -13.2896   25.5966 C   0  0  0  0  0  0  0  0  0  0  0  0
    7.4883  -13.9772   26.6791 C   0  0  2  0  0  0  0  0  0  0  0  0
    7.7205  -13.0578   27.8295 C   0  0  0  0  0  0  0  0  0  0  0  0
    8.7821  -14.5770   26.1789 C   0  0  2  0  0  0  0  0  0  0  0  0
    8.6157  -15.3891   25.0186 N   0  0  0  0  0  0  0  0  0  0  0  0
    9.3983  -15.3872   27.2469 C   0  0  0  0  0  0  0  0  0  0  0  0
    9.9284  -14.8167   28.2238 O   0  0  0  0  0  0  0  0  0  0  0  0
    9.4206  -16.7709   27.2234 O   0  0  0  0  0  0  0  0  0  0  0  0
  2  1  1  6
  3  2  1  0
  3  4  1  0
  5  6  2  0
  5  2  1  0
  7  5  1  0
  8  7  1  0
  8  9  1  6
 10  9  1  0
 11 10  2  0
 12 11  1  0
 13 12  1  0
 13 14  2  0
 14 10  1  0
 15 22  1  0
 15  8  1  0
 16 15  2  0
 18 17  1  0
 19 21  1  0
 19 18  1  0
 19 20  1  1
 21 23  1  0
 21 22  1  6
 23 25  1  0
 24 23  2  0
M  END
$$$$
