CHI.pdb
     RDKit          3D

 25 25  0  0  1  0  0  0  0  0999 V2000
   14.0869  -14.4857   19.1737 N   0  0  0  0  0  0  0  0  0  0  0  0
   13.2394  -15.5308   19.7093 C   0  0  1  0  0  0  0  0  0  0  0  0
   14.1396  -16.6491   20.1744 C   0  0  0  0  0  0  0  0  0  0  0  0
   15.1440  -16.0191   21.5485 S   0  0  0  0  0  0  0  0  0  0  0  0
   12.3939  -14.9836   20.7653 C   0  0  0  0  0  0  0  0  0  0  0  0
   12.7504  -13.9326   21.3623 O   0  0  0  0  0  0  0  0  0  0  0  0
   11.1858  -15.6270   21.1150 N   0  0  0  0  0  0  0  0  0  0  0  0
   10.2874  -15.0302   22.0586 C   0  0  1  0  0  0  0  0  0  0  0  0
    8.8295  -15.3135   21.6638 C   0  0  0  0  0  0  0  0  0  0  0  0
    8.3821  -14.4972   20.5504 C   0  0  0  0  0  0  0  0  0  0  0  0
    9.1368  -13.5968   19.8368 C   0  0  0  0  0  0  0  0  0  0  0  0
    8.3697  -13.0251   18.8700 N   0  0  0  0  0  0  0  0  0  0  0  0
    7.1395  -13.5698   18.9829 C   0  0  0  0  0  0  0  0  0  0  0  0
    7.1543  -14.4685   20.0118 N   0  0  0  0  0  0  0  0  0  0  0  0
   10.4203  -15.6342   23.4168 C   0  0  0  0  0  0  0  0  0  0  0  0
   11.0075  -16.7399   23.5098 O   0  0  0  0  0  0  0  0  0  0  0  0
    9.9101  -13.7350   29.3006 C   0  0  0  0  0  0  0  0  0  0  0  0
   10.1983  -14.8984   28.3651 C   0  0  0  0  0  0  0  0  0  0  0  0
    9.8496  -14.4525   26.9772 C   0  0  2  0  0  0  0  0  0  0  0  0
    8.4160  -14.0519   26.8947 C   0  0  0  0  0  0  0  0  0  0  0  0
   10.1987  -15.4829   25.9282 C   0  0  2  0  0  0  0  0  0  0  0  0
    9.9310  -15.0459   24.5976 N   0  0  0  0  0  0  0  0  0  0  0  0
    9.4467  -16.7260   26.1851 C   0  0  0  0  0  0  0  0  0  0  0  0
    9.7285  -17.4202   27.1849 O   0  0  0  0  0  0  0  0  0  0  0  0
    8.4269  -17.1718   25.3623 O   0  0  0  0  0  0  0  0  0  0  0  0
  2  1  1  1
  3  2  1  0
  3  4  1  0
  5  6  2  0
  5  2  1  0
  7  5  1  0
  8  7  1  0
  8  9  1  6
 10  9  1  0
 11 10  2  0
 12 11  1  0
 13 12  1  0
 13 14  2  0
 14 10  1  0
 15 22  1  0
 15  8  1  0
 16 15  2  0
 18 17  1  0
 19 21  1  0
 19 18  1  0
 19 20  1  1
 21 23  1  0
 21 22  1  6
 23 25  1  0
 24 23  2  0
M  END
$$$$
