CHI.pdb
     RDKit          3D

 25 25  0  0  1  0  0  0  0  0999 V2000
    7.5448  -16.0656   18.2740 N   0  0  0  0  0  0  0  0  0  0  0  0
    8.2997  -15.2634   19.2141 C   0  0  1  0  0  0  0  0  0  0  0  0
    7.9357  -13.8193   18.9707 C   0  0  0  0  0  0  0  0  0  0  0  0
    8.8189  -12.8099   20.1934 S   0  0  0  0  0  0  0  0  0  0  0  0
    8.0253  -15.7139   20.5747 C   0  0  0  0  0  0  0  0  0  0  0  0
    6.8425  -15.9937   20.9080 O   0  0  0  0  0  0  0  0  0  0  0  0
    9.0769  -15.8354   21.5101 N   0  0  0  0  0  0  0  0  0  0  0  0
    8.8424  -16.4105   22.8016 C   0  0  1  0  0  0  0  0  0  0  0  0
    9.6837  -17.6838   22.9820 C   0  0  0  0  0  0  0  0  0  0  0  0
    9.1917  -18.7968   22.1913 C   0  0  0  0  0  0  0  0  0  0  0  0
    8.2779  -19.7446   22.5865 C   0  0  0  0  0  0  0  0  0  0  0  0
    8.0682  -20.6258   21.5719 N   0  0  0  0  0  0  0  0  0  0  0  0
    8.8511  -20.2258   20.5471 C   0  0  0  0  0  0  0  0  0  0  0  0
    9.5348  -19.1077   20.9326 N   0  0  0  0  0  0  0  0  0  0  0  0
    9.2983  -15.5141   23.9043 C   0  0  0  0  0  0  0  0  0  0  0  0
   10.4564  -15.0359   23.8278 O   0  0  0  0  0  0  0  0  0  0  0  0
    5.6472  -12.2850   26.3421 C   0  0  0  0  0  0  0  0  0  0  0  0
    6.8167  -12.9319   25.6173 C   0  0  0  0  0  0  0  0  0  0  0  0
    7.7127  -13.5296   26.6598 C   0  0  2  0  0  0  0  0  0  0  0  0
    8.1581  -12.4915   27.6328 C   0  0  0  0  0  0  0  0  0  0  0  0
    8.8868  -14.2716   26.0644 C   0  0  2  0  0  0  0  0  0  0  0  0
    8.5156  -15.1710   25.0220 N   0  0  0  0  0  0  0  0  0  0  0  0
    9.5846  -15.0261   27.1230 C   0  0  0  0  0  0  0  0  0  0  0  0
    9.2536  -16.2080   27.3563 O   0  0  0  0  0  0  0  0  0  0  0  0
   10.6050  -14.4840   27.8850 O   0  0  0  0  0  0  0  0  0  0  0  0
  2  1  1  6
  3  2  1  0
  3  4  1  0
  5  6  2  0
  5  2  1  0
  7  5  1  0
  8  7  1  0
  8  9  1  6
 10  9  1  0
 11 10  2  0
 12 11  1  0
 13 12  1  0
 13 14  2  0
 14 10  1  0
 15 22  1  0
 15  8  1  0
 16 15  2  0
 18 17  1  0
 19 21  1  0
 19 18  1  0
 19 20  1  1
 21 23  1  0
 21 22  1  6
 23 25  1  0
 24 23  2  0
M  END
$$$$
