CHI.pdb
     RDKit          3D

 25 25  0  0  1  0  0  0  0  0999 V2000
   13.3164  -14.7475   18.9554 N   0  0  0  0  0  0  0  0  0  0  0  0
   12.6586  -15.4756   20.0205 C   0  0  1  0  0  0  0  0  0  0  0  0
   13.7156  -15.8560   21.0281 C   0  0  0  0  0  0  0  0  0  0  0  0
   12.9225  -16.8648   22.3116 S   0  0  0  0  0  0  0  0  0  0  0  0
   11.5838  -14.6623   20.5797 C   0  0  0  0  0  0  0  0  0  0  0  0
   11.7984  -13.4489   20.8440 O   0  0  0  0  0  0  0  0  0  0  0  0
   10.3135  -15.2308   20.8226 N   0  0  0  0  0  0  0  0  0  0  0  0
    9.2477  -14.4353   21.3564 C   0  0  1  0  0  0  0  0  0  0  0  0
    7.9312  -14.7436   20.6261 C   0  0  0  0  0  0  0  0  0  0  0  0
    7.9724  -14.3828   19.2211 C   0  0  0  0  0  0  0  0  0  0  0  0
    8.1092  -13.1175   18.7017 C   0  0  0  0  0  0  0  0  0  0  0  0
    8.1049  -13.1801   17.3430 N   0  0  0  0  0  0  0  0  0  0  0  0
    7.9655  -14.4833   17.0185 C   0  0  0  0  0  0  0  0  0  0  0  0
    7.8852  -15.2125   18.1710 N   0  0  0  0  0  0  0  0  0  0  0  0
    8.9598  -14.7700   22.7821 C   0  0  0  0  0  0  0  0  0  0  0  0
    9.4668  -15.8186   23.2501 O   0  0  0  0  0  0  0  0  0  0  0  0
    6.8275  -11.7225   27.6851 C   0  0  0  0  0  0  0  0  0  0  0  0
    7.2226  -13.1029   27.1851 C   0  0  0  0  0  0  0  0  0  0  0  0
    7.1833  -13.0635   25.6872 C   0  0  2  0  0  0  0  0  0  0  0  0
    5.7810  -13.1680   25.1918 C   0  0  0  0  0  0  0  0  0  0  0  0
    8.0747  -14.1057   25.0524 C   0  0  2  0  0  0  0  0  0  0  0  0
    8.1584  -13.9877   23.6338 N   0  0  0  0  0  0  0  0  0  0  0  0
    7.5814  -15.4537   25.3932 C   0  0  0  0  0  0  0  0  0  0  0  0
    7.6528  -15.8547   26.5743 O   0  0  0  0  0  0  0  0  0  0  0  0
    7.0339  -16.3133   24.4567 O   0  0  0  0  0  0  0  0  0  0  0  0
  2  1  1  6
  3  2  1  0
  3  4  1  0
  5  6  2  0
  5  2  1  0
  7  5  1  0
  8  7  1  0
  8  9  1  6
 10  9  1  0
 11 10  2  0
 12 11  1  0
 13 12  1  0
 13 14  2  0
 14 10  1  0
 15 22  1  0
 15  8  1  0
 16 15  2  0
 18 17  1  0
 19 21  1  0
 19 18  1  0
 19 20  1  1
 21 23  1  0
 21 22  1  6
 23 25  1  0
 24 23  2  0
M  END
$$$$
