QYR.pdb
     RDKit          3D

 33 33  0  0  1  0  0  0  0  0999 V2000
   13.9336  -30.8470   -9.0973 N   0  0  0  0  0  0  0  0  0  0  0  0
   14.1489  -30.5518   -7.7385 C   0  0  0  0  0  0  0  0  0  0  0  0
   13.1882  -30.2389   -7.0034 O   0  0  0  0  0  0  0  0  0  0  0  0
   15.5095  -30.6115   -7.1812 C   0  0  0  0  0  0  0  0  0  0  0  0
   16.4940  -30.9254   -8.2884 C   0  0  0  0  0  0  0  0  0  0  0  0
   17.8340  -30.3518   -7.8580 C   0  0  2  0  0  0  0  0  0  0  0  0
   18.1639  -30.7095   -6.4967 N   0  0  0  0  0  0  0  0  0  0  0  0
   17.9013  -28.8850   -8.0775 C   0  0  0  0  0  0  0  0  0  0  0  0
   17.9471  -28.1058   -7.1111 O   0  0  0  0  0  0  0  0  0  0  0  0
   19.7135  -21.4688  -12.6480 O   0  0  0  0  0  0  0  0  0  0  0  0
   19.5330  -22.7713  -12.2120 C   0  0  0  0  0  0  0  0  0  0  0  0
   18.8254  -23.6602  -12.9833 C   0  0  0  0  0  0  0  0  0  0  0  0
   18.6348  -24.9573  -12.5689 C   0  0  0  0  0  0  0  0  0  0  0  0
   19.1293  -25.4335  -11.3861 C   0  0  0  0  0  0  0  0  0  0  0  0
   18.9665  -26.8137  -10.9100 C   0  0  0  0  0  0  0  0  0  0  0  0
   18.2569  -26.9250   -9.6027 C   0  0  2  0  0  0  0  0  0  0  0  0
   17.9131  -28.3768   -9.4029 N   0  0  0  0  0  0  0  0  0  0  0  0
   16.9436  -26.2618   -9.6448 C   0  0  0  0  0  0  0  0  0  0  0  0
   15.9511  -26.9602  -10.0724 O   0  0  0  0  0  0  0  0  0  0  0  0
   19.8548  -24.5243  -10.5934 C   0  0  0  0  0  0  0  0  0  0  0  0
   20.0368  -23.2401  -11.0152 C   0  0  0  0  0  0  0  0  0  0  0  0
   14.2848  -24.6261   -3.1508 N   0  0  0  0  0  0  0  0  0  0  0  0
   15.2293  -25.1700   -4.0356 C   0  0  0  0  0  0  0  0  0  0  0  0
   16.3100  -25.6684   -3.5565 N   0  0  0  0  0  0  0  0  0  0  0  0
   15.0516  -25.1992   -5.4508 N   0  0  0  0  0  0  0  0  0  0  0  0
   13.7896  -24.8069   -6.0131 C   0  0  0  0  0  0  0  0  0  0  0  0
   13.8310  -24.9691   -7.5417 C   0  0  0  0  0  0  0  0  0  0  0  0
   14.7801  -23.9789   -8.1258 C   0  0  0  0  0  0  0  0  0  0  0  0
   15.3043  -24.4245   -9.5009 C   0  0  2  0  0  0  0  0  0  0  0  0
   16.6524  -24.9342   -9.2548 N   0  0  0  0  0  0  0  0  0  0  0  0
   15.3601  -23.2919  -10.4342 C   0  0  0  0  0  0  0  0  0  0  0  0
   16.4769  -22.8232  -10.8404 O   0  0  0  0  0  0  0  0  0  0  0  0
   14.2243  -22.6792  -10.9198 O   0  0  0  0  0  0  0  0  0  0  0  0
  2  1  1  0
  3  2  2  0
  4  2  1  0
  5  4  1  0
  6  8  1  0
  6  5  1  0
  6  7  1  1
  8  9  2  0
 10 11  1  0
 11 12  2  0
 11 21  1  0
 12 13  1  0
 13 14  2  0
 14 15  1  0
 16 15  1  6
 17 16  1  0
 17  8  1  0
 18 19  2  0
 18 16  1  0
 20 14  1  0
 21 20  2  0
 22 23  1  0
 23 25  1  0
 24 23  2  0
 25 26  1  0
 26 27  1  0
 28 27  1  0
 29 28  1  1
 29 30  1  0
 30 18  1  0
 31 33  1  0
 31 29  1  0
 32 31  2  0
M  END
$$$$
