QYR.pdb
     RDKit          3D

 33 33  0  0  1  0  0  0  0  0999 V2000
   27.7719  -27.3188  -16.1515 N   0  0  0  0  0  0  0  0  0  0  0  0
   28.6567  -26.8359  -17.1332 C   0  0  0  0  0  0  0  0  0  0  0  0
   29.1920  -25.7146  -17.0000 O   0  0  0  0  0  0  0  0  0  0  0  0
   28.9529  -27.6534  -18.3203 C   0  0  0  0  0  0  0  0  0  0  0  0
   28.2337  -28.9816  -18.2094 C   0  0  0  0  0  0  0  0  0  0  0  0
   29.2706  -30.0060  -17.7789 C   0  0  2  0  0  0  0  0  0  0  0  0
   30.1924  -30.3245  -18.8459 N   0  0  0  0  0  0  0  0  0  0  0  0
   28.6390  -31.2233  -17.2102 C   0  0  0  0  0  0  0  0  0  0  0  0
   28.5308  -32.2542  -17.8949 O   0  0  0  0  0  0  0  0  0  0  0  0
   25.4920  -36.7439  -11.0092 O   0  0  0  0  0  0  0  0  0  0  0  0
   26.1355  -35.7501  -11.7286 C   0  0  0  0  0  0  0  0  0  0  0  0
   27.0247  -36.0877  -12.7191 C   0  0  0  0  0  0  0  0  0  0  0  0
   27.6739  -35.1170  -13.4448 C   0  0  0  0  0  0  0  0  0  0  0  0
   27.4776  -33.7808  -13.2296 C   0  0  0  0  0  0  0  0  0  0  0  0
   28.1341  -32.7088  -13.9898 C   0  0  0  0  0  0  0  0  0  0  0  0
   27.5268  -32.4544  -15.3283 C   0  0  2  0  0  0  0  0  0  0  0  0
   28.1581  -31.2020  -15.8748 N   0  0  0  0  0  0  0  0  0  0  0  0
   26.1023  -32.1020  -15.2149 C   0  0  0  0  0  0  0  0  0  0  0  0
   25.8246  -30.9513  -14.7104 O   0  0  0  0  0  0  0  0  0  0  0  0
   26.5669  -33.4319  -12.2145 C   0  0  0  0  0  0  0  0  0  0  0  0
   25.9293  -34.4041  -11.5014 C   0  0  0  0  0  0  0  0  0  0  0  0
   19.6586  -33.2827  -20.4991 N   0  0  0  0  0  0  0  0  0  0  0  0
   21.0227  -33.0909  -20.2285 C   0  0  0  0  0  0  0  0  0  0  0  0
   21.8694  -33.2448  -21.1800 N   0  0  0  0  0  0  0  0  0  0  0  0
   21.5235  -32.7310  -18.9421 N   0  0  0  0  0  0  0  0  0  0  0  0
   20.6652  -32.8339  -17.7952 C   0  0  0  0  0  0  0  0  0  0  0  0
   21.4209  -32.3685  -16.5394 C   0  0  0  0  0  0  0  0  0  0  0  0
   22.8630  -32.7267  -16.6601 C   0  0  0  0  0  0  0  0  0  0  0  0
   23.6559  -32.3601  -15.3948 C   0  0  2  0  0  0  0  0  0  0  0  0
   24.9998  -32.8934  -15.6119 N   0  0  0  0  0  0  0  0  0  0  0  0
   23.0590  -32.9775  -14.2034 C   0  0  0  0  0  0  0  0  0  0  0  0
   23.4493  -34.1190  -13.7831 O   0  0  0  0  0  0  0  0  0  0  0  0
   22.0570  -32.3667  -13.4793 O   0  0  0  0  0  0  0  0  0  0  0  0
  2  1  1  0
  3  2  2  0
  4  2  1  0
  5  4  1  0
  6  8  1  0
  6  5  1  0
  6  7  1  6
  8  9  2  0
 10 11  1  0
 11 12  2  0
 11 21  1  0
 12 13  1  0
 13 14  2  0
 14 15  1  0
 16 15  1  1
 17 16  1  0
 17  8  1  0
 18 19  2  0
 18 16  1  0
 20 14  1  0
 21 20  2  0
 22 23  1  0
 23 25  1  0
 24 23  2  0
 25 26  1  0
 26 27  1  0
 28 27  1  0
 29 28  1  6
 29 30  1  0
 30 18  1  0
 31 33  1  0
 31 29  1  0
 32 31  2  0
M  END
$$$$
