QYR.pdb
     RDKit          3D

 33 33  0  0  1  0  0  0  0  0999 V2000
   28.0532  -23.1798  -15.8014 N   0  0  0  0  0  0  0  0  0  0  0  0
   28.3911  -22.8161  -17.1181 C   0  0  0  0  0  0  0  0  0  0  0  0
   29.1158  -23.5627  -17.8100 O   0  0  0  0  0  0  0  0  0  0  0  0
   27.8896  -21.5529  -17.6821 C   0  0  0  0  0  0  0  0  0  0  0  0
   27.0098  -20.8601  -16.6625 C   0  0  0  0  0  0  0  0  0  0  0  0
   26.4817  -19.5986  -17.3254 C   0  0  2  0  0  0  0  0  0  0  0  0
   27.5506  -18.7415  -17.7867 N   0  0  0  0  0  0  0  0  0  0  0  0
   25.5288  -18.8730  -16.4482 C   0  0  0  0  0  0  0  0  0  0  0  0
   25.9280  -18.3113  -15.4145 O   0  0  0  0  0  0  0  0  0  0  0  0
   26.2511  -12.6359  -16.9508 O   0  0  0  0  0  0  0  0  0  0  0  0
   25.3600  -13.6910  -16.8422 C   0  0  0  0  0  0  0  0  0  0  0  0
   25.0895  -14.4749  -17.9368 C   0  0  0  0  0  0  0  0  0  0  0  0
   24.2085  -15.5269  -17.8503 C   0  0  0  0  0  0  0  0  0  0  0  0
   23.5598  -15.8519  -16.6909 C   0  0  0  0  0  0  0  0  0  0  0  0
   22.6246  -16.9754  -16.5457 C   0  0  0  0  0  0  0  0  0  0  0  0
   23.2013  -18.1581  -15.8433 C   0  0  2  0  0  0  0  0  0  0  0  0
   24.1542  -18.8248  -16.7990 N   0  0  0  0  0  0  0  0  0  0  0  0
   22.1802  -19.1894  -15.5981 C   0  0  0  0  0  0  0  0  0  0  0  0
   21.7284  -19.8186  -16.6256 O   0  0  0  0  0  0  0  0  0  0  0  0
   23.8351  -15.0497  -15.5674 C   0  0  0  0  0  0  0  0  0  0  0  0
   24.7108  -14.0088  -15.6659 C   0  0  0  0  0  0  0  0  0  0  0  0
   21.8396  -26.5343  -11.9414 N   0  0  0  0  0  0  0  0  0  0  0  0
   20.4877  -26.3015  -12.2399 C   0  0  0  0  0  0  0  0  0  0  0  0
   19.6646  -27.2841  -12.1862 N   0  0  0  0  0  0  0  0  0  0  0  0
   19.9745  -25.0208  -12.6030 N   0  0  0  0  0  0  0  0  0  0  0  0
   20.8642  -23.8953  -12.6683 C   0  0  0  0  0  0  0  0  0  0  0  0
   20.0516  -22.6028  -12.8516 C   0  0  0  0  0  0  0  0  0  0  0  0
   20.9782  -21.4492  -13.0342 C   0  0  0  0  0  0  0  0  0  0  0  0
   20.6699  -20.6596  -14.3170 C   0  0  2  0  0  0  0  0  0  0  0  0
   21.6458  -19.5714  -14.3459 N   0  0  0  0  0  0  0  0  0  0  0  0
   19.3084  -20.1100  -14.2813 C   0  0  0  0  0  0  0  0  0  0  0  0
   18.3169  -20.7666  -14.7479 O   0  0  0  0  0  0  0  0  0  0  0  0
   19.0269  -18.8703  -13.7474 O   0  0  0  0  0  0  0  0  0  0  0  0
  2  1  1  0
  3  2  2  0
  4  2  1  0
  5  4  1  0
  6  8  1  0
  6  5  1  0
  6  7  1  1
  8  9  2  0
 10 11  1  0
 11 12  2  0
 11 21  1  0
 12 13  1  0
 13 14  2  0
 14 15  1  0
 16 15  1  6
 17 16  1  0
 17  8  1  0
 18 19  2  0
 18 16  1  0
 20 14  1  0
 21 20  2  0
 22 23  1  0
 23 25  1  0
 24 23  2  0
 25 26  1  0
 26 27  1  0
 28 27  1  0
 29 28  1  1
 29 30  1  0
 30 18  1  0
 31 33  1  0
 31 29  1  0
 32 31  2  0
M  END
$$$$
