QYR.pdb
     RDKit          3D

 33 33  0  0  1  0  0  0  0  0999 V2000
   27.2946  -16.3444  -15.0793 N   0  0  0  0  0  0  0  0  0  0  0  0
   27.7443  -16.4364  -16.4094 C   0  0  0  0  0  0  0  0  0  0  0  0
   28.4801  -15.5465  -16.8870 O   0  0  0  0  0  0  0  0  0  0  0  0
   27.3472  -17.5838  -17.2407 C   0  0  0  0  0  0  0  0  0  0  0  0
   26.4745  -18.5168  -16.4275 C   0  0  0  0  0  0  0  0  0  0  0  0
   27.4107  -19.3770  -15.5947 C   0  0  2  0  0  0  0  0  0  0  0  0
   28.3408  -20.1174  -16.4174 N   0  0  0  0  0  0  0  0  0  0  0  0
   26.6647  -20.2634  -14.6663 C   0  0  0  0  0  0  0  0  0  0  0  0
   26.3705  -21.4223  -15.0033 O   0  0  0  0  0  0  0  0  0  0  0  0
   31.2455  -22.4507  -10.0104 O   0  0  0  0  0  0  0  0  0  0  0  0
   29.9736  -21.9627  -10.2618 C   0  0  0  0  0  0  0  0  0  0  0  0
   29.8156  -20.7279  -10.8416 C   0  0  0  0  0  0  0  0  0  0  0  0
   28.5621  -20.2252  -11.0995 C   0  0  0  0  0  0  0  0  0  0  0  0
   27.4171  -20.9108  -10.8009 C   0  0  0  0  0  0  0  0  0  0  0  0
   26.0584  -20.4230  -11.0732 C   0  0  0  0  0  0  0  0  0  0  0  0
   25.5735  -20.7162  -12.4530 C   0  0  2  0  0  0  0  0  0  0  0  0
   26.2885  -19.7768  -13.3870 N   0  0  0  0  0  0  0  0  0  0  0  0
   24.1567  -20.3518  -12.6146 C   0  0  0  0  0  0  0  0  0  0  0  0
   23.8795  -19.0964  -12.6644 O   0  0  0  0  0  0  0  0  0  0  0  0
   27.5761  -22.1767  -10.2062 C   0  0  0  0  0  0  0  0  0  0  0  0
   28.8249  -22.6644   -9.9550 C   0  0  0  0  0  0  0  0  0  0  0  0
   18.6569  -23.7983  -17.9423 N   0  0  0  0  0  0  0  0  0  0  0  0
   18.4975  -23.9817  -16.5596 C   0  0  0  0  0  0  0  0  0  0  0  0
   17.8519  -25.0089  -16.1426 N   0  0  0  0  0  0  0  0  0  0  0  0
   19.0188  -23.0805  -15.5842 N   0  0  0  0  0  0  0  0  0  0  0  0
   19.5152  -21.7985  -15.9999 C   0  0  0  0  0  0  0  0  0  0  0  0
   19.9403  -20.9833  -14.7674 C   0  0  0  0  0  0  0  0  0  0  0  0
   21.3087  -21.3940  -14.3417 C   0  0  0  0  0  0  0  0  0  0  0  0
   21.7518  -20.6773  -13.0555 C   0  0  2  0  0  0  0  0  0  0  0  0
   23.0620  -21.2393  -12.7309 N   0  0  0  0  0  0  0  0  0  0  0  0
   20.8104  -20.9365  -11.9586 C   0  0  0  0  0  0  0  0  0  0  0  0
   20.9261  -21.9702  -11.2170 O   0  0  0  0  0  0  0  0  0  0  0  0
   19.7622  -20.0884  -11.6699 O   0  0  0  0  0  0  0  0  0  0  0  0
  2  1  1  0
  3  2  2  0
  4  2  1  0
  5  4  1  0
  6  8  1  0
  6  5  1  0
  6  7  1  6
  8  9  2  0
 10 11  1  0
 11 12  2  0
 11 21  1  0
 12 13  1  0
 13 14  2  0
 14 15  1  0
 16 15  1  1
 17 16  1  0
 17  8  1  0
 18 19  2  0
 18 16  1  0
 20 14  1  0
 21 20  2  0
 22 23  1  0
 23 25  1  0
 24 23  2  0
 25 26  1  0
 26 27  1  0
 28 27  1  0
 29 28  1  6
 29 30  1  0
 30 18  1  0
 31 33  1  0
 31 29  1  0
 32 31  2  0
M  END
$$$$
