QYR.pdb
     RDKit          3D

 33 33  0  0  1  0  0  0  0  0999 V2000
   26.2887  -24.5036  -15.9764 N   0  0  0  0  0  0  0  0  0  0  0  0
   27.6614  -24.3844  -16.2622 C   0  0  0  0  0  0  0  0  0  0  0  0
   28.3010  -25.3670  -16.6943 O   0  0  0  0  0  0  0  0  0  0  0  0
   28.3459  -23.0989  -16.0518 C   0  0  0  0  0  0  0  0  0  0  0  0
   27.4057  -22.1352  -15.3585 C   0  0  0  0  0  0  0  0  0  0  0  0
   26.6676  -21.3807  -16.4521 C   0  0  2  0  0  0  0  0  0  0  0  0
   27.5715  -20.6411  -17.3040 N   0  0  0  0  0  0  0  0  0  0  0  0
   25.5959  -20.5159  -15.8977 C   0  0  0  0  0  0  0  0  0  0  0  0
   25.8810  -19.5434  -15.1792 O   0  0  0  0  0  0  0  0  0  0  0  0
   18.6172  -15.3907  -15.3950 O   0  0  0  0  0  0  0  0  0  0  0  0
   19.6951  -16.2102  -15.6879 C   0  0  0  0  0  0  0  0  0  0  0  0
   20.8143  -16.1805  -14.8928 C   0  0  0  0  0  0  0  0  0  0  0  0
   21.8949  -16.9856  -15.1659 C   0  0  0  0  0  0  0  0  0  0  0  0
   21.9212  -17.8498  -16.2256 C   0  0  0  0  0  0  0  0  0  0  0  0
   23.0440  -18.7409  -16.5469 C   0  0  0  0  0  0  0  0  0  0  0  0
   23.1779  -19.9053  -15.6242 C   0  0  2  0  0  0  0  0  0  0  0  0
   24.2389  -20.8079  -16.1947 N   0  0  0  0  0  0  0  0  0  0  0  0
   21.9683  -20.7436  -15.6362 C   0  0  0  0  0  0  0  0  0  0  0  0
   21.6955  -21.3581  -16.7333 O   0  0  0  0  0  0  0  0  0  0  0  0
   20.7752  -17.8820  -17.0424 C   0  0  0  0  0  0  0  0  0  0  0  0
   19.7098  -17.0782  -16.7613 C   0  0  0  0  0  0  0  0  0  0  0  0
   18.9013  -25.6152   -9.6550 N   0  0  0  0  0  0  0  0  0  0  0  0
   18.8285  -24.2271   -9.8519 C   0  0  0  0  0  0  0  0  0  0  0  0
   18.8988  -23.4533   -8.8310 N   0  0  0  0  0  0  0  0  0  0  0  0
   18.6792  -23.6245  -11.1364 N   0  0  0  0  0  0  0  0  0  0  0  0
   18.5925  -24.4582  -12.3026 C   0  0  0  0  0  0  0  0  0  0  0  0
   18.6122  -23.5834  -13.5671 C   0  0  0  0  0  0  0  0  0  0  0  0
   19.7202  -22.5905  -13.4731 C   0  0  0  0  0  0  0  0  0  0  0  0
   19.9170  -21.8200  -14.7891 C   0  0  2  0  0  0  0  0  0  0  0  0
   21.0733  -20.9545  -14.5619 N   0  0  0  0  0  0  0  0  0  0  0  0
   18.7360  -21.0052  -15.1027 C   0  0  0  0  0  0  0  0  0  0  0  0
   18.5163  -19.8992  -14.5023 O   0  0  0  0  0  0  0  0  0  0  0  0
   17.8100  -21.3827  -16.0520 O   0  0  0  0  0  0  0  0  0  0  0  0
  2  1  1  0
  3  2  2  0
  4  2  1  0
  5  4  1  0
  6  8  1  0
  6  5  1  0
  6  7  1  1
  8  9  2  0
 10 11  1  0
 11 12  2  0
 11 21  1  0
 12 13  1  0
 13 14  2  0
 14 15  1  0
 16 15  1  6
 17 16  1  0
 17  8  1  0
 18 19  2  0
 18 16  1  0
 20 14  1  0
 21 20  2  0
 22 23  1  0
 23 25  1  0
 24 23  2  0
 25 26  1  0
 26 27  1  0
 28 27  1  0
 29 28  1  1
 29 30  1  0
 30 18  1  0
 31 33  1  0
 31 29  1  0
 32 31  2  0
M  END
$$$$
