QYR.pdb
     RDKit          3D

 33 33  0  0  1  0  0  0  0  0999 V2000
   27.9708  -18.0682   -7.4275 N   0  0  0  0  0  0  0  0  0  0  0  0
   27.5091  -19.3748   -7.1833 C   0  0  0  0  0  0  0  0  0  0  0  0
   27.9250  -20.0135   -6.1931 O   0  0  0  0  0  0  0  0  0  0  0  0
   26.5336  -19.9912   -8.0965 C   0  0  0  0  0  0  0  0  0  0  0  0
   27.2589  -20.5644   -9.2960 C   0  0  0  0  0  0  0  0  0  0  0  0
   26.2055  -21.2264  -10.1690 C   0  0  2  0  0  0  0  0  0  0  0  0
   26.7847  -22.1847  -11.0834 N   0  0  0  0  0  0  0  0  0  0  0  0
   25.3657  -20.2253  -10.8737 C   0  0  0  0  0  0  0  0  0  0  0  0
   25.0564  -19.1593  -10.3158 O   0  0  0  0  0  0  0  0  0  0  0  0
   29.1963  -21.2538  -16.5979 O   0  0  0  0  0  0  0  0  0  0  0  0
   28.2374  -20.5786  -15.8605 C   0  0  0  0  0  0  0  0  0  0  0  0
   27.2834  -21.2835  -15.1684 C   0  0  0  0  0  0  0  0  0  0  0  0
   26.3229  -20.6328  -14.4305 C   0  0  0  0  0  0  0  0  0  0  0  0
   26.2597  -19.2696  -14.3413 C   0  0  0  0  0  0  0  0  0  0  0  0
   25.2643  -18.5311  -13.5527 C   0  0  0  0  0  0  0  0  0  0  0  0
   24.2127  -19.3944  -12.9411 C   0  0  2  0  0  0  0  0  0  0  0  0
   24.9170  -20.4946  -12.1932 N   0  0  0  0  0  0  0  0  0  0  0  0
   23.4420  -20.1135  -13.9683 C   0  0  0  0  0  0  0  0  0  0  0  0
   24.0065  -21.1330  -14.5136 O   0  0  0  0  0  0  0  0  0  0  0  0
   27.2362  -18.5446  -15.0500 C   0  0  0  0  0  0  0  0  0  0  0  0
   28.1836  -19.2015  -15.7787 C   0  0  0  0  0  0  0  0  0  0  0  0
   17.7609  -24.5052  -11.6022 N   0  0  0  0  0  0  0  0  0  0  0  0
   17.8619  -23.1615  -11.2082 C   0  0  0  0  0  0  0  0  0  0  0  0
   17.1650  -22.7558  -10.2104 N   0  0  0  0  0  0  0  0  0  0  0  0
   18.7043  -22.2141  -11.8624 N   0  0  0  0  0  0  0  0  0  0  0  0
   19.4100  -22.5989  -13.0527 C   0  0  0  0  0  0  0  0  0  0  0  0
   20.1747  -21.3893  -13.6152 C   0  0  0  0  0  0  0  0  0  0  0  0
   20.8702  -21.7773  -14.8755 C   0  0  0  0  0  0  0  0  0  0  0  0
   21.5898  -20.5850  -15.5274 C   0  0  2  0  0  0  0  0  0  0  0  0
   22.1361  -19.8077  -14.4161 N   0  0  0  0  0  0  0  0  0  0  0  0
   20.6496  -19.7620  -16.2992 C   0  0  0  0  0  0  0  0  0  0  0  0
   20.4048  -18.5520  -15.9708 O   0  0  0  0  0  0  0  0  0  0  0  0
   19.9875  -20.2426  -17.4091 O   0  0  0  0  0  0  0  0  0  0  0  0
  2  1  1  0
  3  2  2  0
  4  2  1  0
  5  4  1  0
  6  8  1  0
  6  5  1  0
  6  7  1  6
  8  9  2  0
 10 11  1  0
 11 12  2  0
 11 21  1  0
 12 13  1  0
 13 14  2  0
 14 15  1  0
 16 15  1  6
 17 16  1  0
 17  8  1  0
 18 19  2  0
 18 16  1  0
 20 14  1  0
 21 20  2  0
 22 23  1  0
 23 25  1  0
 24 23  2  0
 25 26  1  0
 26 27  1  0
 28 27  1  0
 29 28  1  1
 29 30  1  0
 30 18  1  0
 31 33  1  0
 31 29  1  0
 32 31  2  0
M  END
$$$$
