QYR.pdb
     RDKit          3D

 33 33  0  0  1  0  0  0  0  0999 V2000
   30.0839  -23.0553  -16.7581 N   0  0  0  0  0  0  0  0  0  0  0  0
   29.7728  -22.5004  -18.0132 C   0  0  0  0  0  0  0  0  0  0  0  0
   30.6789  -22.2794  -18.8447 O   0  0  0  0  0  0  0  0  0  0  0  0
   28.3763  -22.1795  -18.3479 C   0  0  0  0  0  0  0  0  0  0  0  0
   27.4752  -22.5990  -17.2053 C   0  0  0  0  0  0  0  0  0  0  0  0
   26.6854  -21.3668  -16.7956 C   0  0  2  0  0  0  0  0  0  0  0  0
   27.5349  -20.2082  -16.6348 N   0  0  0  0  0  0  0  0  0  0  0  0
   25.8577  -21.6191  -15.5892 C   0  0  0  0  0  0  0  0  0  0  0  0
   25.0870  -22.5924  -15.5474 O   0  0  0  0  0  0  0  0  0  0  0  0
   22.9368  -20.8471   -7.2054 O   0  0  0  0  0  0  0  0  0  0  0  0
   23.6354  -20.7510   -8.3977 C   0  0  0  0  0  0  0  0  0  0  0  0
   23.1351  -19.9900   -9.4256 C   0  0  0  0  0  0  0  0  0  0  0  0
   23.8128  -19.8814  -10.6170 C   0  0  0  0  0  0  0  0  0  0  0  0
   25.0043  -20.5118  -10.8476 C   0  0  0  0  0  0  0  0  0  0  0  0
   25.7724  -20.4119  -12.0958 C   0  0  0  0  0  0  0  0  0  0  0  0
   25.0920  -21.0170  -13.2772 C   0  0  2  0  0  0  0  0  0  0  0  0
   25.9527  -20.7382  -14.4802 N   0  0  0  0  0  0  0  0  0  0  0  0
   23.8313  -20.3232  -13.5863 C   0  0  0  0  0  0  0  0  0  0  0  0
   23.9225  -19.1834  -14.1763 O   0  0  0  0  0  0  0  0  0  0  0  0
   25.5192  -21.2928   -9.7957 C   0  0  0  0  0  0  0  0  0  0  0  0
   24.8375  -21.3929   -8.6186 C   0  0  0  0  0  0  0  0  0  0  0  0
   20.3191  -21.5479  -20.1258 N   0  0  0  0  0  0  0  0  0  0  0  0
   19.8442  -22.4715  -19.1811 C   0  0  0  0  0  0  0  0  0  0  0  0
   19.2683  -23.5400  -19.5967 N   0  0  0  0  0  0  0  0  0  0  0  0
   19.9679  -22.2855  -17.7721 N   0  0  0  0  0  0  0  0  0  0  0  0
   20.5882  -21.0921  -17.2684 C   0  0  0  0  0  0  0  0  0  0  0  0
   20.6298  -21.1390  -15.7320 C   0  0  0  0  0  0  0  0  0  0  0  0
   21.3518  -19.9425  -15.2128 C   0  0  0  0  0  0  0  0  0  0  0  0
   21.3996  -19.9198  -13.6762 C   0  0  2  0  0  0  0  0  0  0  0  0
   22.5225  -20.7821  -13.3109 N   0  0  0  0  0  0  0  0  0  0  0  0
   20.1551  -20.4494  -13.1039 C   0  0  0  0  0  0  0  0  0  0  0  0
   20.0768  -21.6560  -12.6916 O   0  0  0  0  0  0  0  0  0  0  0  0
   19.0155  -19.6833  -12.9795 O   0  0  0  0  0  0  0  0  0  0  0  0
  2  1  1  0
  3  2  2  0
  4  2  1  0
  5  4  1  0
  6  8  1  0
  6  5  1  0
  6  7  1  1
  8  9  2  0
 10 11  1  0
 11 12  2  0
 11 21  1  0
 12 13  1  0
 13 14  2  0
 14 15  1  0
 16 15  1  1
 17 16  1  0
 17  8  1  0
 18 19  2  0
 18 16  1  0
 20 14  1  0
 21 20  2  0
 22 23  1  0
 23 25  1  0
 24 23  2  0
 25 26  1  0
 26 27  1  0
 28 27  1  0
 29 28  1  6
 29 30  1  0
 30 18  1  0
 31 33  1  0
 31 29  1  0
 32 31  2  0
M  END
$$$$
