QYR.pdb
     RDKit          3D

 33 33  0  0  1  0  0  0  0  0999 V2000
   28.5800  -18.2806  -18.0660 N   0  0  0  0  0  0  0  0  0  0  0  0
   28.7508  -18.5249  -19.4411 C   0  0  0  0  0  0  0  0  0  0  0  0
   28.9869  -19.6821  -19.8493 O   0  0  0  0  0  0  0  0  0  0  0  0
   28.6511  -17.4147  -20.4017 C   0  0  0  0  0  0  0  0  0  0  0  0
   28.3469  -16.1310  -19.6581 C   0  0  0  0  0  0  0  0  0  0  0  0
   27.5213  -15.2666  -20.5968 C   0  0  2  0  0  0  0  0  0  0  0  0
   28.1996  -15.0291  -21.8511 N   0  0  0  0  0  0  0  0  0  0  0  0
   27.0956  -14.0007  -19.9484 C   0  0  0  0  0  0  0  0  0  0  0  0
   26.7441  -13.9914  -18.7570 O   0  0  0  0  0  0  0  0  0  0  0  0
   32.6183  -11.5914  -17.4678 O   0  0  0  0  0  0  0  0  0  0  0  0
   31.4407  -11.3425  -18.1537 C   0  0  0  0  0  0  0  0  0  0  0  0
   30.4812  -10.5334  -17.5966 C   0  0  0  0  0  0  0  0  0  0  0  0
   29.3056  -10.2736  -18.2606 C   0  0  0  0  0  0  0  0  0  0  0  0
   29.0247  -10.7945  -19.4935 C   0  0  0  0  0  0  0  0  0  0  0  0
   27.7920  -10.5319  -20.2482 C   0  0  0  0  0  0  0  0  0  0  0  0
   26.7052  -11.5229  -19.9991 C   0  0  2  0  0  0  0  0  0  0  0  0
   27.0927  -12.7970  -20.7009 N   0  0  0  0  0  0  0  0  0  0  0  0
   25.4537  -11.1284  -20.6657 C   0  0  0  0  0  0  0  0  0  0  0  0
   25.4177  -11.2332  -21.9476 O   0  0  0  0  0  0  0  0  0  0  0  0
   30.0064  -11.6246  -20.0667 C   0  0  0  0  0  0  0  0  0  0  0  0
   31.1685  -11.8749  -19.3980 C   0  0  0  0  0  0  0  0  0  0  0  0
   17.5590  -11.4688  -17.2575 N   0  0  0  0  0  0  0  0  0  0  0  0
   18.0032  -10.1377  -17.2983 C   0  0  0  0  0  0  0  0  0  0  0  0
   17.2901   -9.2305  -16.7376 N   0  0  0  0  0  0  0  0  0  0  0  0
   19.2148   -9.7349  -17.9347 N   0  0  0  0  0  0  0  0  0  0  0  0
   19.9997  -10.7083  -18.6412 C   0  0  0  0  0  0  0  0  0  0  0  0
   21.1997  -10.0186  -19.3110 C   0  0  0  0  0  0  0  0  0  0  0  0
   21.9190  -10.9943  -20.1789 C   0  0  0  0  0  0  0  0  0  0  0  0
   23.1225  -10.3547  -20.8908 C   0  0  2  0  0  0  0  0  0  0  0  0
   24.2765  -10.6524  -20.0437 N   0  0  0  0  0  0  0  0  0  0  0  0
   22.9508   -8.9010  -21.0098 C   0  0  0  0  0  0  0  0  0  0  0  0
   22.1269   -8.3979  -21.8465 O   0  0  0  0  0  0  0  0  0  0  0  0
   23.6595   -8.0083  -20.2339 O   0  0  0  0  0  0  0  0  0  0  0  0
  2  1  1  0
  3  2  2  0
  4  2  1  0
  5  4  1  0
  6  8  1  0
  6  5  1  0
  6  7  1  6
  8  9  2  0
 10 11  1  0
 11 12  2  0
 11 21  1  0
 12 13  1  0
 13 14  2  0
 14 15  1  0
 16 15  1  6
 17 16  1  0
 17  8  1  0
 18 19  2  0
 18 16  1  0
 20 14  1  0
 21 20  2  0
 22 23  1  0
 23 25  1  0
 24 23  2  0
 25 26  1  0
 26 27  1  0
 28 27  1  0
 29 28  1  1
 29 30  1  0
 30 18  1  0
 31 33  1  0
 31 29  1  0
 32 31  2  0
M  END
$$$$
