QYR.pdb
     RDKit          3D

 33 33  0  0  1  0  0  0  0  0999 V2000
   20.2608  -22.6970  -16.6256 N   0  0  0  0  0  0  0  0  0  0  0  0
   18.9964  -22.2225  -16.2304 C   0  0  0  0  0  0  0  0  0  0  0  0
   17.9787  -22.9265  -16.4035 O   0  0  0  0  0  0  0  0  0  0  0  0
   18.8720  -20.8933  -15.6114 C   0  0  0  0  0  0  0  0  0  0  0  0
   20.2386  -20.2458  -15.5297 C   0  0  0  0  0  0  0  0  0  0  0  0
   20.7982  -20.5770  -14.1560 C   0  0  2  0  0  0  0  0  0  0  0  0
   20.1497  -19.8185  -13.1101 N   0  0  0  0  0  0  0  0  0  0  0  0
   22.2750  -20.4303  -14.1129 C   0  0  0  0  0  0  0  0  0  0  0  0
   22.7911  -19.3176  -13.9161 O   0  0  0  0  0  0  0  0  0  0  0  0
   24.1919  -19.4694   -8.0679 O   0  0  0  0  0  0  0  0  0  0  0  0
   24.4063  -20.1323   -9.2653 C   0  0  0  0  0  0  0  0  0  0  0  0
   23.3966  -20.8731   -9.8287 C   0  0  0  0  0  0  0  0  0  0  0  0
   23.5886  -21.5386  -11.0164 C   0  0  0  0  0  0  0  0  0  0  0  0
   24.7741  -21.5041  -11.6975 C   0  0  0  0  0  0  0  0  0  0  0  0
   25.0208  -22.1835  -12.9764 C   0  0  0  0  0  0  0  0  0  0  0  0
   24.5865  -21.4037  -14.1715 C   0  0  2  0  0  0  0  0  0  0  0  0
   23.0962  -21.5731  -14.2984 N   0  0  0  0  0  0  0  0  0  0  0  0
   25.1081  -21.9909  -15.4162 C   0  0  0  0  0  0  0  0  0  0  0  0
   24.7384  -23.1916  -15.6942 O   0  0  0  0  0  0  0  0  0  0  0  0
   25.8109  -20.7457  -11.1220 C   0  0  0  0  0  0  0  0  0  0  0  0
   25.6083  -20.0903   -9.9432 C   0  0  0  0  0  0  0  0  0  0  0  0
   30.0328  -18.5221  -21.8798 N   0  0  0  0  0  0  0  0  0  0  0  0
   30.7395  -19.5226  -21.1937 C   0  0  0  0  0  0  0  0  0  0  0  0
   31.9909  -19.6711  -21.4342 N   0  0  0  0  0  0  0  0  0  0  0  0
   30.1371  -20.3907  -20.2352 N   0  0  0  0  0  0  0  0  0  0  0  0
   28.7465  -20.2317  -19.9130 C   0  0  0  0  0  0  0  0  0  0  0  0
   28.3238  -21.3071  -18.8983 C   0  0  0  0  0  0  0  0  0  0  0  0
   26.8897  -21.1197  -18.5368 C   0  0  0  0  0  0  0  0  0  0  0  0
   26.4167  -22.1527  -17.5008 C   0  0  2  0  0  0  0  0  0  0  0  0
   25.9699  -21.3699  -16.3495 N   0  0  0  0  0  0  0  0  0  0  0  0
   27.5167  -23.0416  -17.1050 C   0  0  0  0  0  0  0  0  0  0  0  0
   28.2336  -22.7911  -16.0778 O   0  0  0  0  0  0  0  0  0  0  0  0
   27.8329  -24.1834  -17.8104 O   0  0  0  0  0  0  0  0  0  0  0  0
  2  1  1  0
  3  2  2  0
  4  2  1  0
  5  4  1  0
  6  8  1  0
  6  5  1  0
  6  7  1  1
  8  9  2  0
 10 11  1  0
 11 12  2  0
 11 21  1  0
 12 13  1  0
 13 14  2  0
 14 15  1  0
 16 15  1  1
 17 16  1  0
 17  8  1  0
 18 19  2  0
 18 16  1  0
 20 14  1  0
 21 20  2  0
 22 23  1  0
 23 25  1  0
 24 23  2  0
 25 26  1  0
 26 27  1  0
 28 27  1  0
 29 28  1  6
 29 30  1  0
 30 18  1  0
 31 33  1  0
 31 29  1  0
 32 31  2  0
M  END
$$$$
