QWR.pdb
     RDKit          3D

 35 36  0  0  1  0  0  0  0  0999 V2000
   24.8253  -25.8901  -15.7686 N   0  0  0  0  0  0  0  0  0  0  0  0
   26.1100  -25.8784  -16.3530 C   0  0  0  0  0  0  0  0  0  0  0  0
   26.4891  -26.7177  -17.1881 O   0  0  0  0  0  0  0  0  0  0  0  0
   27.0565  -24.8033  -15.9458 C   0  0  0  0  0  0  0  0  0  0  0  0
   26.3724  -23.8584  -14.9858 C   0  0  0  0  0  0  0  0  0  0  0  0
   25.7706  -22.7238  -15.7939 C   0  0  2  0  0  0  0  0  0  0  0  0
   26.8570  -21.9585  -16.3617 N   0  0  0  0  0  0  0  0  0  0  0  0
   24.9153  -21.8629  -14.9074 C   0  0  0  0  0  0  0  0  0  0  0  0
   25.4448  -21.1869  -13.9754 O   0  0  0  0  0  0  0  0  0  0  0  0
   23.5108  -21.7892  -15.0921 N   0  0  0  0  0  0  0  0  0  0  0  0
   22.6910  -20.8933  -14.2344 C   0  0  1  0  0  0  0  0  0  0  0  0
   23.3499  -19.5961  -14.0983 C   0  0  0  0  0  0  0  0  0  0  0  0
   24.0340  -18.9827  -15.2097 C   0  0  0  0  0  0  0  0  0  0  0  0
   23.5289  -18.6431  -16.4405 C   0  0  0  0  0  0  0  0  0  0  0  0
   24.4997  -18.1181  -17.1947 N   0  0  0  0  0  0  0  0  0  0  0  0
   25.6449  -18.0988  -16.4927 C   0  0  0  0  0  0  0  0  0  0  0  0
   26.9113  -17.6274  -16.8431 C   0  0  0  0  0  0  0  0  0  0  0  0
   27.9479  -17.6854  -15.9373 C   0  0  0  0  0  0  0  0  0  0  0  0
   27.6919  -18.2171  -14.6949 C   0  0  0  0  0  0  0  0  0  0  0  0
   26.4287  -18.6856  -14.3536 C   0  0  0  0  0  0  0  0  0  0  0  0
   25.3881  -18.6278  -15.2608 C   0  0  0  0  0  0  0  0  0  0  0  0
   21.3106  -21.0455  -14.5729 C   0  0  0  0  0  0  0  0  0  0  0  0
   20.6013  -20.0899  -15.0001 O   0  0  0  0  0  0  0  0  0  0  0  0
   19.3249  -25.0059   -8.1652 N   0  0  0  0  0  0  0  0  0  0  0  0
   18.0529  -24.8093   -8.7580 C   0  0  0  0  0  0  0  0  0  0  0  0
   17.0488  -25.5413   -8.3443 N   0  0  0  0  0  0  0  0  0  0  0  0
   17.8901  -23.8365   -9.7777 N   0  0  0  0  0  0  0  0  0  0  0  0
   18.9842  -23.0160  -10.1978 C   0  0  0  0  0  0  0  0  0  0  0  0
   18.6402  -22.0778  -11.3254 C   0  0  0  0  0  0  0  0  0  0  0  0
   19.7982  -21.9811  -12.2627 C   0  0  0  0  0  0  0  0  0  0  0  0
   19.4194  -22.4150  -13.6808 C   0  0  2  0  0  0  0  0  0  0  0  0
   20.6451  -22.3008  -14.4593 N   0  0  0  0  0  0  0  0  0  0  0  0
   18.2759  -21.6834  -14.1907 C   0  0  0  0  0  0  0  0  0  0  0  0
   18.2222  -20.3346  -14.4885 O   0  0  0  0  0  0  0  0  0  0  0  0
   17.1696  -22.2926  -14.4078 O   0  0  0  0  0  0  0  0  0  0  0  0
  2  1  1  0
  2  3  2  0
  4  5  1  0
  4  2  1  0
  5  6  1  0
  6  8  1  0
  6  7  1  1
  8 10  1  0
  8  9  2  0
 10 11  1  0
 11 22  1  0
 11 12  1  6
 13 14  2  0
 13 12  1  0
 15 14  1  0
 16 21  2  0
 16 15  1  0
 17 16  1  0
 18 19  1  0
 18 17  2  0
 19 20  2  0
 20 21  1  0
 21 13  1  0
 22 23  2  0
 22 32  1  0
 24 25  1  0
 25 27  1  0
 26 25  2  0
 27 28  1  0
 28 29  1  0
 31 30  1  1
 30 29  1  0
 31 33  1  0
 32 31  1  0
 33 34  1  0
 35 33  2  0
M  END
$$$$
