QWR.pdb
     RDKit          3D

 35 36  0  0  1  0  0  0  0  0999 V2000
   27.5177  -26.2252  -15.8961 N   0  0  0  0  0  0  0  0  0  0  0  0
   27.5975  -25.2620  -16.9247 C   0  0  0  0  0  0  0  0  0  0  0  0
   27.9950  -25.5200  -18.0740 O   0  0  0  0  0  0  0  0  0  0  0  0
   27.1827  -23.8662  -16.6127 C   0  0  0  0  0  0  0  0  0  0  0  0
   26.6611  -23.7937  -15.1967 C   0  0  0  0  0  0  0  0  0  0  0  0
   25.8751  -22.5038  -15.0522 C   0  0  2  0  0  0  0  0  0  0  0  0
   26.7549  -21.4080  -15.3890 N   0  0  0  0  0  0  0  0  0  0  0  0
   25.3679  -22.3698  -13.6438 C   0  0  0  0  0  0  0  0  0  0  0  0
   24.9869  -23.3958  -13.0051 O   0  0  0  0  0  0  0  0  0  0  0  0
   25.3046  -21.1047  -13.0053 N   0  0  0  0  0  0  0  0  0  0  0  0
   24.7936  -20.9957  -11.6134 C   0  0  1  0  0  0  0  0  0  0  0  0
   25.6154  -20.0552  -10.8547 C   0  0  0  0  0  0  0  0  0  0  0  0
   26.9087  -20.4343  -10.3420 C   0  0  0  0  0  0  0  0  0  0  0  0
   27.9653  -20.9914  -11.0192 C   0  0  0  0  0  0  0  0  0  0  0  0
   28.9748  -21.2136  -10.1714 N   0  0  0  0  0  0  0  0  0  0  0  0
   28.6150  -20.8153   -8.9400 C   0  0  0  0  0  0  0  0  0  0  0  0
   29.3323  -20.8239   -7.7423 C   0  0  0  0  0  0  0  0  0  0  0  0
   28.7617  -20.3321   -6.5887 C   0  0  0  0  0  0  0  0  0  0  0  0
   27.4790  -19.8406   -6.6605 C   0  0  0  0  0  0  0  0  0  0  0  0
   26.7706  -19.8364   -7.8563 C   0  0  0  0  0  0  0  0  0  0  0  0
   27.3417  -20.3290   -9.0140 C   0  0  0  0  0  0  0  0  0  0  0  0
   23.3649  -20.9562  -11.6346 C   0  0  0  0  0  0  0  0  0  0  0  0
   22.7086  -20.4298  -12.5785 O   0  0  0  0  0  0  0  0  0  0  0  0
   18.3192  -24.8451   -5.9537 N   0  0  0  0  0  0  0  0  0  0  0  0
   18.2698  -25.2281   -7.3171 C   0  0  0  0  0  0  0  0  0  0  0  0
   17.9212  -26.4559   -7.6109 N   0  0  0  0  0  0  0  0  0  0  0  0
   18.5958  -24.2881   -8.3284 N   0  0  0  0  0  0  0  0  0  0  0  0
   18.7335  -22.8964   -8.0273 C   0  0  0  0  0  0  0  0  0  0  0  0
   19.1640  -22.0610   -9.2049 C   0  0  0  0  0  0  0  0  0  0  0  0
   20.6427  -22.1710   -9.3786 C   0  0  0  0  0  0  0  0  0  0  0  0
   21.1404  -21.3321  -10.5582 C   0  0  2  0  0  0  0  0  0  0  0  0
   22.5838  -21.5248  -10.5866 N   0  0  0  0  0  0  0  0  0  0  0  0
   20.6875  -19.9566  -10.4823 C   0  0  0  0  0  0  0  0  0  0  0  0
   19.5720  -19.4175  -11.0954 O   0  0  0  0  0  0  0  0  0  0  0  0
   21.3469  -19.1014   -9.7924 O   0  0  0  0  0  0  0  0  0  0  0  0
  2  1  1  0
  2  3  2  0
  4  5  1  0
  4  2  1  0
  5  6  1  0
  6  8  1  0
  6  7  1  1
  8 10  1  0
  8  9  2  0
 10 11  1  0
 11 22  1  0
 11 12  1  6
 13 14  2  0
 13 12  1  0
 15 14  1  0
 16 21  2  0
 16 15  1  0
 17 16  1  0
 18 19  1  0
 18 17  2  0
 19 20  2  0
 20 21  1  0
 21 13  1  0
 22 23  2  0
 22 32  1  0
 24 25  1  0
 25 27  1  0
 26 25  2  0
 27 28  1  0
 28 29  1  0
 31 30  1  1
 30 29  1  0
 31 33  1  0
 32 31  1  0
 33 34  1  0
 35 33  2  0
M  END
$$$$
