QWR.pdb
     RDKit          3D

 35 36  0  0  1  0  0  0  0  0999 V2000
   29.1423  -17.8965  -15.6876 N   0  0  0  0  0  0  0  0  0  0  0  0
   29.0665  -18.4076  -17.0010 C   0  0  0  0  0  0  0  0  0  0  0  0
   29.8370  -18.0639  -17.9141 O   0  0  0  0  0  0  0  0  0  0  0  0
   28.0079  -19.4102  -17.3040 C   0  0  0  0  0  0  0  0  0  0  0  0
   27.2196  -19.7137  -16.0515 C   0  0  0  0  0  0  0  0  0  0  0  0
   27.8275  -20.9426  -15.4013 C   0  0  2  0  0  0  0  0  0  0  0  0
   27.8320  -22.0059  -16.3799 N   0  0  0  0  0  0  0  0  0  0  0  0
   27.0240  -21.3312  -14.1922 C   0  0  0  0  0  0  0  0  0  0  0  0
   25.8799  -21.8578  -14.3317 O   0  0  0  0  0  0  0  0  0  0  0  0
   27.5233  -21.1186  -12.8816 N   0  0  0  0  0  0  0  0  0  0  0  0
   26.6411  -21.3286  -11.7034 C   0  0  1  0  0  0  0  0  0  0  0  0
   27.4420  -21.3538  -10.4813 C   0  0  0  0  0  0  0  0  0  0  0  0
   26.9658  -20.7517   -9.2606 C   0  0  0  0  0  0  0  0  0  0  0  0
   25.6900  -20.3524   -8.9472 C   0  0  0  0  0  0  0  0  0  0  0  0
   25.6752  -19.8187   -7.7216 N   0  0  0  0  0  0  0  0  0  0  0  0
   26.9160  -19.8535   -7.2081 C   0  0  0  0  0  0  0  0  0  0  0  0
   27.3900  -19.4381   -5.9624 C   0  0  0  0  0  0  0  0  0  0  0  0
   28.7191  -19.5996   -5.6372 C   0  0  0  0  0  0  0  0  0  0  0  0
   29.5480  -20.1759   -6.5713 C   0  0  0  0  0  0  0  0  0  0  0  0
   29.0691  -20.5860   -7.8100 C   0  0  0  0  0  0  0  0  0  0  0  0
   27.7364  -20.4250   -8.1374 C   0  0  0  0  0  0  0  0  0  0  0  0
   25.4550  -20.5451  -11.8535 C   0  0  0  0  0  0  0  0  0  0  0  0
   25.4800  -19.3125  -12.1344 O   0  0  0  0  0  0  0  0  0  0  0  0
   21.3254  -22.5185  -16.6615 N   0  0  0  0  0  0  0  0  0  0  0  0
   20.8043  -21.2192  -16.8814 C   0  0  0  0  0  0  0  0  0  0  0  0
   19.6463  -21.1017  -17.4816 N   0  0  0  0  0  0  0  0  0  0  0  0
   21.5365  -20.0815  -16.4544 N   0  0  0  0  0  0  0  0  0  0  0  0
   22.7563  -20.2205  -15.7200 C   0  0  0  0  0  0  0  0  0  0  0  0
   22.5668  -20.7627  -14.3271 C   0  0  0  0  0  0  0  0  0  0  0  0
   23.0701  -19.7684  -13.3337 C   0  0  0  0  0  0  0  0  0  0  0  0
   22.9683  -20.2956  -11.9003 C   0  0  2  0  0  0  0  0  0  0  0  0
   24.1569  -21.1147  -11.7054 N   0  0  0  0  0  0  0  0  0  0  0  0
   21.7001  -20.9512  -11.6462 C   0  0  0  0  0  0  0  0  0  0  0  0
   21.4723  -22.3127  -11.5729 O   0  0  0  0  0  0  0  0  0  0  0  0
   20.6417  -20.2519  -11.4639 O   0  0  0  0  0  0  0  0  0  0  0  0
  2  1  1  0
  2  3  2  0
  4  5  1  0
  4  2  1  0
  5  6  1  0
  6  8  1  0
  6  7  1  6
  8 10  1  0
  8  9  2  0
 10 11  1  0
 11 22  1  0
 11 12  1  1
 13 14  2  0
 13 12  1  0
 15 14  1  0
 16 21  2  0
 16 15  1  0
 17 16  1  0
 18 19  1  0
 18 17  2  0
 19 20  2  0
 20 21  1  0
 21 13  1  0
 22 23  2  0
 22 32  1  0
 24 25  1  0
 25 27  1  0
 26 25  2  0
 27 28  1  0
 28 29  1  0
 31 30  1  6
 30 29  1  0
 31 33  1  0
 32 31  1  0
 33 34  1  0
 35 33  2  0
M  END
$$$$
