QWR.pdb
     RDKit          3D

 35 36  0  0  1  0  0  0  0  0999 V2000
   23.9594  -13.5910  -17.2466 N   0  0  0  0  0  0  0  0  0  0  0  0
   25.1053  -14.3185  -17.6338 C   0  0  0  0  0  0  0  0  0  0  0  0
   26.2283  -14.1447  -17.1298 O   0  0  0  0  0  0  0  0  0  0  0  0
   24.9566  -15.3464  -18.7010 C   0  0  0  0  0  0  0  0  0  0  0  0
   24.6160  -16.6807  -18.0797 C   0  0  0  0  0  0  0  0  0  0  0  0
   25.8645  -17.2147  -17.4024 C   0  0  2  0  0  0  0  0  0  0  0  0
   26.7579  -17.6932  -18.4325 N   0  0  0  0  0  0  0  0  0  0  0  0
   25.4978  -18.3222  -16.4550 C   0  0  0  0  0  0  0  0  0  0  0  0
   24.6677  -19.2121  -16.8083 O   0  0  0  0  0  0  0  0  0  0  0  0
   26.0665  -18.3946  -15.1576 N   0  0  0  0  0  0  0  0  0  0  0  0
   25.6597  -19.4774  -14.2235 C   0  0  1  0  0  0  0  0  0  0  0  0
   26.6510  -19.6132  -13.1584 C   0  0  0  0  0  0  0  0  0  0  0  0
   26.4739  -20.5608  -12.0860 C   0  0  0  0  0  0  0  0  0  0  0  0
   26.4797  -21.9324  -12.1495 C   0  0  0  0  0  0  0  0  0  0  0  0
   26.2553  -22.4389  -10.9329 N   0  0  0  0  0  0  0  0  0  0  0  0
   26.1001  -21.4333  -10.0559 C   0  0  0  0  0  0  0  0  0  0  0  0
   25.8724  -21.4628   -8.6789 C   0  0  0  0  0  0  0  0  0  0  0  0
   25.7728  -20.2873   -7.9672 C   0  0  0  0  0  0  0  0  0  0  0  0
   25.9038  -19.1026   -8.6538 C   0  0  0  0  0  0  0  0  0  0  0  0
   26.1293  -19.0811  -10.0251 C   0  0  0  0  0  0  0  0  0  0  0  0
   26.2297  -20.2593  -10.7400 C   0  0  0  0  0  0  0  0  0  0  0  0
   24.2526  -19.3948  -13.9859 C   0  0  0  0  0  0  0  0  0  0  0  0
   23.6504  -18.2960  -13.8162 O   0  0  0  0  0  0  0  0  0  0  0  0
   23.2105  -26.1077  -15.3003 N   0  0  0  0  0  0  0  0  0  0  0  0
   22.1969  -26.2321  -14.3179 C   0  0  0  0  0  0  0  0  0  0  0  0
   21.9062  -27.4260  -13.8650 N   0  0  0  0  0  0  0  0  0  0  0  0
   21.5213  -25.0765  -13.8479 N   0  0  0  0  0  0  0  0  0  0  0  0
   21.8165  -23.7809  -14.3781 C   0  0  0  0  0  0  0  0  0  0  0  0
   20.9349  -22.6876  -13.8328 C   0  0  0  0  0  0  0  0  0  0  0  0
   21.2787  -21.3947  -14.4955 C   0  0  0  0  0  0  0  0  0  0  0  0
   22.0307  -20.4541  -13.5507 C   0  0  2  0  0  0  0  0  0  0  0  0
   23.4313  -20.5587  -13.9367 N   0  0  0  0  0  0  0  0  0  0  0  0
   21.7370  -20.7272  -12.1571 C   0  0  0  0  0  0  0  0  0  0  0  0
   20.6076  -20.3430  -11.4587 O   0  0  0  0  0  0  0  0  0  0  0  0
   22.5715  -21.3874  -11.4431 O   0  0  0  0  0  0  0  0  0  0  0  0
  2  1  1  0
  2  3  2  0
  4  5  1  0
  4  2  1  0
  5  6  1  0
  6  8  1  0
  6  7  1  6
  8 10  1  0
  8  9  2  0
 10 11  1  0
 11 22  1  0
 11 12  1  1
 13 14  2  0
 13 12  1  0
 15 14  1  0
 16 21  2  0
 16 15  1  0
 17 16  1  0
 18 19  1  0
 18 17  2  0
 19 20  2  0
 20 21  1  0
 21 13  1  0
 22 23  2  0
 22 32  1  0
 24 25  1  0
 25 27  1  0
 26 25  2  0
 27 28  1  0
 28 29  1  0
 31 30  1  6
 30 29  1  0
 31 33  1  0
 32 31  1  0
 33 34  1  0
 35 33  2  0
M  END
$$$$
