QWR.pdb
     RDKit          3D

 35 36  0  0  1  0  0  0  0  0999 V2000
   28.3055  -17.1451  -16.0699 N   0  0  0  0  0  0  0  0  0  0  0  0
   28.1102  -18.0971  -17.0934 C   0  0  0  0  0  0  0  0  0  0  0  0
   27.5862  -17.8269  -18.1879 O   0  0  0  0  0  0  0  0  0  0  0  0
   28.5567  -19.4960  -16.8452 C   0  0  0  0  0  0  0  0  0  0  0  0
   27.6142  -20.1673  -15.8739 C   0  0  0  0  0  0  0  0  0  0  0  0
   28.4493  -20.9157  -14.8518 C   0  0  2  0  0  0  0  0  0  0  0  0
   28.9548  -22.1133  -15.4830 N   0  0  0  0  0  0  0  0  0  0  0  0
   27.6070  -21.2562  -13.6546 C   0  0  0  0  0  0  0  0  0  0  0  0
   26.5153  -21.8823  -13.8028 O   0  0  0  0  0  0  0  0  0  0  0  0
   28.0111  -20.8875  -12.3458 N   0  0  0  0  0  0  0  0  0  0  0  0
   27.1015  -21.1141  -11.1919 C   0  0  1  0  0  0  0  0  0  0  0  0
   27.8551  -21.0359   -9.9423 C   0  0  0  0  0  0  0  0  0  0  0  0
   27.1992  -20.7641   -8.6872 C   0  0  0  0  0  0  0  0  0  0  0  0
   25.8612  -20.8426   -8.3890 C   0  0  0  0  0  0  0  0  0  0  0  0
   25.6633  -20.4843   -7.1164 N   0  0  0  0  0  0  0  0  0  0  0  0
   26.8427  -20.1682   -6.5565 C   0  0  0  0  0  0  0  0  0  0  0  0
   27.1451  -19.7631   -5.2552 C   0  0  0  0  0  0  0  0  0  0  0  0
   28.4509  -19.5158   -4.8917 C   0  0  0  0  0  0  0  0  0  0  0  0
   29.4294  -19.6802   -5.8443 C   0  0  0  0  0  0  0  0  0  0  0  0
   29.1206  -20.0826   -7.1383 C   0  0  0  0  0  0  0  0  0  0  0  0
   27.8116  -20.3313   -7.5041 C   0  0  0  0  0  0  0  0  0  0  0  0
   25.8705  -20.4227  -11.4155 C   0  0  0  0  0  0  0  0  0  0  0  0
   25.8013  -19.1644  -11.5189 O   0  0  0  0  0  0  0  0  0  0  0  0
   22.5873  -25.9003  -13.4170 N   0  0  0  0  0  0  0  0  0  0  0  0
   22.5194  -25.2091  -14.6522 C   0  0  0  0  0  0  0  0  0  0  0  0
   21.9826  -25.8159  -15.6812 N   0  0  0  0  0  0  0  0  0  0  0  0
   23.0286  -23.8889  -14.7533 N   0  0  0  0  0  0  0  0  0  0  0  0
   23.4548  -23.1701  -13.5920 C   0  0  0  0  0  0  0  0  0  0  0  0
   22.3859  -22.2902  -12.9976 C   0  0  0  0  0  0  0  0  0  0  0  0
   22.8219  -20.8639  -13.0644 C   0  0  0  0  0  0  0  0  0  0  0  0
   23.3909  -20.3803  -11.7283 C   0  0  2  0  0  0  0  0  0  0  0  0
   24.6337  -21.1184  -11.5487 N   0  0  0  0  0  0  0  0  0  0  0  0
   22.4279  -20.4918  -10.6499 C   0  0  0  0  0  0  0  0  0  0  0  0
   21.3394  -19.6702  -10.4242 O   0  0  0  0  0  0  0  0  0  0  0  0
   22.5429  -21.4271   -9.7814 O   0  0  0  0  0  0  0  0  0  0  0  0
  2  1  1  0
  2  3  2  0
  4  5  1  0
  4  2  1  0
  5  6  1  0
  6  8  1  0
  6  7  1  6
  8 10  1  0
  8  9  2  0
 10 11  1  0
 11 22  1  0
 11 12  1  1
 13 14  2  0
 13 12  1  0
 15 14  1  0
 16 21  2  0
 16 15  1  0
 17 16  1  0
 18 19  1  0
 18 17  2  0
 19 20  2  0
 20 21  1  0
 21 13  1  0
 22 23  2  0
 22 32  1  0
 24 25  1  0
 25 27  1  0
 26 25  2  0
 27 28  1  0
 28 29  1  0
 31 30  1  6
 30 29  1  0
 31 33  1  0
 32 31  1  0
 33 34  1  0
 35 33  2  0
M  END
$$$$
