QWR.pdb
     RDKit          3D

 35 36  0  0  1  0  0  0  0  0999 V2000
   30.9919  -24.3710  -15.3214 N   0  0  0  0  0  0  0  0  0  0  0  0
   31.0603  -23.9214  -16.6576 C   0  0  0  0  0  0  0  0  0  0  0  0
   32.0173  -24.1646  -17.4129 O   0  0  0  0  0  0  0  0  0  0  0  0
   29.9252  -23.1149  -17.1857 C   0  0  0  0  0  0  0  0  0  0  0  0
   28.9454  -22.8241  -16.0731 C   0  0  0  0  0  0  0  0  0  0  0  0
   27.7340  -22.1424  -16.6817 C   0  0  2  0  0  0  0  0  0  0  0  0
   28.2005  -21.2552  -17.7227 N   0  0  0  0  0  0  0  0  0  0  0  0
   26.9906  -21.3796  -15.6215 C   0  0  0  0  0  0  0  0  0  0  0  0
   26.5351  -21.9840  -14.6051 O   0  0  0  0  0  0  0  0  0  0  0  0
   26.7841  -19.9808  -15.7342 N   0  0  0  0  0  0  0  0  0  0  0  0
   26.0661  -19.2432  -14.6614 C   0  0  1  0  0  0  0  0  0  0  0  0
   26.6990  -17.9444  -14.4423 C   0  0  0  0  0  0  0  0  0  0  0  0
   26.8321  -16.9857  -15.5111 C   0  0  0  0  0  0  0  0  0  0  0  0
   25.9439  -16.0142  -15.9017 C   0  0  0  0  0  0  0  0  0  0  0  0
   26.4374  -15.3510  -16.9522 N   0  0  0  0  0  0  0  0  0  0  0  0
   27.6392  -15.8589  -17.2722 C   0  0  0  0  0  0  0  0  0  0  0  0
   28.5410  -15.4854  -18.2703 C   0  0  0  0  0  0  0  0  0  0  0  0
   29.7458  -16.1416  -18.3971 C   0  0  0  0  0  0  0  0  0  0  0  0
   30.0219  -17.1623  -17.5175 C   0  0  0  0  0  0  0  0  0  0  0  0
   29.1186  -17.5293  -16.5269 C   0  0  0  0  0  0  0  0  0  0  0  0
   27.9101  -16.8720  -16.3984 C   0  0  0  0  0  0  0  0  0  0  0  0
   24.6571  -19.4162  -14.8284 C   0  0  0  0  0  0  0  0  0  0  0  0
   24.1274  -19.6783  -15.9463 O   0  0  0  0  0  0  0  0  0  0  0  0
   25.2517  -22.4157  -11.7604 N   0  0  0  0  0  0  0  0  0  0  0  0
   25.3907  -21.3160  -10.8775 C   0  0  0  0  0  0  0  0  0  0  0  0
   26.5934  -20.9716  -10.4900 N   0  0  0  0  0  0  0  0  0  0  0  0
   24.2399  -20.6160  -10.4324 N   0  0  0  0  0  0  0  0  0  0  0  0
   22.9253  -21.1281  -10.6702 C   0  0  0  0  0  0  0  0  0  0  0  0
   22.5864  -21.2733  -12.1311 C   0  0  0  0  0  0  0  0  0  0  0  0
   21.8174  -20.0766  -12.5845 C   0  0  0  0  0  0  0  0  0  0  0  0
   22.3296  -19.5467  -13.9260 C   0  0  2  0  0  0  0  0  0  0  0  0
   23.7541  -19.3143  -13.7303 N   0  0  0  0  0  0  0  0  0  0  0  0
   21.5621  -18.4093  -14.3951 C   0  0  0  0  0  0  0  0  0  0  0  0
   21.1529  -18.1654  -15.6928 O   0  0  0  0  0  0  0  0  0  0  0  0
   21.1952  -17.4992  -13.5709 O   0  0  0  0  0  0  0  0  0  0  0  0
  2  1  1  0
  2  3  2  0
  4  5  1  0
  4  2  1  0
  5  6  1  0
  6  8  1  0
  6  7  1  6
  8 10  1  0
  8  9  2  0
 10 11  1  0
 11 22  1  0
 11 12  1  6
 13 14  2  0
 13 12  1  0
 15 14  1  0
 16 21  2  0
 16 15  1  0
 17 16  1  0
 18 19  1  0
 18 17  2  0
 19 20  2  0
 20 21  1  0
 21 13  1  0
 22 23  2  0
 22 32  1  0
 24 25  1  0
 25 27  1  0
 26 25  2  0
 27 28  1  0
 28 29  1  0
 31 30  1  1
 30 29  1  0
 31 33  1  0
 32 31  1  0
 33 34  1  0
 35 33  2  0
M  END
$$$$
