QWR.pdb
     RDKit          3D

 35 36  0  0  1  0  0  0  0  0999 V2000
   26.5178  -17.1305  -15.4958 N   0  0  0  0  0  0  0  0  0  0  0  0
   27.7902  -17.6136  -15.8696 C   0  0  0  0  0  0  0  0  0  0  0  0
   28.5595  -16.9986  -16.6282 O   0  0  0  0  0  0  0  0  0  0  0  0
   28.2299  -18.9279  -15.3246 C   0  0  0  0  0  0  0  0  0  0  0  0
   27.1854  -19.4596  -14.3713 C   0  0  0  0  0  0  0  0  0  0  0  0
   27.9030  -20.1677  -13.2372 C   0  0  2  0  0  0  0  0  0  0  0  0
   28.6864  -21.2393  -13.8083 N   0  0  0  0  0  0  0  0  0  0  0  0
   26.9007  -20.7026  -12.2535 C   0  0  0  0  0  0  0  0  0  0  0  0
   26.3537  -21.8284  -12.4519 O   0  0  0  0  0  0  0  0  0  0  0  0
   26.5480  -19.9665  -11.0934 N   0  0  0  0  0  0  0  0  0  0  0  0
   25.4927  -20.4756  -10.1783 C   0  0  1  0  0  0  0  0  0  0  0  0
   25.8690  -20.2128   -8.7909 C   0  0  0  0  0  0  0  0  0  0  0  0
   27.1901  -20.5202   -8.3015 C   0  0  0  0  0  0  0  0  0  0  0  0
   28.1889  -21.2254   -8.9264 C   0  0  0  0  0  0  0  0  0  0  0  0
   29.2525  -21.3066   -8.1206 N   0  0  0  0  0  0  0  0  0  0  0  0
   28.9857  -20.6689   -6.9688 C   0  0  0  0  0  0  0  0  0  0  0  0
   29.7854  -20.4655   -5.8428 C   0  0  0  0  0  0  0  0  0  0  0  0
   29.3039  -19.7455   -4.7713 C   0  0  0  0  0  0  0  0  0  0  0  0
   28.0261  -19.2430   -4.8517 C   0  0  0  0  0  0  0  0  0  0  0  0
   27.2353  -19.4507   -5.9757 C   0  0  0  0  0  0  0  0  0  0  0  0
   27.7169  -20.1723   -7.0511 C   0  0  0  0  0  0  0  0  0  0  0  0
   24.2063  -20.1659  -10.7191 C   0  0  0  0  0  0  0  0  0  0  0  0
   23.8759  -18.9979  -11.0733 O   0  0  0  0  0  0  0  0  0  0  0  0
   22.1071  -26.6971  -13.8097 N   0  0  0  0  0  0  0  0  0  0  0  0
   20.9301  -26.0015  -14.1823 C   0  0  0  0  0  0  0  0  0  0  0  0
   19.8208  -26.6817  -14.3313 N   0  0  0  0  0  0  0  0  0  0  0  0
   20.9720  -24.5983  -14.3865 N   0  0  0  0  0  0  0  0  0  0  0  0
   21.9539  -23.7858  -13.7365 C   0  0  0  0  0  0  0  0  0  0  0  0
   21.4076  -22.9759  -12.5896 C   0  0  0  0  0  0  0  0  0  0  0  0
   21.7850  -21.5426  -12.7687 C   0  0  0  0  0  0  0  0  0  0  0  0
   21.8983  -20.8128  -11.4280 C   0  0  2  0  0  0  0  0  0  0  0  0
   23.2104  -21.1684  -10.9051 N   0  0  0  0  0  0  0  0  0  0  0  0
   20.7735  -21.0909  -10.5560 C   0  0  0  0  0  0  0  0  0  0  0  0
   20.7754  -21.9003   -9.4354 O   0  0  0  0  0  0  0  0  0  0  0  0
   19.6305  -20.5633  -10.7954 O   0  0  0  0  0  0  0  0  0  0  0  0
  2  1  1  0
  2  3  2  0
  4  5  1  0
  4  2  1  0
  5  6  1  0
  6  8  1  0
  6  7  1  6
  8 10  1  0
  8  9  2  0
 10 11  1  0
 11 22  1  0
 11 12  1  1
 13 14  2  0
 13 12  1  0
 15 14  1  0
 16 21  2  0
 16 15  1  0
 17 16  1  0
 18 19  1  0
 18 17  2  0
 19 20  2  0
 20 21  1  0
 21 13  1  0
 22 23  2  0
 22 32  1  0
 24 25  1  0
 25 27  1  0
 26 25  2  0
 27 28  1  0
 28 29  1  0
 31 30  1  6
 30 29  1  0
 31 33  1  0
 32 31  1  0
 33 34  1  0
 35 33  2  0
M  END
$$$$
