IPV.pdb
     RDKit          3D

 23 23  0  0  1  0  0  0  0  0999 V2000
   15.1044  -19.7994   21.3352 C   0  0  0  0  0  0  0  0  0  0  0  0
   13.9209  -19.0768   20.7633 C   0  0  0  0  0  0  0  0  0  0  0  0
   13.1923  -18.3018   21.7945 C   0  0  2  0  0  0  0  0  0  0  0  0
   12.7473  -19.2921   22.8987 C   0  0  0  0  0  0  0  0  0  0  0  0
   11.9620  -17.5529   21.3169 C   0  0  2  0  0  0  0  0  0  0  0  0
   12.5571  -16.4659   20.4745 N   0  0  0  0  0  0  0  0  0  0  0  0
   11.2561  -16.8213   22.3830 C   0  0  0  0  0  0  0  0  0  0  0  0
   11.8299  -15.8201   22.9323 O   0  0  0  0  0  0  0  0  0  0  0  0
    9.9756  -17.1471   22.8448 N   0  0  0  0  0  0  0  0  0  0  0  0
    9.1510  -18.2449   22.4108 C   0  0  0  0  0  0  0  0  0  0  0  0
    7.7168  -17.7709   22.6033 C   0  0  0  0  0  0  0  0  0  0  0  0
    7.8436  -16.9972   23.8957 C   0  0  0  0  0  0  0  0  0  0  0  0
    9.2167  -16.4193   23.8605 C   0  0  1  0  0  0  0  0  0  0  0  0
    9.9088  -16.4380   25.1661 C   0  0  0  0  0  0  0  0  0  0  0  0
   10.7186  -17.3646   25.4248 O   0  0  0  0  0  0  0  0  0  0  0  0
   10.7392  -14.1223   29.5125 C   0  0  0  0  0  0  0  0  0  0  0  0
    9.9722  -14.2926   28.2412 C   0  0  1  0  0  0  0  0  0  0  0  0
   10.2938  -13.1007   27.3488 C   0  0  0  0  0  0  0  0  0  0  0  0
   10.3328  -15.5280   27.4771 C   0  0  2  0  0  0  0  0  0  0  0  0
    9.7147  -15.4587   26.1661 N   0  0  0  0  0  0  0  0  0  0  0  0
    9.9615  -16.7817   28.1784 C   0  0  0  0  0  0  0  0  0  0  0  0
    8.6919  -17.3295   27.9748 O   0  0  0  0  0  0  0  0  0  0  0  0
   10.7271  -17.3860   28.9516 O   0  0  0  0  0  0  0  0  0  0  0  0
  2  1  1  0
  3  2  1  0
  3  4  1  1
  5  6  1  6
  5  7  1  0
  5  3  1  0
  7  9  1  0
  8  7  2  0
  9 10  1  0
  9 13  1  0
 10 11  1  0
 12 11  1  0
 13 12  1  0
 14 20  1  0
 13 14  1  1
 15 14  2  0
 17 16  1  1
 18 17  1  0
 19 17  1  0
 19 20  1  6
 21 19  1  0
 21 22  1  0
 23 21  2  0
M  END
$$$$
