IPV.pdb
     RDKit          3D

 23 23  0  0  1  0  0  0  0  0999 V2000
    7.3823  -10.9563   27.1355 C   0  0  0  0  0  0  0  0  0  0  0  0
    6.7109  -12.2721   26.8753 C   0  0  0  0  0  0  0  0  0  0  0  0
    6.3782  -12.4518   25.4428 C   0  0  2  0  0  0  0  0  0  0  0  0
    5.2451  -11.4552   25.0956 C   0  0  0  0  0  0  0  0  0  0  0  0
    5.9188  -13.8398   25.0364 C   0  0  2  0  0  0  0  0  0  0  0  0
    5.1409  -14.2830   26.2381 N   0  0  0  0  0  0  0  0  0  0  0  0
    7.0085  -14.8266   24.9426 C   0  0  0  0  0  0  0  0  0  0  0  0
    7.1743  -15.6595   25.8976 O   0  0  0  0  0  0  0  0  0  0  0  0
    7.8907  -14.9228   23.8602 N   0  0  0  0  0  0  0  0  0  0  0  0
    7.9110  -14.0946   22.6824 C   0  0  0  0  0  0  0  0  0  0  0  0
    8.4644  -14.9826   21.5762 C   0  0  0  0  0  0  0  0  0  0  0  0
    9.5165  -15.7595   22.3342 C   0  0  0  0  0  0  0  0  0  0  0  0
    8.9663  -15.9018   23.7117 C   0  0  1  0  0  0  0  0  0  0  0  0
    9.9777  -15.7566   24.7794 C   0  0  0  0  0  0  0  0  0  0  0  0
   11.0374  -15.1211   24.5466 O   0  0  0  0  0  0  0  0  0  0  0  0
   11.1981  -14.9968   29.3177 C   0  0  0  0  0  0  0  0  0  0  0  0
   10.3043  -15.1699   28.1324 C   0  0  1  0  0  0  0  0  0  0  0  0
   10.1954  -13.8179   27.4392 C   0  0  0  0  0  0  0  0  0  0  0  0
   10.8209  -16.1455   27.1217 C   0  0  2  0  0  0  0  0  0  0  0  0
    9.8270  -16.2986   26.0756 N   0  0  0  0  0  0  0  0  0  0  0  0
   11.1884  -17.4585   27.7071 C   0  0  0  0  0  0  0  0  0  0  0  0
   12.4976  -17.6684   28.1490 O   0  0  0  0  0  0  0  0  0  0  0  0
   10.3857  -18.4017   27.8304 O   0  0  0  0  0  0  0  0  0  0  0  0
  2  1  1  0
  3  2  1  0
  3  4  1  1
  5  6  1  1
  5  7  1  0
  5  3  1  0
  7  9  1  0
  8  7  2  0
  9 10  1  0
  9 13  1  0
 10 11  1  0
 12 11  1  0
 13 12  1  0
 14 20  1  0
 13 14  1  1
 15 14  2  0
 17 16  1  1
 18 17  1  0
 19 17  1  0
 19 20  1  6
 21 19  1  0
 21 22  1  0
 23 21  2  0
M  END
$$$$
