IPV.pdb
     RDKit          3D

 23 23  0  0  1  0  0  0  0  0999 V2000
    5.9259  -11.4916   27.1890 C   0  0  0  0  0  0  0  0  0  0  0  0
    5.6068  -12.5824   26.2103 C   0  0  0  0  0  0  0  0  0  0  0  0
    6.7599  -13.4864   25.9913 C   0  0  2  0  0  0  0  0  0  0  0  0
    7.9213  -12.6360   25.4206 C   0  0  0  0  0  0  0  0  0  0  0  0
    6.5231  -14.6476   25.0434 C   0  0  2  0  0  0  0  0  0  0  0  0
    5.4255  -15.4017   25.7305 N   0  0  0  0  0  0  0  0  0  0  0  0
    7.6332  -15.6147   24.9938 C   0  0  0  0  0  0  0  0  0  0  0  0
    7.7329  -16.4916   25.9182 O   0  0  0  0  0  0  0  0  0  0  0  0
    8.6038  -15.6463   23.9858 N   0  0  0  0  0  0  0  0  0  0  0  0
    8.5922  -14.9102   22.7482 C   0  0  0  0  0  0  0  0  0  0  0  0
    9.3614  -15.7753   21.7590 C   0  0  0  0  0  0  0  0  0  0  0  0
   10.4552  -16.3209   22.6482 C   0  0  0  0  0  0  0  0  0  0  0  0
    9.8243  -16.4510   23.9920 C   0  0  1  0  0  0  0  0  0  0  0  0
   10.7128  -16.0730   25.1108 C   0  0  0  0  0  0  0  0  0  0  0  0
   11.4386  -15.0515   25.0077 O   0  0  0  0  0  0  0  0  0  0  0  0
   10.6331  -14.0708   26.7531 C   0  0  0  0  0  0  0  0  0  0  0  0
   10.8668  -15.0044   27.8965 C   0  0  1  0  0  0  0  0  0  0  0  0
    9.5110  -15.3194   28.5154 C   0  0  0  0  0  0  0  0  0  0  0  0
   11.4851  -16.3078   27.4976 C   0  0  2  0  0  0  0  0  0  0  0  0
   10.8013  -16.8029   26.3175 N   0  0  0  0  0  0  0  0  0  0  0  0
   11.4775  -17.3183   28.5841 C   0  0  0  0  0  0  0  0  0  0  0  0
   10.6838  -18.4609   28.4505 O   0  0  0  0  0  0  0  0  0  0  0  0
   12.1480  -17.2072   29.6268 O   0  0  0  0  0  0  0  0  0  0  0  0
  2  1  1  0
  3  2  1  0
  3  4  1  6
  5  6  1  1
  5  7  1  0
  5  3  1  0
  7  9  1  0
  8  7  2  0
  9 10  1  0
  9 13  1  0
 10 11  1  0
 12 11  1  0
 13 12  1  0
 14 20  1  0
 13 14  1  1
 15 14  2  0
 17 16  1  6
 18 17  1  0
 19 17  1  0
 19 20  1  6
 21 19  1  0
 21 22  1  0
 23 21  2  0
M  END
$$$$
