IPV.pdb
     RDKit          3D

 23 23  0  0  1  0  0  0  0  0999 V2000
   11.1216  -20.9943   23.4747 C   0  0  0  0  0  0  0  0  0  0  0  0
   11.0984  -20.0495   22.3099 C   0  0  0  0  0  0  0  0  0  0  0  0
   10.6142  -18.7038   22.6964 C   0  0  2  0  0  0  0  0  0  0  0  0
    9.1957  -18.8693   23.2951 C   0  0  0  0  0  0  0  0  0  0  0  0
   10.5316  -17.6810   21.5784 C   0  0  2  0  0  0  0  0  0  0  0  0
   11.9755  -17.4456   21.2540 N   0  0  0  0  0  0  0  0  0  0  0  0
   10.0513  -16.3579   22.0129 C   0  0  0  0  0  0  0  0  0  0  0  0
   10.8117  -15.6297   22.7372 O   0  0  0  0  0  0  0  0  0  0  0  0
    8.7992  -15.8281   21.6801 N   0  0  0  0  0  0  0  0  0  0  0  0
    7.8652  -16.3507   20.7168 C   0  0  0  0  0  0  0  0  0  0  0  0
    7.1005  -15.1394   20.2004 C   0  0  0  0  0  0  0  0  0  0  0  0
    6.9607  -14.3290   21.4687 C   0  0  0  0  0  0  0  0  0  0  0  0
    8.1979  -14.6217   22.2461 C   0  0  1  0  0  0  0  0  0  0  0  0
    7.9732  -14.7632   23.6999 C   0  0  0  0  0  0  0  0  0  0  0  0
    7.9322  -15.9110   24.2116 O   0  0  0  0  0  0  0  0  0  0  0  0
    6.5315  -12.4038   27.8658 C   0  0  0  0  0  0  0  0  0  0  0  0
    6.8666  -12.4452   26.4100 C   0  0  1  0  0  0  0  0  0  0  0  0
    8.0434  -11.5047   26.1837 C   0  0  0  0  0  0  0  0  0  0  0  0
    7.2808  -13.7982   25.9220 C   0  0  2  0  0  0  0  0  0  0  0  0
    7.7973  -13.6658   24.5725 N   0  0  0  0  0  0  0  0  0  0  0  0
    6.1908  -14.8031   25.9818 C   0  0  0  0  0  0  0  0  0  0  0  0
    6.2311  -15.7991   26.9614 O   0  0  0  0  0  0  0  0  0  0  0  0
    5.2248  -14.8125   25.1970 O   0  0  0  0  0  0  0  0  0  0  0  0
  2  1  1  0
  3  2  1  0
  3  4  1  6
  5  6  1  1
  5  7  1  0
  5  3  1  0
  7  9  1  0
  8  7  2  0
  9 10  1  0
  9 13  1  0
 10 11  1  0
 12 11  1  0
 13 12  1  0
 14 20  1  0
 13 14  1  1
 15 14  2  0
 17 16  1  1
 18 17  1  0
 19 17  1  0
 19 20  1  6
 21 19  1  0
 21 22  1  0
 23 21  2  0
M  END
$$$$
