IPV.pdb
     RDKit          3D

 23 23  0  0  1  0  0  0  0  0999 V2000
    5.5483  -11.0418   26.8505 C   0  0  0  0  0  0  0  0  0  0  0  0
    5.2344  -12.2923   26.0840 C   0  0  0  0  0  0  0  0  0  0  0  0
    6.4197  -13.1699   25.9443 C   0  0  2  0  0  0  0  0  0  0  0  0
    7.5316  -12.3494   25.2455 C   0  0  0  0  0  0  0  0  0  0  0  0
    6.2120  -14.4454   25.1487 C   0  0  2  0  0  0  0  0  0  0  0  0
    5.2927  -15.2286   26.0358 N   0  0  0  0  0  0  0  0  0  0  0  0
    7.4128  -15.2934   25.0546 C   0  0  0  0  0  0  0  0  0  0  0  0
    7.6587  -16.1259   25.9925 O   0  0  0  0  0  0  0  0  0  0  0  0
    8.3200  -15.2559   23.9893 N   0  0  0  0  0  0  0  0  0  0  0  0
    8.2804  -14.3793   22.8476 C   0  0  0  0  0  0  0  0  0  0  0  0
    8.9390  -15.1602   21.7184 C   0  0  0  0  0  0  0  0  0  0  0  0
   10.0483  -15.8628   22.4672 C   0  0  0  0  0  0  0  0  0  0  0  0
    9.4894  -16.1178   23.8249 C   0  0  1  0  0  0  0  0  0  0  0  0
   10.4617  -15.9210   24.9203 C   0  0  0  0  0  0  0  0  0  0  0  0
   11.3813  -15.0737   24.7877 O   0  0  0  0  0  0  0  0  0  0  0  0
   11.0520  -13.9841   26.6038 C   0  0  0  0  0  0  0  0  0  0  0  0
   11.1469  -14.9864   27.7084 C   0  0  1  0  0  0  0  0  0  0  0  0
    9.8336  -14.9448   28.4790 C   0  0  0  0  0  0  0  0  0  0  0  0
   11.3382  -16.3933   27.2348 C   0  0  2  0  0  0  0  0  0  0  0  0
   10.4235  -16.6405   26.1358 N   0  0  0  0  0  0  0  0  0  0  0  0
   11.1691  -17.4027   28.3092 C   0  0  0  0  0  0  0  0  0  0  0  0
   10.1352  -18.3382   28.2129 O   0  0  0  0  0  0  0  0  0  0  0  0
   11.9067  -17.4673   29.3097 O   0  0  0  0  0  0  0  0  0  0  0  0
  2  1  1  0
  3  2  1  0
  3  4  1  6
  5  6  1  1
  5  7  1  0
  5  3  1  0
  7  9  1  0
  8  7  2  0
  9 10  1  0
  9 13  1  0
 10 11  1  0
 12 11  1  0
 13 12  1  0
 14 20  1  0
 13 14  1  1
 15 14  2  0
 17 16  1  6
 18 17  1  0
 19 17  1  0
 19 20  1  6
 21 19  1  0
 21 22  1  0
 23 21  2  0
M  END
$$$$
