IPV.pdb
     RDKit          3D

 23 23  0  0  1  0  0  0  0  0999 V2000
    7.5398  -11.2854   27.3334 C   0  0  0  0  0  0  0  0  0  0  0  0
    6.9030  -12.5987   26.9876 C   0  0  0  0  0  0  0  0  0  0  0  0
    6.4967  -12.6607   25.5643 C   0  0  2  0  0  0  0  0  0  0  0  0
    5.3462  -11.6447   25.3598 C   0  0  0  0  0  0  0  0  0  0  0  0
    6.0181  -14.0127   25.0683 C   0  0  2  0  0  0  0  0  0  0  0  0
    5.3153  -14.5635   26.2717 N   0  0  0  0  0  0  0  0  0  0  0  0
    7.1033  -14.9787   24.8253 C   0  0  0  0  0  0  0  0  0  0  0  0
    7.2540  -15.9577   25.6329 O   0  0  0  0  0  0  0  0  0  0  0  0
    7.9968  -14.9032   23.7505 N   0  0  0  0  0  0  0  0  0  0  0  0
    7.9698  -13.9565   22.6658 C   0  0  0  0  0  0  0  0  0  0  0  0
    8.5877  -14.6857   21.4805 C   0  0  0  0  0  0  0  0  0  0  0  0
    9.6840  -15.4676   22.1672 C   0  0  0  0  0  0  0  0  0  0  0  0
    9.1357  -15.7891   23.5150 C   0  0  1  0  0  0  0  0  0  0  0  0
   10.1285  -15.6911   24.6053 C   0  0  0  0  0  0  0  0  0  0  0  0
   11.2713  -15.2260   24.3627 O   0  0  0  0  0  0  0  0  0  0  0  0
   11.1183  -14.7862   29.2213 C   0  0  0  0  0  0  0  0  0  0  0  0
   10.2831  -14.9439   27.9920 C   0  0  1  0  0  0  0  0  0  0  0  0
   10.2440  -13.5934   27.2882 C   0  0  0  0  0  0  0  0  0  0  0  0
   10.8269  -15.9375   27.0136 C   0  0  2  0  0  0  0  0  0  0  0  0
    9.8702  -16.0960   25.9342 N   0  0  0  0  0  0  0  0  0  0  0  0
   11.1609  -17.2456   27.6293 C   0  0  0  0  0  0  0  0  0  0  0  0
   12.3569  -17.3823   28.3394 O   0  0  0  0  0  0  0  0  0  0  0  0
   10.4261  -18.2470   27.5496 O   0  0  0  0  0  0  0  0  0  0  0  0
  2  1  1  0
  3  2  1  0
  3  4  1  1
  5  6  1  1
  5  7  1  0
  5  3  1  0
  7  9  1  0
  8  7  2  0
  9 10  1  0
  9 13  1  0
 10 11  1  0
 12 11  1  0
 13 12  1  0
 14 20  1  0
 13 14  1  1
 15 14  2  0
 17 16  1  1
 18 17  1  0
 19 17  1  0
 19 20  1  6
 21 19  1  0
 21 22  1  0
 23 21  2  0
M  END
$$$$
