IPV.pdb
     RDKit          3D

 23 23  0  0  1  0  0  0  0  0999 V2000
    5.7834  -11.0921   26.7994 C   0  0  0  0  0  0  0  0  0  0  0  0
    5.3966  -12.2393   25.9139 C   0  0  0  0  0  0  0  0  0  0  0  0
    6.5062  -13.2054   25.7406 C   0  0  2  0  0  0  0  0  0  0  0  0
    7.7055  -12.4385   25.1312 C   0  0  0  0  0  0  0  0  0  0  0  0
    6.2151  -14.3989   24.8497 C   0  0  2  0  0  0  0  0  0  0  0  0
    5.1694  -15.1336   25.6322 N   0  0  0  0  0  0  0  0  0  0  0  0
    7.3254  -15.3628   24.7599 C   0  0  0  0  0  0  0  0  0  0  0  0
    7.4275  -16.2752   25.6490 O   0  0  0  0  0  0  0  0  0  0  0  0
    8.2938  -15.3544   23.7493 N   0  0  0  0  0  0  0  0  0  0  0  0
    8.3026  -14.5365   22.5642 C   0  0  0  0  0  0  0  0  0  0  0  0
    9.0454  -15.3548   21.5167 C   0  0  0  0  0  0  0  0  0  0  0  0
   10.1236  -15.9907   22.3640 C   0  0  0  0  0  0  0  0  0  0  0  0
    9.4903  -16.1928   23.6977 C   0  0  1  0  0  0  0  0  0  0  0  0
   10.3904  -15.9172   24.8370 C   0  0  0  0  0  0  0  0  0  0  0  0
   11.2168  -14.9727   24.7592 O   0  0  0  0  0  0  0  0  0  0  0  0
   10.6492  -14.5314   29.1110 C   0  0  0  0  0  0  0  0  0  0  0  0
   10.2108  -15.0203   27.7685 C   0  0  1  0  0  0  0  0  0  0  0  0
   10.4225  -13.8846   26.7756 C   0  0  0  0  0  0  0  0  0  0  0  0
   10.9894  -16.1967   27.2683 C   0  0  2  0  0  0  0  0  0  0  0  0
   10.3819  -16.6643   26.0363 N   0  0  0  0  0  0  0  0  0  0  0  0
   11.0985  -17.2938   28.2613 C   0  0  0  0  0  0  0  0  0  0  0  0
   12.2147  -17.3487   29.1007 O   0  0  0  0  0  0  0  0  0  0  0  0
   10.2397  -18.1848   28.3940 O   0  0  0  0  0  0  0  0  0  0  0  0
  2  1  1  0
  3  2  1  0
  3  4  1  6
  5  6  1  1
  5  7  1  0
  5  3  1  0
  7  9  1  0
  8  7  2  0
  9 10  1  0
  9 13  1  0
 10 11  1  0
 12 11  1  0
 13 12  1  0
 14 20  1  0
 13 14  1  1
 15 14  2  0
 17 16  1  1
 18 17  1  0
 19 17  1  0
 19 20  1  6
 21 19  1  0
 21 22  1  0
 23 21  2  0
M  END
$$$$
