IPV.pdb
     RDKit          3D

 23 23  0  0  1  0  0  0  0  0999 V2000
    6.4990  -19.5369   23.2578 C   0  0  0  0  0  0  0  0  0  0  0  0
    7.7469  -18.9087   22.7120 C   0  0  0  0  0  0  0  0  0  0  0  0
    7.6005  -18.5307   21.2870 C   0  0  2  0  0  0  0  0  0  0  0  0
    7.5995  -19.8353   20.4529 C   0  0  0  0  0  0  0  0  0  0  0  0
    8.6779  -17.6205   20.7271 C   0  0  2  0  0  0  0  0  0  0  0  0
    9.9283  -18.3988   21.0029 N   0  0  0  0  0  0  0  0  0  0  0  0
    8.8658  -16.3756   21.4920 C   0  0  0  0  0  0  0  0  0  0  0  0
    9.7058  -16.3608   22.4550 O   0  0  0  0  0  0  0  0  0  0  0  0
    8.1804  -15.1830   21.2331 N   0  0  0  0  0  0  0  0  0  0  0  0
    7.3291  -14.8995   20.1069 C   0  0  0  0  0  0  0  0  0  0  0  0
    7.4428  -13.3973   19.8852 C   0  0  0  0  0  0  0  0  0  0  0  0
    7.4989  -12.9023   21.3124 C   0  0  0  0  0  0  0  0  0  0  0  0
    8.2072  -13.9785   22.0613 C   0  0  1  0  0  0  0  0  0  0  0  0
    7.6529  -14.2376   23.4065 C   0  0  0  0  0  0  0  0  0  0  0  0
    6.7897  -15.1393   23.5578 O   0  0  0  0  0  0  0  0  0  0  0  0
    7.7137  -13.4409   28.3001 C   0  0  0  0  0  0  0  0  0  0  0  0
    8.3223  -13.4048   26.9356 C   0  0  1  0  0  0  0  0  0  0  0  0
    9.3384  -14.5369   26.8568 C   0  0  0  0  0  0  0  0  0  0  0  0
    7.3382  -13.6151   25.8277 C   0  0  2  0  0  0  0  0  0  0  0  0
    8.0396  -13.5203   24.5609 N   0  0  0  0  0  0  0  0  0  0  0  0
    6.1904  -12.6760   25.8755 C   0  0  0  0  0  0  0  0  0  0  0  0
    5.0576  -13.0171   26.6197 O   0  0  0  0  0  0  0  0  0  0  0  0
    6.1757  -11.5823   25.2815 O   0  0  0  0  0  0  0  0  0  0  0  0
  2  1  1  0
  3  2  1  0
  3  4  1  6
  5  6  1  1
  5  7  1  0
  5  3  1  0
  7  9  1  0
  8  7  2  0
  9 10  1  0
  9 13  1  0
 10 11  1  0
 12 11  1  0
 13 12  1  0
 14 20  1  0
 13 14  1  1
 15 14  2  0
 17 16  1  1
 18 17  1  0
 19 17  1  0
 19 20  1  6
 21 19  1  0
 21 22  1  0
 23 21  2  0
M  END
$$$$
