DLC.pdb
     RDKit          3D

 23 22  0  0  1  0  0  0  0  0999 V2000
   21.0078  -13.7586  -16.4414 N   0  0  0  0  0  0  0  0  0  0  0  0
   21.0702  -12.6018  -17.2807 C   0  0  1  0  0  0  0  0  0  0  0  0
   19.7523  -12.3475  -17.9264 C   0  0  0  0  0  0  0  0  0  0  0  0
   19.4483  -13.4405  -18.8750 C   0  0  0  0  0  0  0  0  0  0  0  0
   20.2715  -14.3764  -19.0084 O   0  0  0  0  0  0  0  0  0  0  0  0
   21.4900  -11.3807  -16.5166 C   0  0  0  0  0  0  0  0  0  0  0  0
   20.9228  -11.0775  -15.4355 O   0  0  0  0  0  0  0  0  0  0  0  0
   18.2713  -13.4241  -19.6010 O   0  0  0  0  0  0  0  0  0  0  0  0
   26.7323  -10.2140  -16.1556 C   0  0  0  0  0  0  0  0  0  0  0  0
   25.2601  -10.3220  -15.7778 C   0  0  1  0  0  0  0  0  0  0  0  0
   25.2441  -10.0387  -14.2587 C   0  0  0  0  0  0  0  0  0  0  0  0
   24.4253   -9.2766  -16.3991 C   0  0  0  0  0  0  0  0  0  0  0  0
   22.9494   -9.3402  -16.1915 C   0  0  2  0  0  0  0  0  0  0  0  0
   22.5231  -10.5322  -16.9700 N   0  0  0  0  0  0  0  0  0  0  0  0
   22.1827   -8.2119  -16.7238 C   0  0  0  0  0  0  0  0  0  0  0  0
   22.2634   -7.8866  -17.9375 O   0  0  0  0  0  0  0  0  0  0  0  0
   21.3230   -7.4413  -15.9159 N   0  0  0  0  0  0  0  0  0  0  0  0
   20.5755   -6.3168  -16.4418 C   0  0  1  0  0  0  0  0  0  0  0  0
   19.1039   -6.6395  -16.5856 C   0  0  0  0  0  0  0  0  0  0  0  0
   18.4325   -5.6525  -17.9499 S   0  0  0  0  0  0  0  0  0  0  0  0
   20.6941   -5.1551  -15.5253 C   0  0  0  0  0  0  0  0  0  0  0  0
   20.5474   -3.8652  -15.9898 O   0  0  0  0  0  0  0  0  0  0  0  0
   20.9318   -5.3486  -14.3078 O   0  0  0  0  0  0  0  0  0  0  0  0
  2  1  1  1
  3  2  1  0
  3  4  1  0
  4  5  2  0
  4  8  1  0
  6  2  1  0
  7  6  2  0
 10  9  1  6
 10 12  1  0
 11 10  1  0
 13 12  1  6
 13 14  1  0
 14  6  1  0
 15 13  1  0
 15 17  1  0
 16 15  2  0
 18 17  1  0
 18 21  1  0
 18 19  1  1
 20 19  1  0
 21 22  1  0
 23 21  2  0
M  END
$$$$
