DLC.pdb
     RDKit          3D

 23 22  0  0  1  0  0  0  0  0999 V2000
   22.7482  -13.1708  -19.3247 N   0  0  0  0  0  0  0  0  0  0  0  0
   22.9384  -11.8088  -19.7189 C   0  0  1  0  0  0  0  0  0  0  0  0
   21.8732  -11.3812  -20.6680 C   0  0  0  0  0  0  0  0  0  0  0  0
   22.0259  -12.1133  -21.9437 C   0  0  0  0  0  0  0  0  0  0  0  0
   23.1379  -12.6187  -22.2256 O   0  0  0  0  0  0  0  0  0  0  0  0
   22.9491  -10.8831  -18.5382 C   0  0  0  0  0  0  0  0  0  0  0  0
   22.0524  -10.9590  -17.6592 O   0  0  0  0  0  0  0  0  0  0  0  0
   20.9535  -12.2349  -22.8086 O   0  0  0  0  0  0  0  0  0  0  0  0
   27.3515   -9.8375  -15.6327 C   0  0  0  0  0  0  0  0  0  0  0  0
   25.9104  -10.0512  -16.0795 C   0  0  1  0  0  0  0  0  0  0  0  0
   25.1275  -10.1940  -14.7549 C   0  0  0  0  0  0  0  0  0  0  0  0
   25.3391   -8.8796  -16.7698 C   0  0  0  0  0  0  0  0  0  0  0  0
   23.9192   -8.9533  -17.2215 C   0  0  2  0  0  0  0  0  0  0  0  0
   23.9495   -9.9023  -18.3647 N   0  0  0  0  0  0  0  0  0  0  0  0
   23.3515   -7.7080  -17.7421 C   0  0  0  0  0  0  0  0  0  0  0  0
   23.8476   -7.1396  -18.7503 O   0  0  0  0  0  0  0  0  0  0  0  0
   22.2325   -7.0886  -17.1508 N   0  0  0  0  0  0  0  0  0  0  0  0
   21.6970   -5.8354  -17.6431 C   0  0  1  0  0  0  0  0  0  0  0  0
   20.3968   -6.0363  -18.3912 C   0  0  0  0  0  0  0  0  0  0  0  0
   19.7345   -4.4080  -18.8346 S   0  0  0  0  0  0  0  0  0  0  0  0
   21.4260   -4.9182  -16.5079 C   0  0  0  0  0  0  0  0  0  0  0  0
   21.5317   -3.5515  -16.6571 O   0  0  0  0  0  0  0  0  0  0  0  0
   21.0953   -5.3929  -15.3936 O   0  0  0  0  0  0  0  0  0  0  0  0
  2  1  1  1
  3  2  1  0
  3  4  1  0
  4  5  2  0
  4  8  1  0
  6  2  1  0
  7  6  2  0
 10  9  1  1
 10 12  1  0
 11 10  1  0
 13 12  1  6
 13 14  1  0
 14  6  1  0
 15 13  1  0
 15 17  1  0
 16 15  2  0
 18 17  1  0
 18 21  1  0
 18 19  1  1
 20 19  1  0
 21 22  1  0
 23 21  2  0
M  END
$$$$
