DLC.pdb
     RDKit          3D

 23 22  0  0  1  0  0  0  0  0999 V2000
   21.9718  -13.1228  -18.5885 N   0  0  0  0  0  0  0  0  0  0  0  0
   22.0953  -11.7084  -18.7645 C   0  0  1  0  0  0  0  0  0  0  0  0
   20.8232  -11.1282  -19.2779 C   0  0  0  0  0  0  0  0  0  0  0  0
   20.6369  -11.5204  -20.6914 C   0  0  0  0  0  0  0  0  0  0  0  0
   21.6458  -11.7801  -21.3886 O   0  0  0  0  0  0  0  0  0  0  0  0
   22.4729  -11.0185  -17.4867 C   0  0  0  0  0  0  0  0  0  0  0  0
   21.9954  -11.4029  -16.3882 O   0  0  0  0  0  0  0  0  0  0  0  0
   19.3654  -11.5977  -21.2300 O   0  0  0  0  0  0  0  0  0  0  0  0
   27.4890   -9.9509  -16.3562 C   0  0  0  0  0  0  0  0  0  0  0  0
   26.0110  -10.2340  -16.1168 C   0  0  1  0  0  0  0  0  0  0  0  0
   25.9483  -10.6525  -14.6305 C   0  0  0  0  0  0  0  0  0  0  0  0
   25.1644   -9.0326  -16.2411 C   0  0  0  0  0  0  0  0  0  0  0  0
   23.6836   -9.2088  -16.1990 C   0  0  2  0  0  0  0  0  0  0  0  0
   23.3662   -9.9257  -17.4615 N   0  0  0  0  0  0  0  0  0  0  0  0
   22.8950   -7.9753  -16.2229 C   0  0  0  0  0  0  0  0  0  0  0  0
   22.9034   -7.2183  -17.2291 O   0  0  0  0  0  0  0  0  0  0  0  0
   22.0932   -7.5762  -15.1351 N   0  0  0  0  0  0  0  0  0  0  0  0
   21.3269   -6.3465  -15.1543 C   0  0  1  0  0  0  0  0  0  0  0  0
   20.0508   -6.4681  -14.3498 C   0  0  0  0  0  0  0  0  0  0  0  0
   19.0507   -7.8020  -15.0617 S   0  0  0  0  0  0  0  0  0  0  0  0
   22.1255   -5.2414  -14.5673 C   0  0  0  0  0  0  0  0  0  0  0  0
   21.6522   -3.9463  -14.5633 O   0  0  0  0  0  0  0  0  0  0  0  0
   23.2498   -5.4884  -14.0661 O   0  0  0  0  0  0  0  0  0  0  0  0
  2  1  1  1
  3  2  1  0
  3  4  1  0
  4  5  2  0
  4  8  1  0
  6  2  1  0
  7  6  2  0
 10  9  1  1
 10 12  1  0
 11 10  1  0
 13 12  1  6
 13 14  1  0
 14  6  1  0
 15 13  1  0
 15 17  1  0
 16 15  2  0
 18 17  1  0
 18 21  1  0
 18 19  1  1
 20 19  1  0
 21 22  1  0
 23 21  2  0
M  END
$$$$
