DLC.pdb
     RDKit          3D

 23 22  0  0  1  0  0  0  0  0999 V2000
   20.4460  -13.2766  -16.3328 N   0  0  0  0  0  0  0  0  0  0  0  0
   20.4974  -11.9815  -16.9384 C   0  0  1  0  0  0  0  0  0  0  0  0
   19.1243  -11.4512  -17.1658 C   0  0  0  0  0  0  0  0  0  0  0  0
   18.3841  -12.3657  -18.0615 C   0  0  0  0  0  0  0  0  0  0  0  0
   18.8256  -12.5760  -19.2157 O   0  0  0  0  0  0  0  0  0  0  0  0
   21.2720  -11.0056  -16.1024 C   0  0  0  0  0  0  0  0  0  0  0  0
   21.0768  -10.9315  -14.8619 O   0  0  0  0  0  0  0  0  0  0  0  0
   17.2224  -12.9767  -17.6259 O   0  0  0  0  0  0  0  0  0  0  0  0
   26.5419  -10.7126  -16.4579 C   0  0  0  0  0  0  0  0  0  0  0  0
   25.1544  -10.5899  -15.8400 C   0  0  1  0  0  0  0  0  0  0  0  0
   25.4343  -10.3960  -14.3326 C   0  0  0  0  0  0  0  0  0  0  0  0
   24.4293   -9.3837  -16.2814 C   0  0  0  0  0  0  0  0  0  0  0  0
   23.0223   -9.2013  -15.8202 C   0  0  2  0  0  0  0  0  0  0  0  0
   22.2382  -10.1418  -16.6622 N   0  0  0  0  0  0  0  0  0  0  0  0
   22.4451   -7.8748  -16.0472 C   0  0  0  0  0  0  0  0  0  0  0  0
   22.2293   -7.4513  -17.2132 O   0  0  0  0  0  0  0  0  0  0  0  0
   22.1028   -7.0137  -14.9857 N   0  0  0  0  0  0  0  0  0  0  0  0
   21.4955   -5.7176  -15.2113 C   0  0  1  0  0  0  0  0  0  0  0  0
   20.1386   -5.6110  -14.5497 C   0  0  0  0  0  0  0  0  0  0  0  0
   19.5140   -3.9267  -14.7935 S   0  0  0  0  0  0  0  0  0  0  0  0
   22.3567   -4.6483  -14.6470 C   0  0  0  0  0  0  0  0  0  0  0  0
   22.6761   -3.5286  -15.3857 O   0  0  0  0  0  0  0  0  0  0  0  0
   22.8021   -4.7639  -13.4789 O   0  0  0  0  0  0  0  0  0  0  0  0
  2  1  1  1
  3  2  1  0
  3  4  1  0
  4  5  2  0
  4  8  1  0
  6  2  1  0
  7  6  2  0
 10  9  1  6
 10 12  1  0
 11 10  1  0
 13 12  1  6
 13 14  1  0
 14  6  1  0
 15 13  1  0
 15 17  1  0
 16 15  2  0
 18 17  1  0
 18 21  1  0
 18 19  1  1
 20 19  1  0
 21 22  1  0
 23 21  2  0
M  END
$$$$
