DLC.pdb
     RDKit          3D

 23 22  0  0  1  0  0  0  0  0999 V2000
   20.8143  -12.5259  -17.8096 N   0  0  0  0  0  0  0  0  0  0  0  0
   21.2998  -11.2655  -18.2810 C   0  0  1  0  0  0  0  0  0  0  0  0
   20.2222  -10.5151  -18.9837 C   0  0  0  0  0  0  0  0  0  0  0  0
   19.8430  -11.2358  -20.2181 C   0  0  0  0  0  0  0  0  0  0  0  0
   18.8114  -10.8822  -20.8362 O   0  0  0  0  0  0  0  0  0  0  0  0
   21.8406  -10.4231  -17.1633 C   0  0  0  0  0  0  0  0  0  0  0  0
   21.2397  -10.3643  -16.0597 O   0  0  0  0  0  0  0  0  0  0  0  0
   20.6197  -12.2835  -20.6782 O   0  0  0  0  0  0  0  0  0  0  0  0
   27.1444  -10.1945  -16.1844 C   0  0  0  0  0  0  0  0  0  0  0  0
   25.6300  -10.2049  -16.0147 C   0  0  1  0  0  0  0  0  0  0  0  0
   25.4267  -10.4610  -14.5044 C   0  0  0  0  0  0  0  0  0  0  0  0
   25.0075   -8.8978  -16.2969 C   0  0  0  0  0  0  0  0  0  0  0  0
   23.5220   -8.7929  -16.2071 C   0  0  2  0  0  0  0  0  0  0  0  0
   23.0282   -9.6720  -17.2989 N   0  0  0  0  0  0  0  0  0  0  0  0
   22.9608   -7.4660  -16.4687 C   0  0  0  0  0  0  0  0  0  0  0  0
   23.0520   -6.9349  -17.6067 O   0  0  0  0  0  0  0  0  0  0  0  0
   22.2953   -6.7233  -15.4731 N   0  0  0  0  0  0  0  0  0  0  0  0
   21.7743   -5.3945  -15.7235 C   0  0  1  0  0  0  0  0  0  0  0  0
   20.2754   -5.3329  -15.5239 C   0  0  0  0  0  0  0  0  0  0  0  0
   19.4969   -6.5002  -16.6718 S   0  0  0  0  0  0  0  0  0  0  0  0
   22.3933   -4.4220  -14.7884 C   0  0  0  0  0  0  0  0  0  0  0  0
   22.1506   -3.0697  -14.9054 O   0  0  0  0  0  0  0  0  0  0  0  0
   23.1501   -4.8357  -13.8760 O   0  0  0  0  0  0  0  0  0  0  0  0
  2  1  1  1
  3  2  1  0
  3  4  1  0
  4  5  2  0
  4  8  1  0
  6  2  1  0
  7  6  2  0
 10  9  1  1
 10 12  1  0
 11 10  1  0
 13 12  1  6
 13 14  1  0
 14  6  1  0
 15 13  1  0
 15 17  1  0
 16 15  2  0
 18 17  1  0
 18 21  1  0
 18 19  1  1
 20 19  1  0
 21 22  1  0
 23 21  2  0
M  END
$$$$
