DLC.pdb
     RDKit          3D

 23 22  0  0  1  0  0  0  0  0999 V2000
   21.6589  -13.2249  -19.4956 N   0  0  0  0  0  0  0  0  0  0  0  0
   20.8069  -12.9385  -18.3826 C   0  0  1  0  0  0  0  0  0  0  0  0
   20.3235  -14.1978  -17.7513 C   0  0  0  0  0  0  0  0  0  0  0  0
   19.6535  -15.0349  -18.7697 C   0  0  0  0  0  0  0  0  0  0  0  0
   20.1868  -16.1154  -19.1155 O   0  0  0  0  0  0  0  0  0  0  0  0
   21.5026  -12.1027  -17.3487 C   0  0  0  0  0  0  0  0  0  0  0  0
   20.9402  -11.8425  -16.2540 O   0  0  0  0  0  0  0  0  0  0  0  0
   18.4563  -14.6259  -19.3284 O   0  0  0  0  0  0  0  0  0  0  0  0
   25.8876  -10.1865  -14.5996 C   0  0  0  0  0  0  0  0  0  0  0  0
   25.8078   -9.9056  -16.0952 C   0  0  1  0  0  0  0  0  0  0  0  0
   27.2257  -10.2379  -16.6123 C   0  0  0  0  0  0  0  0  0  0  0  0
   24.8883  -10.8138  -16.8060 C   0  0  0  0  0  0  0  0  0  0  0  0
   23.4226  -10.6425  -16.5871 C   0  0  2  0  0  0  0  0  0  0  0  0
   22.7976  -11.5803  -17.5558 N   0  0  0  0  0  0  0  0  0  0  0  0
   22.8832   -9.3173  -16.8987 C   0  0  0  0  0  0  0  0  0  0  0  0
   23.0077   -8.8193  -18.0485 O   0  0  0  0  0  0  0  0  0  0  0  0
   22.2029   -8.5398  -15.9406 N   0  0  0  0  0  0  0  0  0  0  0  0
   21.6938   -7.2173  -16.2434 C   0  0  1  0  0  0  0  0  0  0  0  0
   20.2110   -7.2425  -16.5450 C   0  0  0  0  0  0  0  0  0  0  0  0
   19.6219   -5.5320  -16.6617 S   0  0  0  0  0  0  0  0  0  0  0  0
   21.9019   -6.3153  -15.0830 C   0  0  0  0  0  0  0  0  0  0  0  0
   22.3013   -5.0076  -15.2615 O   0  0  0  0  0  0  0  0  0  0  0  0
   21.7116   -6.7484  -13.9200 O   0  0  0  0  0  0  0  0  0  0  0  0
  2  1  1  6
  3  2  1  0
  3  4  1  0
  4  5  2  0
  4  8  1  0
  6  2  1  0
  7  6  2  0
 10  9  1  1
 10 12  1  0
 11 10  1  0
 13 12  1  6
 13 14  1  0
 14  6  1  0
 15 13  1  0
 15 17  1  0
 16 15  2  0
 18 17  1  0
 18 21  1  0
 18 19  1  1
 20 19  1  0
 21 22  1  0
 23 21  2  0
M  END
$$$$
