TCL.pdb
     RDKit          3D

 22 21  0  0  1  0  0  0  0  0999 V2000
    8.4921  -12.5552   20.1565 C   0  0  0  0  0  0  0  0  0  0  0  0
    8.1031  -13.3107   18.9288 C   0  0  1  0  0  0  0  0  0  0  0  0
    8.6428  -12.7305   17.7621 O   0  0  0  0  0  0  0  0  0  0  0  0
    8.5037  -14.7495   18.9270 C   0  0  2  0  0  0  0  0  0  0  0  0
    8.1251  -15.4507   17.7404 N   0  0  0  0  0  0  0  0  0  0  0  0
    7.9632  -15.4097   20.1629 C   0  0  0  0  0  0  0  0  0  0  0  0
    6.7551  -15.7428   20.2539 O   0  0  0  0  0  0  0  0  0  0  0  0
    8.7926  -15.6917   21.2947 N   0  0  0  0  0  0  0  0  0  0  0  0
    8.2753  -16.2202   22.5252 C   0  0  1  0  0  0  0  0  0  0  0  0
    8.4137  -17.7155   22.6366 C   0  0  0  0  0  0  0  0  0  0  0  0
   10.1573  -18.2012   22.5300 S   0  0  0  0  0  0  0  0  0  0  0  0
    8.8160  -15.5169   23.7176 C   0  0  0  0  0  0  0  0  0  0  0  0
   10.0275  -15.1499   23.7252 O   0  0  0  0  0  0  0  0  0  0  0  0
    5.6767  -12.0217   26.6127 C   0  0  0  0  0  0  0  0  0  0  0  0
    6.8507  -12.7018   26.0125 C   0  0  1  0  0  0  0  0  0  0  0  0
    7.8353  -11.6080   25.5596 C   0  0  0  0  0  0  0  0  0  0  0  0
    7.5162  -13.7935   26.7093 C   0  0  0  0  0  0  0  0  0  0  0  0
    8.5863  -14.5686   26.0655 C   0  0  2  0  0  0  0  0  0  0  0  0
    8.0433  -15.2352   24.8489 N   0  0  0  0  0  0  0  0  0  0  0  0
    9.1112  -15.6534   26.8577 C   0  0  0  0  0  0  0  0  0  0  0  0
   10.0138  -15.4565   27.8701 O   0  0  0  0  0  0  0  0  0  0  0  0
    8.7642  -16.8373   26.6440 O   0  0  0  0  0  0  0  0  0  0  0  0
  2  1  1  1
  2  3  1  0
  2  4  1  0
  4  5  1  6
  6  4  1  0
  7  6  2  0
  8  6  1  0
  9  8  1  0
  9 12  1  0
  9 10  1  1
 11 10  1  0
 12 19  1  0
 13 12  2  0
 15 14  1  1
 16 15  1  0
 17 15  1  0
 18 17  1  1
 18 20  1  0
 19 18  1  0
 20 21  1  0
 22 20  2  0
M  END
$$$$
