TCL.pdb
     RDKit          3D

 22 21  0  0  1  0  0  0  0  0999 V2000
    9.7061  -14.7605   18.3940 C   0  0  0  0  0  0  0  0  0  0  0  0
    9.0817  -14.8597   19.7467 C   0  0  1  0  0  0  0  0  0  0  0  0
    9.1713  -13.6445   20.4568 O   0  0  0  0  0  0  0  0  0  0  0  0
    7.6425  -15.2587   19.7432 C   0  0  2  0  0  0  0  0  0  0  0  0
    6.7942  -14.3464   19.0425 N   0  0  0  0  0  0  0  0  0  0  0  0
    7.1891  -15.4680   21.1596 C   0  0  0  0  0  0  0  0  0  0  0  0
    6.4557  -14.6319   21.7440 O   0  0  0  0  0  0  0  0  0  0  0  0
    7.5676  -16.6250   21.9123 N   0  0  0  0  0  0  0  0  0  0  0  0
    7.1245  -16.8561   23.2582 C   0  0  1  0  0  0  0  0  0  0  0  0
    6.8615  -18.3081   23.5580 C   0  0  0  0  0  0  0  0  0  0  0  0
    6.5896  -18.5503   25.3343 S   0  0  0  0  0  0  0  0  0  0  0  0
    8.0181  -16.2284   24.2663 C   0  0  0  0  0  0  0  0  0  0  0  0
    9.2728  -16.3289   24.1315 O   0  0  0  0  0  0  0  0  0  0  0  0
    5.9258  -12.0696   27.5006 C   0  0  0  0  0  0  0  0  0  0  0  0
    6.8196  -12.8884   26.6454 C   0  0  1  0  0  0  0  0  0  0  0  0
    7.6676  -11.9179   25.8028 C   0  0  0  0  0  0  0  0  0  0  0  0
    7.6138  -13.9673   27.2159 C   0  0  0  0  0  0  0  0  0  0  0  0
    8.4234  -14.8503   26.3641 C   0  0  2  0  0  0  0  0  0  0  0  0
    7.5367  -15.5216   25.3730 N   0  0  0  0  0  0  0  0  0  0  0  0
    9.0668  -15.9395   27.0568 C   0  0  0  0  0  0  0  0  0  0  0  0
   10.3337  -15.8400   27.5700 O   0  0  0  0  0  0  0  0  0  0  0  0
    8.4880  -17.0387   27.2125 O   0  0  0  0  0  0  0  0  0  0  0  0
  2  1  1  6
  2  3  1  0
  2  4  1  0
  4  5  1  1
  6  4  1  0
  7  6  2  0
  8  6  1  0
  9  8  1  0
  9 12  1  0
  9 10  1  1
 11 10  1  0
 12 19  1  0
 13 12  2  0
 15 14  1  1
 16 15  1  0
 17 15  1  0
 18 17  1  1
 18 20  1  0
 19 18  1  0
 20 21  1  0
 22 20  2  0
M  END
$$$$
