TCL.pdb
     RDKit          3D

 22 21  0  0  1  0  0  0  0  0999 V2000
   11.9219  -14.3822   17.7581 C   0  0  0  0  0  0  0  0  0  0  0  0
   11.0016  -14.5164   18.9261 C   0  0  1  0  0  0  0  0  0  0  0  0
   10.9927  -13.3535   19.7240 O   0  0  0  0  0  0  0  0  0  0  0  0
    9.5816  -14.8145   18.5721 C   0  0  2  0  0  0  0  0  0  0  0  0
    8.9653  -13.8063   17.7678 N   0  0  0  0  0  0  0  0  0  0  0  0
    8.8072  -15.0747   19.8324 C   0  0  0  0  0  0  0  0  0  0  0  0
    7.8674  -14.3225   20.1921 O   0  0  0  0  0  0  0  0  0  0  0  0
    9.0991  -16.1875   20.6838 N   0  0  0  0  0  0  0  0  0  0  0  0
    8.3020  -16.5187   21.8310 C   0  0  1  0  0  0  0  0  0  0  0  0
    8.2561  -17.9961   22.1185 C   0  0  0  0  0  0  0  0  0  0  0  0
    9.8989  -18.6025   22.5889 S   0  0  0  0  0  0  0  0  0  0  0  0
    8.6759  -15.7255   23.0309 C   0  0  0  0  0  0  0  0  0  0  0  0
    9.8878  -15.4077   23.2119 O   0  0  0  0  0  0  0  0  0  0  0  0
    7.9247  -11.8448   27.0063 C   0  0  0  0  0  0  0  0  0  0  0  0
    6.9578  -12.9605   26.8614 C   0  0  1  0  0  0  0  0  0  0  0  0
    5.5691  -12.4203   27.2496 C   0  0  0  0  0  0  0  0  0  0  0  0
    6.9215  -13.7621   25.6463 C   0  0  0  0  0  0  0  0  0  0  0  0
    8.1060  -14.4999   25.1844 C   0  0  2  0  0  0  0  0  0  0  0  0
    7.7434  -15.3056   23.9850 N   0  0  0  0  0  0  0  0  0  0  0  0
    8.6196  -15.4704   26.1195 C   0  0  0  0  0  0  0  0  0  0  0  0
    8.0321  -16.6942   26.3080 O   0  0  0  0  0  0  0  0  0  0  0  0
    9.6333  -15.2270   26.8129 O   0  0  0  0  0  0  0  0  0  0  0  0
  2  1  1  6
  2  3  1  0
  2  4  1  0
  4  5  1  1
  6  4  1  0
  7  6  2  0
  8  6  1  0
  9  8  1  0
  9 12  1  0
  9 10  1  1
 11 10  1  0
 12 19  1  0
 13 12  2  0
 15 14  1  6
 16 15  1  0
 17 15  1  0
 18 17  1  1
 18 20  1  0
 19 18  1  0
 20 21  1  0
 22 20  2  0
M  END
$$$$
