TCL.pdb
     RDKit          3D

 22 21  0  0  1  0  0  0  0  0999 V2000
    8.6888  -12.6071   19.8231 C   0  0  0  0  0  0  0  0  0  0  0  0
    8.2823  -13.4443   18.6556 C   0  0  1  0  0  0  0  0  0  0  0  0
    8.9526  -13.0604   17.4755 O   0  0  0  0  0  0  0  0  0  0  0  0
    8.5077  -14.9105   18.8290 C   0  0  2  0  0  0  0  0  0  0  0  0
    8.1647  -15.6854   17.6779 N   0  0  0  0  0  0  0  0  0  0  0  0
    7.7759  -15.3766   20.0548 C   0  0  0  0  0  0  0  0  0  0  0  0
    6.5205  -15.3904   20.1039 O   0  0  0  0  0  0  0  0  0  0  0  0
    8.4679  -15.8265   21.2241 N   0  0  0  0  0  0  0  0  0  0  0  0
    7.7887  -16.2205   22.4260 C   0  0  1  0  0  0  0  0  0  0  0  0
    7.5978  -17.7096   22.5418 C   0  0  0  0  0  0  0  0  0  0  0  0
    9.1738  -18.5245   22.9158 S   0  0  0  0  0  0  0  0  0  0  0  0
    8.4076  -15.6382   23.6453 C   0  0  0  0  0  0  0  0  0  0  0  0
    9.6406  -15.3518   23.6391 O   0  0  0  0  0  0  0  0  0  0  0  0
    5.6716  -12.0888   26.8675 C   0  0  0  0  0  0  0  0  0  0  0  0
    6.7759  -12.8215   26.2009 C   0  0  1  0  0  0  0  0  0  0  0  0
    7.8703  -11.7940   25.8584 C   0  0  0  0  0  0  0  0  0  0  0  0
    7.3210  -14.0393   26.7841 C   0  0  0  0  0  0  0  0  0  0  0  0
    8.3083  -14.8544   26.0620 C   0  0  2  0  0  0  0  0  0  0  0  0
    7.6867  -15.3865   24.8171 N   0  0  0  0  0  0  0  0  0  0  0  0
    8.7541  -16.0321   26.7651 C   0  0  0  0  0  0  0  0  0  0  0  0
    9.6593  -15.9779   27.7928 O   0  0  0  0  0  0  0  0  0  0  0  0
    8.3319  -17.1693   26.4548 O   0  0  0  0  0  0  0  0  0  0  0  0
  2  1  1  1
  2  3  1  0
  2  4  1  0
  4  5  1  6
  6  4  1  0
  7  6  2  0
  8  6  1  0
  9  8  1  0
  9 12  1  0
  9 10  1  1
 11 10  1  0
 12 19  1  0
 13 12  2  0
 15 14  1  1
 16 15  1  0
 17 15  1  0
 18 17  1  1
 18 20  1  0
 19 18  1  0
 20 21  1  0
 22 20  2  0
M  END
$$$$
