TCL.pdb
     RDKit          3D

 22 21  0  0  1  0  0  0  0  0999 V2000
    9.1291  -12.5083   18.2972 C   0  0  0  0  0  0  0  0  0  0  0  0
    8.8035  -13.2718   19.5383 C   0  0  1  0  0  0  0  0  0  0  0  0
    7.9722  -12.5335   20.4061 O   0  0  0  0  0  0  0  0  0  0  0  0
    8.1346  -14.5868   19.3061 C   0  0  2  0  0  0  0  0  0  0  0  0
    6.9315  -14.4929   18.5400 N   0  0  0  0  0  0  0  0  0  0  0  0
    7.9037  -15.2590   20.6291 C   0  0  0  0  0  0  0  0  0  0  0  0
    6.7772  -15.2432   21.1853 O   0  0  0  0  0  0  0  0  0  0  0  0
    8.9501  -15.9485   21.3204 N   0  0  0  0  0  0  0  0  0  0  0  0
    8.7384  -16.6398   22.5608 C   0  0  1  0  0  0  0  0  0  0  0  0
    9.4082  -17.9873   22.6140 C   0  0  0  0  0  0  0  0  0  0  0  0
    9.3479  -18.6602   24.2967 S   0  0  0  0  0  0  0  0  0  0  0  0
    9.0707  -15.8016   23.7423 C   0  0  0  0  0  0  0  0  0  0  0  0
   10.2404  -15.3324   23.8612 O   0  0  0  0  0  0  0  0  0  0  0  0
    7.6956  -11.8822   25.2395 C   0  0  0  0  0  0  0  0  0  0  0  0
    7.2161  -12.6200   26.4339 C   0  0  1  0  0  0  0  0  0  0  0  0
    5.7976  -12.1119   26.7509 C   0  0  0  0  0  0  0  0  0  0  0  0
    7.3139  -14.0712   26.5023 C   0  0  0  0  0  0  0  0  0  0  0  0
    8.4994  -14.7797   25.9993 C   0  0  2  0  0  0  0  0  0  0  0  0
    8.1432  -15.4999   24.7448 N   0  0  0  0  0  0  0  0  0  0  0  0
    9.0032  -15.8139   26.8691 C   0  0  0  0  0  0  0  0  0  0  0  0
    8.3759  -17.0236   27.0153 O   0  0  0  0  0  0  0  0  0  0  0  0
   10.0452  -15.6424   27.5419 O   0  0  0  0  0  0  0  0  0  0  0  0
  2  1  1  6
  2  3  1  0
  2  4  1  0
  4  5  1  1
  6  4  1  0
  7  6  2  0
  8  6  1  0
  9  8  1  0
  9 12  1  0
  9 10  1  6
 11 10  1  0
 12 19  1  0
 13 12  2  0
 15 14  1  6
 16 15  1  0
 17 15  1  0
 18 17  1  1
 18 20  1  0
 19 18  1  0
 20 21  1  0
 22 20  2  0
M  END
$$$$
