TCL.pdb
     RDKit          3D

 22 21  0  0  1  0  0  0  0  0999 V2000
    8.6564  -11.8497   18.6538 C   0  0  0  0  0  0  0  0  0  0  0  0
    8.3390  -13.0566   19.4736 C   0  0  1  0  0  0  0  0  0  0  0  0
    6.9839  -13.4295   19.3561 O   0  0  0  0  0  0  0  0  0  0  0  0
    9.1545  -14.2649   19.1490 C   0  0  2  0  0  0  0  0  0  0  0  0
    8.9796  -14.7346   17.8105 N   0  0  0  0  0  0  0  0  0  0  0  0
    8.8647  -15.3371   20.1600 C   0  0  0  0  0  0  0  0  0  0  0  0
    8.2543  -16.3889   19.8441 O   0  0  0  0  0  0  0  0  0  0  0  0
    9.2669  -15.2159   21.5281 N   0  0  0  0  0  0  0  0  0  0  0  0
    8.9201  -16.1849   22.5292 C   0  0  1  0  0  0  0  0  0  0  0  0
    9.4220  -17.5699   22.2172 C   0  0  0  0  0  0  0  0  0  0  0  0
   11.2335  -17.6179   22.2811 S   0  0  0  0  0  0  0  0  0  0  0  0
    9.2973  -15.7472   23.8984 C   0  0  0  0  0  0  0  0  0  0  0  0
   10.4627  -15.2995   24.1079 O   0  0  0  0  0  0  0  0  0  0  0  0
    6.0313  -12.3830   26.4673 C   0  0  0  0  0  0  0  0  0  0  0  0
    7.2536  -13.1382   26.0980 C   0  0  1  0  0  0  0  0  0  0  0  0
    8.4313  -12.1465   26.1163 C   0  0  0  0  0  0  0  0  0  0  0  0
    7.5782  -14.3972   26.7535 C   0  0  0  0  0  0  0  0  0  0  0  0
    8.7210  -15.2117   26.3162 C   0  0  2  0  0  0  0  0  0  0  0  0
    8.4174  -15.8053   24.9840 N   0  0  0  0  0  0  0  0  0  0  0  0
    9.0103  -16.3505   27.1525 C   0  0  0  0  0  0  0  0  0  0  0  0
    9.6712  -16.2377   28.3478 O   0  0  0  0  0  0  0  0  0  0  0  0
    8.6711  -17.5064   26.8110 O   0  0  0  0  0  0  0  0  0  0  0  0
  2  1  1  6
  2  3  1  0
  2  4  1  0
  4  5  1  6
  6  4  1  0
  7  6  2  0
  8  6  1  0
  9  8  1  0
  9 12  1  0
  9 10  1  6
 11 10  1  0
 12 19  1  0
 13 12  2  0
 15 14  1  1
 16 15  1  0
 17 15  1  0
 18 17  1  1
 18 20  1  0
 19 18  1  0
 20 21  1  0
 22 20  2  0
M  END
$$$$
