WMM.pdb
     RDKit          3D

 31 32  0  0  1  0  0  0  0  0999 V2000
   24.5937  -19.4859   -9.2877 N   0  0  0  0  0  0  0  0  0  0  0  0
   25.8517  -19.9860   -9.7664 C   0  0  1  0  0  0  0  0  0  0  0  0
   26.3340  -21.1960   -9.0222 C   0  0  0  0  0  0  0  0  0  0  0  0
   26.5821  -20.9523   -7.5959 C   0  0  0  0  0  0  0  0  0  0  0  0
   25.6539  -21.0580   -6.5916 C   0  0  0  0  0  0  0  0  0  0  0  0
   26.2387  -20.7610   -5.4354 N   0  0  0  0  0  0  0  0  0  0  0  0
   27.5287  -20.4662   -5.6801 C   0  0  0  0  0  0  0  0  0  0  0  0
   28.5842  -20.0958   -4.8699 C   0  0  0  0  0  0  0  0  0  0  0  0
   29.8308  -19.8468   -5.3764 C   0  0  0  0  0  0  0  0  0  0  0  0
   30.0906  -19.9552   -6.7278 C   0  0  0  0  0  0  0  0  0  0  0  0
   29.0541  -20.3220   -7.5483 C   0  0  0  0  0  0  0  0  0  0  0  0
   27.7842  -20.5775   -7.0462 C   0  0  0  0  0  0  0  0  0  0  0  0
   25.7443  -20.3498  -11.2106 C   0  0  0  0  0  0  0  0  0  0  0  0
   24.6373  -20.5658  -11.7611 O   0  0  0  0  0  0  0  0  0  0  0  0
   29.9250  -22.6366  -15.6159 C   0  0  0  0  0  0  0  0  0  0  0  0
   28.9457  -21.3995  -16.4044 S   0  0  0  0  0  0  0  0  0  0  0  0
   28.4511  -19.9818  -15.4894 C   0  0  0  0  0  0  0  0  0  0  0  0
   28.2364  -20.1040  -14.0200 C   0  0  0  0  0  0  0  0  0  0  0  0
   26.9172  -20.2776  -13.4514 C   0  0  2  0  0  0  0  0  0  0  0  0
   26.8856  -20.4641  -12.0099 N   0  0  0  0  0  0  0  0  0  0  0  0
   26.0957  -21.3707  -14.0083 C   0  0  0  0  0  0  0  0  0  0  0  0
   26.2246  -22.5805  -13.5465 O   0  0  0  0  0  0  0  0  0  0  0  0
   19.2235  -24.0352  -13.6547 C   0  0  0  0  0  0  0  0  0  0  0  0
   20.6292  -22.9780  -13.1876 S   0  0  0  0  0  0  0  0  0  0  0  0
   21.8949  -23.1431  -14.4640 C   0  0  0  0  0  0  0  0  0  0  0  0
   23.0314  -22.1743  -14.1838 C   0  0  0  0  0  0  0  0  0  0  0  0
   24.1136  -22.3080  -15.2583 C   0  0  2  0  0  0  0  0  0  0  0  0
   25.1348  -21.2853  -15.0257 N   0  0  0  0  0  0  0  0  0  0  0  0
   23.4725  -22.0712  -16.5629 C   0  0  0  0  0  0  0  0  0  0  0  0
   23.0047  -23.1607  -17.2815 O   0  0  0  0  0  0  0  0  0  0  0  0
   23.3534  -20.9044  -17.0129 O   0  0  0  0  0  0  0  0  0  0  0  0
  2  1  1  1
  2 13  1  0
  2  3  1  0
  3  4  1  0
  4  5  2  0
  5  6  1  0
  7  6  1  0
  8  7  2  0
  9  8  1  0
 10 11  1  0
 10  9  2  0
 11 12  2  0
 12  4  1  0
 12  7  1  0
 13 14  2  0
 16 15  1  0
 16 17  1  0
 18 17  1  0
 19 18  1  6
 19 21  1  0
 20 19  1  0
 20 13  1  0
 21 28  1  0
 22 21  2  0
 23 24  1  0
 24 25  1  0
 25 26  1  0
 27 26  1  1
 27 29  1  0
 28 27  1  0
 29 31  2  0
 29 30  1  0
M  END
$$$$
