WMM.pdb
     RDKit          3D

 31 32  0  0  1  0  0  0  0  0999 V2000
   27.5902  -21.1385  -11.6554 N   0  0  0  0  0  0  0  0  0  0  0  0
   26.9687  -20.8022  -10.4055 C   0  0  1  0  0  0  0  0  0  0  0  0
   27.7211  -19.7642   -9.6263 C   0  0  0  0  0  0  0  0  0  0  0  0
   28.6445  -20.3255   -8.6327 C   0  0  0  0  0  0  0  0  0  0  0  0
   29.5783  -21.3022   -8.8682 C   0  0  0  0  0  0  0  0  0  0  0  0
   30.2263  -21.5568   -7.7359 N   0  0  0  0  0  0  0  0  0  0  0  0
   29.7243  -20.7589   -6.7755 C   0  0  0  0  0  0  0  0  0  0  0  0
   30.0124  -20.5969   -5.4345 C   0  0  0  0  0  0  0  0  0  0  0  0
   29.3414  -19.6938   -4.6555 C   0  0  0  0  0  0  0  0  0  0  0  0
   28.3404  -18.8999   -5.1783 C   0  0  0  0  0  0  0  0  0  0  0  0
   28.0403  -19.0470   -6.5088 C   0  0  0  0  0  0  0  0  0  0  0  0
   28.7143  -19.9602   -7.3100 C   0  0  0  0  0  0  0  0  0  0  0  0
   25.5875  -20.2858  -10.6406 C   0  0  0  0  0  0  0  0  0  0  0  0
   25.3772  -19.1624  -11.1591 O   0  0  0  0  0  0  0  0  0  0  0  0
   21.8326  -19.5875  -15.1993 C   0  0  0  0  0  0  0  0  0  0  0  0
   20.8209  -20.3865  -13.9955 S   0  0  0  0  0  0  0  0  0  0  0  0
   21.2730  -20.3005  -12.2985 C   0  0  0  0  0  0  0  0  0  0  0  0
   22.6578  -20.6751  -11.8956 C   0  0  0  0  0  0  0  0  0  0  0  0
   23.0866  -20.6478  -10.5139 C   0  0  2  0  0  0  0  0  0  0  0  0
   24.4669  -21.0437  -10.2877 N   0  0  0  0  0  0  0  0  0  0  0  0
   22.2875  -21.4399   -9.5579 C   0  0  0  0  0  0  0  0  0  0  0  0
   22.3695  -22.7387   -9.5621 O   0  0  0  0  0  0  0  0  0  0  0  0
   21.1307  -20.5541   -3.3148 C   0  0  0  0  0  0  0  0  0  0  0  0
   19.4795  -21.1417   -3.8047 S   0  0  0  0  0  0  0  0  0  0  0  0
   19.6382  -21.9752   -5.3981 C   0  0  0  0  0  0  0  0  0  0  0  0
   20.4550  -21.1129   -6.3456 C   0  0  0  0  0  0  0  0  0  0  0  0
   20.6465  -21.8355   -7.6817 C   0  0  2  0  0  0  0  0  0  0  0  0
   21.3994  -20.9625   -8.5837 N   0  0  0  0  0  0  0  0  0  0  0  0
   19.3086  -22.0840   -8.2452 C   0  0  0  0  0  0  0  0  0  0  0  0
   18.6703  -23.2766   -7.9417 O   0  0  0  0  0  0  0  0  0  0  0  0
   18.7596  -21.2304   -8.9856 O   0  0  0  0  0  0  0  0  0  0  0  0
  2  1  1  6
  2 13  1  0
  2  3  1  0
  3  4  1  0
  4  5  2  0
  5  6  1  0
  7  6  1  0
  8  7  2  0
  9  8  1  0
 10 11  1  0
 10  9  2  0
 11 12  2  0
 12  4  1  0
 12  7  1  0
 13 14  2  0
 16 15  1  0
 16 17  1  0
 18 17  1  0
 19 18  1  6
 19 21  1  0
 20 19  1  0
 20 13  1  0
 21 28  1  0
 22 21  2  0
 23 24  1  0
 24 25  1  0
 25 26  1  0
 27 26  1  1
 27 29  1  0
 28 27  1  0
 29 31  2  0
 29 30  1  0
M  END
$$$$
