WMM.pdb
     RDKit          3D

 31 32  0  0  1  0  0  0  0  0999 V2000
   25.6370  -19.2735  -11.5270 N   0  0  0  0  0  0  0  0  0  0  0  0
   26.0795  -20.6241  -11.7318 C   0  0  1  0  0  0  0  0  0  0  0  0
   25.9174  -21.4943  -10.5205 C   0  0  0  0  0  0  0  0  0  0  0  0
   26.4798  -20.9125   -9.2957 C   0  0  0  0  0  0  0  0  0  0  0  0
   25.7593  -20.4481   -8.2250 C   0  0  0  0  0  0  0  0  0  0  0  0
   26.6043  -19.9928   -7.3054 N   0  0  0  0  0  0  0  0  0  0  0  0
   27.8574  -20.1575   -7.7676 C   0  0  0  0  0  0  0  0  0  0  0  0
   29.1033  -19.8706   -7.2451 C   0  0  0  0  0  0  0  0  0  0  0  0
   30.2550  -20.1436   -7.9320 C   0  0  0  0  0  0  0  0  0  0  0  0
   30.2226  -20.7213   -9.1853 C   0  0  0  0  0  0  0  0  0  0  0  0
   28.9937  -21.0132   -9.7206 C   0  0  0  0  0  0  0  0  0  0  0  0
   27.8175  -20.7409   -9.0333 C   0  0  0  0  0  0  0  0  0  0  0  0
   25.3157  -21.2512  -12.8512 C   0  0  0  0  0  0  0  0  0  0  0  0
   24.1818  -20.8380  -13.1956 O   0  0  0  0  0  0  0  0  0  0  0  0
   27.3310  -26.7076  -16.0873 C   0  0  0  0  0  0  0  0  0  0  0  0
   26.3894  -25.8211  -17.2869 S   0  0  0  0  0  0  0  0  0  0  0  0
   25.8956  -24.1690  -16.9429 C   0  0  0  0  0  0  0  0  0  0  0  0
   26.2777  -23.5527  -15.6412 C   0  0  0  0  0  0  0  0  0  0  0  0
   25.3231  -22.8332  -14.8257 C   0  0  2  0  0  0  0  0  0  0  0  0
   25.8423  -22.3329  -13.5634 N   0  0  0  0  0  0  0  0  0  0  0  0
   24.0757  -23.5455  -14.4843 C   0  0  0  0  0  0  0  0  0  0  0  0
   23.9846  -24.1937  -13.3595 O   0  0  0  0  0  0  0  0  0  0  0  0
   16.4486  -23.9389  -13.5917 C   0  0  0  0  0  0  0  0  0  0  0  0
   17.9622  -22.9840  -13.9224 S   0  0  0  0  0  0  0  0  0  0  0  0
   19.2959  -24.1555  -14.2500 C   0  0  0  0  0  0  0  0  0  0  0  0
   20.5671  -23.3979  -14.5945 C   0  0  0  0  0  0  0  0  0  0  0  0
   21.7185  -24.3799  -14.8261 C   0  0  2  0  0  0  0  0  0  0  0  0
   22.9011  -23.6262  -15.2456 N   0  0  0  0  0  0  0  0  0  0  0  0
   21.3104  -25.2918  -15.9082 C   0  0  0  0  0  0  0  0  0  0  0  0
   21.2412  -24.7992  -17.2023 O   0  0  0  0  0  0  0  0  0  0  0  0
   21.0312  -26.4913  -15.6605 O   0  0  0  0  0  0  0  0  0  0  0  0
  2  1  1  1
  2 13  1  0
  2  3  1  0
  3  4  1  0
  4  5  2  0
  5  6  1  0
  7  6  1  0
  8  7  2  0
  9  8  1  0
 10 11  1  0
 10  9  2  0
 11 12  2  0
 12  4  1  0
 12  7  1  0
 13 14  2  0
 16 15  1  0
 16 17  1  0
 18 17  1  0
 19 18  1  1
 19 21  1  0
 20 19  1  0
 20 13  1  0
 21 28  1  0
 22 21  2  0
 23 24  1  0
 24 25  1  0
 25 26  1  0
 27 26  1  6
 27 29  1  0
 28 27  1  0
 29 31  2  0
 29 30  1  0
M  END
$$$$
