WMM.pdb
     RDKit          3D

 31 32  0  0  1  0  0  0  0  0999 V2000
   27.4821  -20.8575  -15.6963 N   0  0  0  0  0  0  0  0  0  0  0  0
   27.8938  -21.0597  -14.3357 C   0  0  1  0  0  0  0  0  0  0  0  0
   29.2700  -20.5376  -14.0458 C   0  0  0  0  0  0  0  0  0  0  0  0
   30.2606  -21.5913  -13.7933 C   0  0  0  0  0  0  0  0  0  0  0  0
   30.6542  -22.5525  -14.6891 C   0  0  0  0  0  0  0  0  0  0  0  0
   31.5612  -23.3322  -14.1093 N   0  0  0  0  0  0  0  0  0  0  0  0
   31.7577  -22.8875  -12.8545 C   0  0  0  0  0  0  0  0  0  0  0  0
   32.5713  -23.3056  -11.8196 C   0  0  0  0  0  0  0  0  0  0  0  0
   32.5874  -22.6660  -10.6100 C   0  0  0  0  0  0  0  0  0  0  0  0
   31.7863  -21.5680  -10.3686 C   0  0  0  0  0  0  0  0  0  0  0  0
   30.9712  -21.1384  -11.3850 C   0  0  0  0  0  0  0  0  0  0  0  0
   30.9459  -21.7791  -12.6173 C   0  0  0  0  0  0  0  0  0  0  0  0
   26.9423  -20.3832  -13.4047 C   0  0  0  0  0  0  0  0  0  0  0  0
   26.7470  -19.1440  -13.4388 O   0  0  0  0  0  0  0  0  0  0  0  0
   21.8321  -19.0075  -15.1390 C   0  0  0  0  0  0  0  0  0  0  0  0
   22.6968  -20.2054  -14.1754 S   0  0  0  0  0  0  0  0  0  0  0  0
   23.0588  -19.8553  -12.4908 C   0  0  0  0  0  0  0  0  0  0  0  0
   23.9119  -20.8023  -11.7190 C   0  0  0  0  0  0  0  0  0  0  0  0
   25.3144  -20.5436  -11.4745 C   0  0  2  0  0  0  0  0  0  0  0  0
   26.2272  -21.1143  -12.4514 N   0  0  0  0  0  0  0  0  0  0  0  0
   25.8420  -20.9509  -10.1570 C   0  0  0  0  0  0  0  0  0  0  0  0
   26.0731  -22.2075   -9.9099 O   0  0  0  0  0  0  0  0  0  0  0  0
   29.6776  -18.8137   -5.1440 C   0  0  0  0  0  0  0  0  0  0  0  0
   27.9989  -18.8184   -4.4414 S   0  0  0  0  0  0  0  0  0  0  0  0
   27.0030  -19.9848   -5.3934 C   0  0  0  0  0  0  0  0  0  0  0  0
   27.0673  -19.6253   -6.8683 C   0  0  0  0  0  0  0  0  0  0  0  0
   26.2218  -20.6052   -7.6860 C   0  0  2  0  0  0  0  0  0  0  0  0
   26.1510  -20.1250   -9.0670 N   0  0  0  0  0  0  0  0  0  0  0  0
   24.8698  -20.6161   -7.1020 C   0  0  0  0  0  0  0  0  0  0  0  0
   24.6519  -21.3446   -5.9428 O   0  0  0  0  0  0  0  0  0  0  0  0
   23.9348  -19.9770   -7.6457 O   0  0  0  0  0  0  0  0  0  0  0  0
  2  1  1  6
  2 13  1  0
  2  3  1  0
  3  4  1  0
  4  5  2  0
  5  6  1  0
  7  6  1  0
  8  7  2  0
  9  8  1  0
 10 11  1  0
 10  9  2  0
 11 12  2  0
 12  4  1  0
 12  7  1  0
 13 14  2  0
 16 15  1  0
 16 17  1  0
 18 17  1  0
 19 18  1  6
 19 21  1  0
 20 19  1  0
 20 13  1  0
 21 28  1  0
 22 21  2  0
 23 24  1  0
 24 25  1  0
 25 26  1  0
 27 26  1  1
 27 29  1  0
 28 27  1  0
 29 31  2  0
 29 30  1  0
M  END
$$$$
