WMM.pdb
     RDKit          3D

 31 32  0  0  1  0  0  0  0  0999 V2000
   24.8430  -19.4917   -8.9167 N   0  0  0  0  0  0  0  0  0  0  0  0
   25.9127  -20.3749   -9.2875 C   0  0  1  0  0  0  0  0  0  0  0  0
   26.0152  -21.5876   -8.4103 C   0  0  0  0  0  0  0  0  0  0  0  0
   26.1624  -21.2742   -6.9837 C   0  0  0  0  0  0  0  0  0  0  0  0
   25.2603  -21.5836   -5.9980 C   0  0  0  0  0  0  0  0  0  0  0  0
   25.7288  -21.1421   -4.8350 N   0  0  0  0  0  0  0  0  0  0  0  0
   26.9186  -20.5537   -5.0571 C   0  0  0  0  0  0  0  0  0  0  0  0
   27.8358  -19.9339   -4.2311 C   0  0  0  0  0  0  0  0  0  0  0  0
   29.0008  -19.4036   -4.7150 C   0  0  0  0  0  0  0  0  0  0  0  0
   29.3130  -19.4647   -6.0582 C   0  0  0  0  0  0  0  0  0  0  0  0
   28.4136  -20.0766   -6.8941 C   0  0  0  0  0  0  0  0  0  0  0  0
   27.2277  -20.6187   -6.4150 C   0  0  0  0  0  0  0  0  0  0  0  0
   25.7298  -20.8418  -10.6940 C   0  0  0  0  0  0  0  0  0  0  0  0
   24.5922  -20.9828  -11.2049 O   0  0  0  0  0  0  0  0  0  0  0  0
   31.3009  -21.5227  -11.9837 C   0  0  0  0  0  0  0  0  0  0  0  0
   30.5743  -19.9389  -12.2570 S   0  0  0  0  0  0  0  0  0  0  0  0
   29.2118  -19.7965  -13.3592 C   0  0  0  0  0  0  0  0  0  0  0  0
   28.2548  -20.9320  -13.4819 C   0  0  0  0  0  0  0  0  0  0  0  0
   26.9201  -20.8713  -12.9265 C   0  0  2  0  0  0  0  0  0  0  0  0
   26.8314  -21.1416  -11.5009 N   0  0  0  0  0  0  0  0  0  0  0  0
   25.9021  -21.7360  -13.5558 C   0  0  0  0  0  0  0  0  0  0  0  0
   25.8806  -23.0106  -13.2939 O   0  0  0  0  0  0  0  0  0  0  0  0
   20.0305  -22.0993  -12.6852 C   0  0  0  0  0  0  0  0  0  0  0  0
   19.8531  -22.4410  -14.4639 S   0  0  0  0  0  0  0  0  0  0  0  0
   21.4861  -22.8517  -15.1147 C   0  0  0  0  0  0  0  0  0  0  0  0
   22.5287  -21.9414  -14.4877 C   0  0  0  0  0  0  0  0  0  0  0  0
   23.9214  -22.2941  -15.0168 C   0  0  2  0  0  0  0  0  0  0  0  0
   24.8907  -21.3556  -14.4490 N   0  0  0  0  0  0  0  0  0  0  0  0
   23.8900  -22.1389  -16.4810 C   0  0  0  0  0  0  0  0  0  0  0  0
   23.4376  -23.1982  -17.2526 O   0  0  0  0  0  0  0  0  0  0  0  0
   24.2664  -21.0669  -17.0171 O   0  0  0  0  0  0  0  0  0  0  0  0
  2  1  1  1
  2 13  1  0
  2  3  1  0
  3  4  1  0
  4  5  2  0
  5  6  1  0
  7  6  1  0
  8  7  2  0
  9  8  1  0
 10 11  1  0
 10  9  2  0
 11 12  2  0
 12  4  1  0
 12  7  1  0
 13 14  2  0
 16 15  1  0
 16 17  1  0
 18 17  1  0
 19 18  1  6
 19 21  1  0
 20 19  1  0
 20 13  1  0
 21 28  1  0
 22 21  2  0
 23 24  1  0
 24 25  1  0
 25 26  1  0
 27 26  1  1
 27 29  1  0
 28 27  1  0
 29 31  2  0
 29 30  1  0
M  END
$$$$
