WMM.pdb
     RDKit          3D

 31 32  0  0  1  0  0  0  0  0999 V2000
   24.5434  -21.4237  -15.4270 N   0  0  0  0  0  0  0  0  0  0  0  0
   23.8652  -20.5129  -14.5481 C   0  0  1  0  0  0  0  0  0  0  0  0
   22.3848  -20.4495  -14.7827 C   0  0  0  0  0  0  0  0  0  0  0  0
   22.0128  -19.7693  -16.0293 C   0  0  0  0  0  0  0  0  0  0  0  0
   21.5596  -20.3798  -17.1709 C   0  0  0  0  0  0  0  0  0  0  0  0
   21.3273  -19.4488  -18.0907 N   0  0  0  0  0  0  0  0  0  0  0  0
   21.6236  -18.2487  -17.5587 C   0  0  0  0  0  0  0  0  0  0  0  0
   21.5728  -16.9585  -18.0489 C   0  0  0  0  0  0  0  0  0  0  0  0
   21.9363  -15.8815  -17.2870 C   0  0  0  0  0  0  0  0  0  0  0  0
   22.3728  -16.0376  -15.9867 C   0  0  0  0  0  0  0  0  0  0  0  0
   22.4301  -17.3122  -15.4827 C   0  0  0  0  0  0  0  0  0  0  0  0
   22.0637  -18.4135  -16.2461 C   0  0  0  0  0  0  0  0  0  0  0  0
   24.0865  -20.9101  -13.1258 C   0  0  0  0  0  0  0  0  0  0  0  0
   24.0288  -22.1072  -12.7533 O   0  0  0  0  0  0  0  0  0  0  0  0
   27.1626  -20.9398   -6.4086 C   0  0  0  0  0  0  0  0  0  0  0  0
   26.7375  -20.7483   -8.1097 S   0  0  0  0  0  0  0  0  0  0  0  0
   25.7405  -19.3850   -8.5988 C   0  0  0  0  0  0  0  0  0  0  0  0
   25.3746  -19.2308  -10.0350 C   0  0  0  0  0  0  0  0  0  0  0  0
   24.6189  -20.2402  -10.7447 C   0  0  2  0  0  0  0  0  0  0  0  0
   24.3689  -19.9521  -12.1475 N   0  0  0  0  0  0  0  0  0  0  0  0
   23.3054  -20.6040  -10.1769 C   0  0  0  0  0  0  0  0  0  0  0  0
   22.2426  -19.9345  -10.5171 O   0  0  0  0  0  0  0  0  0  0  0  0
   18.1015  -22.1195   -9.0873 C   0  0  0  0  0  0  0  0  0  0  0  0
   19.0166  -23.6834   -8.9187 S   0  0  0  0  0  0  0  0  0  0  0  0
   20.2032  -23.4887   -7.5723 C   0  0  0  0  0  0  0  0  0  0  0  0
   21.5900  -23.2496   -8.1453 C   0  0  0  0  0  0  0  0  0  0  0  0
   21.7212  -21.7994   -8.6178 C   0  0  2  0  0  0  0  0  0  0  0  0
   23.0219  -21.6336   -9.2685 N   0  0  0  0  0  0  0  0  0  0  0  0
   21.6581  -20.9386   -7.4244 C   0  0  0  0  0  0  0  0  0  0  0  0
   22.2075  -21.4033   -6.2394 O   0  0  0  0  0  0  0  0  0  0  0  0
   21.1166  -19.8065   -7.4823 O   0  0  0  0  0  0  0  0  0  0  0  0
  2  1  1  6
  2 13  1  0
  2  3  1  0
  3  4  1  0
  4  5  2  0
  5  6  1  0
  7  6  1  0
  8  7  2  0
  9  8  1  0
 10 11  1  0
 10  9  2  0
 11 12  2  0
 12  4  1  0
 12  7  1  0
 13 14  2  0
 16 15  1  0
 16 17  1  0
 18 17  1  0
 19 18  1  1
 19 21  1  0
 20 19  1  0
 20 13  1  0
 21 28  1  0
 22 21  2  0
 23 24  1  0
 24 25  1  0
 25 26  1  0
 27 26  1  1
 27 29  1  0
 28 27  1  0
 29 31  2  0
 29 30  1  0
M  END
$$$$
