WMM.pdb
     RDKit          3D

 31 32  0  0  1  0  0  0  0  0999 V2000
   26.3881  -18.2143   -8.5085 N   0  0  0  0  0  0  0  0  0  0  0  0
   26.9381  -19.5002   -8.8338 C   0  0  1  0  0  0  0  0  0  0  0  0
   26.6426  -20.5519   -7.8057 C   0  0  0  0  0  0  0  0  0  0  0  0
   27.2416  -20.2799   -6.4933 C   0  0  0  0  0  0  0  0  0  0  0  0
   26.5663  -19.8608   -5.3755 C   0  0  0  0  0  0  0  0  0  0  0  0
   27.4348  -19.7168   -4.3796 N   0  0  0  0  0  0  0  0  0  0  0  0
   28.6584  -20.0371   -4.8390 C   0  0  0  0  0  0  0  0  0  0  0  0
   29.9094  -20.0696   -4.2545 C   0  0  0  0  0  0  0  0  0  0  0  0
   31.0245  -20.4417   -4.9550 C   0  0  0  0  0  0  0  0  0  0  0  0
   30.9484  -20.8034   -6.2850 C   0  0  0  0  0  0  0  0  0  0  0  0
   29.7138  -20.7770   -6.8826 C   0  0  0  0  0  0  0  0  0  0  0  0
   28.5744  -20.4011   -6.1823 C   0  0  0  0  0  0  0  0  0  0  0  0
   26.3970  -19.9746  -10.1422 C   0  0  0  0  0  0  0  0  0  0  0  0
   25.2087  -19.7630  -10.4861 O   0  0  0  0  0  0  0  0  0  0  0  0
   28.4891  -18.6787  -15.5764 C   0  0  0  0  0  0  0  0  0  0  0  0
   27.5204  -20.1461  -15.7167 S   0  0  0  0  0  0  0  0  0  0  0  0
   27.9199  -21.5387  -14.7204 C   0  0  0  0  0  0  0  0  0  0  0  0
   28.0196  -21.3706  -13.2432 C   0  0  0  0  0  0  0  0  0  0  0  0
   26.9207  -20.8545  -12.4559 C   0  0  2  0  0  0  0  0  0  0  0  0
   27.2037  -20.6791  -11.0408 N   0  0  0  0  0  0  0  0  0  0  0  0
   25.6537  -21.6103  -12.5138 C   0  0  0  0  0  0  0  0  0  0  0  0
   25.5772  -22.7926  -11.9754 O   0  0  0  0  0  0  0  0  0  0  0  0
   19.1319  -18.6790  -14.2236 C   0  0  0  0  0  0  0  0  0  0  0  0
   19.9499  -19.6012  -12.8848 S   0  0  0  0  0  0  0  0  0  0  0  0
   21.4122  -20.4022  -13.5768 C   0  0  0  0  0  0  0  0  0  0  0  0
   22.0847  -21.2472  -12.5081 C   0  0  0  0  0  0  0  0  0  0  0  0
   23.2417  -22.0432  -13.1176 C   0  0  2  0  0  0  0  0  0  0  0  0
   24.4450  -21.2098  -13.1006 N   0  0  0  0  0  0  0  0  0  0  0  0
   22.8798  -22.3514  -14.5115 C   0  0  0  0  0  0  0  0  0  0  0  0
   22.0120  -23.4046  -14.7560 O   0  0  0  0  0  0  0  0  0  0  0  0
   23.3496  -21.6718  -15.4579 O   0  0  0  0  0  0  0  0  0  0  0  0
  2  1  1  1
  2 13  1  0
  2  3  1  0
  3  4  1  0
  4  5  2  0
  5  6  1  0
  7  6  1  0
  8  7  2  0
  9  8  1  0
 10 11  1  0
 10  9  2  0
 11 12  2  0
 12  4  1  0
 12  7  1  0
 13 14  2  0
 16 15  1  0
 16 17  1  0
 18 17  1  0
 19 18  1  1
 19 21  1  0
 20 19  1  0
 20 13  1  0
 21 28  1  0
 22 21  2  0
 23 24  1  0
 24 25  1  0
 25 26  1  0
 27 26  1  6
 27 29  1  0
 28 27  1  0
 29 31  2  0
 29 30  1  0
M  END
$$$$
