WMM.pdb
     RDKit          3D

 31 32  0  0  1  0  0  0  0  0999 V2000
   26.7265  -21.2863  -13.4524 N   0  0  0  0  0  0  0  0  0  0  0  0
   25.5730  -20.7102  -12.8204 C   0  0  1  0  0  0  0  0  0  0  0  0
   24.2792  -21.1031  -13.4701 C   0  0  0  0  0  0  0  0  0  0  0  0
   24.0618  -20.4768  -14.7799 C   0  0  0  0  0  0  0  0  0  0  0  0
   24.7174  -20.7988  -15.9409 C   0  0  0  0  0  0  0  0  0  0  0  0
   24.2613  -20.0231  -16.9193 N   0  0  0  0  0  0  0  0  0  0  0  0
   23.3221  -19.2073  -16.4060 C   0  0  0  0  0  0  0  0  0  0  0  0
   22.5290  -18.2170  -16.9519 C   0  0  0  0  0  0  0  0  0  0  0  0
   21.6274  -17.5160  -16.1980 C   0  0  0  0  0  0  0  0  0  0  0  0
   21.4696  -17.7688  -14.8501 C   0  0  0  0  0  0  0  0  0  0  0  0
   22.2492  -18.7491  -14.2903 C   0  0  0  0  0  0  0  0  0  0  0  0
   23.1679  -19.4676  -15.0450 C   0  0  0  0  0  0  0  0  0  0  0  0
   25.5103  -21.1261  -11.3876 C   0  0  0  0  0  0  0  0  0  0  0  0
   25.5078  -22.3336  -11.0455 O   0  0  0  0  0  0  0  0  0  0  0  0
   28.6417  -19.2677   -5.5033 C   0  0  0  0  0  0  0  0  0  0  0  0
   27.1676  -20.2273   -5.6349 S   0  0  0  0  0  0  0  0  0  0  0  0
   25.8203  -19.6087   -6.5802 C   0  0  0  0  0  0  0  0  0  0  0  0
   25.9544  -19.5151   -8.0613 C   0  0  0  0  0  0  0  0  0  0  0  0
   25.3384  -20.4786   -8.9478 C   0  0  2  0  0  0  0  0  0  0  0  0
   25.4516  -20.1747  -10.3649 N   0  0  0  0  0  0  0  0  0  0  0  0
   23.9085  -20.7674   -8.7196 C   0  0  0  0  0  0  0  0  0  0  0  0
   23.0019  -19.9358   -9.1440 O   0  0  0  0  0  0  0  0  0  0  0  0
   20.9849  -25.3162   -4.6324 C   0  0  0  0  0  0  0  0  0  0  0  0
   19.9447  -25.2072   -6.1218 S   0  0  0  0  0  0  0  0  0  0  0  0
   20.2050  -23.5814   -6.8617 C   0  0  0  0  0  0  0  0  0  0  0  0
   21.6924  -23.3442   -7.0617 C   0  0  0  0  0  0  0  0  0  0  0  0
   21.9183  -22.0415   -7.8336 C   0  0  2  0  0  0  0  0  0  0  0  0
   23.3534  -21.8804   -8.0725 N   0  0  0  0  0  0  0  0  0  0  0  0
   21.4363  -20.9371   -6.9869 C   0  0  0  0  0  0  0  0  0  0  0  0
   20.1113  -20.5441   -7.0970 O   0  0  0  0  0  0  0  0  0  0  0  0
   22.2126  -20.3646   -6.1820 O   0  0  0  0  0  0  0  0  0  0  0  0
  2  1  1  6
  2 13  1  0
  2  3  1  0
  3  4  1  0
  4  5  2  0
  5  6  1  0
  7  6  1  0
  8  7  2  0
  9  8  1  0
 10 11  1  0
 10  9  2  0
 11 12  2  0
 12  4  1  0
 12  7  1  0
 13 14  2  0
 16 15  1  0
 16 17  1  0
 18 17  1  0
 19 18  1  1
 19 21  1  0
 20 19  1  0
 20 13  1  0
 21 28  1  0
 22 21  2  0
 23 24  1  0
 24 25  1  0
 25 26  1  0
 27 26  1  1
 27 29  1  0
 28 27  1  0
 29 31  2  0
 29 30  1  0
M  END
$$$$
