WMM.pdb
     RDKit          3D

 31 32  0  0  1  0  0  0  0  0999 V2000
   28.5416  -20.8252  -15.7505 N   0  0  0  0  0  0  0  0  0  0  0  0
   27.6794  -19.9578  -14.9981 C   0  0  1  0  0  0  0  0  0  0  0  0
   26.6943  -19.2124  -15.8493 C   0  0  0  0  0  0  0  0  0  0  0  0
   27.2923  -18.1188  -16.6249 C   0  0  0  0  0  0  0  0  0  0  0  0
   27.7034  -18.1942  -17.9312 C   0  0  0  0  0  0  0  0  0  0  0  0
   28.1944  -17.0135  -18.2943 N   0  0  0  0  0  0  0  0  0  0  0  0
   28.1052  -16.1794  -17.2420 C   0  0  0  0  0  0  0  0  0  0  0  0
   28.4550  -14.8569  -17.0514 C   0  0  0  0  0  0  0  0  0  0  0  0
   28.2545  -14.2219  -15.8559 C   0  0  0  0  0  0  0  0  0  0  0  0
   27.6906  -14.8788  -14.7807 C   0  0  0  0  0  0  0  0  0  0  0  0
   27.3368  -16.1932  -14.9514 C   0  0  0  0  0  0  0  0  0  0  0  0
   27.5352  -16.8488  -16.1600 C   0  0  0  0  0  0  0  0  0  0  0  0
   26.9091  -20.7461  -13.9907 C   0  0  0  0  0  0  0  0  0  0  0  0
   26.5266  -21.9199  -14.2165 O   0  0  0  0  0  0  0  0  0  0  0  0
   27.4035  -19.4872   -7.3801 C   0  0  0  0  0  0  0  0  0  0  0  0
   26.0410  -20.5944   -7.5498 S   0  0  0  0  0  0  0  0  0  0  0  0
   25.4896  -21.0391   -9.1591 C   0  0  0  0  0  0  0  0  0  0  0  0
   26.2439  -20.5486  -10.3468 C   0  0  0  0  0  0  0  0  0  0  0  0
   25.8504  -20.8886  -11.6971 C   0  0  2  0  0  0  0  0  0  0  0  0
   26.5831  -20.1987  -12.7462 N   0  0  0  0  0  0  0  0  0  0  0  0
   24.4232  -20.7150  -12.0334 C   0  0  0  0  0  0  0  0  0  0  0  0
   23.9478  -19.5237  -12.2533 O   0  0  0  0  0  0  0  0  0  0  0  0
   21.1085  -23.2114  -15.8733 C   0  0  0  0  0  0  0  0  0  0  0  0
   19.6064  -23.3301  -14.8527 S   0  0  0  0  0  0  0  0  0  0  0  0
   19.9265  -22.4771  -13.2943 C   0  0  0  0  0  0  0  0  0  0  0  0
   21.3540  -22.7469  -12.8490 C   0  0  0  0  0  0  0  0  0  0  0  0
   22.0436  -21.4339  -12.4691 C   0  0  2  0  0  0  0  0  0  0  0  0
   23.4469  -21.7132  -12.1600 N   0  0  0  0  0  0  0  0  0  0  0  0
   21.3718  -20.9141  -11.2660 C   0  0  0  0  0  0  0  0  0  0  0  0
   20.2830  -20.0706  -11.4243 O   0  0  0  0  0  0  0  0  0  0  0  0
   21.7795  -21.2306  -10.1206 O   0  0  0  0  0  0  0  0  0  0  0  0
  2  1  1  6
  2 13  1  0
  2  3  1  0
  3  4  1  0
  4  5  2  0
  5  6  1  0
  7  6  1  0
  8  7  2  0
  9  8  1  0
 10 11  1  0
 10  9  2  0
 11 12  2  0
 12  4  1  0
 12  7  1  0
 13 14  2  0
 16 15  1  0
 16 17  1  0
 18 17  1  0
 19 18  1  1
 19 21  1  0
 20 19  1  0
 20 13  1  0
 21 28  1  0
 22 21  2  0
 23 24  1  0
 24 25  1  0
 25 26  1  0
 27 26  1  1
 27 29  1  0
 28 27  1  0
 29 31  2  0
 29 30  1  0
M  END
$$$$
