WMM.pdb
     RDKit          3D

 31 32  0  0  1  0  0  0  0  0999 V2000
   25.5215  -19.2236  -16.9355 N   0  0  0  0  0  0  0  0  0  0  0  0
   25.3247  -18.8038  -15.5765 C   0  0  1  0  0  0  0  0  0  0  0  0
   24.2138  -17.8086  -15.4153 C   0  0  0  0  0  0  0  0  0  0  0  0
   24.4192  -16.5666  -16.1705 C   0  0  0  0  0  0  0  0  0  0  0  0
   23.5848  -16.0708  -17.1397 C   0  0  0  0  0  0  0  0  0  0  0  0
   24.0939  -14.9331  -17.6017 N   0  0  0  0  0  0  0  0  0  0  0  0
   25.2427  -14.6890  -16.9446 C   0  0  0  0  0  0  0  0  0  0  0  0
   26.1726  -13.6699  -17.0122 C   0  0  0  0  0  0  0  0  0  0  0  0
   27.2844  -13.6526  -16.2146 C   0  0  0  0  0  0  0  0  0  0  0  0
   27.5277  -14.6589  -15.3015 C   0  0  0  0  0  0  0  0  0  0  0  0
   26.6149  -15.6797  -15.2204 C   0  0  0  0  0  0  0  0  0  0  0  0
   25.4824  -15.7086  -16.0245 C   0  0  0  0  0  0  0  0  0  0  0  0
   25.0117  -19.9824  -14.7146 C   0  0  0  0  0  0  0  0  0  0  0  0
   24.4186  -20.9940  -15.1618 O   0  0  0  0  0  0  0  0  0  0  0  0
   29.3177  -20.2473   -9.6616 C   0  0  0  0  0  0  0  0  0  0  0  0
   28.4526  -21.7209  -10.0990 S   0  0  0  0  0  0  0  0  0  0  0  0
   27.3720  -21.7042  -11.4859 C   0  0  0  0  0  0  0  0  0  0  0  0
   25.9807  -21.1983  -11.3167 C   0  0  0  0  0  0  0  0  0  0  0  0
   25.0695  -21.0769  -12.4342 C   0  0  2  0  0  0  0  0  0  0  0  0
   25.3723  -20.0012  -13.3640 N   0  0  0  0  0  0  0  0  0  0  0  0
   23.6380  -20.9234  -12.1065 C   0  0  0  0  0  0  0  0  0  0  0  0
   23.1246  -19.7344  -11.9789 O   0  0  0  0  0  0  0  0  0  0  0  0
   20.5127  -17.1168  -12.5421 C   0  0  0  0  0  0  0  0  0  0  0  0
   19.4565  -18.2565  -11.5948 S   0  0  0  0  0  0  0  0  0  0  0  0
   20.4318  -19.7262  -11.2111 C   0  0  0  0  0  0  0  0  0  0  0  0
   20.9599  -20.3381  -12.4977 C   0  0  0  0  0  0  0  0  0  0  0  0
   21.2848  -21.8185  -12.2816 C   0  0  2  0  0  0  0  0  0  0  0  0
   22.6936  -21.9394  -11.9027 N   0  0  0  0  0  0  0  0  0  0  0  0
   21.0614  -22.5113  -13.5619 C   0  0  0  0  0  0  0  0  0  0  0  0
   19.7767  -22.9245  -13.8791 O   0  0  0  0  0  0  0  0  0  0  0  0
   22.0179  -22.7220  -14.3486 O   0  0  0  0  0  0  0  0  0  0  0  0
  2  1  1  6
  2 13  1  0
  2  3  1  0
  3  4  1  0
  4  5  2  0
  5  6  1  0
  7  6  1  0
  8  7  2  0
  9  8  1  0
 10 11  1  0
 10  9  2  0
 11 12  2  0
 12  4  1  0
 12  7  1  0
 13 14  2  0
 16 15  1  0
 16 17  1  0
 18 17  1  0
 19 18  1  1
 19 21  1  0
 20 19  1  0
 20 13  1  0
 21 28  1  0
 22 21  2  0
 23 24  1  0
 24 25  1  0
 25 26  1  0
 27 26  1  6
 27 29  1  0
 28 27  1  0
 29 31  2  0
 29 30  1  0
M  END
$$$$
