WMM.pdb
     RDKit          3D

 31 32  0  0  1  0  0  0  0  0999 V2000
   24.9754  -19.0365   -9.6498 N   0  0  0  0  0  0  0  0  0  0  0  0
   26.0851  -19.8138  -10.1253 C   0  0  1  0  0  0  0  0  0  0  0  0
   26.4229  -20.9751   -9.2376 C   0  0  0  0  0  0  0  0  0  0  0  0
   26.8243  -20.5842   -7.8807 C   0  0  0  0  0  0  0  0  0  0  0  0
   26.0139  -19.9960   -6.9434 C   0  0  0  0  0  0  0  0  0  0  0  0
   26.7210  -19.7855   -5.8377 N   0  0  0  0  0  0  0  0  0  0  0  0
   27.9738  -20.2295   -6.0488 C   0  0  0  0  0  0  0  0  0  0  0  0
   29.1093  -20.2652   -5.2633 C   0  0  0  0  0  0  0  0  0  0  0  0
   30.2896  -20.7829   -5.7232 C   0  0  0  0  0  0  0  0  0  0  0  0
   30.3987  -21.2953   -7.0003 C   0  0  0  0  0  0  0  0  0  0  0  0
   29.2810  -21.2681   -7.7952 C   0  0  0  0  0  0  0  0  0  0  0  0
   28.0771  -20.7453   -7.3400 C   0  0  0  0  0  0  0  0  0  0  0  0
   25.7911  -20.3498  -11.4877 C   0  0  0  0  0  0  0  0  0  0  0  0
   24.6227  -20.6202  -11.8577 O   0  0  0  0  0  0  0  0  0  0  0  0
   27.7676  -18.0140  -17.0531 C   0  0  0  0  0  0  0  0  0  0  0  0
   28.5283  -17.7942  -15.4771 S   0  0  0  0  0  0  0  0  0  0  0  0
   28.7933  -19.1946  -14.4473 C   0  0  0  0  0  0  0  0  0  0  0  0
   27.9067  -20.3831  -14.5948 C   0  0  0  0  0  0  0  0  0  0  0  0
   26.6700  -20.5117  -13.8548 C   0  0  2  0  0  0  0  0  0  0  0  0
   26.8182  -20.5718  -12.4099 N   0  0  0  0  0  0  0  0  0  0  0  0
   25.8025  -21.6525  -14.2099 C   0  0  0  0  0  0  0  0  0  0  0  0
   26.2892  -22.8594  -14.2227 O   0  0  0  0  0  0  0  0  0  0  0  0
   19.2371  -22.4515  -13.3824 C   0  0  0  0  0  0  0  0  0  0  0  0
   20.1024  -24.0448  -13.2254 S   0  0  0  0  0  0  0  0  0  0  0  0
   21.5324  -24.0095  -14.3265 C   0  0  0  0  0  0  0  0  0  0  0  0
   22.4687  -22.8873  -13.9110 C   0  0  0  0  0  0  0  0  0  0  0  0
   23.6618  -22.8162  -14.8676 C   0  0  2  0  0  0  0  0  0  0  0  0
   24.4439  -21.6192  -14.5543 N   0  0  0  0  0  0  0  0  0  0  0  0
   23.1258  -22.7063  -16.2349 C   0  0  0  0  0  0  0  0  0  0  0  0
   22.9180  -23.8676  -16.9631 O   0  0  0  0  0  0  0  0  0  0  0  0
   22.8632  -21.5814  -16.7287 O   0  0  0  0  0  0  0  0  0  0  0  0
  2  1  1  1
  2 13  1  0
  2  3  1  0
  3  4  1  0
  4  5  2  0
  5  6  1  0
  7  6  1  0
  8  7  2  0
  9  8  1  0
 10 11  1  0
 10  9  2  0
 11 12  2  0
 12  4  1  0
 12  7  1  0
 13 14  2  0
 16 15  1  0
 16 17  1  0
 18 17  1  0
 19 18  1  6
 19 21  1  0
 20 19  1  0
 20 13  1  0
 21 28  1  0
 22 21  2  0
 23 24  1  0
 24 25  1  0
 25 26  1  0
 27 26  1  1
 27 29  1  0
 28 27  1  0
 29 31  2  0
 29 30  1  0
M  END
$$$$
