EKT.pdb
     RDKit          3D

 26 25  0  0  1  0  0  0  0  0999 V2000
   28.7194  -21.9496  -16.8138 N   0  0  0  0  0  0  0  0  0  0  0  0
   28.4249  -20.9292  -15.8296 C   0  0  1  0  0  0  0  0  0  0  0  0
   28.2937  -19.6282  -16.5691 C   0  0  0  0  0  0  0  0  0  0  0  0
   27.8417  -19.7730  -17.9740 C   0  0  0  0  0  0  0  0  0  0  0  0
   26.9262  -18.7411  -18.4640 C   0  0  0  0  0  0  0  0  0  0  0  0
   27.1994  -18.0061  -19.4437 O   0  0  0  0  0  0  0  0  0  0  0  0
   27.1806  -21.2634  -15.1061 C   0  0  0  0  0  0  0  0  0  0  0  0
   26.3314  -21.9930  -15.6780 O   0  0  0  0  0  0  0  0  0  0  0  0
   25.6997  -18.5349  -17.8506 O   0  0  0  0  0  0  0  0  0  0  0  0
   26.8726  -20.8185  -13.8061 N   0  0  0  0  0  0  0  0  0  0  0  0
   25.6564  -21.2081  -13.0833 C   0  0  1  0  0  0  0  0  0  0  0  0
   25.8834  -20.8347  -11.6478 C   0  0  0  0  0  0  0  0  0  0  0  0
   24.7564  -21.1819  -10.7331 C   0  0  0  0  0  0  0  0  0  0  0  0
   25.0264  -20.8260   -9.2860 C   0  0  0  0  0  0  0  0  0  0  0  0
   23.8422  -21.1955   -8.4249 C   0  0  0  0  0  0  0  0  0  0  0  0
   24.1602  -20.8538   -7.0395 N   0  0  0  0  0  0  0  0  0  0  0  0
   24.4632  -20.5475  -13.6743 C   0  0  0  0  0  0  0  0  0  0  0  0
   24.5693  -19.3327  -13.9749 O   0  0  0  0  0  0  0  0  0  0  0  0
   20.3409  -20.5864  -16.1993 C   0  0  0  0  0  0  0  0  0  0  0  0
   21.6380  -21.2150  -15.7362 C   0  0  1  0  0  0  0  0  0  0  0  0
   22.5609  -21.0877  -16.7688 O   0  0  0  0  0  0  0  0  0  0  0  0
   22.1139  -20.5013  -14.4898 C   0  0  2  0  0  0  0  0  0  0  0  0
   23.2347  -21.2105  -13.9103 N   0  0  0  0  0  0  0  0  0  0  0  0
   20.9792  -20.4119  -13.5358 C   0  0  0  0  0  0  0  0  0  0  0  0
   20.1617  -19.2957  -13.4982 O   0  0  0  0  0  0  0  0  0  0  0  0
   20.7822  -21.3790  -12.7632 O   0  0  0  0  0  0  0  0  0  0  0  0
  2  7  1  0
  2  1  1  6
  3  2  1  0
  4  3  1  0
  5  4  1  0
  5  6  2  0
  7 10  1  0
  8  7  2  0
  9  5  1  0
 10 11  1  0
 11 12  1  1
 13 12  1  0
 13 14  1  0
 14 15  1  0
 15 16  1  0
 17 18  2  0
 17 11  1  0
 20 19  1  6
 20 22  1  0
 21 20  1  0
 22 23  1  1
 23 17  1  0
 24 22  1  0
 24 25  1  0
 26 24  2  0
M  END
$$$$
