EKT.pdb
     RDKit          3D

 26 25  0  0  1  0  0  0  0  0999 V2000
   16.8953  -12.9039  -17.6395 N   0  0  0  0  0  0  0  0  0  0  0  0
   17.8445  -12.4890  -16.6278 C   0  0  1  0  0  0  0  0  0  0  0  0
   19.0868  -13.3100  -16.8257 C   0  0  0  0  0  0  0  0  0  0  0  0
   18.9764  -14.7042  -16.3325 C   0  0  0  0  0  0  0  0  0  0  0  0
   20.1579  -15.5478  -16.5207 C   0  0  0  0  0  0  0  0  0  0  0  0
   20.2197  -16.7275  -16.0972 O   0  0  0  0  0  0  0  0  0  0  0  0
   18.1290  -11.0448  -16.7579 C   0  0  0  0  0  0  0  0  0  0  0  0
   18.6709  -10.6329  -17.8149 O   0  0  0  0  0  0  0  0  0  0  0  0
   21.2735  -15.0636  -17.1872 O   0  0  0  0  0  0  0  0  0  0  0  0
   17.8338  -10.0840  -15.7719 N   0  0  0  0  0  0  0  0  0  0  0  0
   18.1351   -8.6552  -15.9168 C   0  0  1  0  0  0  0  0  0  0  0  0
   16.8591   -7.9245  -15.6174 C   0  0  0  0  0  0  0  0  0  0  0  0
   16.9679   -6.4376  -15.6840 C   0  0  0  0  0  0  0  0  0  0  0  0
   15.6646   -5.7264  -15.3850 C   0  0  0  0  0  0  0  0  0  0  0  0
   15.8451   -4.2313  -15.4966 C   0  0  0  0  0  0  0  0  0  0  0  0
   14.5279   -3.6038  -15.4039 N   0  0  0  0  0  0  0  0  0  0  0  0
   19.2536   -8.2635  -15.0197 C   0  0  0  0  0  0  0  0  0  0  0  0
   19.1693   -8.6051  -13.8140 O   0  0  0  0  0  0  0  0  0  0  0  0
   22.6552   -9.3788  -14.9102 C   0  0  0  0  0  0  0  0  0  0  0  0
   22.7556   -7.8736  -15.0392 C   0  0  1  0  0  0  0  0  0  0  0  0
   22.9625   -7.5781  -16.3824 O   0  0  0  0  0  0  0  0  0  0  0  0
   21.4726   -7.2494  -14.5358 C   0  0  2  0  0  0  0  0  0  0  0  0
   20.3893   -7.5368  -15.4517 N   0  0  0  0  0  0  0  0  0  0  0  0
   21.6850   -5.7866  -14.3921 C   0  0  0  0  0  0  0  0  0  0  0  0
   22.6036   -5.2819  -13.4881 O   0  0  0  0  0  0  0  0  0  0  0  0
   21.0068   -5.0195  -15.1150 O   0  0  0  0  0  0  0  0  0  0  0  0
  2  7  1  0
  2  1  1  6
  3  2  1  0
  4  3  1  0
  5  4  1  0
  5  6  2  0
  7 10  1  0
  8  7  2  0
  9  5  1  0
 10 11  1  0
 11 12  1  1
 13 12  1  0
 13 14  1  0
 14 15  1  0
 15 16  1  0
 17 18  2  0
 17 11  1  0
 20 19  1  6
 20 22  1  0
 21 20  1  0
 22 23  1  6
 23 17  1  0
 24 22  1  0
 24 25  1  0
 26 24  2  0
M  END
$$$$
