EKT.pdb
     RDKit          3D

 26 25  0  0  1  0  0  0  0  0999 V2000
   19.1728  -17.9300  -15.5419 N   0  0  0  0  0  0  0  0  0  0  0  0
   19.9847  -19.0839  -15.8676 C   0  0  1  0  0  0  0  0  0  0  0  0
   20.1772  -19.0809  -17.3575 C   0  0  0  0  0  0  0  0  0  0  0  0
   19.2229  -19.9451  -18.0932 C   0  0  0  0  0  0  0  0  0  0  0  0
   19.4506  -20.0727  -19.5337 C   0  0  0  0  0  0  0  0  0  0  0  0
   20.6002  -20.0952  -20.0362 O   0  0  0  0  0  0  0  0  0  0  0  0
   21.2794  -19.0122  -15.1588 C   0  0  0  0  0  0  0  0  0  0  0  0
   21.8398  -17.8927  -15.0446 O   0  0  0  0  0  0  0  0  0  0  0  0
   18.3823  -20.1753  -20.4120 O   0  0  0  0  0  0  0  0  0  0  0  0
   21.9396  -20.1206  -14.5948 N   0  0  0  0  0  0  0  0  0  0  0  0
   23.2021  -20.0208  -13.8536 C   0  0  1  0  0  0  0  0  0  0  0  0
   23.0419  -20.8801  -12.6339 C   0  0  0  0  0  0  0  0  0  0  0  0
   24.2708  -20.9984  -11.7953 C   0  0  0  0  0  0  0  0  0  0  0  0
   24.0278  -20.7047  -10.3296 C   0  0  0  0  0  0  0  0  0  0  0  0
   25.3233  -20.7805   -9.5575 C   0  0  0  0  0  0  0  0  0  0  0  0
   25.0456  -20.4368   -8.1639 N   0  0  0  0  0  0  0  0  0  0  0  0
   24.3447  -20.4337  -14.7098 C   0  0  0  0  0  0  0  0  0  0  0  0
   24.2381  -21.5246  -15.3228 O   0  0  0  0  0  0  0  0  0  0  0  0
   28.0095  -18.2609  -14.9739 C   0  0  0  0  0  0  0  0  0  0  0  0
   27.4220  -18.9421  -16.1917 C   0  0  1  0  0  0  0  0  0  0  0  0
   28.4793  -19.3564  -16.9946 O   0  0  0  0  0  0  0  0  0  0  0  0
   26.5860  -20.1202  -15.7417 C   0  0  2  0  0  0  0  0  0  0  0  0
   25.5265  -19.6695  -14.8645 N   0  0  0  0  0  0  0  0  0  0  0  0
   27.4745  -21.0952  -15.0595 C   0  0  0  0  0  0  0  0  0  0  0  0
   27.3767  -21.3218  -13.6975 O   0  0  0  0  0  0  0  0  0  0  0  0
   28.3181  -21.7091  -15.7540 O   0  0  0  0  0  0  0  0  0  0  0  0
  2  7  1  0
  2  1  1  6
  3  2  1  0
  4  3  1  0
  5  4  1  0
  5  6  2  0
  7 10  1  0
  8  7  2  0
  9  5  1  0
 10 11  1  0
 11 12  1  1
 13 12  1  0
 13 14  1  0
 14 15  1  0
 15 16  1  0
 17 18  2  0
 17 11  1  0
 20 19  1  1
 20 22  1  0
 21 20  1  0
 22 23  1  1
 23 17  1  0
 24 22  1  0
 24 25  1  0
 26 24  2  0
M  END
$$$$
