EKT.pdb
     RDKit          3D

 26 25  0  0  1  0  0  0  0  0999 V2000
   28.0366  -22.3487  -17.0622 N   0  0  0  0  0  0  0  0  0  0  0  0
   27.7510  -21.1587  -16.2883 C   0  0  1  0  0  0  0  0  0  0  0  0
   27.2489  -20.1183  -17.2486 C   0  0  0  0  0  0  0  0  0  0  0  0
   28.2834  -19.6008  -18.1764 C   0  0  0  0  0  0  0  0  0  0  0  0
   27.8369  -18.5920  -19.1387 C   0  0  0  0  0  0  0  0  0  0  0  0
   28.5885  -18.1314  -20.0318 O   0  0  0  0  0  0  0  0  0  0  0  0
   26.7463  -21.4574  -15.2467 C   0  0  0  0  0  0  0  0  0  0  0  0
   25.7713  -22.1923  -15.5466 O   0  0  0  0  0  0  0  0  0  0  0  0
   26.5411  -18.0997  -19.0968 O   0  0  0  0  0  0  0  0  0  0  0  0
   26.8020  -20.9728  -13.9259 N   0  0  0  0  0  0  0  0  0  0  0  0
   25.7377  -21.1872  -12.9386 C   0  0  1  0  0  0  0  0  0  0  0  0
   26.3279  -20.8409  -11.6031 C   0  0  0  0  0  0  0  0  0  0  0  0
   25.3898  -20.9983  -10.4531 C   0  0  0  0  0  0  0  0  0  0  0  0
   26.0511  -20.7919   -9.1064 C   0  0  0  0  0  0  0  0  0  0  0  0
   25.0553  -21.0141   -7.9932 C   0  0  0  0  0  0  0  0  0  0  0  0
   25.7322  -20.7737   -6.7198 N   0  0  0  0  0  0  0  0  0  0  0  0
   24.5413  -20.3718  -13.2746 C   0  0  0  0  0  0  0  0  0  0  0  0
   24.7019  -19.1300  -13.3731 O   0  0  0  0  0  0  0  0  0  0  0  0
   22.7218  -19.6539  -16.0787 C   0  0  0  0  0  0  0  0  0  0  0  0
   21.6499  -20.1952  -15.1565 C   0  0  1  0  0  0  0  0  0  0  0  0
   21.4441  -21.5304  -15.4869 O   0  0  0  0  0  0  0  0  0  0  0  0
   22.1156  -20.0545  -13.7239 C   0  0  2  0  0  0  0  0  0  0  0  0
   23.2523  -20.9182  -13.4854 N   0  0  0  0  0  0  0  0  0  0  0  0
   20.9826  -20.3917  -12.8249 C   0  0  0  0  0  0  0  0  0  0  0  0
   19.8176  -19.6443  -12.8301 O   0  0  0  0  0  0  0  0  0  0  0  0
   21.1116  -21.3754  -12.0589 O   0  0  0  0  0  0  0  0  0  0  0  0
  2  7  1  0
  2  1  1  6
  3  2  1  0
  4  3  1  0
  5  4  1  0
  5  6  2  0
  7 10  1  0
  8  7  2  0
  9  5  1  0
 10 11  1  0
 11 12  1  1
 13 12  1  0
 13 14  1  0
 14 15  1  0
 15 16  1  0
 17 18  2  0
 17 11  1  0
 20 19  1  6
 20 22  1  0
 21 20  1  0
 22 23  1  1
 23 17  1  0
 24 22  1  0
 24 25  1  0
 26 24  2  0
M  END
$$$$
