EKT.pdb
     RDKit          3D

 26 25  0  0  1  0  0  0  0  0999 V2000
   15.5983  -10.4311  -14.4931 N   0  0  0  0  0  0  0  0  0  0  0  0
   16.1021   -9.4152  -15.3936 C   0  0  1  0  0  0  0  0  0  0  0  0
   15.2580   -8.1891  -15.1915 C   0  0  0  0  0  0  0  0  0  0  0  0
   13.8522   -8.3411  -15.6383 C   0  0  0  0  0  0  0  0  0  0  0  0
   13.0106   -7.1483  -15.5286 C   0  0  0  0  0  0  0  0  0  0  0  0
   12.6969   -6.6425  -14.4238 O   0  0  0  0  0  0  0  0  0  0  0  0
   17.5254   -9.1405  -15.1065 C   0  0  0  0  0  0  0  0  0  0  0  0
   17.8946   -9.0801  -13.9063 O   0  0  0  0  0  0  0  0  0  0  0  0
   12.5201   -6.5223  -16.6646 O   0  0  0  0  0  0  0  0  0  0  0  0
   18.5108   -8.9389  -16.0917 N   0  0  0  0  0  0  0  0  0  0  0  0
   19.9334   -8.7460  -15.7874 C   0  0  1  0  0  0  0  0  0  0  0  0
   20.6928   -9.5414  -16.8083 C   0  0  0  0  0  0  0  0  0  0  0  0
   20.6836  -11.0155  -16.5752 C   0  0  0  0  0  0  0  0  0  0  0  0
   21.5077  -11.7878  -17.5841 C   0  0  0  0  0  0  0  0  0  0  0  0
   22.9809  -11.6150  -17.3008 C   0  0  0  0  0  0  0  0  0  0  0  0
   23.7268  -12.4726  -18.2203 N   0  0  0  0  0  0  0  0  0  0  0  0
   20.2793   -7.3005  -15.8017 C   0  0  0  0  0  0  0  0  0  0  0  0
   19.7714   -6.5974  -16.7100 O   0  0  0  0  0  0  0  0  0  0  0  0
   19.6760   -4.6005  -13.3675 C   0  0  0  0  0  0  0  0  0  0  0  0
   21.1693   -4.6046  -13.6175 C   0  0  1  0  0  0  0  0  0  0  0  0
   21.7703   -5.2965  -12.5715 O   0  0  0  0  0  0  0  0  0  0  0  0
   21.4447   -5.2772  -14.9445 C   0  0  2  0  0  0  0  0  0  0  0  0
   21.1386   -6.6893  -14.8570 N   0  0  0  0  0  0  0  0  0  0  0  0
   22.8695   -5.0541  -15.2991 C   0  0  0  0  0  0  0  0  0  0  0  0
   23.3660   -3.7776  -15.4991 O   0  0  0  0  0  0  0  0  0  0  0  0
   23.6120   -6.0575  -15.4124 O   0  0  0  0  0  0  0  0  0  0  0  0
  2  7  1  0
  2  1  1  1
  3  2  1  0
  4  3  1  0
  5  4  1  0
  5  6  2  0
  7 10  1  0
  8  7  2  0
  9  5  1  0
 10 11  1  0
 11 12  1  6
 13 12  1  0
 13 14  1  0
 14 15  1  0
 15 16  1  0
 17 18  2  0
 17 11  1  0
 20 19  1  1
 20 22  1  0
 21 20  1  0
 22 23  1  1
 23 17  1  0
 24 22  1  0
 24 25  1  0
 26 24  2  0
M  END
$$$$
