EKT.pdb
     RDKit          3D

 26 25  0  0  1  0  0  0  0  0999 V2000
   19.1180  -23.0749  -14.4833 N   0  0  0  0  0  0  0  0  0  0  0  0
   19.7722  -21.7877  -14.3743 C   0  0  1  0  0  0  0  0  0  0  0  0
   19.9176  -21.4899  -12.9091 C   0  0  0  0  0  0  0  0  0  0  0  0
   18.6580  -21.0711  -12.2481 C   0  0  0  0  0  0  0  0  0  0  0  0
   18.2043  -19.7090  -12.5340 C   0  0  0  0  0  0  0  0  0  0  0  0
   18.9603  -18.8338  -13.0212 O   0  0  0  0  0  0  0  0  0  0  0  0
   21.0870  -21.8259  -15.0475 C   0  0  0  0  0  0  0  0  0  0  0  0
   21.7559  -22.8892  -14.9980 O   0  0  0  0  0  0  0  0  0  0  0  0
   16.8966  -19.3295  -12.2714 O   0  0  0  0  0  0  0  0  0  0  0  0
   21.6527  -20.7443  -15.7494 N   0  0  0  0  0  0  0  0  0  0  0  0
   22.9335  -20.8214  -16.4615 C   0  0  1  0  0  0  0  0  0  0  0  0
   22.7262  -20.1258  -17.7749 C   0  0  0  0  0  0  0  0  0  0  0  0
   23.9286  -20.1024  -18.6586 C   0  0  0  0  0  0  0  0  0  0  0  0
   23.6846  -19.4157  -19.9861 C   0  0  0  0  0  0  0  0  0  0  0  0
   24.9476  -19.4095  -20.8138 C   0  0  0  0  0  0  0  0  0  0  0  0
   24.6131  -18.9320  -22.1545 N   0  0  0  0  0  0  0  0  0  0  0  0
   24.0207  -20.2165  -15.6483 C   0  0  0  0  0  0  0  0  0  0  0  0
   23.7695  -19.1294  -15.0717 O   0  0  0  0  0  0  0  0  0  0  0  0
   26.3753  -21.4537  -12.8001 C   0  0  0  0  0  0  0  0  0  0  0  0
   27.1955  -21.0125  -13.9938 C   0  0  1  0  0  0  0  0  0  0  0  0
   27.5432  -22.1522  -14.7111 O   0  0  0  0  0  0  0  0  0  0  0  0
   26.3678  -20.0690  -14.8387 C   0  0  2  0  0  0  0  0  0  0  0  0
   25.3030  -20.7968  -15.4955 N   0  0  0  0  0  0  0  0  0  0  0  0
   27.2625  -19.4125  -15.8257 C   0  0  0  0  0  0  0  0  0  0  0  0
   27.2142  -19.7455  -17.1683 O   0  0  0  0  0  0  0  0  0  0  0  0
   28.0652  -18.5455  -15.4072 O   0  0  0  0  0  0  0  0  0  0  0  0
  2  7  1  0
  2  1  1  1
  3  2  1  0
  4  3  1  0
  5  4  1  0
  5  6  2  0
  7 10  1  0
  8  7  2  0
  9  5  1  0
 10 11  1  0
 11 12  1  6
 13 12  1  0
 13 14  1  0
 14 15  1  0
 15 16  1  0
 17 18  2  0
 17 11  1  0
 20 19  1  1
 20 22  1  0
 21 20  1  0
 22 23  1  6
 23 17  1  0
 24 22  1  0
 24 25  1  0
 26 24  2  0
M  END
$$$$
