EKT.pdb
     RDKit          3D

 26 25  0  0  1  0  0  0  0  0999 V2000
   14.0191  -10.5001  -11.3176 N   0  0  0  0  0  0  0  0  0  0  0  0
   15.2845  -10.2508  -10.6594 C   0  0  1  0  0  0  0  0  0  0  0  0
   16.2941  -11.1731  -11.2813 C   0  0  0  0  0  0  0  0  0  0  0  0
   15.9212  -11.6567  -12.6326 C   0  0  0  0  0  0  0  0  0  0  0  0
   15.6244  -13.0858  -12.7444 C   0  0  0  0  0  0  0  0  0  0  0  0
   15.6779  -13.8654  -11.7625 O   0  0  0  0  0  0  0  0  0  0  0  0
   15.6754   -8.8356  -10.8265 C   0  0  0  0  0  0  0  0  0  0  0  0
   15.1092   -8.1583  -11.7215 O   0  0  0  0  0  0  0  0  0  0  0  0
   15.2664  -13.6403  -13.9640 O   0  0  0  0  0  0  0  0  0  0  0  0
   16.6485   -8.1820  -10.0464 N   0  0  0  0  0  0  0  0  0  0  0  0
   17.0066   -6.7689  -10.2146 C   0  0  1  0  0  0  0  0  0  0  0  0
   16.6053   -6.0798   -8.9434 C   0  0  0  0  0  0  0  0  0  0  0  0
   15.3120   -5.3394   -9.0234 C   0  0  0  0  0  0  0  0  0  0  0  0
   14.9400   -4.6400   -7.7326 C   0  0  0  0  0  0  0  0  0  0  0  0
   13.6701   -3.8434   -7.9145 C   0  0  0  0  0  0  0  0  0  0  0  0
   13.2756   -3.3086   -6.6123 N   0  0  0  0  0  0  0  0  0  0  0  0
   18.4547   -6.6296  -10.5193 C   0  0  0  0  0  0  0  0  0  0  0  0
   19.2657   -7.0713   -9.6680 O   0  0  0  0  0  0  0  0  0  0  0  0
   20.7032   -8.4154  -11.9570 C   0  0  0  0  0  0  0  0  0  0  0  0
   20.8090   -7.1559  -12.7905 C   0  0  1  0  0  0  0  0  0  0  0  0
   19.9814   -7.3117  -13.8973 O   0  0  0  0  0  0  0  0  0  0  0  0
   20.3791   -5.9725  -11.9516 C   0  0  2  0  0  0  0  0  0  0  0  0
   18.9546   -6.0335  -11.7022 N   0  0  0  0  0  0  0  0  0  0  0  0
   20.7491   -4.7265  -12.6700 C   0  0  0  0  0  0  0  0  0  0  0  0
   22.0738   -4.4046  -12.9094 O   0  0  0  0  0  0  0  0  0  0  0  0
   19.8249   -3.9722  -13.0546 O   0  0  0  0  0  0  0  0  0  0  0  0
  2  7  1  0
  2  1  1  6
  3  2  1  0
  4  3  1  0
  5  4  1  0
  5  6  2  0
  7 10  1  0
  8  7  2  0
  9  5  1  0
 10 11  1  0
 11 12  1  1
 13 12  1  0
 13 14  1  0
 14 15  1  0
 15 16  1  0
 17 18  2  0
 17 11  1  0
 20 19  1  1
 20 22  1  0
 21 20  1  0
 22 23  1  6
 23 17  1  0
 24 22  1  0
 24 25  1  0
 26 24  2  0
M  END
$$$$
