EKT.pdb
     RDKit          3D

 26 25  0  0  1  0  0  0  0  0999 V2000
   31.7224  -25.6547  -15.3434 N   0  0  0  0  0  0  0  0  0  0  0  0
   31.3803  -24.7282  -16.4023 C   0  0  1  0  0  0  0  0  0  0  0  0
   32.3438  -24.9712  -17.5290 C   0  0  0  0  0  0  0  0  0  0  0  0
   33.7687  -24.8038  -17.1541 C   0  0  0  0  0  0  0  0  0  0  0  0
   34.7444  -25.0242  -18.2230 C   0  0  0  0  0  0  0  0  0  0  0  0
   35.2286  -26.1547  -18.4727 O   0  0  0  0  0  0  0  0  0  0  0  0
   29.9836  -24.9421  -16.8347 C   0  0  0  0  0  0  0  0  0  0  0  0
   29.5334  -24.2423  -17.7772 O   0  0  0  0  0  0  0  0  0  0  0  0
   35.1772  -23.9703  -19.0136 O   0  0  0  0  0  0  0  0  0  0  0  0
   29.1089  -25.8845  -16.2609 N   0  0  0  0  0  0  0  0  0  0  0  0
   27.7693  -26.1720  -16.7866 C   0  0  1  0  0  0  0  0  0  0  0  0
   27.4042  -27.5371  -16.2817 C   0  0  0  0  0  0  0  0  0  0  0  0
   28.0945  -28.6600  -16.9814 C   0  0  0  0  0  0  0  0  0  0  0  0
   27.6705  -30.0270  -16.4861 C   0  0  0  0  0  0  0  0  0  0  0  0
   28.4547  -31.1073  -17.1918 C   0  0  0  0  0  0  0  0  0  0  0  0
   28.0056  -32.4031  -16.6852 N   0  0  0  0  0  0  0  0  0  0  0  0
   26.8066  -25.1201  -16.3671 C   0  0  0  0  0  0  0  0  0  0  0  0
   26.8580  -24.7385  -15.1716 O   0  0  0  0  0  0  0  0  0  0  0  0
   25.0604  -22.3897  -18.9550 C   0  0  0  0  0  0  0  0  0  0  0  0
   25.2517  -22.1993  -17.4652 C   0  0  1  0  0  0  0  0  0  0  0  0
   24.3784  -21.1987  -17.0522 O   0  0  0  0  0  0  0  0  0  0  0  0
   24.9565  -23.5048  -16.7598 C   0  0  2  0  0  0  0  0  0  0  0  0
   25.8516  -24.5382  -17.2352 N   0  0  0  0  0  0  0  0  0  0  0  0
   23.5368  -23.8636  -17.0074 C   0  0  0  0  0  0  0  0  0  0  0  0
   22.5049  -23.0819  -16.5176 O   0  0  0  0  0  0  0  0  0  0  0  0
   23.2987  -24.8975  -17.6747 O   0  0  0  0  0  0  0  0  0  0  0  0
  2  7  1  0
  2  1  1  1
  3  2  1  0
  4  3  1  0
  5  4  1  0
  5  6  2  0
  7 10  1  0
  8  7  2  0
  9  5  1  0
 10 11  1  0
 11 12  1  1
 13 12  1  0
 13 14  1  0
 14 15  1  0
 15 16  1  0
 17 18  2  0
 17 11  1  0
 20 19  1  6
 20 22  1  0
 21 20  1  0
 22 23  1  6
 23 17  1  0
 24 22  1  0
 24 25  1  0
 26 24  2  0
M  END
$$$$
