GCW.pdb
     RDKit          3D

 25 26  0  0  1  0  0  0  0  0999 V2000
    8.3431  -19.8796   19.2081 N   0  0  0  0  0  0  0  0  0  0  0  0
    8.3833  -19.3524   20.5602 C   0  0  0  0  0  0  0  0  0  0  0  0
    8.9233  -17.9722   20.5714 C   0  0  0  0  0  0  0  0  0  0  0  0
   10.0693  -17.6930   20.1347 O   0  0  0  0  0  0  0  0  0  0  0  0
    8.1274  -16.9299   21.0899 N   0  0  0  0  0  0  0  0  0  0  0  0
    8.6440  -15.5609   21.2218 C   0  0  1  0  0  0  0  0  0  0  0  0
    7.4192  -14.6637   21.0738 C   0  0  0  0  0  0  0  0  0  0  0  0
    5.9631  -15.3173   21.8953 S   0  0  0  0  0  0  0  0  0  0  0  0
    9.2625  -15.3694   22.5523 C   0  0  0  0  0  0  0  0  0  0  0  0
    9.8388  -14.2510   22.7935 O   0  0  0  0  0  0  0  0  0  0  0  0
    9.2742  -16.3203   23.5966 N   0  0  0  0  0  0  0  0  0  0  0  0
   10.0619  -16.1336   24.8311 C   0  0  1  0  0  0  0  0  0  0  0  0
    9.1979  -16.2782   26.0353 C   0  0  0  0  0  0  0  0  0  0  0  0
    8.0109  -15.4126   26.0733 C   0  0  0  0  0  0  0  0  0  0  0  0
    6.7071  -15.8696   25.8207 C   0  0  0  0  0  0  0  0  0  0  0  0
    5.8312  -14.8641   25.9595 N   0  0  0  0  0  0  0  0  0  0  0  0
    6.5050  -13.7475   26.2961 C   0  0  0  0  0  0  0  0  0  0  0  0
    6.0352  -12.4679   26.5371 C   0  0  0  0  0  0  0  0  0  0  0  0
    6.9479  -11.4912   26.8590 C   0  0  0  0  0  0  0  0  0  0  0  0
    8.2917  -11.7808   26.9384 C   0  0  0  0  0  0  0  0  0  0  0  0
    8.7325  -13.0756   26.6908 C   0  0  0  0  0  0  0  0  0  0  0  0
    7.8449  -14.0843   26.3656 C   0  0  0  0  0  0  0  0  0  0  0  0
   11.2883  -16.9221   24.7911 C   0  0  0  0  0  0  0  0  0  0  0  0
   11.5535  -17.7503   23.8901 O   0  0  0  0  0  0  0  0  0  0  0  0
   12.2300  -16.7552   25.8094 O   0  0  0  0  0  0  0  0  0  0  0  0
  1  2  1  0
  3  2  1  0
  3  4  2  0
  5  3  1  0
  6  5  1  0
  6  9  1  0
  6  7  1  1
  8  7  1  0
  9 11  1  0
  9 10  2  0
 11 12  1  0
 12 13  1  1
 14 15  2  0
 14 13  1  0
 16 15  1  0
 17 22  2  0
 17 16  1  0
 18 17  1  0
 19 20  1  0
 19 18  2  0
 20 21  2  0
 21 22  1  0
 22 14  1  0
 23 12  1  0
 23 25  1  0
 24 23  2  0
M  END
$$$$
