GCW.pdb
     RDKit          3D

 25 26  0  0  1  0  0  0  0  0999 V2000
    7.9519  -13.0321   17.6083 N   0  0  0  0  0  0  0  0  0  0  0  0
    8.8051  -13.2099   18.7694 C   0  0  0  0  0  0  0  0  0  0  0  0
    8.3624  -14.3724   19.5751 C   0  0  0  0  0  0  0  0  0  0  0  0
    7.4684  -15.1646   19.1812 O   0  0  0  0  0  0  0  0  0  0  0  0
    8.9618  -14.6033   20.8306 N   0  0  0  0  0  0  0  0  0  0  0  0
    8.7824  -15.8738   21.5461 C   0  0  1  0  0  0  0  0  0  0  0  0
    9.3496  -16.9352   20.6086 C   0  0  0  0  0  0  0  0  0  0  0  0
   11.0687  -16.6492   20.1778 S   0  0  0  0  0  0  0  0  0  0  0  0
    9.5354  -15.8588   22.8197 C   0  0  0  0  0  0  0  0  0  0  0  0
   10.6513  -15.2304   22.8524 O   0  0  0  0  0  0  0  0  0  0  0  0
    9.1296  -16.4816   24.0206 N   0  0  0  0  0  0  0  0  0  0  0  0
    9.9071  -16.3765   25.2712 C   0  0  1  0  0  0  0  0  0  0  0  0
    9.0056  -16.1596   26.4364 C   0  0  0  0  0  0  0  0  0  0  0  0
    7.8500  -15.2853   26.1917 C   0  0  0  0  0  0  0  0  0  0  0  0
    6.5936  -15.7556   25.7760 C   0  0  0  0  0  0  0  0  0  0  0  0
    5.7320  -14.7342   25.6671 N   0  0  0  0  0  0  0  0  0  0  0  0
    6.3697  -13.5942   25.9955 C   0  0  0  0  0  0  0  0  0  0  0  0
    5.8989  -12.2928   26.0259 C   0  0  0  0  0  0  0  0  0  0  0  0
    6.7712  -11.2954   26.3932 C   0  0  0  0  0  0  0  0  0  0  0  0
    8.0766  -11.5859   26.7208 C   0  0  0  0  0  0  0  0  0  0  0  0
    8.5195  -12.9028   26.6806 C   0  0  0  0  0  0  0  0  0  0  0  0
    7.6718  -13.9326   26.3174 C   0  0  0  0  0  0  0  0  0  0  0  0
   10.8801  -17.4583   25.3725 C   0  0  0  0  0  0  0  0  0  0  0  0
   10.8665  -18.4764   24.6434 O   0  0  0  0  0  0  0  0  0  0  0  0
   11.8903  -17.3681   26.3331 O   0  0  0  0  0  0  0  0  0  0  0  0
  1  2  1  0
  3  2  1  0
  3  4  2  0
  5  3  1  0
  6  5  1  0
  6  9  1  0
  6  7  1  6
  8  7  1  0
  9 11  1  0
  9 10  2  0
 11 12  1  0
 12 13  1  1
 14 15  2  0
 14 13  1  0
 16 15  1  0
 17 22  2  0
 17 16  1  0
 18 17  1  0
 19 20  1  0
 19 18  2  0
 20 21  2  0
 21 22  1  0
 22 14  1  0
 23 12  1  0
 23 25  1  0
 24 23  2  0
M  END
$$$$
