GCW.pdb
     RDKit          3D

 25 26  0  0  1  0  0  0  0  0999 V2000
    8.4414  -16.6518   15.8208 N   0  0  0  0  0  0  0  0  0  0  0  0
    9.2733  -16.8831   16.9879 C   0  0  0  0  0  0  0  0  0  0  0  0
    8.5060  -16.6549   18.2352 C   0  0  0  0  0  0  0  0  0  0  0  0
    7.4508  -15.9708   18.2621 O   0  0  0  0  0  0  0  0  0  0  0  0
    8.9716  -17.2230   19.4390 N   0  0  0  0  0  0  0  0  0  0  0  0
    8.2623  -17.0200   20.7096 C   0  0  1  0  0  0  0  0  0  0  0  0
    7.4948  -18.3177   20.9418 C   0  0  0  0  0  0  0  0  0  0  0  0
    8.5640  -19.7517   21.0937 S   0  0  0  0  0  0  0  0  0  0  0  0
    9.2275  -16.7912   21.8076 C   0  0  0  0  0  0  0  0  0  0  0  0
   10.4489  -17.1265   21.6157 O   0  0  0  0  0  0  0  0  0  0  0  0
    8.9210  -16.2271   23.0655 N   0  0  0  0  0  0  0  0  0  0  0  0
    9.9413  -16.0199   24.1122 C   0  0  1  0  0  0  0  0  0  0  0  0
    9.7278  -14.7205   24.8074 C   0  0  0  0  0  0  0  0  0  0  0  0
    8.3452  -14.4396   25.2191 C   0  0  0  0  0  0  0  0  0  0  0  0
    7.3581  -15.4294   25.3544 C   0  0  0  0  0  0  0  0  0  0  0  0
    6.2090  -14.8802   25.7731 N   0  0  0  0  0  0  0  0  0  0  0  0
    6.3929  -13.5543   25.9222 C   0  0  0  0  0  0  0  0  0  0  0  0
    5.5004  -12.5757   26.3245 C   0  0  0  0  0  0  0  0  0  0  0  0
    5.9457  -11.2761   26.3849 C   0  0  0  0  0  0  0  0  0  0  0  0
    7.2441  -10.9599   26.0534 C   0  0  0  0  0  0  0  0  0  0  0  0
    8.1166  -11.9651   25.6530 C   0  0  0  0  0  0  0  0  0  0  0  0
    7.7058  -13.2831   25.5811 C   0  0  0  0  0  0  0  0  0  0  0  0
   10.0809  -17.2080   24.9465 C   0  0  0  0  0  0  0  0  0  0  0  0
    9.2276  -18.1229   25.0022 O   0  0  0  0  0  0  0  0  0  0  0  0
   11.2261  -17.3473   25.7343 O   0  0  0  0  0  0  0  0  0  0  0  0
  1  2  1  0
  3  2  1  0
  3  4  2  0
  5  3  1  0
  6  5  1  0
  6  9  1  0
  6  7  1  1
  8  7  1  0
  9 11  1  0
  9 10  2  0
 11 12  1  0
 12 13  1  1
 14 15  2  0
 14 13  1  0
 16 15  1  0
 17 22  2  0
 17 16  1  0
 18 17  1  0
 19 20  1  0
 19 18  2  0
 20 21  2  0
 21 22  1  0
 22 14  1  0
 23 12  1  0
 23 25  1  0
 24 23  2  0
M  END
$$$$
