GCW.pdb
     RDKit          3D

 25 26  0  0  1  0  0  0  0  0999 V2000
    5.9764  -19.9367   21.3035 N   0  0  0  0  0  0  0  0  0  0  0  0
    6.0301  -18.6452   21.9646 C   0  0  0  0  0  0  0  0  0  0  0  0
    6.9907  -17.7447   21.2841 C   0  0  0  0  0  0  0  0  0  0  0  0
    7.9476  -18.1784   20.5926 O   0  0  0  0  0  0  0  0  0  0  0  0
    6.8308  -16.3496   21.4136 N   0  0  0  0  0  0  0  0  0  0  0  0
    7.8997  -15.4151   21.0360 C   0  0  1  0  0  0  0  0  0  0  0  0
    7.2075  -14.0627   20.8983 C   0  0  0  0  0  0  0  0  0  0  0  0
    8.2689  -12.7954   20.1982 S   0  0  0  0  0  0  0  0  0  0  0  0
    8.9318  -15.3577   22.0947 C   0  0  0  0  0  0  0  0  0  0  0  0
    9.9851  -14.6632   21.8723 O   0  0  0  0  0  0  0  0  0  0  0  0
    8.8600  -16.0067   23.3471 N   0  0  0  0  0  0  0  0  0  0  0  0
    9.8993  -15.8486   24.3835 C   0  0  1  0  0  0  0  0  0  0  0  0
    9.2913  -15.8359   25.7428 C   0  0  0  0  0  0  0  0  0  0  0  0
    8.0306  -15.0912   25.8682 C   0  0  0  0  0  0  0  0  0  0  0  0
    6.7626  -15.6847   25.7563 C   0  0  0  0  0  0  0  0  0  0  0  0
    5.8052  -14.7659   25.9476 N   0  0  0  0  0  0  0  0  0  0  0  0
    6.3895  -13.5755   26.1834 C   0  0  0  0  0  0  0  0  0  0  0  0
    5.8156  -12.3400   26.4289 C   0  0  0  0  0  0  0  0  0  0  0  0
    6.6496  -11.2656   26.6313 C   0  0  0  0  0  0  0  0  0  0  0  0
    8.0175  -11.4175   26.5900 C   0  0  0  0  0  0  0  0  0  0  0  0
    8.5636  -12.6713   26.3412 C   0  0  0  0  0  0  0  0  0  0  0  0
    7.7575  -13.7751   26.1340 C   0  0  0  0  0  0  0  0  0  0  0  0
   11.0066  -16.7704   24.1564 C   0  0  0  0  0  0  0  0  0  0  0  0
   10.9806  -17.6934   23.3104 O   0  0  0  0  0  0  0  0  0  0  0  0
   12.1686  -16.6284   24.9186 O   0  0  0  0  0  0  0  0  0  0  0  0
  1  2  1  0
  3  2  1  0
  3  4  2  0
  5  3  1  0
  6  5  1  0
  6  9  1  0
  6  7  1  1
  8  7  1  0
  9 11  1  0
  9 10  2  0
 11 12  1  0
 12 13  1  1
 14 15  2  0
 14 13  1  0
 16 15  1  0
 17 22  2  0
 17 16  1  0
 18 17  1  0
 19 20  1  0
 19 18  2  0
 20 21  2  0
 21 22  1  0
 22 14  1  0
 23 12  1  0
 23 25  1  0
 24 23  2  0
M  END
$$$$
