GCW.pdb
     RDKit          3D

 25 26  0  0  1  0  0  0  0  0999 V2000
    7.7909  -12.6068   17.6756 N   0  0  0  0  0  0  0  0  0  0  0  0
    8.8658  -13.1318   18.4983 C   0  0  0  0  0  0  0  0  0  0  0  0
    8.4146  -14.3218   19.2579 C   0  0  0  0  0  0  0  0  0  0  0  0
    7.2014  -14.6390   19.3558 O   0  0  0  0  0  0  0  0  0  0  0  0
    9.3765  -15.1314   19.8966 N   0  0  0  0  0  0  0  0  0  0  0  0
    8.9858  -16.2154   20.8081 C   0  0  1  0  0  0  0  0  0  0  0  0
    9.3430  -17.4994   20.0660 C   0  0  0  0  0  0  0  0  0  0  0  0
    9.2513  -18.9619   21.1030 S   0  0  0  0  0  0  0  0  0  0  0  0
    9.7481  -16.1249   22.0731 C   0  0  0  0  0  0  0  0  0  0  0  0
   11.0006  -15.8647   22.0043 O   0  0  0  0  0  0  0  0  0  0  0  0
    9.2129  -16.2998   23.3683 N   0  0  0  0  0  0  0  0  0  0  0  0
   10.0242  -16.1373   24.5909 C   0  0  1  0  0  0  0  0  0  0  0  0
    9.7508  -14.8228   25.2348 C   0  0  0  0  0  0  0  0  0  0  0  0
    8.3468  -14.5666   25.5854 C   0  0  0  0  0  0  0  0  0  0  0  0
    7.3685  -15.5715   25.6605 C   0  0  0  0  0  0  0  0  0  0  0  0
    6.1935  -15.0440   26.0328 N   0  0  0  0  0  0  0  0  0  0  0  0
    6.3516  -13.7181   26.2091 C   0  0  0  0  0  0  0  0  0  0  0  0
    5.4276  -12.7576   26.5831 C   0  0  0  0  0  0  0  0  0  0  0  0
    5.8513  -11.4532   26.6825 C   0  0  0  0  0  0  0  0  0  0  0  0
    7.1591  -11.1147   26.4165 C   0  0  0  0  0  0  0  0  0  0  0  0
    8.0634  -12.1021   26.0430 C   0  0  0  0  0  0  0  0  0  0  0  0
    7.6750  -13.4243   25.9335 C   0  0  0  0  0  0  0  0  0  0  0  0
    9.9393  -17.3241   25.4344 C   0  0  0  0  0  0  0  0  0  0  0  0
    9.1085  -18.2445   25.2583 O   0  0  0  0  0  0  0  0  0  0  0  0
   10.8282  -17.4555   26.5040 O   0  0  0  0  0  0  0  0  0  0  0  0
  1  2  1  0
  3  2  1  0
  3  4  2  0
  5  3  1  0
  6  5  1  0
  6  9  1  0
  6  7  1  6
  8  7  1  0
  9 11  1  0
  9 10  2  0
 11 12  1  0
 12 13  1  1
 14 15  2  0
 14 13  1  0
 16 15  1  0
 17 22  2  0
 17 16  1  0
 18 17  1  0
 19 20  1  0
 19 18  2  0
 20 21  2  0
 21 22  1  0
 22 14  1  0
 23 12  1  0
 23 25  1  0
 24 23  2  0
M  END
$$$$
