GCW.pdb
     RDKit          3D

 25 26  0  0  1  0  0  0  0  0999 V2000
    7.8714  -20.1006   20.1505 N   0  0  0  0  0  0  0  0  0  0  0  0
    7.2818  -19.0261   20.9287 C   0  0  0  0  0  0  0  0  0  0  0  0
    8.1799  -17.8477   20.9647 C   0  0  0  0  0  0  0  0  0  0  0  0
    9.3637  -17.8891   20.5417 O   0  0  0  0  0  0  0  0  0  0  0  0
    7.6947  -16.6330   21.4917 N   0  0  0  0  0  0  0  0  0  0  0  0
    8.5304  -15.4254   21.5345 C   0  0  1  0  0  0  0  0  0  0  0  0
    7.5436  -14.2635   21.4746 C   0  0  0  0  0  0  0  0  0  0  0  0
    6.2554  -14.3677   22.7205 S   0  0  0  0  0  0  0  0  0  0  0  0
    9.3031  -15.3779   22.7955 C   0  0  0  0  0  0  0  0  0  0  0  0
   10.2183  -14.4885   22.9081 O   0  0  0  0  0  0  0  0  0  0  0  0
    9.1200  -16.2347   23.9032 N   0  0  0  0  0  0  0  0  0  0  0  0
   10.0992  -16.3292   25.0038 C   0  0  1  0  0  0  0  0  0  0  0  0
    9.5448  -15.7428   26.2553 C   0  0  0  0  0  0  0  0  0  0  0  0
    8.2212  -15.1162   26.1314 C   0  0  0  0  0  0  0  0  0  0  0  0
    7.0338  -15.8399   25.9344 C   0  0  0  0  0  0  0  0  0  0  0  0
    5.9863  -15.0043   25.8924 N   0  0  0  0  0  0  0  0  0  0  0  0
    6.4323  -13.7437   26.0541 C   0  0  0  0  0  0  0  0  0  0  0  0
    5.7298  -12.5512   26.0752 C   0  0  0  0  0  0  0  0  0  0  0  0
    6.4365  -11.3845   26.2492 C   0  0  0  0  0  0  0  0  0  0  0  0
    7.8052  -11.4050   26.3977 C   0  0  0  0  0  0  0  0  0  0  0  0
    8.4822  -12.6186   26.3720 C   0  0  0  0  0  0  0  0  0  0  0  0
    7.8062  -13.8122   26.2004 C   0  0  0  0  0  0  0  0  0  0  0  0
   10.6608  -17.6726   25.0881 C   0  0  0  0  0  0  0  0  0  0  0  0
   11.6299  -17.9766   25.8207 O   0  0  0  0  0  0  0  0  0  0  0  0
   10.0964  -18.6886   24.3130 O   0  0  0  0  0  0  0  0  0  0  0  0
  1  2  1  0
  3  2  1  0
  3  4  2  0
  5  3  1  0
  6  5  1  0
  6  9  1  0
  6  7  1  1
  8  7  1  0
  9 11  1  0
  9 10  2  0
 11 12  1  0
 12 13  1  1
 14 15  2  0
 14 13  1  0
 16 15  1  0
 17 22  2  0
 17 16  1  0
 18 17  1  0
 19 20  1  0
 19 18  2  0
 20 21  2  0
 21 22  1  0
 22 14  1  0
 23 12  1  0
 23 25  1  0
 24 23  2  0
M  END
$$$$
