CFY.pdb
     RDKit          3D

 30 31  0  0  1  0  0  0  0  0999 V2000
   28.4866  -19.7868  -14.8856 N   0  0  0  0  0  0  0  0  0  0  0  0
   27.6546  -19.1309  -13.9241 C   0  0  1  0  0  0  0  0  0  0  0  0
   26.7056  -18.1307  -14.5624 C   0  0  0  0  0  0  0  0  0  0  0  0
   27.5394  -16.6171  -15.0478 S   0  0  0  0  0  0  0  0  0  0  0  0
   26.7989  -20.1049  -13.1673 C   0  0  0  0  0  0  0  0  0  0  0  0
   26.5333  -21.2041  -13.7194 O   0  0  0  0  0  0  0  0  0  0  0  0
   26.3172  -19.7851  -11.8834 N   0  0  0  0  0  0  0  0  0  0  0  0
   25.5457  -20.8273  -11.1542 C   0  0  1  0  0  0  0  0  0  0  0  0
   25.6349  -20.5452   -9.6949 C   0  0  0  0  0  0  0  0  0  0  0  0
   26.9739  -20.4949   -9.1029 C   0  0  0  0  0  0  0  0  0  0  0  0
   28.0552  -21.1047   -9.7611 C   0  0  0  0  0  0  0  0  0  0  0  0
   29.3294  -21.0504   -9.2768 C   0  0  0  0  0  0  0  0  0  0  0  0
   29.6139  -20.3840   -8.1023 C   0  0  0  0  0  0  0  0  0  0  0  0
   28.5924  -19.7825   -7.4387 C   0  0  0  0  0  0  0  0  0  0  0  0
   27.3067  -19.8442   -7.9382 C   0  0  0  0  0  0  0  0  0  0  0  0
   24.1814  -20.7173  -11.6696 C   0  0  0  0  0  0  0  0  0  0  0  0
   23.5099  -19.6652  -11.3889 O   0  0  0  0  0  0  0  0  0  0  0  0
   18.4091  -18.7039  -17.3284 O   0  0  0  0  0  0  0  0  0  0  0  0
   19.4890  -19.0817  -16.5341 C   0  0  0  0  0  0  0  0  0  0  0  0
   19.5244  -18.5914  -15.2318 C   0  0  0  0  0  0  0  0  0  0  0  0
   20.5719  -18.9366  -14.4071 C   0  0  0  0  0  0  0  0  0  0  0  0
   21.5692  -19.7579  -14.8729 C   0  0  0  0  0  0  0  0  0  0  0  0
   22.6864  -20.1250  -14.0023 C   0  0  0  0  0  0  0  0  0  0  0  0
   22.2909  -21.3111  -13.1094 C   0  0  2  0  0  0  0  0  0  0  0  0
   23.5583  -21.6906  -12.4639 N   0  0  0  0  0  0  0  0  0  0  0  0
   21.7624  -22.4197  -13.8671 C   0  0  0  0  0  0  0  0  0  0  0  0
   20.5127  -22.6072  -13.9624 O   0  0  0  0  0  0  0  0  0  0  0  0
   21.5538  -20.2603  -16.1733 C   0  0  0  0  0  0  0  0  0  0  0  0
   20.4980  -19.9042  -16.9836 C   0  0  0  0  0  0  0  0  0  0  0  0
   22.5634  -23.3218  -14.5203 O   0  0  0  0  0  0  0  0  0  0  0  0
  2  1  1  6
  3  2  1  0
  4  3  1  0
  5  6  2  0
  5  2  1  0
  7  5  1  0
  8  7  1  0
  8  9  1  1
 10  9  1  0
 10 11  2  0
 12 11  1  0
 13 12  2  0
 14 15  2  0
 14 13  1  0
 15 10  1  0
 16  8  1  0
 17 16  2  0
 19 29  2  0
 19 18  1  0
 20 19  1  0
 21 22  1  0
 21 20  2  0
 22 28  2  0
 23 22  1  0
 24 23  1  6
 24 25  1  0
 25 16  1  0
 26 24  1  0
 26 30  1  0
 27 26  2  0
 28 29  1  0
M  END
$$$$
