CFY.pdb
     RDKit          3D

 30 31  0  0  1  0  0  0  0  0999 V2000
   27.7234  -22.7626  -16.4827 N   0  0  0  0  0  0  0  0  0  0  0  0
   26.9856  -21.5749  -16.1796 C   0  0  1  0  0  0  0  0  0  0  0  0
   25.9319  -21.2615  -17.2283 C   0  0  0  0  0  0  0  0  0  0  0  0
   26.6572  -20.7653  -18.7934 S   0  0  0  0  0  0  0  0  0  0  0  0
   26.2613  -21.6850  -14.8694 C   0  0  0  0  0  0  0  0  0  0  0  0
   25.9075  -22.8314  -14.4897 O   0  0  0  0  0  0  0  0  0  0  0  0
   25.9938  -20.5351  -14.1021 N   0  0  0  0  0  0  0  0  0  0  0  0
   25.2780  -20.7158  -12.8105 C   0  0  1  0  0  0  0  0  0  0  0  0
   26.0170  -19.9713  -11.7538 C   0  0  0  0  0  0  0  0  0  0  0  0
   27.3608  -20.4459  -11.4152 C   0  0  0  0  0  0  0  0  0  0  0  0
   28.4607  -20.0540  -12.1969 C   0  0  0  0  0  0  0  0  0  0  0  0
   29.7380  -20.4309  -11.9010 C   0  0  0  0  0  0  0  0  0  0  0  0
   30.0074  -21.2248  -10.8047 C   0  0  0  0  0  0  0  0  0  0  0  0
   28.9676  -21.6228  -10.0260 C   0  0  0  0  0  0  0  0  0  0  0  0
   27.6789  -21.2355  -10.3354 C   0  0  0  0  0  0  0  0  0  0  0  0
   23.9360  -20.1835  -13.0448 C   0  0  0  0  0  0  0  0  0  0  0  0
   23.7822  -19.3101  -13.9667 O   0  0  0  0  0  0  0  0  0  0  0  0
   22.4908  -18.5796  -18.9451 O   0  0  0  0  0  0  0  0  0  0  0  0
   22.3269  -19.3383  -17.7886 C   0  0  0  0  0  0  0  0  0  0  0  0
   21.5578  -18.7862  -16.7681 C   0  0  0  0  0  0  0  0  0  0  0  0
   21.3664  -19.4976  -15.6046 C   0  0  0  0  0  0  0  0  0  0  0  0
   21.9328  -20.7404  -15.4599 C   0  0  0  0  0  0  0  0  0  0  0  0
   21.7358  -21.4992  -14.2245 C   0  0  0  0  0  0  0  0  0  0  0  0
   21.5125  -20.5388  -13.0462 C   0  0  2  0  0  0  0  0  0  0  0  0
   22.7966  -20.5754  -12.3274 N   0  0  0  0  0  0  0  0  0  0  0  0
   20.4408  -20.9680  -12.1804 C   0  0  0  0  0  0  0  0  0  0  0  0
   19.3290  -20.3599  -12.1688 O   0  0  0  0  0  0  0  0  0  0  0  0
   22.7064  -21.3123  -16.4689 C   0  0  0  0  0  0  0  0  0  0  0  0
   22.8868  -20.5858  -17.6255 C   0  0  0  0  0  0  0  0  0  0  0  0
   20.5550  -22.0409  -11.3331 O   0  0  0  0  0  0  0  0  0  0  0  0
  2  1  1  6
  3  2  1  0
  4  3  1  0
  5  6  2  0
  5  2  1  0
  7  5  1  0
  8  7  1  0
  8  9  1  1
 10  9  1  0
 10 11  2  0
 12 11  1  0
 13 12  2  0
 14 15  2  0
 14 13  1  0
 15 10  1  0
 16  8  1  0
 17 16  2  0
 19 29  2  0
 19 18  1  0
 20 19  1  0
 21 22  1  0
 21 20  2  0
 22 28  2  0
 23 22  1  0
 24 23  1  6
 24 25  1  0
 25 16  1  0
 26 24  1  0
 26 30  1  0
 27 26  2  0
 28 29  1  0
M  END
$$$$
