CFY.pdb
     RDKit          3D

 30 31  0  0  1  0  0  0  0  0999 V2000
   31.0894  -23.4280  -16.3807 N   0  0  0  0  0  0  0  0  0  0  0  0
   29.8627  -23.3598  -17.1139 C   0  0  1  0  0  0  0  0  0  0  0  0
   28.8850  -24.4519  -16.7141 C   0  0  0  0  0  0  0  0  0  0  0  0
   29.6659  -26.0659  -16.6304 S   0  0  0  0  0  0  0  0  0  0  0  0
   29.1533  -22.0547  -16.8978 C   0  0  0  0  0  0  0  0  0  0  0  0
   29.3928  -21.4264  -15.8341 O   0  0  0  0  0  0  0  0  0  0  0  0
   28.2528  -21.5628  -17.8620 N   0  0  0  0  0  0  0  0  0  0  0  0
   27.6646  -20.2151  -17.6361 C   0  0  1  0  0  0  0  0  0  0  0  0
   27.9454  -19.3718  -18.8307 C   0  0  0  0  0  0  0  0  0  0  0  0
   29.1901  -18.5995  -18.8279 C   0  0  0  0  0  0  0  0  0  0  0  0
   29.1607  -17.2228  -18.5484 C   0  0  0  0  0  0  0  0  0  0  0  0
   30.2938  -16.4653  -18.4898 C   0  0  0  0  0  0  0  0  0  0  0  0
   31.5352  -17.0282  -18.7059 C   0  0  0  0  0  0  0  0  0  0  0  0
   31.6016  -18.3574  -18.9791 C   0  0  0  0  0  0  0  0  0  0  0  0
   30.4481  -19.1141  -19.0361 C   0  0  0  0  0  0  0  0  0  0  0  0
   26.2359  -20.4554  -17.4359 C   0  0  0  0  0  0  0  0  0  0  0  0
   25.7698  -21.6127  -17.7185 O   0  0  0  0  0  0  0  0  0  0  0  0
   19.4381  -22.4115  -12.9651 O   0  0  0  0  0  0  0  0  0  0  0  0
   20.6427  -22.0484  -13.5627 C   0  0  0  0  0  0  0  0  0  0  0  0
   21.1825  -20.8148  -13.2100 C   0  0  0  0  0  0  0  0  0  0  0  0
   22.3722  -20.4107  -13.7738 C   0  0  0  0  0  0  0  0  0  0  0  0
   23.0143  -21.2235  -14.6756 C   0  0  0  0  0  0  0  0  0  0  0  0
   24.2767  -20.7978  -15.2806 C   0  0  0  0  0  0  0  0  0  0  0  0
   24.0022  -19.9784  -16.5510 C   0  0  2  0  0  0  0  0  0  0  0  0
   25.3373  -19.4981  -16.9431 N   0  0  0  0  0  0  0  0  0  0  0  0
   23.1195  -18.8629  -16.3078 C   0  0  0  0  0  0  0  0  0  0  0  0
   23.5776  -17.7313  -15.9678 O   0  0  0  0  0  0  0  0  0  0  0  0
   22.4918  -22.4627  -15.0431 C   0  0  0  0  0  0  0  0  0  0  0  0
   21.3010  -22.8499  -14.4686 C   0  0  0  0  0  0  0  0  0  0  0  0
   21.7561  -18.9549  -16.4285 O   0  0  0  0  0  0  0  0  0  0  0  0
  2  1  1  1
  3  2  1  0
  4  3  1  0
  5  6  2  0
  5  2  1  0
  7  5  1  0
  8  7  1  0
  8  9  1  6
 10  9  1  0
 10 11  2  0
 12 11  1  0
 13 12  2  0
 14 15  2  0
 14 13  1  0
 15 10  1  0
 16  8  1  0
 17 16  2  0
 19 29  2  0
 19 18  1  0
 20 19  1  0
 21 22  1  0
 21 20  2  0
 22 28  2  0
 23 22  1  0
 24 23  1  1
 24 25  1  0
 25 16  1  0
 26 24  1  0
 26 30  1  0
 27 26  2  0
 28 29  1  0
M  END
$$$$
