CFY.pdb
     RDKit          3D

 30 31  0  0  1  0  0  0  0  0999 V2000
   28.0868  -22.6879  -17.3691 N   0  0  0  0  0  0  0  0  0  0  0  0
   28.1797  -21.5066  -16.5674 C   0  0  1  0  0  0  0  0  0  0  0  0
   27.5986  -20.2860  -17.2611 C   0  0  0  0  0  0  0  0  0  0  0  0
   25.8510  -20.4777  -17.6229 S   0  0  0  0  0  0  0  0  0  0  0  0
   27.4383  -21.6508  -15.2701 C   0  0  0  0  0  0  0  0  0  0  0  0
   26.6383  -22.6155  -15.1562 O   0  0  0  0  0  0  0  0  0  0  0  0
   27.6418  -20.7297  -14.2248 N   0  0  0  0  0  0  0  0  0  0  0  0
   27.0060  -21.0212  -12.9117 C   0  0  1  0  0  0  0  0  0  0  0  0
   27.7241  -20.2513  -11.8588 C   0  0  0  0  0  0  0  0  0  0  0  0
   27.1529  -20.2675  -10.5100 C   0  0  0  0  0  0  0  0  0  0  0  0
   27.8493  -20.8907   -9.4608 C   0  0  0  0  0  0  0  0  0  0  0  0
   27.3845  -20.8971   -8.1783 C   0  0  0  0  0  0  0  0  0  0  0  0
   26.1926  -20.2822   -7.8528 C   0  0  0  0  0  0  0  0  0  0  0  0
   25.4920  -19.6695   -8.8425 C   0  0  0  0  0  0  0  0  0  0  0  0
   25.9721  -19.6696  -10.1371 C   0  0  0  0  0  0  0  0  0  0  0  0
   25.6124  -20.6049  -13.0663 C   0  0  0  0  0  0  0  0  0  0  0  0
   25.3692  -19.5275  -13.7117 O   0  0  0  0  0  0  0  0  0  0  0  0
   17.2992  -20.1846  -14.9636 O   0  0  0  0  0  0  0  0  0  0  0  0
   18.6340  -20.5090  -14.7337 C   0  0  0  0  0  0  0  0  0  0  0  0
   18.8925  -21.5628  -13.8617 C   0  0  0  0  0  0  0  0  0  0  0  0
   20.1964  -21.9218  -13.6020 C   0  0  0  0  0  0  0  0  0  0  0  0
   21.2274  -21.2409  -14.2019 C   0  0  0  0  0  0  0  0  0  0  0  0
   22.6147  -21.6155  -13.9269 C   0  0  0  0  0  0  0  0  0  0  0  0
   23.1819  -20.7431  -12.7964 C   0  0  2  0  0  0  0  0  0  0  0  0
   24.5163  -21.3171  -12.5584 N   0  0  0  0  0  0  0  0  0  0  0  0
   22.3853  -20.8108  -11.5950 C   0  0  0  0  0  0  0  0  0  0  0  0
   22.5455  -21.7495  -10.7588 O   0  0  0  0  0  0  0  0  0  0  0  0
   20.9914  -20.1827  -15.0783 C   0  0  0  0  0  0  0  0  0  0  0  0
   19.6807  -19.8380  -15.3260 C   0  0  0  0  0  0  0  0  0  0  0  0
   21.4246  -19.8810  -11.2876 O   0  0  0  0  0  0  0  0  0  0  0  0
  2  1  1  6
  3  2  1  0
  4  3  1  0
  5  6  2  0
  5  2  1  0
  7  5  1  0
  8  7  1  0
  8  9  1  1
 10  9  1  0
 10 11  2  0
 12 11  1  0
 13 12  2  0
 14 15  2  0
 14 13  1  0
 15 10  1  0
 16  8  1  0
 17 16  2  0
 19 29  2  0
 19 18  1  0
 20 19  1  0
 21 22  1  0
 21 20  2  0
 22 28  2  0
 23 22  1  0
 24 23  1  6
 24 25  1  0
 25 16  1  0
 26 24  1  0
 26 30  1  0
 27 26  2  0
 28 29  1  0
M  END
$$$$
