CFY.pdb
     RDKit          3D

 30 31  0  0  1  0  0  0  0  0999 V2000
   22.2258  -34.2870   -6.7018 N   0  0  0  0  0  0  0  0  0  0  0  0
   21.3720  -34.2240   -5.5554 C   0  0  1  0  0  0  0  0  0  0  0  0
   20.1320  -35.0890   -5.7057 C   0  0  0  0  0  0  0  0  0  0  0  0
   18.9352  -34.3709   -6.8344 S   0  0  0  0  0  0  0  0  0  0  0  0
   22.0692  -34.6936   -4.3117 C   0  0  0  0  0  0  0  0  0  0  0  0
   22.8494  -35.6758   -4.4124 O   0  0  0  0  0  0  0  0  0  0  0  0
   21.8476  -34.0466   -3.0809 N   0  0  0  0  0  0  0  0  0  0  0  0
   22.6842  -34.4588   -1.9218 C   0  0  1  0  0  0  0  0  0  0  0  0
   23.6779  -33.3834   -1.6515 C   0  0  0  0  0  0  0  0  0  0  0  0
   24.8380  -33.3039   -2.5424 C   0  0  0  0  0  0  0  0  0  0  0  0
   26.0412  -33.9356   -2.1852 C   0  0  0  0  0  0  0  0  0  0  0  0
   27.1376  -33.9302   -2.9970 C   0  0  0  0  0  0  0  0  0  0  0  0
   27.1104  -33.2944   -4.2216 C   0  0  0  0  0  0  0  0  0  0  0  0
   25.9631  -32.6727   -4.5998 C   0  0  0  0  0  0  0  0  0  0  0  0
   24.8596  -32.6845   -3.7699 C   0  0  0  0  0  0  0  0  0  0  0  0
   21.7390  -34.6457   -0.8213 C   0  0  0  0  0  0  0  0  0  0  0  0
   20.5614  -34.1612   -0.9442 O   0  0  0  0  0  0  0  0  0  0  0  0
   15.7158  -37.8149    3.9678 O   0  0  0  0  0  0  0  0  0  0  0  0
   16.7312  -37.4049    3.1071 C   0  0  0  0  0  0  0  0  0  0  0  0
   17.8550  -38.2209    3.0133 C   0  0  0  0  0  0  0  0  0  0  0  0
   18.8864  -37.8585    2.1757 C   0  0  0  0  0  0  0  0  0  0  0  0
   18.7994  -36.7003    1.4427 C   0  0  0  0  0  0  0  0  0  0  0  0
   19.8936  -36.3084    0.5540 C   0  0  0  0  0  0  0  0  0  0  0  0
   20.9389  -35.4947    1.3324 C   0  0  2  0  0  0  0  0  0  0  0  0
   22.0361  -35.3328    0.3645 N   0  0  0  0  0  0  0  0  0  0  0  0
   21.4076  -36.1830    2.5111 C   0  0  0  0  0  0  0  0  0  0  0  0
   20.6111  -36.4851    3.4493 O   0  0  0  0  0  0  0  0  0  0  0  0
   17.6834  -35.8684    1.5212 C   0  0  0  0  0  0  0  0  0  0  0  0
   16.6618  -36.2474    2.3643 C   0  0  0  0  0  0  0  0  0  0  0  0
   22.7185  -36.5477    2.6861 O   0  0  0  0  0  0  0  0  0  0  0  0
  2  1  1  6
  3  2  1  0
  4  3  1  0
  5  6  2  0
  5  2  1  0
  7  5  1  0
  8  7  1  0
  8  9  1  1
 10  9  1  0
 10 11  2  0
 12 11  1  0
 13 12  2  0
 14 15  2  0
 14 13  1  0
 15 10  1  0
 16  8  1  0
 17 16  2  0
 19 29  2  0
 19 18  1  0
 20 19  1  0
 21 22  1  0
 21 20  2  0
 22 28  2  0
 23 22  1  0
 24 23  1  6
 24 25  1  0
 25 16  1  0
 26 24  1  0
 26 30  1  0
 27 26  2  0
 28 29  1  0
M  END
$$$$
