CFY.pdb
     RDKit          3D

 30 31  0  0  1  0  0  0  0  0999 V2000
   29.2882  -21.9575  -14.0260 N   0  0  0  0  0  0  0  0  0  0  0  0
   29.3866  -20.8534  -13.1215 C   0  0  1  0  0  0  0  0  0  0  0  0
   28.6050  -19.6405  -13.5974 C   0  0  0  0  0  0  0  0  0  0  0  0
   29.1560  -19.0653  -15.2059 S   0  0  0  0  0  0  0  0  0  0  0  0
   28.8530  -21.1953  -11.7607 C   0  0  0  0  0  0  0  0  0  0  0  0
   27.9402  -22.0587  -11.6889 O   0  0  0  0  0  0  0  0  0  0  0  0
   29.3665  -20.5628  -10.6123 N   0  0  0  0  0  0  0  0  0  0  0  0
   28.7150  -20.8603   -9.3084 C   0  0  1  0  0  0  0  0  0  0  0  0
   29.5562  -20.2902   -8.2201 C   0  0  0  0  0  0  0  0  0  0  0  0
   28.9603  -20.2117   -6.8842 C   0  0  0  0  0  0  0  0  0  0  0  0
   28.2443  -19.0647   -6.5019 C   0  0  0  0  0  0  0  0  0  0  0  0
   27.6326  -18.9570   -5.2872 C   0  0  0  0  0  0  0  0  0  0  0  0
   27.6926  -19.9857   -4.3692 C   0  0  0  0  0  0  0  0  0  0  0  0
   28.3769  -21.1103   -4.7050 C   0  0  0  0  0  0  0  0  0  0  0  0
   28.9922  -21.2081   -5.9372 C   0  0  0  0  0  0  0  0  0  0  0  0
   27.3968  -20.2322   -9.3929 C   0  0  0  0  0  0  0  0  0  0  0  0
   27.2826  -19.1495  -10.0646 O   0  0  0  0  0  0  0  0  0  0  0  0
   19.8543  -19.7956  -12.9714 O   0  0  0  0  0  0  0  0  0  0  0  0
   21.0880  -20.0912  -12.3965 C   0  0  0  0  0  0  0  0  0  0  0  0
   22.0901  -19.1317  -12.5100 C   0  0  0  0  0  0  0  0  0  0  0  0
   23.3276  -19.3772  -11.9581 C   0  0  0  0  0  0  0  0  0  0  0  0
   23.5633  -20.5611  -11.3029 C   0  0  0  0  0  0  0  0  0  0  0  0
   24.8773  -20.8289  -10.7178 C   0  0  0  0  0  0  0  0  0  0  0  0
   24.9493  -20.2493   -9.2967 C   0  0  2  0  0  0  0  0  0  0  0  0
   26.2393  -20.7454   -8.7900 N   0  0  0  0  0  0  0  0  0  0  0  0
   23.8699  -20.7110   -8.4574 C   0  0  0  0  0  0  0  0  0  0  0  0
   24.0026  -21.7428   -7.7337 O   0  0  0  0  0  0  0  0  0  0  0  0
   22.5745  -21.5358  -11.1774 C   0  0  0  0  0  0  0  0  0  0  0  0
   21.3428  -21.2724  -11.7359 C   0  0  0  0  0  0  0  0  0  0  0  0
   22.6568  -20.0739   -8.3903 O   0  0  0  0  0  0  0  0  0  0  0  0
  2  1  1  6
  3  2  1  0
  4  3  1  0
  5  6  2  0
  5  2  1  0
  7  5  1  0
  8  7  1  0
  8  9  1  1
 10  9  1  0
 10 11  2  0
 12 11  1  0
 13 12  2  0
 14 15  2  0
 14 13  1  0
 15 10  1  0
 16  8  1  0
 17 16  2  0
 19 29  2  0
 19 18  1  0
 20 19  1  0
 21 22  1  0
 21 20  2  0
 22 28  2  0
 23 22  1  0
 24 23  1  6
 24 25  1  0
 25 16  1  0
 26 24  1  0
 26 30  1  0
 27 26  2  0
 28 29  1  0
M  END
$$$$
