CFY.pdb
     RDKit          3D

 30 31  0  0  1  0  0  0  0  0999 V2000
   26.4532  -20.2354   -8.1494 N   0  0  0  0  0  0  0  0  0  0  0  0
   25.6817  -20.8325   -9.1959 C   0  0  1  0  0  0  0  0  0  0  0  0
   24.1869  -20.7467   -8.9377 C   0  0  0  0  0  0  0  0  0  0  0  0
   23.6904  -21.6958   -7.4974 S   0  0  0  0  0  0  0  0  0  0  0  0
   25.9231  -20.1663  -10.5192 C   0  0  0  0  0  0  0  0  0  0  0  0
   25.9033  -18.9085  -10.5546 O   0  0  0  0  0  0  0  0  0  0  0  0
   26.1622  -20.9363  -11.6736 N   0  0  0  0  0  0  0  0  0  0  0  0
   26.3876  -20.2127  -12.9538 C   0  0  1  0  0  0  0  0  0  0  0  0
   27.4207  -20.9472  -13.7350 C   0  0  0  0  0  0  0  0  0  0  0  0
   27.6166  -20.5460  -15.1301 C   0  0  0  0  0  0  0  0  0  0  0  0
   28.5940  -19.5900  -15.4544 C   0  0  0  0  0  0  0  0  0  0  0  0
   28.8478  -19.2127  -16.7406 C   0  0  0  0  0  0  0  0  0  0  0  0
   28.1444  -19.7625  -17.7930 C   0  0  0  0  0  0  0  0  0  0  0  0
   27.1912  -20.6902  -17.5165 C   0  0  0  0  0  0  0  0  0  0  0  0
   26.9428  -21.0643  -16.2109 C   0  0  0  0  0  0  0  0  0  0  0  0
   25.0826  -20.1983  -13.6142 C   0  0  0  0  0  0  0  0  0  0  0  0
   24.2817  -21.1718  -13.3965 O   0  0  0  0  0  0  0  0  0  0  0  0
   17.0645  -18.7604  -15.7143 O   0  0  0  0  0  0  0  0  0  0  0  0
   18.3833  -18.7574  -15.2664 C   0  0  0  0  0  0  0  0  0  0  0  0
   18.9813  -19.9935  -15.0378 C   0  0  0  0  0  0  0  0  0  0  0  0
   20.2841  -20.0431  -14.5941 C   0  0  0  0  0  0  0  0  0  0  0  0
   20.9806  -18.8787  -14.3814 C   0  0  0  0  0  0  0  0  0  0  0  0
   22.3637  -18.9253  -13.9066 C   0  0  0  0  0  0  0  0  0  0  0  0
   23.3014  -19.3305  -15.0543 C   0  0  2  0  0  0  0  0  0  0  0  0
   24.6436  -19.1773  -14.4695 N   0  0  0  0  0  0  0  0  0  0  0  0
   23.1580  -18.4788  -16.2105 C   0  0  0  0  0  0  0  0  0  0  0  0
   23.8684  -17.4381  -16.3455 O   0  0  0  0  0  0  0  0  0  0  0  0
   20.4014  -17.6302  -14.6039 C   0  0  0  0  0  0  0  0  0  0  0  0
   19.0975  -17.6005  -15.0476 C   0  0  0  0  0  0  0  0  0  0  0  0
   22.2625  -18.7377  -17.2170 O   0  0  0  0  0  0  0  0  0  0  0  0
  2  1  1  1
  3  2  1  0
  4  3  1  0
  5  6  2  0
  5  2  1  0
  7  5  1  0
  8  7  1  0
  8  9  1  6
 10  9  1  0
 10 11  2  0
 12 11  1  0
 13 12  2  0
 14 15  2  0
 14 13  1  0
 15 10  1  0
 16  8  1  0
 17 16  2  0
 19 29  2  0
 19 18  1  0
 20 19  1  0
 21 22  1  0
 21 20  2  0
 22 28  2  0
 23 22  1  0
 24 23  1  1
 24 25  1  0
 25 16  1  0
 26 24  1  0
 26 30  1  0
 27 26  2  0
 28 29  1  0
M  END
$$$$
