CFY.pdb
     RDKit          3D

 30 31  0  0  1  0  0  0  0  0999 V2000
   24.1122  -13.4544  -17.6287 N   0  0  0  0  0  0  0  0  0  0  0  0
   23.3519  -12.3324  -18.0869 C   0  0  1  0  0  0  0  0  0  0  0  0
   21.9214  -12.7041  -18.4390 C   0  0  0  0  0  0  0  0  0  0  0  0
   21.8400  -14.0849  -19.5830 S   0  0  0  0  0  0  0  0  0  0  0  0
   23.2665  -11.2523  -17.0479 C   0  0  0  0  0  0  0  0  0  0  0  0
   23.1539  -11.6037  -15.8448 O   0  0  0  0  0  0  0  0  0  0  0  0
   23.3123   -9.8957  -17.4223 N   0  0  0  0  0  0  0  0  0  0  0  0
   23.2993   -8.8775  -16.3377 C   0  0  1  0  0  0  0  0  0  0  0  0
   24.5766   -8.1142  -16.3923 C   0  0  0  0  0  0  0  0  0  0  0  0
   25.8114   -8.8544  -16.1217 C   0  0  0  0  0  0  0  0  0  0  0  0
   26.8215   -8.9137  -17.0967 C   0  0  0  0  0  0  0  0  0  0  0  0
   28.0079   -9.5516  -16.8808 C   0  0  0  0  0  0  0  0  0  0  0  0
   28.2696  -10.1748  -15.6776 C   0  0  0  0  0  0  0  0  0  0  0  0
   27.3151  -10.1376  -14.7115 C   0  0  0  0  0  0  0  0  0  0  0  0
   26.1179   -9.4892  -14.9412 C   0  0  0  0  0  0  0  0  0  0  0  0
   22.1297   -8.0444  -16.6158 C   0  0  0  0  0  0  0  0  0  0  0  0
   21.9265   -7.6669  -17.8211 O   0  0  0  0  0  0  0  0  0  0  0  0
   17.2905  -11.6993  -18.7289 O   0  0  0  0  0  0  0  0  0  0  0  0
   17.6931  -10.6566  -17.8978 C   0  0  0  0  0  0  0  0  0  0  0  0
   17.5053   -9.3594  -18.3665 C   0  0  0  0  0  0  0  0  0  0  0  0
   17.8873   -8.2944  -17.5815 C   0  0  0  0  0  0  0  0  0  0  0  0
   18.4481   -8.5185  -16.3480 C   0  0  0  0  0  0  0  0  0  0  0  0
   18.8592   -7.3909  -15.5111 C   0  0  0  0  0  0  0  0  0  0  0  0
   20.1249   -6.7394  -16.0894 C   0  0  2  0  0  0  0  0  0  0  0  0
   21.2044   -7.6358  -15.6445 N   0  0  0  0  0  0  0  0  0  0  0  0
   20.3395   -5.4056  -15.5821 C   0  0  0  0  0  0  0  0  0  0  0  0
   19.5191   -4.4729  -15.8331 O   0  0  0  0  0  0  0  0  0  0  0  0
   18.6453   -9.8090  -15.8589 C   0  0  0  0  0  0  0  0  0  0  0  0
   18.2570  -10.8618  -16.6583 C   0  0  0  0  0  0  0  0  0  0  0  0
   21.4230   -5.0701  -14.8103 O   0  0  0  0  0  0  0  0  0  0  0  0
  2  1  1  1
  3  2  1  0
  4  3  1  0
  5  6  2  0
  5  2  1  0
  7  5  1  0
  8  7  1  0
  8  9  1  6
 10  9  1  0
 10 11  2  0
 12 11  1  0
 13 12  2  0
 14 15  2  0
 14 13  1  0
 15 10  1  0
 16  8  1  0
 17 16  2  0
 19 29  2  0
 19 18  1  0
 20 19  1  0
 21 22  1  0
 21 20  2  0
 22 28  2  0
 23 22  1  0
 24 23  1  1
 24 25  1  0
 25 16  1  0
 26 24  1  0
 26 30  1  0
 27 26  2  0
 28 29  1  0
M  END
$$$$
