CFY.pdb
     RDKit          3D

 30 31  0  0  1  0  0  0  0  0999 V2000
   20.7419  -10.1049  -19.6372 N   0  0  0  0  0  0  0  0  0  0  0  0
   21.1476   -8.9352  -18.9202 C   0  0  1  0  0  0  0  0  0  0  0  0
   20.2827   -7.7277  -19.2404 C   0  0  0  0  0  0  0  0  0  0  0  0
   20.8487   -6.8550  -20.7032 S   0  0  0  0  0  0  0  0  0  0  0  0
   21.0670   -9.1334  -17.4344 C   0  0  0  0  0  0  0  0  0  0  0  0
   20.0948   -9.7926  -16.9828 O   0  0  0  0  0  0  0  0  0  0  0  0
   22.0536   -8.5937  -16.5871 N   0  0  0  0  0  0  0  0  0  0  0  0
   21.9796   -8.9261  -15.1389 C   0  0  1  0  0  0  0  0  0  0  0  0
   23.2073   -9.6812  -14.7651 C   0  0  0  0  0  0  0  0  0  0  0  0
   23.4630  -10.9374  -15.4739 C   0  0  0  0  0  0  0  0  0  0  0  0
   22.8369  -12.1218  -15.0502 C   0  0  0  0  0  0  0  0  0  0  0  0
   23.0053  -13.3094  -15.7000 C   0  0  0  0  0  0  0  0  0  0  0  0
   23.8099  -13.3985  -16.8178 C   0  0  0  0  0  0  0  0  0  0  0  0
   24.4314  -12.2727  -17.2560 C   0  0  0  0  0  0  0  0  0  0  0  0
   24.2538  -11.0762  -16.5902 C   0  0  0  0  0  0  0  0  0  0  0  0
   21.8805   -7.6346  -14.4596 C   0  0  0  0  0  0  0  0  0  0  0  0
   21.7385   -7.6273  -13.1882 O   0  0  0  0  0  0  0  0  0  0  0  0
   21.9252   -2.3366  -19.8880 O   0  0  0  0  0  0  0  0  0  0  0  0
   22.1869   -2.8552  -18.6221 C   0  0  0  0  0  0  0  0  0  0  0  0
   21.8040   -2.0860  -17.5269 C   0  0  0  0  0  0  0  0  0  0  0  0
   22.0412   -2.5556  -16.2542 C   0  0  0  0  0  0  0  0  0  0  0  0
   22.6509   -3.7732  -16.0755 C   0  0  0  0  0  0  0  0  0  0  0  0
   22.9087   -4.2755  -14.7256 C   0  0  0  0  0  0  0  0  0  0  0  0
   21.7621   -5.1949  -14.2776 C   0  0  2  0  0  0  0  0  0  0  0  0
   21.9400   -6.3946  -15.1118 N   0  0  0  0  0  0  0  0  0  0  0  0
   20.4634   -4.6103  -14.5104 C   0  0  0  0  0  0  0  0  0  0  0  0
   19.6717   -5.1021  -15.3691 O   0  0  0  0  0  0  0  0  0  0  0  0
   23.0425   -4.5599  -17.1578 C   0  0  0  0  0  0  0  0  0  0  0  0
   22.7969   -4.0737  -18.4233 C   0  0  0  0  0  0  0  0  0  0  0  0
   20.0123   -3.5082  -13.8294 O   0  0  0  0  0  0  0  0  0  0  0  0
  2  1  1  6
  3  2  1  0
  4  3  1  0
  5  6  2  0
  5  2  1  0
  7  5  1  0
  8  7  1  0
  8  9  1  1
 10  9  1  0
 10 11  2  0
 12 11  1  0
 13 12  2  0
 14 15  2  0
 14 13  1  0
 15 10  1  0
 16  8  1  0
 17 16  2  0
 19 29  2  0
 19 18  1  0
 20 19  1  0
 21 22  1  0
 21 20  2  0
 22 28  2  0
 23 22  1  0
 24 23  1  6
 24 25  1  0
 25 16  1  0
 26 24  1  0
 26 30  1  0
 27 26  2  0
 28 29  1  0
M  END
$$$$
