ELQ.pdb
     RDKit          3D

 27 26  0  0  1  0  0  0  0  0999 V2000
   26.7062  -22.3162  -15.8294 N   0  0  0  0  0  0  0  0  0  0  0  0
   26.1144  -21.1840  -15.2179 C   0  0  1  0  0  0  0  0  0  0  0  0
   25.3341  -20.2589  -16.0715 C   0  0  0  0  0  0  0  0  0  0  0  0
   25.9977  -19.7341  -17.3007 C   0  0  0  0  0  0  0  0  0  0  0  0
   27.2251  -18.9819  -17.0328 C   0  0  0  0  0  0  0  0  0  0  0  0
   27.2247  -17.8686  -16.4923 O   0  0  0  0  0  0  0  0  0  0  0  0
   25.2220  -21.6632  -14.0951 C   0  0  0  0  0  0  0  0  0  0  0  0
   24.5031  -22.6487  -14.2809 O   0  0  0  0  0  0  0  0  0  0  0  0
   28.4589  -19.5271  -17.3954 O   0  0  0  0  0  0  0  0  0  0  0  0
   25.7627  -19.8301   -8.8290 C   0  0  0  0  0  0  0  0  0  0  0  0
   26.2246  -20.4229  -10.1457 C   0  0  1  0  0  0  0  0  0  0  0  0
   27.6888  -20.9019   -9.9401 C   0  0  0  0  0  0  0  0  0  0  0  0
   25.4444  -21.6628  -10.5019 C   0  0  0  0  0  0  0  0  0  0  0  0
   24.5706  -21.3357  -11.6982 C   0  0  2  0  0  0  0  0  0  0  0  0
   25.2598  -20.9498  -12.8793 N   0  0  0  0  0  0  0  0  0  0  0  0
   23.4041  -20.5097  -11.3607 C   0  0  0  0  0  0  0  0  0  0  0  0
   22.6554  -20.7532  -10.3714 O   0  0  0  0  0  0  0  0  0  0  0  0
   21.6872  -18.4626  -16.6234 N   0  0  0  0  0  0  0  0  0  0  0  0
   20.6255  -19.2607  -16.1853 C   0  0  0  0  0  0  0  0  0  0  0  0
   19.5876  -19.3233  -16.8950 O   0  0  0  0  0  0  0  0  0  0  0  0
   20.6252  -20.0563  -14.9231 C   0  0  0  0  0  0  0  0  0  0  0  0
   21.9212  -19.9913  -14.2092 C   0  0  0  0  0  0  0  0  0  0  0  0
   21.7676  -19.3166  -12.8682 C   0  0  2  0  0  0  0  0  0  0  0  0
   23.0689  -19.3894  -12.1466 N   0  0  0  0  0  0  0  0  0  0  0  0
   20.7362  -19.9188  -11.9966 C   0  0  0  0  0  0  0  0  0  0  0  0
   19.6225  -19.3305  -11.7784 O   0  0  0  0  0  0  0  0  0  0  0  0
   20.8990  -21.1339  -11.3729 O   0  0  0  0  0  0  0  0  0  0  0  0
  2  1  1  6
  2  3  1  0
  3  4  1  0
  4  5  1  0
  5  6  2  0
  5  9  1  0
  7  8  2  0
  7  2  1  0
 11 10  1  1
 11 13  1  0
 12 11  1  0
 14 13  1  1
 14 15  1  0
 15  7  1  0
 16 17  2  0
 16 14  1  0
 19 18  1  0
 20 19  2  0
 21 19  1  0
 22 21  1  0
 23 22  1  6
 23 24  1  0
 24 16  1  0
 25 23  1  0
 26 25  2  0
 27 25  1  0
M  END
$$$$
