ELQ.pdb
     RDKit          3D

 27 26  0  0  1  0  0  0  0  0999 V2000
   27.3230  -20.7727  -17.8011 N   0  0  0  0  0  0  0  0  0  0  0  0
   27.5595  -19.8260  -16.7745 C   0  0  1  0  0  0  0  0  0  0  0  0
   26.6098  -18.6983  -16.6341 C   0  0  0  0  0  0  0  0  0  0  0  0
   26.4849  -17.7582  -17.7862 C   0  0  0  0  0  0  0  0  0  0  0  0
   25.3997  -18.0971  -18.7090 C   0  0  0  0  0  0  0  0  0  0  0  0
   24.2098  -18.1096  -18.3688 O   0  0  0  0  0  0  0  0  0  0  0  0
   27.6230  -20.5623  -15.4553 C   0  0  0  0  0  0  0  0  0  0  0  0
   26.8179  -21.4718  -15.2380 O   0  0  0  0  0  0  0  0  0  0  0  0
   25.6997  -18.4231  -20.0335 O   0  0  0  0  0  0  0  0  0  0  0  0
   29.8936  -22.5943  -11.5173 C   0  0  0  0  0  0  0  0  0  0  0  0
   29.8416  -21.1217  -11.1603 C   0  0  1  0  0  0  0  0  0  0  0  0
   31.1487  -20.7951  -10.3856 C   0  0  0  0  0  0  0  0  0  0  0  0
   29.8766  -20.2497  -12.3896 C   0  0  0  0  0  0  0  0  0  0  0  0
   28.5733  -20.4495  -13.1399 C   0  0  2  0  0  0  0  0  0  0  0  0
   28.6122  -20.1661  -14.5317 N   0  0  0  0  0  0  0  0  0  0  0  0
   27.4031  -19.9177  -12.4294 C   0  0  0  0  0  0  0  0  0  0  0  0
   27.0460  -18.7074  -12.5074 O   0  0  0  0  0  0  0  0  0  0  0  0
   23.5017  -22.2603  -14.6736 N   0  0  0  0  0  0  0  0  0  0  0  0
   23.3204  -21.1998  -13.7799 C   0  0  0  0  0  0  0  0  0  0  0  0
   22.7995  -20.1362  -14.2068 O   0  0  0  0  0  0  0  0  0  0  0  0
   23.7017  -21.2294  -12.3378 C   0  0  0  0  0  0  0  0  0  0  0  0
   24.3301  -19.9656  -11.8893 C   0  0  0  0  0  0  0  0  0  0  0  0
   25.4278  -20.2318  -10.8886 C   0  0  2  0  0  0  0  0  0  0  0  0
   26.6175  -20.7574  -11.6152 N   0  0  0  0  0  0  0  0  0  0  0  0
   25.0730  -21.2115   -9.8397 C   0  0  0  0  0  0  0  0  0  0  0  0
   25.6929  -22.3240   -9.7305 O   0  0  0  0  0  0  0  0  0  0  0  0
   24.0706  -20.9969   -8.9225 O   0  0  0  0  0  0  0  0  0  0  0  0
  2  1  1  6
  2  3  1  0
  3  4  1  0
  4  5  1  0
  5  6  2  0
  5  9  1  0
  7  8  2  0
  7  2  1  0
 11 10  1  6
 11 13  1  0
 12 11  1  0
 14 13  1  1
 14 15  1  0
 15  7  1  0
 16 17  2  0
 16 14  1  0
 19 18  1  0
 20 19  2  0
 21 19  1  0
 22 21  1  0
 23 22  1  6
 23 24  1  0
 24 16  1  0
 25 23  1  0
 26 25  2  0
 27 25  1  0
M  END
$$$$
