ELQ.pdb
     RDKit          3D

 27 26  0  0  1  0  0  0  0  0999 V2000
   24.7042  -25.8720  -18.6285 N   0  0  0  0  0  0  0  0  0  0  0  0
   24.1106  -24.5863  -18.5996 C   0  0  1  0  0  0  0  0  0  0  0  0
   22.6437  -24.4999  -18.4154 C   0  0  0  0  0  0  0  0  0  0  0  0
   22.0593  -25.1865  -17.2264 C   0  0  0  0  0  0  0  0  0  0  0  0
   21.2435  -24.3116  -16.3820 C   0  0  0  0  0  0  0  0  0  0  0  0
   21.0976  -23.1042  -16.6114 O   0  0  0  0  0  0  0  0  0  0  0  0
   24.7763  -23.7808  -17.5066 C   0  0  0  0  0  0  0  0  0  0  0  0
   25.3600  -24.3747  -16.5961 O   0  0  0  0  0  0  0  0  0  0  0  0
   20.5944  -24.8435  -15.2655 O   0  0  0  0  0  0  0  0  0  0  0  0
   28.2516  -20.6955  -15.5116 C   0  0  0  0  0  0  0  0  0  0  0  0
   27.1653  -19.9038  -16.2127 C   0  0  1  0  0  0  0  0  0  0  0  0
   27.8600  -18.7090  -16.9236 C   0  0  0  0  0  0  0  0  0  0  0  0
   26.5173  -20.7030  -17.3146 C   0  0  0  0  0  0  0  0  0  0  0  0
   25.3622  -21.4787  -16.7102 C   0  0  2  0  0  0  0  0  0  0  0  0
   24.6943  -22.3753  -17.5872 N   0  0  0  0  0  0  0  0  0  0  0  0
   24.4803  -20.6551  -15.8731 C   0  0  0  0  0  0  0  0  0  0  0  0
   24.9105  -19.9330  -14.9286 O   0  0  0  0  0  0  0  0  0  0  0  0
   18.8280  -18.7255  -17.8739 N   0  0  0  0  0  0  0  0  0  0  0  0
   19.0436  -20.0299  -17.4177 C   0  0  0  0  0  0  0  0  0  0  0  0
   18.2477  -20.9341  -17.7837 O   0  0  0  0  0  0  0  0  0  0  0  0
   20.1597  -20.4414  -16.5172 C   0  0  0  0  0  0  0  0  0  0  0  0
   21.0482  -19.3119  -16.1594 C   0  0  0  0  0  0  0  0  0  0  0  0
   22.1880  -19.7751  -15.2856 C   0  0  2  0  0  0  0  0  0  0  0  0
   23.0894  -20.6399  -16.0974 N   0  0  0  0  0  0  0  0  0  0  0  0
   21.7705  -20.5509  -14.0983 C   0  0  0  0  0  0  0  0  0  0  0  0
   22.0477  -21.7935  -13.9836 O   0  0  0  0  0  0  0  0  0  0  0  0
   21.0696  -19.9990  -13.0513 O   0  0  0  0  0  0  0  0  0  0  0  0
  2  1  1  1
  2  3  1  0
  3  4  1  0
  4  5  1  0
  5  6  2  0
  5  9  1  0
  7  8  2  0
  7  2  1  0
 11 10  1  6
 11 13  1  0
 12 11  1  0
 14 13  1  6
 14 15  1  0
 15  7  1  0
 16 17  2  0
 16 14  1  0
 19 18  1  0
 20 19  2  0
 21 19  1  0
 22 21  1  0
 23 22  1  6
 23 24  1  0
 24 16  1  0
 25 23  1  0
 26 25  2  0
 27 25  1  0
M  END
$$$$
