ELQ.pdb
     RDKit          3D

 27 26  0  0  1  0  0  0  0  0999 V2000
   20.1305  -11.4817  -18.5155 N   0  0  0  0  0  0  0  0  0  0  0  0
   19.0116  -10.8852  -17.8842 C   0  0  1  0  0  0  0  0  0  0  0  0
   18.0628  -11.7682  -17.1679 C   0  0  0  0  0  0  0  0  0  0  0  0
   17.5418  -12.9571  -17.9039 C   0  0  0  0  0  0  0  0  0  0  0  0
   16.5727  -13.7454  -17.1401 C   0  0  0  0  0  0  0  0  0  0  0  0
   16.7698  -14.9252  -16.8225 O   0  0  0  0  0  0  0  0  0  0  0  0
   19.5153   -9.8404  -16.9140 C   0  0  0  0  0  0  0  0  0  0  0  0
   18.6974   -9.1539  -16.2956 O   0  0  0  0  0  0  0  0  0  0  0  0
   15.3685  -13.1589  -16.7440 O   0  0  0  0  0  0  0  0  0  0  0  0
   24.0900  -10.9741  -14.2555 C   0  0  0  0  0  0  0  0  0  0  0  0
   22.7497  -10.4289  -14.7081 C   0  0  1  0  0  0  0  0  0  0  0  0
   21.9165  -10.1483  -13.4265 C   0  0  0  0  0  0  0  0  0  0  0  0
   22.8945   -9.0930  -15.3916 C   0  0  0  0  0  0  0  0  0  0  0  0
   21.5422   -8.7141  -15.9653 C   0  0  2  0  0  0  0  0  0  0  0  0
   20.9110   -9.7048  -16.7647 N   0  0  0  0  0  0  0  0  0  0  0  0
   21.5018   -7.3528  -16.5149 C   0  0  0  0  0  0  0  0  0  0  0  0
   22.0672   -7.0352  -17.6002 O   0  0  0  0  0  0  0  0  0  0  0  0
   16.7008   -3.5563  -17.1355 N   0  0  0  0  0  0  0  0  0  0  0  0
   17.8177   -2.7355  -17.3216 C   0  0  0  0  0  0  0  0  0  0  0  0
   17.6355   -1.5494  -17.7026 O   0  0  0  0  0  0  0  0  0  0  0  0
   19.2308   -3.1607  -17.1012 C   0  0  0  0  0  0  0  0  0  0  0  0
   19.3365   -4.5585  -16.6237 C   0  0  0  0  0  0  0  0  0  0  0  0
   20.7756   -4.9388  -16.3756 C   0  0  2  0  0  0  0  0  0  0  0  0
   20.8152   -6.3267  -15.8359 N   0  0  0  0  0  0  0  0  0  0  0  0
   21.4814   -4.0632  -15.4158 C   0  0  0  0  0  0  0  0  0  0  0  0
   21.5217   -4.3388  -14.1683 O   0  0  0  0  0  0  0  0  0  0  0  0
   22.1349   -2.9127  -15.7919 O   0  0  0  0  0  0  0  0  0  0  0  0
  2  1  1  1
  2  3  1  0
  3  4  1  0
  4  5  1  0
  5  6  2  0
  5  9  1  0
  7  8  2  0
  7  2  1  0
 11 10  1  1
 11 13  1  0
 12 11  1  0
 14 13  1  6
 14 15  1  0
 15  7  1  0
 16 17  2  0
 16 14  1  0
 19 18  1  0
 20 19  2  0
 21 19  1  0
 22 21  1  0
 23 22  1  1
 23 24  1  0
 24 16  1  0
 25 23  1  0
 26 25  2  0
 27 25  1  0
M  END
$$$$
