ELQ.pdb
     RDKit          3D

 27 26  0  0  1  0  0  0  0  0999 V2000
   27.0276  -22.4348  -16.4434 N   0  0  0  0  0  0  0  0  0  0  0  0
   26.7814  -21.3209  -15.6040 C   0  0  1  0  0  0  0  0  0  0  0  0
   25.9751  -20.2037  -16.1470 C   0  0  0  0  0  0  0  0  0  0  0  0
   26.1810  -19.8414  -17.5799 C   0  0  0  0  0  0  0  0  0  0  0  0
   27.4556  -19.1698  -17.8411 C   0  0  0  0  0  0  0  0  0  0  0  0
   27.8819  -18.2440  -17.1390 O   0  0  0  0  0  0  0  0  0  0  0  0
   26.1171  -21.8171  -14.3395 C   0  0  0  0  0  0  0  0  0  0  0  0
   25.4203  -22.8344  -14.3889 O   0  0  0  0  0  0  0  0  0  0  0  0
   28.2382  -19.5767  -18.9241 O   0  0  0  0  0  0  0  0  0  0  0  0
   25.8383  -20.4646   -8.2440 C   0  0  0  0  0  0  0  0  0  0  0  0
   25.3209  -21.0444   -9.5457 C   0  0  1  0  0  0  0  0  0  0  0  0
   23.9015  -20.4542   -9.7742 C   0  0  0  0  0  0  0  0  0  0  0  0
   26.1402  -20.5840  -10.7245 C   0  0  0  0  0  0  0  0  0  0  0  0
   25.5539  -21.2138  -11.9740 C   0  0  2  0  0  0  0  0  0  0  0  0
   26.3323  -21.0822  -13.1554 N   0  0  0  0  0  0  0  0  0  0  0  0
   24.1188  -20.9506  -12.1422 C   0  0  0  0  0  0  0  0  0  0  0  0
   23.2801  -21.1047  -11.2087 O   0  0  0  0  0  0  0  0  0  0  0  0
   21.6147  -17.5902  -17.0930 N   0  0  0  0  0  0  0  0  0  0  0  0
   20.5617  -17.9439  -16.2432 C   0  0  0  0  0  0  0  0  0  0  0  0
   19.3977  -17.5663  -16.5389 O   0  0  0  0  0  0  0  0  0  0  0  0
   20.7108  -18.7458  -14.9940 C   0  0  0  0  0  0  0  0  0  0  0  0
   22.1092  -19.1700  -14.7535 C   0  0  0  0  0  0  0  0  0  0  0  0
   22.2124  -20.0146  -13.5073 C   0  0  2  0  0  0  0  0  0  0  0  0
   23.6128  -20.5065  -13.3799 N   0  0  0  0  0  0  0  0  0  0  0  0
   21.3193  -21.1929  -13.4930 C   0  0  0  0  0  0  0  0  0  0  0  0
   21.7015  -22.3237  -13.9504 O   0  0  0  0  0  0  0  0  0  0  0  0
   20.0385  -21.1560  -12.9927 O   0  0  0  0  0  0  0  0  0  0  0  0
  2  1  1  6
  2  3  1  0
  3  4  1  0
  4  5  1  0
  5  6  2  0
  5  9  1  0
  7  8  2  0
  7  2  1  0
 11 10  1  1
 11 13  1  0
 12 11  1  0
 14 13  1  1
 14 15  1  0
 15  7  1  0
 16 17  2  0
 16 14  1  0
 19 18  1  0
 20 19  2  0
 21 19  1  0
 22 21  1  0
 23 22  1  6
 23 24  1  0
 24 16  1  0
 25 23  1  0
 26 25  2  0
 27 25  1  0
M  END
$$$$
