ELQ.pdb
     RDKit          3D

 27 26  0  0  1  0  0  0  0  0999 V2000
   17.1972  -25.0812   -7.0489 N   0  0  0  0  0  0  0  0  0  0  0  0
   18.3052  -25.0871   -7.9312 C   0  0  1  0  0  0  0  0  0  0  0  0
   18.3988  -26.1810   -8.9250 C   0  0  0  0  0  0  0  0  0  0  0  0
   18.6776  -27.5539   -8.4110 C   0  0  0  0  0  0  0  0  0  0  0  0
   18.6507  -28.5883   -9.4470 C   0  0  0  0  0  0  0  0  0  0  0  0
   18.8025  -29.7910   -9.1976 O   0  0  0  0  0  0  0  0  0  0  0  0
   18.3301  -23.7683   -8.6706 C   0  0  0  0  0  0  0  0  0  0  0  0
   17.2655  -23.2784   -9.0570 O   0  0  0  0  0  0  0  0  0  0  0  0
   18.4462  -28.2222  -10.7793 O   0  0  0  0  0  0  0  0  0  0  0  0
   20.1723  -19.1735  -10.4042 C   0  0  0  0  0  0  0  0  0  0  0  0
   21.1667  -20.2790  -10.7000 C   0  0  1  0  0  0  0  0  0  0  0  0
   22.5860  -19.6554  -10.5903 C   0  0  0  0  0  0  0  0  0  0  0  0
   21.1232  -21.3616   -9.6517 C   0  0  0  0  0  0  0  0  0  0  0  0
   19.8330  -22.1378   -9.8367 C   0  0  2  0  0  0  0  0  0  0  0  0
   19.5847  -23.1598   -8.8813 N   0  0  0  0  0  0  0  0  0  0  0  0
   19.5733  -22.5147  -11.2322 C   0  0  0  0  0  0  0  0  0  0  0  0
   20.0823  -23.5388  -11.7713 O   0  0  0  0  0  0  0  0  0  0  0  0
   15.6525  -24.7208  -16.3309 N   0  0  0  0  0  0  0  0  0  0  0  0
   15.7555  -23.8592  -15.2340 C   0  0  0  0  0  0  0  0  0  0  0  0
   14.8029  -23.0708  -14.9972 O   0  0  0  0  0  0  0  0  0  0  0  0
   16.9234  -23.7990  -14.3076 C   0  0  0  0  0  0  0  0  0  0  0  0
   17.0350  -22.4939  -13.6166 C   0  0  0  0  0  0  0  0  0  0  0  0
   18.4789  -22.0824  -13.4660 C   0  0  2  0  0  0  0  0  0  0  0  0
   18.7274  -21.7293  -12.0402 N   0  0  0  0  0  0  0  0  0  0  0  0
   18.8717  -20.9205  -14.2917 C   0  0  0  0  0  0  0  0  0  0  0  0
   18.6550  -19.7227  -13.9014 O   0  0  0  0  0  0  0  0  0  0  0  0
   19.4892  -21.0449  -15.5144 O   0  0  0  0  0  0  0  0  0  0  0  0
  2  1  1  6
  2  3  1  0
  3  4  1  0
  4  5  1  0
  5  6  2  0
  5  9  1  0
  7  8  2  0
  7  2  1  0
 11 10  1  1
 11 13  1  0
 12 11  1  0
 14 13  1  6
 14 15  1  0
 15  7  1  0
 16 17  2  0
 16 14  1  0
 19 18  1  0
 20 19  2  0
 21 19  1  0
 22 21  1  0
 23 22  1  1
 23 24  1  0
 24 16  1  0
 25 23  1  0
 26 25  2  0
 27 25  1  0
M  END
$$$$
