ELQ.pdb
     RDKit          3D

 27 26  0  0  1  0  0  0  0  0999 V2000
   22.2629  -14.1244  -15.8537 N   0  0  0  0  0  0  0  0  0  0  0  0
   22.1021  -13.1589  -16.8775 C   0  0  1  0  0  0  0  0  0  0  0  0
   20.7451  -12.9517  -17.4331 C   0  0  0  0  0  0  0  0  0  0  0  0
   20.0442  -14.1428  -17.9959 C   0  0  0  0  0  0  0  0  0  0  0  0
   18.7808  -13.8230  -18.6632 C   0  0  0  0  0  0  0  0  0  0  0  0
   17.7375  -14.4581  -18.4634 O   0  0  0  0  0  0  0  0  0  0  0  0
   22.6140  -11.8322  -16.3633 C   0  0  0  0  0  0  0  0  0  0  0  0
   22.0671  -11.3185  -15.3836 O   0  0  0  0  0  0  0  0  0  0  0  0
   18.7304  -12.7595  -19.5673 O   0  0  0  0  0  0  0  0  0  0  0  0
   27.9180  -10.9010  -16.6171 C   0  0  0  0  0  0  0  0  0  0  0  0
   26.4343  -10.9089  -16.3051 C   0  0  1  0  0  0  0  0  0  0  0  0
   26.2877  -10.6227  -14.7846 C   0  0  0  0  0  0  0  0  0  0  0  0
   25.7145   -9.7789  -16.9961 C   0  0  0  0  0  0  0  0  0  0  0  0
   24.2275   -9.9555  -16.7525 C   0  0  2  0  0  0  0  0  0  0  0  0
   23.7038  -11.2450  -17.0387 N   0  0  0  0  0  0  0  0  0  0  0  0
   23.4181   -8.8325  -17.2430 C   0  0  0  0  0  0  0  0  0  0  0  0
   23.0455   -8.7311  -18.4469 O   0  0  0  0  0  0  0  0  0  0  0  0
   18.2366   -8.5121  -18.0893 N   0  0  0  0  0  0  0  0  0  0  0  0
   18.4117   -7.1343  -17.9244 C   0  0  0  0  0  0  0  0  0  0  0  0
   17.4337   -6.3731  -18.1460 O   0  0  0  0  0  0  0  0  0  0  0  0
   19.6860   -6.4846  -17.5002 C   0  0  0  0  0  0  0  0  0  0  0  0
   20.7517   -7.4669  -17.1958 C   0  0  0  0  0  0  0  0  0  0  0  0
   22.0296   -6.7724  -16.7934 C   0  0  2  0  0  0  0  0  0  0  0  0
   23.0182   -7.8027  -16.3685 N   0  0  0  0  0  0  0  0  0  0  0  0
   21.8772   -5.8103  -15.6812 C   0  0  0  0  0  0  0  0  0  0  0  0
   22.1178   -6.1472  -14.4717 O   0  0  0  0  0  0  0  0  0  0  0  0
   21.4758   -4.5079  -15.8670 O   0  0  0  0  0  0  0  0  0  0  0  0
  2  1  1  1
  2  3  1  0
  3  4  1  0
  4  5  1  0
  5  6  2  0
  5  9  1  0
  7  8  2  0
  7  2  1  0
 11 10  1  6
 11 13  1  0
 12 11  1  0
 14 13  1  6
 14 15  1  0
 15  7  1  0
 16 17  2  0
 16 14  1  0
 19 18  1  0
 20 19  2  0
 21 19  1  0
 22 21  1  0
 23 22  1  1
 23 24  1  0
 24 16  1  0
 25 23  1  0
 26 25  2  0
 27 25  1  0
M  END
$$$$
