ELQ.pdb
     RDKit          3D

 27 26  0  0  1  0  0  0  0  0999 V2000
   22.9993  -21.2614  -18.5090 N   0  0  0  0  0  0  0  0  0  0  0  0
   23.4409  -20.1100  -17.8123 C   0  0  1  0  0  0  0  0  0  0  0  0
   22.4244  -19.1214  -17.3849 C   0  0  0  0  0  0  0  0  0  0  0  0
   21.7464  -18.3287  -18.4520 C   0  0  0  0  0  0  0  0  0  0  0  0
   21.4341  -16.9538  -18.0568 C   0  0  0  0  0  0  0  0  0  0  0  0
   20.4013  -16.6498  -17.4464 O   0  0  0  0  0  0  0  0  0  0  0  0
   24.2104  -20.5604  -16.5909 C   0  0  0  0  0  0  0  0  0  0  0  0
   23.8133  -21.5455  -15.9628 O   0  0  0  0  0  0  0  0  0  0  0  0
   22.3272  -15.9276  -18.3731 O   0  0  0  0  0  0  0  0  0  0  0  0
   29.6031  -19.4470  -16.3810 C   0  0  0  0  0  0  0  0  0  0  0  0
   28.2097  -20.0254  -16.2310 C   0  0  1  0  0  0  0  0  0  0  0  0
   28.3759  -21.5444  -15.9473 C   0  0  0  0  0  0  0  0  0  0  0  0
   27.5029  -19.4676  -15.0219 C   0  0  0  0  0  0  0  0  0  0  0  0
   26.0837  -20.0034  -15.0233 C   0  0  2  0  0  0  0  0  0  0  0  0
   25.3562  -19.8217  -16.2303 N   0  0  0  0  0  0  0  0  0  0  0  0
   25.3402  -19.6907  -13.7959 C   0  0  0  0  0  0  0  0  0  0  0  0
   24.5018  -18.7471  -13.7245 O   0  0  0  0  0  0  0  0  0  0  0  0
   20.5343  -21.4520  -12.1775 N   0  0  0  0  0  0  0  0  0  0  0  0
   20.9305  -20.8363  -10.9858 C   0  0  0  0  0  0  0  0  0  0  0  0
   20.0661  -20.6477  -10.0902 O   0  0  0  0  0  0  0  0  0  0  0  0
   22.3184  -20.3775  -10.6871 C   0  0  0  0  0  0  0  0  0  0  0  0
   23.2416  -20.5773  -11.8278 C   0  0  0  0  0  0  0  0  0  0  0  0
   24.6650  -20.2691  -11.4329 C   0  0  2  0  0  0  0  0  0  0  0  0
   25.5397  -20.4491  -12.6254 N   0  0  0  0  0  0  0  0  0  0  0  0
   25.1976  -21.1255  -10.3518 C   0  0  0  0  0  0  0  0  0  0  0  0
   25.9053  -22.1587  -10.6081 O   0  0  0  0  0  0  0  0  0  0  0  0
   24.9750  -20.8734   -9.0180 O   0  0  0  0  0  0  0  0  0  0  0  0
  2  1  1  1
  2  3  1  0
  3  4  1  0
  4  5  1  0
  5  6  2  0
  5  9  1  0
  7  8  2  0
  7  2  1  0
 11 10  1  1
 11 13  1  0
 12 11  1  0
 14 13  1  6
 14 15  1  0
 15  7  1  0
 16 17  2  0
 16 14  1  0
 19 18  1  0
 20 19  2  0
 21 19  1  0
 22 21  1  0
 23 22  1  6
 23 24  1  0
 24 16  1  0
 25 23  1  0
 26 25  2  0
 27 25  1  0
M  END
$$$$
