ELQ.pdb
     RDKit          3D

 27 26  0  0  1  0  0  0  0  0999 V2000
   21.6842  -13.2781  -18.4358 N   0  0  0  0  0  0  0  0  0  0  0  0
   20.8776  -12.3648  -17.7136 C   0  0  1  0  0  0  0  0  0  0  0  0
   19.8499  -12.9143  -16.7998 C   0  0  0  0  0  0  0  0  0  0  0  0
   18.9154  -13.9376  -17.3532 C   0  0  0  0  0  0  0  0  0  0  0  0
   19.3008  -15.3162  -17.0452 C   0  0  0  0  0  0  0  0  0  0  0  0
   20.2698  -15.5972  -16.3285 O   0  0  0  0  0  0  0  0  0  0  0  0
   21.7865  -11.4561  -16.9169 C   0  0  0  0  0  0  0  0  0  0  0  0
   21.2855  -10.5673  -16.2229 O   0  0  0  0  0  0  0  0  0  0  0  0
   18.5557  -16.3730  -17.5732 O   0  0  0  0  0  0  0  0  0  0  0  0
   26.5791   -9.5218  -15.2839 C   0  0  0  0  0  0  0  0  0  0  0  0
   26.5859  -10.6298  -16.3187 C   0  0  1  0  0  0  0  0  0  0  0  0
   27.9083  -11.4234  -16.1268 C   0  0  0  0  0  0  0  0  0  0  0  0
   25.4819  -11.6268  -16.0736 C   0  0  0  0  0  0  0  0  0  0  0  0
   24.1584  -10.9240  -16.3103 C   0  0  2  0  0  0  0  0  0  0  0  0
   23.1764  -11.6758  -17.0098 N   0  0  0  0  0  0  0  0  0  0  0  0
   24.3076   -9.5316  -16.7529 C   0  0  0  0  0  0  0  0  0  0  0  0
   24.8946   -9.2133  -17.8265 O   0  0  0  0  0  0  0  0  0  0  0  0
   21.0374   -7.2461  -20.1264 N   0  0  0  0  0  0  0  0  0  0  0  0
   21.5689   -6.0534  -19.6254 C   0  0  0  0  0  0  0  0  0  0  0  0
   21.2982   -4.9776  -20.2207 O   0  0  0  0  0  0  0  0  0  0  0  0
   22.4456   -5.9532  -18.4223 C   0  0  0  0  0  0  0  0  0  0  0  0
   22.7070   -7.2702  -17.7975 C   0  0  0  0  0  0  0  0  0  0  0  0
   23.5689   -7.1245  -16.5674 C   0  0  2  0  0  0  0  0  0  0  0  0
   23.7899   -8.4748  -15.9781 N   0  0  0  0  0  0  0  0  0  0  0  0
   22.9889   -6.2642  -15.5142 C   0  0  0  0  0  0  0  0  0  0  0  0
   23.0357   -4.9893  -15.5951 O   0  0  0  0  0  0  0  0  0  0  0  0
   22.3669   -6.7664  -14.3948 O   0  0  0  0  0  0  0  0  0  0  0  0
  2  1  1  1
  2  3  1  0
  3  4  1  0
  4  5  1  0
  5  6  2  0
  5  9  1  0
  7  8  2  0
  7  2  1  0
 11 10  1  1
 11 13  1  0
 12 11  1  0
 14 13  1  6
 14 15  1  0
 15  7  1  0
 16 17  2  0
 16 14  1  0
 19 18  1  0
 20 19  2  0
 21 19  1  0
 22 21  1  0
 23 22  1  6
 23 24  1  0
 24 16  1  0
 25 23  1  0
 26 25  2  0
 27 25  1  0
M  END
$$$$
