WPM.pdb
     RDKit          3D

 30 32  0  0  1  0  0  0  0  0999 V2000
   25.9220  -18.9155   -9.8870 N   0  0  0  0  0  0  0  0  0  0  0  0
   26.6746  -20.0750  -10.3193 C   0  0  1  0  0  0  0  0  0  0  0  0
   26.7527  -21.1053   -9.2018 C   0  0  0  0  0  0  0  0  0  0  0  0
   26.8761  -20.3650   -7.9208 C   0  0  0  0  0  0  0  0  0  0  0  0
   25.9248  -19.4335   -7.4820 C   0  0  0  0  0  0  0  0  0  0  0  0
   26.2740  -18.9516   -6.2835 N   0  0  0  0  0  0  0  0  0  0  0  0
   27.4154  -19.5361   -5.9320 C   0  0  0  0  0  0  0  0  0  0  0  0
   28.1841  -19.3745   -4.7956 C   0  0  0  0  0  0  0  0  0  0  0  0
   29.3483  -20.1067   -4.6813 C   0  0  0  0  0  0  0  0  0  0  0  0
   29.7474  -20.9806   -5.6674 C   0  0  0  0  0  0  0  0  0  0  0  0
   28.9717  -21.1462   -6.8178 C   0  0  0  0  0  0  0  0  0  0  0  0
   27.8105  -20.4169   -6.9309 C   0  0  0  0  0  0  0  0  0  0  0  0
   26.0193  -20.6993  -11.5329 C   0  0  0  0  0  0  0  0  0  0  0  0
   24.8735  -21.1565  -11.2931 O   0  0  0  0  0  0  0  0  0  0  0  0
   26.6525  -20.7455  -12.7790 N   0  0  0  0  0  0  0  0  0  0  0  0
   27.7634  -19.8418  -13.1634 C   0  0  0  0  0  0  0  0  0  0  0  0
   28.7846  -20.9165  -13.5559 C   0  0  0  0  0  0  0  0  0  0  0  0
   27.9503  -22.1487  -13.9671 C   0  0  0  0  0  0  0  0  0  0  0  0
   26.5669  -21.5294  -13.9755 C   0  0  1  0  0  0  0  0  0  0  0  0
   25.4800  -22.4427  -14.1758 C   0  0  0  0  0  0  0  0  0  0  0  0
   25.5993  -23.5764  -13.5781 O   0  0  0  0  0  0  0  0  0  0  0  0
   19.1416  -22.9612  -10.7918 C   0  0  0  0  0  0  0  0  0  0  0  0
   20.6901  -22.1009  -11.2508 S   0  0  0  0  0  0  0  0  0  0  0  0
   21.1929  -22.7578  -12.8938 C   0  0  0  0  0  0  0  0  0  0  0  0
   22.5494  -22.2291  -13.2680 C   0  0  0  0  0  0  0  0  0  0  0  0
   22.9898  -22.7417  -14.5870 C   0  0  2  0  0  0  0  0  0  0  0  0
   24.3305  -22.2440  -14.9375 N   0  0  0  0  0  0  0  0  0  0  0  0
   22.0898  -22.2786  -15.6611 C   0  0  0  0  0  0  0  0  0  0  0  0
   22.0955  -21.0951  -16.0502 O   0  0  0  0  0  0  0  0  0  0  0  0
   21.1734  -23.1254  -16.3146 O   0  0  0  0  0  0  0  0  0  0  0  0
  2  1  1  1
  2  3  1  0
  3  4  1  0
  4 12  1  0
  4  5  2  0
  5  6  1  0
  7  8  2  0
  7  6  1  0
  9  8  1  0
 10  9  2  0
 11 10  1  0
 11 12  2  0
 12  7  1  0
 13 15  1  0
 13  2  1  0
 14 13  2  0
 15 19  1  0
 16 17  1  0
 16 15  1  0
 17 18  1  0
 19 18  1  0
 19 20  1  1
 20 21  2  0
 22 23  1  0
 24 23  1  0
 24 25  1  0
 26 25  1  1
 26 27  1  0
 26 28  1  0
 27 20  1  0
 28 30  1  0
 29 28  2  0
M  END
$$$$
