WPM.pdb
     RDKit          3D

 30 32  0  0  1  0  0  0  0  0999 V2000
   27.3314  -19.8855  -10.1169 N   0  0  0  0  0  0  0  0  0  0  0  0
   26.2068  -20.6923   -9.6901 C   0  0  1  0  0  0  0  0  0  0  0  0
   25.6181  -20.1432   -8.3986 C   0  0  0  0  0  0  0  0  0  0  0  0
   26.7275  -19.5236   -7.6309 C   0  0  0  0  0  0  0  0  0  0  0  0
   27.1271  -18.1914   -7.8062 C   0  0  0  0  0  0  0  0  0  0  0  0
   28.1208  -17.8957   -6.9601 N   0  0  0  0  0  0  0  0  0  0  0  0
   28.3785  -18.9869   -6.2455 C   0  0  0  0  0  0  0  0  0  0  0  0
   29.3146  -19.1986   -5.2517 C   0  0  0  0  0  0  0  0  0  0  0  0
   29.3820  -20.4477   -4.6690 C   0  0  0  0  0  0  0  0  0  0  0  0
   28.5439  -21.4683   -5.0580 C   0  0  0  0  0  0  0  0  0  0  0  0
   27.5960  -21.2571   -6.0628 C   0  0  0  0  0  0  0  0  0  0  0  0
   27.5283  -20.0112   -6.6427 C   0  0  0  0  0  0  0  0  0  0  0  0
   25.1385  -20.7070  -10.7626 C   0  0  0  0  0  0  0  0  0  0  0  0
   24.0363  -20.2517  -10.3658 O   0  0  0  0  0  0  0  0  0  0  0  0
   25.3864  -21.1852  -12.0532 N   0  0  0  0  0  0  0  0  0  0  0  0
   26.7330  -21.1970  -12.6739 C   0  0  0  0  0  0  0  0  0  0  0  0
   26.7895  -22.6878  -13.0291 C   0  0  0  0  0  0  0  0  0  0  0  0
   25.3189  -23.1330  -13.1786 C   0  0  0  0  0  0  0  0  0  0  0  0
   24.6353  -21.7815  -13.1179 C   0  0  1  0  0  0  0  0  0  0  0  0
   23.2025  -21.8127  -13.0745 C   0  0  0  0  0  0  0  0  0  0  0  0
   22.6960  -22.1753  -11.9482 O   0  0  0  0  0  0  0  0  0  0  0  0
   18.2800  -16.5651  -12.1019 C   0  0  0  0  0  0  0  0  0  0  0  0
   19.9640  -17.1851  -12.4602 S   0  0  0  0  0  0  0  0  0  0  0  0
   19.7669  -18.8693  -13.1730 C   0  0  0  0  0  0  0  0  0  0  0  0
   21.1132  -19.5112  -13.3606 C   0  0  0  0  0  0  0  0  0  0  0  0
   20.9922  -20.8807  -13.9142 C   0  0  2  0  0  0  0  0  0  0  0  0
   22.3129  -21.5042  -14.1013 N   0  0  0  0  0  0  0  0  0  0  0  0
   20.3600  -20.8576  -15.2476 C   0  0  0  0  0  0  0  0  0  0  0  0
   19.1382  -21.0534  -15.3923 O   0  0  0  0  0  0  0  0  0  0  0  0
   21.0785  -20.6167  -16.4348 O   0  0  0  0  0  0  0  0  0  0  0  0
  2  1  1  6
  2  3  1  0
  3  4  1  0
  4 12  1  0
  4  5  2  0
  5  6  1  0
  7  8  2  0
  7  6  1  0
  9  8  1  0
 10  9  2  0
 11 10  1  0
 11 12  2  0
 12  7  1  0
 13 15  1  0
 13  2  1  0
 14 13  2  0
 15 19  1  0
 16 17  1  0
 16 15  1  0
 17 18  1  0
 19 18  1  0
 19 20  1  1
 20 21  2  0
 22 23  1  0
 24 23  1  0
 24 25  1  0
 26 25  1  6
 26 27  1  0
 26 28  1  0
 27 20  1  0
 28 30  1  0
 29 28  2  0
M  END
$$$$
