WPM.pdb
     RDKit          3D

 30 32  0  0  1  0  0  0  0  0999 V2000
   22.0814  -21.2766  -13.6793 N   0  0  0  0  0  0  0  0  0  0  0  0
   20.9101  -21.0173  -12.8678 C   0  0  1  0  0  0  0  0  0  0  0  0
   19.6441  -21.1604  -13.7004 C   0  0  0  0  0  0  0  0  0  0  0  0
   19.6866  -20.1203  -14.7589 C   0  0  0  0  0  0  0  0  0  0  0  0
   20.7285  -20.0216  -15.6916 C   0  0  0  0  0  0  0  0  0  0  0  0
   20.4866  -19.0196  -16.5449 N   0  0  0  0  0  0  0  0  0  0  0  0
   19.3282  -18.4668  -16.1980 C   0  0  0  0  0  0  0  0  0  0  0  0
   18.6488  -17.4012  -16.7561 C   0  0  0  0  0  0  0  0  0  0  0  0
   17.4514  -17.0165  -16.1882 C   0  0  0  0  0  0  0  0  0  0  0  0
   16.9336  -17.6686  -15.0919 C   0  0  0  0  0  0  0  0  0  0  0  0
   17.6185  -18.7468  -14.5253 C   0  0  0  0  0  0  0  0  0  0  0  0
   18.8118  -19.1309  -15.0925 C   0  0  0  0  0  0  0  0  0  0  0  0
   20.8575  -21.9837  -11.7038 C   0  0  0  0  0  0  0  0  0  0  0  0
   20.3324  -23.0858  -12.0023 O   0  0  0  0  0  0  0  0  0  0  0  0
   21.3521  -21.6519  -10.4385 N   0  0  0  0  0  0  0  0  0  0  0  0
   22.6864  -21.0440  -10.2180 C   0  0  0  0  0  0  0  0  0  0  0  0
   22.2300  -19.8128   -9.4257 C   0  0  0  0  0  0  0  0  0  0  0  0
   20.8949  -20.2182   -8.7651 C   0  0  0  0  0  0  0  0  0  0  0  0
   20.8926  -21.7004   -9.0820 C   0  0  1  0  0  0  0  0  0  0  0  0
   19.6917  -22.4055   -8.7409 C   0  0  0  0  0  0  0  0  0  0  0  0
   18.7722  -22.3898   -9.6415 O   0  0  0  0  0  0  0  0  0  0  0  0
   16.1118  -28.6841   -9.1429 C   0  0  0  0  0  0  0  0  0  0  0  0
   17.5689  -27.5947   -9.3393 S   0  0  0  0  0  0  0  0  0  0  0  0
   17.3346  -26.1844   -8.1819 C   0  0  0  0  0  0  0  0  0  0  0  0
   18.4828  -25.2217   -8.3021 C   0  0  0  0  0  0  0  0  0  0  0  0
   18.3238  -24.0661   -7.3879 C   0  0  2  0  0  0  0  0  0  0  0  0
   19.4126  -23.0899   -7.5600 N   0  0  0  0  0  0  0  0  0  0  0  0
   18.3817  -24.4964   -5.9774 C   0  0  0  0  0  0  0  0  0  0  0  0
   19.4678  -24.7161   -5.4078 O   0  0  0  0  0  0  0  0  0  0  0  0
   17.2336  -24.6874   -5.1842 O   0  0  0  0  0  0  0  0  0  0  0  0
  2  1  1  6
  2  3  1  0
  3  4  1  0
  4 12  1  0
  4  5  2  0
  5  6  1  0
  7  8  2  0
  7  6  1  0
  9  8  1  0
 10  9  2  0
 11 10  1  0
 11 12  2  0
 12  7  1  0
 13 15  1  0
 13  2  1  0
 14 13  2  0
 15 19  1  0
 16 17  1  0
 16 15  1  0
 17 18  1  0
 19 18  1  0
 19 20  1  6
 20 21  2  0
 22 23  1  0
 24 23  1  0
 24 25  1  0
 26 25  1  6
 26 27  1  0
 26 28  1  0
 27 20  1  0
 28 30  1  0
 29 28  2  0
M  END
$$$$
