WPM.pdb
     RDKit          3D

 30 32  0  0  1  0  0  0  0  0999 V2000
   24.3330  -21.7337  -15.8850 N   0  0  0  0  0  0  0  0  0  0  0  0
   24.4397  -21.3145  -14.5027 C   0  0  1  0  0  0  0  0  0  0  0  0
   23.3226  -21.9302  -13.6724 C   0  0  0  0  0  0  0  0  0  0  0  0
   22.2863  -20.8858  -13.4749 C   0  0  0  0  0  0  0  0  0  0  0  0
   21.7382  -20.1440  -14.5306 C   0  0  0  0  0  0  0  0  0  0  0  0
   20.8053  -19.3049  -14.0655 N   0  0  0  0  0  0  0  0  0  0  0  0
   20.7308  -19.4761  -12.7491 C   0  0  0  0  0  0  0  0  0  0  0  0
   19.9319  -18.8466  -11.8142 C   0  0  0  0  0  0  0  0  0  0  0  0
   20.0616  -19.2096  -10.4892 C   0  0  0  0  0  0  0  0  0  0  0  0
   20.9610  -20.1738  -10.0929 C   0  0  0  0  0  0  0  0  0  0  0  0
   21.7702  -20.8124  -11.0363 C   0  0  0  0  0  0  0  0  0  0  0  0
   21.6398  -20.4509  -12.3575 C   0  0  0  0  0  0  0  0  0  0  0  0
   25.7783  -21.7330  -13.9326 C   0  0  0  0  0  0  0  0  0  0  0  0
   25.8811  -22.9761  -13.7792 O   0  0  0  0  0  0  0  0  0  0  0  0
   26.7766  -20.8049  -13.6199 N   0  0  0  0  0  0  0  0  0  0  0  0
   27.5982  -20.1149  -14.6434 C   0  0  0  0  0  0  0  0  0  0  0  0
   27.3089  -18.6725  -14.2102 C   0  0  0  0  0  0  0  0  0  0  0  0
   26.9565  -18.7547  -12.7093 C   0  0  0  0  0  0  0  0  0  0  0  0
   27.3212  -20.2010  -12.4400 C   0  0  1  0  0  0  0  0  0  0  0  0
   26.9764  -20.6955  -11.1391 C   0  0  0  0  0  0  0  0  0  0  0  0
   25.7229  -20.9205  -10.9527 O   0  0  0  0  0  0  0  0  0  0  0  0
   28.6493  -20.1407   -3.4884 C   0  0  0  0  0  0  0  0  0  0  0  0
   29.2760  -19.9659   -5.1987 S   0  0  0  0  0  0  0  0  0  0  0  0
   27.9763  -20.6435   -6.3101 C   0  0  0  0  0  0  0  0  0  0  0  0
   28.4655  -20.6521   -7.7314 C   0  0  0  0  0  0  0  0  0  0  0  0
   27.4107  -21.1053   -8.6687 C   0  0  2  0  0  0  0  0  0  0  0  0
   27.8334  -20.9501  -10.0706 N   0  0  0  0  0  0  0  0  0  0  0  0
   26.1873  -20.2933   -8.5199 C   0  0  0  0  0  0  0  0  0  0  0  0
   26.1078  -19.1433   -8.9922 O   0  0  0  0  0  0  0  0  0  0  0  0
   25.0389  -20.7503   -7.8445 O   0  0  0  0  0  0  0  0  0  0  0  0
  2  1  1  6
  2  3  1  0
  3  4  1  0
  4 12  1  0
  4  5  2  0
  5  6  1  0
  7  8  2  0
  7  6  1  0
  9  8  1  0
 10  9  2  0
 11 10  1  0
 11 12  2  0
 12  7  1  0
 13 15  1  0
 13  2  1  0
 14 13  2  0
 15 19  1  0
 16 17  1  0
 16 15  1  0
 17 18  1  0
 19 18  1  0
 19 20  1  1
 20 21  2  0
 22 23  1  0
 24 23  1  0
 24 25  1  0
 26 25  1  1
 26 27  1  0
 26 28  1  0
 27 20  1  0
 28 30  1  0
 29 28  2  0
M  END
$$$$
