WPM.pdb
     RDKit          3D

 30 32  0  0  1  0  0  0  0  0999 V2000
   24.0639  -21.9418  -15.6929 N   0  0  0  0  0  0  0  0  0  0  0  0
   24.4878  -21.1024  -14.5914 C   0  0  1  0  0  0  0  0  0  0  0  0
   23.3614  -20.9429  -13.5803 C   0  0  0  0  0  0  0  0  0  0  0  0
   22.2243  -20.2923  -14.2786 C   0  0  0  0  0  0  0  0  0  0  0  0
   21.0206  -20.9538  -14.5591 C   0  0  0  0  0  0  0  0  0  0  0  0
   20.1665  -20.1167  -15.1596 N   0  0  0  0  0  0  0  0  0  0  0  0
   20.7735  -18.9397  -15.2782 C   0  0  0  0  0  0  0  0  0  0  0  0
   20.3212  -17.7577  -15.8321 C   0  0  0  0  0  0  0  0  0  0  0  0
   21.1687  -16.6687  -15.8369 C   0  0  0  0  0  0  0  0  0  0  0  0
   22.4371  -16.7428  -15.3067 C   0  0  0  0  0  0  0  0  0  0  0  0
   22.8973  -17.9370  -14.7456 C   0  0  0  0  0  0  0  0  0  0  0  0
   22.0515  -19.0223  -14.7400 C   0  0  0  0  0  0  0  0  0  0  0  0
   25.6943  -21.7093  -13.9074 C   0  0  0  0  0  0  0  0  0  0  0  0
   25.5500  -22.9301  -13.6464 O   0  0  0  0  0  0  0  0  0  0  0  0
   26.8370  -20.9594  -13.6111 N   0  0  0  0  0  0  0  0  0  0  0  0
   27.7792  -20.4659  -14.6442 C   0  0  0  0  0  0  0  0  0  0  0  0
   27.7438  -18.9790  -14.2704 C   0  0  0  0  0  0  0  0  0  0  0  0
   27.3649  -18.9381  -12.7743 C   0  0  0  0  0  0  0  0  0  0  0  0
   27.4658  -20.4141  -12.4446 C   0  0  1  0  0  0  0  0  0  0  0  0
   27.0241  -20.7880  -11.1329 C   0  0  0  0  0  0  0  0  0  0  0  0
   25.7648  -21.0323  -11.0273 O   0  0  0  0  0  0  0  0  0  0  0  0
   28.9605  -18.5555   -4.9591 C   0  0  0  0  0  0  0  0  0  0  0  0
   28.8651  -20.3828   -4.9379 S   0  0  0  0  0  0  0  0  0  0  0  0
   27.6233  -20.8621   -6.2074 C   0  0  0  0  0  0  0  0  0  0  0  0
   28.2334  -20.7901   -7.5794 C   0  0  0  0  0  0  0  0  0  0  0  0
   27.2583  -21.1657   -8.6305 C   0  0  2  0  0  0  0  0  0  0  0  0
   27.7938  -20.9090   -9.9779 N   0  0  0  0  0  0  0  0  0  0  0  0
   26.0269  -20.3596   -8.5211 C   0  0  0  0  0  0  0  0  0  0  0  0
   25.9382  -19.2323   -9.0440 O   0  0  0  0  0  0  0  0  0  0  0  0
   24.8806  -20.7972   -7.8296 O   0  0  0  0  0  0  0  0  0  0  0  0
  2  1  1  6
  2  3  1  0
  3  4  1  0
  4 12  1  0
  4  5  2  0
  5  6  1  0
  7  8  2  0
  7  6  1  0
  9  8  1  0
 10  9  2  0
 11 10  1  0
 11 12  2  0
 12  7  1  0
 13 15  1  0
 13  2  1  0
 14 13  2  0
 15 19  1  0
 16 17  1  0
 16 15  1  0
 17 18  1  0
 19 18  1  0
 19 20  1  1
 20 21  2  0
 22 23  1  0
 24 23  1  0
 24 25  1  0
 26 25  1  1
 26 27  1  0
 26 28  1  0
 27 20  1  0
 28 30  1  0
 29 28  2  0
M  END
$$$$
