HIC.pdb
     RDKit          3D

 25 25  0  0  1  0  0  0  0  0999 V2000
    9.9276  -14.2627   20.6871 N   0  0  0  0  0  0  0  0  0  0  0  0
    8.6498  -14.1149   21.3535 C   0  0  1  0  0  0  0  0  0  0  0  0
    7.5844  -14.9575   20.6882 C   0  0  0  0  0  0  0  0  0  0  0  0
    7.4609  -14.5771   19.2577 C   0  0  0  0  0  0  0  0  0  0  0  0
    7.9242  -13.3716   18.7201 C   0  0  0  0  0  0  0  0  0  0  0  0
    7.6322  -13.3960   17.4094 N   0  0  0  0  0  0  0  0  0  0  0  0
    7.0110  -14.5497   17.0927 C   0  0  0  0  0  0  0  0  0  0  0  0
    6.9137  -15.2599   18.2308 N   0  0  0  0  0  0  0  0  0  0  0  0
    8.7532  -14.4006   22.8072 C   0  0  0  0  0  0  0  0  0  0  0  0
    9.7741  -14.9811   23.2572 O   0  0  0  0  0  0  0  0  0  0  0  0
    5.6862  -11.3908   26.3126 C   0  0  0  0  0  0  0  0  0  0  0  0
    6.8831  -12.0068   25.5812 C   0  0  0  0  0  0  0  0  0  0  0  0
    6.9238  -13.4563   25.9851 C   0  0  2  0  0  0  0  0  0  0  0  0
    7.2512  -13.6416   27.4404 C   0  0  0  0  0  0  0  0  0  0  0  0
    7.9076  -14.2667   25.1781 C   0  0  2  0  0  0  0  0  0  0  0  0
    7.7492  -14.0534   23.7522 N   0  0  0  0  0  0  0  0  0  0  0  0
    7.8501  -15.7165   25.5006 C   0  0  0  0  0  0  0  0  0  0  0  0
    6.8053  -16.4031   25.3809 O   0  0  0  0  0  0  0  0  0  0  0  0
    9.0102  -16.3944   25.9691 N   0  0  0  0  0  0  0  0  0  0  0  0
    8.9420  -17.7966   26.4136 C   0  0  1  0  0  0  0  0  0  0  0  0
   10.0968  -18.5221   25.7208 C   0  0  0  0  0  0  0  0  0  0  0  0
    9.7968  -18.4093   23.9334 S   0  0  0  0  0  0  0  0  0  0  0  0
    9.2738  -17.7860   27.8625 C   0  0  0  0  0  0  0  0  0  0  0  0
    9.2661  -18.9643   28.6233 O   0  0  0  0  0  0  0  0  0  0  0  0
    9.5790  -16.7383   28.4956 O   0  0  0  0  0  0  0  0  0  0  0  0
  2  1  1  6
  2  9  1  0
  3  2  1  0
  4  3  1  0
  5  4  2  0
  6  5  1  0
  7  6  1  0
  7  8  2  0
  8  4  1  0
  9 16  1  0
  9 10  2  0
 12 11  1  0
 13 12  1  0
 13 14  1  1
 15 13  1  0
 15 16  1  6
 17 15  1  0
 17 18  2  0
 19 17  1  0
 20 19  1  0
 21 22  1  0
 20 21  1  6
 23 20  1  0
 23 24  1  0
 25 23  2  0
M  END
$$$$
