HIC.pdb
     RDKit          3D

 25 25  0  0  1  0  0  0  0  0999 V2000
    9.9405  -14.2739   20.6114 N   0  0  0  0  0  0  0  0  0  0  0  0
    8.6847  -14.2524   21.3335 C   0  0  1  0  0  0  0  0  0  0  0  0
    7.6975  -15.2353   20.7445 C   0  0  0  0  0  0  0  0  0  0  0  0
    7.4217  -14.8853   19.3276 C   0  0  0  0  0  0  0  0  0  0  0  0
    7.7351  -13.6527   18.7450 C   0  0  0  0  0  0  0  0  0  0  0  0
    7.3359  -13.7184   17.4644 N   0  0  0  0  0  0  0  0  0  0  0  0
    6.7889  -14.9237   17.2089 C   0  0  0  0  0  0  0  0  0  0  0  0
    6.8484  -15.6246   18.3554 N   0  0  0  0  0  0  0  0  0  0  0  0
    8.8848  -14.4740   22.7883 C   0  0  0  0  0  0  0  0  0  0  0  0
    9.9260  -15.0517   23.1933 O   0  0  0  0  0  0  0  0  0  0  0  0
    5.8381  -11.4599   26.3307 C   0  0  0  0  0  0  0  0  0  0  0  0
    7.0414  -12.0166   25.5633 C   0  0  0  0  0  0  0  0  0  0  0  0
    7.2274  -13.4323   26.0398 C   0  0  2  0  0  0  0  0  0  0  0  0
    7.6748  -13.5054   27.4730 C   0  0  0  0  0  0  0  0  0  0  0  0
    8.2107  -14.2126   25.2031 C   0  0  2  0  0  0  0  0  0  0  0  0
    7.9542  -14.0665   23.7830 N   0  0  0  0  0  0  0  0  0  0  0  0
    8.2646  -15.6492   25.5806 C   0  0  0  0  0  0  0  0  0  0  0  0
    7.2809  -16.4223   25.4729 O   0  0  0  0  0  0  0  0  0  0  0  0
    9.4674  -16.2127   26.0914 N   0  0  0  0  0  0  0  0  0  0  0  0
    9.5122  -17.6076   26.5609 C   0  0  1  0  0  0  0  0  0  0  0  0
   10.8047  -18.2060   26.0031 C   0  0  0  0  0  0  0  0  0  0  0  0
   10.9939  -19.8493   26.7523 S   0  0  0  0  0  0  0  0  0  0  0  0
    9.6933  -17.5405   28.0348 C   0  0  0  0  0  0  0  0  0  0  0  0
    9.3021  -18.5982   28.8688 O   0  0  0  0  0  0  0  0  0  0  0  0
   10.2010  -16.5482   28.6259 O   0  0  0  0  0  0  0  0  0  0  0  0
  2  1  1  6
  2  9  1  0
  3  2  1  0
  4  3  1  0
  5  4  2  0
  6  5  1  0
  7  6  1  0
  7  8  2  0
  8  4  1  0
  9 16  1  0
  9 10  2  0
 12 11  1  0
 13 12  1  0
 13 14  1  1
 15 13  1  0
 15 16  1  6
 17 15  1  0
 17 18  2  0
 19 17  1  0
 20 19  1  0
 21 22  1  0
 20 21  1  6
 23 20  1  0
 23 24  1  0
 25 23  2  0
M  END
$$$$
