HIC.pdb
     RDKit          3D

 25 25  0  0  1  0  0  0  0  0999 V2000
    7.5486  -15.8875   20.9989 N   0  0  0  0  0  0  0  0  0  0  0  0
    8.9725  -15.8993   21.2658 C   0  0  1  0  0  0  0  0  0  0  0  0
    9.7310  -15.1033   20.2272 C   0  0  0  0  0  0  0  0  0  0  0  0
    8.7832  -14.2861   19.4271 C   0  0  0  0  0  0  0  0  0  0  0  0
    8.5613  -12.9189   19.6234 C   0  0  0  0  0  0  0  0  0  0  0  0
    7.6458  -12.5422   18.7159 N   0  0  0  0  0  0  0  0  0  0  0  0
    7.2794  -13.5963   17.9596 C   0  0  0  0  0  0  0  0  0  0  0  0
    7.9820  -14.6531   18.4055 N   0  0  0  0  0  0  0  0  0  0  0  0
    9.2757  -15.4397   22.6451 C   0  0  0  0  0  0  0  0  0  0  0  0
   10.4723  -15.3027   23.0073 O   0  0  0  0  0  0  0  0  0  0  0  0
    7.2329  -12.0240   27.2142 C   0  0  0  0  0  0  0  0  0  0  0  0
    8.1651  -13.1886   26.8653 C   0  0  0  0  0  0  0  0  0  0  0  0
    7.7200  -13.6966   25.5200 C   0  0  2  0  0  0  0  0  0  0  0  0
    6.3003  -14.1903   25.5296 C   0  0  0  0  0  0  0  0  0  0  0  0
    8.5959  -14.8034   24.9875 C   0  0  2  0  0  0  0  0  0  0  0  0
    8.2784  -15.1352   23.6117 N   0  0  0  0  0  0  0  0  0  0  0  0
    8.5586  -16.0192   25.8417 C   0  0  0  0  0  0  0  0  0  0  0  0
    7.5195  -16.7033   26.0132 O   0  0  0  0  0  0  0  0  0  0  0  0
    9.7329  -16.4613   26.5129 N   0  0  0  0  0  0  0  0  0  0  0  0
    9.7292  -17.6967   27.3143 C   0  0  1  0  0  0  0  0  0  0  0  0
   10.8902  -18.5471   26.7958 C   0  0  0  0  0  0  0  0  0  0  0  0
   10.5338  -18.9250   25.0557 S   0  0  0  0  0  0  0  0  0  0  0  0
   10.1008  -17.2927   28.6957 C   0  0  0  0  0  0  0  0  0  0  0  0
   10.1908  -18.2321   29.7333 O   0  0  0  0  0  0  0  0  0  0  0  0
   10.3560  -16.1016   29.0241 O   0  0  0  0  0  0  0  0  0  0  0  0
  2  1  1  6
  2  9  1  0
  3  2  1  0
  4  3  1  0
  5  4  2  0
  6  5  1  0
  7  6  1  0
  7  8  2  0
  8  4  1  0
  9 16  1  0
  9 10  2  0
 12 11  1  0
 13 12  1  0
 13 14  1  1
 15 13  1  0
 15 16  1  6
 17 15  1  0
 17 18  2  0
 19 17  1  0
 20 19  1  0
 21 22  1  0
 20 21  1  6
 23 20  1  0
 23 24  1  0
 25 23  2  0
M  END
$$$$
