HIC.pdb
     RDKit          3D

 25 25  0  0  1  0  0  0  0  0999 V2000
    9.8118  -15.2858   20.5024 N   0  0  0  0  0  0  0  0  0  0  0  0
    8.6920  -15.5438   21.3847 C   0  0  1  0  0  0  0  0  0  0  0  0
    8.2059  -16.9697   21.2499 C   0  0  0  0  0  0  0  0  0  0  0  0
    7.6386  -17.1830   19.8938 C   0  0  0  0  0  0  0  0  0  0  0  0
    7.6781  -16.2358   18.8651 C   0  0  0  0  0  0  0  0  0  0  0  0
    7.0697  -16.7919   17.8048 N   0  0  0  0  0  0  0  0  0  0  0  0
    6.6496  -18.0361   18.1092 C   0  0  0  0  0  0  0  0  0  0  0  0
    7.0040  -18.2605   19.3873 N   0  0  0  0  0  0  0  0  0  0  0  0
    9.0131  -15.1997   22.7932 C   0  0  0  0  0  0  0  0  0  0  0  0
   10.2111  -15.1951   23.1761 O   0  0  0  0  0  0  0  0  0  0  0  0
    5.9359  -11.8128   25.8731 C   0  0  0  0  0  0  0  0  0  0  0  0
    7.0880  -12.5016   25.1347 C   0  0  0  0  0  0  0  0  0  0  0  0
    7.3441  -13.7932   25.8641 C   0  0  2  0  0  0  0  0  0  0  0  0
    7.8121  -13.5764   27.2760 C   0  0  0  0  0  0  0  0  0  0  0  0
    8.3515  -14.6745   25.1682 C   0  0  2  0  0  0  0  0  0  0  0  0
    8.0318  -14.8657   23.7664 N   0  0  0  0  0  0  0  0  0  0  0  0
    8.5276  -15.9841   25.8487 C   0  0  0  0  0  0  0  0  0  0  0  0
    7.5798  -16.7826   26.0519 O   0  0  0  0  0  0  0  0  0  0  0  0
    9.8131  -16.3885   26.3058 N   0  0  0  0  0  0  0  0  0  0  0  0
   10.0023  -17.6742   26.9983 C   0  0  1  0  0  0  0  0  0  0  0  0
   11.3718  -18.1981   26.5623 C   0  0  0  0  0  0  0  0  0  0  0  0
   11.3501  -18.2916   24.7489 S   0  0  0  0  0  0  0  0  0  0  0  0
   10.1279  -17.3493   28.4433 C   0  0  0  0  0  0  0  0  0  0  0  0
   10.2361  -18.3569   29.4130 O   0  0  0  0  0  0  0  0  0  0  0  0
   10.1456  -16.1691   28.8890 O   0  0  0  0  0  0  0  0  0  0  0  0
  2  1  1  6
  2  9  1  0
  3  2  1  0
  4  3  1  0
  5  4  2  0
  6  5  1  0
  7  6  1  0
  7  8  2  0
  8  4  1  0
  9 16  1  0
  9 10  2  0
 12 11  1  0
 13 12  1  0
 13 14  1  1
 15 13  1  0
 15 16  1  6
 17 15  1  0
 17 18  2  0
 19 17  1  0
 20 19  1  0
 21 22  1  0
 20 21  1  6
 23 20  1  0
 23 24  1  0
 25 23  2  0
M  END
$$$$
