HIC.pdb
     RDKit          3D

 25 25  0  0  1  0  0  0  0  0999 V2000
    8.4149  -16.5015   20.6514 N   0  0  0  0  0  0  0  0  0  0  0  0
    7.6869  -16.5735   21.9018 C   0  0  1  0  0  0  0  0  0  0  0  0
    7.3724  -18.0062   22.2708 C   0  0  0  0  0  0  0  0  0  0  0  0
    6.4222  -18.5836   21.2860 C   0  0  0  0  0  0  0  0  0  0  0  0
    5.9845  -17.9236   20.1328 C   0  0  0  0  0  0  0  0  0  0  0  0
    5.1421  -18.7605   19.5053 N   0  0  0  0  0  0  0  0  0  0  0  0
    5.0255  -19.9101   20.1995 C   0  0  0  0  0  0  0  0  0  0  0  0
    5.8125  -19.7871   21.2834 N   0  0  0  0  0  0  0  0  0  0  0  0
    8.4016  -15.8651   22.9941 C   0  0  0  0  0  0  0  0  0  0  0  0
    9.6587  -15.8817   23.0296 O   0  0  0  0  0  0  0  0  0  0  0  0
    5.9570  -12.2035   26.7990 C   0  0  0  0  0  0  0  0  0  0  0  0
    6.4099  -13.5340   26.1893 C   0  0  0  0  0  0  0  0  0  0  0  0
    7.7927  -13.2987   25.6432 C   0  0  2  0  0  0  0  0  0  0  0  0
    7.8087  -12.2968   24.5227 C   0  0  0  0  0  0  0  0  0  0  0  0
    8.4557  -14.5611   25.1506 C   0  0  2  0  0  0  0  0  0  0  0  0
    7.7442  -15.1493   24.0319 N   0  0  0  0  0  0  0  0  0  0  0  0
    8.6493  -15.5615   26.2327 C   0  0  0  0  0  0  0  0  0  0  0  0
    7.7522  -16.3641   26.5909 O   0  0  0  0  0  0  0  0  0  0  0  0
    9.8932  -15.6455   26.9187 N   0  0  0  0  0  0  0  0  0  0  0  0
   10.1274  -16.6787   27.9414 C   0  0  1  0  0  0  0  0  0  0  0  0
   11.4703  -17.3253   27.5974 C   0  0  0  0  0  0  0  0  0  0  0  0
   11.2656  -18.1489   25.9919 S   0  0  0  0  0  0  0  0  0  0  0  0
   10.3373  -15.9518   29.2209 C   0  0  0  0  0  0  0  0  0  0  0  0
   10.6162  -16.6354   30.4134 O   0  0  0  0  0  0  0  0  0  0  0  0
   10.2805  -14.6954   29.3212 O   0  0  0  0  0  0  0  0  0  0  0  0
  2  1  1  6
  2  9  1  0
  3  2  1  0
  4  3  1  0
  5  4  2  0
  6  5  1  0
  7  6  1  0
  7  8  2  0
  8  4  1  0
  9 16  1  0
  9 10  2  0
 12 11  1  0
 13 12  1  0
 13 14  1  6
 15 13  1  0
 15 16  1  6
 17 15  1  0
 17 18  2  0
 19 17  1  0
 20 19  1  0
 21 22  1  0
 20 21  1  6
 23 20  1  0
 23 24  1  0
 25 23  2  0
M  END
$$$$
