HIC.pdb
     RDKit          3D

 25 25  0  0  1  0  0  0  0  0999 V2000
    9.5001  -15.6629   20.0804 N   0  0  0  0  0  0  0  0  0  0  0  0
    8.4585  -15.8482   21.0701 C   0  0  1  0  0  0  0  0  0  0  0  0
    7.9248  -17.2632   21.0453 C   0  0  0  0  0  0  0  0  0  0  0  0
    7.3354  -17.5565   19.7138 C   0  0  0  0  0  0  0  0  0  0  0  0
    7.4046  -16.6945   18.6142 C   0  0  0  0  0  0  0  0  0  0  0  0
    6.7624  -17.3045   17.6046 N   0  0  0  0  0  0  0  0  0  0  0  0
    6.2932  -18.5022   18.0078 C   0  0  0  0  0  0  0  0  0  0  0  0
    6.6506  -18.6417   19.2970 N   0  0  0  0  0  0  0  0  0  0  0  0
    8.9148  -15.4530   22.4270 C   0  0  0  0  0  0  0  0  0  0  0  0
   10.0848  -15.7297   22.7962 O   0  0  0  0  0  0  0  0  0  0  0  0
    7.2087  -11.8857   27.2043 C   0  0  0  0  0  0  0  0  0  0  0  0
    8.2004  -12.9333   26.6887 C   0  0  0  0  0  0  0  0  0  0  0  0
    7.6772  -13.3878   25.3525 C   0  0  2  0  0  0  0  0  0  0  0  0
    6.2765  -13.9271   25.4335 C   0  0  0  0  0  0  0  0  0  0  0  0
    8.5453  -14.4378   24.7045 C   0  0  2  0  0  0  0  0  0  0  0  0
    8.0972  -14.7638   23.3641 N   0  0  0  0  0  0  0  0  0  0  0  0
    8.6635  -15.6674   25.5310 C   0  0  0  0  0  0  0  0  0  0  0  0
    7.7637  -16.5416   25.5894 O   0  0  0  0  0  0  0  0  0  0  0  0
    9.8337  -15.9019   26.3059 N   0  0  0  0  0  0  0  0  0  0  0  0
   10.0061  -17.1551   27.0596 C   0  0  1  0  0  0  0  0  0  0  0  0
   11.2412  -17.8411   26.4732 C   0  0  0  0  0  0  0  0  0  0  0  0
   11.6125  -19.2640   27.5388 S   0  0  0  0  0  0  0  0  0  0  0  0
   10.3758  -16.7562   28.4430 C   0  0  0  0  0  0  0  0  0  0  0  0
   10.3725  -17.6818   29.4968 O   0  0  0  0  0  0  0  0  0  0  0  0
   10.7114  -15.5817   28.7590 O   0  0  0  0  0  0  0  0  0  0  0  0
  2  1  1  6
  2  9  1  0
  3  2  1  0
  4  3  1  0
  5  4  2  0
  6  5  1  0
  7  6  1  0
  7  8  2  0
  8  4  1  0
  9 16  1  0
  9 10  2  0
 12 11  1  0
 13 12  1  0
 13 14  1  1
 15 13  1  0
 15 16  1  6
 17 15  1  0
 17 18  2  0
 19 17  1  0
 20 19  1  0
 21 22  1  0
 20 21  1  6
 23 20  1  0
 23 24  1  0
 25 23  2  0
M  END
$$$$
