HIC.pdb
     RDKit          3D

 25 25  0  0  1  0  0  0  0  0999 V2000
   10.3559  -17.4330   15.7778 N   0  0  0  0  0  0  0  0  0  0  0  0
    9.3177  -17.5917   16.7757 C   0  0  1  0  0  0  0  0  0  0  0  0
    8.9988  -19.0520   17.0069 C   0  0  0  0  0  0  0  0  0  0  0  0
    8.3588  -19.6263   15.7957 C   0  0  0  0  0  0  0  0  0  0  0  0
    7.5749  -18.8952   14.8969 C   0  0  0  0  0  0  0  0  0  0  0  0
    7.1792  -19.7538   13.9429 N   0  0  0  0  0  0  0  0  0  0  0  0
    7.6705  -20.9842   14.1917 C   0  0  0  0  0  0  0  0  0  0  0  0
    8.3881  -20.8905   15.3255 N   0  0  0  0  0  0  0  0  0  0  0  0
    9.6615  -16.8937   18.0406 C   0  0  0  0  0  0  0  0  0  0  0  0
   10.8304  -16.9726   18.4982 O   0  0  0  0  0  0  0  0  0  0  0  0
    6.7896  -12.3851   19.8008 C   0  0  0  0  0  0  0  0  0  0  0  0
    7.9436  -13.2784   19.3348 C   0  0  0  0  0  0  0  0  0  0  0  0
    8.0863  -14.3590   20.3730 C   0  0  2  0  0  0  0  0  0  0  0  0
    8.4530  -13.8157   21.7257 C   0  0  0  0  0  0  0  0  0  0  0  0
    9.1051  -15.4068   19.9986 C   0  0  2  0  0  0  0  0  0  0  0  0
    8.7343  -16.1203   18.7915 N   0  0  0  0  0  0  0  0  0  0  0  0
    9.3760  -16.3586   21.1075 C   0  0  0  0  0  0  0  0  0  0  0  0
    8.6314  -17.3358   21.3678 O   0  0  0  0  0  0  0  0  0  0  0  0
   10.5212  -16.1895   21.9351 N   0  0  0  0  0  0  0  0  0  0  0  0
   10.8293  -17.1484   23.0094 C   0  0  1  0  0  0  0  0  0  0  0  0
   12.3525  -17.2862   23.0366 C   0  0  0  0  0  0  0  0  0  0  0  0
   12.7633  -18.3418   24.4559 S   0  0  0  0  0  0  0  0  0  0  0  0
   10.4549  -16.4763   24.2813 C   0  0  0  0  0  0  0  0  0  0  0  0
   10.0679  -17.2121   25.4110 O   0  0  0  0  0  0  0  0  0  0  0  0
   10.4591  -15.2235   24.4302 O   0  0  0  0  0  0  0  0  0  0  0  0
  2  1  1  6
  2  9  1  0
  3  2  1  0
  4  3  1  0
  5  4  2  0
  6  5  1  0
  7  6  1  0
  7  8  2  0
  8  4  1  0
  9 16  1  0
  9 10  2  0
 12 11  1  0
 13 12  1  0
 13 14  1  1
 15 13  1  0
 15 16  1  6
 17 15  1  0
 17 18  2  0
 19 17  1  0
 20 19  1  0
 21 22  1  0
 20 21  1  1
 23 20  1  0
 23 24  1  0
 25 23  2  0
M  END
$$$$
