HIC.pdb
     RDKit          3D

 25 25  0  0  1  0  0  0  0  0999 V2000
   10.1339  -14.3370   20.3759 N   0  0  0  0  0  0  0  0  0  0  0  0
    8.8832  -14.2181   21.0972 C   0  0  1  0  0  0  0  0  0  0  0  0
    7.8298  -15.1388   20.5225 C   0  0  0  0  0  0  0  0  0  0  0  0
    7.5547  -14.7707   19.1100 C   0  0  0  0  0  0  0  0  0  0  0  0
    7.7386  -13.4895   18.5793 C   0  0  0  0  0  0  0  0  0  0  0  0
    7.3858  -13.5535   17.2851 N   0  0  0  0  0  0  0  0  0  0  0  0
    6.9901  -14.8036   16.9720 C   0  0  0  0  0  0  0  0  0  0  0  0
    7.0988  -15.5348   18.0958 N   0  0  0  0  0  0  0  0  0  0  0  0
    9.0685  -14.4317   22.5552 C   0  0  0  0  0  0  0  0  0  0  0  0
   10.0647  -15.0786   22.9686 O   0  0  0  0  0  0  0  0  0  0  0  0
    6.9341  -12.2065   27.9336 C   0  0  0  0  0  0  0  0  0  0  0  0
    7.8435  -13.2406   27.2624 C   0  0  0  0  0  0  0  0  0  0  0  0
    7.5485  -13.1679   25.7881 C   0  0  2  0  0  0  0  0  0  0  0  0
    6.1126  -13.4787   25.4702 C   0  0  0  0  0  0  0  0  0  0  0  0
    8.4183  -14.0863   24.9660 C   0  0  2  0  0  0  0  0  0  0  0  0
    8.1721  -13.9414   23.5439 N   0  0  0  0  0  0  0  0  0  0  0  0
    8.2916  -15.5090   25.3773 C   0  0  0  0  0  0  0  0  0  0  0  0
    7.2427  -16.1789   25.2096 O   0  0  0  0  0  0  0  0  0  0  0  0
    9.3861  -16.1786   25.9926 N   0  0  0  0  0  0  0  0  0  0  0  0
    9.2580  -17.5680   26.4632 C   0  0  1  0  0  0  0  0  0  0  0  0
   10.3607  -18.3617   25.7604 C   0  0  0  0  0  0  0  0  0  0  0  0
   10.2068  -18.0221   23.9832 S   0  0  0  0  0  0  0  0  0  0  0  0
    9.6202  -17.5497   27.9048 C   0  0  0  0  0  0  0  0  0  0  0  0
    9.5840  -18.7160   28.6829 O   0  0  0  0  0  0  0  0  0  0  0  0
    9.9779  -16.5056   28.5160 O   0  0  0  0  0  0  0  0  0  0  0  0
  2  1  1  6
  2  9  1  0
  3  2  1  0
  4  3  1  0
  5  4  2  0
  6  5  1  0
  7  6  1  0
  7  8  2  0
  8  4  1  0
  9 16  1  0
  9 10  2  0
 12 11  1  0
 13 12  1  0
 13 14  1  1
 15 13  1  0
 15 16  1  6
 17 15  1  0
 17 18  2  0
 19 17  1  0
 20 19  1  0
 21 22  1  0
 20 21  1  6
 23 20  1  0
 23 24  1  0
 25 23  2  0
M  END
$$$$
