HIC.pdb
     RDKit          3D

 25 25  0  0  1  0  0  0  0  0999 V2000
   10.0644  -14.4037   20.1269 N   0  0  0  0  0  0  0  0  0  0  0  0
    8.8913  -14.7125   20.9190 C   0  0  1  0  0  0  0  0  0  0  0  0
    8.3133  -16.0578   20.5402 C   0  0  0  0  0  0  0  0  0  0  0  0
    7.6402  -15.9636   19.2194 C   0  0  0  0  0  0  0  0  0  0  0  0
    7.6078  -14.8077   18.4321 C   0  0  0  0  0  0  0  0  0  0  0  0
    6.9137  -15.1147   17.3241 N   0  0  0  0  0  0  0  0  0  0  0  0
    6.5077  -16.3994   17.3705 C   0  0  0  0  0  0  0  0  0  0  0  0
    6.9586  -16.9041   18.5329 N   0  0  0  0  0  0  0  0  0  0  0  0
    9.1728  -14.6214   22.3743 C   0  0  0  0  0  0  0  0  0  0  0  0
   10.3152  -14.9193   22.8080 O   0  0  0  0  0  0  0  0  0  0  0  0
    7.0432  -11.8975   27.4704 C   0  0  0  0  0  0  0  0  0  0  0  0
    7.9980  -12.9597   26.9162 C   0  0  0  0  0  0  0  0  0  0  0  0
    7.6085  -13.1674   25.4772 C   0  0  2  0  0  0  0  0  0  0  0  0
    6.1895  -13.6394   25.3250 C   0  0  0  0  0  0  0  0  0  0  0  0
    8.5054  -14.1441   24.7577 C   0  0  2  0  0  0  0  0  0  0  0  0
    8.2128  -14.2090   23.3386 N   0  0  0  0  0  0  0  0  0  0  0  0
    8.4695  -15.5013   25.3627 C   0  0  0  0  0  0  0  0  0  0  0  0
    7.4689  -16.2567   25.2896 O   0  0  0  0  0  0  0  0  0  0  0  0
    9.6002  -16.0044   26.0650 N   0  0  0  0  0  0  0  0  0  0  0  0
    9.5882  -17.3535   26.6551 C   0  0  1  0  0  0  0  0  0  0  0  0
   10.9200  -18.0007   26.2713 C   0  0  0  0  0  0  0  0  0  0  0  0
   11.0748  -17.8636   24.4671 S   0  0  0  0  0  0  0  0  0  0  0  0
    9.6354  -17.1593   28.1281 C   0  0  0  0  0  0  0  0  0  0  0  0
    9.6523  -18.2501   29.0096 O   0  0  0  0  0  0  0  0  0  0  0  0
    9.6630  -16.0234   28.6765 O   0  0  0  0  0  0  0  0  0  0  0  0
  2  1  1  6
  2  9  1  0
  3  2  1  0
  4  3  1  0
  5  4  2  0
  6  5  1  0
  7  6  1  0
  7  8  2  0
  8  4  1  0
  9 16  1  0
  9 10  2  0
 12 11  1  0
 13 12  1  0
 13 14  1  1
 15 13  1  0
 15 16  1  6
 17 15  1  0
 17 18  2  0
 19 17  1  0
 20 19  1  0
 21 22  1  0
 20 21  1  6
 23 20  1  0
 23 24  1  0
 25 23  2  0
M  END
$$$$
