HLN.pdb
     RDKit          3D

 27 27  0  0  1  0  0  0  0  0999 V2000
   10.9630  -17.8150   15.1452 N   0  0  0  0  0  0  0  0  0  0  0  0
    9.7296  -17.7055   15.8729 C   0  0  1  0  0  0  0  0  0  0  0  0
    9.0901  -19.0471   16.1589 C   0  0  0  0  0  0  0  0  0  0  0  0
    8.6065  -19.7015   14.9367 C   0  0  0  0  0  0  0  0  0  0  0  0
    9.3146  -20.2254   13.8705 C   0  0  0  0  0  0  0  0  0  0  0  0
    8.4733  -20.7354   12.9661 N   0  0  0  0  0  0  0  0  0  0  0  0
    7.2169  -20.5426   13.4408 C   0  0  0  0  0  0  0  0  0  0  0  0
    7.3174  -19.9098   14.6450 N   0  0  0  0  0  0  0  0  0  0  0  0
    9.9526  -16.9353   17.1379 C   0  0  0  0  0  0  0  0  0  0  0  0
   11.0996  -16.9983   17.6143 O   0  0  0  0  0  0  0  0  0  0  0  0
    6.7778  -13.0019   20.9232 C   0  0  0  0  0  0  0  0  0  0  0  0
    8.0800  -13.6747   20.4763 C   0  0  2  0  0  0  0  0  0  0  0  0
    9.0315  -12.5288   20.1440 C   0  0  0  0  0  0  0  0  0  0  0  0
    7.8632  -14.4741   19.2122 C   0  0  0  0  0  0  0  0  0  0  0  0
    8.9963  -15.4157   18.9458 C   0  0  2  0  0  0  0  0  0  0  0  0
    8.9317  -16.1870   17.7471 N   0  0  0  0  0  0  0  0  0  0  0  0
    9.4560  -16.2233   20.0947 C   0  0  0  0  0  0  0  0  0  0  0  0
    8.6136  -17.0406   20.6180 O   0  0  0  0  0  0  0  0  0  0  0  0
   13.1705  -18.0886   20.5611 N   0  0  0  0  0  0  0  0  0  0  0  0
   13.6363  -17.0263   21.3789 C   0  0  0  0  0  0  0  0  0  0  0  0
   14.8702  -16.8326   21.4529 O   0  0  0  0  0  0  0  0  0  0  0  0
   12.7042  -16.1769   22.1214 C   0  0  0  0  0  0  0  0  0  0  0  0
   11.2513  -16.4754   21.9264 C   0  0  2  0  0  0  0  0  0  0  0  0
   10.7310  -16.1627   20.6530 N   0  0  0  0  0  0  0  0  0  0  0  0
   10.5425  -16.0601   23.1362 C   0  0  0  0  0  0  0  0  0  0  0  0
   10.2765  -14.9051   23.4584 O   0  0  0  0  0  0  0  0  0  0  0  0
   10.1379  -17.0965   24.0004 O   0  0  0  0  0  0  0  0  0  0  0  0
  2  3  1  0
  2  1  1  1
  4  8  1  0
  4  3  1  0
  5  4  2  0
  6  5  1  0
  6  7  1  0
  7  8  2  0
  9  2  1  0
 10  9  2  0
 12 11  1  6
 12 14  1  0
 13 12  1  0
 15 14  1  1
 15 16  1  0
 16  9  1  0
 17 15  1  0
 17 18  2  0
 20 22  1  0
 20 19  1  0
 21 20  2  0
 23 22  1  1
 23 24  1  0
 24 17  1  0
 25 23  1  0
 26 25  2  0
 27 25  1  0
M  END
$$$$
