HLN.pdb
     RDKit          3D

 27 27  0  0  1  0  0  0  0  0999 V2000
   10.8728  -17.5426   16.4050 N   0  0  0  0  0  0  0  0  0  0  0  0
    9.7772  -17.6383   17.3288 C   0  0  1  0  0  0  0  0  0  0  0  0
    9.4381  -19.0662   17.6988 C   0  0  0  0  0  0  0  0  0  0  0  0
    9.0069  -19.8517   16.5356 C   0  0  0  0  0  0  0  0  0  0  0  0
    8.5138  -19.4313   15.3138 C   0  0  0  0  0  0  0  0  0  0  0  0
    8.2486  -20.4862   14.5374 N   0  0  0  0  0  0  0  0  0  0  0  0
    8.5665  -21.5944   15.2529 C   0  0  0  0  0  0  0  0  0  0  0  0
    9.0277  -21.1879   16.4705 N   0  0  0  0  0  0  0  0  0  0  0  0
   10.0691  -16.8212   18.5496 C   0  0  0  0  0  0  0  0  0  0  0  0
   11.2674  -16.7400   18.8722 O   0  0  0  0  0  0  0  0  0  0  0  0
    8.9020  -12.5168   19.5541 C   0  0  0  0  0  0  0  0  0  0  0  0
    7.8195  -13.5935   19.6846 C   0  0  2  0  0  0  0  0  0  0  0  0
    6.5308  -12.8340   19.9865 C   0  0  0  0  0  0  0  0  0  0  0  0
    8.1052  -14.5003   20.8595 C   0  0  0  0  0  0  0  0  0  0  0  0
    9.1584  -15.5149   20.5386 C   0  0  2  0  0  0  0  0  0  0  0  0
    9.0542  -16.1846   19.2830 N   0  0  0  0  0  0  0  0  0  0  0  0
    9.5208  -16.4444   21.6286 C   0  0  0  0  0  0  0  0  0  0  0  0
    8.8802  -17.5565   21.6953 O   0  0  0  0  0  0  0  0  0  0  0  0
   14.3557  -19.1112   23.0101 N   0  0  0  0  0  0  0  0  0  0  0  0
   12.9613  -18.9855   23.2422 C   0  0  0  0  0  0  0  0  0  0  0  0
   12.4361  -19.7204   24.1081 O   0  0  0  0  0  0  0  0  0  0  0  0
   12.1513  -18.0258   22.4907 C   0  0  0  0  0  0  0  0  0  0  0  0
   11.3821  -17.0378   23.3095 C   0  0  2  0  0  0  0  0  0  0  0  0
   10.5014  -16.2042   22.5888 N   0  0  0  0  0  0  0  0  0  0  0  0
   12.2963  -16.4673   24.2980 C   0  0  0  0  0  0  0  0  0  0  0  0
   12.7379  -15.3211   24.2983 O   0  0  0  0  0  0  0  0  0  0  0  0
   12.6976  -17.3297   25.3371 O   0  0  0  0  0  0  0  0  0  0  0  0
  2  3  1  0
  2  1  1  6
  4  8  1  0
  4  3  1  0
  5  4  2  0
  6  5  1  0
  6  7  1  0
  7  8  2  0
  9  2  1  0
 10  9  2  0
 12 11  1  1
 12 14  1  0
 13 12  1  0
 15 14  1  1
 15 16  1  0
 16  9  1  0
 17 15  1  0
 17 18  2  0
 20 22  1  0
 20 19  1  0
 21 20  2  0
 23 22  1  6
 23 24  1  0
 24 17  1  0
 25 23  1  0
 26 25  2  0
 27 25  1  0
M  END
$$$$
