HLN.pdb
     RDKit          3D

 27 27  0  0  1  0  0  0  0  0999 V2000
    9.8382  -15.3137   20.8596 N   0  0  0  0  0  0  0  0  0  0  0  0
    8.7626  -15.6215   21.7602 C   0  0  1  0  0  0  0  0  0  0  0  0
    8.3399  -17.0736   21.7029 C   0  0  0  0  0  0  0  0  0  0  0  0
    7.8229  -17.4477   20.3805 C   0  0  0  0  0  0  0  0  0  0  0  0
    7.7133  -16.6958   19.2249 C   0  0  0  0  0  0  0  0  0  0  0  0
    7.1887  -17.4353   18.2433 N   0  0  0  0  0  0  0  0  0  0  0  0
    6.9541  -18.6685   18.7585 C   0  0  0  0  0  0  0  0  0  0  0  0
    7.3473  -18.6577   20.0645 N   0  0  0  0  0  0  0  0  0  0  0  0
    9.1385  -15.2253   23.1549 C   0  0  0  0  0  0  0  0  0  0  0  0
   10.3442  -14.9846   23.3422 O   0  0  0  0  0  0  0  0  0  0  0  0
    7.7244  -11.7557   25.5668 C   0  0  0  0  0  0  0  0  0  0  0  0
    6.7622  -12.9460   25.4951 C   0  0  2  0  0  0  0  0  0  0  0  0
    5.4833  -12.4715   26.1794 C   0  0  0  0  0  0  0  0  0  0  0  0
    7.2994  -14.1171   26.2850 C   0  0  0  0  0  0  0  0  0  0  0  0
    8.4072  -14.8177   25.5613 C   0  0  2  0  0  0  0  0  0  0  0  0
    8.1895  -15.1294   24.1861 N   0  0  0  0  0  0  0  0  0  0  0  0
    9.0522  -15.9345   26.2824 C   0  0  0  0  0  0  0  0  0  0  0  0
    9.1647  -15.8285   27.5582 O   0  0  0  0  0  0  0  0  0  0  0  0
    8.2654  -20.2266   23.8869 N   0  0  0  0  0  0  0  0  0  0  0  0
    8.7623  -19.9280   25.1823 C   0  0  0  0  0  0  0  0  0  0  0  0
    7.9945  -20.0733   26.1595 O   0  0  0  0  0  0  0  0  0  0  0  0
   10.1348  -19.4593   25.3780 C   0  0  0  0  0  0  0  0  0  0  0  0
   10.2873  -18.1932   26.1602 C   0  0  2  0  0  0  0  0  0  0  0  0
    9.5487  -17.0901   25.6831 N   0  0  0  0  0  0  0  0  0  0  0  0
   11.7019  -18.0440   26.4993 C   0  0  0  0  0  0  0  0  0  0  0  0
   12.4097  -18.8905   27.0390 O   0  0  0  0  0  0  0  0  0  0  0  0
   12.2878  -16.8058   26.1703 O   0  0  0  0  0  0  0  0  0  0  0  0
  2  3  1  0
  2  1  1  6
  4  8  1  0
  4  3  1  0
  5  4  2  0
  6  5  1  0
  6  7  1  0
  7  8  2  0
  9  2  1  0
 10  9  2  0
 12 11  1  1
 12 14  1  0
 13 12  1  0
 15 14  1  1
 15 16  1  0
 16  9  1  0
 17 15  1  0
 17 18  2  0
 20 22  1  0
 20 19  1  0
 21 20  2  0
 23 22  1  6
 23 24  1  0
 24 17  1  0
 25 23  1  0
 26 25  2  0
 27 25  1  0
M  END
$$$$
