HLN.pdb
     RDKit          3D

 27 27  0  0  1  0  0  0  0  0999 V2000
   10.3067  -13.7256   21.1180 N   0  0  0  0  0  0  0  0  0  0  0  0
    9.0233  -13.9337   21.7283 C   0  0  1  0  0  0  0  0  0  0  0  0
    8.2498  -15.0755   21.1050 C   0  0  0  0  0  0  0  0  0  0  0  0
    7.9867  -14.8518   19.6778 C   0  0  0  0  0  0  0  0  0  0  0  0
    8.4648  -13.8689   18.8305 C   0  0  0  0  0  0  0  0  0  0  0  0
    7.9715  -14.0423   17.6007 N   0  0  0  0  0  0  0  0  0  0  0  0
    7.1702  -15.1364   17.6460 C   0  0  0  0  0  0  0  0  0  0  0  0
    7.1914  -15.6176   18.9221 N   0  0  0  0  0  0  0  0  0  0  0  0
    9.1890  -14.1379   23.2028 C   0  0  0  0  0  0  0  0  0  0  0  0
   10.3293  -14.4617   23.5791 O   0  0  0  0  0  0  0  0  0  0  0  0
    7.5662  -11.2966   26.5855 C   0  0  0  0  0  0  0  0  0  0  0  0
    6.5543  -12.2591   25.9550 C   0  0  2  0  0  0  0  0  0  0  0  0
    5.2260  -11.9527   26.6412 C   0  0  0  0  0  0  0  0  0  0  0  0
    6.9134  -13.6935   26.2672 C   0  0  0  0  0  0  0  0  0  0  0  0
    8.1329  -14.1389   25.5215 C   0  0  2  0  0  0  0  0  0  0  0  0
    8.1247  -13.9723   24.1045 N   0  0  0  0  0  0  0  0  0  0  0  0
    8.6976  -15.4456   25.9179 C   0  0  0  0  0  0  0  0  0  0  0  0
    8.5893  -15.7871   27.1521 O   0  0  0  0  0  0  0  0  0  0  0  0
   11.0638  -20.1750   25.7152 N   0  0  0  0  0  0  0  0  0  0  0  0
    9.6811  -19.9764   25.9655 C   0  0  0  0  0  0  0  0  0  0  0  0
    9.0126  -20.9415   26.3986 O   0  0  0  0  0  0  0  0  0  0  0  0
    9.0455  -18.6806   25.7235 C   0  0  0  0  0  0  0  0  0  0  0  0
    9.9470  -17.5927   25.2316 C   0  0  2  0  0  0  0  0  0  0  0  0
    9.3396  -16.3317   25.0555 N   0  0  0  0  0  0  0  0  0  0  0  0
   10.7977  -18.1556   24.1838 C   0  0  0  0  0  0  0  0  0  0  0  0
   10.9273  -17.7171   23.0438 O   0  0  0  0  0  0  0  0  0  0  0  0
   11.5260  -19.3095   24.5342 O   0  0  0  0  0  0  0  0  0  0  0  0
  2  3  1  0
  2  1  1  6
  4  8  1  0
  4  3  1  0
  5  4  2  0
  6  5  1  0
  6  7  1  0
  7  8  2  0
  9  2  1  0
 10  9  2  0
 12 11  1  1
 12 14  1  0
 13 12  1  0
 15 14  1  6
 15 16  1  0
 16  9  1  0
 17 15  1  0
 17 18  2  0
 20 22  1  0
 20 19  1  0
 21 20  2  0
 23 22  1  6
 23 24  1  0
 24 17  1  0
 25 23  1  0
 26 25  2  0
 27 25  1  0
M  END
$$$$
