HLN.pdb
     RDKit          3D

 27 27  0  0  1  0  0  0  0  0999 V2000
    7.5508  -15.5755   21.3745 N   0  0  0  0  0  0  0  0  0  0  0  0
    8.8659  -15.0514   21.6174 C   0  0  1  0  0  0  0  0  0  0  0  0
    9.1234  -13.7436   20.9005 C   0  0  0  0  0  0  0  0  0  0  0  0
    8.6742  -13.7806   19.5031 C   0  0  0  0  0  0  0  0  0  0  0  0
    7.5916  -13.1647   18.9020 C   0  0  0  0  0  0  0  0  0  0  0  0
    7.5562  -13.4650   17.6003 N   0  0  0  0  0  0  0  0  0  0  0  0
    8.6139  -14.2781   17.3525 C   0  0  0  0  0  0  0  0  0  0  0  0
    9.2852  -14.4601   18.5258 N   0  0  0  0  0  0  0  0  0  0  0  0
    9.0925  -14.9107   23.0912 C   0  0  0  0  0  0  0  0  0  0  0  0
   10.2191  -14.5065   23.4289 O   0  0  0  0  0  0  0  0  0  0  0  0
    7.9340  -12.1858   26.4559 C   0  0  0  0  0  0  0  0  0  0  0  0
    6.8182  -13.0028   25.7961 C   0  0  2  0  0  0  0  0  0  0  0  0
    5.5243  -12.5068   26.4355 C   0  0  0  0  0  0  0  0  0  0  0  0
    6.9618  -14.4704   26.1270 C   0  0  0  0  0  0  0  0  0  0  0  0
    8.1508  -15.0812   25.4526 C   0  0  2  0  0  0  0  0  0  0  0  0
    8.0953  -15.2137   24.0330 N   0  0  0  0  0  0  0  0  0  0  0  0
    8.7168  -16.2854   26.0951 C   0  0  0  0  0  0  0  0  0  0  0  0
    8.7941  -16.2906   27.3779 O   0  0  0  0  0  0  0  0  0  0  0  0
    9.6853  -20.9046   23.8104 N   0  0  0  0  0  0  0  0  0  0  0  0
   10.2567  -19.6359   23.5309 C   0  0  0  0  0  0  0  0  0  0  0  0
   10.1478  -19.1794   22.3710 O   0  0  0  0  0  0  0  0  0  0  0  0
   10.9589  -18.8763   24.5662 C   0  0  0  0  0  0  0  0  0  0  0  0
   10.1223  -18.4122   25.7163 C   0  0  2  0  0  0  0  0  0  0  0  0
    9.1741  -17.4121   25.4150 N   0  0  0  0  0  0  0  0  0  0  0  0
   10.9977  -18.2736   26.8795 C   0  0  0  0  0  0  0  0  0  0  0  0
   11.7610  -17.3377   27.1032 O   0  0  0  0  0  0  0  0  0  0  0  0
   10.9474  -19.3233   27.8178 O   0  0  0  0  0  0  0  0  0  0  0  0
  2  3  1  0
  2  1  1  1
  4  8  1  0
  4  3  1  0
  5  4  2  0
  6  5  1  0
  6  7  1  0
  7  8  2  0
  9  2  1  0
 10  9  2  0
 12 11  1  1
 12 14  1  0
 13 12  1  0
 15 14  1  1
 15 16  1  0
 16  9  1  0
 17 15  1  0
 17 18  2  0
 20 22  1  0
 20 19  1  0
 21 20  2  0
 23 22  1  6
 23 24  1  0
 24 17  1  0
 25 23  1  0
 26 25  2  0
 27 25  1  0
M  END
$$$$
