HLN.pdb
     RDKit          3D

 27 27  0  0  1  0  0  0  0  0999 V2000
    7.6623  -15.9920   21.6696 N   0  0  0  0  0  0  0  0  0  0  0  0
    8.7657  -15.0787   21.7764 C   0  0  1  0  0  0  0  0  0  0  0  0
    8.5730  -13.8196   20.9590 C   0  0  0  0  0  0  0  0  0  0  0  0
    8.3309  -14.1123   19.5406 C   0  0  0  0  0  0  0  0  0  0  0  0
    8.3136  -15.3243   18.8746 C   0  0  0  0  0  0  0  0  0  0  0  0
    8.0462  -15.1332   17.5793 N   0  0  0  0  0  0  0  0  0  0  0  0
    7.8913  -13.7972   17.3997 C   0  0  0  0  0  0  0  0  0  0  0  0
    8.0688  -13.1896   18.6078 N   0  0  0  0  0  0  0  0  0  0  0  0
    9.0173  -14.7520   23.2162 C   0  0  0  0  0  0  0  0  0  0  0  0
   10.1580  -14.3355   23.4849 O   0  0  0  0  0  0  0  0  0  0  0  0
    7.9836  -11.6714   26.1210 C   0  0  0  0  0  0  0  0  0  0  0  0
    6.8531  -12.6235   25.7170 C   0  0  2  0  0  0  0  0  0  0  0  0
    5.5901  -12.0362   26.3407 C   0  0  0  0  0  0  0  0  0  0  0  0
    7.0676  -13.9942   26.3163 C   0  0  0  0  0  0  0  0  0  0  0  0
    8.1545  -14.7470   25.6136 C   0  0  2  0  0  0  0  0  0  0  0  0
    8.0274  -14.9040   24.2012 N   0  0  0  0  0  0  0  0  0  0  0  0
    8.6112  -15.9917   26.2659 C   0  0  0  0  0  0  0  0  0  0  0  0
    8.8916  -15.9346   27.5188 O   0  0  0  0  0  0  0  0  0  0  0  0
    6.1964  -19.7455   24.3887 N   0  0  0  0  0  0  0  0  0  0  0  0
    7.0049  -19.5975   25.5457 C   0  0  0  0  0  0  0  0  0  0  0  0
    6.4376  -19.4127   26.6455 O   0  0  0  0  0  0  0  0  0  0  0  0
    8.4649  -19.6554   25.4624 C   0  0  0  0  0  0  0  0  0  0  0  0
    9.1993  -18.4916   26.0492 C   0  0  2  0  0  0  0  0  0  0  0  0
    8.7626  -17.2192   25.6244 N   0  0  0  0  0  0  0  0  0  0  0  0
   10.6244  -18.8190   26.0566 C   0  0  0  0  0  0  0  0  0  0  0  0
   11.1321  -19.8299   26.5351 O   0  0  0  0  0  0  0  0  0  0  0  0
   11.4778  -17.8726   25.4561 O   0  0  0  0  0  0  0  0  0  0  0  0
  2  3  1  0
  2  1  1  1
  4  8  1  0
  4  3  1  0
  5  4  2  0
  6  5  1  0
  6  7  1  0
  7  8  2  0
  9  2  1  0
 10  9  2  0
 12 11  1  1
 12 14  1  0
 13 12  1  0
 15 14  1  1
 15 16  1  0
 16  9  1  0
 17 15  1  0
 17 18  2  0
 20 22  1  0
 20 19  1  0
 21 20  2  0
 23 22  1  6
 23 24  1  0
 24 17  1  0
 25 23  1  0
 26 25  2  0
 27 25  1  0
M  END
$$$$
