HLN.pdb
     RDKit          3D

 27 27  0  0  1  0  0  0  0  0999 V2000
    9.2327  -15.4050   20.4887 N   0  0  0  0  0  0  0  0  0  0  0  0
    8.2161  -15.6111   21.4823 C   0  0  1  0  0  0  0  0  0  0  0  0
    7.7641  -17.0525   21.5763 C   0  0  0  0  0  0  0  0  0  0  0  0
    8.3760  -17.8931   20.5395 C   0  0  0  0  0  0  0  0  0  0  0  0
    8.7130  -17.5875   19.2335 C   0  0  0  0  0  0  0  0  0  0  0  0
    9.2557  -18.6534   18.6373 N   0  0  0  0  0  0  0  0  0  0  0  0
    9.2707  -19.6545   19.5531 C   0  0  0  0  0  0  0  0  0  0  0  0
    8.7296  -19.1723   20.7086 N   0  0  0  0  0  0  0  0  0  0  0  0
    8.6943  -15.1097   22.8101 C   0  0  0  0  0  0  0  0  0  0  0  0
    9.9236  -14.9567   22.9195 O   0  0  0  0  0  0  0  0  0  0  0  0
    7.7396  -11.3126   25.7338 C   0  0  0  0  0  0  0  0  0  0  0  0
    6.6140  -12.3065   25.4285 C   0  0  2  0  0  0  0  0  0  0  0  0
    5.4168  -11.8206   26.2405 C   0  0  0  0  0  0  0  0  0  0  0  0
    6.9730  -13.6896   25.9206 C   0  0  0  0  0  0  0  0  0  0  0  0
    8.1113  -14.2795   25.1474 C   0  0  2  0  0  0  0  0  0  0  0  0
    7.8105  -14.8277   23.8648 N   0  0  0  0  0  0  0  0  0  0  0  0
    9.0389  -15.1412   25.9093 C   0  0  0  0  0  0  0  0  0  0  0  0
    9.4005  -14.7365   27.0742 O   0  0  0  0  0  0  0  0  0  0  0  0
   11.6788  -19.5264   27.3638 N   0  0  0  0  0  0  0  0  0  0  0  0
   10.3056  -19.3246   27.6601 C   0  0  0  0  0  0  0  0  0  0  0  0
    9.7713  -20.0580   28.5217 O   0  0  0  0  0  0  0  0  0  0  0  0
    9.5273  -18.2898   26.9783 C   0  0  0  0  0  0  0  0  0  0  0  0
   10.2984  -17.3839   26.0711 C   0  0  2  0  0  0  0  0  0  0  0  0
    9.5514  -16.3558   25.4586 N   0  0  0  0  0  0  0  0  0  0  0  0
   11.2053  -18.2116   25.2770 C   0  0  0  0  0  0  0  0  0  0  0  0
   10.8770  -19.1086   24.5048 O   0  0  0  0  0  0  0  0  0  0  0  0
   12.5795  -17.9404   25.4279 O   0  0  0  0  0  0  0  0  0  0  0  0
  2  3  1  0
  2  1  1  6
  4  8  1  0
  4  3  1  0
  5  4  2  0
  6  5  1  0
  6  7  1  0
  7  8  2  0
  9  2  1  0
 10  9  2  0
 12 11  1  1
 12 14  1  0
 13 12  1  0
 15 14  1  1
 15 16  1  0
 16  9  1  0
 17 15  1  0
 17 18  2  0
 20 22  1  0
 20 19  1  0
 21 20  2  0
 23 22  1  6
 23 24  1  0
 24 17  1  0
 25 23  1  0
 26 25  2  0
 27 25  1  0
M  END
$$$$
