HLN.pdb
     RDKit          3D

 27 27  0  0  1  0  0  0  0  0999 V2000
    7.7943  -15.6663   21.1982 N   0  0  0  0  0  0  0  0  0  0  0  0
    9.0985  -15.1091   21.4253 C   0  0  1  0  0  0  0  0  0  0  0  0
    9.3867  -13.9040   20.5561 C   0  0  0  0  0  0  0  0  0  0  0  0
    9.0347  -14.1390   19.1501 C   0  0  0  0  0  0  0  0  0  0  0  0
    8.8313  -15.3273   18.4725 C   0  0  0  0  0  0  0  0  0  0  0  0
    8.5209  -15.0815   17.1962 N   0  0  0  0  0  0  0  0  0  0  0  0
    8.5239  -13.7336   17.0404 C   0  0  0  0  0  0  0  0  0  0  0  0
    8.8398  -13.1743   18.2437 N   0  0  0  0  0  0  0  0  0  0  0  0
    9.2636  -14.7774   22.8765 C   0  0  0  0  0  0  0  0  0  0  0  0
   10.4016  -14.4136   23.2219 O   0  0  0  0  0  0  0  0  0  0  0  0
    5.9752  -12.0780   26.9023 C   0  0  0  0  0  0  0  0  0  0  0  0
    7.2148  -12.6407   26.1990 C   0  0  2  0  0  0  0  0  0  0  0  0
    7.3290  -11.8557   24.8953 C   0  0  0  0  0  0  0  0  0  0  0  0
    7.0145  -14.0960   25.8438 C   0  0  0  0  0  0  0  0  0  0  0  0
    8.2324  -14.6876   25.2047 C   0  0  2  0  0  0  0  0  0  0  0  0
    8.2003  -14.8690   23.7898 N   0  0  0  0  0  0  0  0  0  0  0  0
    8.8304  -15.8497   25.8942 C   0  0  0  0  0  0  0  0  0  0  0  0
    8.9772  -15.7704   27.1684 O   0  0  0  0  0  0  0  0  0  0  0  0
   10.9960  -20.6939   26.5479 N   0  0  0  0  0  0  0  0  0  0  0  0
   10.2015  -20.6698   25.3721 C   0  0  0  0  0  0  0  0  0  0  0  0
   10.0245  -21.7434   24.7544 O   0  0  0  0  0  0  0  0  0  0  0  0
    9.6037  -19.4253   24.8868 C   0  0  0  0  0  0  0  0  0  0  0  0
    9.8460  -18.2125   25.7287 C   0  0  2  0  0  0  0  0  0  0  0  0
    9.2483  -17.0212   25.2666 N   0  0  0  0  0  0  0  0  0  0  0  0
   11.2500  -18.2243   26.1372 C   0  0  0  0  0  0  0  0  0  0  0  0
   12.0725  -17.3368   25.9258 O   0  0  0  0  0  0  0  0  0  0  0  0
   11.6798  -19.3701   26.8349 O   0  0  0  0  0  0  0  0  0  0  0  0
  2  3  1  0
  2  1  1  1
  4  8  1  0
  4  3  1  0
  5  4  2  0
  6  5  1  0
  6  7  1  0
  7  8  2  0
  9  2  1  0
 10  9  2  0
 12 11  1  6
 12 14  1  0
 13 12  1  0
 15 14  1  1
 15 16  1  0
 16  9  1  0
 17 15  1  0
 17 18  2  0
 20 22  1  0
 20 19  1  0
 21 20  2  0
 23 22  1  6
 23 24  1  0
 24 17  1  0
 25 23  1  0
 26 25  2  0
 27 25  1  0
M  END
$$$$
