HLN.pdb
     RDKit          3D

 27 27  0  0  1  0  0  0  0  0999 V2000
    7.6880  -16.0040   20.9189 N   0  0  0  0  0  0  0  0  0  0  0  0
    8.8426  -15.1532   20.9962 C   0  0  1  0  0  0  0  0  0  0  0  0
    8.7800  -13.9824   20.0391 C   0  0  0  0  0  0  0  0  0  0  0  0
    8.5203  -14.4095   18.6584 C   0  0  0  0  0  0  0  0  0  0  0  0
    8.4471  -15.6821   18.1218 C   0  0  0  0  0  0  0  0  0  0  0  0
    8.1840  -15.6148   16.8134 N   0  0  0  0  0  0  0  0  0  0  0  0
    8.0876  -14.2990   16.4959 C   0  0  0  0  0  0  0  0  0  0  0  0
    8.2960  -13.5778   17.6347 N   0  0  0  0  0  0  0  0  0  0  0  0
    9.0357  -14.6857   22.4059 C   0  0  0  0  0  0  0  0  0  0  0  0
   10.1602  -14.2273   22.6743 O   0  0  0  0  0  0  0  0  0  0  0  0
    5.7808  -12.5185   27.2260 C   0  0  0  0  0  0  0  0  0  0  0  0
    7.0926  -13.0486   26.6375 C   0  0  2  0  0  0  0  0  0  0  0  0
    8.0330  -11.8472   26.6039 C   0  0  0  0  0  0  0  0  0  0  0  0
    6.8909  -13.5151   25.2142 C   0  0  0  0  0  0  0  0  0  0  0  0
    8.0443  -14.3359   24.7269 C   0  0  2  0  0  0  0  0  0  0  0  0
    8.0113  -14.7581   23.3643 N   0  0  0  0  0  0  0  0  0  0  0  0
    8.5008  -15.4161   25.6259 C   0  0  0  0  0  0  0  0  0  0  0  0
    8.6136  -15.1379   26.8754 O   0  0  0  0  0  0  0  0  0  0  0  0
    6.2199  -19.3322   26.0130 N   0  0  0  0  0  0  0  0  0  0  0  0
    7.2441  -19.1065   25.0569 C   0  0  0  0  0  0  0  0  0  0  0  0
    6.9094  -18.8656   23.8755 O   0  0  0  0  0  0  0  0  0  0  0  0
    8.6572  -19.1551   25.4342 C   0  0  0  0  0  0  0  0  0  0  0  0
    9.2526  -17.8655   25.9041 C   0  0  2  0  0  0  0  0  0  0  0  0
    8.8198  -16.7102   25.2200 N   0  0  0  0  0  0  0  0  0  0  0  0
   10.6771  -18.0914   26.1448 C   0  0  0  0  0  0  0  0  0  0  0  0
   11.1590  -18.9328   26.8987 O   0  0  0  0  0  0  0  0  0  0  0  0
   11.5624  -17.2538   25.4381 O   0  0  0  0  0  0  0  0  0  0  0  0
  2  3  1  0
  2  1  1  1
  4  8  1  0
  4  3  1  0
  5  4  2  0
  6  5  1  0
  6  7  1  0
  7  8  2  0
  9  2  1  0
 10  9  2  0
 12 11  1  6
 12 14  1  0
 13 12  1  0
 15 14  1  1
 15 16  1  0
 16  9  1  0
 17 15  1  0
 17 18  2  0
 20 22  1  0
 20 19  1  0
 21 20  2  0
 23 22  1  6
 23 24  1  0
 24 17  1  0
 25 23  1  0
 26 25  2  0
 27 25  1  0
M  END
$$$$
