HLN.pdb
     RDKit          3D

 27 27  0  0  1  0  0  0  0  0999 V2000
   12.1709  -16.9303   14.9220 N   0  0  0  0  0  0  0  0  0  0  0  0
   10.8259  -17.0496   15.4117 C   0  0  1  0  0  0  0  0  0  0  0  0
   10.3338  -18.4804   15.4475 C   0  0  0  0  0  0  0  0  0  0  0  0
   10.0940  -19.0169   14.1018 C   0  0  0  0  0  0  0  0  0  0  0  0
   10.9842  -19.2612   13.0720 C   0  0  0  0  0  0  0  0  0  0  0  0
   10.3376  -19.7595   12.0139 N   0  0  0  0  0  0  0  0  0  0  0  0
    9.0259  -19.8383   12.3524 C   0  0  0  0  0  0  0  0  0  0  0  0
    8.8958  -19.3805   13.6307 N   0  0  0  0  0  0  0  0  0  0  0  0
   10.7181  -16.4098   16.7617 C   0  0  0  0  0  0  0  0  0  0  0  0
   11.6866  -16.5851   17.5220 O   0  0  0  0  0  0  0  0  0  0  0  0
    6.8246  -12.5099   19.8280 C   0  0  0  0  0  0  0  0  0  0  0  0
    8.1416  -13.2888   19.7453 C   0  0  2  0  0  0  0  0  0  0  0  0
    9.2392  -12.2428   19.9182 C   0  0  0  0  0  0  0  0  0  0  0  0
    8.3105  -13.9115   18.3787 C   0  0  0  0  0  0  0  0  0  0  0  0
    9.3705  -14.9688   18.3739 C   0  0  2  0  0  0  0  0  0  0  0  0
    9.5955  -15.6574   17.1446 N   0  0  0  0  0  0  0  0  0  0  0  0
    9.3764  -15.8903   19.5290 C   0  0  0  0  0  0  0  0  0  0  0  0
    8.6320  -16.9353   19.4559 O   0  0  0  0  0  0  0  0  0  0  0  0
   12.3734  -19.0358   22.3250 N   0  0  0  0  0  0  0  0  0  0  0  0
   12.9020  -18.1818   21.3223 C   0  0  0  0  0  0  0  0  0  0  0  0
   14.1268  -18.2462   21.0744 O   0  0  0  0  0  0  0  0  0  0  0  0
   12.0441  -17.2456   20.5948 C   0  0  0  0  0  0  0  0  0  0  0  0
   11.0136  -16.5333   21.4126 C   0  0  2  0  0  0  0  0  0  0  0  0
   10.1254  -15.7095   20.6897 N   0  0  0  0  0  0  0  0  0  0  0  0
   11.6683  -16.0325   22.6205 C   0  0  0  0  0  0  0  0  0  0  0  0
   11.5574  -14.9020   23.0877 O   0  0  0  0  0  0  0  0  0  0  0  0
   12.5012  -16.9468   23.2948 O   0  0  0  0  0  0  0  0  0  0  0  0
  2  3  1  0
  2  1  1  1
  4  8  1  0
  4  3  1  0
  5  4  2  0
  6  5  1  0
  6  7  1  0
  7  8  2  0
  9  2  1  0
 10  9  2  0
 12 11  1  6
 12 14  1  0
 13 12  1  0
 15 14  1  6
 15 16  1  0
 16  9  1  0
 17 15  1  0
 17 18  2  0
 20 22  1  0
 20 19  1  0
 21 20  2  0
 23 22  1  6
 23 24  1  0
 24 17  1  0
 25 23  1  0
 26 25  2  0
 27 25  1  0
M  END
$$$$
