HLN.pdb
     RDKit          3D

 27 27  0  0  1  0  0  0  0  0999 V2000
    9.0019  -18.3203   19.1224 N   0  0  0  0  0  0  0  0  0  0  0  0
   10.3027  -17.7349   19.2902 C   0  0  1  0  0  0  0  0  0  0  0  0
   10.9128  -17.2650   17.9873 C   0  0  0  0  0  0  0  0  0  0  0  0
   11.0095  -18.3470   16.9995 C   0  0  0  0  0  0  0  0  0  0  0  0
   11.5615  -19.6096   17.1171 C   0  0  0  0  0  0  0  0  0  0  0  0
   11.4291  -20.2781   15.9675 N   0  0  0  0  0  0  0  0  0  0  0  0
   10.7930  -19.4515   15.0996 C   0  0  0  0  0  0  0  0  0  0  0  0
   10.5448  -18.2767   15.7468 N   0  0  0  0  0  0  0  0  0  0  0  0
   10.2327  -16.6177   20.2852 C   0  0  0  0  0  0  0  0  0  0  0  0
   11.3224  -16.1147   20.6111 O   0  0  0  0  0  0  0  0  0  0  0  0
    8.8770  -12.7593   19.7028 C   0  0  0  0  0  0  0  0  0  0  0  0
    7.7282  -13.7304   19.9943 C   0  0  2  0  0  0  0  0  0  0  0  0
    6.4526  -12.9381   19.7223 C   0  0  0  0  0  0  0  0  0  0  0  0
    7.7206  -14.1285   21.4522 C   0  0  0  0  0  0  0  0  0  0  0  0
    8.7957  -15.1223   21.7654 C   0  0  2  0  0  0  0  0  0  0  0  0
    9.0134  -16.1646   20.8156 N   0  0  0  0  0  0  0  0  0  0  0  0
    8.8312  -15.6276   23.1535 C   0  0  0  0  0  0  0  0  0  0  0  0
    8.8207  -14.7584   24.1000 O   0  0  0  0  0  0  0  0  0  0  0  0
    6.0416  -17.6208   25.2381 N   0  0  0  0  0  0  0  0  0  0  0  0
    6.7622  -18.7043   24.6717 C   0  0  0  0  0  0  0  0  0  0  0  0
    6.1401  -19.5194   23.9545 O   0  0  0  0  0  0  0  0  0  0  0  0
    8.1950  -18.8725   24.9175 C   0  0  0  0  0  0  0  0  0  0  0  0
    9.0363  -17.6482   24.7400 C   0  0  2  0  0  0  0  0  0  0  0  0
    8.8776  -16.9733   23.5115 N   0  0  0  0  0  0  0  0  0  0  0  0
   10.3734  -17.9456   25.2521 C   0  0  0  0  0  0  0  0  0  0  0  0
   11.4315  -17.7825   24.6500 O   0  0  0  0  0  0  0  0  0  0  0  0
   10.4311  -18.4692   26.5586 O   0  0  0  0  0  0  0  0  0  0  0  0
  2  3  1  0
  2  1  1  6
  4  8  1  0
  4  3  1  0
  5  4  2  0
  6  5  1  0
  6  7  1  0
  7  8  2  0
  9  2  1  0
 10  9  2  0
 12 11  1  1
 12 14  1  0
 13 12  1  0
 15 14  1  6
 15 16  1  0
 16  9  1  0
 17 15  1  0
 17 18  2  0
 20 22  1  0
 20 19  1  0
 21 20  2  0
 23 22  1  6
 23 24  1  0
 24 17  1  0
 25 23  1  0
 26 25  2  0
 27 25  1  0
M  END
$$$$
