HLN.pdb
     RDKit          3D

 27 27  0  0  1  0  0  0  0  0999 V2000
    7.1780  -16.2890   20.8759 N   0  0  0  0  0  0  0  0  0  0  0  0
    8.5990  -16.2302   21.0767 C   0  0  1  0  0  0  0  0  0  0  0  0
    9.3203  -15.4720   19.9834 C   0  0  0  0  0  0  0  0  0  0  0  0
    8.4642  -14.4573   19.3562 C   0  0  0  0  0  0  0  0  0  0  0  0
    7.2675  -13.9153   19.7883 C   0  0  0  0  0  0  0  0  0  0  0  0
    6.8270  -13.0123   18.9072 N   0  0  0  0  0  0  0  0  0  0  0  0
    7.7347  -12.9665   17.8996 C   0  0  0  0  0  0  0  0  0  0  0  0
    8.7274  -13.8556   18.1905 N   0  0  0  0  0  0  0  0  0  0  0  0
    8.8981  -15.6467   22.4233 C   0  0  0  0  0  0  0  0  0  0  0  0
   10.1000  -15.6063   22.7403 O   0  0  0  0  0  0  0  0  0  0  0  0
    5.9680  -12.6079   27.0733 C   0  0  0  0  0  0  0  0  0  0  0  0
    7.2275  -13.2689   26.5036 C   0  0  2  0  0  0  0  0  0  0  0  0
    8.3026  -12.1865   26.5422 C   0  0  0  0  0  0  0  0  0  0  0  0
    7.0199  -13.6600   25.0586 C   0  0  0  0  0  0  0  0  0  0  0  0
    8.0087  -14.6915   24.6117 C   0  0  2  0  0  0  0  0  0  0  0  0
    7.8858  -15.1726   23.2740 N   0  0  0  0  0  0  0  0  0  0  0  0
    8.2848  -15.7856   25.5658 C   0  0  0  0  0  0  0  0  0  0  0  0
    7.2747  -16.3755   26.0978 O   0  0  0  0  0  0  0  0  0  0  0  0
   10.9723  -19.7343   27.8919 N   0  0  0  0  0  0  0  0  0  0  0  0
   11.5111  -19.3722   26.6299 C   0  0  0  0  0  0  0  0  0  0  0  0
   12.4048  -20.0963   26.1372 O   0  0  0  0  0  0  0  0  0  0  0  0
   11.0409  -18.1831   25.9181 C   0  0  0  0  0  0  0  0  0  0  0  0
   10.0321  -17.3464   26.6395 C   0  0  2  0  0  0  0  0  0  0  0  0
    9.5560  -16.2223   25.9325 N   0  0  0  0  0  0  0  0  0  0  0  0
   10.4707  -17.2141   28.0282 C   0  0  0  0  0  0  0  0  0  0  0  0
   10.6713  -16.1602   28.6263 O   0  0  0  0  0  0  0  0  0  0  0  0
   10.6792  -18.4196   28.7266 O   0  0  0  0  0  0  0  0  0  0  0  0
  2  3  1  0
  2  1  1  6
  4  8  1  0
  4  3  1  0
  5  4  2  0
  6  5  1  0
  6  7  1  0
  7  8  2  0
  9  2  1  0
 10  9  2  0
 12 11  1  6
 12 14  1  0
 13 12  1  0
 15 14  1  1
 15 16  1  0
 16  9  1  0
 17 15  1  0
 17 18  2  0
 20 22  1  0
 20 19  1  0
 21 20  2  0
 23 22  1  6
 23 24  1  0
 24 17  1  0
 25 23  1  0
 26 25  2  0
 27 25  1  0
M  END
$$$$
