NED.pdb
     RDKit          3D

 26 25  0  0  1  0  0  0  0  0999 V2000
   15.5835  -11.7169  -15.4714 N   0  0  0  0  0  0  0  0  0  0  0  0
   16.6140  -12.3902  -14.7326 C   0  0  0  0  0  0  0  0  0  0  0  0
   16.2821  -13.4380  -14.1607 O   0  0  0  0  0  0  0  0  0  0  0  0
   17.9698  -11.8592  -14.6682 C   0  0  0  0  0  0  0  0  0  0  0  0
   18.1805  -10.5787  -15.4040 C   0  0  2  0  0  0  0  0  0  0  0  0
   18.2396  -10.8859  -16.8543 N   0  0  0  0  0  0  0  0  0  0  0  0
   19.4668   -9.8994  -15.0552 C   0  0  0  0  0  0  0  0  0  0  0  0
   19.7606   -9.5795  -13.8945 O   0  0  0  0  0  0  0  0  0  0  0  0
   20.4039   -9.6020  -16.0909 N   0  0  0  0  0  0  0  0  0  0  0  0
   21.6453   -8.9318  -15.7739 C   0  0  1  0  0  0  0  0  0  0  0  0
   22.7037   -9.2309  -16.7934 C   0  0  0  0  0  0  0  0  0  0  0  0
   23.3454  -10.5690  -16.6787 C   0  0  0  0  0  0  0  0  0  0  0  0
   24.3079  -10.8161  -17.7608 C   0  0  0  0  0  0  0  0  0  0  0  0
   25.3098  -10.1167  -17.9551 O   0  0  0  0  0  0  0  0  0  0  0  0
   21.4109   -7.4415  -15.8603 C   0  0  0  0  0  0  0  0  0  0  0  0
   20.8917   -6.9102  -16.8728 O   0  0  0  0  0  0  0  0  0  0  0  0
   24.0807  -11.8951  -18.6141 O   0  0  0  0  0  0  0  0  0  0  0  0
   21.7781   -6.5922  -14.7841 N   0  0  0  0  0  0  0  0  0  0  0  0
   21.4440   -5.1428  -14.8809 C   0  0  1  0  0  0  0  0  0  0  0  0
   19.9455   -5.0068  -14.8843 C   0  0  0  0  0  0  0  0  0  0  0  0
   19.5302   -3.6049  -14.8363 C   0  0  0  0  0  0  0  0  0  0  0  0
   20.2345   -2.6577  -15.1992 O   0  0  0  0  0  0  0  0  0  0  0  0
   21.9921   -4.4983  -13.6438 C   0  0  0  0  0  0  0  0  0  0  0  0
   22.5784   -5.3271  -12.6791 O   0  0  0  0  0  0  0  0  0  0  0  0
   18.2479   -3.2841  -14.3480 O   0  0  0  0  0  0  0  0  0  0  0  0
   21.9369   -3.2726  -13.4634 O   0  0  0  0  0  0  0  0  0  0  0  0
  1  2  1  0
  2  3  2  0
  4  2  1  0
  5  4  1  0
  5  6  1  6
  7  8  2  0
  7  5  1  0
  9  7  1  0
 10 11  1  6
 10  9  1  0
 11 12  1  0
 13 12  1  0
 13 17  1  0
 14 13  2  0
 15 10  1  0
 16 15  2  0
 18 15  1  0
 19 20  1  1
 19 18  1  0
 20 21  1  0
 21 25  1  0
 21 22  2  0
 23 24  1  0
 23 19  1  0
 26 23  2  0
M  END
$$$$
