NED.pdb
     RDKit          3D

 26 25  0  0  1  0  0  0  0  0999 V2000
   18.7120  -24.4914  -11.0741 N   0  0  0  0  0  0  0  0  0  0  0  0
   18.3107  -23.7680   -9.9008 C   0  0  0  0  0  0  0  0  0  0  0  0
   18.6971  -22.5933   -9.8230 O   0  0  0  0  0  0  0  0  0  0  0  0
   17.4943  -24.3932   -8.8679 C   0  0  0  0  0  0  0  0  0  0  0  0
   18.0345  -24.2775   -7.4821 C   0  0  2  0  0  0  0  0  0  0  0  0
   19.2660  -25.1006   -7.3982 N   0  0  0  0  0  0  0  0  0  0  0  0
   17.0987  -24.7952   -6.4361 C   0  0  0  0  0  0  0  0  0  0  0  0
   16.0436  -24.2176   -6.1380 O   0  0  0  0  0  0  0  0  0  0  0  0
   17.4208  -26.0029   -5.7455 N   0  0  0  0  0  0  0  0  0  0  0  0
   16.5011  -26.5479   -4.7719 C   0  0  1  0  0  0  0  0  0  0  0  0
   16.9386  -27.9048   -4.3065 C   0  0  0  0  0  0  0  0  0  0  0  0
   16.6453  -29.0281   -5.2380 C   0  0  0  0  0  0  0  0  0  0  0  0
   17.2879  -30.2799   -4.8155 C   0  0  0  0  0  0  0  0  0  0  0  0
   17.2858  -30.6870   -3.6471 O   0  0  0  0  0  0  0  0  0  0  0  0
   16.5397  -25.6680   -3.5441 C   0  0  0  0  0  0  0  0  0  0  0  0
   17.6081  -25.1524   -3.1319 O   0  0  0  0  0  0  0  0  0  0  0  0
   17.9346  -31.0498   -5.7814 O   0  0  0  0  0  0  0  0  0  0  0  0
   15.3524  -25.3990   -2.8144 N   0  0  0  0  0  0  0  0  0  0  0  0
   15.4344  -24.4810   -1.6430 C   0  0  1  0  0  0  0  0  0  0  0  0
   14.4331  -23.3758   -1.8432 C   0  0  0  0  0  0  0  0  0  0  0  0
   14.3819  -22.4778   -0.6894 C   0  0  0  0  0  0  0  0  0  0  0  0
   15.2117  -22.4720    0.2252 O   0  0  0  0  0  0  0  0  0  0  0  0
   15.0402  -25.2887   -0.4437 C   0  0  0  0  0  0  0  0  0  0  0  0
   14.4716  -26.5497   -0.6621 O   0  0  0  0  0  0  0  0  0  0  0  0
   13.3278  -21.5483   -0.5880 O   0  0  0  0  0  0  0  0  0  0  0  0
   15.2047  -24.8698    0.7120 O   0  0  0  0  0  0  0  0  0  0  0  0
  1  2  1  0
  2  3  2  0
  4  2  1  0
  5  4  1  0
  5  6  1  6
  7  8  2  0
  7  5  1  0
  9  7  1  0
 10 11  1  1
 10  9  1  0
 11 12  1  0
 13 12  1  0
 13 17  1  0
 14 13  2  0
 15 10  1  0
 16 15  2  0
 18 15  1  0
 19 20  1  6
 19 18  1  0
 20 21  1  0
 21 25  1  0
 21 22  2  0
 23 24  1  0
 23 19  1  0
 26 23  2  0
M  END
$$$$
