NED.pdb
     RDKit          3D

 26 25  0  0  1  0  0  0  0  0999 V2000
   12.5029  -14.6738  -11.3971 N   0  0  0  0  0  0  0  0  0  0  0  0
   11.9439  -13.7417  -10.4591 C   0  0  0  0  0  0  0  0  0  0  0  0
   11.0292  -14.1695   -9.7412 O   0  0  0  0  0  0  0  0  0  0  0  0
   12.4353  -12.3726  -10.3677 C   0  0  0  0  0  0  0  0  0  0  0  0
   13.5812  -12.0532  -11.2680 C   0  0  2  0  0  0  0  0  0  0  0  0
   14.8200  -12.5719  -10.6376 N   0  0  0  0  0  0  0  0  0  0  0  0
   13.7839  -10.5850  -11.4712 C   0  0  0  0  0  0  0  0  0  0  0  0
   12.9890   -9.8828  -12.1123 O   0  0  0  0  0  0  0  0  0  0  0  0
   14.9346   -9.9535  -10.9090 N   0  0  0  0  0  0  0  0  0  0  0  0
   15.1486   -8.5362  -11.0994 C   0  0  1  0  0  0  0  0  0  0  0  0
   15.6336   -7.8826   -9.8397 C   0  0  0  0  0  0  0  0  0  0  0  0
   15.9127   -6.4241   -9.9399 C   0  0  0  0  0  0  0  0  0  0  0  0
   16.3369   -5.8519   -8.6549 C   0  0  0  0  0  0  0  0  0  0  0  0
   17.3477   -6.2213   -8.0445 O   0  0  0  0  0  0  0  0  0  0  0  0
   16.2654   -8.3595  -12.1018 C   0  0  0  0  0  0  0  0  0  0  0  0
   17.3761   -8.9290  -11.9634 O   0  0  0  0  0  0  0  0  0  0  0  0
   15.5598   -4.8397   -8.0932 O   0  0  0  0  0  0  0  0  0  0  0  0
   16.0850   -7.5325  -13.2411 N   0  0  0  0  0  0  0  0  0  0  0  0
   17.2348   -7.3496  -14.1719 C   0  0  1  0  0  0  0  0  0  0  0  0
   16.9329   -8.0983  -15.4417 C   0  0  0  0  0  0  0  0  0  0  0  0
   17.9683   -7.8859  -16.4531 C   0  0  0  0  0  0  0  0  0  0  0  0
   18.9790   -7.1977  -16.2804 O   0  0  0  0  0  0  0  0  0  0  0  0
   17.3070   -5.8831  -14.4726 C   0  0  0  0  0  0  0  0  0  0  0  0
   18.5695   -5.2770  -14.4749 O   0  0  0  0  0  0  0  0  0  0  0  0
   17.8297   -8.4935  -17.7168 O   0  0  0  0  0  0  0  0  0  0  0  0
   16.2921   -5.2125  -14.7139 O   0  0  0  0  0  0  0  0  0  0  0  0
  1  2  1  0
  2  3  2  0
  4  2  1  0
  5  4  1  0
  5  6  1  1
  7  8  2  0
  7  5  1  0
  9  7  1  0
 10 11  1  1
 10  9  1  0
 11 12  1  0
 13 12  1  0
 13 17  1  0
 14 13  2  0
 15 10  1  0
 16 15  2  0
 18 15  1  0
 19 20  1  6
 19 18  1  0
 20 21  1  0
 21 25  1  0
 21 22  2  0
 23 24  1  0
 23 19  1  0
 26 23  2  0
M  END
$$$$
