NED.pdb
     RDKit          3D

 26 25  0  0  1  0  0  0  0  0999 V2000
   17.0987  -18.9356  -13.2540 N   0  0  0  0  0  0  0  0  0  0  0  0
   17.3510  -18.2918  -14.5122 C   0  0  0  0  0  0  0  0  0  0  0  0
   16.9402  -18.8819  -15.5212 O   0  0  0  0  0  0  0  0  0  0  0  0
   18.0520  -17.0159  -14.5829 C   0  0  0  0  0  0  0  0  0  0  0  0
   19.4146  -17.0784  -15.1869 C   0  0  2  0  0  0  0  0  0  0  0  0
   20.2623  -17.9356  -14.3222 N   0  0  0  0  0  0  0  0  0  0  0  0
   20.0897  -15.7458  -15.2659 C   0  0  0  0  0  0  0  0  0  0  0  0
   20.5970  -15.1938  -14.2790 O   0  0  0  0  0  0  0  0  0  0  0  0
   20.1606  -15.0711  -16.5224 N   0  0  0  0  0  0  0  0  0  0  0  0
   20.8901  -13.8279  -16.6368 C   0  0  1  0  0  0  0  0  0  0  0  0
   21.7377  -13.8034  -17.8738 C   0  0  0  0  0  0  0  0  0  0  0  0
   22.4791  -12.5362  -18.1187 C   0  0  0  0  0  0  0  0  0  0  0  0
   23.3167  -12.6087  -19.3235 C   0  0  0  0  0  0  0  0  0  0  0  0
   24.0816  -13.5503  -19.5666 O   0  0  0  0  0  0  0  0  0  0  0  0
   19.8891  -12.7094  -16.8109 C   0  0  0  0  0  0  0  0  0  0  0  0
   18.6848  -12.9351  -17.0864 O   0  0  0  0  0  0  0  0  0  0  0  0
   23.2466  -11.5615  -20.2413 O   0  0  0  0  0  0  0  0  0  0  0  0
   20.2908  -11.3558  -16.6666 N   0  0  0  0  0  0  0  0  0  0  0  0
   19.2573  -10.2916  -16.8121 C   0  0  1  0  0  0  0  0  0  0  0  0
   18.2018  -10.5175  -15.7637 C   0  0  0  0  0  0  0  0  0  0  0  0
   17.1826   -9.4684  -15.7886 C   0  0  0  0  0  0  0  0  0  0  0  0
   16.7708   -8.9226  -16.8170 O   0  0  0  0  0  0  0  0  0  0  0  0
   19.9485   -8.9900  -16.5397 C   0  0  0  0  0  0  0  0  0  0  0  0
   19.2081   -7.8113  -16.6928 O   0  0  0  0  0  0  0  0  0  0  0  0
   16.6160   -9.0314  -14.5748 O   0  0  0  0  0  0  0  0  0  0  0  0
   21.1371   -8.9395  -16.1891 O   0  0  0  0  0  0  0  0  0  0  0  0
  1  2  1  0
  2  3  2  0
  4  2  1  0
  5  4  1  0
  5  6  1  1
  7  8  2  0
  7  5  1  0
  9  7  1  0
 10 11  1  6
 10  9  1  0
 11 12  1  0
 13 12  1  0
 13 17  1  0
 14 13  2  0
 15 10  1  0
 16 15  2  0
 18 15  1  0
 19 20  1  1
 19 18  1  0
 20 21  1  0
 21 25  1  0
 21 22  2  0
 23 24  1  0
 23 19  1  0
 26 23  2  0
M  END
$$$$
