NED.pdb
     RDKit          3D

 26 25  0  0  1  0  0  0  0  0999 V2000
   15.9342  -10.7891  -17.3294 N   0  0  0  0  0  0  0  0  0  0  0  0
   15.0425  -10.8188  -16.2048 C   0  0  0  0  0  0  0  0  0  0  0  0
   13.8320  -10.8551  -16.4666 O   0  0  0  0  0  0  0  0  0  0  0  0
   15.5473  -10.8067  -14.8375 C   0  0  0  0  0  0  0  0  0  0  0  0
   17.0340  -10.8181  -14.7148 C   0  0  2  0  0  0  0  0  0  0  0  0
   17.4801  -12.2319  -14.6572 N   0  0  0  0  0  0  0  0  0  0  0  0
   17.5308  -10.1589  -13.4673 C   0  0  0  0  0  0  0  0  0  0  0  0
   17.4409  -10.6881  -12.3502 O   0  0  0  0  0  0  0  0  0  0  0  0
   18.1360   -8.8683  -13.5516 N   0  0  0  0  0  0  0  0  0  0  0  0
   18.6811   -8.2450  -12.3662 C   0  0  1  0  0  0  0  0  0  0  0  0
   19.8043   -7.3115  -12.7068 C   0  0  0  0  0  0  0  0  0  0  0  0
   20.3490   -6.5209  -11.5695 C   0  0  0  0  0  0  0  0  0  0  0  0
   21.4548   -5.6462  -11.9824 C   0  0  0  0  0  0  0  0  0  0  0  0
   22.4878   -6.0614  -12.5220 O   0  0  0  0  0  0  0  0  0  0  0  0
   17.6060   -7.3770  -11.7544 C   0  0  0  0  0  0  0  0  0  0  0  0
   16.8972   -6.6101  -12.4519 O   0  0  0  0  0  0  0  0  0  0  0  0
   21.3345   -4.2760  -11.7541 O   0  0  0  0  0  0  0  0  0  0  0  0
   17.3677   -7.4062  -10.3556 N   0  0  0  0  0  0  0  0  0  0  0  0
   16.2787   -6.5499   -9.8054 C   0  0  1  0  0  0  0  0  0  0  0  0
   15.5389   -7.3448   -8.7639 C   0  0  0  0  0  0  0  0  0  0  0  0
   14.4405   -6.5768   -8.1776 C   0  0  0  0  0  0  0  0  0  0  0  0
   14.1625   -5.4137   -8.4857 O   0  0  0  0  0  0  0  0  0  0  0  0
   16.9497   -5.3828   -9.1466 C   0  0  0  0  0  0  0  0  0  0  0  0
   18.3479   -5.3907   -9.0680 O   0  0  0  0  0  0  0  0  0  0  0  0
   13.6299   -7.1776   -7.1939 O   0  0  0  0  0  0  0  0  0  0  0  0
   16.3036   -4.4323   -8.6806 O   0  0  0  0  0  0  0  0  0  0  0  0
  1  2  1  0
  2  3  2  0
  4  2  1  0
  5  4  1  0
  5  6  1  1
  7  8  2  0
  7  5  1  0
  9  7  1  0
 10 11  1  6
 10  9  1  0
 11 12  1  0
 13 12  1  0
 13 17  1  0
 14 13  2  0
 15 10  1  0
 16 15  2  0
 18 15  1  0
 19 20  1  1
 19 18  1  0
 20 21  1  0
 21 25  1  0
 21 22  2  0
 23 24  1  0
 23 19  1  0
 26 23  2  0
M  END
$$$$
