NED.pdb
     RDKit          3D

 26 25  0  0  1  0  0  0  0  0999 V2000
   15.9336  -14.2911  -14.5340 N   0  0  0  0  0  0  0  0  0  0  0  0
   17.3115  -14.0700  -14.8711 C   0  0  0  0  0  0  0  0  0  0  0  0
   17.9756  -15.0784  -15.1491 O   0  0  0  0  0  0  0  0  0  0  0  0
   17.8829  -12.7292  -14.8816 C   0  0  0  0  0  0  0  0  0  0  0  0
   16.9184  -11.6311  -14.5826 C   0  0  2  0  0  0  0  0  0  0  0  0
   16.1686  -11.3261  -15.8258 N   0  0  0  0  0  0  0  0  0  0  0  0
   17.5815  -10.3595  -14.1570 C   0  0  0  0  0  0  0  0  0  0  0  0
   18.4067  -10.3124  -13.2335 O   0  0  0  0  0  0  0  0  0  0  0  0
   17.2611   -9.1433  -14.8333 N   0  0  0  0  0  0  0  0  0  0  0  0
   17.9315   -7.9146  -14.4707 C   0  0  1  0  0  0  0  0  0  0  0  0
   17.9956   -6.9645  -15.6293 C   0  0  0  0  0  0  0  0  0  0  0  0
   18.9516   -7.3327  -16.7090 C   0  0  0  0  0  0  0  0  0  0  0  0
   18.8717   -6.4173  -17.8553 C   0  0  0  0  0  0  0  0  0  0  0  0
   19.8079   -5.6935  -18.2165 O   0  0  0  0  0  0  0  0  0  0  0  0
   17.0984   -7.2161  -13.4212 C   0  0  0  0  0  0  0  0  0  0  0  0
   15.8517   -7.3559  -13.3640 O   0  0  0  0  0  0  0  0  0  0  0  0
   17.6783   -6.3605  -18.5740 O   0  0  0  0  0  0  0  0  0  0  0  0
   17.7127   -6.3711  -12.4605 N   0  0  0  0  0  0  0  0  0  0  0  0
   16.8374   -5.6181  -11.5178 C   0  0  1  0  0  0  0  0  0  0  0  0
   17.0189   -6.2016  -10.1428 C   0  0  0  0  0  0  0  0  0  0  0  0
   16.2895   -5.4371   -9.1310 C   0  0  0  0  0  0  0  0  0  0  0  0
   15.4915   -4.5298   -9.3858 O   0  0  0  0  0  0  0  0  0  0  0  0
   17.3318   -4.2033  -11.5193 C   0  0  0  0  0  0  0  0  0  0  0  0
   16.5132   -3.2234  -10.9440 O   0  0  0  0  0  0  0  0  0  0  0  0
   16.4910   -5.7331   -7.7682 O   0  0  0  0  0  0  0  0  0  0  0  0
   18.4276   -3.8921  -12.0096 O   0  0  0  0  0  0  0  0  0  0  0  0
  1  2  1  0
  2  3  2  0
  4  2  1  0
  5  4  1  0
  5  6  1  6
  7  8  2  0
  7  5  1  0
  9  7  1  0
 10 11  1  6
 10  9  1  0
 11 12  1  0
 13 12  1  0
 13 17  1  0
 14 13  2  0
 15 10  1  0
 16 15  2  0
 18 15  1  0
 19 20  1  1
 19 18  1  0
 20 21  1  0
 21 25  1  0
 21 22  2  0
 23 24  1  0
 23 19  1  0
 26 23  2  0
M  END
$$$$
