NED.pdb
     RDKit          3D

 26 25  0  0  1  0  0  0  0  0999 V2000
   18.9868  -12.4988  -20.0212 N   0  0  0  0  0  0  0  0  0  0  0  0
   19.4127  -13.2575  -18.8792 C   0  0  0  0  0  0  0  0  0  0  0  0
   18.9359  -14.3958  -18.7693 O   0  0  0  0  0  0  0  0  0  0  0  0
   20.3537  -12.7066  -17.9121 C   0  0  0  0  0  0  0  0  0  0  0  0
   20.8891  -11.3564  -18.2528 C   0  0  2  0  0  0  0  0  0  0  0  0
   21.7528  -11.4930  -19.4513 N   0  0  0  0  0  0  0  0  0  0  0  0
   21.7408  -10.7669  -17.1734 C   0  0  0  0  0  0  0  0  0  0  0  0
   21.2932  -10.4671  -16.0573 O   0  0  0  0  0  0  0  0  0  0  0  0
   23.1273  -10.5354  -17.4247 N   0  0  0  0  0  0  0  0  0  0  0  0
   23.9556   -9.9258  -16.4084 C   0  0  1  0  0  0  0  0  0  0  0  0
   25.4110  -10.1833  -16.6625 C   0  0  0  0  0  0  0  0  0  0  0  0
   26.3499   -9.5962  -15.6679 C   0  0  0  0  0  0  0  0  0  0  0  0
   27.7469   -9.9565  -15.9452 C   0  0  0  0  0  0  0  0  0  0  0  0
   28.3752  -10.8013  -15.2954 O   0  0  0  0  0  0  0  0  0  0  0  0
   23.7884   -8.4269  -16.5018 C   0  0  0  0  0  0  0  0  0  0  0  0
   24.1986   -7.7751  -17.4937 O   0  0  0  0  0  0  0  0  0  0  0  0
   28.3996   -9.3125  -16.9956 O   0  0  0  0  0  0  0  0  0  0  0  0
   23.1553   -7.7073  -15.4550 N   0  0  0  0  0  0  0  0  0  0  0  0
   22.9838   -6.2349  -15.6116 C   0  0  1  0  0  0  0  0  0  0  0  0
   22.0458   -5.9926  -16.7629 C   0  0  0  0  0  0  0  0  0  0  0  0
   21.7916   -4.5657  -16.9615 C   0  0  0  0  0  0  0  0  0  0  0  0
   22.5362   -3.6643  -16.5637 O   0  0  0  0  0  0  0  0  0  0  0  0
   22.3446   -5.7462  -14.3471 C   0  0  0  0  0  0  0  0  0  0  0  0
   22.0054   -6.6963  -13.3757 O   0  0  0  0  0  0  0  0  0  0  0  0
   20.6285   -4.1636  -17.6476 O   0  0  0  0  0  0  0  0  0  0  0  0
   22.1159   -4.5433  -14.1503 O   0  0  0  0  0  0  0  0  0  0  0  0
  1  2  1  0
  2  3  2  0
  4  2  1  0
  5  4  1  0
  5  6  1  6
  7  8  2  0
  7  5  1  0
  9  7  1  0
 10 11  1  6
 10  9  1  0
 11 12  1  0
 13 12  1  0
 13 17  1  0
 14 13  2  0
 15 10  1  0
 16 15  2  0
 18 15  1  0
 19 20  1  6
 19 18  1  0
 20 21  1  0
 21 25  1  0
 21 22  2  0
 23 24  1  0
 23 19  1  0
 26 23  2  0
M  END
$$$$
