NED.pdb
     RDKit          3D

 26 25  0  0  1  0  0  0  0  0999 V2000
   18.3407  -14.4729  -16.0876 N   0  0  0  0  0  0  0  0  0  0  0  0
   17.5073  -13.5221  -15.4074 C   0  0  0  0  0  0  0  0  0  0  0  0
   16.6451  -13.9918  -14.6516 O   0  0  0  0  0  0  0  0  0  0  0  0
   17.6778  -12.0881  -15.6046 C   0  0  0  0  0  0  0  0  0  0  0  0
   18.7221  -11.7089  -16.6001 C   0  0  2  0  0  0  0  0  0  0  0  0
   20.0360  -12.1674  -16.0858 N   0  0  0  0  0  0  0  0  0  0  0  0
   18.8334  -10.2318  -16.8089 C   0  0  0  0  0  0  0  0  0  0  0  0
   19.6998   -9.7225  -17.5341 O   0  0  0  0  0  0  0  0  0  0  0  0
   17.9105   -9.3613  -16.1533 N   0  0  0  0  0  0  0  0  0  0  0  0
   17.8872   -7.9527  -16.4788 C   0  0  1  0  0  0  0  0  0  0  0  0
   16.4954   -7.3986  -16.4091 C   0  0  0  0  0  0  0  0  0  0  0  0
   16.3614   -5.9555  -16.7480 C   0  0  0  0  0  0  0  0  0  0  0  0
   14.9825   -5.4746  -16.5873 C   0  0  0  0  0  0  0  0  0  0  0  0
   14.6903   -4.2834  -16.4248 O   0  0  0  0  0  0  0  0  0  0  0  0
   18.6702   -7.2121  -15.4197 C   0  0  0  0  0  0  0  0  0  0  0  0
   18.6001   -7.5233  -14.2050 O   0  0  0  0  0  0  0  0  0  0  0  0
   13.9485   -6.4094  -16.6190 O   0  0  0  0  0  0  0  0  0  0  0  0
   19.5162   -6.1296  -15.7760 N   0  0  0  0  0  0  0  0  0  0  0  0
   20.2825   -5.4452  -14.6961 C   0  0  1  0  0  0  0  0  0  0  0  0
   21.7318   -5.8239  -14.8382 C   0  0  0  0  0  0  0  0  0  0  0  0
   22.5708   -5.1242  -13.8653 C   0  0  0  0  0  0  0  0  0  0  0  0
   23.4073   -4.2643  -14.1587 O   0  0  0  0  0  0  0  0  0  0  0  0
   20.1340   -3.9737  -14.9388 C   0  0  0  0  0  0  0  0  0  0  0  0
   19.6587   -3.5616  -16.1899 O   0  0  0  0  0  0  0  0  0  0  0  0
   22.4382   -5.4312  -12.4966 O   0  0  0  0  0  0  0  0  0  0  0  0
   20.4179   -3.1341  -14.0714 O   0  0  0  0  0  0  0  0  0  0  0  0
  1  2  1  0
  2  3  2  0
  4  2  1  0
  5  4  1  0
  5  6  1  1
  7  8  2  0
  7  5  1  0
  9  7  1  0
 10 11  1  1
 10  9  1  0
 11 12  1  0
 13 12  1  0
 13 17  1  0
 14 13  2  0
 15 10  1  0
 16 15  2  0
 18 15  1  0
 19 20  1  6
 19 18  1  0
 20 21  1  0
 21 25  1  0
 21 22  2  0
 23 24  1  0
 23 19  1  0
 26 23  2  0
M  END
$$$$
