KSK.pdb
     RDKit          3D

 25 24  0  0  1  0  0  0  0  0999 V2000
   16.4913  -13.3957  -18.4997 N   0  0  0  0  0  0  0  0  0  0  0  0
   16.5104  -12.7813  -17.1863 C   0  0  1  0  0  0  0  0  0  0  0  0
   17.1939  -13.6562  -16.1662 C   0  0  0  0  0  0  0  0  0  0  0  0
   16.4569  -14.9346  -15.8917 C   0  0  0  0  0  0  0  0  0  0  0  0
   17.1262  -15.7121  -14.8001 C   0  0  0  0  0  0  0  0  0  0  0  0
   16.3315  -16.9875  -14.5856 C   0  0  0  0  0  0  0  0  0  0  0  0
   17.0230  -17.8475  -13.6381 N   0  0  0  0  0  0  0  0  0  0  0  0
   17.3155  -11.5320  -17.2938 C   0  0  0  0  0  0  0  0  0  0  0  0
   18.3127  -11.4396  -18.0890 O   0  0  0  0  0  0  0  0  0  0  0  0
   16.4361   -8.1013  -15.0475 O   0  0  0  0  0  0  0  0  0  0  0  0
   16.9006   -7.9384  -16.3264 C   0  0  0  0  0  0  0  0  0  0  0  0
   17.7843   -9.1115  -16.7065 C   0  0  2  0  0  0  0  0  0  0  0  0
   17.0358  -10.3637  -16.5276 N   0  0  0  0  0  0  0  0  0  0  0  0
   19.0286   -9.1745  -15.9068 C   0  0  0  0  0  0  0  0  0  0  0  0
   19.0819   -9.9676  -14.9044 O   0  0  0  0  0  0  0  0  0  0  0  0
   20.1751   -8.4084  -16.1798 N   0  0  0  0  0  0  0  0  0  0  0  0
   21.4125   -8.5089  -15.2933 C   0  0  1  0  0  0  0  0  0  0  0  0
   22.4073   -9.2593  -16.0735 C   0  0  0  0  0  0  0  0  0  0  0  0
   23.7369   -9.5544  -15.5709 C   0  0  0  0  0  0  0  0  0  0  0  0
   24.7514  -10.3067  -16.3111 C   0  0  0  0  0  0  0  0  0  0  0  0
   25.9441  -10.4995  -15.3124 C   0  0  0  0  0  0  0  0  0  0  0  0
   27.0064  -11.2022  -15.9800 N   0  0  0  0  0  0  0  0  0  0  0  0
   21.7110   -7.1292  -14.9544 C   0  0  0  0  0  0  0  0  0  0  0  0
   21.2548   -6.1895  -15.7236 O   0  0  0  0  0  0  0  0  0  0  0  0
   22.4437   -6.7486  -13.8566 O   0  0  0  0  0  0  0  0  0  0  0  0
  2  1  1  6
  3  2  1  0
  4  3  1  0
  5  6  1  0
  5  4  1  0
  7  6  1  0
  8  2  1  0
  8  9  2  0
 12 11  1  1
 11 10  1  0
 12 13  1  0
 13  8  1  0
 14 12  1  0
 15 14  2  0
 16 14  1  0
 17 23  1  0
 17 16  1  0
 17 18  1  6
 19 20  1  0
 19 18  1  0
 21 20  1  0
 21 22  1  0
 23 25  1  0
 24 23  2  0
M  END
$$$$
