KSK.pdb
     RDKit          3D

 25 24  0  0  1  0  0  0  0  0999 V2000
   26.7715  -18.9737  -21.0525 N   0  0  0  0  0  0  0  0  0  0  0  0
   25.7987  -17.9775  -20.6474 C   0  0  1  0  0  0  0  0  0  0  0  0
   24.6578  -17.8745  -21.6277 C   0  0  0  0  0  0  0  0  0  0  0  0
   24.8908  -18.6480  -22.8927 C   0  0  0  0  0  0  0  0  0  0  0  0
   23.7597  -18.4500  -23.8547 C   0  0  0  0  0  0  0  0  0  0  0  0
   24.0338  -19.3098  -25.0754 C   0  0  0  0  0  0  0  0  0  0  0  0
   22.9271  -19.2043  -26.0131 N   0  0  0  0  0  0  0  0  0  0  0  0
   25.2166  -18.4286  -19.3519 C   0  0  0  0  0  0  0  0  0  0  0  0
   25.0029  -19.6647  -19.1035 O   0  0  0  0  0  0  0  0  0  0  0  0
   24.1918  -15.7421  -16.2996 O   0  0  0  0  0  0  0  0  0  0  0  0
   24.5658  -17.0117  -15.9443 C   0  0  0  0  0  0  0  0  0  0  0  0
   24.2272  -17.9799  -17.0621 C   0  0  2  0  0  0  0  0  0  0  0  0
   24.8604  -17.5261  -18.3084 N   0  0  0  0  0  0  0  0  0  0  0  0
   22.7694  -18.1140  -17.2823 C   0  0  0  0  0  0  0  0  0  0  0  0
   22.1767  -17.2710  -18.0405 O   0  0  0  0  0  0  0  0  0  0  0  0
   21.9792  -19.1229  -16.7047 N   0  0  0  0  0  0  0  0  0  0  0  0
   20.4784  -19.1892  -16.9698 C   0  0  1  0  0  0  0  0  0  0  0  0
   20.0773  -20.5718  -16.6714 C   0  0  0  0  0  0  0  0  0  0  0  0
   18.7526  -21.0852  -16.9699 C   0  0  0  0  0  0  0  0  0  0  0  0
   18.2893  -22.4288  -16.6195 C   0  0  0  0  0  0  0  0  0  0  0  0
   16.8597  -22.5586  -17.2494 C   0  0  0  0  0  0  0  0  0  0  0  0
   16.3493  -23.8772  -16.9873 N   0  0  0  0  0  0  0  0  0  0  0  0
   19.9317  -18.1272  -16.1448 C   0  0  0  0  0  0  0  0  0  0  0  0
   20.4759  -17.8972  -14.9899 O   0  0  0  0  0  0  0  0  0  0  0  0
   18.8718  -17.3354  -16.5140 O   0  0  0  0  0  0  0  0  0  0  0  0
  2  1  1  6
  3  2  1  0
  4  3  1  0
  5  6  1  0
  5  4  1  0
  7  6  1  0
  8  2  1  0
  8  9  2  0
 12 11  1  1
 11 10  1  0
 12 13  1  0
 13  8  1  0
 14 12  1  0
 15 14  2  0
 16 14  1  0
 17 23  1  0
 17 16  1  0
 17 18  1  1
 19 20  1  0
 19 18  1  0
 21 20  1  0
 21 22  1  0
 23 25  1  0
 24 23  2  0
M  END
$$$$
