KSK.pdb
     RDKit          3D

 25 24  0  0  1  0  0  0  0  0999 V2000
   26.3614  -31.8516  -15.1661 N   0  0  0  0  0  0  0  0  0  0  0  0
   25.3017  -31.1900  -15.9024 C   0  0  1  0  0  0  0  0  0  0  0  0
   24.3018  -32.1740  -16.4548 C   0  0  0  0  0  0  0  0  0  0  0  0
   24.8658  -33.0495  -17.5356 C   0  0  0  0  0  0  0  0  0  0  0  0
   25.1276  -32.2584  -18.7804 C   0  0  0  0  0  0  0  0  0  0  0  0
   25.5881  -33.2256  -19.8559 C   0  0  0  0  0  0  0  0  0  0  0  0
   25.9361  -32.4934  -21.0634 N   0  0  0  0  0  0  0  0  0  0  0  0
   24.5679  -30.3226  -14.9382 C   0  0  0  0  0  0  0  0  0  0  0  0
   24.5478  -30.5755  -13.6849 O   0  0  0  0  0  0  0  0  0  0  0  0
   22.3399  -26.9985  -16.1586 O   0  0  0  0  0  0  0  0  0  0  0  0
   23.1146  -26.8562  -15.0371 C   0  0  0  0  0  0  0  0  0  0  0  0
   23.3004  -28.2038  -14.3655 C   0  0  2  0  0  0  0  0  0  0  0  0
   23.8440  -29.1622  -15.3382 N   0  0  0  0  0  0  0  0  0  0  0  0
   22.0404  -28.7447  -13.8074 C   0  0  0  0  0  0  0  0  0  0  0  0
   21.2667  -29.4235  -14.5672 O   0  0  0  0  0  0  0  0  0  0  0  0
   21.6303  -28.5597  -12.4756 N   0  0  0  0  0  0  0  0  0  0  0  0
   20.3079  -29.1341  -11.9773 C   0  0  1  0  0  0  0  0  0  0  0  0
   20.5642  -29.6071  -10.6091 C   0  0  0  0  0  0  0  0  0  0  0  0
   19.9381  -30.7969  -10.0612 C   0  0  0  0  0  0  0  0  0  0  0  0
   20.2046  -31.3289   -8.7237 C   0  0  0  0  0  0  0  0  0  0  0  0
   18.8010  -31.4737   -8.0411 C   0  0  0  0  0  0  0  0  0  0  0  0
   18.9768  -31.9938   -6.7120 N   0  0  0  0  0  0  0  0  0  0  0  0
   19.3653  -28.0448  -12.1571 C   0  0  0  0  0  0  0  0  0  0  0  0
   18.0985  -28.2943  -12.0309 O   0  0  0  0  0  0  0  0  0  0  0  0
   19.7301  -26.7523  -12.4454 O   0  0  0  0  0  0  0  0  0  0  0  0
  2  1  1  1
  3  2  1  0
  4  3  1  0
  5  6  1  0
  5  4  1  0
  7  6  1  0
  8  2  1  0
  8  9  2  0
 12 11  1  6
 11 10  1  0
 12 13  1  0
 13  8  1  0
 14 12  1  0
 15 14  2  0
 16 14  1  0
 17 23  1  0
 17 16  1  0
 17 18  1  1
 19 20  1  0
 19 18  1  0
 21 20  1  0
 21 22  1  0
 23 25  1  0
 24 23  2  0
M  END
$$$$
