KSK.pdb
     RDKit          3D

 25 24  0  0  1  0  0  0  0  0999 V2000
   16.6539  -11.7015  -10.1774 N   0  0  0  0  0  0  0  0  0  0  0  0
   16.5871  -10.6166  -11.1373 C   0  0  1  0  0  0  0  0  0  0  0  0
   15.2143  -10.4897  -11.7477 C   0  0  0  0  0  0  0  0  0  0  0  0
   14.7815  -11.7173  -12.4950 C   0  0  0  0  0  0  0  0  0  0  0  0
   13.5164  -12.2745  -11.9179 C   0  0  0  0  0  0  0  0  0  0  0  0
   13.1012  -13.4601  -12.7701 C   0  0  0  0  0  0  0  0  0  0  0  0
   11.9273  -14.0965  -12.1936 N   0  0  0  0  0  0  0  0  0  0  0  0
   16.8488   -9.3516  -10.3944 C   0  0  0  0  0  0  0  0  0  0  0  0
   16.6796   -9.2658   -9.1298 O   0  0  0  0  0  0  0  0  0  0  0  0
   17.8962   -5.7588  -12.3217 O   0  0  0  0  0  0  0  0  0  0  0  0
   18.4405   -6.0062  -11.0886 C   0  0  0  0  0  0  0  0  0  0  0  0
   17.5189   -6.9095  -10.2909 C   0  0  2  0  0  0  0  0  0  0  0  0
   17.3014   -8.1602  -11.0316 N   0  0  0  0  0  0  0  0  0  0  0  0
   16.2082   -6.2832  -10.0059 C   0  0  0  0  0  0  0  0  0  0  0  0
   15.2395   -6.4744  -10.8195 O   0  0  0  0  0  0  0  0  0  0  0  0
   15.9519   -5.4789   -8.8818 N   0  0  0  0  0  0  0  0  0  0  0  0
   14.6262   -4.7387   -8.7353 C   0  0  1  0  0  0  0  0  0  0  0  0
   14.2553   -4.8535   -7.3173 C   0  0  0  0  0  0  0  0  0  0  0  0
   13.1159   -4.1581   -6.7466 C   0  0  0  0  0  0  0  0  0  0  0  0
   12.7729   -4.1639   -5.3235 C   0  0  0  0  0  0  0  0  0  0  0  0
   11.5073   -3.2485   -5.1920 C   0  0  0  0  0  0  0  0  0  0  0  0
   11.0529   -3.2689   -3.8278 N   0  0  0  0  0  0  0  0  0  0  0  0
   14.9061   -3.4153   -9.2622 C   0  0  0  0  0  0  0  0  0  0  0  0
   16.1372   -3.0077   -9.2917 O   0  0  0  0  0  0  0  0  0  0  0  0
   13.9449   -2.5614   -9.7456 O   0  0  0  0  0  0  0  0  0  0  0  0
  2  1  1  1
  3  2  1  0
  4  3  1  0
  5  6  1  0
  5  4  1  0
  7  6  1  0
  8  2  1  0
  8  9  2  0
 12 11  1  6
 11 10  1  0
 12 13  1  0
 13  8  1  0
 14 12  1  0
 15 14  2  0
 16 14  1  0
 17 23  1  0
 17 16  1  0
 17 18  1  1
 19 20  1  0
 19 18  1  0
 21 20  1  0
 21 22  1  0
 23 25  1  0
 24 23  2  0
M  END
$$$$
