KSK.pdb
     RDKit          3D

 25 24  0  0  1  0  0  0  0  0999 V2000
   19.4024  -14.5709  -16.2948 N   0  0  0  0  0  0  0  0  0  0  0  0
   19.8472  -13.4063  -17.0354 C   0  0  1  0  0  0  0  0  0  0  0  0
   19.0910  -13.2401  -18.3291 C   0  0  0  0  0  0  0  0  0  0  0  0
   19.1096  -14.4698  -19.1895 C   0  0  0  0  0  0  0  0  0  0  0  0
   18.4006  -14.2242  -20.4860 C   0  0  0  0  0  0  0  0  0  0  0  0
   18.5281  -15.4802  -21.3289 C   0  0  0  0  0  0  0  0  0  0  0  0
   19.8980  -15.6258  -21.7953 N   0  0  0  0  0  0  0  0  0  0  0  0
   19.5452  -12.2093  -16.2008 C   0  0  0  0  0  0  0  0  0  0  0  0
   18.4097  -12.0523  -15.6340 O   0  0  0  0  0  0  0  0  0  0  0  0
   22.3479   -9.9157  -14.3919 O   0  0  0  0  0  0  0  0  0  0  0  0
   21.0325   -9.8167  -14.0203 C   0  0  0  0  0  0  0  0  0  0  0  0
   20.1418   -9.9402  -15.2421 C   0  0  2  0  0  0  0  0  0  0  0  0
   20.4886  -11.1653  -15.9763 N   0  0  0  0  0  0  0  0  0  0  0  0
   20.2578   -8.7809  -16.1556 C   0  0  0  0  0  0  0  0  0  0  0  0
   21.1291   -8.8139  -17.0918 O   0  0  0  0  0  0  0  0  0  0  0  0
   19.4609   -7.6267  -16.0619 N   0  0  0  0  0  0  0  0  0  0  0  0
   19.7369   -6.4119  -16.9422 C   0  0  1  0  0  0  0  0  0  0  0  0
   18.5189   -5.5903  -16.8884 C   0  0  0  0  0  0  0  0  0  0  0  0
   18.4426   -4.2632  -17.4720 C   0  0  0  0  0  0  0  0  0  0  0  0
   17.2535   -3.4103  -17.4314 C   0  0  0  0  0  0  0  0  0  0  0  0
   17.6257   -2.1299  -18.2554 C   0  0  0  0  0  0  0  0  0  0  0  0
   16.4871   -1.2526  -18.2994 N   0  0  0  0  0  0  0  0  0  0  0  0
   20.9602   -5.8550  -16.3937 C   0  0  0  0  0  0  0  0  0  0  0  0
   21.7895   -5.2674  -17.1997 O   0  0  0  0  0  0  0  0  0  0  0  0
   21.2965   -5.9011  -15.0627 O   0  0  0  0  0  0  0  0  0  0  0  0
  2  1  1  1
  3  2  1  0
  4  3  1  0
  5  6  1  0
  5  4  1  0
  7  6  1  0
  8  2  1  0
  8  9  2  0
 12 11  1  1
 11 10  1  0
 12 13  1  0
 13  8  1  0
 14 12  1  0
 15 14  2  0
 16 14  1  0
 17 23  1  0
 17 16  1  0
 17 18  1  1
 19 20  1  0
 19 18  1  0
 21 20  1  0
 21 22  1  0
 23 25  1  0
 24 23  2  0
M  END
$$$$
