KSK.pdb
     RDKit          3D

 25 24  0  0  1  0  0  0  0  0999 V2000
   19.4716  -13.2296  -16.7380 N   0  0  0  0  0  0  0  0  0  0  0  0
   20.1001  -12.0385  -17.2756 C   0  0  1  0  0  0  0  0  0  0  0  0
   19.4226  -11.5658  -18.5368 C   0  0  0  0  0  0  0  0  0  0  0  0
   18.9731  -12.6887  -19.4256 C   0  0  0  0  0  0  0  0  0  0  0  0
   18.3006  -12.1591  -20.6549 C   0  0  0  0  0  0  0  0  0  0  0  0
   17.8533  -13.3476  -21.4867 C   0  0  0  0  0  0  0  0  0  0  0  0
   16.4153  -13.2908  -21.6969 N   0  0  0  0  0  0  0  0  0  0  0  0
   19.9356  -10.9565  -16.2644 C   0  0  0  0  0  0  0  0  0  0  0  0
   18.8375  -10.7873  -15.6314 O   0  0  0  0  0  0  0  0  0  0  0  0
   23.1096   -8.9784  -14.5668 O   0  0  0  0  0  0  0  0  0  0  0  0
   21.8897   -8.9725  -13.9424 C   0  0  0  0  0  0  0  0  0  0  0  0
   20.7815   -8.9432  -14.9781 C   0  0  2  0  0  0  0  0  0  0  0  0
   20.9777  -10.0429  -15.9332 N   0  0  0  0  0  0  0  0  0  0  0  0
   20.7245   -7.6636  -15.7204 C   0  0  0  0  0  0  0  0  0  0  0  0
   21.4344   -7.5269  -16.7759 O   0  0  0  0  0  0  0  0  0  0  0  0
   19.9288   -6.5700  -15.3370 N   0  0  0  0  0  0  0  0  0  0  0  0
   19.9244   -5.2814  -16.1533 C   0  0  1  0  0  0  0  0  0  0  0  0
   18.7838   -5.3916  -17.0742 C   0  0  0  0  0  0  0  0  0  0  0  0
   18.3325   -4.2852  -17.8987 C   0  0  0  0  0  0  0  0  0  0  0  0
   17.2107   -4.3579  -18.8363 C   0  0  0  0  0  0  0  0  0  0  0  0
   17.1251   -2.9406  -19.5006 C   0  0  0  0  0  0  0  0  0  0  0  0
   16.0736   -2.9448  -20.4816 N   0  0  0  0  0  0  0  0  0  0  0  0
   19.8917   -4.2333  -15.1493 C   0  0  0  0  0  0  0  0  0  0  0  0
   20.2673   -3.0387  -15.4880 O   0  0  0  0  0  0  0  0  0  0  0  0
   19.4760   -4.4225  -13.8539 O   0  0  0  0  0  0  0  0  0  0  0  0
  2  1  1  1
  3  2  1  0
  4  3  1  0
  5  6  1  0
  5  4  1  0
  7  6  1  0
  8  2  1  0
  8  9  2  0
 12 11  1  1
 11 10  1  0
 12 13  1  0
 13  8  1  0
 14 12  1  0
 15 14  2  0
 16 14  1  0
 17 23  1  0
 17 16  1  0
 17 18  1  6
 19 20  1  0
 19 18  1  0
 21 20  1  0
 21 22  1  0
 23 25  1  0
 24 23  2  0
M  END
$$$$
