KSK.pdb
     RDKit          3D

 25 24  0  0  1  0  0  0  0  0999 V2000
   18.9070  -12.0660  -15.1343 N   0  0  0  0  0  0  0  0  0  0  0  0
   18.5323  -10.6873  -15.3829 C   0  0  1  0  0  0  0  0  0  0  0  0
   17.1089  -10.5699  -15.8659 C   0  0  0  0  0  0  0  0  0  0  0  0
   16.7492  -11.5901  -16.9063 C   0  0  0  0  0  0  0  0  0  0  0  0
   15.6119  -12.4473  -16.4419 C   0  0  0  0  0  0  0  0  0  0  0  0
   15.3050  -13.4462  -17.5428 C   0  0  0  0  0  0  0  0  0  0  0  0
   14.1716  -14.2728  -17.1587 N   0  0  0  0  0  0  0  0  0  0  0  0
   18.6084   -9.9664  -14.0810 C   0  0  0  0  0  0  0  0  0  0  0  0
   17.9736  -10.3727  -13.0479 O   0  0  0  0  0  0  0  0  0  0  0  0
   20.5751   -6.2724  -13.5946 O   0  0  0  0  0  0  0  0  0  0  0  0
   20.7096   -7.2037  -12.5983 C   0  0  0  0  0  0  0  0  0  0  0  0
   19.5039   -8.1244  -12.5881 C   0  0  2  0  0  0  0  0  0  0  0  0
   19.3849   -8.7862  -13.8950 N   0  0  0  0  0  0  0  0  0  0  0  0
   18.2407   -7.4114  -12.2914 C   0  0  0  0  0  0  0  0  0  0  0  0
   17.5017   -7.0289  -13.2631 O   0  0  0  0  0  0  0  0  0  0  0  0
   17.7911   -7.1220  -10.9914 N   0  0  0  0  0  0  0  0  0  0  0  0
   16.5136   -6.3193  -10.7661 C   0  0  1  0  0  0  0  0  0  0  0  0
   16.0542   -6.6646   -9.4129 C   0  0  0  0  0  0  0  0  0  0  0  0
   14.8675   -6.0797   -8.8152 C   0  0  0  0  0  0  0  0  0  0  0  0
   14.4550   -6.2866   -7.4260 C   0  0  0  0  0  0  0  0  0  0  0  0
   13.1331   -5.4621   -7.2524 C   0  0  0  0  0  0  0  0  0  0  0  0
   12.6471   -5.6317   -5.9097 N   0  0  0  0  0  0  0  0  0  0  0  0
   16.9148   -4.9476  -11.0210 C   0  0  0  0  0  0  0  0  0  0  0  0
   18.1471   -4.6104  -10.7964 O   0  0  0  0  0  0  0  0  0  0  0  0
   16.0696   -3.9756  -11.4982 O   0  0  0  0  0  0  0  0  0  0  0  0
  2  1  1  1
  3  2  1  0
  4  3  1  0
  5  6  1  0
  5  4  1  0
  7  6  1  0
  8  2  1  0
  8  9  2  0
 12 11  1  6
 11 10  1  0
 12 13  1  0
 13  8  1  0
 14 12  1  0
 15 14  2  0
 16 14  1  0
 17 23  1  0
 17 16  1  0
 17 18  1  1
 19 20  1  0
 19 18  1  0
 21 20  1  0
 21 22  1  0
 23 25  1  0
 24 23  2  0
M  END
$$$$
