KSK.pdb
     RDKit          3D

 25 24  0  0  1  0  0  0  0  0999 V2000
   20.7810  -15.4286  -16.7951 N   0  0  0  0  0  0  0  0  0  0  0  0
   19.5847  -14.6240  -16.9508 C   0  0  1  0  0  0  0  0  0  0  0  0
   18.3788  -15.2838  -16.3314 C   0  0  0  0  0  0  0  0  0  0  0  0
   17.9939  -16.5687  -17.0050 C   0  0  0  0  0  0  0  0  0  0  0  0
   16.7617  -17.1492  -16.3816 C   0  0  0  0  0  0  0  0  0  0  0  0
   16.4440  -18.4460  -17.1039 C   0  0  0  0  0  0  0  0  0  0  0  0
   15.1947  -18.9975  -16.6035 N   0  0  0  0  0  0  0  0  0  0  0  0
   19.8088  -13.3501  -16.2109 C   0  0  0  0  0  0  0  0  0  0  0  0
   20.1923  -13.3381  -14.9911 O   0  0  0  0  0  0  0  0  0  0  0  0
   21.4307  -10.1639  -17.7107 O   0  0  0  0  0  0  0  0  0  0  0  0
   21.2705  -10.3354  -16.3606 C   0  0  0  0  0  0  0  0  0  0  0  0
   19.8634  -10.8203  -16.0666 C   0  0  2  0  0  0  0  0  0  0  0  0
   19.6143  -12.0682  -16.8020 N   0  0  0  0  0  0  0  0  0  0  0  0
   18.8271   -9.8288  -16.4335 C   0  0  0  0  0  0  0  0  0  0  0  0
   18.3817   -9.8123  -17.6327 O   0  0  0  0  0  0  0  0  0  0  0  0
   18.2901   -8.8884  -15.5372 N   0  0  0  0  0  0  0  0  0  0  0  0
   17.2397   -7.8817  -15.9958 C   0  0  1  0  0  0  0  0  0  0  0  0
   16.2877   -7.7573  -14.8824 C   0  0  0  0  0  0  0  0  0  0  0  0
   15.1674   -6.8343  -14.9087 C   0  0  0  0  0  0  0  0  0  0  0  0
   14.1923   -6.6881  -13.8267 C   0  0  0  0  0  0  0  0  0  0  0  0
   13.2018   -5.5697  -14.3014 C   0  0  0  0  0  0  0  0  0  0  0  0
   12.2650   -5.2935  -13.2458 N   0  0  0  0  0  0  0  0  0  0  0  0
   18.0161   -6.7114  -16.3634 C   0  0  0  0  0  0  0  0  0  0  0  0
   19.1794   -6.5422  -15.8149 O   0  0  0  0  0  0  0  0  0  0  0  0
   17.6004   -5.7670  -17.2700 O   0  0  0  0  0  0  0  0  0  0  0  0
  2  1  1  1
  3  2  1  0
  4  3  1  0
  5  6  1  0
  5  4  1  0
  7  6  1  0
  8  2  1  0
  8  9  2  0
 12 11  1  6
 11 10  1  0
 12 13  1  0
 13  8  1  0
 14 12  1  0
 15 14  2  0
 16 14  1  0
 17 23  1  0
 17 16  1  0
 17 18  1  1
 19 20  1  0
 19 18  1  0
 21 20  1  0
 21 22  1  0
 23 25  1  0
 24 23  2  0
M  END
$$$$
