LVI.pdb
     RDKit          3D

 24 23  0  0  1  0  0  0  0  0999 V2000
    4.7698  -21.5679   23.6649 C   0  0  0  0  0  0  0  0  0  0  0  0
    6.1390  -21.7268   24.2734 C   0  0  2  0  0  0  0  0  0  0  0  0
    6.0049  -22.4369   25.5935 C   0  0  0  0  0  0  0  0  0  0  0  0
    6.7520  -20.3753   24.4546 C   0  0  0  0  0  0  0  0  0  0  0  0
    7.2586  -19.8704   23.0965 C   0  0  2  0  0  0  0  0  0  0  0  0
    8.2919  -20.7844   22.6938 N   0  0  0  0  0  0  0  0  0  0  0  0
    7.7610  -18.4911   23.2995 C   0  0  0  0  0  0  0  0  0  0  0  0
    8.8366  -18.3389   23.9341 O   0  0  0  0  0  0  0  0  0  0  0  0
    7.6145  -13.6812   22.1543 C   0  0  0  0  0  0  0  0  0  0  0  0
    7.1824  -15.1122   21.9604 C   0  0  1  0  0  0  0  0  0  0  0  0
    7.5114  -15.6368   20.5837 C   0  0  0  0  0  0  0  0  0  0  0  0
    7.6652  -16.0185   23.0662 C   0  0  2  0  0  0  0  0  0  0  0  0
    7.1072  -17.3185   22.8229 N   0  0  0  0  0  0  0  0  0  0  0  0
    7.3975  -15.4990   24.4149 C   0  0  0  0  0  0  0  0  0  0  0  0
    6.2935  -15.8371   24.9353 O   0  0  0  0  0  0  0  0  0  0  0  0
   10.2142  -13.7017   29.6370 C   0  0  0  0  0  0  0  0  0  0  0  0
    9.0403  -13.9505   28.7948 C   0  0  0  0  0  0  0  0  0  0  0  0
    9.1513  -14.2393   27.3586 C   0  0  2  0  0  0  0  0  0  0  0  0
   10.1965  -13.2764   26.7757 C   0  0  0  0  0  0  0  0  0  0  0  0
    7.9350  -14.3063   26.5627 C   0  0  2  0  0  0  0  0  0  0  0  0
    8.2235  -14.6848   25.1672 N   0  0  0  0  0  0  0  0  0  0  0  0
    7.0028  -13.2008   26.4683 C   0  0  0  0  0  0  0  0  0  0  0  0
    6.0272  -12.9528   27.3925 O   0  0  0  0  0  0  0  0  0  0  0  0
    7.0144  -12.3575   25.4906 O   0  0  0  0  0  0  0  0  0  0  0  0
  2  1  1  1
  2  3  1  0
  4  5  1  0
  4  2  1  0
  5  7  1  0
  5  6  1  1
  7  8  2  0
 10 11  1  6
 10 12  1  0
 10  9  1  0
 12 13  1  1
 13  7  1  0
 14 12  1  0
 14 15  2  0
 16 17  1  0
 17 18  1  0
 18 20  1  0
 18 19  1  6
 20 22  1  0
 20 21  1  6
 21 14  1  0
 22 23  1  0
 24 22  2  0
M  END
$$$$
