LVI.pdb
     RDKit          3D

 24 23  0  0  1  0  0  0  0  0999 V2000
    6.7326  -11.4766   24.5501 C   0  0  0  0  0  0  0  0  0  0  0  0
    5.8624  -12.1662   25.5686 C   0  0  2  0  0  0  0  0  0  0  0  0
    5.7442  -11.2854   26.7831 C   0  0  0  0  0  0  0  0  0  0  0  0
    6.4755  -13.4831   25.9224 C   0  0  0  0  0  0  0  0  0  0  0  0
    6.0591  -14.5254   24.8754 C   0  0  2  0  0  0  0  0  0  0  0  0
    4.8325  -15.1008   25.3547 N   0  0  0  0  0  0  0  0  0  0  0  0
    7.1573  -15.5158   24.7795 C   0  0  0  0  0  0  0  0  0  0  0  0
    7.1982  -16.4406   25.6315 O   0  0  0  0  0  0  0  0  0  0  0  0
   10.9826  -17.4571   22.2963 C   0  0  0  0  0  0  0  0  0  0  0  0
    9.8435  -16.4772   22.4166 C   0  0  1  0  0  0  0  0  0  0  0  0
    8.8163  -16.6434   21.3230 C   0  0  0  0  0  0  0  0  0  0  0  0
    9.2352  -16.4620   23.7976 C   0  0  2  0  0  0  0  0  0  0  0  0
    8.1757  -15.4936   23.7836 N   0  0  0  0  0  0  0  0  0  0  0  0
   10.2160  -16.2554   24.8727 C   0  0  0  0  0  0  0  0  0  0  0  0
   11.0395  -15.3082   24.7039 O   0  0  0  0  0  0  0  0  0  0  0  0
    9.7863  -13.6633   28.8561 C   0  0  0  0  0  0  0  0  0  0  0  0
   10.4421  -14.5160   27.8600 C   0  0  0  0  0  0  0  0  0  0  0  0
   10.8314  -15.9030   28.1479 C   0  0  2  0  0  0  0  0  0  0  0  0
   11.7502  -15.8764   29.3786 C   0  0  0  0  0  0  0  0  0  0  0  0
   11.3565  -16.7211   27.0652 C   0  0  2  0  0  0  0  0  0  0  0  0
   10.3290  -16.9853   26.0413 N   0  0  0  0  0  0  0  0  0  0  0  0
   11.9977  -18.0002   27.2945 C   0  0  0  0  0  0  0  0  0  0  0  0
   11.3122  -19.1678   27.4791 O   0  0  0  0  0  0  0  0  0  0  0  0
   13.2801  -18.1398   27.3508 O   0  0  0  0  0  0  0  0  0  0  0  0
  2  1  1  6
  2  3  1  0
  4  5  1  0
  4  2  1  0
  5  7  1  0
  5  6  1  1
  7  8  2  0
 10 11  1  6
 10 12  1  0
 10  9  1  0
 12 13  1  6
 13  7  1  0
 14 12  1  0
 14 15  2  0
 16 17  1  0
 17 18  1  0
 18 20  1  0
 18 19  1  1
 20 22  1  0
 20 21  1  6
 21 14  1  0
 22 23  1  0
 24 22  2  0
M  END
$$$$
