LVI.pdb
     RDKit          3D

 24 23  0  0  1  0  0  0  0  0999 V2000
    5.6031  -19.9193   24.5035 C   0  0  0  0  0  0  0  0  0  0  0  0
    7.0440  -20.3338   24.6529 C   0  0  2  0  0  0  0  0  0  0  0  0
    7.3152  -20.6357   26.1021 C   0  0  0  0  0  0  0  0  0  0  0  0
    7.9230  -19.2273   24.1651 C   0  0  0  0  0  0  0  0  0  0  0  0
    7.5042  -18.8490   22.7376 C   0  0  2  0  0  0  0  0  0  0  0  0
    8.0155  -19.8875   21.8859 N   0  0  0  0  0  0  0  0  0  0  0  0
    8.0958  -17.5228   22.4423 C   0  0  0  0  0  0  0  0  0  0  0  0
    9.3414  -17.4518   22.2800 O   0  0  0  0  0  0  0  0  0  0  0  0
    7.5770  -12.7548   21.2437 C   0  0  0  0  0  0  0  0  0  0  0  0
    7.0818  -14.1748   21.3469 C   0  0  1  0  0  0  0  0  0  0  0  0
    6.7181  -14.7622   20.0048 C   0  0  0  0  0  0  0  0  0  0  0  0
    8.0125  -15.0569   22.1425 C   0  0  2  0  0  0  0  0  0  0  0  0
    7.3479  -16.3157   22.3284 N   0  0  0  0  0  0  0  0  0  0  0  0
    8.4842  -14.4429   23.3919 C   0  0  0  0  0  0  0  0  0  0  0  0
    8.8453  -13.2313   23.3179 O   0  0  0  0  0  0  0  0  0  0  0  0
    6.1675  -11.6364   25.7953 C   0  0  0  0  0  0  0  0  0  0  0  0
    7.3575  -12.4251   25.4618 C   0  0  0  0  0  0  0  0  0  0  0  0
    7.8671  -13.4871   26.3398 C   0  0  2  0  0  0  0  0  0  0  0  0
    8.1619  -12.8513   27.7066 C   0  0  0  0  0  0  0  0  0  0  0  0
    8.9516  -14.3305   25.8603 C   0  0  2  0  0  0  0  0  0  0  0  0
    8.5722  -15.0502   24.6307 N   0  0  0  0  0  0  0  0  0  0  0  0
    9.5941  -15.3249   26.6960 C   0  0  0  0  0  0  0  0  0  0  0  0
    9.4626  -16.6718   26.5063 O   0  0  0  0  0  0  0  0  0  0  0  0
   10.3434  -15.0157   27.7010 O   0  0  0  0  0  0  0  0  0  0  0  0
  2  1  1  1
  2  3  1  0
  4  5  1  0
  4  2  1  0
  5  7  1  0
  5  6  1  6
  7  8  2  0
 10 11  1  6
 10 12  1  0
 10  9  1  0
 12 13  1  1
 13  7  1  0
 14 12  1  0
 14 15  2  0
 16 17  1  0
 17 18  1  0
 18 20  1  0
 18 19  1  1
 20 22  1  0
 20 21  1  6
 21 14  1  0
 22 23  1  0
 24 22  2  0
M  END
$$$$
