LVI.pdb
     RDKit          3D

 24 23  0  0  1  0  0  0  0  0999 V2000
   14.1327  -17.3280   20.2322 C   0  0  0  0  0  0  0  0  0  0  0  0
   12.8596  -17.9968   19.7823 C   0  0  2  0  0  0  0  0  0  0  0  0
   12.9406  -18.2498   18.3010 C   0  0  0  0  0  0  0  0  0  0  0  0
   11.7011  -17.1103   20.1094 C   0  0  0  0  0  0  0  0  0  0  0  0
   10.3969  -17.8812   19.8627 C   0  0  2  0  0  0  0  0  0  0  0  0
   10.0601  -17.6596   18.4833 N   0  0  0  0  0  0  0  0  0  0  0  0
    9.3813  -17.3374   20.7948 C   0  0  0  0  0  0  0  0  0  0  0  0
    8.7579  -16.2994   20.4531 O   0  0  0  0  0  0  0  0  0  0  0  0
    6.2064  -18.1686   24.4410 C   0  0  0  0  0  0  0  0  0  0  0  0
    7.2159  -18.5680   23.3952 C   0  0  1  0  0  0  0  0  0  0  0  0
    6.6194  -19.4359   22.3136 C   0  0  0  0  0  0  0  0  0  0  0  0
    7.9810  -17.3881   22.8476 C   0  0  2  0  0  0  0  0  0  0  0  0
    9.0596  -17.9117   22.0582 N   0  0  0  0  0  0  0  0  0  0  0  0
    8.4081  -16.4313   23.8784 C   0  0  0  0  0  0  0  0  0  0  0  0
    9.5797  -16.5859   24.3338 O   0  0  0  0  0  0  0  0  0  0  0  0
    6.9234  -11.0163   26.6908 C   0  0  0  0  0  0  0  0  0  0  0  0
    7.7774  -12.1712   26.3969 C   0  0  0  0  0  0  0  0  0  0  0  0
    7.3399  -13.2697   25.5250 C   0  0  2  0  0  0  0  0  0  0  0  0
    5.8882  -13.6035   25.8998 C   0  0  0  0  0  0  0  0  0  0  0  0
    8.1827  -14.4504   25.4113 C   0  0  2  0  0  0  0  0  0  0  0  0
    7.6653  -15.3869   24.3968 N   0  0  0  0  0  0  0  0  0  0  0  0
    8.5221  -15.2789   26.5508 C   0  0  0  0  0  0  0  0  0  0  0  0
    7.8549  -16.4257   26.8778 O   0  0  0  0  0  0  0  0  0  0  0  0
    9.4865  -14.9937   27.3605 O   0  0  0  0  0  0  0  0  0  0  0  0
  2  1  1  6
  2  3  1  0
  4  5  1  0
  4  2  1  0
  5  7  1  0
  5  6  1  6
  7  8  2  0
 10 11  1  6
 10 12  1  0
 10  9  1  0
 12 13  1  1
 13  7  1  0
 14 12  1  0
 14 15  2  0
 16 17  1  0
 17 18  1  0
 18 20  1  0
 18 19  1  1
 20 22  1  0
 20 21  1  6
 21 14  1  0
 22 23  1  0
 24 22  2  0
M  END
$$$$
