LVI.pdb
     RDKit          3D

 24 23  0  0  1  0  0  0  0  0999 V2000
    1.9264  -18.6320   22.7409 C   0  0  0  0  0  0  0  0  0  0  0  0
    2.6618  -18.4706   21.4358 C   0  0  2  0  0  0  0  0  0  0  0  0
    2.2588  -19.5860   20.5095 C   0  0  0  0  0  0  0  0  0  0  0  0
    4.1333  -18.5005   21.6983 C   0  0  0  0  0  0  0  0  0  0  0  0
    4.8689  -17.9104   20.4871 C   0  0  2  0  0  0  0  0  0  0  0  0
    5.2052  -19.0256   19.6454 N   0  0  0  0  0  0  0  0  0  0  0  0
    6.0635  -17.2000   21.0011 C   0  0  0  0  0  0  0  0  0  0  0  0
    7.0712  -17.8844   21.3155 O   0  0  0  0  0  0  0  0  0  0  0  0
    8.5456  -12.9705   21.6745 C   0  0  0  0  0  0  0  0  0  0  0  0
    7.3871  -13.7657   21.1286 C   0  0  1  0  0  0  0  0  0  0  0  0
    7.2918  -13.6948   19.6238 C   0  0  0  0  0  0  0  0  0  0  0  0
    7.3559  -15.1799   21.6542 C   0  0  2  0  0  0  0  0  0  0  0  0
    6.1509  -15.7875   21.1648 N   0  0  0  0  0  0  0  0  0  0  0  0
    7.5189  -15.2719   23.1121 C   0  0  0  0  0  0  0  0  0  0  0  0
    6.6501  -14.6713   23.8109 O   0  0  0  0  0  0  0  0  0  0  0  0
    8.2894  -19.8504   25.9876 C   0  0  0  0  0  0  0  0  0  0  0  0
    8.7313  -18.5549   25.4625 C   0  0  0  0  0  0  0  0  0  0  0  0
    7.9950  -17.3102   25.7212 C   0  0  2  0  0  0  0  0  0  0  0  0
    6.5504  -17.5234   25.2445 C   0  0  0  0  0  0  0  0  0  0  0  0
    8.5645  -16.0524   25.2620 C   0  0  2  0  0  0  0  0  0  0  0  0
    8.5175  -15.9436   23.7923 N   0  0  0  0  0  0  0  0  0  0  0  0
    9.8977  -15.6197   25.6296 C   0  0  0  0  0  0  0  0  0  0  0  0
   10.8744  -15.3234   24.7210 O   0  0  0  0  0  0  0  0  0  0  0  0
   10.2760  -15.4850   26.8567 O   0  0  0  0  0  0  0  0  0  0  0  0
  2  1  1  1
  2  3  1  0
  4  5  1  0
  4  2  1  0
  5  7  1  0
  5  6  1  6
  7  8  2  0
 10 11  1  6
 10 12  1  0
 10  9  1  0
 12 13  1  1
 13  7  1  0
 14 12  1  0
 14 15  2  0
 16 17  1  0
 17 18  1  0
 18 20  1  0
 18 19  1  6
 20 22  1  0
 20 21  1  6
 21 14  1  0
 22 23  1  0
 24 22  2  0
M  END
$$$$
