LVI.pdb
     RDKit          3D

 24 23  0  0  1  0  0  0  0  0999 V2000
    9.4749  -13.3832   19.3618 C   0  0  0  0  0  0  0  0  0  0  0  0
    7.9699  -13.3448   19.4233 C   0  0  2  0  0  0  0  0  0  0  0  0
    7.5268  -11.9173   19.5980 C   0  0  0  0  0  0  0  0  0  0  0  0
    7.5068  -14.1907   20.5657 C   0  0  0  0  0  0  0  0  0  0  0  0
    8.1202  -15.5912   20.4312 C   0  0  2  0  0  0  0  0  0  0  0  0
    7.1898  -16.3583   19.6493 N   0  0  0  0  0  0  0  0  0  0  0  0
    8.2962  -16.1280   21.8012 C   0  0  0  0  0  0  0  0  0  0  0  0
    7.2660  -16.4326   22.4559 O   0  0  0  0  0  0  0  0  0  0  0  0
   11.0252  -18.4637   25.1120 C   0  0  0  0  0  0  0  0  0  0  0  0
   10.7054  -17.9372   23.7362 C   0  0  1  0  0  0  0  0  0  0  0  0
   10.4179  -19.0388   22.7451 C   0  0  0  0  0  0  0  0  0  0  0  0
    9.6376  -16.8711   23.7572 C   0  0  2  0  0  0  0  0  0  0  0  0
    9.5582  -16.3244   22.4322 N   0  0  0  0  0  0  0  0  0  0  0  0
    9.8322  -15.8608   24.8070 C   0  0  0  0  0  0  0  0  0  0  0  0
   10.7989  -15.0598   24.6399 O   0  0  0  0  0  0  0  0  0  0  0  0
    6.0600  -12.6440   26.2570 C   0  0  0  0  0  0  0  0  0  0  0  0
    7.3413  -13.3340   26.0797 C   0  0  0  0  0  0  0  0  0  0  0  0
    8.1072  -13.8711   27.2126 C   0  0  2  0  0  0  0  0  0  0  0  0
    8.3360  -12.7174   28.2007 C   0  0  0  0  0  0  0  0  0  0  0  0
    9.3162  -14.6336   26.9406 C   0  0  2  0  0  0  0  0  0  0  0  0
    9.0715  -15.6977   25.9497 N   0  0  0  0  0  0  0  0  0  0  0  0
   10.0919  -15.2658   27.9888 C   0  0  0  0  0  0  0  0  0  0  0  0
   11.1032  -14.6413   28.6630 O   0  0  0  0  0  0  0  0  0  0  0  0
    9.8930  -16.4837   28.3685 O   0  0  0  0  0  0  0  0  0  0  0  0
  2  1  1  1
  2  3  1  0
  4  5  1  0
  4  2  1  0
  5  7  1  0
  5  6  1  6
  7  8  2  0
 10 11  1  6
 10 12  1  0
 10  9  1  0
 12 13  1  6
 13  7  1  0
 14 12  1  0
 14 15  2  0
 16 17  1  0
 17 18  1  0
 18 20  1  0
 18 19  1  1
 20 22  1  0
 20 21  1  6
 21 14  1  0
 22 23  1  0
 24 22  2  0
M  END
$$$$
