LVI.pdb
     RDKit          3D

 24 23  0  0  1  0  0  0  0  0999 V2000
    7.4689  -12.2072   19.5515 C   0  0  0  0  0  0  0  0  0  0  0  0
    8.3308  -13.4402   19.6366 C   0  0  2  0  0  0  0  0  0  0  0  0
    9.7318  -13.0837   19.2183 C   0  0  0  0  0  0  0  0  0  0  0  0
    7.7605  -14.4963   18.7453 C   0  0  0  0  0  0  0  0  0  0  0  0
    8.5074  -15.8145   18.9915 C   0  0  2  0  0  0  0  0  0  0  0  0
    7.9473  -16.7656   18.0711 N   0  0  0  0  0  0  0  0  0  0  0  0
    8.2845  -16.1886   20.4080 C   0  0  0  0  0  0  0  0  0  0  0  0
    7.0989  -16.3249   20.8061 O   0  0  0  0  0  0  0  0  0  0  0  0
    9.7947  -18.4808   24.4200 C   0  0  0  0  0  0  0  0  0  0  0  0
    9.8829  -18.0380   22.9818 C   0  0  1  0  0  0  0  0  0  0  0  0
    9.6556  -19.1707   22.0103 C   0  0  0  0  0  0  0  0  0  0  0  0
    9.0220  -16.8329   22.6924 C   0  0  2  0  0  0  0  0  0  0  0  0
    9.3256  -16.4061   21.3559 N   0  0  0  0  0  0  0  0  0  0  0  0
    9.1396  -15.7677   23.6984 C   0  0  0  0  0  0  0  0  0  0  0  0
   10.2316  -15.1263   23.7085 O   0  0  0  0  0  0  0  0  0  0  0  0
    6.2506  -11.1544   26.3889 C   0  0  0  0  0  0  0  0  0  0  0  0
    7.3038  -12.1739   26.4126 C   0  0  0  0  0  0  0  0  0  0  0  0
    7.2322  -13.3958   25.5999 C   0  0  2  0  0  0  0  0  0  0  0  0
    5.9147  -14.1037   25.9496 C   0  0  0  0  0  0  0  0  0  0  0  0
    8.3750  -14.2964   25.5892 C   0  0  2  0  0  0  0  0  0  0  0  0
    8.1851  -15.3977   24.6274 N   0  0  0  0  0  0  0  0  0  0  0  0
    8.8811  -14.9286   26.7910 C   0  0  0  0  0  0  0  0  0  0  0  0
    8.5361  -16.1910   27.1844 O   0  0  0  0  0  0  0  0  0  0  0  0
    9.7005  -14.3419   27.5981 O   0  0  0  0  0  0  0  0  0  0  0  0
  2  1  1  6
  2  3  1  0
  4  5  1  0
  4  2  1  0
  5  7  1  0
  5  6  1  6
  7  8  2  0
 10 11  1  6
 10 12  1  0
 10  9  1  0
 12 13  1  6
 13  7  1  0
 14 12  1  0
 14 15  2  0
 16 17  1  0
 17 18  1  0
 18 20  1  0
 18 19  1  1
 20 22  1  0
 20 21  1  6
 21 14  1  0
 22 23  1  0
 24 22  2  0
M  END
$$$$
