DIL.pdb
     RDKit          3D

 25 24  0  0  1  0  0  0  0  0999 V2000
    8.8544  -17.5310   20.7919 N   0  0  0  0  0  0  0  0  0  0  0  0
   10.1783  -17.0204   20.9642 C   0  0  1  0  0  0  0  0  0  0  0  0
   10.5717  -16.2669   19.7028 C   0  0  0  0  0  0  0  0  0  0  0  0
   10.5562  -17.2542   18.5966 C   0  0  0  0  0  0  0  0  0  0  0  0
   11.3458  -18.2489   18.6265 O   0  0  0  0  0  0  0  0  0  0  0  0
   10.2332  -16.0698   22.1502 C   0  0  0  0  0  0  0  0  0  0  0  0
   11.2498  -15.3775   22.2950 O   0  0  0  0  0  0  0  0  0  0  0  0
    9.7187  -17.1631   17.5063 O   0  0  0  0  0  0  0  0  0  0  0  0
    6.3812  -13.2545   26.1064 C   0  0  0  0  0  0  0  0  0  0  0  0
    7.7175  -13.8789   25.8433 C   0  0  0  0  0  0  0  0  0  0  0  0
    7.7505  -14.7540   24.6037 C   0  0  2  0  0  0  0  0  0  0  0  0
    6.8916  -15.9672   24.9950 C   0  0  0  0  0  0  0  0  0  0  0  0
    9.1468  -15.2413   24.2996 C   0  0  2  0  0  0  0  0  0  0  0  0
    9.1616  -15.9891   23.0432 N   0  0  0  0  0  0  0  0  0  0  0  0
    9.6164  -16.1095   25.3956 C   0  0  0  0  0  0  0  0  0  0  0  0
    9.5809  -17.3868   25.2184 O   0  0  0  0  0  0  0  0  0  0  0  0
   10.6774  -14.1463   30.4299 C   0  0  0  0  0  0  0  0  0  0  0  0
   10.4706  -14.6531   29.0430 C   0  0  1  0  0  0  0  0  0  0  0  0
   10.6610  -13.5289   28.0202 C   0  0  0  0  0  0  0  0  0  0  0  0
   11.2090  -15.8638   28.7019 C   0  0  0  0  0  0  0  0  0  0  0  0
   10.9297  -16.6684   27.4894 C   0  0  2  0  0  0  0  0  0  0  0  0
   10.1177  -15.7053   26.6420 N   0  0  0  0  0  0  0  0  0  0  0  0
   10.0625  -17.8294   27.7430 C   0  0  0  0  0  0  0  0  0  0  0  0
    8.7941  -17.7630   27.4917 O   0  0  0  0  0  0  0  0  0  0  0  0
   10.4445  -19.0581   28.2353 O   0  0  0  0  0  0  0  0  0  0  0  0
  2  1  1  6
  2  3  1  0
  3  4  1  0
  4  8  1  0
  4  5  2  0
  6  7  2  0
  6  2  1  0
  9 10  1  0
 11 10  1  0
 11 13  1  0
 11 12  1  1
 13 14  1  6
 14  6  1  0
 15 13  1  0
 15 16  2  0
 18 17  1  1
 19 18  1  0
 20 18  1  0
 21 22  1  0
 21 20  1  1
 22 15  1  0
 23 21  1  0
 24 23  2  0
 25 23  1  0
M  END
$$$$
