DIL.pdb
     RDKit          3D

 25 24  0  0  1  0  0  0  0  0999 V2000
   13.3049  -15.3330   19.0659 N   0  0  0  0  0  0  0  0  0  0  0  0
   12.8585  -15.7700   20.3515 C   0  0  1  0  0  0  0  0  0  0  0  0
   14.0473  -15.7680   21.3004 C   0  0  0  0  0  0  0  0  0  0  0  0
   15.0066  -16.7723   20.7809 C   0  0  0  0  0  0  0  0  0  0  0  0
   14.5973  -17.9332   20.4667 O   0  0  0  0  0  0  0  0  0  0  0  0
   11.7884  -14.8337   20.8913 C   0  0  0  0  0  0  0  0  0  0  0  0
   11.9522  -13.6151   20.7433 O   0  0  0  0  0  0  0  0  0  0  0  0
   16.3512  -16.5245   20.6109 O   0  0  0  0  0  0  0  0  0  0  0  0
    6.1124  -13.7475   20.3532 C   0  0  0  0  0  0  0  0  0  0  0  0
    7.2204  -13.7562   21.3616 C   0  0  0  0  0  0  0  0  0  0  0  0
    8.3820  -14.6581   20.9866 C   0  0  2  0  0  0  0  0  0  0  0  0
    7.7808  -16.0708   21.0601 C   0  0  0  0  0  0  0  0  0  0  0  0
    9.5062  -14.5696   21.9906 C   0  0  2  0  0  0  0  0  0  0  0  0
   10.6580  -15.3457   21.5335 N   0  0  0  0  0  0  0  0  0  0  0  0
    9.0473  -15.0888   23.2927 C   0  0  0  0  0  0  0  0  0  0  0  0
    9.4245  -16.2714   23.6437 O   0  0  0  0  0  0  0  0  0  0  0  0
    6.2688  -11.7814   26.8374 C   0  0  0  0  0  0  0  0  0  0  0  0
    7.3918  -12.6361   26.3564 C   0  0  1  0  0  0  0  0  0  0  0  0
    8.6639  -12.3676   27.1662 C   0  0  0  0  0  0  0  0  0  0  0  0
    7.0875  -14.0569   26.2292 C   0  0  0  0  0  0  0  0  0  0  0  0
    8.0135  -15.0311   25.6056 C   0  0  2  0  0  0  0  0  0  0  0  0
    8.2318  -14.4332   24.2272 N   0  0  0  0  0  0  0  0  0  0  0  0
    7.4130  -16.3569   25.3915 C   0  0  0  0  0  0  0  0  0  0  0  0
    6.7598  -16.6087   24.3024 O   0  0  0  0  0  0  0  0  0  0  0  0
    7.4624  -17.4373   26.2450 O   0  0  0  0  0  0  0  0  0  0  0  0
  2  1  1  6
  2  3  1  0
  3  4  1  0
  4  8  1  0
  4  5  2  0
  6  7  2  0
  6  2  1  0
  9 10  1  0
 11 10  1  0
 11 13  1  0
 11 12  1  1
 13 14  1  6
 14  6  1  0
 15 13  1  0
 15 16  2  0
 18 17  1  1
 19 18  1  0
 20 18  1  0
 21 22  1  0
 21 20  1  1
 22 15  1  0
 23 21  1  0
 24 23  2  0
 25 23  1  0
M  END
$$$$
