DIL.pdb
     RDKit          3D

 25 24  0  0  1  0  0  0  0  0999 V2000
   11.1018  -17.5346   16.4535 N   0  0  0  0  0  0  0  0  0  0  0  0
   10.0585  -17.6872   17.4184 C   0  0  1  0  0  0  0  0  0  0  0  0
   10.0327  -19.1380   17.8745 C   0  0  0  0  0  0  0  0  0  0  0  0
    9.5702  -19.9390   16.7155 C   0  0  0  0  0  0  0  0  0  0  0  0
    8.3319  -19.9892   16.4362 O   0  0  0  0  0  0  0  0  0  0  0  0
   10.3092  -16.7909   18.6213 C   0  0  0  0  0  0  0  0  0  0  0  0
   11.4808  -16.6140   18.9816 O   0  0  0  0  0  0  0  0  0  0  0  0
   10.4174  -20.6535   15.8970 O   0  0  0  0  0  0  0  0  0  0  0  0
    6.6333  -12.7052   19.6294 C   0  0  0  0  0  0  0  0  0  0  0  0
    7.9147  -13.4768   19.5444 C   0  0  0  0  0  0  0  0  0  0  0  0
    8.0738  -14.5207   20.6346 C   0  0  2  0  0  0  0  0  0  0  0  0
    8.2011  -13.6854   21.9186 C   0  0  0  0  0  0  0  0  0  0  0  0
    9.3428  -15.3205   20.4627 C   0  0  2  0  0  0  0  0  0  0  0  0
    9.2405  -16.1904   19.2919 N   0  0  0  0  0  0  0  0  0  0  0  0
    9.5769  -16.1398   21.6666 C   0  0  0  0  0  0  0  0  0  0  0  0
    8.7481  -17.0942   21.9242 O   0  0  0  0  0  0  0  0  0  0  0  0
   14.4876  -17.8007   23.1603 C   0  0  0  0  0  0  0  0  0  0  0  0
   13.0168  -17.8429   22.9194 C   0  0  1  0  0  0  0  0  0  0  0  0
   12.5469  -19.2810   22.6798 C   0  0  0  0  0  0  0  0  0  0  0  0
   12.2011  -17.1333   23.8984 C   0  0  0  0  0  0  0  0  0  0  0  0
   10.7349  -16.9672   23.7633 C   0  0  2  0  0  0  0  0  0  0  0  0
   10.6246  -16.0094   22.5905 N   0  0  0  0  0  0  0  0  0  0  0  0
   10.1133  -16.2893   24.9115 C   0  0  0  0  0  0  0  0  0  0  0  0
    9.9171  -15.0098   24.8853 O   0  0  0  0  0  0  0  0  0  0  0  0
    9.6770  -16.8714   26.0815 O   0  0  0  0  0  0  0  0  0  0  0  0
  2  1  1  6
  2  3  1  0
  3  4  1  0
  4  8  1  0
  4  5  2  0
  6  7  2  0
  6  2  1  0
  9 10  1  0
 11 10  1  0
 11 13  1  0
 11 12  1  1
 13 14  1  6
 14  6  1  0
 15 13  1  0
 15 16  2  0
 18 17  1  1
 19 18  1  0
 20 18  1  0
 21 22  1  0
 21 20  1  1
 22 15  1  0
 23 21  1  0
 24 23  2  0
 25 23  1  0
M  END
$$$$
