DIL.pdb
     RDKit          3D

 25 24  0  0  1  0  0  0  0  0999 V2000
   12.3462  -17.6230   19.6292 N   0  0  0  0  0  0  0  0  0  0  0  0
   11.2359  -17.8381   20.5032 C   0  0  1  0  0  0  0  0  0  0  0  0
   11.6584  -18.8191   21.5861 C   0  0  0  0  0  0  0  0  0  0  0  0
   12.2950  -19.9661   20.8946 C   0  0  0  0  0  0  0  0  0  0  0  0
   11.7979  -20.4054   19.8112 O   0  0  0  0  0  0  0  0  0  0  0  0
   10.8082  -16.5315   21.1537 C   0  0  0  0  0  0  0  0  0  0  0  0
   11.6909  -15.7238   21.4734 O   0  0  0  0  0  0  0  0  0  0  0  0
   13.4221  -20.6064   21.3613 O   0  0  0  0  0  0  0  0  0  0  0  0
    7.0293  -13.5924   18.9244 C   0  0  0  0  0  0  0  0  0  0  0  0
    8.1679  -14.0349   19.7917 C   0  0  0  0  0  0  0  0  0  0  0  0
    7.7365  -14.5458   21.1542 C   0  0  2  0  0  0  0  0  0  0  0  0
    7.1651  -13.2966   21.8440 C   0  0  0  0  0  0  0  0  0  0  0  0
    8.9113  -15.0381   21.9650 C   0  0  2  0  0  0  0  0  0  0  0  0
    9.4558  -16.2620   21.3789 N   0  0  0  0  0  0  0  0  0  0  0  0
    8.4786  -15.3047   23.3496 C   0  0  0  0  0  0  0  0  0  0  0  0
    7.6774  -16.2942   23.5572 O   0  0  0  0  0  0  0  0  0  0  0  0
    8.1180  -12.1464   27.2202 C   0  0  0  0  0  0  0  0  0  0  0  0
    6.9162  -12.9861   26.9487 C   0  0  1  0  0  0  0  0  0  0  0  0
    5.6733  -12.1106   26.7616 C   0  0  0  0  0  0  0  0  0  0  0  0
    7.0736  -13.9832   25.8959 C   0  0  0  0  0  0  0  0  0  0  0  0
    8.2109  -14.9314   25.8417 C   0  0  2  0  0  0  0  0  0  0  0  0
    8.8467  -14.5976   24.5040 N   0  0  0  0  0  0  0  0  0  0  0  0
    7.7962  -16.3407   25.7629 C   0  0  0  0  0  0  0  0  0  0  0  0
    7.0180  -16.7389   24.8079 O   0  0  0  0  0  0  0  0  0  0  0  0
    8.1541  -17.3595   26.6185 O   0  0  0  0  0  0  0  0  0  0  0  0
  2  1  1  6
  2  3  1  0
  3  4  1  0
  4  8  1  0
  4  5  2  0
  6  7  2  0
  6  2  1  0
  9 10  1  0
 11 10  1  0
 11 13  1  0
 11 12  1  1
 13 14  1  6
 14  6  1  0
 15 13  1  0
 15 16  2  0
 18 17  1  6
 19 18  1  0
 20 18  1  0
 21 22  1  0
 21 20  1  6
 22 15  1  0
 23 21  1  0
 24 23  2  0
 25 23  1  0
M  END
$$$$
