DIL.pdb
     RDKit          3D

 25 24  0  0  1  0  0  0  0  0999 V2000
    7.5792  -18.7555   18.8990 N   0  0  0  0  0  0  0  0  0  0  0  0
    8.4726  -18.3125   19.9230 C   0  0  1  0  0  0  0  0  0  0  0  0
    9.2321  -17.0995   19.4079 C   0  0  0  0  0  0  0  0  0  0  0  0
   10.2817  -17.6125   18.4947 C   0  0  0  0  0  0  0  0  0  0  0  0
   10.8214  -18.7397   18.7226 O   0  0  0  0  0  0  0  0  0  0  0  0
    7.6994  -17.9223   21.1734 C   0  0  0  0  0  0  0  0  0  0  0  0
    6.5986  -17.3735   21.0298 O   0  0  0  0  0  0  0  0  0  0  0  0
   10.7243  -16.9293   17.3831 O   0  0  0  0  0  0  0  0  0  0  0  0
    6.6146  -21.7219   24.4275 C   0  0  0  0  0  0  0  0  0  0  0  0
    6.6309  -20.3851   23.7512 C   0  0  0  0  0  0  0  0  0  0  0  0
    7.4985  -19.3556   24.4518 C   0  0  2  0  0  0  0  0  0  0  0  0
    6.7887  -19.1411   25.7982 C   0  0  0  0  0  0  0  0  0  0  0  0
    7.5149  -18.0401   23.7108 C   0  0  2  0  0  0  0  0  0  0  0  0
    8.2265  -18.1809   22.4413 N   0  0  0  0  0  0  0  0  0  0  0  0
    8.1798  -17.0158   24.5378 C   0  0  0  0  0  0  0  0  0  0  0  0
    9.4695  -16.9882   24.5524 O   0  0  0  0  0  0  0  0  0  0  0  0
    5.8461  -12.1809   26.8808 C   0  0  0  0  0  0  0  0  0  0  0  0
    6.9506  -12.8578   26.1426 C   0  0  1  0  0  0  0  0  0  0  0  0
    8.1186  -11.8945   25.9104 C   0  0  0  0  0  0  0  0  0  0  0  0
    7.3727  -14.1431   26.6877 C   0  0  0  0  0  0  0  0  0  0  0  0
    8.4040  -14.9944   26.0495 C   0  0  2  0  0  0  0  0  0  0  0  0
    7.5645  -16.0345   25.3294 N   0  0  0  0  0  0  0  0  0  0  0  0
    9.2366  -15.7296   27.0141 C   0  0  0  0  0  0  0  0  0  0  0  0
    8.7928  -16.8138   27.5651 O   0  0  0  0  0  0  0  0  0  0  0  0
   10.5088  -15.4029   27.4297 O   0  0  0  0  0  0  0  0  0  0  0  0
  2  1  1  6
  2  3  1  0
  3  4  1  0
  4  8  1  0
  4  5  2  0
  6  7  2  0
  6  2  1  0
  9 10  1  0
 11 10  1  0
 11 13  1  0
 11 12  1  1
 13 14  1  6
 14  6  1  0
 15 13  1  0
 15 16  2  0
 18 17  1  1
 19 18  1  0
 20 18  1  0
 21 22  1  0
 21 20  1  1
 22 15  1  0
 23 21  1  0
 24 23  2  0
 25 23  1  0
M  END
$$$$
