DIL.pdb
     RDKit          3D

 25 24  0  0  1  0  0  0  0  0999 V2000
   11.2717  -19.0994   20.2049 N   0  0  0  0  0  0  0  0  0  0  0  0
   11.4852  -17.6868   20.2486 C   0  0  1  0  0  0  0  0  0  0  0  0
   11.4183  -17.1455   18.8287 C   0  0  0  0  0  0  0  0  0  0  0  0
   12.6200  -17.6535   18.1239 C   0  0  0  0  0  0  0  0  0  0  0  0
   13.7306  -17.7206   18.7370 O   0  0  0  0  0  0  0  0  0  0  0  0
   10.4139  -17.0111   21.0905 C   0  0  0  0  0  0  0  0  0  0  0  0
   10.3332  -15.7761   21.0486 O   0  0  0  0  0  0  0  0  0  0  0  0
   12.6134  -18.0698   16.8105 O   0  0  0  0  0  0  0  0  0  0  0  0
    5.8424  -19.6278   21.4179 C   0  0  0  0  0  0  0  0  0  0  0  0
    6.5438  -18.3177   21.6090 C   0  0  0  0  0  0  0  0  0  0  0  0
    7.3749  -18.2479   22.8771 C   0  0  2  0  0  0  0  0  0  0  0  0
    6.3831  -17.7291   23.9307 C   0  0  0  0  0  0  0  0  0  0  0  0
    8.5003  -17.2488   22.7544 C   0  0  2  0  0  0  0  0  0  0  0  0
    9.5520  -17.7726   21.8840 N   0  0  0  0  0  0  0  0  0  0  0  0
    9.0597  -16.9687   24.0900 C   0  0  0  0  0  0  0  0  0  0  0  0
    9.9397  -17.7840   24.5647 O   0  0  0  0  0  0  0  0  0  0  0  0
    8.2140  -12.1271   27.1471 C   0  0  0  0  0  0  0  0  0  0  0  0
    8.1578  -13.6045   26.9544 C   0  0  1  0  0  0  0  0  0  0  0  0
    6.9064  -14.0020   26.1657 C   0  0  0  0  0  0  0  0  0  0  0  0
    9.3760  -14.2151   26.4343 C   0  0  0  0  0  0  0  0  0  0  0  0
    9.5227  -15.6737   26.2184 C   0  0  2  0  0  0  0  0  0  0  0  0
    8.7482  -15.8895   24.9305 N   0  0  0  0  0  0  0  0  0  0  0  0
    8.8547  -16.4887   27.2450 C   0  0  0  0  0  0  0  0  0  0  0  0
    7.6642  -16.9528   27.0361 O   0  0  0  0  0  0  0  0  0  0  0  0
    9.3611  -16.8540   28.4730 O   0  0  0  0  0  0  0  0  0  0  0  0
  2  1  1  6
  2  3  1  0
  3  4  1  0
  4  8  1  0
  4  5  2  0
  6  7  2  0
  6  2  1  0
  9 10  1  0
 11 10  1  0
 11 13  1  0
 11 12  1  1
 13 14  1  6
 14  6  1  0
 15 13  1  0
 15 16  2  0
 18 17  1  6
 19 18  1  0
 20 18  1  0
 21 22  1  0
 21 20  1  1
 22 15  1  0
 23 21  1  0
 24 23  2  0
 25 23  1  0
M  END
$$$$
