DIL.pdb
     RDKit          3D

 25 24  0  0  1  0  0  0  0  0999 V2000
   11.3449  -18.3361   21.0449 N   0  0  0  0  0  0  0  0  0  0  0  0
   10.0873  -18.1298   21.6921 C   0  0  1  0  0  0  0  0  0  0  0  0
    9.9803  -19.1014   22.8575 C   0  0  0  0  0  0  0  0  0  0  0  0
   11.3665  -19.4833   23.2201 C   0  0  0  0  0  0  0  0  0  0  0  0
   12.3432  -19.0313   22.5452 O   0  0  0  0  0  0  0  0  0  0  0  0
    9.9856  -16.7066   22.2188 C   0  0  0  0  0  0  0  0  0  0  0  0
   11.0158  -16.1693   22.6475 O   0  0  0  0  0  0  0  0  0  0  0  0
   11.6759  -20.3197   24.2704 O   0  0  0  0  0  0  0  0  0  0  0  0
    7.5687  -12.9788   19.2901 C   0  0  0  0  0  0  0  0  0  0  0  0
    8.4095  -13.6450   20.3361 C   0  0  0  0  0  0  0  0  0  0  0  0
    7.6643  -13.9367   21.6257 C   0  0  2  0  0  0  0  0  0  0  0  0
    7.3394  -12.5399   22.1789 C   0  0  0  0  0  0  0  0  0  0  0  0
    8.5388  -14.6509   22.6282 C   0  0  2  0  0  0  0  0  0  0  0  0
    8.7600  -16.0356   22.2139 N   0  0  0  0  0  0  0  0  0  0  0  0
    7.8900  -14.6302   23.9526 C   0  0  0  0  0  0  0  0  0  0  0  0
    6.9180  -15.4507   24.1673 O   0  0  0  0  0  0  0  0  0  0  0  0
   10.6335  -13.4577   28.4624 C   0  0  0  0  0  0  0  0  0  0  0  0
    9.6786  -14.1478   27.5486 C   0  0  1  0  0  0  0  0  0  0  0  0
    9.5164  -15.6189   27.9432 C   0  0  0  0  0  0  0  0  0  0  0  0
    8.4036  -13.4690   27.3463 C   0  0  0  0  0  0  0  0  0  0  0  0
    7.4126  -13.8928   26.3295 C   0  0  2  0  0  0  0  0  0  0  0  0
    8.2133  -13.8079   25.0424 N   0  0  0  0  0  0  0  0  0  0  0  0
    6.2882  -12.9558   26.1803 C   0  0  0  0  0  0  0  0  0  0  0  0
    5.3013  -12.9831   27.0178 O   0  0  0  0  0  0  0  0  0  0  0  0
    6.1391  -11.9866   25.2125 O   0  0  0  0  0  0  0  0  0  0  0  0
  2  1  1  1
  2  3  1  0
  3  4  1  0
  4  8  1  0
  4  5  2  0
  6  7  2  0
  6  2  1  0
  9 10  1  0
 11 10  1  0
 11 13  1  0
 11 12  1  1
 13 14  1  6
 14  6  1  0
 15 13  1  0
 15 16  2  0
 18 17  1  1
 19 18  1  0
 20 18  1  0
 21 22  1  0
 21 20  1  1
 22 15  1  0
 23 21  1  0
 24 23  2  0
 25 23  1  0
M  END
$$$$
