DIL.pdb
     RDKit          3D

 25 24  0  0  1  0  0  0  0  0999 V2000
   11.4337  -18.1140   20.1677 N   0  0  0  0  0  0  0  0  0  0  0  0
   12.3508  -17.4309   21.0251 C   0  0  1  0  0  0  0  0  0  0  0  0
   13.3448  -16.6715   20.1598 C   0  0  0  0  0  0  0  0  0  0  0  0
   14.2014  -17.6892   19.5047 C   0  0  0  0  0  0  0  0  0  0  0  0
   14.7410  -17.4336   18.3834 O   0  0  0  0  0  0  0  0  0  0  0  0
   11.6131  -16.4456   21.9186 C   0  0  0  0  0  0  0  0  0  0  0  0
   12.2747  -15.5656   22.4856 O   0  0  0  0  0  0  0  0  0  0  0  0
   14.4594  -18.9298   20.0457 O   0  0  0  0  0  0  0  0  0  0  0  0
    6.8153  -14.5665   20.3007 C   0  0  0  0  0  0  0  0  0  0  0  0
    8.1252  -14.6873   21.0177 C   0  0  0  0  0  0  0  0  0  0  0  0
    8.0445  -15.4788   22.3102 C   0  0  2  0  0  0  0  0  0  0  0  0
    7.2192  -14.5725   23.2378 C   0  0  0  0  0  0  0  0  0  0  0  0
    9.4064  -15.6767   22.9313 C   0  0  2  0  0  0  0  0  0  0  0  0
   10.2293  -16.5411   22.0866 N   0  0  0  0  0  0  0  0  0  0  0  0
    9.2567  -16.2885   24.2650 C   0  0  0  0  0  0  0  0  0  0  0  0
    9.1652  -17.5732   24.3386 O   0  0  0  0  0  0  0  0  0  0  0  0
    9.6182  -13.0088   28.5093 C   0  0  0  0  0  0  0  0  0  0  0  0
   10.0680  -14.2418   27.8018 C   0  0  1  0  0  0  0  0  0  0  0  0
   11.4749  -14.6446   28.2541 C   0  0  0  0  0  0  0  0  0  0  0  0
    9.1244  -15.3538   27.8198 C   0  0  0  0  0  0  0  0  0  0  0  0
    9.1093  -16.4203   26.7913 C   0  0  2  0  0  0  0  0  0  0  0  0
    9.2062  -15.6264   25.5008 N   0  0  0  0  0  0  0  0  0  0  0  0
    7.8377  -17.1575   26.7295 C   0  0  0  0  0  0  0  0  0  0  0  0
    7.6476  -18.1937   27.4821 O   0  0  0  0  0  0  0  0  0  0  0  0
    6.7503  -16.8702   25.9338 O   0  0  0  0  0  0  0  0  0  0  0  0
  2  1  1  6
  2  3  1  0
  3  4  1  0
  4  8  1  0
  4  5  2  0
  6  7  2  0
  6  2  1  0
  9 10  1  0
 11 10  1  0
 11 13  1  0
 11 12  1  1
 13 14  1  6
 14  6  1  0
 15 13  1  0
 15 16  2  0
 18 17  1  1
 19 18  1  0
 20 18  1  0
 21 22  1  0
 21 20  1  1
 22 15  1  0
 23 21  1  0
 24 23  2  0
 25 23  1  0
M  END
$$$$
