QEN.pdb
     RDKit          3D

 27 26  0  0  1  0  0  0  0  0999 V2000
   12.9691   -9.7066  -16.3748 N   0  0  0  0  0  0  0  0  0  0  0  0
   12.6291  -11.0877  -16.2620 C   0  0  0  0  0  0  0  0  0  0  0  0
   11.9093  -11.5927  -17.1501 O   0  0  0  0  0  0  0  0  0  0  0  0
   13.0990  -11.9259  -15.1497 C   0  0  0  0  0  0  0  0  0  0  0  0
   13.9653  -11.3213  -14.1343 C   0  0  0  0  0  0  0  0  0  0  0  0
   15.4207  -11.5728  -14.1554 C   0  0  2  0  0  0  0  0  0  0  0  0
   15.5767  -13.0131  -13.7486 N   0  0  0  0  0  0  0  0  0  0  0  0
   16.2003  -10.7769  -13.2105 C   0  0  0  0  0  0  0  0  0  0  0  0
   16.2999  -11.0941  -11.9709 O   0  0  0  0  0  0  0  0  0  0  0  0
   16.9299   -9.5801  -13.5838 N   0  0  0  0  0  0  0  0  0  0  0  0
   17.5634   -8.8204  -12.5731 C   0  0  1  0  0  0  0  0  0  0  0  0
   18.8549   -8.1800  -13.0014 C   0  0  0  0  0  0  0  0  0  0  0  0
   19.5554   -7.3680  -11.9923 C   0  0  0  0  0  0  0  0  0  0  0  0
   20.8149   -6.7431  -12.4017 C   0  0  0  0  0  0  0  0  0  0  0  0
   21.1067   -5.5771  -12.1236 O   0  0  0  0  0  0  0  0  0  0  0  0
   16.6970   -7.7391  -12.0243 C   0  0  0  0  0  0  0  0  0  0  0  0
   16.0228   -7.0029  -12.7590 O   0  0  0  0  0  0  0  0  0  0  0  0
   21.7684   -7.4667  -13.1477 O   0  0  0  0  0  0  0  0  0  0  0  0
   14.3908   -4.7381   -8.4739 N   0  0  0  0  0  0  0  0  0  0  0  0
   14.5994   -6.0428   -7.9052 C   0  0  0  0  0  0  0  0  0  0  0  0
   14.1171   -6.2750   -6.7900 O   0  0  0  0  0  0  0  0  0  0  0  0
   15.3747   -6.9864   -8.7126 C   0  0  0  0  0  0  0  0  0  0  0  0
   15.8049   -6.4667  -10.0550 C   0  0  2  0  0  0  0  0  0  0  0  0
   16.6367   -7.5436  -10.6374 N   0  0  0  0  0  0  0  0  0  0  0  0
   16.6259   -5.2482   -9.9967 C   0  0  0  0  0  0  0  0  0  0  0  0
   17.8696   -5.2485   -9.9304 O   0  0  0  0  0  0  0  0  0  0  0  0
   15.9842   -4.0065  -10.0163 O   0  0  0  0  0  0  0  0  0  0  0  0
  2  1  1  0
  3  2  2  0
  4  2  1  0
  5  4  1  0
  5  6  1  0
  6  7  1  1
  6  8  1  0
  8  9  2  0
 10  8  1  0
 10 11  1  0
 11 12  1  6
 12 13  1  0
 13 14  1  0
 14 15  2  0
 14 18  1  0
 16 11  1  0
 16 17  2  0
 19 20  1  0
 20 22  1  0
 20 21  2  0
 23 22  1  1
 23 24  1  0
 24 16  1  0
 25 23  1  0
 25 27  1  0
 26 25  2  0
M  END
$$$$
