QEN.pdb
     RDKit          3D

 27 26  0  0  1  0  0  0  0  0999 V2000
   12.2973  -11.2504  -13.1745 N   0  0  0  0  0  0  0  0  0  0  0  0
   12.9856  -12.3415  -13.7838 C   0  0  0  0  0  0  0  0  0  0  0  0
   12.3397  -13.3823  -14.0315 O   0  0  0  0  0  0  0  0  0  0  0  0
   14.4126  -12.2772  -14.1306 C   0  0  0  0  0  0  0  0  0  0  0  0
   15.1723  -11.0827  -13.7525 C   0  0  0  0  0  0  0  0  0  0  0  0
   16.6364  -11.1605  -13.5725 C   0  0  2  0  0  0  0  0  0  0  0  0
   16.8928  -12.5403  -13.0296 N   0  0  0  0  0  0  0  0  0  0  0  0
   17.1929  -10.2139  -12.6092 C   0  0  0  0  0  0  0  0  0  0  0  0
   16.9524  -10.2997  -11.3515 O   0  0  0  0  0  0  0  0  0  0  0  0
   18.0631   -9.1140  -12.9797 N   0  0  0  0  0  0  0  0  0  0  0  0
   18.4440   -8.1782  -11.9902 C   0  0  1  0  0  0  0  0  0  0  0  0
   19.5505   -7.2512  -12.4119 C   0  0  0  0  0  0  0  0  0  0  0  0
   20.0548   -6.3178  -11.3906 C   0  0  0  0  0  0  0  0  0  0  0  0
   21.1264   -5.4063  -11.7966 C   0  0  0  0  0  0  0  0  0  0  0  0
   22.3216   -5.6524  -11.6141 O   0  0  0  0  0  0  0  0  0  0  0  0
   17.3126   -7.3286  -11.5220 C   0  0  0  0  0  0  0  0  0  0  0  0
   16.4427   -6.9092  -12.2989 O   0  0  0  0  0  0  0  0  0  0  0  0
   20.8285   -4.1810  -12.4285 O   0  0  0  0  0  0  0  0  0  0  0  0
   14.6007   -6.2087   -6.3641 N   0  0  0  0  0  0  0  0  0  0  0  0
   14.4364   -6.3103   -7.7895 C   0  0  0  0  0  0  0  0  0  0  0  0
   13.4095   -5.8377   -8.2917 O   0  0  0  0  0  0  0  0  0  0  0  0
   15.5167   -6.9737   -8.5217 C   0  0  0  0  0  0  0  0  0  0  0  0
   16.0965   -6.1759   -9.6551 C   0  0  2  0  0  0  0  0  0  0  0  0
   17.2223   -6.9907  -10.1645 N   0  0  0  0  0  0  0  0  0  0  0  0
   16.6345   -4.8660   -9.2593 C   0  0  0  0  0  0  0  0  0  0  0  0
   15.9303   -3.9009   -8.9074 O   0  0  0  0  0  0  0  0  0  0  0  0
   18.0197   -4.6785   -9.2741 O   0  0  0  0  0  0  0  0  0  0  0  0
  2  1  1  0
  3  2  2  0
  4  2  1  0
  5  4  1  0
  5  6  1  0
  6  7  1  1
  6  8  1  0
  8  9  2  0
 10  8  1  0
 10 11  1  0
 11 12  1  6
 12 13  1  0
 13 14  1  0
 14 15  2  0
 14 18  1  0
 16 11  1  0
 16 17  2  0
 19 20  1  0
 20 22  1  0
 20 21  2  0
 23 22  1  1
 23 24  1  0
 24 16  1  0
 25 23  1  0
 25 27  1  0
 26 25  2  0
M  END
$$$$
