QEN.pdb
     RDKit          3D

 27 26  0  0  1  0  0  0  0  0999 V2000
   29.5021  -22.2080  -16.2430 N   0  0  0  0  0  0  0  0  0  0  0  0
   28.4431  -23.0899  -16.6125 C   0  0  0  0  0  0  0  0  0  0  0  0
   28.7126  -24.0556  -17.3587 O   0  0  0  0  0  0  0  0  0  0  0  0
   27.0629  -22.9030  -16.1428 C   0  0  0  0  0  0  0  0  0  0  0  0
   26.7735  -21.7796  -15.2476 C   0  0  0  0  0  0  0  0  0  0  0  0
   26.4381  -20.4536  -15.8054 C   0  0  2  0  0  0  0  0  0  0  0  0
   27.5961  -19.5670  -15.4347 N   0  0  0  0  0  0  0  0  0  0  0  0
   25.2352  -19.8358  -15.2531 C   0  0  0  0  0  0  0  0  0  0  0  0
   25.1283  -19.5446  -14.0078 O   0  0  0  0  0  0  0  0  0  0  0  0
   24.0742  -19.4911  -16.0515 N   0  0  0  0  0  0  0  0  0  0  0  0
   22.9648  -18.8822  -15.4204 C   0  0  1  0  0  0  0  0  0  0  0  0
   22.3916  -17.7138  -16.1740 C   0  0  0  0  0  0  0  0  0  0  0  0
   21.2439  -17.0287  -15.5560 C   0  0  0  0  0  0  0  0  0  0  0  0
   20.6654  -15.9051  -16.2957 C   0  0  0  0  0  0  0  0  0  0  0  0
   21.1074  -15.5175  -17.3805 O   0  0  0  0  0  0  0  0  0  0  0  0
   21.8450  -19.8312  -15.1622 C   0  0  0  0  0  0  0  0  0  0  0  0
   21.5404  -20.7208  -15.9697 O   0  0  0  0  0  0  0  0  0  0  0  0
   19.5526  -15.2043  -15.7860 O   0  0  0  0  0  0  0  0  0  0  0  0
   17.9613  -22.2137  -12.7432 N   0  0  0  0  0  0  0  0  0  0  0  0
   18.9998  -21.8887  -11.8024 C   0  0  0  0  0  0  0  0  0  0  0  0
   18.8856  -22.3052  -10.6433 O   0  0  0  0  0  0  0  0  0  0  0  0
   20.1103  -21.0834  -12.3140 C   0  0  0  0  0  0  0  0  0  0  0  0
   19.9355  -20.5847  -13.7204 C   0  0  2  0  0  0  0  0  0  0  0  0
   21.1111  -19.7216  -13.9729 N   0  0  0  0  0  0  0  0  0  0  0  0
   18.7289  -19.7702  -13.9275 C   0  0  0  0  0  0  0  0  0  0  0  0
   18.5975  -18.6022  -13.5156 O   0  0  0  0  0  0  0  0  0  0  0  0
   17.6558  -20.3287  -14.6279 O   0  0  0  0  0  0  0  0  0  0  0  0
  2  1  1  0
  3  2  2  0
  4  2  1  0
  5  4  1  0
  5  6  1  0
  6  7  1  1
  6  8  1  0
  8  9  2  0
 10  8  1  0
 10 11  1  0
 11 12  1  6
 12 13  1  0
 13 14  1  0
 14 15  2  0
 14 18  1  0
 16 11  1  0
 16 17  2  0
 19 20  1  0
 20 22  1  0
 20 21  2  0
 23 22  1  1
 23 24  1  0
 24 16  1  0
 25 23  1  0
 25 27  1  0
 26 25  2  0
M  END
$$$$
