QEN.pdb
     RDKit          3D

 27 26  0  0  1  0  0  0  0  0999 V2000
   14.8482  -12.1697  -13.2710 N   0  0  0  0  0  0  0  0  0  0  0  0
   13.9208  -12.6424  -12.2951 C   0  0  0  0  0  0  0  0  0  0  0  0
   13.6090  -13.8525  -12.3148 O   0  0  0  0  0  0  0  0  0  0  0  0
   13.3331  -11.7614  -11.2758 C   0  0  0  0  0  0  0  0  0  0  0  0
   13.7879  -10.3703  -11.2056 C   0  0  0  0  0  0  0  0  0  0  0  0
   14.8891   -9.9947  -10.2956 C   0  0  2  0  0  0  0  0  0  0  0  0
   14.2893  -10.0322   -8.9160 N   0  0  0  0  0  0  0  0  0  0  0  0
   15.4223   -8.6488  -10.4913 C   0  0  0  0  0  0  0  0  0  0  0  0
   15.9897   -8.2925  -11.5860 O   0  0  0  0  0  0  0  0  0  0  0  0
   15.3505   -7.6058   -9.4858 N   0  0  0  0  0  0  0  0  0  0  0  0
   15.7828   -6.3013   -9.8194 C   0  0  1  0  0  0  0  0  0  0  0  0
   15.3378   -5.2384   -8.8530 C   0  0  0  0  0  0  0  0  0  0  0  0
   15.7532   -3.8579   -9.1530 C   0  0  0  0  0  0  0  0  0  0  0  0
   15.2812   -2.8111   -8.2444 C   0  0  0  0  0  0  0  0  0  0  0  0
   14.5393   -3.0396   -7.2854 O   0  0  0  0  0  0  0  0  0  0  0  0
   17.2637   -6.1898   -9.9447 C   0  0  0  0  0  0  0  0  0  0  0  0
   18.0152   -6.3108   -8.9666 O   0  0  0  0  0  0  0  0  0  0  0  0
   15.6652   -1.4671   -8.4330 O   0  0  0  0  0  0  0  0  0  0  0  0
   21.9494   -5.9697  -11.9966 N   0  0  0  0  0  0  0  0  0  0  0  0
   21.2139   -7.2014  -12.1032 C   0  0  0  0  0  0  0  0  0  0  0  0
   21.8161   -8.2058  -12.5013 O   0  0  0  0  0  0  0  0  0  0  0  0
   19.8006   -7.1483  -11.7246 C   0  0  0  0  0  0  0  0  0  0  0  0
   19.2935   -5.7816  -11.3611 C   0  0  2  0  0  0  0  0  0  0  0  0
   17.8306   -5.9422  -11.2027 N   0  0  0  0  0  0  0  0  0  0  0  0
   19.5228   -4.7579  -12.3914 C   0  0  0  0  0  0  0  0  0  0  0  0
   20.6293   -4.2333  -12.6184 O   0  0  0  0  0  0  0  0  0  0  0  0
   18.4412   -4.3384  -13.1714 O   0  0  0  0  0  0  0  0  0  0  0  0
  2  1  1  0
  3  2  2  0
  4  2  1  0
  5  4  1  0
  5  6  1  0
  6  7  1  1
  6  8  1  0
  8  9  2  0
 10  8  1  0
 10 11  1  0
 11 12  1  1
 12 13  1  0
 13 14  1  0
 14 15  2  0
 14 18  1  0
 16 11  1  0
 16 17  2  0
 19 20  1  0
 20 22  1  0
 20 21  2  0
 23 22  1  6
 23 24  1  0
 24 16  1  0
 25 23  1  0
 25 27  1  0
 26 25  2  0
M  END
$$$$
