QEN.pdb
     RDKit          3D

 27 26  0  0  1  0  0  0  0  0999 V2000
   16.0603  -11.9035  -15.8027 N   0  0  0  0  0  0  0  0  0  0  0  0
   16.6244  -13.1853  -15.5294 C   0  0  0  0  0  0  0  0  0  0  0  0
   15.8546  -14.1679  -15.4680 O   0  0  0  0  0  0  0  0  0  0  0  0
   18.0666  -13.3837  -15.3265 C   0  0  0  0  0  0  0  0  0  0  0  0
   18.9521  -12.2190  -15.4062 C   0  0  0  0  0  0  0  0  0  0  0  0
   18.7673  -11.2182  -16.4768 C   0  0  2  0  0  0  0  0  0  0  0  0
   19.1968  -11.9116  -17.7414 N   0  0  0  0  0  0  0  0  0  0  0  0
   19.5889  -10.0170  -16.3500 C   0  0  0  0  0  0  0  0  0  0  0  0
   20.3409   -9.8095  -15.3309 O   0  0  0  0  0  0  0  0  0  0  0  0
   19.6367   -8.9709  -17.3536 N   0  0  0  0  0  0  0  0  0  0  0  0
   20.4721   -7.8506  -17.1366 C   0  0  1  0  0  0  0  0  0  0  0  0
   20.5238   -6.8875  -18.2905 C   0  0  0  0  0  0  0  0  0  0  0  0
   21.4269   -5.7333  -18.1468 C   0  0  0  0  0  0  0  0  0  0  0  0
   21.4262   -4.7514  -19.2332 C   0  0  0  0  0  0  0  0  0  0  0  0
   21.1856   -5.0490  -20.4061 O   0  0  0  0  0  0  0  0  0  0  0  0
   20.0970   -7.0669  -15.9258 C   0  0  0  0  0  0  0  0  0  0  0  0
   18.9140   -6.8729  -15.6111 O   0  0  0  0  0  0  0  0  0  0  0  0
   21.7065   -3.3932  -18.9762 O   0  0  0  0  0  0  0  0  0  0  0  0
   19.7285   -6.8894  -10.4966 N   0  0  0  0  0  0  0  0  0  0  0  0
   20.1006   -6.0027  -11.5664 C   0  0  0  0  0  0  0  0  0  0  0  0
   20.1305   -4.7886  -11.3317 O   0  0  0  0  0  0  0  0  0  0  0  0
   20.4136   -6.6312  -12.8512 C   0  0  0  0  0  0  0  0  0  0  0  0
   20.7758   -5.6753  -13.9521 C   0  0  2  0  0  0  0  0  0  0  0  0
   21.1062   -6.5313  -15.1135 N   0  0  0  0  0  0  0  0  0  0  0  0
   21.9499   -4.8382  -13.6640 C   0  0  0  0  0  0  0  0  0  0  0  0
   22.0219   -4.0443  -12.7072 O   0  0  0  0  0  0  0  0  0  0  0  0
   23.0607   -4.9292  -14.5078 O   0  0  0  0  0  0  0  0  0  0  0  0
  2  1  1  0
  3  2  2  0
  4  2  1  0
  5  4  1  0
  5  6  1  0
  6  7  1  6
  6  8  1  0
  8  9  2  0
 10  8  1  0
 10 11  1  0
 11 12  1  6
 12 13  1  0
 13 14  1  0
 14 15  2  0
 14 18  1  0
 16 11  1  0
 16 17  2  0
 19 20  1  0
 20 22  1  0
 20 21  2  0
 23 22  1  1
 23 24  1  0
 24 16  1  0
 25 23  1  0
 25 27  1  0
 26 25  2  0
M  END
$$$$
