YNL.pdb
     RDKit          3D

 29 29  0  0  1  0  0  0  0  0999 V2000
    7.4280  -12.2896   16.8785 O   0  0  0  0  0  0  0  0  0  0  0  0
    7.4904  -12.8855   18.1228 C   0  0  0  0  0  0  0  0  0  0  0  0
    8.4225  -12.5132   19.0559 C   0  0  0  0  0  0  0  0  0  0  0  0
    8.4764  -13.1179   20.3016 C   0  0  0  0  0  0  0  0  0  0  0  0
    7.5959  -14.1154   20.6491 C   0  0  0  0  0  0  0  0  0  0  0  0
    7.6233  -14.7811   21.9627 C   0  0  0  0  0  0  0  0  0  0  0  0
    8.4394  -16.0134   22.0633 C   0  0  2  0  0  0  0  0  0  0  0  0
    7.8937  -16.9467   21.0426 N   0  0  0  0  0  0  0  0  0  0  0  0
    8.4459  -16.7429   23.3118 C   0  0  0  0  0  0  0  0  0  0  0  0
    7.5141  -17.5407   23.6234 O   0  0  0  0  0  0  0  0  0  0  0  0
    6.6615  -14.4815   19.7002 C   0  0  0  0  0  0  0  0  0  0  0  0
    6.5942  -13.8889   18.4539 C   0  0  0  0  0  0  0  0  0  0  0  0
   12.8049  -19.4095   22.9744 N   0  0  0  0  0  0  0  0  0  0  0  0
   12.7013  -18.0130   22.9321 C   0  0  0  0  0  0  0  0  0  0  0  0
   13.7977  -17.3636   22.8718 O   0  0  0  0  0  0  0  0  0  0  0  0
   11.4485  -17.2199   22.9501 C   0  0  0  0  0  0  0  0  0  0  0  0
   10.6914  -17.3924   24.2423 C   0  0  2  0  0  0  0  0  0  0  0  0
    9.4729  -16.6482   24.2929 N   0  0  0  0  0  0  0  0  0  0  0  0
   11.5823  -17.2210   25.4099 C   0  0  0  0  0  0  0  0  0  0  0  0
   12.7642  -16.7624   25.3193 O   0  0  0  0  0  0  0  0  0  0  0  0
    8.3835  -13.6665   27.3705 C   0  0  0  0  0  0  0  0  0  0  0  0
    9.5850  -14.4001   27.9807 C   0  0  2  0  0  0  0  0  0  0  0  0
   10.6167  -13.4910   28.5250 C   0  0  0  0  0  0  0  0  0  0  0  0
   10.0322  -15.5362   27.1457 C   0  0  0  0  0  0  0  0  0  0  0  0
   10.8738  -16.5872   27.7631 C   0  0  2  0  0  0  0  0  0  0  0  0
   11.1123  -17.5771   26.6812 N   0  0  0  0  0  0  0  0  0  0  0  0
   10.3661  -17.2521   28.9557 C   0  0  0  0  0  0  0  0  0  0  0  0
   10.9873  -17.0023   30.1964 O   0  0  0  0  0  0  0  0  0  0  0  0
    9.4058  -18.0479   28.9993 O   0  0  0  0  0  0  0  0  0  0  0  0
  2  1  1  0
  3  2  2  0
  4  3  1  0
  5 11  1  0
  5  4  2  0
  6  5  1  0
  7  8  1  6
  7  6  1  0
  9  7  1  0
 10  9  2  0
 11 12  2  0
 12  2  1  0
 13 14  1  0
 14 15  2  0
 16 14  1  0
 17 16  1  6
 17 18  1  0
 18  9  1  0
 19 26  1  0
 19 17  1  0
 20 19  2  0
 22 21  1  6
 22 23  1  0
 24 22  1  0
 25 24  1  6
 25 26  1  0
 27 25  1  0
 28 27  1  0
 29 27  2  0
M  END
$$$$
