YNL.pdb
     RDKit          3D

 29 29  0  0  1  0  0  0  0  0999 V2000
    7.1527  -12.4242   16.6227 O   0  0  0  0  0  0  0  0  0  0  0  0
    7.2552  -13.1731   17.7785 C   0  0  0  0  0  0  0  0  0  0  0  0
    7.7598  -12.6456   18.9384 C   0  0  0  0  0  0  0  0  0  0  0  0
    7.8584  -13.4061   20.0927 C   0  0  0  0  0  0  0  0  0  0  0  0
    7.4533  -14.7200   20.1182 C   0  0  0  0  0  0  0  0  0  0  0  0
    7.5433  -15.5587   21.3255 C   0  0  0  0  0  0  0  0  0  0  0  0
    8.8929  -16.0467   21.6932 C   0  0  2  0  0  0  0  0  0  0  0  0
    9.4217  -16.7300   20.4832 N   0  0  0  0  0  0  0  0  0  0  0  0
    9.0175  -16.9958   22.7771 C   0  0  0  0  0  0  0  0  0  0  0  0
    8.5647  -18.1743   22.6874 O   0  0  0  0  0  0  0  0  0  0  0  0
    6.9466  -15.2397   18.9431 C   0  0  0  0  0  0  0  0  0  0  0  0
    6.8415  -14.4954   17.7838 C   0  0  0  0  0  0  0  0  0  0  0  0
   10.7056  -19.9528   22.9709 N   0  0  0  0  0  0  0  0  0  0  0  0
   11.6077  -18.9059   22.7406 C   0  0  0  0  0  0  0  0  0  0  0  0
   12.2895  -18.9700   21.6643 O   0  0  0  0  0  0  0  0  0  0  0  0
   11.8461  -17.7365   23.6206 C   0  0  0  0  0  0  0  0  0  0  0  0
   10.7016  -17.5072   24.5749 C   0  0  2  0  0  0  0  0  0  0  0  0
    9.6482  -16.7161   24.0222 N   0  0  0  0  0  0  0  0  0  0  0  0
   11.1908  -17.0671   25.8990 C   0  0  0  0  0  0  0  0  0  0  0  0
   12.4253  -16.9771   26.1878 O   0  0  0  0  0  0  0  0  0  0  0  0
   10.3322  -13.1197   27.7261 C   0  0  0  0  0  0  0  0  0  0  0  0
    9.2736  -14.2302   27.7398 C   0  0  2  0  0  0  0  0  0  0  0  0
    7.8852  -13.7214   27.7559 C   0  0  0  0  0  0  0  0  0  0  0  0
    9.6216  -15.3262   28.6704 C   0  0  0  0  0  0  0  0  0  0  0  0
   10.6499  -16.3103   28.2604 C   0  0  2  0  0  0  0  0  0  0  0  0
   10.2589  -16.7302   26.8899 N   0  0  0  0  0  0  0  0  0  0  0  0
   10.8525  -17.4765   29.1096 C   0  0  0  0  0  0  0  0  0  0  0  0
   10.4890  -18.7491   28.6239 O   0  0  0  0  0  0  0  0  0  0  0  0
   11.3304  -17.4703   30.2623 O   0  0  0  0  0  0  0  0  0  0  0  0
  2  1  1  0
  3  2  2  0
  4  3  1  0
  5 11  1  0
  5  4  2  0
  6  5  1  0
  7  8  1  6
  7  6  1  0
  9  7  1  0
 10  9  2  0
 11 12  2  0
 12  2  1  0
 13 14  1  0
 14 15  2  0
 16 14  1  0
 17 16  1  6
 17 18  1  0
 18  9  1  0
 19 26  1  0
 19 17  1  0
 20 19  2  0
 22 21  1  1
 22 23  1  0
 24 22  1  0
 25 24  1  1
 25 26  1  0
 27 25  1  0
 28 27  1  0
 29 27  2  0
M  END
$$$$
