YNL.pdb
     RDKit          3D

 29 29  0  0  1  0  0  0  0  0999 V2000
    8.2534  -13.0374   16.3451 O   0  0  0  0  0  0  0  0  0  0  0  0
    8.0453  -13.4598   17.6433 C   0  0  0  0  0  0  0  0  0  0  0  0
    7.6479  -12.5949   18.6293 C   0  0  0  0  0  0  0  0  0  0  0  0
    7.4420  -13.0293   19.9290 C   0  0  0  0  0  0  0  0  0  0  0  0
    7.6288  -14.3460   20.2791 C   0  0  0  0  0  0  0  0  0  0  0  0
    7.4202  -14.8438   21.6496 C   0  0  0  0  0  0  0  0  0  0  0  0
    7.6286  -16.2945   21.8656 C   0  0  2  0  0  0  0  0  0  0  0  0
    6.3035  -16.9325   21.6470 N   0  0  0  0  0  0  0  0  0  0  0  0
    8.0828  -16.7461   23.1621 C   0  0  0  0  0  0  0  0  0  0  0  0
    7.2813  -16.9226   24.1256 O   0  0  0  0  0  0  0  0  0  0  0  0
    8.0292  -15.2076   19.2767 C   0  0  0  0  0  0  0  0  0  0  0  0
    8.2388  -14.7908   17.9761 C   0  0  0  0  0  0  0  0  0  0  0  0
    9.8082  -19.5681   23.0039 N   0  0  0  0  0  0  0  0  0  0  0  0
   10.8996  -19.3678   23.8591 C   0  0  0  0  0  0  0  0  0  0  0  0
   11.8547  -20.2085   23.7678 O   0  0  0  0  0  0  0  0  0  0  0  0
   11.0528  -18.2797   24.8548 C   0  0  0  0  0  0  0  0  0  0  0  0
    9.9024  -17.3064   24.8067 C   0  0  2  0  0  0  0  0  0  0  0  0
    9.4390  -17.0363   23.4826 N   0  0  0  0  0  0  0  0  0  0  0  0
   10.1794  -16.1115   25.6324 C   0  0  0  0  0  0  0  0  0  0  0  0
   11.3295  -15.5769   25.7153 O   0  0  0  0  0  0  0  0  0  0  0  0
    8.4704  -12.2672   25.9302 C   0  0  0  0  0  0  0  0  0  0  0  0
    7.4628  -13.2035   26.6101 C   0  0  2  0  0  0  0  0  0  0  0  0
    6.1321  -12.5911   26.8124 C   0  0  0  0  0  0  0  0  0  0  0  0
    8.0622  -13.9489   27.7386 C   0  0  0  0  0  0  0  0  0  0  0  0
    9.3550  -14.6409   27.5296 C   0  0  2  0  0  0  0  0  0  0  0  0
    9.1324  -15.5322   26.3619 N   0  0  0  0  0  0  0  0  0  0  0  0
    9.9109  -15.3956   28.6447 C   0  0  0  0  0  0  0  0  0  0  0  0
   10.5871  -14.7042   29.6706 O   0  0  0  0  0  0  0  0  0  0  0  0
    9.8510  -16.6329   28.7955 O   0  0  0  0  0  0  0  0  0  0  0  0
  2  1  1  0
  3  2  2  0
  4  3  1  0
  5 11  1  0
  5  4  2  0
  6  5  1  0
  7  8  1  1
  7  6  1  0
  9  7  1  0
 10  9  2  0
 11 12  2  0
 12  2  1  0
 13 14  1  0
 14 15  2  0
 16 14  1  0
 17 16  1  6
 17 18  1  0
 18  9  1  0
 19 26  1  0
 19 17  1  0
 20 19  2  0
 22 21  1  1
 22 23  1  0
 24 22  1  0
 25 24  1  1
 25 26  1  0
 27 25  1  0
 28 27  1  0
 29 27  2  0
M  END
$$$$
