YNL.pdb
     RDKit          3D

 29 29  0  0  1  0  0  0  0  0999 V2000
   10.1944  -21.7505   31.5925 O   0  0  0  0  0  0  0  0  0  0  0  0
    9.7468  -20.9708   30.5443 C   0  0  0  0  0  0  0  0  0  0  0  0
   10.4884  -19.9292   30.0509 C   0  0  0  0  0  0  0  0  0  0  0  0
   10.0297  -19.1529   28.9986 C   0  0  0  0  0  0  0  0  0  0  0  0
    8.8118  -19.3983   28.4089 C   0  0  0  0  0  0  0  0  0  0  0  0
    8.2916  -18.5946   27.2896 C   0  0  0  0  0  0  0  0  0  0  0  0
    7.9416  -19.3310   26.0527 C   0  0  2  0  0  0  0  0  0  0  0  0
    8.8176  -20.5322   26.0330 N   0  0  0  0  0  0  0  0  0  0  0  0
    8.1292  -18.6762   24.7771 C   0  0  0  0  0  0  0  0  0  0  0  0
    9.2459  -18.6833   24.1814 O   0  0  0  0  0  0  0  0  0  0  0  0
    8.0741  -20.4506   28.9150 C   0  0  0  0  0  0  0  0  0  0  0  0
    8.5168  -21.2342   29.9634 C   0  0  0  0  0  0  0  0  0  0  0  0
    7.7138  -15.2360   20.8127 N   0  0  0  0  0  0  0  0  0  0  0  0
    6.4356  -15.5576   21.2878 C   0  0  0  0  0  0  0  0  0  0  0  0
    5.4506  -15.0448   20.6600 O   0  0  0  0  0  0  0  0  0  0  0  0
    6.1173  -16.4312   22.4428 C   0  0  0  0  0  0  0  0  0  0  0  0
    7.3623  -16.9456   23.1199 C   0  0  2  0  0  0  0  0  0  0  0  0
    7.1074  -17.9783   24.0736 N   0  0  0  0  0  0  0  0  0  0  0  0
    8.2033  -15.8318   23.6081 C   0  0  0  0  0  0  0  0  0  0  0  0
    9.1392  -15.3158   22.9200 O   0  0  0  0  0  0  0  0  0  0  0  0
    7.2318  -11.9061   24.4963 C   0  0  0  0  0  0  0  0  0  0  0  0
    6.8026  -12.8160   25.6548 C   0  0  2  0  0  0  0  0  0  0  0  0
    5.7403  -12.2314   26.5014 C   0  0  0  0  0  0  0  0  0  0  0  0
    7.9572  -13.4489   26.3288 C   0  0  0  0  0  0  0  0  0  0  0  0
    8.8586  -14.3160   25.5354 C   0  0  2  0  0  0  0  0  0  0  0  0
    7.9663  -15.3119   24.8877 N   0  0  0  0  0  0  0  0  0  0  0  0
    9.9456  -14.9882   26.2346 C   0  0  0  0  0  0  0  0  0  0  0  0
   11.0317  -14.2243   26.7081 O   0  0  0  0  0  0  0  0  0  0  0  0
   10.0218  -16.2117   26.4681 O   0  0  0  0  0  0  0  0  0  0  0  0
  2  1  1  0
  3  2  2  0
  4  3  1  0
  5 11  1  0
  5  4  2  0
  6  5  1  0
  7  8  1  6
  7  6  1  0
  9  7  1  0
 10  9  2  0
 11 12  2  0
 12  2  1  0
 13 14  1  0
 14 15  2  0
 16 14  1  0
 17 16  1  1
 17 18  1  0
 18  9  1  0
 19 26  1  0
 19 17  1  0
 20 19  2  0
 22 21  1  6
 22 23  1  0
 24 22  1  0
 25 24  1  1
 25 26  1  0
 27 25  1  0
 28 27  1  0
 29 27  2  0
M  END
$$$$
