YNL.pdb
     RDKit          3D

 29 29  0  0  1  0  0  0  0  0999 V2000
    8.5273  -12.5360   17.0115 O   0  0  0  0  0  0  0  0  0  0  0  0
    8.2206  -13.0725   18.2464 C   0  0  0  0  0  0  0  0  0  0  0  0
    9.0702  -13.9333   18.8910 C   0  0  0  0  0  0  0  0  0  0  0  0
    8.7525  -14.4661   20.1302 C   0  0  0  0  0  0  0  0  0  0  0  0
    7.5716  -14.1511   20.7607 C   0  0  0  0  0  0  0  0  0  0  0  0
    7.2001  -14.6980   22.0769 C   0  0  0  0  0  0  0  0  0  0  0  0
    7.1395  -16.1742   22.1870 C   0  0  2  0  0  0  0  0  0  0  0  0
    5.9767  -16.5959   21.3620 N   0  0  0  0  0  0  0  0  0  0  0  0
    6.9425  -16.7664   23.4914 C   0  0  0  0  0  0  0  0  0  0  0  0
    6.0229  -16.3770   24.2690 O   0  0  0  0  0  0  0  0  0  0  0  0
    6.7242  -13.2827   20.1010 C   0  0  0  0  0  0  0  0  0  0  0  0
    7.0257  -12.7427   18.8654 C   0  0  0  0  0  0  0  0  0  0  0  0
    6.7185  -19.4332   27.9970 N   0  0  0  0  0  0  0  0  0  0  0  0
    7.7914  -19.8310   27.1886 C   0  0  0  0  0  0  0  0  0  0  0  0
    8.7239  -20.4848   27.7634 O   0  0  0  0  0  0  0  0  0  0  0  0
    7.9483  -19.5681   25.7377 C   0  0  0  0  0  0  0  0  0  0  0  0
    7.8603  -18.0971   25.4192 C   0  0  2  0  0  0  0  0  0  0  0  0
    7.7351  -17.8227   24.0228 N   0  0  0  0  0  0  0  0  0  0  0  0
    8.9177  -17.3356   26.1179 C   0  0  0  0  0  0  0  0  0  0  0  0
    9.4380  -16.2768   25.6447 O   0  0  0  0  0  0  0  0  0  0  0  0
   10.9357  -14.1763   27.6041 C   0  0  0  0  0  0  0  0  0  0  0  0
    9.4813  -14.5670   27.8978 C   0  0  2  0  0  0  0  0  0  0  0  0
    8.6401  -13.4289   28.3267 C   0  0  0  0  0  0  0  0  0  0  0  0
    9.3827  -15.8295   28.6624 C   0  0  0  0  0  0  0  0  0  0  0  0
   10.2308  -16.9751   28.2597 C   0  0  2  0  0  0  0  0  0  0  0  0
    9.3754  -17.7926   27.3611 N   0  0  0  0  0  0  0  0  0  0  0  0
   10.7977  -17.8056   29.3138 C   0  0  0  0  0  0  0  0  0  0  0  0
   10.0084  -18.8273   29.8802 O   0  0  0  0  0  0  0  0  0  0  0  0
   11.9483  -17.7067   29.7866 O   0  0  0  0  0  0  0  0  0  0  0  0
  2  1  1  0
  3  2  2  0
  4  3  1  0
  5 11  1  0
  5  4  2  0
  6  5  1  0
  7  8  1  6
  7  6  1  0
  9  7  1  0
 10  9  2  0
 11 12  2  0
 12  2  1  0
 13 14  1  0
 14 15  2  0
 16 14  1  0
 17 16  1  6
 17 18  1  0
 18  9  1  0
 19 26  1  0
 19 17  1  0
 20 19  2  0
 22 21  1  1
 22 23  1  0
 24 22  1  0
 25 24  1  1
 25 26  1  0
 27 25  1  0
 28 27  1  0
 29 27  2  0
M  END
$$$$
