YNL.pdb
     RDKit          3D

 29 29  0  0  1  0  0  0  0  0999 V2000
   11.6704  -17.6006   27.7516 O   0  0  0  0  0  0  0  0  0  0  0  0
   11.9563  -17.6078   26.4005 C   0  0  0  0  0  0  0  0  0  0  0  0
   12.3483  -16.4732   25.7392 C   0  0  0  0  0  0  0  0  0  0  0  0
   12.6327  -16.4915   24.3831 C   0  0  0  0  0  0  0  0  0  0  0  0
   12.5325  -17.6498   23.6487 C   0  0  0  0  0  0  0  0  0  0  0  0
   12.8260  -17.7074   22.2065 C   0  0  0  0  0  0  0  0  0  0  0  0
   11.6608  -17.8113   21.2976 C   0  0  2  0  0  0  0  0  0  0  0  0
   12.2193  -17.8170   19.9196 N   0  0  0  0  0  0  0  0  0  0  0  0
   10.6640  -16.7640   21.3226 C   0  0  0  0  0  0  0  0  0  0  0  0
   10.7654  -15.7290   20.6013 O   0  0  0  0  0  0  0  0  0  0  0  0
   12.1367  -18.7863   24.3265 C   0  0  0  0  0  0  0  0  0  0  0  0
   11.8494  -18.7852   25.6780 C   0  0  0  0  0  0  0  0  0  0  0  0
    6.3989  -13.8093   20.7661 N   0  0  0  0  0  0  0  0  0  0  0  0
    6.2410  -15.0649   21.3672 C   0  0  0  0  0  0  0  0  0  0  0  0
    5.1265  -15.2798   21.9495 O   0  0  0  0  0  0  0  0  0  0  0  0
    7.2371  -16.1630   21.3924 C   0  0  0  0  0  0  0  0  0  0  0  0
    8.4969  -15.7639   22.1182 C   0  0  2  0  0  0  0  0  0  0  0  0
    9.4943  -16.7865   22.1336 N   0  0  0  0  0  0  0  0  0  0  0  0
    8.1877  -15.1667   23.4351 C   0  0  0  0  0  0  0  0  0  0  0  0
    7.4332  -14.1538   23.5776 O   0  0  0  0  0  0  0  0  0  0  0  0
    8.4298  -12.8012   27.0077 C   0  0  0  0  0  0  0  0  0  0  0  0
    7.4566  -13.0953   25.8585 C   0  0  2  0  0  0  0  0  0  0  0  0
    6.3626  -12.1068   25.7446 C   0  0  0  0  0  0  0  0  0  0  0  0
    7.1069  -14.5300   25.7724 C   0  0  0  0  0  0  0  0  0  0  0  0
    8.1792  -15.5370   25.9459 C   0  0  2  0  0  0  0  0  0  0  0  0
    8.7467  -15.7358   24.5872 N   0  0  0  0  0  0  0  0  0  0  0  0
    7.8197  -16.8187   26.5377 C   0  0  0  0  0  0  0  0  0  0  0  0
    8.2036  -17.0916   27.8665 O   0  0  0  0  0  0  0  0  0  0  0  0
    7.1857  -17.7345   25.9750 O   0  0  0  0  0  0  0  0  0  0  0  0
  2  1  1  0
  3  2  2  0
  4  3  1  0
  5 11  1  0
  5  4  2  0
  6  5  1  0
  7  8  1  6
  7  6  1  0
  9  7  1  0
 10  9  2  0
 11 12  2  0
 12  2  1  0
 13 14  1  0
 14 15  2  0
 16 14  1  0
 17 16  1  1
 17 18  1  0
 18  9  1  0
 19 26  1  0
 19 17  1  0
 20 19  2  0
 22 21  1  1
 22 23  1  0
 24 22  1  0
 25 24  1  6
 25 26  1  0
 27 25  1  0
 28 27  1  0
 29 27  2  0
M  END
$$$$
