YNL.pdb
     RDKit          3D

 29 29  0  0  1  0  0  0  0  0999 V2000
    8.1771  -11.8776   16.8987 O   0  0  0  0  0  0  0  0  0  0  0  0
    7.9925  -12.6562   18.0243 C   0  0  0  0  0  0  0  0  0  0  0  0
    6.7442  -13.0395   18.4404 C   0  0  0  0  0  0  0  0  0  0  0  0
    6.5702  -13.8209   19.5716 C   0  0  0  0  0  0  0  0  0  0  0  0
    7.6443  -14.2417   20.3202 C   0  0  0  0  0  0  0  0  0  0  0  0
    7.4980  -15.0721   21.5278 C   0  0  0  0  0  0  0  0  0  0  0  0
    7.8640  -16.5017   21.3964 C   0  0  2  0  0  0  0  0  0  0  0  0
    6.6727  -17.1744   20.8143 N   0  0  0  0  0  0  0  0  0  0  0  0
    8.2022  -17.2452   22.5896 C   0  0  0  0  0  0  0  0  0  0  0  0
    7.3418  -17.9321   23.2140 O   0  0  0  0  0  0  0  0  0  0  0  0
    8.8967  -13.8489   19.8904 C   0  0  0  0  0  0  0  0  0  0  0  0
    9.0876  -13.0702   18.7652 C   0  0  0  0  0  0  0  0  0  0  0  0
   10.6466  -20.5868   26.1985 N   0  0  0  0  0  0  0  0  0  0  0  0
   11.3136  -19.5096   25.6003 C   0  0  0  0  0  0  0  0  0  0  0  0
   12.2985  -19.0212   26.2474 O   0  0  0  0  0  0  0  0  0  0  0  0
   10.9886  -18.8851   24.2953 C   0  0  0  0  0  0  0  0  0  0  0  0
    9.8038  -17.9581   24.3941 C   0  0  2  0  0  0  0  0  0  0  0  0
    9.5013  -17.2869   23.1698 N   0  0  0  0  0  0  0  0  0  0  0  0
    9.9079  -17.0837   25.5820 C   0  0  0  0  0  0  0  0  0  0  0  0
   10.0683  -17.5310   26.7608 O   0  0  0  0  0  0  0  0  0  0  0  0
    6.5798  -12.7869   27.4951 C   0  0  0  0  0  0  0  0  0  0  0  0
    8.0326  -13.2603   27.6349 C   0  0  2  0  0  0  0  0  0  0  0  0
    8.9654  -12.1883   28.0441 C   0  0  0  0  0  0  0  0  0  0  0  0
    8.4420  -14.1505   26.5267 C   0  0  0  0  0  0  0  0  0  0  0  0
    9.8005  -14.7402   26.5505 C   0  0  2  0  0  0  0  0  0  0  0  0
    9.8278  -15.6949   25.4124 N   0  0  0  0  0  0  0  0  0  0  0  0
   10.2352  -15.3987   27.7751 C   0  0  0  0  0  0  0  0  0  0  0  0
    9.4976  -16.4975   28.2611 O   0  0  0  0  0  0  0  0  0  0  0  0
   11.2259  -15.0837   28.4654 O   0  0  0  0  0  0  0  0  0  0  0  0
  2  1  1  0
  3  2  2  0
  4  3  1  0
  5 11  1  0
  5  4  2  0
  6  5  1  0
  7  8  1  1
  7  6  1  0
  9  7  1  0
 10  9  2  0
 11 12  2  0
 12  2  1  0
 13 14  1  0
 14 15  2  0
 16 14  1  0
 17 16  1  6
 17 18  1  0
 18  9  1  0
 19 26  1  0
 19 17  1  0
 20 19  2  0
 22 21  1  6
 22 23  1  0
 24 22  1  0
 25 24  1  1
 25 26  1  0
 27 25  1  0
 28 27  1  0
 29 27  2  0
M  END
$$$$
