YNL.pdb
     RDKit          3D

 29 29  0  0  1  0  0  0  0  0999 V2000
    8.5317  -12.6186   17.3370 O   0  0  0  0  0  0  0  0  0  0  0  0
    8.1254  -13.1958   18.5240 C   0  0  0  0  0  0  0  0  0  0  0  0
    6.8767  -12.9755   19.0439 C   0  0  0  0  0  0  0  0  0  0  0  0
    6.4792  -13.5597   20.2360 C   0  0  0  0  0  0  0  0  0  0  0  0
    7.3234  -14.3833   20.9432 C   0  0  0  0  0  0  0  0  0  0  0  0
    6.9361  -15.0210   22.2131 C   0  0  0  0  0  0  0  0  0  0  0  0
    6.9226  -16.5023   22.2329 C   0  0  2  0  0  0  0  0  0  0  0  0
    5.6568  -16.9062   21.5657 N   0  0  0  0  0  0  0  0  0  0  0  0
    6.9378  -17.1807   23.5098 C   0  0  0  0  0  0  0  0  0  0  0  0
    5.9225  -17.2037   24.2652 O   0  0  0  0  0  0  0  0  0  0  0  0
    8.5788  -14.5974   20.4088 C   0  0  0  0  0  0  0  0  0  0  0  0
    8.9908  -14.0228   19.2217 C   0  0  0  0  0  0  0  0  0  0  0  0
    7.4463  -20.6135   27.5611 N   0  0  0  0  0  0  0  0  0  0  0  0
    8.5750  -20.4265   26.7524 C   0  0  0  0  0  0  0  0  0  0  0  0
    9.6955  -20.7776   27.2510 O   0  0  0  0  0  0  0  0  0  0  0  0
    8.5946  -19.8637   25.3807 C   0  0  0  0  0  0  0  0  0  0  0  0
    8.1050  -18.4381   25.3499 C   0  0  2  0  0  0  0  0  0  0  0  0
    8.0612  -17.8785   24.0362 N   0  0  0  0  0  0  0  0  0  0  0  0
    8.7990  -17.6135   26.3623 C   0  0  0  0  0  0  0  0  0  0  0  0
    8.6366  -17.7685   27.6133 O   0  0  0  0  0  0  0  0  0  0  0  0
   10.1236  -12.3875   27.2798 C   0  0  0  0  0  0  0  0  0  0  0  0
    8.9880  -13.3477   27.6571 C   0  0  2  0  0  0  0  0  0  0  0  0
    8.8486  -13.5524   29.1150 C   0  0  0  0  0  0  0  0  0  0  0  0
    8.9469  -14.5398   26.7822 C   0  0  0  0  0  0  0  0  0  0  0  0
   10.0953  -15.4752   26.7970 C   0  0  2  0  0  0  0  0  0  0  0  0
    9.6800  -16.6112   25.9342 N   0  0  0  0  0  0  0  0  0  0  0  0
   10.5589  -15.9629   28.0891 C   0  0  0  0  0  0  0  0  0  0  0  0
    9.7744  -16.9027   28.7883 O   0  0  0  0  0  0  0  0  0  0  0  0
   11.6138  -15.6264   28.6646 O   0  0  0  0  0  0  0  0  0  0  0  0
  2  1  1  0
  3  2  2  0
  4  3  1  0
  5 11  1  0
  5  4  2  0
  6  5  1  0
  7  8  1  1
  7  6  1  0
  9  7  1  0
 10  9  2  0
 11 12  2  0
 12  2  1  0
 13 14  1  0
 14 15  2  0
 16 14  1  0
 17 16  1  6
 17 18  1  0
 18  9  1  0
 19 26  1  0
 19 17  1  0
 20 19  2  0
 22 21  1  1
 22 23  1  0
 24 22  1  0
 25 24  1  1
 25 26  1  0
 27 25  1  0
 28 27  1  0
 29 27  2  0
M  END
$$$$
