MRY.pdb
     RDKit          3D

 32 32  0  0  1  0  0  0  0  0999 V2000
    7.1393  -12.0665   20.2416 C   0  0  0  0  0  0  0  0  0  0  0  0
    7.8126  -12.4167   18.5778 S   0  0  0  0  0  0  0  0  0  0  0  0
    6.9811  -13.8773   17.9610 C   0  0  0  0  0  0  0  0  0  0  0  0
    7.0907  -15.0723   18.8951 C   0  0  0  0  0  0  0  0  0  0  0  0
    8.5757  -15.2309   19.1789 C   0  0  2  0  0  0  0  0  0  0  0  0
    9.1309  -15.7893   17.9469 N   0  0  0  0  0  0  0  0  0  0  0  0
    8.8552  -16.1599   20.2747 C   0  0  0  0  0  0  0  0  0  0  0  0
    8.2805  -15.9747   21.3743 O   0  0  0  0  0  0  0  0  0  0  0  0
   13.5466  -18.8563   17.1106 N   0  0  0  0  0  0  0  0  0  0  0  0
   14.3779  -19.3574   18.1613 C   0  0  0  0  0  0  0  0  0  0  0  0
   15.6771  -19.2510   18.1170 N   0  0  0  0  0  0  0  0  0  0  0  0
   13.8631  -19.9970   19.3123 N   0  0  0  0  0  0  0  0  0  0  0  0
   12.4667  -20.2570   19.4783 C   0  0  0  0  0  0  0  0  0  0  0  0
   11.6507  -19.0454   19.7740 C   0  0  0  0  0  0  0  0  0  0  0  0
   10.8161  -19.2744   20.9891 C   0  0  0  0  0  0  0  0  0  0  0  0
    9.9092  -18.1345   21.3439 C   0  0  2  0  0  0  0  0  0  0  0  0
    9.7401  -17.2650   20.1746 N   0  0  0  0  0  0  0  0  0  0  0  0
   10.4378  -17.3640   22.4845 C   0  0  0  0  0  0  0  0  0  0  0  0
   11.3475  -16.5191   22.3274 O   0  0  0  0  0  0  0  0  0  0  0  0
   16.1981  -19.6661   18.9199 O   0  0  0  0  0  0  0  0  0  0  0  0
   11.1663  -14.0263   30.4793 C   0  0  0  0  0  0  0  0  0  0  0  0
   10.6830  -14.6083   29.3038 C   0  0  0  0  0  0  0  0  0  0  0  0
   10.4007  -13.7999   28.2267 C   0  0  0  0  0  0  0  0  0  0  0  0
    9.9279  -14.3826   27.0796 C   0  0  0  0  0  0  0  0  0  0  0  0
    9.7311  -15.7523   26.9849 C   0  0  0  0  0  0  0  0  0  0  0  0
    9.2203  -16.3637   25.7277 C   0  0  1  0  0  0  0  0  0  0  0  0
   10.4251  -16.8599   24.9227 N   0  0  0  0  0  0  0  0  0  0  0  0
    9.8976  -17.5926   23.7808 C   0  0  0  0  0  0  0  0  0  0  0  0
   11.2500  -17.7678   25.7309 O   0  0  0  0  0  0  0  0  0  0  0  0
   10.9598  -18.9772   25.8210 C   0  0  0  0  0  0  0  0  0  0  0  0
   10.0138  -16.5573   28.0626 C   0  0  0  0  0  0  0  0  0  0  0  0
   10.4887  -15.9703   29.2137 O   0  0  0  0  0  0  0  0  0  0  0  0
  2  1  1  0
  3  2  1  0
  4  3  1  0
  5  4  1  0
  5  7  1  0
  5  6  1  6
  7  8  2  0
  9 10  1  0
 10 11  2  0
 10 12  1  0
 12 13  1  0
 14 13  1  0
 14 15  1  0
 16 15  1  6
 17  7  1  0
 17 16  1  0
 18 16  1  0
 18 27  1  0
 19 18  2  0
 20 21  1  0
 21 31  2  0
 22 23  2  0
 22 21  1  0
 23 24  1  0
 24 25  1  0
 24 30  2  0
 26 28  1  0
 26 27  1  0
 26 25  1  6
 28 32  1  0
 29 28  2  0
 31 30  1  0
M  END
$$$$
