MRY.pdb
     RDKit          3D

 32 32  0  0  1  0  0  0  0  0999 V2000
    7.2725  -11.5765   25.9369 C   0  0  0  0  0  0  0  0  0  0  0  0
    5.8770  -12.5011   25.2009 S   0  0  0  0  0  0  0  0  0  0  0  0
    5.8685  -14.1327   25.9378 C   0  0  0  0  0  0  0  0  0  0  0  0
    7.1385  -14.9234   25.6646 C   0  0  0  0  0  0  0  0  0  0  0  0
    6.7906  -15.8699   24.5270 C   0  0  2  0  0  0  0  0  0  0  0  0
    5.8846  -16.8498   25.1241 N   0  0  0  0  0  0  0  0  0  0  0  0
    7.9541  -16.5801   23.9943 C   0  0  0  0  0  0  0  0  0  0  0  0
    8.4622  -17.4948   24.6863 O   0  0  0  0  0  0  0  0  0  0  0  0
    8.5785  -12.6343   20.8047 N   0  0  0  0  0  0  0  0  0  0  0  0
    7.9293  -13.0893   19.6141 C   0  0  0  0  0  0  0  0  0  0  0  0
    6.8257  -12.5431   19.1839 N   0  0  0  0  0  0  0  0  0  0  0  0
    8.4264  -14.1503   18.8230 N   0  0  0  0  0  0  0  0  0  0  0  0
    8.7674  -15.4216   19.3820 C   0  0  0  0  0  0  0  0  0  0  0  0
    9.7859  -15.3579   20.4683 C   0  0  0  0  0  0  0  0  0  0  0  0
   10.1154  -16.7334   20.9423 C   0  0  0  0  0  0  0  0  0  0  0  0
    9.7983  -16.9859   22.3858 C   0  0  2  0  0  0  0  0  0  0  0  0
    8.5498  -16.3004   22.7369 N   0  0  0  0  0  0  0  0  0  0  0  0
   10.8952  -16.5355   23.2622 C   0  0  0  0  0  0  0  0  0  0  0  0
   11.0241  -15.3289   23.5680 O   0  0  0  0  0  0  0  0  0  0  0  0
    6.3955  -12.9826   18.3413 O   0  0  0  0  0  0  0  0  0  0  0  0
   10.6376  -13.5082   29.7899 C   0  0  0  0  0  0  0  0  0  0  0  0
   10.7108  -14.5399   28.8495 C   0  0  0  0  0  0  0  0  0  0  0  0
    9.7596  -14.6066   27.8574 C   0  0  0  0  0  0  0  0  0  0  0  0
    9.8425  -15.6226   26.9410 C   0  0  0  0  0  0  0  0  0  0  0  0
   10.8527  -16.5716   26.9936 C   0  0  0  0  0  0  0  0  0  0  0  0
   10.9252  -17.6640   25.9852 C   0  0  2  0  0  0  0  0  0  0  0  0
   12.2038  -17.4638   25.1662 N   0  0  0  0  0  0  0  0  0  0  0  0
   11.8165  -17.4970   23.7632 C   0  0  0  0  0  0  0  0  0  0  0  0
   13.1587  -18.5504   25.4221 O   0  0  0  0  0  0  0  0  0  0  0  0
   13.1094  -19.6067   24.7611 C   0  0  0  0  0  0  0  0  0  0  0  0
   11.8015  -16.5025   27.9857 C   0  0  0  0  0  0  0  0  0  0  0  0
   11.7165  -15.4813   28.9051 O   0  0  0  0  0  0  0  0  0  0  0  0
  2  1  1  0
  3  2  1  0
  4  3  1  0
  5  4  1  0
  5  7  1  0
  5  6  1  1
  7  8  2  0
  9 10  1  0
 10 11  2  0
 10 12  1  0
 12 13  1  0
 14 13  1  0
 14 15  1  0
 16 15  1  6
 17  7  1  0
 17 16  1  0
 18 16  1  0
 18 27  1  0
 19 18  2  0
 20 21  1  0
 21 31  2  0
 22 23  2  0
 22 21  1  0
 23 24  1  0
 24 25  1  0
 24 30  2  0
 26 28  1  0
 26 27  1  0
 26 25  1  1
 28 32  1  0
 29 28  2  0
 31 30  1  0
M  END
$$$$
