MRY.pdb
     RDKit          3D

 32 32  0  0  1  0  0  0  0  0999 V2000
    6.2297  -12.0798   26.4513 C   0  0  0  0  0  0  0  0  0  0  0  0
    6.3038  -13.2447   27.8590 S   0  0  0  0  0  0  0  0  0  0  0  0
    5.8884  -14.8691   27.2313 C   0  0  0  0  0  0  0  0  0  0  0  0
    5.9557  -14.9641   25.7150 C   0  0  0  0  0  0  0  0  0  0  0  0
    6.3677  -16.3964   25.4158 C   0  0  2  0  0  0  0  0  0  0  0  0
    6.9243  -16.8924   26.6735 N   0  0  0  0  0  0  0  0  0  0  0  0
    7.4001  -16.4935   24.3830 C   0  0  0  0  0  0  0  0  0  0  0  0
    7.7955  -17.6338   24.0409 O   0  0  0  0  0  0  0  0  0  0  0  0
    8.8125  -13.9165   15.6114 N   0  0  0  0  0  0  0  0  0  0  0  0
    8.2733  -13.8329   16.9337 C   0  0  0  0  0  0  0  0  0  0  0  0
    7.5951  -12.7925   17.3326 N   0  0  0  0  0  0  0  0  0  0  0  0
    8.4311  -14.8564   17.8961 N   0  0  0  0  0  0  0  0  0  0  0  0
    7.9562  -14.7193   19.2380 C   0  0  0  0  0  0  0  0  0  0  0  0
    9.0195  -14.4010   20.2327 C   0  0  0  0  0  0  0  0  0  0  0  0
    8.4330  -14.3253   21.6023 C   0  0  0  0  0  0  0  0  0  0  0  0
    8.6047  -15.5693   22.4214 C   0  0  2  0  0  0  0  0  0  0  0  0
    7.9876  -15.3742   23.7379 N   0  0  0  0  0  0  0  0  0  0  0  0
   10.0289  -15.9214   22.5692 C   0  0  0  0  0  0  0  0  0  0  0  0
   10.7782  -16.0153   21.5714 O   0  0  0  0  0  0  0  0  0  0  0  0
    7.2202  -12.8359   18.3052 O   0  0  0  0  0  0  0  0  0  0  0  0
    9.1102  -13.3291   28.8401 C   0  0  0  0  0  0  0  0  0  0  0  0
    9.8774  -14.1603   28.0187 C   0  0  0  0  0  0  0  0  0  0  0  0
   10.6206  -13.5963   27.0073 C   0  0  0  0  0  0  0  0  0  0  0  0
   11.3691  -14.4218   26.2091 C   0  0  0  0  0  0  0  0  0  0  0  0
   11.3914  -15.7957   26.3984 C   0  0  0  0  0  0  0  0  0  0  0  0
   12.2148  -16.6725   25.5216 C   0  0  2  0  0  0  0  0  0  0  0  0
   11.9896  -16.2326   24.0720 N   0  0  0  0  0  0  0  0  0  0  0  0
   10.5496  -16.1559   23.8725 C   0  0  0  0  0  0  0  0  0  0  0  0
   12.5474  -17.2200   23.1382 O   0  0  0  0  0  0  0  0  0  0  0  0
   11.8178  -17.7776   22.2944 C   0  0  0  0  0  0  0  0  0  0  0  0
   10.6479  -16.3563   27.4094 C   0  0  0  0  0  0  0  0  0  0  0  0
    9.8970  -15.5255   28.2101 O   0  0  0  0  0  0  0  0  0  0  0  0
  2  1  1  0
  3  2  1  0
  4  3  1  0
  5  4  1  0
  5  7  1  0
  5  6  1  1
  7  8  2  0
  9 10  1  0
 10 11  2  0
 10 12  1  0
 12 13  1  0
 14 13  1  0
 14 15  1  0
 16 15  1  6
 17  7  1  0
 17 16  1  0
 18 16  1  0
 18 27  1  0
 19 18  2  0
 20 21  1  0
 21 31  2  0
 22 23  2  0
 22 21  1  0
 23 24  1  0
 24 25  1  0
 24 30  2  0
 26 28  1  0
 26 27  1  0
 26 25  1  1
 28 32  1  0
 29 28  2  0
 31 30  1  0
M  END
$$$$
