MRY.pdb
     RDKit          3D

 32 32  0  0  1  0  0  0  0  0999 V2000
    7.5548  -11.1155   20.2690 C   0  0  0  0  0  0  0  0  0  0  0  0
    7.9887  -12.6753   21.1190 S   0  0  0  0  0  0  0  0  0  0  0  0
    6.4833  -13.6296   21.2869 C   0  0  0  0  0  0  0  0  0  0  0  0
    6.6449  -14.8594   22.1668 C   0  0  0  0  0  0  0  0  0  0  0  0
    7.7944  -15.6460   21.5581 C   0  0  2  0  0  0  0  0  0  0  0  0
    7.1689  -16.4885   20.5400 N   0  0  0  0  0  0  0  0  0  0  0  0
    8.4720  -16.5129   22.5232 C   0  0  0  0  0  0  0  0  0  0  0  0
    7.7732  -17.2766   23.2317 O   0  0  0  0  0  0  0  0  0  0  0  0
   12.7344  -17.7203   19.1448 N   0  0  0  0  0  0  0  0  0  0  0  0
   12.9753  -19.1210   19.3065 C   0  0  0  0  0  0  0  0  0  0  0  0
   12.8743  -19.9534   18.3073 N   0  0  0  0  0  0  0  0  0  0  0  0
   13.3364  -19.7028   20.5433 N   0  0  0  0  0  0  0  0  0  0  0  0
   13.2058  -19.0003   21.7821 C   0  0  0  0  0  0  0  0  0  0  0  0
   11.8320  -18.4899   22.0530 C   0  0  0  0  0  0  0  0  0  0  0  0
   11.7708  -17.8825   23.4141 C   0  0  0  0  0  0  0  0  0  0  0  0
   10.4188  -17.3644   23.8032 C   0  0  2  0  0  0  0  0  0  0  0  0
    9.8783  -16.5469   22.7116 N   0  0  0  0  0  0  0  0  0  0  0  0
   10.4840  -16.5788   25.0492 C   0  0  0  0  0  0  0  0  0  0  0  0
   11.1180  -15.5011   25.1011 O   0  0  0  0  0  0  0  0  0  0  0  0
   12.9996  -20.9630   18.5382 O   0  0  0  0  0  0  0  0  0  0  0  0
    6.5127  -11.7896   24.9595 C   0  0  0  0  0  0  0  0  0  0  0  0
    7.0241  -12.8506   25.7124 C   0  0  0  0  0  0  0  0  0  0  0  0
    8.0570  -12.6093   26.5889 C   0  0  0  0  0  0  0  0  0  0  0  0
    8.5495  -13.6577   27.3217 C   0  0  0  0  0  0  0  0  0  0  0  0
    8.0341  -14.9395   27.1986 C   0  0  0  0  0  0  0  0  0  0  0  0
    8.5820  -16.0622   28.0077 C   0  0  2  0  0  0  0  0  0  0  0  0
    9.9841  -16.3814   27.4803 N   0  0  0  0  0  0  0  0  0  0  0  0
    9.8112  -17.0630   26.2057 C   0  0  0  0  0  0  0  0  0  0  0  0
   10.6947  -17.2746   28.4050 O   0  0  0  0  0  0  0  0  0  0  0  0
   10.9699  -16.9005   29.5623 C   0  0  0  0  0  0  0  0  0  0  0  0
    7.0024  -15.1777   26.3221 C   0  0  0  0  0  0  0  0  0  0  0  0
    6.5091  -14.1233   25.5870 O   0  0  0  0  0  0  0  0  0  0  0  0
  2  1  1  0
  3  2  1  0
  4  3  1  0
  5  4  1  0
  5  7  1  0
  5  6  1  6
  7  8  2  0
  9 10  1  0
 10 11  2  0
 10 12  1  0
 12 13  1  0
 14 13  1  0
 14 15  1  0
 16 15  1  6
 17  7  1  0
 17 16  1  0
 18 16  1  0
 18 27  1  0
 19 18  2  0
 20 21  1  0
 21 31  2  0
 22 23  2  0
 22 21  1  0
 23 24  1  0
 24 25  1  0
 24 30  2  0
 26 28  1  0
 26 27  1  0
 26 25  1  6
 28 32  1  0
 29 28  2  0
 31 30  1  0
M  END
$$$$
