MRY.pdb
     RDKit          3D

 32 32  0  0  1  0  0  0  0  0999 V2000
    8.7691  -11.4234   20.0628 C   0  0  0  0  0  0  0  0  0  0  0  0
    7.6906  -11.8790   18.6581 S   0  0  0  0  0  0  0  0  0  0  0  0
    8.0176  -13.5953   18.2675 C   0  0  0  0  0  0  0  0  0  0  0  0
    8.2300  -14.4630   19.4982 C   0  0  0  0  0  0  0  0  0  0  0  0
    8.6522  -15.8236   18.9677 C   0  0  2  0  0  0  0  0  0  0  0  0
    7.4563  -16.3544   18.3152 N   0  0  0  0  0  0  0  0  0  0  0  0
    9.0534  -16.7531   20.0246 C   0  0  0  0  0  0  0  0  0  0  0  0
    8.1830  -17.1379   20.8419 O   0  0  0  0  0  0  0  0  0  0  0  0
   15.4008  -17.2941   19.1678 N   0  0  0  0  0  0  0  0  0  0  0  0
   15.2258  -18.3247   18.1914 C   0  0  0  0  0  0  0  0  0  0  0  0
   15.8312  -18.2847   17.0368 N   0  0  0  0  0  0  0  0  0  0  0  0
   14.3957  -19.4501   18.3995 N   0  0  0  0  0  0  0  0  0  0  0  0
   13.6615  -19.6407   19.6118 C   0  0  0  0  0  0  0  0  0  0  0  0
   12.5429  -18.6753   19.8067 C   0  0  0  0  0  0  0  0  0  0  0  0
   11.8084  -18.9904   21.0664 C   0  0  0  0  0  0  0  0  0  0  0  0
   10.6739  -18.0597   21.3736 C   0  0  2  0  0  0  0  0  0  0  0  0
   10.3721  -17.2518   20.1869 N   0  0  0  0  0  0  0  0  0  0  0  0
   10.9906  -17.1888   22.5205 C   0  0  0  0  0  0  0  0  0  0  0  0
   11.7457  -16.1993   22.3913 O   0  0  0  0  0  0  0  0  0  0  0  0
   15.6267  -19.0732   16.3851 O   0  0  0  0  0  0  0  0  0  0  0  0
   11.0298  -13.9959   30.6236 C   0  0  0  0  0  0  0  0  0  0  0  0
   10.6617  -14.6069   29.4214 C   0  0  0  0  0  0  0  0  0  0  0  0
   10.6455  -15.9810   29.3493 C   0  0  0  0  0  0  0  0  0  0  0  0
   10.2823  -16.5682   28.1652 C   0  0  0  0  0  0  0  0  0  0  0  0
    9.9356  -15.8146   27.0535 C   0  0  0  0  0  0  0  0  0  0  0  0
    9.5406  -16.4739   25.7789 C   0  0  1  0  0  0  0  0  0  0  0  0
   10.8115  -16.7077   24.9568 N   0  0  0  0  0  0  0  0  0  0  0  0
   10.4229  -17.4875   23.7906 C   0  0  0  0  0  0  0  0  0  0  0  0
   11.7976  -17.4714   25.7329 O   0  0  0  0  0  0  0  0  0  0  0  0
   11.6927  -18.7086   25.8490 C   0  0  0  0  0  0  0  0  0  0  0  0
    9.9528  -14.4422   27.1284 C   0  0  0  0  0  0  0  0  0  0  0  0
   10.3177  -13.8544   28.3186 O   0  0  0  0  0  0  0  0  0  0  0  0
  2  1  1  0
  3  2  1  0
  4  3  1  0
  5  4  1  0
  5  7  1  0
  5  6  1  1
  7  8  2  0
  9 10  1  0
 10 11  2  0
 10 12  1  0
 12 13  1  0
 14 13  1  0
 14 15  1  0
 16 15  1  6
 17  7  1  0
 17 16  1  0
 18 16  1  0
 18 27  1  0
 19 18  2  0
 20 21  1  0
 21 31  2  0
 22 23  2  0
 22 21  1  0
 23 24  1  0
 24 25  1  0
 24 30  2  0
 26 28  1  0
 26 27  1  0
 26 25  1  6
 28 32  1  0
 29 28  2  0
 31 30  1  0
M  END
$$$$
