MRY.pdb
     RDKit          3D

 32 32  0  0  1  0  0  0  0  0999 V2000
    4.1448  -11.3937   25.9759 C   0  0  0  0  0  0  0  0  0  0  0  0
    5.8130  -10.6452   25.9464 S   0  0  0  0  0  0  0  0  0  0  0  0
    6.9993  -11.9761   26.1086 C   0  0  0  0  0  0  0  0  0  0  0  0
    6.4435  -13.3313   25.6998 C   0  0  0  0  0  0  0  0  0  0  0  0
    7.6097  -14.2997   25.8137 C   0  0  2  0  0  0  0  0  0  0  0  0
    8.7973  -13.4474   25.8465 N   0  0  0  0  0  0  0  0  0  0  0  0
    7.7204  -15.2030   24.6675 C   0  0  0  0  0  0  0  0  0  0  0  0
    6.9790  -16.2143   24.6319 O   0  0  0  0  0  0  0  0  0  0  0  0
    8.1495  -14.0605   16.1008 N   0  0  0  0  0  0  0  0  0  0  0  0
    8.5050  -13.5432   17.3862 C   0  0  0  0  0  0  0  0  0  0  0  0
    8.6141  -12.2616   17.6028 N   0  0  0  0  0  0  0  0  0  0  0  0
    8.7615  -14.3689   18.5048 N   0  0  0  0  0  0  0  0  0  0  0  0
    7.9705  -15.5242   18.7955 C   0  0  0  0  0  0  0  0  0  0  0  0
    8.3885  -16.2574   20.0238 C   0  0  0  0  0  0  0  0  0  0  0  0
    8.3429  -15.3464   21.2043 C   0  0  0  0  0  0  0  0  0  0  0  0
    8.6490  -16.0098   22.5134 C   0  0  2  0  0  0  0  0  0  0  0  0
    8.6179  -15.0088   23.5854 N   0  0  0  0  0  0  0  0  0  0  0  0
    9.9597  -16.6844   22.4790 C   0  0  0  0  0  0  0  0  0  0  0  0
   10.8493  -16.3272   21.6745 O   0  0  0  0  0  0  0  0  0  0  0  0
    8.9153  -11.9834   18.5620 O   0  0  0  0  0  0  0  0  0  0  0  0
   12.0779  -15.1800   30.3901 C   0  0  0  0  0  0  0  0  0  0  0  0
   11.5221  -15.5029   29.1488 C   0  0  0  0  0  0  0  0  0  0  0  0
   11.5816  -14.5788   28.1309 C   0  0  0  0  0  0  0  0  0  0  0  0
   11.0335  -14.9074   26.9183 C   0  0  0  0  0  0  0  0  0  0  0  0
   10.4283  -16.1363   26.7003 C   0  0  0  0  0  0  0  0  0  0  0  0
    9.8432  -16.4730   25.3739 C   0  0  2  0  0  0  0  0  0  0  0  0
   10.7714  -17.4832   24.6931 N   0  0  0  0  0  0  0  0  0  0  0  0
   10.2067  -17.7578   23.3797 C   0  0  0  0  0  0  0  0  0  0  0  0
   10.8255  -18.7355   25.4590 O   0  0  0  0  0  0  0  0  0  0  0  0
   11.8059  -18.9928   26.1854 C   0  0  0  0  0  0  0  0  0  0  0  0
   10.3703  -17.0573   27.7190 C   0  0  0  0  0  0  0  0  0  0  0  0
   10.9214  -16.7255   28.9361 O   0  0  0  0  0  0  0  0  0  0  0  0
  2  1  1  0
  3  2  1  0
  4  3  1  0
  5  4  1  0
  5  7  1  0
  5  6  1  6
  7  8  2  0
  9 10  1  0
 10 11  2  0
 10 12  1  0
 12 13  1  0
 14 13  1  0
 14 15  1  0
 16 15  1  6
 17  7  1  0
 17 16  1  0
 18 16  1  0
 18 27  1  0
 19 18  2  0
 20 21  1  0
 21 31  2  0
 22 23  2  0
 22 21  1  0
 23 24  1  0
 24 25  1  0
 24 30  2  0
 26 28  1  0
 26 27  1  0
 26 25  1  6
 28 32  1  0
 29 28  2  0
 31 30  1  0
M  END
$$$$
