MRY.pdb
     RDKit          3D

 32 32  0  0  1  0  0  0  0  0999 V2000
    6.1715  -11.2004   18.4552 C   0  0  0  0  0  0  0  0  0  0  0  0
    6.9670  -12.0803   19.8469 S   0  0  0  0  0  0  0  0  0  0  0  0
    7.5254  -13.6649   19.2286 C   0  0  0  0  0  0  0  0  0  0  0  0
    8.1344  -14.5504   20.3046 C   0  0  0  0  0  0  0  0  0  0  0  0
    8.3804  -15.8926   19.6347 C   0  0  2  0  0  0  0  0  0  0  0  0
    7.0448  -16.4246   19.3691 N   0  0  0  0  0  0  0  0  0  0  0  0
    9.0937  -16.8404   20.4918 C   0  0  0  0  0  0  0  0  0  0  0  0
    8.4529  -17.4212   21.4005 O   0  0  0  0  0  0  0  0  0  0  0  0
   13.4628  -17.6668   16.6739 N   0  0  0  0  0  0  0  0  0  0  0  0
   13.3894  -19.0936   16.6051 C   0  0  0  0  0  0  0  0  0  0  0  0
   13.0068  -19.7085   15.5202 N   0  0  0  0  0  0  0  0  0  0  0  0
   13.7212  -19.9354   17.6914 N   0  0  0  0  0  0  0  0  0  0  0  0
   13.6764  -19.4821   19.0470 C   0  0  0  0  0  0  0  0  0  0  0  0
   12.3750  -18.8748   19.4453 C   0  0  0  0  0  0  0  0  0  0  0  0
   12.4005  -18.5131   20.8923 C   0  0  0  0  0  0  0  0  0  0  0  0
   11.1148  -17.9445   21.4135 C   0  0  2  0  0  0  0  0  0  0  0  0
   10.4731  -17.1483   20.3618 N   0  0  0  0  0  0  0  0  0  0  0  0
   11.3412  -17.1206   22.6152 C   0  0  0  0  0  0  0  0  0  0  0  0
   12.1617  -16.1758   22.6056 O   0  0  0  0  0  0  0  0  0  0  0  0
   12.9517  -20.7486   15.5787 O   0  0  0  0  0  0  0  0  0  0  0  0
   10.7637  -14.4684   30.9070 C   0  0  0  0  0  0  0  0  0  0  0  0
   10.4745  -14.9973   29.6458 C   0  0  0  0  0  0  0  0  0  0  0  0
   10.5677  -16.3569   29.4554 C   0  0  0  0  0  0  0  0  0  0  0  0
   10.2811  -16.8634   28.2144 C   0  0  0  0  0  0  0  0  0  0  0  0
    9.9043  -16.0432   27.1611 C   0  0  0  0  0  0  0  0  0  0  0  0
    9.5939  -16.6158   25.8228 C   0  0  1  0  0  0  0  0  0  0  0  0
   10.9006  -16.6861   25.0268 N   0  0  0  0  0  0  0  0  0  0  0  0
   10.6093  -17.4132   23.7997 C   0  0  0  0  0  0  0  0  0  0  0  0
   11.9279  -17.4172   25.7806 O   0  0  0  0  0  0  0  0  0  0  0  0
   12.8481  -16.8039   26.3570 C   0  0  0  0  0  0  0  0  0  0  0  0
    9.8122  -14.6854   27.3541 C   0  0  0  0  0  0  0  0  0  0  0  0
   10.1004  -14.1787   28.6013 O   0  0  0  0  0  0  0  0  0  0  0  0
  2  1  1  0
  3  2  1  0
  4  3  1  0
  5  4  1  0
  5  7  1  0
  5  6  1  1
  7  8  2  0
  9 10  1  0
 10 11  2  0
 10 12  1  0
 12 13  1  0
 14 13  1  0
 14 15  1  0
 16 15  1  6
 17  7  1  0
 17 16  1  0
 18 16  1  0
 18 27  1  0
 19 18  2  0
 20 21  1  0
 21 31  2  0
 22 23  2  0
 22 21  1  0
 23 24  1  0
 24 25  1  0
 24 30  2  0
 26 28  1  0
 26 27  1  0
 26 25  1  6
 28 32  1  0
 29 28  2  0
 31 30  1  0
M  END
$$$$
