MRY.pdb
     RDKit          3D

 32 32  0  0  1  0  0  0  0  0999 V2000
    7.8354  -11.4378   20.2311 C   0  0  0  0  0  0  0  0  0  0  0  0
    8.1836  -11.6929   18.4541 S   0  0  0  0  0  0  0  0  0  0  0  0
    8.2086  -13.4591   18.1622 C   0  0  0  0  0  0  0  0  0  0  0  0
    8.2820  -14.2797   19.4405 C   0  0  0  0  0  0  0  0  0  0  0  0
    8.4306  -15.7234   18.9882 C   0  0  2  0  0  0  0  0  0  0  0  0
    7.1509  -16.0486   18.3602 N   0  0  0  0  0  0  0  0  0  0  0  0
    8.6511  -16.6530   20.0969 C   0  0  0  0  0  0  0  0  0  0  0  0
    7.6937  -16.8962   20.8701 O   0  0  0  0  0  0  0  0  0  0  0  0
   11.7893  -20.0667   17.6547 N   0  0  0  0  0  0  0  0  0  0  0  0
   12.9105  -20.2230   18.5291 C   0  0  0  0  0  0  0  0  0  0  0  0
   14.1048  -19.8228   18.1902 N   0  0  0  0  0  0  0  0  0  0  0  0
   12.8123  -20.8142   19.8095 N   0  0  0  0  0  0  0  0  0  0  0  0
   11.5720  -21.2983   20.3314 C   0  0  0  0  0  0  0  0  0  0  0  0
   10.5236  -20.2503   20.4854 C   0  0  0  0  0  0  0  0  0  0  0  0
   11.0037  -19.1770   21.4036 C   0  0  0  0  0  0  0  0  0  0  0  0
   10.0320  -18.0537   21.6082 C   0  0  2  0  0  0  0  0  0  0  0  0
    9.8859  -17.3025   20.3567 N   0  0  0  0  0  0  0  0  0  0  0  0
   10.4683  -17.1590   22.6960 C   0  0  0  0  0  0  0  0  0  0  0  0
   11.3788  -16.3196   22.5162 O   0  0  0  0  0  0  0  0  0  0  0  0
   14.8661  -20.0226   18.8749 O   0  0  0  0  0  0  0  0  0  0  0  0
   10.8111  -13.8963   30.8002 C   0  0  0  0  0  0  0  0  0  0  0  0
   10.3807  -14.4189   29.5771 C   0  0  0  0  0  0  0  0  0  0  0  0
   10.1861  -15.7763   29.4635 C   0  0  0  0  0  0  0  0  0  0  0  0
    9.7636  -16.2765   28.2593 C   0  0  0  0  0  0  0  0  0  0  0  0
    9.5315  -15.4522   27.1681 C   0  0  0  0  0  0  0  0  0  0  0  0
    9.0691  -16.0171   25.8711 C   0  0  1  0  0  0  0  0  0  0  0  0
   10.3068  -16.4400   25.0743 N   0  0  0  0  0  0  0  0  0  0  0  0
    9.8368  -17.2600   23.9670 C   0  0  0  0  0  0  0  0  0  0  0  0
   11.2118  -17.2413   25.9091 O   0  0  0  0  0  0  0  0  0  0  0  0
   11.0168  -18.4632   26.0635 C   0  0  0  0  0  0  0  0  0  0  0  0
    9.7269  -14.0966   27.2845 C   0  0  0  0  0  0  0  0  0  0  0  0
   10.1512  -13.5962   28.4948 O   0  0  0  0  0  0  0  0  0  0  0  0
  2  1  1  0
  3  2  1  0
  4  3  1  0
  5  4  1  0
  5  7  1  0
  5  6  1  1
  7  8  2  0
  9 10  1  0
 10 11  2  0
 10 12  1  0
 12 13  1  0
 14 13  1  0
 14 15  1  0
 16 15  1  6
 17  7  1  0
 17 16  1  0
 18 16  1  0
 18 27  1  0
 19 18  2  0
 20 21  1  0
 21 31  2  0
 22 23  2  0
 22 21  1  0
 23 24  1  0
 24 25  1  0
 24 30  2  0
 26 28  1  0
 26 27  1  0
 26 25  1  6
 28 32  1  0
 29 28  2  0
 31 30  1  0
M  END
$$$$
