RSC.pdb
     RDKit          3D

 24 23  0  0  1  0  0  0  0  0999 V2000
    9.0934  -14.1775   15.4453 N   0  0  0  0  0  0  0  0  0  0  0  0
    8.1389  -14.0238   16.4603 C   0  0  0  0  0  0  0  0  0  0  0  0
    7.7485  -12.8445   16.7898 N   0  0  0  0  0  0  0  0  0  0  0  0
    7.6080  -15.1635   17.1185 N   0  0  0  0  0  0  0  0  0  0  0  0
    8.3813  -15.8921   18.1008 C   0  0  0  0  0  0  0  0  0  0  0  0
    9.5086  -15.0090   18.6328 C   0  0  0  0  0  0  0  0  0  0  0  0
   10.0853  -15.6745   19.8743 C   0  0  0  0  0  0  0  0  0  0  0  0
    8.9054  -16.0010   20.7907 C   0  0  2  0  0  0  0  0  0  0  0  0
    7.8024  -15.1212   20.4545 N   0  0  0  0  0  0  0  0  0  0  0  0
    9.3813  -15.8038   22.1694 C   0  0  0  0  0  0  0  0  0  0  0  0
   10.5877  -15.5011   22.3378 O   0  0  0  0  0  0  0  0  0  0  0  0
    7.0495  -12.7009   17.5482 O   0  0  0  0  0  0  0  0  0  0  0  0
    6.8743  -16.3837   25.3845 C   0  0  0  0  0  0  0  0  0  0  0  0
    7.9000  -15.4902   25.5419 C   0  0  1  0  0  0  0  0  0  0  0  0
    9.0496  -15.8301   24.6049 N   0  0  0  0  0  0  0  0  0  0  0  0
    8.4942  -15.9546   23.2561 C   0  0  0  0  0  0  0  0  0  0  0  0
    9.6692  -17.1097   25.0257 O   0  0  0  0  0  0  0  0  0  0  0  0
    9.3333  -18.2146   24.5208 N   0  0  0  0  0  0  0  0  0  0  0  0
   10.6653  -17.1210   26.0154 C   0  0  1  0  0  0  0  0  0  0  0  0
   11.2265  -18.3900   26.4535 C   0  0  0  0  0  0  0  0  0  0  0  0
   12.7453  -18.2618   26.4199 S   0  0  0  0  0  0  0  0  0  0  0  0
   13.5465  -19.8664   26.4267 C   0  0  0  0  0  0  0  0  0  0  0  0
   10.7896  -18.7158   27.8316 O   0  0  0  0  0  0  0  0  0  0  0  0
   11.0567  -19.9835   28.3226 O   0  0  0  0  0  0  0  0  0  0  0  0
  2  3  2  0
  2  1  1  0
  4  2  1  0
  5  4  1  0
  6  5  1  0
  7  6  1  0
  7  8  1  0
  8  9  1  6
  8 10  1  0
 10 15  1  0
 11 10  2  0
 13 12  1  0
 14 16  1  0
 14 13  1  6
 15 14  1  0
 16 17  2  0
 18 16  1  0
 18 19  1  0
 19 20  1  1
 20 21  1  0
 22 23  1  0
 22 19  1  0
 24 22  2  0
M  END
$$$$
