RSC.pdb
     RDKit          3D

 24 23  0  0  1  0  0  0  0  0999 V2000
    7.3294  -15.0426   15.6324 N   0  0  0  0  0  0  0  0  0  0  0  0
    8.4609  -14.4033   16.1576 C   0  0  0  0  0  0  0  0  0  0  0  0
    8.3596  -13.2034   16.6066 N   0  0  0  0  0  0  0  0  0  0  0  0
    9.7090  -15.0777   16.1929 N   0  0  0  0  0  0  0  0  0  0  0  0
    9.9535  -16.1575   17.1246 C   0  0  0  0  0  0  0  0  0  0  0  0
    9.5468  -15.7293   18.5335 C   0  0  0  0  0  0  0  0  0  0  0  0
   10.8153  -15.4824   19.3377 C   0  0  0  0  0  0  0  0  0  0  0  0
   10.6337  -16.1911   20.6806 C   0  0  2  0  0  0  0  0  0  0  0  0
   10.0286  -17.4873   20.4405 N   0  0  0  0  0  0  0  0  0  0  0  0
    9.7811  -15.3164   21.5018 C   0  0  0  0  0  0  0  0  0  0  0  0
   10.2222  -14.1811   21.8050 O   0  0  0  0  0  0  0  0  0  0  0  0
    9.1966  -12.6801   16.9384 O   0  0  0  0  0  0  0  0  0  0  0  0
    6.3991  -16.7583   23.4372 C   0  0  0  0  0  0  0  0  0  0  0  0
    6.3686  -15.4658   22.9859 C   0  0  1  0  0  0  0  0  0  0  0  0
    7.7802  -14.9096   22.8703 N   0  0  0  0  0  0  0  0  0  0  0  0
    8.5099  -15.7575   21.9259 C   0  0  0  0  0  0  0  0  0  0  0  0
    8.4347  -14.9404   24.2003 O   0  0  0  0  0  0  0  0  0  0  0  0
    9.4028  -15.7070   24.4530 N   0  0  0  0  0  0  0  0  0  0  0  0
    7.9833  -14.0991   25.2300 C   0  0  1  0  0  0  0  0  0  0  0  0
    8.5788  -14.2024   26.5535 C   0  0  0  0  0  0  0  0  0  0  0  0
    7.9423  -13.1325   27.4335 S   0  0  0  0  0  0  0  0  0  0  0  0
    7.3405  -11.7485   26.4645 C   0  0  0  0  0  0  0  0  0  0  0  0
    8.3304  -15.5386   27.1441 O   0  0  0  0  0  0  0  0  0  0  0  0
    9.0167  -15.8848   28.2968 O   0  0  0  0  0  0  0  0  0  0  0  0
  2  3  2  0
  2  1  1  0
  4  2  1  0
  5  4  1  0
  6  5  1  0
  7  6  1  0
  7  8  1  0
  8  9  1  6
  8 10  1  0
 10 15  1  0
 11 10  2  0
 13 12  1  0
 14 16  1  0
 14 13  1  6
 15 14  1  0
 16 17  2  0
 18 16  1  0
 18 19  1  0
 19 20  1  1
 20 21  1  0
 22 23  1  0
 22 19  1  0
 24 22  2  0
M  END
$$$$
