RSC.pdb
     RDKit          3D

 24 23  0  0  1  0  0  0  0  0999 V2000
   12.1142  -29.3002   32.6852 N   0  0  0  0  0  0  0  0  0  0  0  0
   10.7275  -29.1865   32.8559 C   0  0  0  0  0  0  0  0  0  0  0  0
   10.1038  -30.0531   33.5712 N   0  0  0  0  0  0  0  0  0  0  0  0
   10.0186  -28.1210   32.2427 N   0  0  0  0  0  0  0  0  0  0  0  0
   10.7099  -27.0799   31.5134 C   0  0  0  0  0  0  0  0  0  0  0  0
   11.3561  -26.1017   32.4928 C   0  0  0  0  0  0  0  0  0  0  0  0
   12.5560  -25.4665   31.8046 C   0  0  0  0  0  0  0  0  0  0  0  0
   12.0355  -24.2480   31.0412 C   0  0  2  0  0  0  0  0  0  0  0  0
   11.5118  -24.6926   29.7638 N   0  0  0  0  0  0  0  0  0  0  0  0
   13.1767  -23.3306   30.8921 C   0  0  0  0  0  0  0  0  0  0  0  0
   13.7945  -23.3327   29.7995 O   0  0  0  0  0  0  0  0  0  0  0  0
    9.0722  -30.0007   33.7028 O   0  0  0  0  0  0  0  0  0  0  0  0
   13.2731  -19.8068   32.5395 C   0  0  0  0  0  0  0  0  0  0  0  0
   14.0606  -20.1778   31.4825 C   0  0  1  0  0  0  0  0  0  0  0  0
   14.6598  -21.5555   31.7237 N   0  0  0  0  0  0  0  0  0  0  0  0
   13.5502  -22.4820   31.9555 C   0  0  0  0  0  0  0  0  0  0  0  0
   15.5466  -21.5085   32.9109 O   0  0  0  0  0  0  0  0  0  0  0  0
   15.0918  -21.4536   34.0852 N   0  0  0  0  0  0  0  0  0  0  0  0
   16.9418  -21.5253   32.7522 C   0  0  1  0  0  0  0  0  0  0  0  0
   17.7980  -21.3538   33.9161 C   0  0  0  0  0  0  0  0  0  0  0  0
   18.5476  -22.6628   34.1376 S   0  0  0  0  0  0  0  0  0  0  0  0
   17.4292  -24.0097   34.5270 C   0  0  0  0  0  0  0  0  0  0  0  0
   18.7723  -20.2581   33.7012 O   0  0  0  0  0  0  0  0  0  0  0  0
   18.8040  -19.6418   32.4607 O   0  0  0  0  0  0  0  0  0  0  0  0
  2  3  2  0
  2  1  1  0
  4  2  1  0
  5  4  1  0
  6  5  1  0
  7  6  1  0
  7  8  1  0
  8  9  1  6
  8 10  1  0
 10 15  1  0
 11 10  2  0
 13 12  1  0
 14 16  1  0
 14 13  1  6
 15 14  1  0
 16 17  2  0
 18 16  1  0
 18 19  1  0
 19 20  1  1
 20 21  1  0
 22 23  1  0
 22 19  1  0
 24 22  2  0
M  END
$$$$
