RSC.pdb
     RDKit          3D

 24 23  0  0  1  0  0  0  0  0999 V2000
    8.2955  -14.6542   15.4423 N   0  0  0  0  0  0  0  0  0  0  0  0
    8.6845  -13.8969   16.5559 C   0  0  0  0  0  0  0  0  0  0  0  0
    9.9182  -13.8870   16.9158 N   0  0  0  0  0  0  0  0  0  0  0  0
    7.7217  -13.1467   17.2797 N   0  0  0  0  0  0  0  0  0  0  0  0
    7.3258  -13.5254   18.6189 C   0  0  0  0  0  0  0  0  0  0  0  0
    8.5269  -14.0912   19.3746 C   0  0  0  0  0  0  0  0  0  0  0  0
    8.1091  -14.3265   20.8192 C   0  0  0  0  0  0  0  0  0  0  0  0
    8.0615  -15.8410   21.0257 C   0  0  2  0  0  0  0  0  0  0  0  0
    6.8953  -16.3641   20.3401 N   0  0  0  0  0  0  0  0  0  0  0  0
    8.0047  -16.0619   22.4798 C   0  0  0  0  0  0  0  0  0  0  0  0
    6.8863  -15.9815   23.0439 O   0  0  0  0  0  0  0  0  0  0  0  0
   10.2381  -13.3173   17.7267 O   0  0  0  0  0  0  0  0  0  0  0  0
   11.3539  -17.1725   24.6282 C   0  0  0  0  0  0  0  0  0  0  0  0
   10.1168  -17.5864   25.0449 C   0  0  1  0  0  0  0  0  0  0  0  0
    9.0543  -16.5744   24.6426 N   0  0  0  0  0  0  0  0  0  0  0  0
    9.1816  -16.3541   23.2009 C   0  0  0  0  0  0  0  0  0  0  0  0
    9.2753  -15.3060   25.3778 O   0  0  0  0  0  0  0  0  0  0  0  0
   10.1278  -14.4556   25.0053 N   0  0  0  0  0  0  0  0  0  0  0  0
    8.5248  -15.0159   26.5286 C   0  0  1  0  0  0  0  0  0  0  0  0
    8.8889  -13.8736   27.3531 C   0  0  0  0  0  0  0  0  0  0  0  0
    7.6060  -13.1306   27.7090 S   0  0  0  0  0  0  0  0  0  0  0  0
    6.4492  -13.1111   26.3387 C   0  0  0  0  0  0  0  0  0  0  0  0
    9.5663  -14.3111   28.5964 O   0  0  0  0  0  0  0  0  0  0  0  0
   10.0484  -13.3394   29.4582 O   0  0  0  0  0  0  0  0  0  0  0  0
  2  3  2  0
  2  1  1  0
  4  2  1  0
  5  4  1  0
  6  5  1  0
  7  6  1  0
  7  8  1  0
  8  9  1  6
  8 10  1  0
 10 15  1  0
 11 10  2  0
 13 12  1  0
 14 16  1  0
 14 13  1  6
 15 14  1  0
 16 17  2  0
 18 16  1  0
 18 19  1  0
 19 20  1  1
 20 21  1  0
 22 23  1  0
 22 19  1  0
 24 22  2  0
M  END
$$$$
