RSC.pdb
     RDKit          3D

 24 23  0  0  1  0  0  0  0  0999 V2000
    7.6468  -17.5668   18.5402 N   0  0  0  0  0  0  0  0  0  0  0  0
    8.7277  -17.2032   17.7252 C   0  0  0  0  0  0  0  0  0  0  0  0
    8.6901  -17.4668   16.4679 N   0  0  0  0  0  0  0  0  0  0  0  0
    9.8548  -16.5482   18.2858 N   0  0  0  0  0  0  0  0  0  0  0  0
    9.9932  -16.3831   19.7167 C   0  0  0  0  0  0  0  0  0  0  0  0
    9.3749  -15.0544   20.1480 C   0  0  0  0  0  0  0  0  0  0  0  0
    8.0646  -15.3523   20.8629 C   0  0  0  0  0  0  0  0  0  0  0  0
    7.3827  -14.0073   21.1174 C   0  0  2  0  0  0  0  0  0  0  0  0
    7.7454  -13.0963   20.0486 N   0  0  0  0  0  0  0  0  0  0  0  0
    7.8517  -13.5446   22.4335 C   0  0  0  0  0  0  0  0  0  0  0  0
    8.8135  -12.7389   22.4656 O   0  0  0  0  0  0  0  0  0  0  0  0
    9.4795  -17.2086   15.8397 O   0  0  0  0  0  0  0  0  0  0  0  0
    5.7904  -14.5109   25.8907 C   0  0  0  0  0  0  0  0  0  0  0  0
    6.3455  -13.2696   25.7286 C   0  0  1  0  0  0  0  0  0  0  0  0
    7.5996  -13.3559   24.8714 N   0  0  0  0  0  0  0  0  0  0  0  0
    7.2268  -14.0034   23.6123 C   0  0  0  0  0  0  0  0  0  0  0  0
    8.6273  -14.1582   25.5773 O   0  0  0  0  0  0  0  0  0  0  0  0
    9.0169  -15.2766   25.1459 N   0  0  0  0  0  0  0  0  0  0  0  0
    9.2029  -13.6814   26.7660 C   0  0  2  0  0  0  0  0  0  0  0  0
   10.1480  -14.5173   27.4908 C   0  0  0  0  0  0  0  0  0  0  0  0
   10.4968  -13.8027   28.7916 S   0  0  0  0  0  0  0  0  0  0  0  0
   11.6318  -14.7647   29.7930 C   0  0  0  0  0  0  0  0  0  0  0  0
    9.5577  -15.8412   27.7985 O   0  0  0  0  0  0  0  0  0  0  0  0
   10.3529  -16.9657   27.6475 O   0  0  0  0  0  0  0  0  0  0  0  0
  2  3  2  0
  2  1  1  0
  4  2  1  0
  5  4  1  0
  6  5  1  0
  7  6  1  0
  7  8  1  0
  8  9  1  6
  8 10  1  0
 10 15  1  0
 11 10  2  0
 13 12  1  0
 14 16  1  0
 14 13  1  6
 15 14  1  0
 16 17  2  0
 18 16  1  0
 18 19  1  0
 19 20  1  1
 20 21  1  0
 22 23  1  0
 22 19  1  0
 24 22  2  0
M  END
$$$$
