RSC.pdb
     RDKit          3D

 24 23  0  0  1  0  0  0  0  0999 V2000
    8.3899  -21.0901   18.9280 N   0  0  0  0  0  0  0  0  0  0  0  0
    7.0278  -21.3057   18.6775 C   0  0  0  0  0  0  0  0  0  0  0  0
    6.6591  -22.3625   18.0456 N   0  0  0  0  0  0  0  0  0  0  0  0
    6.0634  -20.3631   19.1194 N   0  0  0  0  0  0  0  0  0  0  0  0
    6.4587  -19.0770   19.6516 C   0  0  0  0  0  0  0  0  0  0  0  0
    7.7374  -18.6017   18.9641 C   0  0  0  0  0  0  0  0  0  0  0  0
    7.9919  -17.1605   19.3824 C   0  0  0  0  0  0  0  0  0  0  0  0
    9.1433  -17.1877   20.3886 C   0  0  2  0  0  0  0  0  0  0  0  0
    9.3753  -18.5627   20.7877 N   0  0  0  0  0  0  0  0  0  0  0  0
    8.7313  -16.3370   21.5168 C   0  0  0  0  0  0  0  0  0  0  0  0
    8.4993  -15.1253   21.2860 O   0  0  0  0  0  0  0  0  0  0  0  0
    5.6564  -22.5351   17.8238 O   0  0  0  0  0  0  0  0  0  0  0  0
    7.0535  -17.7582   24.8439 C   0  0  0  0  0  0  0  0  0  0  0  0
    6.9928  -16.4250   24.5373 C   0  0  1  0  0  0  0  0  0  0  0  0
    8.2992  -15.9643   23.9077 N   0  0  0  0  0  0  0  0  0  0  0  0
    8.6062  -16.8844   22.8111 C   0  0  0  0  0  0  0  0  0  0  0  0
    9.3777  -15.9985   24.9244 O   0  0  0  0  0  0  0  0  0  0  0  0
   10.2408  -16.9166   24.9549 N   0  0  0  0  0  0  0  0  0  0  0  0
    9.4656  -14.9885   25.8961 C   0  0  2  0  0  0  0  0  0  0  0  0
   10.4426  -15.1074   26.9677 C   0  0  0  0  0  0  0  0  0  0  0  0
   10.3898  -13.8236   27.7883 S   0  0  0  0  0  0  0  0  0  0  0  0
    8.7051  -13.3739   28.2082 C   0  0  0  0  0  0  0  0  0  0  0  0
   10.1338  -16.2640   27.8412 O   0  0  0  0  0  0  0  0  0  0  0  0
   11.0875  -16.6631   28.7636 O   0  0  0  0  0  0  0  0  0  0  0  0
  2  3  2  0
  2  1  1  0
  4  2  1  0
  5  4  1  0
  6  5  1  0
  7  6  1  0
  7  8  1  0
  8  9  1  1
  8 10  1  0
 10 15  1  0
 11 10  2  0
 13 12  1  0
 14 16  1  0
 14 13  1  6
 15 14  1  0
 16 17  2  0
 18 16  1  0
 18 19  1  0
 19 20  1  6
 20 21  1  0
 22 23  1  0
 22 19  1  0
 24 22  2  0
M  END
$$$$
