RSC.pdb
     RDKit          3D

 24 23  0  0  1  0  0  0  0  0999 V2000
    7.3897  -19.1662   16.3847 N   0  0  0  0  0  0  0  0  0  0  0  0
    6.0998  -19.3221   16.9106 C   0  0  0  0  0  0  0  0  0  0  0  0
    5.3685  -20.3024   16.5154 N   0  0  0  0  0  0  0  0  0  0  0  0
    5.6062  -18.4035   17.8731 N   0  0  0  0  0  0  0  0  0  0  0  0
    6.3243  -17.1877   18.1888 C   0  0  0  0  0  0  0  0  0  0  0  0
    7.4803  -17.4993   19.1376 C   0  0  0  0  0  0  0  0  0  0  0  0
    7.1443  -16.9129   20.5014 C   0  0  0  0  0  0  0  0  0  0  0  0
    7.5396  -15.4362   20.4586 C   0  0  2  0  0  0  0  0  0  0  0  0
    8.4528  -15.2346   19.3499 N   0  0  0  0  0  0  0  0  0  0  0  0
    8.1586  -15.1324   21.7589 C   0  0  0  0  0  0  0  0  0  0  0  0
    9.3729  -15.4107   21.9119 O   0  0  0  0  0  0  0  0  0  0  0  0
    4.3657  -20.3702   16.7879 O   0  0  0  0  0  0  0  0  0  0  0  0
    6.0328  -14.1351   25.2903 C   0  0  0  0  0  0  0  0  0  0  0  0
    7.1371  -13.4236   24.9037 C   0  0  1  0  0  0  0  0  0  0  0  0
    8.0641  -14.2934   24.0674 N   0  0  0  0  0  0  0  0  0  0  0  0
    7.3948  -14.5461   22.7901 C   0  0  0  0  0  0  0  0  0  0  0  0
    8.3174  -15.5706   24.7763 O   0  0  0  0  0  0  0  0  0  0  0  0
    7.7302  -16.6402   24.4604 N   0  0  0  0  0  0  0  0  0  0  0  0
    9.2365  -15.6203   25.8369 C   0  0  1  0  0  0  0  0  0  0  0  0
    9.7116  -16.9101   26.3144 C   0  0  0  0  0  0  0  0  0  0  0  0
   10.7366  -17.4273   25.3114 S   0  0  0  0  0  0  0  0  0  0  0  0
   11.5047  -18.9477   25.8724 C   0  0  0  0  0  0  0  0  0  0  0  0
   10.3471  -16.7811   27.6469 O   0  0  0  0  0  0  0  0  0  0  0  0
   10.5195  -15.5106   28.1718 O   0  0  0  0  0  0  0  0  0  0  0  0
  2  3  2  0
  2  1  1  0
  4  2  1  0
  5  4  1  0
  6  5  1  0
  7  6  1  0
  7  8  1  0
  8  9  1  6
  8 10  1  0
 10 15  1  0
 11 10  2  0
 13 12  1  0
 14 16  1  0
 14 13  1  6
 15 14  1  0
 16 17  2  0
 18 16  1  0
 18 19  1  0
 19 20  1  1
 20 21  1  0
 22 23  1  0
 22 19  1  0
 24 22  2  0
M  END
$$$$
