RSC.pdb
     RDKit          3D

 24 23  0  0  1  0  0  0  0  0999 V2000
    8.8202  -11.8662   19.1797 N   0  0  0  0  0  0  0  0  0  0  0  0
    8.7563  -13.0848   18.4898 C   0  0  0  0  0  0  0  0  0  0  0  0
    8.8488  -13.0929   17.2080 N   0  0  0  0  0  0  0  0  0  0  0  0
    8.5909  -14.3003   19.2032 N   0  0  0  0  0  0  0  0  0  0  0  0
    7.2942  -14.9315   19.3216 C   0  0  0  0  0  0  0  0  0  0  0  0
    6.5142  -14.3025   20.4747 C   0  0  0  0  0  0  0  0  0  0  0  0
    7.2070  -14.6801   21.7763 C   0  0  0  0  0  0  0  0  0  0  0  0
    7.4035  -16.1964   21.7501 C   0  0  2  0  0  0  0  0  0  0  0  0
    6.1503  -16.8178   21.3664 N   0  0  0  0  0  0  0  0  0  0  0  0
    7.8320  -16.5847   23.1036 C   0  0  0  0  0  0  0  0  0  0  0  0
    7.0598  -16.3324   24.0604 O   0  0  0  0  0  0  0  0  0  0  0  0
    8.7585  -13.9782   16.6671 O   0  0  0  0  0  0  0  0  0  0  0  0
   11.6325  -18.0359   23.9061 C   0  0  0  0  0  0  0  0  0  0  0  0
   10.5791  -18.6107   24.5658 C   0  0  1  0  0  0  0  0  0  0  0  0
    9.4161  -17.6345   24.6628 N   0  0  0  0  0  0  0  0  0  0  0  0
    9.0761  -17.2203   23.3003 C   0  0  0  0  0  0  0  0  0  0  0  0
    9.8221  -16.4596   25.4708 O   0  0  0  0  0  0  0  0  0  0  0  0
   10.2112  -15.3842   24.9410 N   0  0  0  0  0  0  0  0  0  0  0  0
    9.7810  -16.5179   26.8733 C   0  0  1  0  0  0  0  0  0  0  0  0
   10.3863  -15.4491   27.6535 C   0  0  0  0  0  0  0  0  0  0  0  0
    9.2784  -14.4798   28.0503 S   0  0  0  0  0  0  0  0  0  0  0  0
    9.8707  -13.2250   29.1866 C   0  0  0  0  0  0  0  0  0  0  0  0
   11.0335  -15.9846   28.8743 O   0  0  0  0  0  0  0  0  0  0  0  0
   11.8571  -15.1427   29.6038 O   0  0  0  0  0  0  0  0  0  0  0  0
  2  3  2  0
  2  1  1  0
  4  2  1  0
  5  4  1  0
  6  5  1  0
  7  6  1  0
  7  8  1  0
  8  9  1  1
  8 10  1  0
 10 15  1  0
 11 10  2  0
 13 12  1  0
 14 16  1  0
 14 13  1  6
 15 14  1  0
 16 17  2  0
 18 16  1  0
 18 19  1  0
 19 20  1  1
 20 21  1  0
 22 23  1  0
 22 19  1  0
 24 22  2  0
M  END
$$$$
