RSC.pdb
     RDKit          3D

 24 23  0  0  1  0  0  0  0  0999 V2000
    7.7634  -12.9381   19.9579 N   0  0  0  0  0  0  0  0  0  0  0  0
    7.8264  -13.5634   18.7050 C   0  0  0  0  0  0  0  0  0  0  0  0
    8.1075  -12.8666   17.6624 N   0  0  0  0  0  0  0  0  0  0  0  0
    7.5815  -14.9565   18.5902 N   0  0  0  0  0  0  0  0  0  0  0  0
    8.0573  -15.8880   19.5900 C   0  0  0  0  0  0  0  0  0  0  0  0
    9.3676  -16.5221   19.1267 C   0  0  0  0  0  0  0  0  0  0  0  0
   10.4993  -15.9269   19.9523 C   0  0  0  0  0  0  0  0  0  0  0  0
   10.6863  -16.8354   21.1682 C   0  0  2  0  0  0  0  0  0  0  0  0
    9.9973  -18.0873   20.9194 N   0  0  0  0  0  0  0  0  0  0  0  0
   10.1315  -16.1082   22.3213 C   0  0  0  0  0  0  0  0  0  0  0  0
   10.6148  -14.9827   22.5951 O   0  0  0  0  0  0  0  0  0  0  0  0
    8.0499  -13.2785   16.7077 O   0  0  0  0  0  0  0  0  0  0  0  0
    7.4627  -17.8591   24.9824 C   0  0  0  0  0  0  0  0  0  0  0  0
    7.2840  -16.5376   24.6710 C   0  0  1  0  0  0  0  0  0  0  0  0
    8.6001  -15.9116   24.2340 N   0  0  0  0  0  0  0  0  0  0  0  0
    9.0883  -16.6747   23.0838 C   0  0  0  0  0  0  0  0  0  0  0  0
    9.5755  -15.9815   25.3484 O   0  0  0  0  0  0  0  0  0  0  0  0
   10.6000  -16.7139   25.2972 N   0  0  0  0  0  0  0  0  0  0  0  0
    9.3776  -15.2175   26.5100 C   0  0  1  0  0  0  0  0  0  0  0  0
   10.3077  -15.3482   27.6214 C   0  0  0  0  0  0  0  0  0  0  0  0
    9.9609  -14.2732   28.6453 S   0  0  0  0  0  0  0  0  0  0  0  0
   11.0802  -14.3062   30.0462 C   0  0  0  0  0  0  0  0  0  0  0  0
   10.1959  -16.6845   28.2522 O   0  0  0  0  0  0  0  0  0  0  0  0
   11.3346  -17.2458   28.8071 O   0  0  0  0  0  0  0  0  0  0  0  0
  2  3  2  0
  2  1  1  0
  4  2  1  0
  5  4  1  0
  6  5  1  0
  7  6  1  0
  7  8  1  0
  8  9  1  6
  8 10  1  0
 10 15  1  0
 11 10  2  0
 13 12  1  0
 14 16  1  0
 14 13  1  6
 15 14  1  0
 16 17  2  0
 18 16  1  0
 18 19  1  0
 19 20  1  1
 20 21  1  0
 22 23  1  0
 22 19  1  0
 24 22  2  0
M  END
$$$$
