RSC.pdb
     RDKit          3D

 24 23  0  0  1  0  0  0  0  0999 V2000
    9.2670  -14.3723   14.9734 N   0  0  0  0  0  0  0  0  0  0  0  0
    8.3694  -14.1001   16.0151 C   0  0  0  0  0  0  0  0  0  0  0  0
    7.9484  -12.8986   16.1910 N   0  0  0  0  0  0  0  0  0  0  0  0
    7.9293  -15.1450   16.8685 N   0  0  0  0  0  0  0  0  0  0  0  0
    8.2550  -15.1511   18.2783 C   0  0  0  0  0  0  0  0  0  0  0  0
    7.3088  -14.2195   19.0337 C   0  0  0  0  0  0  0  0  0  0  0  0
    7.6947  -14.2453   20.5058 C   0  0  0  0  0  0  0  0  0  0  0  0
    7.6268  -15.7051   20.9563 C   0  0  2  0  0  0  0  0  0  0  0  0
    6.5536  -16.3616   20.2344 N   0  0  0  0  0  0  0  0  0  0  0  0
    7.3949  -15.6826   22.4096 C   0  0  0  0  0  0  0  0  0  0  0  0
    6.5308  -14.8888   22.8554 O   0  0  0  0  0  0  0  0  0  0  0  0
    7.3538  -12.6507   17.0092 O   0  0  0  0  0  0  0  0  0  0  0  0
    8.9225  -18.5530   24.9045 C   0  0  0  0  0  0  0  0  0  0  0  0
    7.8150  -17.8317   25.2629 C   0  0  1  0  0  0  0  0  0  0  0  0
    7.8949  -16.4201   24.7005 N   0  0  0  0  0  0  0  0  0  0  0  0
    8.1307  -16.5345   23.2601 C   0  0  0  0  0  0  0  0  0  0  0  0
    9.0123  -15.6920   25.3480 O   0  0  0  0  0  0  0  0  0  0  0  0
   10.1634  -15.6398   24.8369 N   0  0  0  0  0  0  0  0  0  0  0  0
    8.8107  -15.0293   26.5695 C   0  0  1  0  0  0  0  0  0  0  0  0
    9.9445  -14.4269   27.2543 C   0  0  0  0  0  0  0  0  0  0  0  0
    9.4894  -13.0827   27.8112 S   0  0  0  0  0  0  0  0  0  0  0  0
    8.3783  -12.2397   26.6837 C   0  0  0  0  0  0  0  0  0  0  0  0
   10.4116  -15.2885   28.3658 O   0  0  0  0  0  0  0  0  0  0  0  0
   11.5334  -14.8930   29.0762 O   0  0  0  0  0  0  0  0  0  0  0  0
  2  3  2  0
  2  1  1  0
  4  2  1  0
  5  4  1  0
  6  5  1  0
  7  6  1  0
  7  8  1  0
  8  9  1  6
  8 10  1  0
 10 15  1  0
 11 10  2  0
 13 12  1  0
 14 16  1  0
 14 13  1  6
 15 14  1  0
 16 17  2  0
 18 16  1  0
 18 19  1  0
 19 20  1  1
 20 21  1  0
 22 23  1  0
 22 19  1  0
 24 22  2  0
M  END
$$$$
