VRC.pdb
     RDKit          3D

 25 24  0  0  1  0  0  0  0  0999 V2000
    7.6888  -13.2253   20.7321 C   0  0  0  0  0  0  0  0  0  0  0  0
    8.4691  -13.2322   19.4709 C   0  0  2  0  0  0  0  0  0  0  0  0
    7.7807  -12.2834   18.5020 C   0  0  0  0  0  0  0  0  0  0  0  0
    8.7742  -14.5522   18.8632 C   0  0  2  0  0  0  0  0  0  0  0  0
    7.4546  -15.0784   18.4247 N   0  0  0  0  0  0  0  0  0  0  0  0
    9.3909  -15.5543   19.7291 C   0  0  0  0  0  0  0  0  0  0  0  0
    8.6494  -16.2879   20.4741 O   0  0  0  0  0  0  0  0  0  0  0  0
   11.5555  -19.6522   16.9578 N   0  0  0  0  0  0  0  0  0  0  0  0
   12.6812  -20.4149   17.3948 C   0  0  0  0  0  0  0  0  0  0  0  0
   12.6576  -21.6877   17.2631 N   0  0  0  0  0  0  0  0  0  0  0  0
   13.8219  -19.7968   17.9693 N   0  0  0  0  0  0  0  0  0  0  0  0
   13.8047  -18.3621   18.2805 C   0  0  0  0  0  0  0  0  0  0  0  0
   12.4524  -18.0164   18.9072 C   0  0  0  0  0  0  0  0  0  0  0  0
   12.6284  -17.3579   20.2373 C   0  0  0  0  0  0  0  0  0  0  0  0
   11.3161  -16.8345   20.7824 C   0  0  2  0  0  0  0  0  0  0  0  0
   10.7783  -15.8244   19.8443 N   0  0  0  0  0  0  0  0  0  0  0  0
   11.3807  -16.3027   22.1397 C   0  0  0  0  0  0  0  0  0  0  0  0
   12.1031  -15.3261   22.4433 O   0  0  0  0  0  0  0  0  0  0  0  0
   13.4346  -22.3105   17.5784 N   0  0  0  0  0  0  0  0  0  0  0  0
   10.6214  -16.8640   23.2112 C   0  0  2  0  0  0  0  0  0  0  0  0
   10.7279  -16.3734   24.5673 C   0  0  0  0  0  0  0  0  0  0  0  0
    9.5022  -15.5673   24.9612 S   0  0  0  0  0  0  0  0  0  0  0  0
    8.0047  -16.5723   24.9444 C   0  0  0  0  0  0  0  0  0  0  0  0
   10.9768  -17.4733   25.5315 O   0  0  0  0  0  0  0  0  0  0  0  0
   10.8506  -18.6819   25.2166 O   0  0  0  0  0  0  0  0  0  0  0  0
  2  1  1  1
  2  3  1  0
  4  2  1  0
  4  5  1  1
  6  4  1  0
  6 16  1  0
  7  6  2  0
  9  8  1  0
 10  9  2  0
 11  9  1  0
 12 11  1  0
 13 12  1  0
 13 14  1  0
 15 16  1  0
 15 14  1  6
 17 15  1  0
 18 17  2  0
 19 17  1  0
 20 19  1  0
 20 21  1  6
 22 21  1  0
 23 20  1  0
 23 25  1  0
 24 23  2  0
M  END
$$$$
