VRC.pdb
     RDKit          3D

 25 24  0  0  1  0  0  0  0  0999 V2000
    7.5898  -12.9601   20.9711 C   0  0  0  0  0  0  0  0  0  0  0  0
    8.1448  -13.0883   19.6017 C   0  0  2  0  0  0  0  0  0  0  0  0
    7.4686  -12.0381   18.7341 C   0  0  0  0  0  0  0  0  0  0  0  0
    8.1336  -14.4382   18.9834 C   0  0  2  0  0  0  0  0  0  0  0  0
    6.6930  -14.7876   18.8688 N   0  0  0  0  0  0  0  0  0  0  0  0
    8.7976  -15.5108   19.7204 C   0  0  0  0  0  0  0  0  0  0  0  0
    8.1410  -16.1739   20.5992 O   0  0  0  0  0  0  0  0  0  0  0  0
   14.9372  -20.8389   19.5177 N   0  0  0  0  0  0  0  0  0  0  0  0
   14.0229  -21.5938   20.3139 C   0  0  0  0  0  0  0  0  0  0  0  0
   14.4462  -22.6342   20.9273 N   0  0  0  0  0  0  0  0  0  0  0  0
   12.6603  -21.2186   20.4408 N   0  0  0  0  0  0  0  0  0  0  0  0
   12.1197  -20.1201   19.6308 C   0  0  0  0  0  0  0  0  0  0  0  0
   12.4857  -18.7948   20.3021 C   0  0  0  0  0  0  0  0  0  0  0  0
   11.8750  -17.6384   19.5785 C   0  0  0  0  0  0  0  0  0  0  0  0
   10.7337  -17.0252   20.3626 C   0  0  2  0  0  0  0  0  0  0  0  0
   10.1452  -15.9247   19.5675 N   0  0  0  0  0  0  0  0  0  0  0  0
   11.0823  -16.5700   21.7044 C   0  0  0  0  0  0  0  0  0  0  0  0
   11.5456  -15.4279   21.9255 O   0  0  0  0  0  0  0  0  0  0  0  0
   13.8336  -23.2393   21.5185 N   0  0  0  0  0  0  0  0  0  0  0  0
   10.9163  -17.4006   22.8542 C   0  0  2  0  0  0  0  0  0  0  0  0
   11.3208  -16.9735   24.1751 C   0  0  0  0  0  0  0  0  0  0  0  0
   10.2582  -16.1037   24.8244 S   0  0  0  0  0  0  0  0  0  0  0  0
    8.6693  -16.9509   24.9278 C   0  0  0  0  0  0  0  0  0  0  0  0
   11.6713  -18.1256   25.0417 O   0  0  0  0  0  0  0  0  0  0  0  0
   12.1901  -17.9782   26.1754 O   0  0  0  0  0  0  0  0  0  0  0  0
  2  1  1  1
  2  3  1  0
  4  2  1  0
  4  5  1  1
  6  4  1  0
  6 16  1  0
  7  6  2  0
  9  8  1  0
 10  9  2  0
 11  9  1  0
 12 11  1  0
 13 12  1  0
 13 14  1  0
 15 16  1  0
 15 14  1  6
 17 15  1  0
 18 17  2  0
 19 17  1  0
 20 19  1  0
 20 21  1  6
 22 21  1  0
 23 20  1  0
 23 25  1  0
 24 23  2  0
M  END
$$$$
