VRC.pdb
     RDKit          3D

 25 24  0  0  1  0  0  0  0  0999 V2000
    7.2809  -11.2023   26.0700 C   0  0  0  0  0  0  0  0  0  0  0  0
    6.5257  -12.2911   26.7362 C   0  0  2  0  0  0  0  0  0  0  0  0
    7.4931  -13.0245   27.6522 C   0  0  0  0  0  0  0  0  0  0  0  0
    5.7455  -13.2107   25.8700 C   0  0  2  0  0  0  0  0  0  0  0  0
    5.1130  -14.1700   26.8136 N   0  0  0  0  0  0  0  0  0  0  0  0
    6.4924  -13.9827   24.8798 C   0  0  0  0  0  0  0  0  0  0  0  0
    7.1092  -15.0463   25.2421 O   0  0  0  0  0  0  0  0  0  0  0  0
    8.0323  -13.3819   15.9766 N   0  0  0  0  0  0  0  0  0  0  0  0
    8.8564  -14.4210   16.5066 C   0  0  0  0  0  0  0  0  0  0  0  0
    9.6389  -15.0561   15.7178 N   0  0  0  0  0  0  0  0  0  0  0  0
    8.8285  -14.7647   17.8830 N   0  0  0  0  0  0  0  0  0  0  0  0
    7.7864  -14.2152   18.7591 C   0  0  0  0  0  0  0  0  0  0  0  0
    7.9905  -14.7751   20.1683 C   0  0  0  0  0  0  0  0  0  0  0  0
    7.3839  -13.8767   21.1973 C   0  0  0  0  0  0  0  0  0  0  0  0
    7.4611  -14.4796   22.5843 C   0  0  2  0  0  0  0  0  0  0  0  0
    6.6177  -13.6799   23.5001 N   0  0  0  0  0  0  0  0  0  0  0  0
    8.8112  -14.6297   23.1168 C   0  0  0  0  0  0  0  0  0  0  0  0
    9.3372  -13.7716   23.8617 O   0  0  0  0  0  0  0  0  0  0  0  0
   10.2268  -15.8639   16.0224 N   0  0  0  0  0  0  0  0  0  0  0  0
    9.6208  -15.7686   22.8217 C   0  0  1  0  0  0  0  0  0  0  0  0
   10.7869  -16.1065   23.6073 C   0  0  0  0  0  0  0  0  0  0  0  0
   10.3968  -16.7504   24.9266 S   0  0  0  0  0  0  0  0  0  0  0  0
   10.1182  -15.5210   26.2164 C   0  0  0  0  0  0  0  0  0  0  0  0
   11.7288  -16.9671   22.8502 O   0  0  0  0  0  0  0  0  0  0  0  0
   11.4548  -17.4216   21.7125 O   0  0  0  0  0  0  0  0  0  0  0  0
  2  1  1  6
  2  3  1  0
  4  2  1  0
  4  5  1  1
  6  4  1  0
  6 16  1  0
  7  6  2  0
  9  8  1  0
 10  9  2  0
 11  9  1  0
 12 11  1  0
 13 12  1  0
 13 14  1  0
 15 16  1  0
 15 14  1  6
 17 15  1  0
 18 17  2  0
 19 17  1  0
 20 19  1  0
 20 21  1  1
 22 21  1  0
 23 20  1  0
 23 25  1  0
 24 23  2  0
M  END
$$$$
