VRC.pdb
     RDKit          3D

 25 24  0  0  1  0  0  0  0  0999 V2000
    7.7019  -12.0034   19.6532 C   0  0  0  0  0  0  0  0  0  0  0  0
    8.0978  -13.4103   19.4017 C   0  0  2  0  0  0  0  0  0  0  0  0
    6.8248  -14.2082   19.1652 C   0  0  0  0  0  0  0  0  0  0  0  0
    9.0033  -14.0522   20.3879 C   0  0  2  0  0  0  0  0  0  0  0  0
    9.4651  -15.2976   19.7195 N   0  0  0  0  0  0  0  0  0  0  0  0
    8.4241  -14.4236   21.6766 C   0  0  0  0  0  0  0  0  0  0  0  0
    7.9753  -13.5091   22.4546 O   0  0  0  0  0  0  0  0  0  0  0  0
   11.6149  -19.1951   24.9425 N   0  0  0  0  0  0  0  0  0  0  0  0
   11.5681  -19.9121   23.7082 C   0  0  0  0  0  0  0  0  0  0  0  0
   12.6622  -20.3254   23.1883 N   0  0  0  0  0  0  0  0  0  0  0  0
   10.3410  -20.1767   23.0466 N   0  0  0  0  0  0  0  0  0  0  0  0
    9.0858  -19.6275   23.5741 C   0  0  0  0  0  0  0  0  0  0  0  0
    9.0488  -18.1270   23.2775 C   0  0  0  0  0  0  0  0  0  0  0  0
    7.7843  -17.5099   23.7817 C   0  0  0  0  0  0  0  0  0  0  0  0
    7.7538  -16.0154   23.5399 C   0  0  2  0  0  0  0  0  0  0  0  0
    8.2919  -15.7391   22.1894 N   0  0  0  0  0  0  0  0  0  0  0  0
    8.4396  -15.2138   24.5480 C   0  0  0  0  0  0  0  0  0  0  0  0
    9.6753  -15.0143   24.5190 O   0  0  0  0  0  0  0  0  0  0  0  0
   12.7070  -20.8338   22.2770 N   0  0  0  0  0  0  0  0  0  0  0  0
    7.7424  -14.6036   25.6350 C   0  0  1  0  0  0  0  0  0  0  0  0
    8.4066  -13.7384   26.5844 C   0  0  0  0  0  0  0  0  0  0  0  0
    7.4613  -12.6768   27.1199 S   0  0  0  0  0  0  0  0  0  0  0  0
    6.1520  -12.2888   25.9418 C   0  0  0  0  0  0  0  0  0  0  0  0
    9.0262  -14.5093   27.6902 O   0  0  0  0  0  0  0  0  0  0  0  0
    8.8861  -15.7519   27.8017 O   0  0  0  0  0  0  0  0  0  0  0  0
  2  1  1  1
  2  3  1  0
  4  2  1  0
  4  5  1  6
  6  4  1  0
  6 16  1  0
  7  6  2  0
  9  8  1  0
 10  9  2  0
 11  9  1  0
 12 11  1  0
 13 12  1  0
 13 14  1  0
 15 16  1  0
 15 14  1  1
 17 15  1  0
 18 17  2  0
 19 17  1  0
 20 19  1  0
 20 21  1  1
 22 21  1  0
 23 20  1  0
 23 25  1  0
 24 23  2  0
M  END
$$$$
