VRC.pdb
     RDKit          3D

 25 24  0  0  1  0  0  0  0  0999 V2000
    7.1881  -12.2030   18.7354 C   0  0  0  0  0  0  0  0  0  0  0  0
    8.1795  -13.1690   19.2678 C   0  0  2  0  0  0  0  0  0  0  0  0
    9.1227  -12.4003   20.1801 C   0  0  0  0  0  0  0  0  0  0  0  0
    8.8972  -14.0222   18.2871 C   0  0  2  0  0  0  0  0  0  0  0  0
    7.8214  -14.7502   17.5636 N   0  0  0  0  0  0  0  0  0  0  0  0
    9.8257  -15.0136   18.8248 C   0  0  0  0  0  0  0  0  0  0  0  0
    9.3663  -16.0573   19.4103 O   0  0  0  0  0  0  0  0  0  0  0  0
   14.5169  -16.1771   14.1914 N   0  0  0  0  0  0  0  0  0  0  0  0
   13.2966  -16.8961   14.3751 C   0  0  0  0  0  0  0  0  0  0  0  0
   12.2604  -16.5396   13.7138 N   0  0  0  0  0  0  0  0  0  0  0  0
   13.2060  -17.9931   15.2705 N   0  0  0  0  0  0  0  0  0  0  0  0
   13.4759  -17.8014   16.7008 C   0  0  0  0  0  0  0  0  0  0  0  0
   13.0876  -16.3714   17.0818 C   0  0  0  0  0  0  0  0  0  0  0  0
   13.3751  -16.1017   18.5234 C   0  0  0  0  0  0  0  0  0  0  0  0
   12.1042  -16.0116   19.3419 C   0  0  2  0  0  0  0  0  0  0  0  0
   11.2415  -14.9545   18.7694 N   0  0  0  0  0  0  0  0  0  0  0  0
   12.3055  -15.8022   20.7718 C   0  0  0  0  0  0  0  0  0  0  0  0
   12.8205  -14.7570   21.2303 O   0  0  0  0  0  0  0  0  0  0  0  0
   11.3296  -17.0028   13.8143 N   0  0  0  0  0  0  0  0  0  0  0  0
   11.9264  -16.7790   21.7423 C   0  0  1  0  0  0  0  0  0  0  0  0
   12.1592  -16.5873   23.1565 C   0  0  0  0  0  0  0  0  0  0  0  0
   10.9164  -16.9065   23.9695 S   0  0  0  0  0  0  0  0  0  0  0  0
   11.2252  -16.7848   25.7423 C   0  0  0  0  0  0  0  0  0  0  0  0
   13.3254  -17.3712   23.6325 O   0  0  0  0  0  0  0  0  0  0  0  0
   13.4930  -18.5768   23.3253 O   0  0  0  0  0  0  0  0  0  0  0  0
  2  1  1  6
  2  3  1  0
  4  2  1  0
  4  5  1  1
  6  4  1  0
  6 16  1  0
  7  6  2  0
  9  8  1  0
 10  9  2  0
 11  9  1  0
 12 11  1  0
 13 12  1  0
 13 14  1  0
 15 16  1  0
 15 14  1  6
 17 15  1  0
 18 17  2  0
 19 17  1  0
 20 19  1  0
 20 21  1  6
 22 21  1  0
 23 20  1  0
 23 25  1  0
 24 23  2  0
M  END
$$$$
