VRC.pdb
     RDKit          3D

 25 24  0  0  1  0  0  0  0  0999 V2000
    7.3061  -12.9689   20.6364 C   0  0  0  0  0  0  0  0  0  0  0  0
    8.3031  -13.1516   19.5538 C   0  0  2  0  0  0  0  0  0  0  0  0
    7.8151  -12.3671   18.3457 C   0  0  0  0  0  0  0  0  0  0  0  0
    8.6967  -14.5426   19.2147 C   0  0  2  0  0  0  0  0  0  0  0  0
    7.4681  -15.1518   18.6403 N   0  0  0  0  0  0  0  0  0  0  0  0
    9.1455  -15.3919   20.3155 C   0  0  0  0  0  0  0  0  0  0  0  0
    8.2835  -16.0564   20.9926 O   0  0  0  0  0  0  0  0  0  0  0  0
   14.3283  -20.4682   19.4024 N   0  0  0  0  0  0  0  0  0  0  0  0
   13.0070  -20.8904   19.7426 C   0  0  0  0  0  0  0  0  0  0  0  0
   12.2701  -21.4140   18.8366 N   0  0  0  0  0  0  0  0  0  0  0  0
   12.4935  -20.7438   21.0572 N   0  0  0  0  0  0  0  0  0  0  0  0
   12.6721  -19.4794   21.7816 C   0  0  0  0  0  0  0  0  0  0  0  0
   12.1788  -18.3358   20.8929 C   0  0  0  0  0  0  0  0  0  0  0  0
   12.2318  -17.0298   21.6178 C   0  0  0  0  0  0  0  0  0  0  0  0
   10.8473  -16.4683   21.8646 C   0  0  2  0  0  0  0  0  0  0  0  0
   10.4858  -15.5775   20.7397 N   0  0  0  0  0  0  0  0  0  0  0  0
   10.6773  -15.7873   23.1439 C   0  0  0  0  0  0  0  0  0  0  0  0
   11.0663  -14.6126   23.3348 O   0  0  0  0  0  0  0  0  0  0  0  0
   11.2790  -21.7007   18.9996 N   0  0  0  0  0  0  0  0  0  0  0  0
   10.0542  -16.4194   24.2628 C   0  0  2  0  0  0  0  0  0  0  0  0
    9.8081  -15.7173   25.5027 C   0  0  0  0  0  0  0  0  0  0  0  0
    8.3931  -15.1674   25.5550 S   0  0  0  0  0  0  0  0  0  0  0  0
    8.0998  -14.2126   27.0568 C   0  0  0  0  0  0  0  0  0  0  0  0
   10.0943  -16.5697   26.6828 O   0  0  0  0  0  0  0  0  0  0  0  0
   10.2273  -17.8148   26.5939 O   0  0  0  0  0  0  0  0  0  0  0  0
  2  1  1  1
  2  3  1  0
  4  2  1  0
  4  5  1  1
  6  4  1  0
  6 16  1  0
  7  6  2  0
  9  8  1  0
 10  9  2  0
 11  9  1  0
 12 11  1  0
 13 12  1  0
 13 14  1  0
 15 16  1  0
 15 14  1  6
 17 15  1  0
 18 17  2  0
 19 17  1  0
 20 19  1  0
 20 21  1  6
 22 21  1  0
 23 20  1  0
 23 25  1  0
 24 23  2  0
M  END
$$$$
