VRC.pdb
     RDKit          3D

 25 24  0  0  1  0  0  0  0  0999 V2000
    5.9032  -21.2122   22.1301 C   0  0  0  0  0  0  0  0  0  0  0  0
    6.8288  -20.0612   22.2638 C   0  0  2  0  0  0  0  0  0  0  0  0
    6.8166  -19.6315   23.7226 C   0  0  0  0  0  0  0  0  0  0  0  0
    6.6438  -18.9232   21.3282 C   0  0  2  0  0  0  0  0  0  0  0  0
    6.8276  -19.5141   19.9762 N   0  0  0  0  0  0  0  0  0  0  0  0
    7.5708  -17.8014   21.4567 C   0  0  0  0  0  0  0  0  0  0  0  0
    8.8069  -17.9660   21.1599 O   0  0  0  0  0  0  0  0  0  0  0  0
    8.5584  -15.2769   17.4586 N   0  0  0  0  0  0  0  0  0  0  0  0
    7.9841  -13.9993   17.1800 C   0  0  0  0  0  0  0  0  0  0  0  0
    7.6727  -13.7084   15.9732 N   0  0  0  0  0  0  0  0  0  0  0  0
    7.7508  -13.0478   18.2064 N   0  0  0  0  0  0  0  0  0  0  0  0
    8.2519  -13.2910   19.5648 C   0  0  0  0  0  0  0  0  0  0  0  0
    7.1008  -13.8254   20.4195 C   0  0  0  0  0  0  0  0  0  0  0  0
    7.5447  -14.0744   21.8248 C   0  0  0  0  0  0  0  0  0  0  0  0
    8.2516  -15.4065   21.9624 C   0  0  2  0  0  0  0  0  0  0  0  0
    7.2467  -16.4901   21.8887 N   0  0  0  0  0  0  0  0  0  0  0  0
    9.0800  -15.5444   23.1557 C   0  0  0  0  0  0  0  0  0  0  0  0
    8.6185  -15.4072   24.3115 O   0  0  0  0  0  0  0  0  0  0  0  0
    7.3678  -12.7552   15.6744 N   0  0  0  0  0  0  0  0  0  0  0  0
   10.4740  -15.8459   23.0807 C   0  0  1  0  0  0  0  0  0  0  0  0
   11.2556  -16.1622   24.2554 C   0  0  0  0  0  0  0  0  0  0  0  0
   10.6964  -17.3733   24.9818 S   0  0  0  0  0  0  0  0  0  0  0  0
   11.0582  -17.3222   26.7480 C   0  0  0  0  0  0  0  0  0  0  0  0
   12.6899  -16.3514   23.9264 O   0  0  0  0  0  0  0  0  0  0  0  0
   13.1037  -16.4113   22.7427 O   0  0  0  0  0  0  0  0  0  0  0  0
  2  1  1  1
  2  3  1  0
  4  2  1  0
  4  5  1  6
  6  4  1  0
  6 16  1  0
  7  6  2  0
  9  8  1  0
 10  9  2  0
 11  9  1  0
 12 11  1  0
 13 12  1  0
 13 14  1  0
 15 16  1  0
 15 14  1  1
 17 15  1  0
 18 17  2  0
 19 17  1  0
 20 19  1  0
 20 21  1  1
 22 21  1  0
 23 20  1  0
 23 25  1  0
 24 23  2  0
M  END
$$$$
