VRC.pdb
     RDKit          3D

 25 24  0  0  1  0  0  0  0  0999 V2000
    8.3314  -13.1993   18.0985 C   0  0  0  0  0  0  0  0  0  0  0  0
    7.8948  -13.5197   19.4792 C   0  0  2  0  0  0  0  0  0  0  0  0
    8.5103  -12.4826   20.4057 C   0  0  0  0  0  0  0  0  0  0  0  0
    8.1013  -14.9107   19.9558 C   0  0  2  0  0  0  0  0  0  0  0  0
    7.3714  -15.7567   18.9749 N   0  0  0  0  0  0  0  0  0  0  0  0
    7.6001  -15.2363   21.2889 C   0  0  0  0  0  0  0  0  0  0  0  0
    6.3380  -15.3587   21.4768 O   0  0  0  0  0  0  0  0  0  0  0  0
    7.7534  -21.9657   26.4893 N   0  0  0  0  0  0  0  0  0  0  0  0
    7.1707  -20.9341   27.2867 C   0  0  0  0  0  0  0  0  0  0  0  0
    6.6756  -21.2361   28.4276 N   0  0  0  0  0  0  0  0  0  0  0  0
    7.1282  -19.5861   26.8457 N   0  0  0  0  0  0  0  0  0  0  0  0
    7.5804  -19.2385   25.4929 C   0  0  0  0  0  0  0  0  0  0  0  0
    7.4220  -17.7290   25.2999 C   0  0  0  0  0  0  0  0  0  0  0  0
    7.9229  -17.3026   23.9578 C   0  0  0  0  0  0  0  0  0  0  0  0
    7.7878  -15.8077   23.7573 C   0  0  2  0  0  0  0  0  0  0  0  0
    8.3836  -15.4453   22.4522 N   0  0  0  0  0  0  0  0  0  0  0  0
    8.3444  -14.9893   24.8294 C   0  0  0  0  0  0  0  0  0  0  0  0
    9.5763  -14.9032   25.0365 O   0  0  0  0  0  0  0  0  0  0  0  0
    6.2485  -20.5327   29.0709 N   0  0  0  0  0  0  0  0  0  0  0  0
    7.5168  -14.2317   25.7131 C   0  0  2  0  0  0  0  0  0  0  0  0
    8.0664  -13.4454   26.7951 C   0  0  0  0  0  0  0  0  0  0  0  0
    7.0060  -12.5636   27.4316 S   0  0  0  0  0  0  0  0  0  0  0  0
    5.8126  -11.9674   26.2177 C   0  0  0  0  0  0  0  0  0  0  0  0
    8.7326  -14.2979   27.8103 O   0  0  0  0  0  0  0  0  0  0  0  0
    8.7418  -15.5508   27.7317 O   0  0  0  0  0  0  0  0  0  0  0  0
  2  1  1  6
  2  3  1  0
  4  2  1  0
  4  5  1  6
  6  4  1  0
  6 16  1  0
  7  6  2  0
  9  8  1  0
 10  9  2  0
 11  9  1  0
 12 11  1  0
 13 12  1  0
 13 14  1  0
 15 16  1  0
 15 14  1  1
 17 15  1  0
 18 17  2  0
 19 17  1  0
 20 19  1  0
 20 21  1  6
 22 21  1  0
 23 20  1  0
 23 25  1  0
 24 23  2  0
M  END
$$$$
