VRC.pdb
     RDKit          3D

 25 24  0  0  1  0  0  0  0  0999 V2000
   10.4086  -21.9413   18.6979 C   0  0  0  0  0  0  0  0  0  0  0  0
   11.2345  -20.9418   17.9779 C   0  0  2  0  0  0  0  0  0  0  0  0
   12.6666  -21.0948   18.4662 C   0  0  0  0  0  0  0  0  0  0  0  0
   10.7695  -19.5317   17.9942 C   0  0  2  0  0  0  0  0  0  0  0  0
   11.6648  -18.8293   17.0373 N   0  0  0  0  0  0  0  0  0  0  0  0
   10.8369  -18.8259   19.2716 C   0  0  0  0  0  0  0  0  0  0  0  0
   11.9800  -18.5263   19.7683 O   0  0  0  0  0  0  0  0  0  0  0  0
    7.7869  -11.8145   19.1023 N   0  0  0  0  0  0  0  0  0  0  0  0
    7.8546  -12.9004   20.0275 C   0  0  0  0  0  0  0  0  0  0  0  0
    8.8020  -12.9250   20.8876 N   0  0  0  0  0  0  0  0  0  0  0  0
    6.8991  -13.9493   20.0161 N   0  0  0  0  0  0  0  0  0  0  0  0
    7.0378  -15.0828   20.9388 C   0  0  0  0  0  0  0  0  0  0  0  0
    8.4224  -15.7035   20.7422 C   0  0  0  0  0  0  0  0  0  0  0  0
    8.5983  -16.9108   21.6055 C   0  0  0  0  0  0  0  0  0  0  0  0
    9.8969  -17.6301   21.3065 C   0  0  2  0  0  0  0  0  0  0  0  0
    9.7339  -18.4120   20.0609 N   0  0  0  0  0  0  0  0  0  0  0  0
   10.3986  -18.4715   22.3880 C   0  0  0  0  0  0  0  0  0  0  0  0
    9.8621  -19.5607   22.6938 O   0  0  0  0  0  0  0  0  0  0  0  0
    8.8794  -13.6520   21.6335 N   0  0  0  0  0  0  0  0  0  0  0  0
   11.5371  -18.1050   23.1684 C   0  0  2  0  0  0  0  0  0  0  0  0
   11.9896  -18.9011   24.2876 C   0  0  0  0  0  0  0  0  0  0  0  0
   13.3496  -18.4383   24.7811 S   0  0  0  0  0  0  0  0  0  0  0  0
   13.9018  -19.3865   26.2125 C   0  0  0  0  0  0  0  0  0  0  0  0
   10.9967  -18.9133   25.3900 O   0  0  0  0  0  0  0  0  0  0  0  0
   10.2582  -17.9289   25.6378 O   0  0  0  0  0  0  0  0  0  0  0  0
  2  1  1  1
  2  3  1  0
  4  2  1  0
  4  5  1  6
  6  4  1  0
  6 16  1  0
  7  6  2  0
  9  8  1  0
 10  9  2  0
 11  9  1  0
 12 11  1  0
 13 12  1  0
 13 14  1  0
 15 16  1  0
 15 14  1  1
 17 15  1  0
 18 17  2  0
 19 17  1  0
 20 19  1  0
 20 21  1  6
 22 21  1  0
 23 20  1  0
 23 25  1  0
 24 23  2  0
M  END
$$$$
