VRC.pdb
     RDKit          3D

 25 24  0  0  1  0  0  0  0  0999 V2000
    8.2515  -13.5331   17.9095 C   0  0  0  0  0  0  0  0  0  0  0  0
    8.0027  -13.9339   19.3156 C   0  0  2  0  0  0  0  0  0  0  0  0
    8.5790  -12.8469   20.2096 C   0  0  0  0  0  0  0  0  0  0  0  0
    8.4266  -15.2974   19.7228 C   0  0  2  0  0  0  0  0  0  0  0  0
    7.6409  -16.2113   18.8520 N   0  0  0  0  0  0  0  0  0  0  0  0
    8.1821  -15.6810   21.1111 C   0  0  0  0  0  0  0  0  0  0  0  0
    6.9821  -15.9035   21.5032 O   0  0  0  0  0  0  0  0  0  0  0  0
   10.5089  -17.2928   29.5067 N   0  0  0  0  0  0  0  0  0  0  0  0
   11.1262  -17.8358   28.3388 C   0  0  0  0  0  0  0  0  0  0  0  0
   12.3500  -17.5519   28.0945 N   0  0  0  0  0  0  0  0  0  0  0  0
   10.4171  -18.6802   27.4458 N   0  0  0  0  0  0  0  0  0  0  0  0
   10.5891  -18.5295   25.9956 C   0  0  0  0  0  0  0  0  0  0  0  0
    9.6242  -17.4500   25.5008 C   0  0  0  0  0  0  0  0  0  0  0  0
    9.7671  -17.2344   24.0288 C   0  0  0  0  0  0  0  0  0  0  0  0
    8.8150  -16.1713   23.5223 C   0  0  2  0  0  0  0  0  0  0  0  0
    9.1634  -15.8465   22.1214 N   0  0  0  0  0  0  0  0  0  0  0  0
    8.7511  -14.9624   24.3370 C   0  0  0  0  0  0  0  0  0  0  0  0
    9.7253  -14.1858   24.4617 O   0  0  0  0  0  0  0  0  0  0  0  0
   12.8596  -17.8946   27.2496 N   0  0  0  0  0  0  0  0  0  0  0  0
    7.5694  -14.5869   25.0458 C   0  0  2  0  0  0  0  0  0  0  0  0
    7.5087  -13.3934   25.8599 C   0  0  0  0  0  0  0  0  0  0  0  0
    6.0987  -12.8309   25.9118 S   0  0  0  0  0  0  0  0  0  0  0  0
    5.9907  -11.3902   26.9914 C   0  0  0  0  0  0  0  0  0  0  0  0
    8.0397  -13.6317   27.2246 O   0  0  0  0  0  0  0  0  0  0  0  0
    8.4889  -12.7035   27.9405 O   0  0  0  0  0  0  0  0  0  0  0  0
  2  1  1  6
  2  3  1  0
  4  2  1  0
  4  5  1  6
  6  4  1  0
  6 16  1  0
  7  6  2  0
  9  8  1  0
 10  9  2  0
 11  9  1  0
 12 11  1  0
 13 12  1  0
 13 14  1  0
 15 16  1  0
 15 14  1  1
 17 15  1  0
 18 17  2  0
 19 17  1  0
 20 19  1  0
 20 21  1  1
 22 21  1  0
 23 20  1  0
 23 25  1  0
 24 23  2  0
M  END
$$$$
