VRC.pdb
     RDKit          3D

 25 24  0  0  1  0  0  0  0  0999 V2000
    6.5009  -20.6610   26.1210 C   0  0  0  0  0  0  0  0  0  0  0  0
    7.2290  -19.4035   25.8239 C   0  0  2  0  0  0  0  0  0  0  0  0
    7.1355  -18.5187   27.0574 C   0  0  0  0  0  0  0  0  0  0  0  0
    6.8721  -18.6860   24.5739 C   0  0  2  0  0  0  0  0  0  0  0  0
    7.0308  -19.7012   23.4992 N   0  0  0  0  0  0  0  0  0  0  0  0
    7.6868  -17.5266   24.2189 C   0  0  0  0  0  0  0  0  0  0  0  0
    8.9354  -17.6828   23.9742 O   0  0  0  0  0  0  0  0  0  0  0  0
    7.4515  -12.5940   19.4390 N   0  0  0  0  0  0  0  0  0  0  0  0
    8.3295  -13.7145   19.3231 C   0  0  0  0  0  0  0  0  0  0  0  0
    8.8512  -13.9794   18.1849 N   0  0  0  0  0  0  0  0  0  0  0  0
    8.6364  -14.5384   20.4368 N   0  0  0  0  0  0  0  0  0  0  0  0
    7.6180  -15.4396   20.9900 C   0  0  0  0  0  0  0  0  0  0  0  0
    6.6836  -14.6253   21.8872 C   0  0  0  0  0  0  0  0  0  0  0  0
    7.4312  -14.0125   23.0272 C   0  0  0  0  0  0  0  0  0  0  0  0
    8.1565  -15.0573   23.8490 C   0  0  2  0  0  0  0  0  0  0  0  0
    7.2358  -16.1869   24.1053 N   0  0  0  0  0  0  0  0  0  0  0  0
    8.7389  -14.5671   25.0939 C   0  0  0  0  0  0  0  0  0  0  0  0
    8.3168  -13.5402   25.6727 O   0  0  0  0  0  0  0  0  0  0  0  0
    9.4777  -14.7984   18.0188 N   0  0  0  0  0  0  0  0  0  0  0  0
    9.8305  -15.2299   25.7333 C   0  0  1  0  0  0  0  0  0  0  0  0
   10.4009  -14.7500   26.9724 C   0  0  0  0  0  0  0  0  0  0  0  0
    9.3402  -14.6068   28.0502 S   0  0  0  0  0  0  0  0  0  0  0  0
   10.0423  -14.0353   29.6102 C   0  0  0  0  0  0  0  0  0  0  0  0
   11.5180  -15.6110   27.4327 O   0  0  0  0  0  0  0  0  0  0  0  0
   11.7219  -16.7551   26.9579 O   0  0  0  0  0  0  0  0  0  0  0  0
  2  1  1  1
  2  3  1  0
  4  2  1  0
  4  5  1  6
  6  4  1  0
  6 16  1  0
  7  6  2  0
  9  8  1  0
 10  9  2  0
 11  9  1  0
 12 11  1  0
 13 12  1  0
 13 14  1  0
 15 16  1  0
 15 14  1  1
 17 15  1  0
 18 17  2  0
 19 17  1  0
 20 19  1  0
 20 21  1  6
 22 21  1  0
 23 20  1  0
 23 25  1  0
 24 23  2  0
M  END
$$$$
