MID.pdb
     RDKit          3D

 25 24  0  0  1  0  0  0  0  0999 V2000
   16.3056  -10.6719  -20.5583 C   0  0  0  0  0  0  0  0  0  0  0  0
   16.5777  -12.4512  -20.6285 S   0  0  0  0  0  0  0  0  0  0  0  0
   17.6585  -13.0418  -19.3106 C   0  0  0  0  0  0  0  0  0  0  0  0
   18.0147  -12.0013  -18.3004 C   0  0  0  0  0  0  0  0  0  0  0  0
   19.0198  -12.4434  -17.2694 C   0  0  2  0  0  0  0  0  0  0  0  0
   18.6318  -13.6783  -16.6470 N   0  0  0  0  0  0  0  0  0  0  0  0
   19.3871  -11.3648  -16.3319 C   0  0  0  0  0  0  0  0  0  0  0  0
   18.6401  -11.2242  -15.3336 O   0  0  0  0  0  0  0  0  0  0  0  0
   24.2627  -10.8465  -14.4870 C   0  0  0  0  0  0  0  0  0  0  0  0
   22.7696  -10.8120  -14.7007 C   0  0  0  0  0  0  0  0  0  0  0  0
   22.3472   -9.4664  -15.2896 C   0  0  2  0  0  0  0  0  0  0  0  0
   22.7930   -8.3859  -14.3343 C   0  0  0  0  0  0  0  0  0  0  0  0
   20.8557   -9.4411  -15.5277 C   0  0  2  0  0  0  0  0  0  0  0  0
   20.4933  -10.4985  -16.4749 N   0  0  0  0  0  0  0  0  0  0  0  0
   20.4519   -8.1243  -16.0339 C   0  0  0  0  0  0  0  0  0  0  0  0
   20.9723   -7.7127  -17.1358 O   0  0  0  0  0  0  0  0  0  0  0  0
   19.5383   -7.2237  -15.4608 N   0  0  0  0  0  0  0  0  0  0  0  0
   19.2395   -5.9107  -16.0621 C   0  0  1  0  0  0  0  0  0  0  0  0
   17.7323   -5.7355  -15.7789 C   0  0  0  0  0  0  0  0  0  0  0  0
   17.2730   -4.4071  -16.2055 C   0  0  0  0  0  0  0  0  0  0  0  0
   17.1262   -4.2081  -17.4474 O   0  0  0  0  0  0  0  0  0  0  0  0
   19.9011   -4.8271  -15.2969 C   0  0  0  0  0  0  0  0  0  0  0  0
   20.1190   -3.6184  -15.9315 O   0  0  0  0  0  0  0  0  0  0  0  0
   17.0006   -3.3922  -15.3109 O   0  0  0  0  0  0  0  0  0  0  0  0
   20.2642   -4.9817  -14.0977 O   0  0  0  0  0  0  0  0  0  0  0  0
  2  3  1  0
  2  1  1  0
  4  5  1  0
  4  3  1  0
  5  7  1  0
  5  6  1  1
  7 14  1  0
  8  7  2  0
 10  9  1  0
 11 12  1  1
 11 13  1  0
 11 10  1  0
 13 14  1  6
 15 17  1  0
 15 13  1  0
 16 15  2  0
 18 17  1  0
 18 19  1  1
 19 20  1  0
 20 24  1  0
 21 20  2  0
 22 18  1  0
 23 22  1  0
 25 22  2  0
M  END
$$$$
