MID.pdb
     RDKit          3D

 25 24  0  0  1  0  0  0  0  0999 V2000
   16.0575  -30.1845   -3.4165 C   0  0  0  0  0  0  0  0  0  0  0  0
   17.6308  -29.3665   -3.0994 S   0  0  0  0  0  0  0  0  0  0  0  0
   17.7865  -27.7962   -3.9731 C   0  0  0  0  0  0  0  0  0  0  0  0
   16.5146  -27.0187   -4.0635 C   0  0  0  0  0  0  0  0  0  0  0  0
   16.6456  -25.6731   -4.7274 C   0  0  2  0  0  0  0  0  0  0  0  0
   17.9403  -25.5010   -5.3248 N   0  0  0  0  0  0  0  0  0  0  0  0
   16.2115  -24.5633   -3.8572 C   0  0  0  0  0  0  0  0  0  0  0  0
   17.0752  -23.6879   -3.6081 O   0  0  0  0  0  0  0  0  0  0  0  0
   11.4183  -22.3256   -4.7117 C   0  0  0  0  0  0  0  0  0  0  0  0
   12.8694  -22.5484   -4.3639 C   0  0  0  0  0  0  0  0  0  0  0  0
   13.0068  -22.9772   -2.9034 C   0  0  2  0  0  0  0  0  0  0  0  0
   12.4065  -21.8895   -2.0461 C   0  0  0  0  0  0  0  0  0  0  0  0
   14.4558  -23.2388   -2.5659 C   0  0  2  0  0  0  0  0  0  0  0  0
   14.9232  -24.4195   -3.2966 N   0  0  0  0  0  0  0  0  0  0  0  0
   14.6067  -23.4256   -1.1183 C   0  0  0  0  0  0  0  0  0  0  0  0
   14.1177  -24.4917   -0.5904 O   0  0  0  0  0  0  0  0  0  0  0  0
   15.2396  -22.5707   -0.2002 N   0  0  0  0  0  0  0  0  0  0  0  0
   15.2644  -22.8454    1.2485 C   0  0  1  0  0  0  0  0  0  0  0  0
   15.6470  -21.4778    1.8534 C   0  0  0  0  0  0  0  0  0  0  0  0
   16.6938  -21.6332    2.8720 C   0  0  0  0  0  0  0  0  0  0  0  0
   17.1087  -22.8051    3.1126 O   0  0  0  0  0  0  0  0  0  0  0  0
   13.8954  -23.1157    1.7488 C   0  0  0  0  0  0  0  0  0  0  0  0
   13.7038  -24.2130    2.5675 O   0  0  0  0  0  0  0  0  0  0  0  0
   17.2283  -20.5616    3.5578 O   0  0  0  0  0  0  0  0  0  0  0  0
   12.9164  -22.3774    1.4480 O   0  0  0  0  0  0  0  0  0  0  0  0
  2  3  1  0
  2  1  1  0
  4  5  1  0
  4  3  1  0
  5  7  1  0
  5  6  1  1
  7 14  1  0
  8  7  2  0
 10  9  1  0
 11 12  1  1
 11 13  1  0
 11 10  1  0
 13 14  1  6
 15 17  1  0
 15 13  1  0
 16 15  2  0
 18 17  1  0
 18 19  1  1
 19 20  1  0
 20 24  1  0
 21 20  2  0
 22 18  1  0
 23 22  1  0
 25 22  2  0
M  END
$$$$
