MID.pdb
     RDKit          3D

 25 24  0  0  1  0  0  0  0  0999 V2000
   20.8670  -21.2622   -8.5025 C   0  0  0  0  0  0  0  0  0  0  0  0
   22.1008  -21.1967   -7.1916 S   0  0  0  0  0  0  0  0  0  0  0  0
   23.7886  -21.1559   -7.8268 C   0  0  0  0  0  0  0  0  0  0  0  0
   23.9188  -20.5276   -9.1753 C   0  0  0  0  0  0  0  0  0  0  0  0
   25.2928  -20.6245   -9.7846 C   0  0  2  0  0  0  0  0  0  0  0  0
   26.2992  -20.0925   -8.9088 N   0  0  0  0  0  0  0  0  0  0  0  0
   25.3407  -20.1128  -11.1677 C   0  0  0  0  0  0  0  0  0  0  0  0
   25.5069  -18.8754  -11.2921 O   0  0  0  0  0  0  0  0  0  0  0  0
   27.2980  -21.4205  -16.7654 C   0  0  0  0  0  0  0  0  0  0  0  0
   26.2974  -20.6365  -15.9527 C   0  0  0  0  0  0  0  0  0  0  0  0
   26.2258  -21.1819  -14.5267 C   0  0  2  0  0  0  0  0  0  0  0  0
   25.8371  -22.6382  -14.6102 C   0  0  0  0  0  0  0  0  0  0  0  0
   25.2502  -20.3747  -13.7030 C   0  0  2  0  0  0  0  0  0  0  0  0
   25.2146  -20.8979  -12.3349 N   0  0  0  0  0  0  0  0  0  0  0  0
   23.9180  -20.4224  -14.3162 C   0  0  0  0  0  0  0  0  0  0  0  0
   23.1570  -21.4207  -14.0360 O   0  0  0  0  0  0  0  0  0  0  0  0
   23.3394  -19.4902  -15.1940 N   0  0  0  0  0  0  0  0  0  0  0  0
   21.9163  -19.5425  -15.5770 C   0  0  1  0  0  0  0  0  0  0  0  0
   21.3054  -18.3560  -14.8013 C   0  0  0  0  0  0  0  0  0  0  0  0
   19.8749  -18.2168  -15.1043 C   0  0  0  0  0  0  0  0  0  0  0  0
   19.5464  -17.4178  -16.0302 O   0  0  0  0  0  0  0  0  0  0  0  0
   21.7508  -19.1903  -17.0075 C   0  0  0  0  0  0  0  0  0  0  0  0
   22.8271  -18.6319  -17.6715 O   0  0  0  0  0  0  0  0  0  0  0  0
   18.8996  -18.9184  -14.4252 O   0  0  0  0  0  0  0  0  0  0  0  0
   20.6657  -19.3860  -17.6225 O   0  0  0  0  0  0  0  0  0  0  0  0
  2  3  1  0
  2  1  1  0
  4  5  1  0
  4  3  1  0
  5  7  1  0
  5  6  1  1
  7 14  1  0
  8  7  2  0
 10  9  1  0
 11 12  1  6
 11 13  1  0
 11 10  1  0
 13 14  1  1
 15 17  1  0
 15 13  1  0
 16 15  2  0
 18 17  1  0
 18 19  1  1
 19 20  1  0
 20 24  1  0
 21 20  2  0
 22 18  1  0
 23 22  1  0
 25 22  2  0
M  END
$$$$
