MID.pdb
     RDKit          3D

 25 24  0  0  1  0  0  0  0  0999 V2000
   21.8455   -8.2769  -22.5580 C   0  0  0  0  0  0  0  0  0  0  0  0
   20.3853   -9.3223  -22.6983 S   0  0  0  0  0  0  0  0  0  0  0  0
   20.3572  -10.6455  -21.4727 C   0  0  0  0  0  0  0  0  0  0  0  0
   20.3471  -10.1676  -20.0579 C   0  0  0  0  0  0  0  0  0  0  0  0
   20.5644  -11.2452  -19.0282 C   0  0  2  0  0  0  0  0  0  0  0  0
   19.6903  -12.3649  -19.2408 N   0  0  0  0  0  0  0  0  0  0  0  0
   20.5774  -10.7216  -17.6488 C   0  0  0  0  0  0  0  0  0  0  0  0
   19.4782  -10.7349  -17.0438 O   0  0  0  0  0  0  0  0  0  0  0  0
   23.5049  -12.5299  -13.8627 C   0  0  0  0  0  0  0  0  0  0  0  0
   22.4534  -11.8376  -14.6941 C   0  0  0  0  0  0  0  0  0  0  0  0
   22.7431  -10.3393  -14.7787 C   0  0  2  0  0  0  0  0  0  0  0  0
   22.7860   -9.7989  -13.3699 C   0  0  0  0  0  0  0  0  0  0  0  0
   21.7004   -9.6487  -15.6259 C   0  0  2  0  0  0  0  0  0  0  0  0
   21.7122  -10.2169  -16.9763 N   0  0  0  0  0  0  0  0  0  0  0  0
   21.9618   -8.2053  -15.6634 C   0  0  0  0  0  0  0  0  0  0  0  0
   23.0767   -7.8038  -16.1634 O   0  0  0  0  0  0  0  0  0  0  0  0
   21.1278   -7.1665  -15.2165 N   0  0  0  0  0  0  0  0  0  0  0  0
   21.5194   -5.7471  -15.2992 C   0  0  1  0  0  0  0  0  0  0  0  0
   20.1609   -5.0154  -15.3420 C   0  0  0  0  0  0  0  0  0  0  0  0
   19.4204   -5.3627  -16.5621 C   0  0  0  0  0  0  0  0  0  0  0  0
   19.9924   -5.1594  -17.6733 O   0  0  0  0  0  0  0  0  0  0  0  0
   22.1506   -5.3084  -14.0317 C   0  0  0  0  0  0  0  0  0  0  0  0
   22.7856   -4.0806  -14.0088 O   0  0  0  0  0  0  0  0  0  0  0  0
   18.1475   -5.8950  -16.5327 O   0  0  0  0  0  0  0  0  0  0  0  0
   22.1214   -6.0203  -12.9894 O   0  0  0  0  0  0  0  0  0  0  0  0
  2  3  1  0
  2  1  1  0
  4  5  1  0
  4  3  1  0
  5  7  1  0
  5  6  1  1
  7 14  1  0
  8  7  2  0
 10  9  1  0
 11 12  1  1
 11 13  1  0
 11 10  1  0
 13 14  1  6
 15 17  1  0
 15 13  1  0
 16 15  2  0
 18 17  1  0
 18 19  1  1
 19 20  1  0
 20 24  1  0
 21 20  2  0
 22 18  1  0
 23 22  1  0
 25 22  2  0
M  END
$$$$
