MID.pdb
     RDKit          3D

 25 24  0  0  1  0  0  0  0  0999 V2000
   24.3233  -21.8864  -19.8035 C   0  0  0  0  0  0  0  0  0  0  0  0
   26.0782  -22.2846  -19.8850 S   0  0  0  0  0  0  0  0  0  0  0  0
   26.7267  -22.8929  -18.3155 C   0  0  0  0  0  0  0  0  0  0  0  0
   25.7368  -22.8749  -17.1975 C   0  0  0  0  0  0  0  0  0  0  0  0
   26.3052  -23.2285  -15.8482 C   0  0  2  0  0  0  0  0  0  0  0  0
   26.9957  -24.4876  -15.8778 N   0  0  0  0  0  0  0  0  0  0  0  0
   25.3195  -23.0871  -14.7594 C   0  0  0  0  0  0  0  0  0  0  0  0
   24.5019  -24.0301  -14.6302 O   0  0  0  0  0  0  0  0  0  0  0  0
   26.4172  -20.9006   -9.9504 C   0  0  0  0  0  0  0  0  0  0  0  0
   25.7976  -21.7522  -11.0305 C   0  0  0  0  0  0  0  0  0  0  0  0
   24.6731  -20.9893  -11.7302 C   0  0  2  0  0  0  0  0  0  0  0  0
   23.5998  -20.7104  -10.7060 C   0  0  0  0  0  0  0  0  0  0  0  0
   24.1514  -21.7820  -12.9056 C   0  0  2  0  0  0  0  0  0  0  0  0
   25.2316  -21.9910  -13.8731 N   0  0  0  0  0  0  0  0  0  0  0  0
   23.0239  -21.0758  -13.5246 C   0  0  0  0  0  0  0  0  0  0  0  0
   23.2348  -19.9026  -14.0076 O   0  0  0  0  0  0  0  0  0  0  0  0
   21.7008  -21.5257  -13.6710 N   0  0  0  0  0  0  0  0  0  0  0  0
   20.6681  -20.7325  -14.3632 C   0  0  1  0  0  0  0  0  0  0  0  0
   19.6912  -21.8109  -14.8784 C   0  0  0  0  0  0  0  0  0  0  0  0
   20.2994  -22.5876  -15.9666 C   0  0  0  0  0  0  0  0  0  0  0  0
   19.7770  -23.7050  -16.2528 O   0  0  0  0  0  0  0  0  0  0  0  0
   19.8827  -19.9393  -13.3877 C   0  0  0  0  0  0  0  0  0  0  0  0
   19.2183  -18.8159  -13.8433 O   0  0  0  0  0  0  0  0  0  0  0  0
   21.3987  -22.1430  -16.6726 O   0  0  0  0  0  0  0  0  0  0  0  0
   19.8088  -20.2623  -12.1694 O   0  0  0  0  0  0  0  0  0  0  0  0
  2  3  1  0
  2  1  1  0
  4  5  1  0
  4  3  1  0
  5  7  1  0
  5  6  1  6
  7 14  1  0
  8  7  2  0
 10  9  1  0
 11 12  1  1
 11 13  1  0
 11 10  1  0
 13 14  1  6
 15 17  1  0
 15 13  1  0
 16 15  2  0
 18 17  1  0
 18 19  1  1
 19 20  1  0
 20 24  1  0
 21 20  2  0
 22 18  1  0
 23 22  1  0
 25 22  2  0
M  END
$$$$
