MID.pdb
     RDKit          3D

 25 24  0  0  1  0  0  0  0  0999 V2000
   18.2224  -11.8064  -23.4888 C   0  0  0  0  0  0  0  0  0  0  0  0
   18.7562  -10.9445  -21.9998 S   0  0  0  0  0  0  0  0  0  0  0  0
   18.1150  -11.6990  -20.4921 C   0  0  0  0  0  0  0  0  0  0  0  0
   18.5165  -10.9946  -19.2380 C   0  0  0  0  0  0  0  0  0  0  0  0
   19.6113  -11.6738  -18.4577 C   0  0  2  0  0  0  0  0  0  0  0  0
   19.3509  -13.0764  -18.2910 N   0  0  0  0  0  0  0  0  0  0  0  0
   19.9569  -10.9552  -17.2163 C   0  0  0  0  0  0  0  0  0  0  0  0
   19.0860  -10.9653  -16.3129 O   0  0  0  0  0  0  0  0  0  0  0  0
   22.5213  -10.0008  -12.7446 C   0  0  0  0  0  0  0  0  0  0  0  0
   23.1955   -9.3369  -13.9196 C   0  0  0  0  0  0  0  0  0  0  0  0
   22.8323  -10.0567  -15.2180 C   0  0  2  0  0  0  0  0  0  0  0  0
   23.9528   -9.8235  -16.2023 C   0  0  0  0  0  0  0  0  0  0  0  0
   21.5016   -9.5654  -15.7376 C   0  0  2  0  0  0  0  0  0  0  0  0
   21.1694  -10.2715  -16.9776 N   0  0  0  0  0  0  0  0  0  0  0  0
   21.5552   -8.1158  -15.9592 C   0  0  0  0  0  0  0  0  0  0  0  0
   22.2665   -7.6779  -16.9372 O   0  0  0  0  0  0  0  0  0  0  0  0
   20.9079   -7.1073  -15.2256 N   0  0  0  0  0  0  0  0  0  0  0  0
   21.0224   -5.6789  -15.5740 C   0  0  1  0  0  0  0  0  0  0  0  0
   19.6136   -5.1322  -15.2597 C   0  0  0  0  0  0  0  0  0  0  0  0
   19.5673   -3.6755  -15.4428 C   0  0  0  0  0  0  0  0  0  0  0  0
   19.2762   -2.9665  -14.4347 O   0  0  0  0  0  0  0  0  0  0  0  0
   21.9234   -4.9838  -14.6239 C   0  0  0  0  0  0  0  0  0  0  0  0
   22.2604   -5.6317  -13.4501 O   0  0  0  0  0  0  0  0  0  0  0  0
   19.8286   -3.0701  -16.6551 O   0  0  0  0  0  0  0  0  0  0  0  0
   22.3820   -3.8314  -14.8596 O   0  0  0  0  0  0  0  0  0  0  0  0
  2  3  1  0
  2  1  1  0
  4  5  1  0
  4  3  1  0
  5  7  1  0
  5  6  1  1
  7 14  1  0
  8  7  2  0
 10  9  1  0
 11 12  1  6
 11 13  1  0
 11 10  1  0
 13 14  1  6
 15 17  1  0
 15 13  1  0
 16 15  2  0
 18 17  1  0
 18 19  1  1
 19 20  1  0
 20 24  1  0
 21 20  2  0
 22 18  1  0
 23 22  1  0
 25 22  2  0
M  END
$$$$
