MID.pdb
     RDKit          3D

 25 24  0  0  1  0  0  0  0  0999 V2000
   27.6766  -12.1411  -14.7565 C   0  0  0  0  0  0  0  0  0  0  0  0
   27.2270  -13.8760  -14.5753 S   0  0  0  0  0  0  0  0  0  0  0  0
   26.6239  -14.6022  -16.1124 C   0  0  0  0  0  0  0  0  0  0  0  0
   25.5562  -13.8052  -16.7868 C   0  0  0  0  0  0  0  0  0  0  0  0
   24.1573  -14.3227  -16.5767 C   0  0  2  0  0  0  0  0  0  0  0  0
   23.9727  -15.6114  -17.1833 N   0  0  0  0  0  0  0  0  0  0  0  0
   23.1237  -13.3249  -16.9131 C   0  0  0  0  0  0  0  0  0  0  0  0
   22.8578  -13.1965  -18.1326 O   0  0  0  0  0  0  0  0  0  0  0  0
   18.3314  -13.8639  -16.6728 C   0  0  0  0  0  0  0  0  0  0  0  0
   19.6900  -13.2851  -16.9816 C   0  0  0  0  0  0  0  0  0  0  0  0
   20.0252  -12.1616  -16.0011 C   0  0  2  0  0  0  0  0  0  0  0  0
   18.9149  -11.1415  -16.0734 C   0  0  0  0  0  0  0  0  0  0  0  0
   21.3741  -11.5645  -16.3262 C   0  0  2  0  0  0  0  0  0  0  0  0
   22.4288  -12.5215  -15.9822 N   0  0  0  0  0  0  0  0  0  0  0  0
   21.5528  -10.3043  -15.5960 C   0  0  0  0  0  0  0  0  0  0  0  0
   21.5092  -10.3368  -14.3110 O   0  0  0  0  0  0  0  0  0  0  0  0
   21.7781   -9.0239  -16.1289 N   0  0  0  0  0  0  0  0  0  0  0  0
   21.9547   -7.8329  -15.2773 C   0  0  1  0  0  0  0  0  0  0  0  0
   22.2339   -6.7131  -16.3023 C   0  0  0  0  0  0  0  0  0  0  0  0
   22.4725   -5.4328  -15.6229 C   0  0  0  0  0  0  0  0  0  0  0  0
   22.5190   -5.4398  -14.3575 O   0  0  0  0  0  0  0  0  0  0  0  0
   20.6707   -7.4563  -14.6393 C   0  0  0  0  0  0  0  0  0  0  0  0
   20.6822   -7.1157  -13.2995 O   0  0  0  0  0  0  0  0  0  0  0  0
   22.6460   -4.2482  -16.3094 O   0  0  0  0  0  0  0  0  0  0  0  0
   19.5845   -7.4404  -15.2825 O   0  0  0  0  0  0  0  0  0  0  0  0
  2  3  1  0
  2  1  1  0
  4  5  1  0
  4  3  1  0
  5  7  1  0
  5  6  1  6
  7 14  1  0
  8  7  2  0
 10  9  1  0
 11 12  1  6
 11 13  1  0
 11 10  1  0
 13 14  1  1
 15 17  1  0
 15 13  1  0
 16 15  2  0
 18 17  1  0
 18 19  1  6
 19 20  1  0
 20 24  1  0
 21 20  2  0
 22 18  1  0
 23 22  1  0
 25 22  2  0
M  END
$$$$
