MID.pdb
     RDKit          3D

 25 24  0  0  1  0  0  0  0  0999 V2000
   29.9610  -18.6826   -4.9535 C   0  0  0  0  0  0  0  0  0  0  0  0
   28.3429  -19.4648   -4.8323 S   0  0  0  0  0  0  0  0  0  0  0  0
   28.0144  -20.5979   -6.1968 C   0  0  0  0  0  0  0  0  0  0  0  0
   27.3312  -19.9658   -7.3647 C   0  0  0  0  0  0  0  0  0  0  0  0
   27.0708  -20.8960   -8.5203 C   0  0  2  0  0  0  0  0  0  0  0  0
   28.2753  -21.5417   -8.9623 N   0  0  0  0  0  0  0  0  0  0  0  0
   26.2758  -20.2657   -9.5917 C   0  0  0  0  0  0  0  0  0  0  0  0
   26.3119  -19.0124   -9.6402 O   0  0  0  0  0  0  0  0  0  0  0  0
   25.7779  -22.4806  -14.5117 C   0  0  0  0  0  0  0  0  0  0  0  0
   26.0853  -22.0433  -13.1009 C   0  0  0  0  0  0  0  0  0  0  0  0
   25.7758  -20.5570  -12.9250 C   0  0  2  0  0  0  0  0  0  0  0  0
   27.0900  -19.8255  -12.7968 C   0  0  0  0  0  0  0  0  0  0  0  0
   24.8819  -20.3439  -11.7260 C   0  0  2  0  0  0  0  0  0  0  0  0
   25.4942  -20.9561  -10.5441 N   0  0  0  0  0  0  0  0  0  0  0  0
   23.5550  -20.9151  -11.9831 C   0  0  0  0  0  0  0  0  0  0  0  0
   23.3100  -22.0998  -11.5465 O   0  0  0  0  0  0  0  0  0  0  0  0
   22.4771  -20.3204  -12.6604 N   0  0  0  0  0  0  0  0  0  0  0  0
   21.2358  -21.0542  -12.9694 C   0  0  1  0  0  0  0  0  0  0  0  0
   20.1376  -20.0011  -12.7095 C   0  0  0  0  0  0  0  0  0  0  0  0
   18.8092  -20.5465  -13.0186 C   0  0  0  0  0  0  0  0  0  0  0  0
   18.6019  -21.7684  -12.7591 O   0  0  0  0  0  0  0  0  0  0  0  0
   21.1522  -21.3440  -14.4208 C   0  0  0  0  0  0  0  0  0  0  0  0
   20.2767  -22.3279  -14.8411 O   0  0  0  0  0  0  0  0  0  0  0  0
   17.8015  -19.7814  -13.5698 O   0  0  0  0  0  0  0  0  0  0  0  0
   21.8520  -20.7220  -15.2677 O   0  0  0  0  0  0  0  0  0  0  0  0
  2  3  1  0
  2  1  1  0
  4  5  1  0
  4  3  1  0
  5  7  1  0
  5  6  1  6
  7 14  1  0
  8  7  2  0
 10  9  1  0
 11 12  1  1
 11 13  1  0
 11 10  1  0
 13 14  1  1
 15 17  1  0
 15 13  1  0
 16 15  2  0
 18 17  1  0
 18 19  1  6
 19 20  1  0
 20 24  1  0
 21 20  2  0
 22 18  1  0
 23 22  1  0
 25 22  2  0
M  END
$$$$
