NCI.pdb
     RDKit          3D

 23 22  0  0  1  0  0  0  0  0999 V2000
   26.2967  -25.1174  -15.8950 N   0  0  0  0  0  0  0  0  0  0  0  0
   24.9505  -25.0644  -15.4492 C   0  0  0  0  0  0  0  0  0  0  0  0
   24.4830  -26.0146  -14.7840 O   0  0  0  0  0  0  0  0  0  0  0  0
   24.0581  -23.9148  -15.7410 C   0  0  0  0  0  0  0  0  0  0  0  0
   24.3328  -22.7608  -14.7798 C   0  0  2  0  0  0  0  0  0  0  0  0
   24.3440  -23.1999  -13.4181 N   0  0  0  0  0  0  0  0  0  0  0  0
   23.2264  -21.7679  -15.0187 C   0  0  0  0  0  0  0  0  0  0  0  0
   22.8083  -21.5527  -16.1826 O   0  0  0  0  0  0  0  0  0  0  0  0
   22.6253  -21.0510  -13.9558 N   0  0  0  0  0  0  0  0  0  0  0  0
   21.6665  -20.0145  -14.2569 C   0  0  1  0  0  0  0  0  0  0  0  0
   20.8615  -19.6458  -13.0019 C   0  0  0  0  0  0  0  0  0  0  0  0
   21.7826  -19.9761  -11.4987 S   0  0  0  0  0  0  0  0  0  0  0  0
   22.3402  -18.7723  -14.7295 C   0  0  0  0  0  0  0  0  0  0  0  0
   23.1946  -18.1505  -14.0249 O   0  0  0  0  0  0  0  0  0  0  0  0
   25.5394  -16.3888  -18.9021 C   0  0  0  0  0  0  0  0  0  0  0  0
   24.3634  -16.0318  -18.0254 C   0  0  0  0  0  0  0  0  0  0  0  0
   23.8246  -17.2794  -17.4049 C   0  0  2  0  0  0  0  0  0  0  0  0
   23.4585  -18.2524  -18.5008 C   0  0  0  0  0  0  0  0  0  0  0  0
   22.6301  -17.0206  -16.5138 C   0  0  2  0  0  0  0  0  0  0  0  0
   22.0483  -18.2276  -16.0055 N   0  0  0  0  0  0  0  0  0  0  0  0
   21.6136  -16.2307  -17.2391 C   0  0  0  0  0  0  0  0  0  0  0  0
   21.7811  -14.8801  -17.4750 O   0  0  0  0  0  0  0  0  0  0  0  0
   20.5732  -16.7872  -17.6537 O   0  0  0  0  0  0  0  0  0  0  0  0
  2  1  1  0
  3  2  2  0
  4  2  1  0
  5  6  1  1
  5  4  1  0
  7  8  2  0
  7  5  1  0
  9  7  1  0
 10  9  1  0
 10 13  1  0
 10 11  1  1
 12 11  1  0
 13 20  1  0
 13 14  2  0
 16 15  1  0
 17 16  1  0
 17 18  1  6
 19 17  1  0
 19 20  1  6
 21 22  1  0
 21 19  1  0
 23 21  2  0
M  END
$$$$
