NCI.pdb
     RDKit          3D

 23 22  0  0  1  0  0  0  0  0999 V2000
   29.3227  -19.0627  -17.3019 N   0  0  0  0  0  0  0  0  0  0  0  0
   28.5063  -17.9634  -16.9290 C   0  0  0  0  0  0  0  0  0  0  0  0
   28.6707  -16.8559  -17.4858 O   0  0  0  0  0  0  0  0  0  0  0  0
   27.4498  -18.0700  -15.8918 C   0  0  0  0  0  0  0  0  0  0  0  0
   27.4252  -19.4724  -15.2887 C   0  0  2  0  0  0  0  0  0  0  0  0
   26.8655  -20.4268  -16.1959 N   0  0  0  0  0  0  0  0  0  0  0  0
   26.5899  -19.3578  -14.0413 C   0  0  0  0  0  0  0  0  0  0  0  0
   25.7330  -18.4466  -13.9337 O   0  0  0  0  0  0  0  0  0  0  0  0
   26.7371  -20.2596  -12.9595 N   0  0  0  0  0  0  0  0  0  0  0  0
   25.8128  -20.1909  -11.8525 C   0  0  1  0  0  0  0  0  0  0  0  0
   24.5435  -20.9987  -12.1612 C   0  0  0  0  0  0  0  0  0  0  0  0
   24.9232  -22.6984  -12.5901 S   0  0  0  0  0  0  0  0  0  0  0  0
   26.4082  -20.7621  -10.6118 C   0  0  0  0  0  0  0  0  0  0  0  0
   27.2352  -21.7257  -10.6342 O   0  0  0  0  0  0  0  0  0  0  0  0
   28.9767  -19.5961   -5.4513 C   0  0  0  0  0  0  0  0  0  0  0  0
   27.9459  -20.5095   -6.0695 C   0  0  0  0  0  0  0  0  0  0  0  0
   27.5214  -19.9420   -7.3846 C   0  0  2  0  0  0  0  0  0  0  0  0
   26.9582  -18.5582   -7.1616 C   0  0  0  0  0  0  0  0  0  0  0  0
   26.5088  -20.8109   -8.0971 C   0  0  2  0  0  0  0  0  0  0  0  0
   26.0686  -20.2429   -9.3370 N   0  0  0  0  0  0  0  0  0  0  0  0
   25.3513  -21.0728   -7.2167 C   0  0  0  0  0  0  0  0  0  0  0  0
   24.0693  -20.7117   -7.5821 O   0  0  0  0  0  0  0  0  0  0  0  0
   25.5246  -21.6338   -6.1125 O   0  0  0  0  0  0  0  0  0  0  0  0
  2  1  1  0
  3  2  2  0
  4  2  1  0
  5  6  1  6
  5  4  1  0
  7  8  2  0
  7  5  1  0
  9  7  1  0
 10  9  1  0
 10 13  1  0
 10 11  1  6
 12 11  1  0
 13 20  1  0
 13 14  2  0
 16 15  1  0
 17 16  1  0
 17 18  1  1
 19 17  1  0
 19 20  1  6
 21 22  1  0
 21 19  1  0
 23 21  2  0
M  END
$$$$
