NCI.pdb
     RDKit          3D

 23 22  0  0  1  0  0  0  0  0999 V2000
   21.5664  -18.7498  -14.5899 N   0  0  0  0  0  0  0  0  0  0  0  0
   22.7056  -18.3674  -15.3450 C   0  0  0  0  0  0  0  0  0  0  0  0
   23.8147  -18.8882  -15.0951 O   0  0  0  0  0  0  0  0  0  0  0  0
   22.6394  -17.3617  -16.4347 C   0  0  0  0  0  0  0  0  0  0  0  0
   21.2393  -16.7604  -16.5300 C   0  0  2  0  0  0  0  0  0  0  0  0
   20.3888  -17.5366  -17.3793 N   0  0  0  0  0  0  0  0  0  0  0  0
   21.4352  -15.3737  -17.0827 C   0  0  0  0  0  0  0  0  0  0  0  0
   21.5217  -15.1917  -18.3218 O   0  0  0  0  0  0  0  0  0  0  0  0
   21.5275  -14.2405  -16.2387 N   0  0  0  0  0  0  0  0  0  0  0  0
   21.6207  -12.9263  -16.8292 C   0  0  1  0  0  0  0  0  0  0  0  0
   20.3030  -12.5552  -17.5254 C   0  0  0  0  0  0  0  0  0  0  0  0
   19.2440  -11.5692  -16.4654 S   0  0  0  0  0  0  0  0  0  0  0  0
   21.8827  -11.8845  -15.7967 C   0  0  0  0  0  0  0  0  0  0  0  0
   21.2990  -11.8813  -14.6687 O   0  0  0  0  0  0  0  0  0  0  0  0
   26.9788   -9.7360  -15.9914 C   0  0  0  0  0  0  0  0  0  0  0  0
   25.4854   -9.6614  -16.1991 C   0  0  0  0  0  0  0  0  0  0  0  0
   24.8001   -9.9622  -14.9062 C   0  0  2  0  0  0  0  0  0  0  0  0
   25.2710  -11.3067  -14.4039 C   0  0  0  0  0  0  0  0  0  0  0  0
   23.2924   -9.9467  -15.0259 C   0  0  2  0  0  0  0  0  0  0  0  0
   22.8094  -10.8389  -16.0380 N   0  0  0  0  0  0  0  0  0  0  0  0
   22.8150   -8.5729  -15.2871 C   0  0  0  0  0  0  0  0  0  0  0  0
   22.2048   -8.2344  -16.4791 O   0  0  0  0  0  0  0  0  0  0  0  0
   22.9614   -7.6878  -14.4159 O   0  0  0  0  0  0  0  0  0  0  0  0
  2  1  1  0
  3  2  2  0
  4  2  1  0
  5  6  1  6
  5  4  1  0
  7  8  2  0
  7  5  1  0
  9  7  1  0
 10  9  1  0
 10 13  1  0
 10 11  1  1
 12 11  1  0
 13 20  1  0
 13 14  2  0
 16 15  1  0
 17 16  1  0
 17 18  1  6
 19 17  1  0
 19 20  1  6
 21 22  1  0
 21 19  1  0
 23 21  2  0
M  END
$$$$
