NCI.pdb
     RDKit          3D

 23 22  0  0  1  0  0  0  0  0999 V2000
   16.2105  -13.3216  -16.7658 N   0  0  0  0  0  0  0  0  0  0  0  0
   17.0991  -12.8230  -15.7780 C   0  0  0  0  0  0  0  0  0  0  0  0
   16.9025  -13.1005  -14.5746 O   0  0  0  0  0  0  0  0  0  0  0  0
   18.2694  -11.9738  -16.1134 C   0  0  0  0  0  0  0  0  0  0  0  0
   18.2938  -11.6535  -17.6060 C   0  0  2  0  0  0  0  0  0  0  0  0
   18.6281  -12.8048  -18.3870 N   0  0  0  0  0  0  0  0  0  0  0  0
   19.3287  -10.5719  -17.7671 C   0  0  0  0  0  0  0  0  0  0  0  0
   20.2102  -10.6654  -18.6561 O   0  0  0  0  0  0  0  0  0  0  0  0
   19.3460   -9.4262  -16.9351 N   0  0  0  0  0  0  0  0  0  0  0  0
   20.2281   -8.3307  -17.2608 C   0  0  1  0  0  0  0  0  0  0  0  0
   19.8889   -7.7611  -18.6462 C   0  0  0  0  0  0  0  0  0  0  0  0
   20.8489   -6.2917  -19.0159 S   0  0  0  0  0  0  0  0  0  0  0  0
   20.0943   -7.2161  -16.2810 C   0  0  0  0  0  0  0  0  0  0  0  0
   18.9901   -6.6262  -16.0668 O   0  0  0  0  0  0  0  0  0  0  0  0
   21.5260   -8.7129  -11.7704 C   0  0  0  0  0  0  0  0  0  0  0  0
   20.9084   -8.0025  -12.9506 C   0  0  0  0  0  0  0  0  0  0  0  0
   21.5647   -6.6703  -13.1125 C   0  0  2  0  0  0  0  0  0  0  0  0
   21.2744   -5.8300  -11.8912 C   0  0  0  0  0  0  0  0  0  0  0  0
   21.1189   -5.9468  -14.3638 C   0  0  2  0  0  0  0  0  0  0  0  0
   21.2135   -6.7636  -15.5375 N   0  0  0  0  0  0  0  0  0  0  0  0
   21.9006   -4.7056  -14.5420 C   0  0  0  0  0  0  0  0  0  0  0  0
   21.4929   -3.5089  -13.9859 O   0  0  0  0  0  0  0  0  0  0  0  0
   22.9577   -4.7272  -15.2098 O   0  0  0  0  0  0  0  0  0  0  0  0
  2  1  1  0
  3  2  2  0
  4  2  1  0
  5  6  1  6
  5  4  1  0
  7  8  2  0
  7  5  1  0
  9  7  1  0
 10  9  1  0
 10 13  1  0
 10 11  1  6
 12 11  1  0
 13 20  1  0
 13 14  2  0
 16 15  1  0
 17 16  1  0
 17 18  1  1
 19 17  1  0
 19 20  1  6
 21 22  1  0
 21 19  1  0
 23 21  2  0
M  END
$$$$
