NCI.pdb
     RDKit          3D

 23 22  0  0  1  0  0  0  0  0999 V2000
   26.6437  -25.8543  -19.5922 N   0  0  0  0  0  0  0  0  0  0  0  0
   25.9759  -25.9236  -18.3418 C   0  0  0  0  0  0  0  0  0  0  0  0
   24.8904  -26.5384  -18.2554 O   0  0  0  0  0  0  0  0  0  0  0  0
   26.5155  -25.2897  -17.1130 C   0  0  0  0  0  0  0  0  0  0  0  0
   27.8415  -24.5908  -17.4039 C   0  0  2  0  0  0  0  0  0  0  0  0
   28.9519  -25.4786  -17.2429 N   0  0  0  0  0  0  0  0  0  0  0  0
   27.9160  -23.4488  -16.4256 C   0  0  0  0  0  0  0  0  0  0  0  0
   28.2100  -23.6619  -15.2239 O   0  0  0  0  0  0  0  0  0  0  0  0
   27.6613  -22.1124  -16.8183 N   0  0  0  0  0  0  0  0  0  0  0  0
   27.6789  -21.0683  -15.8214 C   0  0  1  0  0  0  0  0  0  0  0  0
   27.6822  -19.6860  -16.4908 C   0  0  0  0  0  0  0  0  0  0  0  0
   27.7601  -18.3613  -15.2839 S   0  0  0  0  0  0  0  0  0  0  0  0
   26.4741  -21.1320  -14.9470 C   0  0  0  0  0  0  0  0  0  0  0  0
   25.3386  -21.5037  -15.3779 O   0  0  0  0  0  0  0  0  0  0  0  0
   24.6760  -21.6666   -9.4233 C   0  0  0  0  0  0  0  0  0  0  0  0
   24.6574  -20.4555  -10.3243 C   0  0  0  0  0  0  0  0  0  0  0  0
   25.8304  -20.5194  -11.2471 C   0  0  2  0  0  0  0  0  0  0  0  0
   26.5961  -19.2204  -11.1561 C   0  0  0  0  0  0  0  0  0  0  0  0
   25.4327  -20.7933  -12.6805 C   0  0  2  0  0  0  0  0  0  0  0  0
   26.5503  -20.7741  -13.5773 N   0  0  0  0  0  0  0  0  0  0  0  0
   24.4089  -19.8230  -13.1207 C   0  0  0  0  0  0  0  0  0  0  0  0
   23.0843  -19.9529  -12.7519 O   0  0  0  0  0  0  0  0  0  0  0  0
   24.7379  -18.8575  -13.8443 O   0  0  0  0  0  0  0  0  0  0  0  0
  2  1  1  0
  3  2  2  0
  4  2  1  0
  5  6  1  1
  5  4  1  0
  7  8  2  0
  7  5  1  0
  9  7  1  0
 10  9  1  0
 10 13  1  0
 10 11  1  6
 12 11  1  0
 13 20  1  0
 13 14  2  0
 16 15  1  0
 17 16  1  0
 17 18  1  6
 19 17  1  0
 19 20  1  6
 21 22  1  0
 21 19  1  0
 23 21  2  0
M  END
$$$$
