NCI.pdb
     RDKit          3D

 23 22  0  0  1  0  0  0  0  0999 V2000
   16.7729  -17.8413  -16.2004 N   0  0  0  0  0  0  0  0  0  0  0  0
   17.7317  -17.2271  -15.3533 C   0  0  0  0  0  0  0  0  0  0  0  0
   17.9148  -17.6769  -14.2009 O   0  0  0  0  0  0  0  0  0  0  0  0
   18.5395  -16.0571  -15.7794 C   0  0  0  0  0  0  0  0  0  0  0  0
   18.1698  -15.6342  -17.1991 C   0  0  2  0  0  0  0  0  0  0  0  0
   18.6406  -16.5749  -18.1690 N   0  0  0  0  0  0  0  0  0  0  0  0
   18.8124  -14.2870  -17.3964 C   0  0  0  0  0  0  0  0  0  0  0  0
   19.8784  -14.1830  -18.0511 O   0  0  0  0  0  0  0  0  0  0  0  0
   18.2469  -13.1051  -16.8593 N   0  0  0  0  0  0  0  0  0  0  0  0
   18.8198  -11.8267  -17.2085 C   0  0  1  0  0  0  0  0  0  0  0  0
   17.7534  -10.9108  -17.8272 C   0  0  0  0  0  0  0  0  0  0  0  0
   16.2715  -10.8379  -16.8192 S   0  0  0  0  0  0  0  0  0  0  0  0
   19.3593  -11.1274  -16.0085 C   0  0  0  0  0  0  0  0  0  0  0  0
   18.8844  -11.3072  -14.8444 O   0  0  0  0  0  0  0  0  0  0  0  0
   24.3864  -11.3370  -14.8474 C   0  0  0  0  0  0  0  0  0  0  0  0
   22.8828  -11.2040  -14.8236 C   0  0  0  0  0  0  0  0  0  0  0  0
   22.5225   -9.7568  -14.9094 C   0  0  2  0  0  0  0  0  0  0  0  0
   23.0783   -9.0416  -13.7006 C   0  0  0  0  0  0  0  0  0  0  0  0
   21.0304   -9.5306  -15.0115 C   0  0  2  0  0  0  0  0  0  0  0  0
   20.4420  -10.2191  -16.1221 N   0  0  0  0  0  0  0  0  0  0  0  0
   20.7376   -8.0847  -15.0948 C   0  0  0  0  0  0  0  0  0  0  0  0
   20.7282   -7.2834  -13.9698 O   0  0  0  0  0  0  0  0  0  0  0  0
   20.4912   -7.5632  -16.2044 O   0  0  0  0  0  0  0  0  0  0  0  0
  2  1  1  0
  3  2  2  0
  4  2  1  0
  5  6  1  6
  5  4  1  0
  7  8  2  0
  7  5  1  0
  9  7  1  0
 10  9  1  0
 10 13  1  0
 10 11  1  1
 12 11  1  0
 13 20  1  0
 13 14  2  0
 16 15  1  0
 17 16  1  0
 17 18  1  1
 19 17  1  0
 19 20  1  6
 21 22  1  0
 21 19  1  0
 23 21  2  0
M  END
$$$$
