NCI.pdb
     RDKit          3D

 23 22  0  0  1  0  0  0  0  0999 V2000
   15.9703  -16.8576  -14.5991 N   0  0  0  0  0  0  0  0  0  0  0  0
   17.2313  -16.4352  -15.0948 C   0  0  0  0  0  0  0  0  0  0  0  0
   18.2219  -17.1904  -14.9849 O   0  0  0  0  0  0  0  0  0  0  0  0
   17.4309  -15.1173  -15.7478 C   0  0  0  0  0  0  0  0  0  0  0  0
   16.1167  -14.3430  -15.8135 C   0  0  2  0  0  0  0  0  0  0  0  0
   15.2228  -14.9024  -16.7806 N   0  0  0  0  0  0  0  0  0  0  0  0
   16.4993  -12.9342  -16.1822 C   0  0  0  0  0  0  0  0  0  0  0  0
   16.1429  -12.4483  -17.2835 O   0  0  0  0  0  0  0  0  0  0  0  0
   17.2634  -12.1173  -15.3140 N   0  0  0  0  0  0  0  0  0  0  0  0
   17.4942  -10.7362  -15.6655 C   0  0  1  0  0  0  0  0  0  0  0  0
   16.1930   -9.9281  -15.5527 C   0  0  0  0  0  0  0  0  0  0  0  0
   16.5007   -8.1613  -15.5877 S   0  0  0  0  0  0  0  0  0  0  0  0
   18.4875  -10.1024  -14.7534 C   0  0  0  0  0  0  0  0  0  0  0  0
   18.3365  -10.0789  -13.4925 O   0  0  0  0  0  0  0  0  0  0  0  0
   24.2723  -10.8921  -14.4197 C   0  0  0  0  0  0  0  0  0  0  0  0
   23.1788   -9.9500  -13.9773 C   0  0  0  0  0  0  0  0  0  0  0  0
   21.9882  -10.1405  -14.8593 C   0  0  2  0  0  0  0  0  0  0  0  0
   22.3991   -9.9052  -16.2938 C   0  0  0  0  0  0  0  0  0  0  0  0
   20.8353   -9.2339  -14.4895 C   0  0  2  0  0  0  0  0  0  0  0  0
   19.6591   -9.4909  -15.2667 N   0  0  0  0  0  0  0  0  0  0  0  0
   21.2358   -7.8179  -14.6236 C   0  0  0  0  0  0  0  0  0  0  0  0
   21.9744   -7.1802  -13.6462 O   0  0  0  0  0  0  0  0  0  0  0  0
   20.9040   -7.1718  -15.6416 O   0  0  0  0  0  0  0  0  0  0  0  0
  2  1  1  0
  3  2  2  0
  4  2  1  0
  5  6  1  6
  5  4  1  0
  7  8  2  0
  7  5  1  0
  9  7  1  0
 10  9  1  0
 10 13  1  0
 10 11  1  1
 12 11  1  0
 13 20  1  0
 13 14  2  0
 16 15  1  0
 17 16  1  0
 17 18  1  6
 19 17  1  0
 19 20  1  6
 21 22  1  0
 21 19  1  0
 23 21  2  0
M  END
$$$$
