NCI.pdb
     RDKit          3D

 23 22  0  0  1  0  0  0  0  0999 V2000
   21.3729  -19.5397  -13.1716 N   0  0  0  0  0  0  0  0  0  0  0  0
   21.2950  -20.5356  -12.1636 C   0  0  0  0  0  0  0  0  0  0  0  0
   20.1910  -20.7951  -11.6368 O   0  0  0  0  0  0  0  0  0  0  0  0
   22.4827  -21.2951  -11.6991 C   0  0  0  0  0  0  0  0  0  0  0  0
   23.7498  -20.7862  -12.3822 C   0  0  2  0  0  0  0  0  0  0  0  0
   23.8675  -21.2887  -13.7167 N   0  0  0  0  0  0  0  0  0  0  0  0
   24.8889  -21.2648  -11.5219 C   0  0  0  0  0  0  0  0  0  0  0  0
   25.0715  -22.4931  -11.3376 O   0  0  0  0  0  0  0  0  0  0  0  0
   25.7833  -20.3613  -10.8982 N   0  0  0  0  0  0  0  0  0  0  0  0
   26.8663  -20.8803  -10.0969 C   0  0  1  0  0  0  0  0  0  0  0  0
   28.2190  -20.4110  -10.6527 C   0  0  0  0  0  0  0  0  0  0  0  0
   28.6089  -21.2030  -12.2140 S   0  0  0  0  0  0  0  0  0  0  0  0
   26.7779  -20.4012   -8.6888 C   0  0  0  0  0  0  0  0  0  0  0  0
   25.8746  -19.5986   -8.2978 O   0  0  0  0  0  0  0  0  0  0  0  0
   29.9975  -21.1407   -3.3968 C   0  0  0  0  0  0  0  0  0  0  0  0
   28.7576  -20.6300   -4.0902 C   0  0  0  0  0  0  0  0  0  0  0  0
   28.8052  -21.0326   -5.5280 C   0  0  2  0  0  0  0  0  0  0  0  0
   30.1660  -20.6903   -6.0873 C   0  0  0  0  0  0  0  0  0  0  0  0
   27.7199  -20.3794   -6.3546 C   0  0  2  0  0  0  0  0  0  0  0  0
   27.7146  -20.8303   -7.7149 N   0  0  0  0  0  0  0  0  0  0  0  0
   27.8559  -18.9089   -6.3053 C   0  0  0  0  0  0  0  0  0  0  0  0
   27.4504  -18.1823   -5.2030 O   0  0  0  0  0  0  0  0  0  0  0  0
   28.3482  -18.2971   -7.2787 O   0  0  0  0  0  0  0  0  0  0  0  0
  2  1  1  0
  3  2  2  0
  4  2  1  0
  5  6  1  6
  5  4  1  0
  7  8  2  0
  7  5  1  0
  9  7  1  0
 10  9  1  0
 10 13  1  0
 10 11  1  6
 12 11  1  0
 13 20  1  0
 13 14  2  0
 16 15  1  0
 17 16  1  0
 17 18  1  6
 19 17  1  0
 19 20  1  6
 21 22  1  0
 21 19  1  0
 23 21  2  0
M  END
$$$$
