NCI.pdb
     RDKit          3D

 23 22  0  0  1  0  0  0  0  0999 V2000
   13.7340  -11.3360  -15.8741 N   0  0  0  0  0  0  0  0  0  0  0  0
   13.6241  -11.7380  -14.5175 C   0  0  0  0  0  0  0  0  0  0  0  0
   12.6046  -12.3543  -14.1373 O   0  0  0  0  0  0  0  0  0  0  0  0
   14.6805  -11.4558  -13.5137 C   0  0  0  0  0  0  0  0  0  0  0  0
   15.8585  -10.7301  -14.1594 C   0  0  2  0  0  0  0  0  0  0  0  0
   16.8742  -11.6451  -14.5816 N   0  0  0  0  0  0  0  0  0  0  0  0
   16.3802   -9.7932  -13.1027 C   0  0  0  0  0  0  0  0  0  0  0  0
   16.9802  -10.2439  -12.0962 O   0  0  0  0  0  0  0  0  0  0  0  0
   16.2165   -8.3902  -13.2030 N   0  0  0  0  0  0  0  0  0  0  0  0
   16.8388   -7.5350  -12.2203 C   0  0  1  0  0  0  0  0  0  0  0  0
   17.7277   -6.4868  -12.9058 C   0  0  0  0  0  0  0  0  0  0  0  0
   19.2876   -7.1874  -13.4473 S   0  0  0  0  0  0  0  0  0  0  0  0
   15.8211   -6.7957  -11.4216 C   0  0  0  0  0  0  0  0  0  0  0  0
   14.7491   -6.3458  -11.9329 O   0  0  0  0  0  0  0  0  0  0  0  0
   13.0318   -7.8456   -8.4785 C   0  0  0  0  0  0  0  0  0  0  0  0
   14.4168   -7.8615   -7.8781 C   0  0  0  0  0  0  0  0  0  0  0  0
   14.9420   -6.4638   -7.8332 C   0  0  2  0  0  0  0  0  0  0  0  0
   14.0229   -5.6228   -6.9788 C   0  0  0  0  0  0  0  0  0  0  0  0
   15.0874   -5.8491   -9.2075 C   0  0  2  0  0  0  0  0  0  0  0  0
   16.0137   -6.5622  -10.0364 N   0  0  0  0  0  0  0  0  0  0  0  0
   15.4916   -4.4324   -9.0931 C   0  0  0  0  0  0  0  0  0  0  0  0
   16.8130   -4.0467   -9.2051 O   0  0  0  0  0  0  0  0  0  0  0  0
   14.6255   -3.5534   -8.8901 O   0  0  0  0  0  0  0  0  0  0  0  0
  2  1  1  0
  3  2  2  0
  4  2  1  0
  5  6  1  1
  5  4  1  0
  7  8  2  0
  7  5  1  0
  9  7  1  0
 10  9  1  0
 10 13  1  0
 10 11  1  6
 12 11  1  0
 13 20  1  0
 13 14  2  0
 16 15  1  0
 17 16  1  0
 17 18  1  1
 19 17  1  0
 19 20  1  6
 21 22  1  0
 21 19  1  0
 23 21  2  0
M  END
$$$$
