NCI.pdb
     RDKit          3D

 23 22  0  0  1  0  0  0  0  0999 V2000
   27.0547  -23.1227  -15.6532 N   0  0  0  0  0  0  0  0  0  0  0  0
   27.9826  -22.1011  -15.3226 C   0  0  0  0  0  0  0  0  0  0  0  0
   29.1847  -22.2327  -15.6410 O   0  0  0  0  0  0  0  0  0  0  0  0
   27.5850  -20.8642  -14.6048 C   0  0  0  0  0  0  0  0  0  0  0  0
   26.1064  -20.9109  -14.2273 C   0  0  2  0  0  0  0  0  0  0  0  0
   25.2873  -20.2973  -15.2272 N   0  0  0  0  0  0  0  0  0  0  0  0
   26.0034  -20.1750  -12.9178 C   0  0  0  0  0  0  0  0  0  0  0  0
   26.3779  -18.9799  -12.8311 O   0  0  0  0  0  0  0  0  0  0  0  0
   25.4879  -20.7937  -11.7531 N   0  0  0  0  0  0  0  0  0  0  0  0
   25.3356  -20.0134  -10.5479 C   0  0  1  0  0  0  0  0  0  0  0  0
   23.8508  -19.7320  -10.2739 C   0  0  0  0  0  0  0  0  0  0  0  0
   22.8136  -21.1218  -10.7319 S   0  0  0  0  0  0  0  0  0  0  0  0
   25.8738  -20.7364   -9.3614 C   0  0  0  0  0  0  0  0  0  0  0  0
   25.9755  -22.0018   -9.3231 O   0  0  0  0  0  0  0  0  0  0  0  0
   29.3514  -18.1710   -5.8099 C   0  0  0  0  0  0  0  0  0  0  0  0
   28.7505  -19.2331   -6.6988 C   0  0  0  0  0  0  0  0  0  0  0  0
   27.4796  -19.7193   -6.0824 C   0  0  2  0  0  0  0  0  0  0  0  0
   27.8006  -20.4045   -4.7750 C   0  0  0  0  0  0  0  0  0  0  0  0
   26.7105  -20.6548   -6.9888 C   0  0  2  0  0  0  0  0  0  0  0  0
   26.3001  -20.0274   -8.2100 N   0  0  0  0  0  0  0  0  0  0  0  0
   25.5371  -21.2041   -6.2783 C   0  0  0  0  0  0  0  0  0  0  0  0
   24.2701  -20.6887   -6.4696 O   0  0  0  0  0  0  0  0  0  0  0  0
   25.6826  -22.1579   -5.4827 O   0  0  0  0  0  0  0  0  0  0  0  0
  2  1  1  0
  3  2  2  0
  4  2  1  0
  5  6  1  6
  5  4  1  0
  7  8  2  0
  7  5  1  0
  9  7  1  0
 10  9  1  0
 10 13  1  0
 10 11  1  1
 12 11  1  0
 13 20  1  0
 13 14  2  0
 16 15  1  0
 17 16  1  0
 17 18  1  1
 19 17  1  0
 19 20  1  6
 21 22  1  0
 21 19  1  0
 23 21  2  0
M  END
$$$$
