FSD.pdb
     RDKit          3D

 26 26  0  0  1  0  0  0  0  0999 V2000
    5.9264  -17.7847   25.3100 N   0  0  0  0  0  0  0  0  0  0  0  0
    6.5563  -16.4929   25.0312 C   0  0  1  0  0  0  0  0  0  0  0  0
    6.9019  -15.8152   26.3171 C   0  0  0  0  0  0  0  0  0  0  0  0
    6.8412  -14.3538   26.2951 C   0  0  0  0  0  0  0  0  0  0  0  0
    7.9737  -13.5577   26.1098 C   0  0  0  0  0  0  0  0  0  0  0  0
    7.8450  -12.1853   26.0927 C   0  0  0  0  0  0  0  0  0  0  0  0
    6.6332  -11.5826   26.2531 C   0  0  0  0  0  0  0  0  0  0  0  0
    5.5071  -12.3336   26.4362 C   0  0  0  0  0  0  0  0  0  0  0  0
    5.6223  -13.7243   26.4556 C   0  0  0  0  0  0  0  0  0  0  0  0
    7.7534  -16.7651   24.2041 C   0  0  0  0  0  0  0  0  0  0  0  0
    8.5092  -17.7074   24.5247 O   0  0  0  0  0  0  0  0  0  0  0  0
    9.3509  -14.1904   21.2537 O   0  0  0  0  0  0  0  0  0  0  0  0
    9.0966  -15.5393   20.9381 C   0  0  0  0  0  0  0  0  0  0  0  0
    9.2243  -16.3225   22.2051 C   0  0  2  0  0  0  0  0  0  0  0  0
    8.0915  -16.0029   23.0522 N   0  0  0  0  0  0  0  0  0  0  0  0
   10.5085  -16.1327   22.9000 C   0  0  0  0  0  0  0  0  0  0  0  0
   10.5789  -15.2262   23.7704 O   0  0  0  0  0  0  0  0  0  0  0  0
   11.6687  -16.9020   22.6543 N   0  0  0  0  0  0  0  0  0  0  0  0
   12.9165  -16.7179   23.3539 C   0  0  1  0  0  0  0  0  0  0  0  0
   13.4127  -17.9542   24.0273 C   0  0  0  0  0  0  0  0  0  0  0  0
   14.6949  -17.8103   24.7063 C   0  0  0  0  0  0  0  0  0  0  0  0
   15.2784  -16.7034   24.7363 O   0  0  0  0  0  0  0  0  0  0  0  0
   13.9484  -16.1102   22.5054 C   0  0  0  0  0  0  0  0  0  0  0  0
   13.9908  -16.4249   21.2889 O   0  0  0  0  0  0  0  0  0  0  0  0
   15.2982  -18.8867   25.3322 O   0  0  0  0  0  0  0  0  0  0  0  0
   14.8886  -15.2014   22.9673 O   0  0  0  0  0  0  0  0  0  0  0  0
  2  1  1  1
  3  2  1  0
  4  9  2  0
  4  3  1  0
  5  4  1  0
  6  7  1  0
  6  5  2  0
  7  8  2  0
  8  9  1  0
 10  2  1  0
 10 11  2  0
 13 12  1  0
 14 15  1  0
 14 13  1  6
 15 10  1  0
 16 14  1  0
 17 16  2  0
 18 16  1  0
 19 23  1  0
 19 18  1  0
 19 20  1  6
 20 21  1  0
 21 22  2  0
 23 26  1  0
 24 23  2  0
 25 21  1  0
M  END
$$$$
