FSD.pdb
     RDKit          3D

 26 26  0  0  1  0  0  0  0  0999 V2000
    5.9514  -18.0601   25.5634 N   0  0  0  0  0  0  0  0  0  0  0  0
    6.2936  -16.6438   25.4209 C   0  0  1  0  0  0  0  0  0  0  0  0
    6.7875  -16.1131   26.7273 C   0  0  0  0  0  0  0  0  0  0  0  0
    6.9673  -14.6628   26.7905 C   0  0  0  0  0  0  0  0  0  0  0  0
    5.8921  -13.7757   26.8801 C   0  0  0  0  0  0  0  0  0  0  0  0
    6.1325  -12.4198   26.9429 C   0  0  0  0  0  0  0  0  0  0  0  0
    7.4004  -11.9204   26.9197 C   0  0  0  0  0  0  0  0  0  0  0  0
    8.4727  -12.7619   26.8328 C   0  0  0  0  0  0  0  0  0  0  0  0
    8.2445  -14.1373   26.7685 C   0  0  0  0  0  0  0  0  0  0  0  0
    7.3188  -16.5516   24.3571 C   0  0  0  0  0  0  0  0  0  0  0  0
    8.2441  -17.3914   24.3337 O   0  0  0  0  0  0  0  0  0  0  0  0
    8.1478  -14.9852   20.0333 O   0  0  0  0  0  0  0  0  0  0  0  0
    7.8712  -14.4520   21.3072 C   0  0  0  0  0  0  0  0  0  0  0  0
    8.3185  -15.4604   22.3162 C   0  0  2  0  0  0  0  0  0  0  0  0
    7.3057  -15.5473   23.3504 N   0  0  0  0  0  0  0  0  0  0  0  0
    9.6574  -15.2002   22.8705 C   0  0  0  0  0  0  0  0  0  0  0  0
    9.7344  -14.7995   24.0612 O   0  0  0  0  0  0  0  0  0  0  0  0
   10.8637  -15.3709   22.1533 N   0  0  0  0  0  0  0  0  0  0  0  0
   12.0320  -16.0229   22.6921 C   0  0  1  0  0  0  0  0  0  0  0  0
   11.7362  -17.3256   23.3583 C   0  0  0  0  0  0  0  0  0  0  0  0
   12.1727  -17.4176   24.7464 C   0  0  0  0  0  0  0  0  0  0  0  0
   12.8477  -16.4991   25.2635 O   0  0  0  0  0  0  0  0  0  0  0  0
   13.1069  -16.1514   21.7012 C   0  0  0  0  0  0  0  0  0  0  0  0
   14.2553  -15.7356   22.0000 O   0  0  0  0  0  0  0  0  0  0  0  0
   11.8546  -18.5159   25.5254 O   0  0  0  0  0  0  0  0  0  0  0  0
   12.9324  -16.7086   20.4432 O   0  0  0  0  0  0  0  0  0  0  0  0
  2  1  1  1
  3  2  1  0
  4  9  2  0
  4  3  1  0
  5  4  1  0
  6  7  1  0
  6  5  2  0
  7  8  2  0
  8  9  1  0
 10  2  1  0
 10 11  2  0
 13 12  1  0
 14 15  1  0
 14 13  1  6
 15 10  1  0
 16 14  1  0
 17 16  2  0
 18 16  1  0
 19 23  1  0
 19 18  1  0
 19 20  1  6
 20 21  1  0
 21 22  2  0
 23 26  1  0
 24 23  2  0
 25 21  1  0
M  END
$$$$
