FSD.pdb
     RDKit          3D

 26 26  0  0  1  0  0  0  0  0999 V2000
    7.9679  -13.2439   23.5960 N   0  0  0  0  0  0  0  0  0  0  0  0
    8.1966  -14.4380   24.4115 C   0  0  1  0  0  0  0  0  0  0  0  0
    7.1467  -14.5310   25.4703 C   0  0  0  0  0  0  0  0  0  0  0  0
    6.8343  -13.2790   26.1594 C   0  0  0  0  0  0  0  0  0  0  0  0
    5.5476  -12.7363   26.1848 C   0  0  0  0  0  0  0  0  0  0  0  0
    5.3206  -11.5555   26.8589 C   0  0  0  0  0  0  0  0  0  0  0  0
    6.3263  -10.9008   27.5049 C   0  0  0  0  0  0  0  0  0  0  0  0
    7.5953  -11.4058   27.4985 C   0  0  0  0  0  0  0  0  0  0  0  0
    7.8399  -12.6007   26.8201 C   0  0  0  0  0  0  0  0  0  0  0  0
    8.1694  -15.5996   23.4944 C   0  0  0  0  0  0  0  0  0  0  0  0
    8.0772  -16.7492   23.9761 O   0  0  0  0  0  0  0  0  0  0  0  0
    8.5865  -15.0185   19.4076 O   0  0  0  0  0  0  0  0  0  0  0  0
    8.4191  -16.3406   19.8631 C   0  0  0  0  0  0  0  0  0  0  0  0
    8.9794  -16.4066   21.2476 C   0  0  2  0  0  0  0  0  0  0  0  0
    8.2434  -15.4746   22.0798 N   0  0  0  0  0  0  0  0  0  0  0  0
   10.4333  -16.1844   21.3167 C   0  0  0  0  0  0  0  0  0  0  0  0
   10.8435  -14.9994   21.4254 O   0  0  0  0  0  0  0  0  0  0  0  0
   11.4000  -17.2148   21.2693 N   0  0  0  0  0  0  0  0  0  0  0  0
   12.6853  -17.1396   21.9196 C   0  0  1  0  0  0  0  0  0  0  0  0
   12.6088  -16.7133   23.3480 C   0  0  0  0  0  0  0  0  0  0  0  0
   13.8926  -16.6377   24.0350 C   0  0  0  0  0  0  0  0  0  0  0  0
   14.7735  -15.8354   23.6512 O   0  0  0  0  0  0  0  0  0  0  0  0
   13.4641  -18.3735   21.7619 C   0  0  0  0  0  0  0  0  0  0  0  0
   12.9179  -19.4710   22.0412 O   0  0  0  0  0  0  0  0  0  0  0  0
   14.1708  -17.4455   25.1233 O   0  0  0  0  0  0  0  0  0  0  0  0
   14.7782  -18.4039   21.3197 O   0  0  0  0  0  0  0  0  0  0  0  0
  2  1  1  6
  3  2  1  0
  4  9  2  0
  4  3  1  0
  5  4  1  0
  6  7  1  0
  6  5  2  0
  7  8  2  0
  8  9  1  0
 10  2  1  0
 10 11  2  0
 13 12  1  0
 14 15  1  0
 14 13  1  6
 15 10  1  0
 16 14  1  0
 17 16  2  0
 18 16  1  0
 19 23  1  0
 19 18  1  0
 19 20  1  1
 20 21  1  0
 21 22  2  0
 23 26  1  0
 24 23  2  0
 25 21  1  0
M  END
$$$$
