FSD.pdb
     RDKit          3D

 26 26  0  0  1  0  0  0  0  0999 V2000
    6.3445  -16.3768   25.5120 N   0  0  0  0  0  0  0  0  0  0  0  0
    7.2514  -15.5572   24.7064 C   0  0  1  0  0  0  0  0  0  0  0  0
    8.0091  -14.6257   25.5955 C   0  0  0  0  0  0  0  0  0  0  0  0
    7.3025  -13.4020   25.9740 C   0  0  0  0  0  0  0  0  0  0  0  0
    6.5622  -13.2963   27.1537 C   0  0  0  0  0  0  0  0  0  0  0  0
    5.9259  -12.1108   27.4534 C   0  0  0  0  0  0  0  0  0  0  0  0
    6.0015  -11.0332   26.6225 C   0  0  0  0  0  0  0  0  0  0  0  0
    6.7176  -11.1049   25.4616 C   0  0  0  0  0  0  0  0  0  0  0  0
    7.3673  -12.2989   25.1452 C   0  0  0  0  0  0  0  0  0  0  0  0
    8.1454  -16.4874   23.9806 C   0  0  0  0  0  0  0  0  0  0  0  0
    8.5461  -17.5189   24.5614 O   0  0  0  0  0  0  0  0  0  0  0  0
   10.0008  -15.3719   20.4332 O   0  0  0  0  0  0  0  0  0  0  0  0
    9.6400  -16.7276   20.5578 C   0  0  0  0  0  0  0  0  0  0  0  0
    9.6241  -17.0494   22.0178 C   0  0  2  0  0  0  0  0  0  0  0  0
    8.5762  -16.2664   22.6435 N   0  0  0  0  0  0  0  0  0  0  0  0
   10.9244  -16.8710   22.6848 C   0  0  0  0  0  0  0  0  0  0  0  0
   11.0919  -15.8364   23.3818 O   0  0  0  0  0  0  0  0  0  0  0  0
   11.9985  -17.7858   22.5946 N   0  0  0  0  0  0  0  0  0  0  0  0
   13.2781  -17.5860   23.2295 C   0  0  1  0  0  0  0  0  0  0  0  0
   13.5117  -18.4830   24.3995 C   0  0  0  0  0  0  0  0  0  0  0  0
   14.8001  -18.3077   25.0591 C   0  0  0  0  0  0  0  0  0  0  0  0
   15.5936  -17.4172   24.6793 O   0  0  0  0  0  0  0  0  0  0  0  0
   14.3904  -17.6394   22.2736 C   0  0  0  0  0  0  0  0  0  0  0  0
   14.4803  -18.6327   21.5080 O   0  0  0  0  0  0  0  0  0  0  0  0
   15.1788  -19.1159   26.1163 O   0  0  0  0  0  0  0  0  0  0  0  0
   15.3579  -16.6522   22.1616 O   0  0  0  0  0  0  0  0  0  0  0  0
  2  1  1  1
  3  2  1  0
  4  9  2  0
  4  3  1  0
  5  4  1  0
  6  7  1  0
  6  5  2  0
  7  8  2  0
  8  9  1  0
 10  2  1  0
 10 11  2  0
 13 12  1  0
 14 15  1  0
 14 13  1  6
 15 10  1  0
 16 14  1  0
 17 16  2  0
 18 16  1  0
 19 23  1  0
 19 18  1  0
 19 20  1  1
 20 21  1  0
 21 22  2  0
 23 26  1  0
 24 23  2  0
 25 21  1  0
M  END
$$$$
