FSD.pdb
     RDKit          3D

 26 26  0  0  1  0  0  0  0  0999 V2000
    6.1749  -16.9595   25.3749 N   0  0  0  0  0  0  0  0  0  0  0  0
    7.0717  -15.8996   24.9107 C   0  0  1  0  0  0  0  0  0  0  0  0
    7.6057  -15.1446   26.0842 C   0  0  0  0  0  0  0  0  0  0  0  0
    7.2055  -13.7398   26.1643 C   0  0  0  0  0  0  0  0  0  0  0  0
    5.9094  -13.3462   26.5047 C   0  0  0  0  0  0  0  0  0  0  0  0
    5.6008  -12.0042   26.5686 C   0  0  0  0  0  0  0  0  0  0  0  0
    6.5343  -11.0465   26.3065 C   0  0  0  0  0  0  0  0  0  0  0  0
    7.8105  -11.3993   25.9711 C   0  0  0  0  0  0  0  0  0  0  0  0
    8.1374  -12.7544   25.9025 C   0  0  0  0  0  0  0  0  0  0  0  0
    8.1469  -16.5535   24.1311 C   0  0  0  0  0  0  0  0  0  0  0  0
    8.6763  -17.5917   24.5825 O   0  0  0  0  0  0  0  0  0  0  0  0
   10.0472  -14.8028   20.7539 O   0  0  0  0  0  0  0  0  0  0  0  0
    9.7100  -16.1702   20.7665 C   0  0  0  0  0  0  0  0  0  0  0  0
    9.7541  -16.6243   22.1902 C   0  0  2  0  0  0  0  0  0  0  0  0
    8.6133  -16.0571   22.8828 N   0  0  0  0  0  0  0  0  0  0  0  0
   11.0233  -16.3275   22.8747 C   0  0  0  0  0  0  0  0  0  0  0  0
   11.0816  -15.2889   23.5834 O   0  0  0  0  0  0  0  0  0  0  0  0
   12.1822  -17.1326   22.7890 N   0  0  0  0  0  0  0  0  0  0  0  0
   13.4338  -16.8081   23.4283 C   0  0  1  0  0  0  0  0  0  0  0  0
   13.9825  -17.9155   24.2654 C   0  0  0  0  0  0  0  0  0  0  0  0
   15.2806  -17.6417   24.8703 C   0  0  0  0  0  0  0  0  0  0  0  0
   15.4265  -16.6771   25.6545 O   0  0  0  0  0  0  0  0  0  0  0  0
   14.4307  -16.2997   22.4788 C   0  0  0  0  0  0  0  0  0  0  0  0
   15.5309  -15.8849   22.9242 O   0  0  0  0  0  0  0  0  0  0  0  0
   16.3799  -18.4357   24.5957 O   0  0  0  0  0  0  0  0  0  0  0  0
   14.2321  -16.2480   21.1072 O   0  0  0  0  0  0  0  0  0  0  0  0
  2  1  1  1
  3  2  1  0
  4  9  2  0
  4  3  1  0
  5  4  1  0
  6  7  1  0
  6  5  2  0
  7  8  2  0
  8  9  1  0
 10  2  1  0
 10 11  2  0
 13 12  1  0
 14 15  1  0
 14 13  1  6
 15 10  1  0
 16 14  1  0
 17 16  2  0
 18 16  1  0
 19 23  1  0
 19 18  1  0
 19 20  1  6
 20 21  1  0
 21 22  2  0
 23 26  1  0
 24 23  2  0
 25 21  1  0
M  END
$$$$
