FSD.pdb
     RDKit          3D

 26 26  0  0  1  0  0  0  0  0999 V2000
    6.4800  -16.4906   25.6079 N   0  0  0  0  0  0  0  0  0  0  0  0
    7.1864  -15.5180   24.7723 C   0  0  1  0  0  0  0  0  0  0  0  0
    8.0418  -14.6455   25.6321 C   0  0  0  0  0  0  0  0  0  0  0  0
    7.3588  -13.5123   26.2562 C   0  0  0  0  0  0  0  0  0  0  0  0
    6.5093  -12.6625   25.5443 C   0  0  0  0  0  0  0  0  0  0  0  0
    5.8915  -11.6165   26.1958 C   0  0  0  0  0  0  0  0  0  0  0  0
    6.0902  -11.3897   27.5248 C   0  0  0  0  0  0  0  0  0  0  0  0
    6.9150  -12.2030   28.2486 C   0  0  0  0  0  0  0  0  0  0  0  0
    7.5472  -13.2661   27.6022 C   0  0  0  0  0  0  0  0  0  0  0  0
    7.9831  -16.2887   23.7912 C   0  0  0  0  0  0  0  0  0  0  0  0
    8.3831  -17.4317   24.1005 O   0  0  0  0  0  0  0  0  0  0  0  0
    7.8832  -15.7942   19.8646 O   0  0  0  0  0  0  0  0  0  0  0  0
    9.2245  -15.7840   20.2939 C   0  0  0  0  0  0  0  0  0  0  0  0
    9.2677  -16.4563   21.6286 C   0  0  2  0  0  0  0  0  0  0  0  0
    8.3203  -15.7915   22.5023 N   0  0  0  0  0  0  0  0  0  0  0  0
   10.6139  -16.5273   22.2204 C   0  0  0  0  0  0  0  0  0  0  0  0
   10.9566  -15.6140   23.0159 O   0  0  0  0  0  0  0  0  0  0  0  0
   11.5482  -17.5544   21.9544 N   0  0  0  0  0  0  0  0  0  0  0  0
   12.8485  -17.6362   22.5732 C   0  0  1  0  0  0  0  0  0  0  0  0
   13.1589  -18.9829   23.1371 C   0  0  0  0  0  0  0  0  0  0  0  0
   14.4813  -19.1060   23.7386 C   0  0  0  0  0  0  0  0  0  0  0  0
   15.4629  -19.4648   23.0496 O   0  0  0  0  0  0  0  0  0  0  0  0
   13.9185  -17.1575   21.6900 C   0  0  0  0  0  0  0  0  0  0  0  0
   13.9012  -17.5014   20.4807 O   0  0  0  0  0  0  0  0  0  0  0  0
   14.6864  -18.8315   25.0791 O   0  0  0  0  0  0  0  0  0  0  0  0
   14.9576  -16.3413   22.1111 O   0  0  0  0  0  0  0  0  0  0  0  0
  2  1  1  1
  3  2  1  0
  4  9  2  0
  4  3  1  0
  5  4  1  0
  6  7  1  0
  6  5  2  0
  7  8  2  0
  8  9  1  0
 10  2  1  0
 10 11  2  0
 13 12  1  0
 14 15  1  0
 14 13  1  6
 15 10  1  0
 16 14  1  0
 17 16  2  0
 18 16  1  0
 19 23  1  0
 19 18  1  0
 19 20  1  6
 20 21  1  0
 21 22  2  0
 23 26  1  0
 24 23  2  0
 25 21  1  0
M  END
$$$$
