FSD.pdb
     RDKit          3D

 26 26  0  0  1  0  0  0  0  0999 V2000
    6.6117  -16.3687   26.1127 N   0  0  0  0  0  0  0  0  0  0  0  0
    6.2757  -16.0751   24.7184 C   0  0  1  0  0  0  0  0  0  0  0  0
    5.9177  -14.6310   24.5820 C   0  0  0  0  0  0  0  0  0  0  0  0
    6.5396  -13.7333   25.5553 C   0  0  0  0  0  0  0  0  0  0  0  0
    5.8455  -13.2174   26.6521 C   0  0  0  0  0  0  0  0  0  0  0  0
    6.4942  -12.3814   27.5355 C   0  0  0  0  0  0  0  0  0  0  0  0
    7.8035  -12.0438   27.3644 C   0  0  0  0  0  0  0  0  0  0  0  0
    8.5095  -12.5319   26.3019 C   0  0  0  0  0  0  0  0  0  0  0  0
    7.8657  -13.3796   25.3993 C   0  0  0  0  0  0  0  0  0  0  0  0
    7.4573  -16.4369   23.9034 C   0  0  0  0  0  0  0  0  0  0  0  0
    8.3131  -17.2085   24.3872 O   0  0  0  0  0  0  0  0  0  0  0  0
    8.6078  -14.4227   20.4863 O   0  0  0  0  0  0  0  0  0  0  0  0
    8.5873  -15.8273   20.3852 C   0  0  0  0  0  0  0  0  0  0  0  0
    8.7868  -16.3736   21.7624 C   0  0  2  0  0  0  0  0  0  0  0  0
    7.6715  -15.9476   22.5855 N   0  0  0  0  0  0  0  0  0  0  0  0
   10.0852  -16.0252   22.3629 C   0  0  0  0  0  0  0  0  0  0  0  0
   10.1629  -14.9525   23.0167 O   0  0  0  0  0  0  0  0  0  0  0  0
   11.2515  -16.8166   22.2539 N   0  0  0  0  0  0  0  0  0  0  0  0
   12.5397  -16.4223   22.7694 C   0  0  1  0  0  0  0  0  0  0  0  0
   13.2764  -17.5289   23.4481 C   0  0  0  0  0  0  0  0  0  0  0  0
   12.6238  -18.0605   24.6386 C   0  0  0  0  0  0  0  0  0  0  0  0
   12.0291  -17.2974   25.4328 O   0  0  0  0  0  0  0  0  0  0  0  0
   13.3683  -15.7601   21.7551 C   0  0  0  0  0  0  0  0  0  0  0  0
   14.4813  -15.2880   22.1003 O   0  0  0  0  0  0  0  0  0  0  0  0
   12.6439  -19.4148   24.9215 O   0  0  0  0  0  0  0  0  0  0  0  0
   12.9956  -15.6214   20.4265 O   0  0  0  0  0  0  0  0  0  0  0  0
  2  1  1  1
  3  2  1  0
  4  9  2  0
  4  3  1  0
  5  4  1  0
  6  7  1  0
  6  5  2  0
  7  8  2  0
  8  9  1  0
 10  2  1  0
 10 11  2  0
 13 12  1  0
 14 15  1  0
 14 13  1  6
 15 10  1  0
 16 14  1  0
 17 16  2  0
 18 16  1  0
 19 23  1  0
 19 18  1  0
 19 20  1  6
 20 21  1  0
 21 22  2  0
 23 26  1  0
 24 23  2  0
 25 21  1  0
M  END
$$$$
