FSD.pdb
     RDKit          3D

 26 26  0  0  1  0  0  0  0  0999 V2000
    6.3259  -16.2972   24.9929 N   0  0  0  0  0  0  0  0  0  0  0  0
    7.0343  -15.7945   23.8146 C   0  0  1  0  0  0  0  0  0  0  0  0
    6.6341  -14.3787   23.5546 C   0  0  0  0  0  0  0  0  0  0  0  0
    6.7998  -13.4603   24.6812 C   0  0  0  0  0  0  0  0  0  0  0  0
    5.9520  -13.4722   25.7911 C   0  0  0  0  0  0  0  0  0  0  0  0
    6.1687  -12.5832   26.8221 C   0  0  0  0  0  0  0  0  0  0  0  0
    7.1956  -11.6879   26.7851 C   0  0  0  0  0  0  0  0  0  0  0  0
    8.0420  -11.6515   25.7138 C   0  0  0  0  0  0  0  0  0  0  0  0
    7.8348  -12.5458   24.6625 C   0  0  0  0  0  0  0  0  0  0  0  0
    8.4825  -15.9233   24.0930 C   0  0  0  0  0  0  0  0  0  0  0  0
    9.3010  -15.5810   23.2128 O   0  0  0  0  0  0  0  0  0  0  0  0
    9.9083  -15.9025   27.7539 O   0  0  0  0  0  0  0  0  0  0  0  0
   10.7966  -15.6570   26.6890 C   0  0  0  0  0  0  0  0  0  0  0  0
   10.4157  -16.5764   25.5733 C   0  0  2  0  0  0  0  0  0  0  0  0
    8.9960  -16.4212   25.3221 N   0  0  0  0  0  0  0  0  0  0  0  0
   10.7889  -17.9822   25.8016 C   0  0  0  0  0  0  0  0  0  0  0  0
    9.8779  -18.7886   26.1242 O   0  0  0  0  0  0  0  0  0  0  0  0
   12.1040  -18.4871   25.6821 N   0  0  0  0  0  0  0  0  0  0  0  0
   12.5341  -19.7456   26.2403 C   0  0  1  0  0  0  0  0  0  0  0  0
   13.9362  -20.1109   25.8816 C   0  0  0  0  0  0  0  0  0  0  0  0
   14.2937  -19.8764   24.4877 C   0  0  0  0  0  0  0  0  0  0  0  0
   15.1817  -19.0461   24.1894 O   0  0  0  0  0  0  0  0  0  0  0  0
   12.3065  -19.8214   27.6882 C   0  0  0  0  0  0  0  0  0  0  0  0
   12.4817  -20.9226   28.2692 O   0  0  0  0  0  0  0  0  0  0  0  0
   13.6651  -20.5608   23.4626 O   0  0  0  0  0  0  0  0  0  0  0  0
   11.9061  -18.7428   28.4625 O   0  0  0  0  0  0  0  0  0  0  0  0
  2  1  1  1
  3  2  1  0
  4  9  2  0
  4  3  1  0
  5  4  1  0
  6  7  1  0
  6  5  2  0
  7  8  2  0
  8  9  1  0
 10  2  1  0
 10 11  2  0
 13 12  1  0
 14 15  1  0
 14 13  1  1
 15 10  1  0
 16 14  1  0
 17 16  2  0
 18 16  1  0
 19 23  1  0
 19 18  1  0
 19 20  1  1
 20 21  1  0
 21 22  2  0
 23 26  1  0
 24 23  2  0
 25 21  1  0
M  END
$$$$
