FSD.pdb
     RDKit          3D

 26 26  0  0  1  0  0  0  0  0999 V2000
    6.4558  -16.9002   25.6946 N   0  0  0  0  0  0  0  0  0  0  0  0
    7.1858  -15.8515   24.9802 C   0  0  1  0  0  0  0  0  0  0  0  0
    7.8192  -14.9221   25.9637 C   0  0  0  0  0  0  0  0  0  0  0  0
    7.0401  -13.7292   26.2950 C   0  0  0  0  0  0  0  0  0  0  0  0
    6.5255  -13.4990   27.5729 C   0  0  0  0  0  0  0  0  0  0  0  0
    5.8050  -12.3499   27.8192 C   0  0  0  0  0  0  0  0  0  0  0  0
    5.5811  -11.4275   26.8411 C   0  0  0  0  0  0  0  0  0  0  0  0
    6.0711  -11.6237   25.5814 C   0  0  0  0  0  0  0  0  0  0  0  0
    6.8026  -12.7826   25.3175 C   0  0  0  0  0  0  0  0  0  0  0  0
    8.1877  -16.5276   24.1255 C   0  0  0  0  0  0  0  0  0  0  0  0
    8.7392  -17.5674   24.5459 O   0  0  0  0  0  0  0  0  0  0  0  0
   10.3428  -15.2161   20.3970 O   0  0  0  0  0  0  0  0  0  0  0  0
    9.3910  -16.2323   20.6089 C   0  0  0  0  0  0  0  0  0  0  0  0
    9.5569  -16.7082   22.0165 C   0  0  2  0  0  0  0  0  0  0  0  0
    8.5589  -16.0511   22.8381 N   0  0  0  0  0  0  0  0  0  0  0  0
   10.9178  -16.5354   22.5509 C   0  0  0  0  0  0  0  0  0  0  0  0
   11.2186  -15.4182   23.0466 O   0  0  0  0  0  0  0  0  0  0  0  0
   11.9103  -17.5421   22.5444 N   0  0  0  0  0  0  0  0  0  0  0  0
   13.2640  -17.3372   22.9982 C   0  0  1  0  0  0  0  0  0  0  0  0
   13.8335  -18.5077   23.7287 C   0  0  0  0  0  0  0  0  0  0  0  0
   13.3164  -18.6991   25.0784 C   0  0  0  0  0  0  0  0  0  0  0  0
   12.8424  -17.7351   25.7210 O   0  0  0  0  0  0  0  0  0  0  0  0
   14.1519  -16.8850   21.9207 C   0  0  0  0  0  0  0  0  0  0  0  0
   15.3356  -16.5717   22.2064 O   0  0  0  0  0  0  0  0  0  0  0  0
   13.3353  -19.9438   25.6824 O   0  0  0  0  0  0  0  0  0  0  0  0
   13.7620  -16.7808   20.5939 O   0  0  0  0  0  0  0  0  0  0  0  0
  2  1  1  1
  3  2  1  0
  4  9  2  0
  4  3  1  0
  5  4  1  0
  6  7  1  0
  6  5  2  0
  7  8  2  0
  8  9  1  0
 10  2  1  0
 10 11  2  0
 13 12  1  0
 14 15  1  0
 14 13  1  6
 15 10  1  0
 16 14  1  0
 17 16  2  0
 18 16  1  0
 19 23  1  0
 19 18  1  0
 19 20  1  6
 20 21  1  0
 21 22  2  0
 23 26  1  0
 24 23  2  0
 25 21  1  0
M  END
$$$$
