FSD.pdb
     RDKit          3D

 26 26  0  0  1  0  0  0  0  0999 V2000
    6.6386  -16.7119   25.8177 N   0  0  0  0  0  0  0  0  0  0  0  0
    6.5223  -16.4437   24.3833 C   0  0  1  0  0  0  0  0  0  0  0  0
    6.0811  -15.0322   24.1710 C   0  0  0  0  0  0  0  0  0  0  0  0
    6.4765  -14.0851   25.2134 C   0  0  0  0  0  0  0  0  0  0  0  0
    7.8004  -13.6798   25.3972 C   0  0  0  0  0  0  0  0  0  0  0  0
    8.1035  -12.7784   26.3951 C   0  0  0  0  0  0  0  0  0  0  0  0
    7.1378  -12.2700   27.2116 C   0  0  0  0  0  0  0  0  0  0  0  0
    5.8340  -12.6467   27.0572 C   0  0  0  0  0  0  0  0  0  0  0  0
    5.5124  -13.5586   26.0508 C   0  0  0  0  0  0  0  0  0  0  0  0
    7.8496  -16.7100   23.7845 C   0  0  0  0  0  0  0  0  0  0  0  0
    8.7318  -17.2521   24.4845 O   0  0  0  0  0  0  0  0  0  0  0  0
    9.4739  -15.0371   20.2696 O   0  0  0  0  0  0  0  0  0  0  0  0
    9.3417  -16.4364   20.3592 C   0  0  0  0  0  0  0  0  0  0  0  0
    9.4128  -16.7962   21.8086 C   0  0  2  0  0  0  0  0  0  0  0  0
    8.1767  -16.3781   22.4410 N   0  0  0  0  0  0  0  0  0  0  0  0
   10.5984  -16.2640   22.5005 C   0  0  0  0  0  0  0  0  0  0  0  0
   10.4146  -15.4506   23.4434 O   0  0  0  0  0  0  0  0  0  0  0  0
   11.9311  -16.6064   22.1760 N   0  0  0  0  0  0  0  0  0  0  0  0
   13.0240  -16.5560   23.1159 C   0  0  1  0  0  0  0  0  0  0  0  0
   12.8551  -17.4757   24.2794 C   0  0  0  0  0  0  0  0  0  0  0  0
   13.9755  -17.4968   25.2122 C   0  0  0  0  0  0  0  0  0  0  0  0
   15.1011  -17.9037   24.8458 O   0  0  0  0  0  0  0  0  0  0  0  0
   14.3279  -16.7354   22.4666 C   0  0  0  0  0  0  0  0  0  0  0  0
   14.4760  -17.6935   21.6660 O   0  0  0  0  0  0  0  0  0  0  0  0
   13.8262  -17.0703   26.5200 O   0  0  0  0  0  0  0  0  0  0  0  0
   15.4174  -15.9053   22.6839 O   0  0  0  0  0  0  0  0  0  0  0  0
  2  1  1  1
  3  2  1  0
  4  9  2  0
  4  3  1  0
  5  4  1  0
  6  7  1  0
  6  5  2  0
  7  8  2  0
  8  9  1  0
 10  2  1  0
 10 11  2  0
 13 12  1  0
 14 15  1  0
 14 13  1  6
 15 10  1  0
 16 14  1  0
 17 16  2  0
 18 16  1  0
 19 23  1  0
 19 18  1  0
 19 20  1  1
 20 21  1  0
 21 22  2  0
 23 26  1  0
 24 23  2  0
 25 21  1  0
M  END
$$$$
