FSD.pdb
     RDKit          3D

 26 26  0  0  1  0  0  0  0  0999 V2000
   -6.9767  -22.2646   24.0958 N   0  0  0  0  0  0  0  0  0  0  0  0
   -5.8774  -22.5897   25.0063 C   0  0  1  0  0  0  0  0  0  0  0  0
   -5.4764  -21.3669   25.7654 C   0  0  0  0  0  0  0  0  0  0  0  0
   -4.5510  -20.4706   25.0724 C   0  0  0  0  0  0  0  0  0  0  0  0
   -3.2532  -20.8528   24.7255 C   0  0  0  0  0  0  0  0  0  0  0  0
   -2.4345  -19.9606   24.0668 C   0  0  0  0  0  0  0  0  0  0  0  0
   -2.8625  -18.7076   23.7437 C   0  0  0  0  0  0  0  0  0  0  0  0
   -4.1261  -18.3040   24.0692 C   0  0  0  0  0  0  0  0  0  0  0  0
   -4.9662  -19.1969   24.7362 C   0  0  0  0  0  0  0  0  0  0  0  0
   -6.3597  -23.6679   25.8987 C   0  0  0  0  0  0  0  0  0  0  0  0
   -7.5354  -23.6241   26.3205 O   0  0  0  0  0  0  0  0  0  0  0  0
   -3.9685  -26.8860   26.8504 O   0  0  0  0  0  0  0  0  0  0  0  0
   -5.3503  -27.1081   26.6927 C   0  0  0  0  0  0  0  0  0  0  0  0
   -6.0511  -25.8559   27.1122 C   0  0  2  0  0  0  0  0  0  0  0  0
   -5.5470  -24.7617   26.3050 N   0  0  0  0  0  0  0  0  0  0  0  0
   -5.9580  -25.5715   28.5538 C   0  0  0  0  0  0  0  0  0  0  0  0
   -5.1481  -24.6836   28.9279 O   0  0  0  0  0  0  0  0  0  0  0  0
   -6.7190  -26.2299   29.5466 N   0  0  0  0  0  0  0  0  0  0  0  0
   -6.5253  -26.0403   30.9633 C   0  0  1  0  0  0  0  0  0  0  0  0
   -7.4379  -26.8663   31.8076 C   0  0  0  0  0  0  0  0  0  0  0  0
   -7.5900  -26.4022   33.1814 C   0  0  0  0  0  0  0  0  0  0  0  0
   -6.9450  -25.4119   33.5938 O   0  0  0  0  0  0  0  0  0  0  0  0
   -5.1220  -26.2019   31.3618 C   0  0  0  0  0  0  0  0  0  0  0  0
   -4.4644  -27.1583   30.8784 O   0  0  0  0  0  0  0  0  0  0  0  0
   -8.4463  -27.0398   34.0616 O   0  0  0  0  0  0  0  0  0  0  0  0
   -4.4704  -25.3566   32.2473 O   0  0  0  0  0  0  0  0  0  0  0  0
  2  1  1  6
  3  2  1  0
  4  9  2  0
  4  3  1  0
  5  4  1  0
  6  7  1  0
  6  5  2  0
  7  8  2  0
  8  9  1  0
 10  2  1  0
 10 11  2  0
 13 12  1  0
 14 15  1  0
 14 13  1  1
 15 10  1  0
 16 14  1  0
 17 16  2  0
 18 16  1  0
 19 23  1  0
 19 18  1  0
 19 20  1  1
 20 21  1  0
 21 22  2  0
 23 26  1  0
 24 23  2  0
 25 21  1  0
M  END
$$$$
