LQL.pdb
     RDKit          3D

 26 25  0  0  1  0  0  0  0  0999 V2000
   24.9703  -32.0981   -4.7213 C   0  0  0  0  0  0  0  0  0  0  0  0
   25.3991  -33.5510   -4.8151 C   0  0  2  0  0  0  0  0  0  0  0  0
   24.5935  -34.2544   -5.8776 C   0  0  0  0  0  0  0  0  0  0  0  0
   25.2731  -34.2487   -3.4663 C   0  0  0  0  0  0  0  0  0  0  0  0
   26.1180  -33.4636   -2.4858 C   0  0  2  0  0  0  0  0  0  0  0  0
   27.4651  -33.4182   -3.0067 N   0  0  0  0  0  0  0  0  0  0  0  0
   26.1280  -34.0584   -1.1434 C   0  0  0  0  0  0  0  0  0  0  0  0
   25.0806  -34.3110   -0.4860 O   0  0  0  0  0  0  0  0  0  0  0  0
   31.4132  -36.5470    1.3610 N   0  0  0  0  0  0  0  0  0  0  0  0
   30.4268  -36.8875    2.3030 C   0  0  0  0  0  0  0  0  0  0  0  0
   30.8215  -37.5974    3.2905 O   0  0  0  0  0  0  0  0  0  0  0  0
   28.9983  -36.4547    2.1741 C   0  0  0  0  0  0  0  0  0  0  0  0
   28.8966  -35.6147    0.9275 C   0  0  0  0  0  0  0  0  0  0  0  0
   27.5185  -35.0578    0.7157 C   0  0  2  0  0  0  0  0  0  0  0  0
   27.3733  -34.3712   -0.5406 N   0  0  0  0  0  0  0  0  0  0  0  0
   27.2854  -34.0652    1.8251 C   0  0  0  0  0  0  0  0  0  0  0  0
   27.9349  -32.9843    1.8505 O   0  0  0  0  0  0  0  0  0  0  0  0
   26.1560  -30.4097    4.4665 C   0  0  0  0  0  0  0  0  0  0  0  0
   25.1298  -30.9809    3.5237 C   0  0  2  0  0  0  0  0  0  0  0  0
   23.8780  -30.2060    3.5596 C   0  0  0  0  0  0  0  0  0  0  0  0
   24.9685  -32.4562    3.5801 C   0  0  0  0  0  0  0  0  0  0  0  0
   26.1361  -33.2866    3.9225 C   0  0  2  0  0  0  0  0  0  0  0  0
   26.3537  -34.3019    2.8530 N   0  0  0  0  0  0  0  0  0  0  0  0
   26.2024  -33.9233    5.2334 C   0  0  0  0  0  0  0  0  0  0  0  0
   25.9776  -35.1024    5.5048 O   0  0  0  0  0  0  0  0  0  0  0  0
   26.5666  -33.0958    6.3278 O   0  0  0  0  0  0  0  0  0  0  0  0
  2  1  1  1
  2  3  1  0
  2  4  1  0
  5  4  1  0
  5  7  1  0
  5  6  1  6
  7 15  1  0
  7  8  2  0
 10  9  1  0
 10 12  1  0
 11 10  2  0
 13 12  1  0
 14 13  1  1
 14 16  1  0
 15 14  1  0
 16 23  1  0
 16 17  2  0
 19 18  1  1
 19 20  1  0
 22 21  1  6
 21 19  1  0
 22 24  1  0
 23 22  1  0
 24 26  1  0
 25 24  2  0
M  END
$$$$
