LQL.pdb
     RDKit          3D

 26 25  0  0  1  0  0  0  0  0999 V2000
   25.2874  -16.1761  -19.3578 C   0  0  0  0  0  0  0  0  0  0  0  0
   26.2306  -16.9616  -18.4651 C   0  0  2  0  0  0  0  0  0  0  0  0
   27.5673  -17.1170  -19.1446 C   0  0  0  0  0  0  0  0  0  0  0  0
   25.6345  -18.3133  -18.0914 C   0  0  0  0  0  0  0  0  0  0  0  0
   26.4040  -18.8143  -16.8880 C   0  0  2  0  0  0  0  0  0  0  0  0
   27.5788  -19.5011  -17.3741 N   0  0  0  0  0  0  0  0  0  0  0  0
   25.6135  -19.7232  -16.0482 C   0  0  0  0  0  0  0  0  0  0  0  0
   25.2523  -20.8748  -16.4174 O   0  0  0  0  0  0  0  0  0  0  0  0
   24.3580  -21.2875   -8.9335 N   0  0  0  0  0  0  0  0  0  0  0  0
   24.8874  -20.7102  -10.1009 C   0  0  0  0  0  0  0  0  0  0  0  0
   25.9435  -20.0068   -9.9445 O   0  0  0  0  0  0  0  0  0  0  0  0
   24.2664  -20.8967  -11.4516 C   0  0  0  0  0  0  0  0  0  0  0  0
   24.9947  -19.9880  -12.4076 C   0  0  0  0  0  0  0  0  0  0  0  0
   24.4902  -20.1066  -13.8167 C   0  0  2  0  0  0  0  0  0  0  0  0
   25.2280  -19.2982  -14.7511 N   0  0  0  0  0  0  0  0  0  0  0  0
   23.0630  -19.6239  -13.7999 C   0  0  0  0  0  0  0  0  0  0  0  0
   22.7961  -18.4596  -13.3947 O   0  0  0  0  0  0  0  0  0  0  0  0
   20.2357  -17.4605  -16.1188 C   0  0  0  0  0  0  0  0  0  0  0  0
   20.5203  -18.8935  -16.4841 C   0  0  2  0  0  0  0  0  0  0  0  0
   20.2058  -19.1596  -17.8979 C   0  0  0  0  0  0  0  0  0  0  0  0
   20.0208  -19.9053  -15.5183 C   0  0  0  0  0  0  0  0  0  0  0  0
   20.5937  -19.9368  -14.1615 C   0  0  2  0  0  0  0  0  0  0  0  0
   21.9965  -20.4368  -14.2268 N   0  0  0  0  0  0  0  0  0  0  0  0
   19.8710  -20.6210  -13.0948 C   0  0  0  0  0  0  0  0  0  0  0  0
   18.8333  -20.2581  -12.5417 O   0  0  0  0  0  0  0  0  0  0  0  0
   20.4202  -21.8466  -12.6352 O   0  0  0  0  0  0  0  0  0  0  0  0
  2  1  1  6
  2  3  1  0
  2  4  1  0
  5  4  1  0
  5  7  1  0
  5  6  1  6
  7 15  1  0
  7  8  2  0
 10  9  1  0
 10 12  1  0
 11 10  2  0
 13 12  1  0
 14 13  1  1
 14 16  1  0
 15 14  1  0
 16 23  1  0
 16 17  2  0
 19 18  1  1
 19 20  1  0
 22 21  1  6
 21 19  1  0
 22 24  1  0
 23 22  1  0
 24 26  1  0
 25 24  2  0
M  END
$$$$
