LQL.pdb
     RDKit          3D

 26 25  0  0  1  0  0  0  0  0999 V2000
   20.1881  -18.8769  -16.8153 C   0  0  0  0  0  0  0  0  0  0  0  0
   20.7792  -20.0515  -17.5733 C   0  0  2  0  0  0  0  0  0  0  0  0
   19.6733  -20.9437  -18.0770 C   0  0  0  0  0  0  0  0  0  0  0  0
   21.7672  -20.8229  -16.7068 C   0  0  0  0  0  0  0  0  0  0  0  0
   22.8055  -19.8281  -16.2339 C   0  0  2  0  0  0  0  0  0  0  0  0
   23.4413  -19.2686  -17.4048 N   0  0  0  0  0  0  0  0  0  0  0  0
   23.8204  -20.4380  -15.3656 C   0  0  0  0  0  0  0  0  0  0  0  0
   23.5828  -21.4048  -14.5898 O   0  0  0  0  0  0  0  0  0  0  0  0
   29.3558  -22.5363  -15.4352 N   0  0  0  0  0  0  0  0  0  0  0  0
   28.2196  -21.9526  -16.0224 C   0  0  0  0  0  0  0  0  0  0  0  0
   27.2864  -22.7614  -16.3534 O   0  0  0  0  0  0  0  0  0  0  0  0
   28.0929  -20.4777  -16.2533 C   0  0  0  0  0  0  0  0  0  0  0  0
   27.5615  -19.8702  -14.9811 C   0  0  0  0  0  0  0  0  0  0  0  0
   26.2251  -20.4294  -14.5870 C   0  0  2  0  0  0  0  0  0  0  0  0
   25.1422  -19.9241  -15.3889 N   0  0  0  0  0  0  0  0  0  0  0  0
   25.9912  -20.0078  -13.1595 C   0  0  0  0  0  0  0  0  0  0  0  0
   25.6960  -18.8101  -12.8964 O   0  0  0  0  0  0  0  0  0  0  0  0
   23.1196  -19.1721  -10.4916 C   0  0  0  0  0  0  0  0  0  0  0  0
   23.3792  -20.6538  -10.5646 C   0  0  2  0  0  0  0  0  0  0  0  0
   22.2461  -21.4244  -10.0254 C   0  0  0  0  0  0  0  0  0  0  0  0
   24.7225  -21.0858  -10.1010 C   0  0  0  0  0  0  0  0  0  0  0  0
   25.9152  -20.4478  -10.6843 C   0  0  2  0  0  0  0  0  0  0  0  0
   26.0914  -20.9154  -12.0887 N   0  0  0  0  0  0  0  0  0  0  0  0
   27.1867  -20.5208   -9.9727 C   0  0  0  0  0  0  0  0  0  0  0  0
   28.2472  -20.9921  -10.3820 O   0  0  0  0  0  0  0  0  0  0  0  0
   27.2134  -19.9903   -8.6563 O   0  0  0  0  0  0  0  0  0  0  0  0
  2  1  1  1
  2  3  1  0
  2  4  1  0
  5  4  1  0
  5  7  1  0
  5  6  1  6
  7 15  1  0
  7  8  2  0
 10  9  1  0
 10 12  1  0
 11 10  2  0
 13 12  1  0
 14 13  1  6
 14 16  1  0
 15 14  1  0
 16 23  1  0
 16 17  2  0
 19 18  1  1
 19 20  1  0
 22 21  1  1
 21 19  1  0
 22 24  1  0
 23 22  1  0
 24 26  1  0
 25 24  2  0
M  END
$$$$
