LQL.pdb
     RDKit          3D

 26 25  0  0  1  0  0  0  0  0999 V2000
   29.0280  -16.3102  -16.7318 C   0  0  0  0  0  0  0  0  0  0  0  0
   27.5358  -16.3025  -17.0088 C   0  0  2  0  0  0  0  0  0  0  0  0
   27.1367  -14.9855  -17.6242 C   0  0  0  0  0  0  0  0  0  0  0  0
   26.7407  -16.5893  -15.7409 C   0  0  0  0  0  0  0  0  0  0  0  0
   26.1325  -17.9656  -15.9066 C   0  0  2  0  0  0  0  0  0  0  0  0
   25.3228  -17.9456  -17.1034 N   0  0  0  0  0  0  0  0  0  0  0  0
   25.3068  -18.3620  -14.7590 C   0  0  0  0  0  0  0  0  0  0  0  0
   24.4973  -17.5843  -14.1820 O   0  0  0  0  0  0  0  0  0  0  0  0
   21.3783  -20.4886  -13.6922 N   0  0  0  0  0  0  0  0  0  0  0  0
   21.6786  -21.4256  -12.6880 C   0  0  0  0  0  0  0  0  0  0  0  0
   20.7330  -21.6847  -11.8675 O   0  0  0  0  0  0  0  0  0  0  0  0
   23.0171  -22.0887  -12.5715 C   0  0  0  0  0  0  0  0  0  0  0  0
   23.8955  -21.5155  -13.6531 C   0  0  0  0  0  0  0  0  0  0  0  0
   24.5685  -20.2398  -13.2366 C   0  0  2  0  0  0  0  0  0  0  0  0
   25.4136  -19.6859  -14.2613 N   0  0  0  0  0  0  0  0  0  0  0  0
   25.4300  -20.5812  -12.0485 C   0  0  0  0  0  0  0  0  0  0  0  0
   26.3718  -21.4112  -12.1706 O   0  0  0  0  0  0  0  0  0  0  0  0
   27.8573  -18.5187   -6.9542 C   0  0  0  0  0  0  0  0  0  0  0  0
   27.5899  -19.7285   -7.8104 C   0  0  2  0  0  0  0  0  0  0  0  0
   28.7994  -20.5542   -7.9654 C   0  0  0  0  0  0  0  0  0  0  0  0
   26.8326  -19.4657   -9.0607 C   0  0  0  0  0  0  0  0  0  0  0  0
   25.9428  -20.5151   -9.5871 C   0  0  2  0  0  0  0  0  0  0  0  0
   25.2207  -19.9988  -10.7845 N   0  0  0  0  0  0  0  0  0  0  0  0
   25.0041  -21.1758   -8.6868 C   0  0  0  0  0  0  0  0  0  0  0  0
   23.8390  -20.8553   -8.4540 O   0  0  0  0  0  0  0  0  0  0  0  0
   25.4801  -22.3205   -7.9953 O   0  0  0  0  0  0  0  0  0  0  0  0
  2  1  1  1
  2  3  1  0
  2  4  1  0
  5  4  1  0
  5  7  1  0
  5  6  1  6
  7 15  1  0
  7  8  2  0
 10  9  1  0
 10 12  1  0
 11 10  2  0
 13 12  1  0
 14 13  1  6
 14 16  1  0
 15 14  1  0
 16 23  1  0
 16 17  2  0
 19 18  1  6
 19 20  1  0
 22 21  1  1
 21 19  1  0
 22 24  1  0
 23 22  1  0
 24 26  1  0
 25 24  2  0
M  END
$$$$
