LQL.pdb
     RDKit          3D

 26 25  0  0  1  0  0  0  0  0999 V2000
   29.6921  -19.3697  -17.5937 C   0  0  0  0  0  0  0  0  0  0  0  0
   28.3076  -18.8673  -17.2275 C   0  0  2  0  0  0  0  0  0  0  0  0
   27.8259  -17.8903  -18.2697 C   0  0  0  0  0  0  0  0  0  0  0  0
   28.2990  -18.2473  -15.8356 C   0  0  0  0  0  0  0  0  0  0  0  0
   28.1043  -19.3811  -14.8517 C   0  0  2  0  0  0  0  0  0  0  0  0
   27.4148  -20.4468  -15.5423 N   0  0  0  0  0  0  0  0  0  0  0  0
   27.3320  -18.9789  -13.6694 C   0  0  0  0  0  0  0  0  0  0  0  0
   27.3207  -17.8024  -13.2124 O   0  0  0  0  0  0  0  0  0  0  0  0
   22.2689  -21.9524  -13.0979 N   0  0  0  0  0  0  0  0  0  0  0  0
   22.3873  -21.6508  -11.7299 C   0  0  0  0  0  0  0  0  0  0  0  0
   21.4988  -22.1648  -10.9676 O   0  0  0  0  0  0  0  0  0  0  0  0
   23.4794  -20.7837  -11.1819 C   0  0  0  0  0  0  0  0  0  0  0  0
   24.1927  -20.1673  -12.3572 C   0  0  0  0  0  0  0  0  0  0  0  0
   25.5568  -19.6515  -12.0006 C   0  0  2  0  0  0  0  0  0  0  0  0
   26.5528  -19.9532  -12.9945 N   0  0  0  0  0  0  0  0  0  0  0  0
   25.9490  -20.3366  -10.7172 C   0  0  0  0  0  0  0  0  0  0  0  0
   26.3330  -21.5379  -10.7359 O   0  0  0  0  0  0  0  0  0  0  0  0
   27.0579  -20.2340   -5.2202 C   0  0  0  0  0  0  0  0  0  0  0  0
   28.0413  -19.9945   -6.3354 C   0  0  2  0  0  0  0  0  0  0  0  0
   29.2049  -19.2222   -5.8682 C   0  0  0  0  0  0  0  0  0  0  0  0
   27.4469  -19.5392   -7.6182 C   0  0  0  0  0  0  0  0  0  0  0  0
   26.3898  -20.3544   -8.2410 C   0  0  2  0  0  0  0  0  0  0  0  0
   25.9025  -19.6758   -9.4755 N   0  0  0  0  0  0  0  0  0  0  0  0
   25.2563  -20.7943   -7.4349 C   0  0  0  0  0  0  0  0  0  0  0  0
   24.1666  -20.2366   -7.3087 O   0  0  0  0  0  0  0  0  0  0  0  0
   25.4196  -22.0031   -6.7088 O   0  0  0  0  0  0  0  0  0  0  0  0
  2  1  1  6
  2  3  1  0
  2  4  1  0
  5  4  1  0
  5  7  1  0
  5  6  1  6
  7 15  1  0
  7  8  2  0
 10  9  1  0
 10 12  1  0
 11 10  2  0
 13 12  1  0
 14 13  1  6
 14 16  1  0
 15 14  1  0
 16 23  1  0
 16 17  2  0
 19 18  1  1
 19 20  1  0
 22 21  1  1
 21 19  1  0
 22 24  1  0
 23 22  1  0
 24 26  1  0
 25 24  2  0
M  END
$$$$
