LQL.pdb
     RDKit          3D

 26 25  0  0  1  0  0  0  0  0999 V2000
   15.9523  -29.1685   -4.9147 C   0  0  0  0  0  0  0  0  0  0  0  0
   17.2609  -28.3997   -4.9101 C   0  0  2  0  0  0  0  0  0  0  0  0
   18.4148  -29.3533   -5.0888 C   0  0  0  0  0  0  0  0  0  0  0  0
   17.4096  -27.5768   -3.6362 C   0  0  0  0  0  0  0  0  0  0  0  0
   16.2920  -26.5558   -3.6407 C   0  0  2  0  0  0  0  0  0  0  0  0
   16.5328  -25.6476   -4.7386 N   0  0  0  0  0  0  0  0  0  0  0  0
   16.2099  -25.8002   -2.3845 C   0  0  0  0  0  0  0  0  0  0  0  0
   16.9682  -24.8309   -2.1042 O   0  0  0  0  0  0  0  0  0  0  0  0
   11.3274  -24.8541   -0.4783 N   0  0  0  0  0  0  0  0  0  0  0  0
   11.6221  -26.2139   -0.6794 C   0  0  0  0  0  0  0  0  0  0  0  0
   10.7011  -26.9072   -1.2323 O   0  0  0  0  0  0  0  0  0  0  0  0
   12.9278  -26.8290   -0.2775 C   0  0  0  0  0  0  0  0  0  0  0  0
   13.7107  -25.7739    0.4599 C   0  0  0  0  0  0  0  0  0  0  0  0
   15.0575  -25.5188   -0.1525 C   0  0  2  0  0  0  0  0  0  0  0  0
   15.2316  -26.1673   -1.4253 N   0  0  0  0  0  0  0  0  0  0  0  0
   16.0746  -26.0814    0.8062 C   0  0  0  0  0  0  0  0  0  0  0  0
   16.4883  -27.2643    0.6638 O   0  0  0  0  0  0  0  0  0  0  0  0
   21.2917  -24.5980    3.1607 C   0  0  0  0  0  0  0  0  0  0  0  0
   20.1291  -25.5484    3.2765 C   0  0  2  0  0  0  0  0  0  0  0  0
   20.5655  -26.9487    3.1445 C   0  0  0  0  0  0  0  0  0  0  0  0
   18.9263  -25.1781    2.4878 C   0  0  0  0  0  0  0  0  0  0  0  0
   17.6599  -25.8837    2.7489 C   0  0  2  0  0  0  0  0  0  0  0  0
   16.5905  -25.3239    1.8743 N   0  0  0  0  0  0  0  0  0  0  0  0
   17.1728  -25.9971    4.1194 C   0  0  0  0  0  0  0  0  0  0  0  0
   17.2434  -26.9775    4.8599 O   0  0  0  0  0  0  0  0  0  0  0  0
   16.5433  -24.8504    4.6706 O   0  0  0  0  0  0  0  0  0  0  0  0
  2  1  1  1
  2  3  1  0
  2  4  1  0
  5  4  1  0
  5  7  1  0
  5  6  1  6
  7 15  1  0
  7  8  2  0
 10  9  1  0
 10 12  1  0
 11 10  2  0
 13 12  1  0
 14 13  1  1
 14 16  1  0
 15 14  1  0
 16 23  1  0
 16 17  2  0
 19 18  1  6
 19 20  1  0
 22 21  1  1
 21 19  1  0
 22 24  1  0
 23 22  1  0
 24 26  1  0
 25 24  2  0
M  END
$$$$
