LQL.pdb
     RDKit          3D

 26 25  0  0  1  0  0  0  0  0999 V2000
   25.8912  -33.8213   -7.2658 C   0  0  0  0  0  0  0  0  0  0  0  0
   25.0319  -33.0872   -8.2788 C   0  0  2  0  0  0  0  0  0  0  0  0
   25.8472  -32.0194   -8.9628 C   0  0  0  0  0  0  0  0  0  0  0  0
   23.7869  -32.5034   -7.6221 C   0  0  0  0  0  0  0  0  0  0  0  0
   22.9935  -33.6693   -7.0721 C   0  0  2  0  0  0  0  0  0  0  0  0
   22.6891  -34.5514   -8.1755 N   0  0  0  0  0  0  0  0  0  0  0  0
   21.7476  -33.2488   -6.4187 C   0  0  0  0  0  0  0  0  0  0  0  0
   20.7539  -32.7880   -7.0456 O   0  0  0  0  0  0  0  0  0  0  0  0
   18.8443  -36.8159   -2.8090 N   0  0  0  0  0  0  0  0  0  0  0  0
   18.0593  -35.6605   -2.6507 C   0  0  0  0  0  0  0  0  0  0  0  0
   16.9086  -35.8374   -2.1221 O   0  0  0  0  0  0  0  0  0  0  0  0
   18.5254  -34.2995   -3.0692 C   0  0  0  0  0  0  0  0  0  0  0  0
   19.8820  -34.4670   -3.7031 C   0  0  0  0  0  0  0  0  0  0  0  0
   20.4183  -33.1844   -4.2698 C   0  0  2  0  0  0  0  0  0  0  0  0
   21.6406  -33.3605   -5.0087 N   0  0  0  0  0  0  0  0  0  0  0  0
   20.7032  -32.2859   -3.0944 C   0  0  0  0  0  0  0  0  0  0  0  0
   21.7971  -32.3866   -2.4747 O   0  0  0  0  0  0  0  0  0  0  0  0
   21.3284  -27.8690   -2.5756 C   0  0  0  0  0  0  0  0  0  0  0  0
   19.8551  -28.1772   -2.6265 C   0  0  2  0  0  0  0  0  0  0  0  0
   19.0528  -26.9466   -2.7300 C   0  0  0  0  0  0  0  0  0  0  0  0
   19.3792  -29.1667   -1.6264 C   0  0  0  0  0  0  0  0  0  0  0  0
   20.1003  -30.4441   -1.4912 C   0  0  2  0  0  0  0  0  0  0  0  0
   19.7790  -31.3206   -2.6532 N   0  0  0  0  0  0  0  0  0  0  0  0
   19.9872  -31.2023   -0.2500 C   0  0  0  0  0  0  0  0  0  0  0  0
   19.2746  -32.1822   -0.0341 O   0  0  0  0  0  0  0  0  0  0  0  0
   20.7865  -30.7675    0.8394 O   0  0  0  0  0  0  0  0  0  0  0  0
  2  1  1  1
  2  3  1  0
  2  4  1  0
  5  4  1  0
  5  7  1  0
  5  6  1  6
  7 15  1  0
  7  8  2  0
 10  9  1  0
 10 12  1  0
 11 10  2  0
 13 12  1  0
 14 13  1  1
 14 16  1  0
 15 14  1  0
 16 23  1  0
 16 17  2  0
 19 18  1  1
 19 20  1  0
 22 21  1  1
 21 19  1  0
 22 24  1  0
 23 22  1  0
 24 26  1  0
 25 24  2  0
M  END
$$$$
