LQL.pdb
     RDKit          3D

 26 25  0  0  1  0  0  0  0  0999 V2000
   29.0070  -18.1931  -17.3773 C   0  0  0  0  0  0  0  0  0  0  0  0
   27.5416  -17.8028  -17.4404 C   0  0  2  0  0  0  0  0  0  0  0  0
   27.3497  -16.6977  -18.4477 C   0  0  0  0  0  0  0  0  0  0  0  0
   27.0209  -17.4011  -16.0658 C   0  0  0  0  0  0  0  0  0  0  0  0
   27.2816  -18.5695  -15.1394 C   0  0  2  0  0  0  0  0  0  0  0  0
   27.1966  -19.7791  -15.9254 N   0  0  0  0  0  0  0  0  0  0  0  0
   26.3248  -18.6355  -14.0276 C   0  0  0  0  0  0  0  0  0  0  0  0
   26.0220  -17.6425  -13.3099 O   0  0  0  0  0  0  0  0  0  0  0  0
   21.7808  -22.9214  -13.8698 N   0  0  0  0  0  0  0  0  0  0  0  0
   21.5517  -22.2050  -12.6821 C   0  0  0  0  0  0  0  0  0  0  0  0
   20.4706  -22.4881  -12.0609 O   0  0  0  0  0  0  0  0  0  0  0  0
   22.5033  -21.1712  -12.1619 C   0  0  0  0  0  0  0  0  0  0  0  0
   23.6241  -21.0522  -13.1618 C   0  0  0  0  0  0  0  0  0  0  0  0
   24.6613  -20.0473  -12.7515 C   0  0  2  0  0  0  0  0  0  0  0  0
   25.6997  -19.8741  -13.7326 N   0  0  0  0  0  0  0  0  0  0  0  0
   25.2898  -20.5758  -11.4882 C   0  0  0  0  0  0  0  0  0  0  0  0
   26.0468  -21.5835  -11.5346 O   0  0  0  0  0  0  0  0  0  0  0  0
   26.2718  -20.4208   -6.0019 C   0  0  0  0  0  0  0  0  0  0  0  0
   27.2417  -20.1102   -7.1113 C   0  0  2  0  0  0  0  0  0  0  0  0
   28.3289  -19.2337   -6.6439 C   0  0  0  0  0  0  0  0  0  0  0  0
   26.6227  -19.7240   -8.4051 C   0  0  0  0  0  0  0  0  0  0  0  0
   25.5953  -20.6017   -8.9918 C   0  0  2  0  0  0  0  0  0  0  0  0
   25.0606  -19.9773  -10.2352 N   0  0  0  0  0  0  0  0  0  0  0  0
   24.4942  -21.0717   -8.1582 C   0  0  0  0  0  0  0  0  0  0  0  0
   23.3363  -20.6552   -8.1433 O   0  0  0  0  0  0  0  0  0  0  0  0
   24.7817  -22.1304   -7.2573 O   0  0  0  0  0  0  0  0  0  0  0  0
  2  1  1  1
  2  3  1  0
  2  4  1  0
  5  4  1  0
  5  7  1  0
  5  6  1  6
  7 15  1  0
  7  8  2  0
 10  9  1  0
 10 12  1  0
 11 10  2  0
 13 12  1  0
 14 13  1  6
 14 16  1  0
 15 14  1  0
 16 23  1  0
 16 17  2  0
 19 18  1  1
 19 20  1  0
 22 21  1  1
 21 19  1  0
 22 24  1  0
 23 22  1  0
 24 26  1  0
 25 24  2  0
M  END
$$$$
