IGR.pdb
     RDKit          3D

 24 23  0  0  1  0  0  0  0  0999 V2000
    7.1240  -12.0460   19.2898 C   0  0  0  0  0  0  0  0  0  0  0  0
    7.5486  -12.6934   20.5747 C   0  0  0  0  0  0  0  0  0  0  0  0
    8.5059  -13.8423   20.3717 C   0  0  2  0  0  0  0  0  0  0  0  0
    9.4684  -13.5314   19.2704 C   0  0  0  0  0  0  0  0  0  0  0  0
    7.6954  -15.0968   20.1109 C   0  0  2  0  0  0  0  0  0  0  0  0
    6.7359  -15.2809   21.2235 N   0  0  0  0  0  0  0  0  0  0  0  0
    8.6152  -16.2547   20.1431 C   0  0  0  0  0  0  0  0  0  0  0  0
    9.3186  -16.4987   19.1081 O   0  0  0  0  0  0  0  0  0  0  0  0
    8.7905  -17.1300   21.2365 N   0  0  0  0  0  0  0  0  0  0  0  0
    9.6684  -18.2778   21.1373 C   0  0  0  0  0  0  0  0  0  0  0  0
   11.0748  -17.8039   21.1447 C   0  0  0  0  0  0  0  0  0  0  0  0
   11.9028  -18.2965   20.3527 O   0  0  0  0  0  0  0  0  0  0  0  0
   14.7986  -16.9832   17.9807 N   0  0  0  0  0  0  0  0  0  0  0  0
   14.6013  -15.7843   17.2242 C   0  0  0  0  0  0  0  0  0  0  0  0
   14.6390  -15.8417   15.9413 N   0  0  0  0  0  0  0  0  0  0  0  0
   14.3699  -14.5694   17.9252 N   0  0  0  0  0  0  0  0  0  0  0  0
   14.4510  -14.5804   19.3614 C   0  0  0  0  0  0  0  0  0  0  0  0
   13.1525  -14.9624   19.9713 C   0  0  0  0  0  0  0  0  0  0  0  0
   13.0919  -15.0408   21.4484 C   0  0  0  0  0  0  0  0  0  0  0  0
   12.9257  -16.4056   22.0393 C   0  0  2  0  0  0  0  0  0  0  0  0
   11.5316  -16.7941   22.0303 N   0  0  0  0  0  0  0  0  0  0  0  0
   13.5638  -16.6146   23.3416 C   0  0  0  0  0  0  0  0  0  0  0  0
   12.8949  -16.5632   24.4183 O   0  0  0  0  0  0  0  0  0  0  0  0
   14.9157  -16.8765   23.4476 O   0  0  0  0  0  0  0  0  0  0  0  0
  2  1  1  0
  2  3  1  0
  3  5  1  0
  3  4  1  6
  5  7  1  0
  5  6  1  1
  7  9  1  0
  8  7  2  0
  9 10  1  0
 11 12  2  0
 11 10  1  0
 14 13  1  0
 14 15  2  0
 16 14  1  0
 17 16  1  0
 18 17  1  0
 18 19  1  0
 20 19  1  1
 20 21  1  0
 21 11  1  0
 22 20  1  0
 22 24  1  0
 23 22  2  0
M  END
$$$$
