IGR.pdb
     RDKit          3D

 24 23  0  0  1  0  0  0  0  0999 V2000
    9.8023  -14.6669   30.4203 C   0  0  0  0  0  0  0  0  0  0  0  0
   10.9258  -15.0646   29.5093 C   0  0  0  0  0  0  0  0  0  0  0  0
   10.6344  -14.7907   28.0540 C   0  0  2  0  0  0  0  0  0  0  0  0
    9.9348  -13.4781   27.8999 C   0  0  0  0  0  0  0  0  0  0  0  0
    9.8351  -15.9544   27.5013 C   0  0  2  0  0  0  0  0  0  0  0  0
   10.5977  -17.2032   27.7277 N   0  0  0  0  0  0  0  0  0  0  0  0
    9.7220  -15.7815   26.0367 C   0  0  0  0  0  0  0  0  0  0  0  0
   10.7918  -15.7731   25.3432 O   0  0  0  0  0  0  0  0  0  0  0  0
    8.5147  -15.6241   25.3225 N   0  0  0  0  0  0  0  0  0  0  0  0
    8.5219  -15.2598   23.9205 C   0  0  0  0  0  0  0  0  0  0  0  0
    8.9086  -16.4491   23.1214 C   0  0  0  0  0  0  0  0  0  0  0  0
    8.9219  -17.5783   23.6508 O   0  0  0  0  0  0  0  0  0  0  0  0
    7.6750  -12.7166   18.0232 N   0  0  0  0  0  0  0  0  0  0  0  0
    7.8332  -12.9785   19.4214 C   0  0  0  0  0  0  0  0  0  0  0  0
    7.9993  -11.9917   20.2270 N   0  0  0  0  0  0  0  0  0  0  0  0
    7.8003  -14.3279   19.8675 N   0  0  0  0  0  0  0  0  0  0  0  0
    7.6839  -15.3722   18.8850 C   0  0  0  0  0  0  0  0  0  0  0  0
    7.6496  -16.7117   19.5241 C   0  0  0  0  0  0  0  0  0  0  0  0
    8.9283  -17.4511   19.6227 C   0  0  0  0  0  0  0  0  0  0  0  0
    9.5349  -17.5588   20.9865 C   0  0  2  0  0  0  0  0  0  0  0  0
    9.2720  -16.3596   21.7530 N   0  0  0  0  0  0  0  0  0  0  0  0
   10.9444  -17.9576   21.0238 C   0  0  0  0  0  0  0  0  0  0  0  0
   11.8221  -17.2230   21.5711 O   0  0  0  0  0  0  0  0  0  0  0  0
   11.3715  -19.1469   20.4668 O   0  0  0  0  0  0  0  0  0  0  0  0
  2  1  1  0
  2  3  1  0
  3  5  1  0
  3  4  1  1
  5  7  1  0
  5  6  1  6
  7  9  1  0
  8  7  2  0
  9 10  1  0
 11 12  2  0
 11 10  1  0
 14 13  1  0
 14 15  2  0
 16 14  1  0
 17 16  1  0
 18 17  1  0
 18 19  1  0
 20 19  1  6
 20 21  1  0
 21 11  1  0
 22 20  1  0
 22 24  1  0
 23 22  2  0
M  END
$$$$
