IGR.pdb
     RDKit          3D

 24 23  0  0  1  0  0  0  0  0999 V2000
    7.7050  -11.7312   19.4541 C   0  0  0  0  0  0  0  0  0  0  0  0
    8.8058  -12.7498   19.4245 C   0  0  0  0  0  0  0  0  0  0  0  0
    8.4610  -14.0172   20.1679 C   0  0  2  0  0  0  0  0  0  0  0  0
    8.1004  -13.7088   21.5859 C   0  0  0  0  0  0  0  0  0  0  0  0
    9.6333  -14.9716   20.0509 C   0  0  2  0  0  0  0  0  0  0  0  0
    9.9078  -15.2113   18.6158 N   0  0  0  0  0  0  0  0  0  0  0  0
    9.2299  -16.2704   20.6322 C   0  0  0  0  0  0  0  0  0  0  0  0
    8.5857  -17.0893   19.8974 O   0  0  0  0  0  0  0  0  0  0  0  0
    9.4999  -16.6955   21.9509 N   0  0  0  0  0  0  0  0  0  0  0  0
    9.2818  -18.0713   22.3483 C   0  0  0  0  0  0  0  0  0  0  0  0
   10.3322  -18.4578   23.3229 C   0  0  0  0  0  0  0  0  0  0  0  0
   10.4360  -19.6455   23.6892 O   0  0  0  0  0  0  0  0  0  0  0  0
   11.1308  -21.9275   30.1669 N   0  0  0  0  0  0  0  0  0  0  0  0
   12.1903  -20.9783   30.3255 C   0  0  0  0  0  0  0  0  0  0  0  0
   12.6692  -20.7668   31.4987 N   0  0  0  0  0  0  0  0  0  0  0  0
   12.6747  -20.3023   29.1725 N   0  0  0  0  0  0  0  0  0  0  0  0
   11.7226  -19.6781   28.2932 C   0  0  0  0  0  0  0  0  0  0  0  0
   12.3906  -19.0950   27.1025 C   0  0  0  0  0  0  0  0  0  0  0  0
   11.5256  -18.4808   26.0700 C   0  0  0  0  0  0  0  0  0  0  0  0
   12.2147  -17.9331   24.8598 C   0  0  2  0  0  0  0  0  0  0  0  0
   11.2441  -17.5185   23.8695 N   0  0  0  0  0  0  0  0  0  0  0  0
   13.2735  -18.7756   24.2975 C   0  0  0  0  0  0  0  0  0  0  0  0
   13.0043  -19.7349   23.5122 O   0  0  0  0  0  0  0  0  0  0  0  0
   14.6036  -18.5579   24.5989 O   0  0  0  0  0  0  0  0  0  0  0  0
  2  1  1  0
  2  3  1  0
  3  5  1  0
  3  4  1  1
  5  7  1  0
  5  6  1  6
  7  9  1  0
  8  7  2  0
  9 10  1  0
 11 12  2  0
 11 10  1  0
 14 13  1  0
 14 15  2  0
 16 14  1  0
 17 16  1  0
 18 17  1  0
 18 19  1  0
 20 19  1  1
 20 21  1  0
 21 11  1  0
 22 20  1  0
 22 24  1  0
 23 22  2  0
M  END
$$$$
