IGR.pdb
     RDKit          3D

 24 23  0  0  1  0  0  0  0  0999 V2000
    6.9550  -11.0874   27.6246 C   0  0  0  0  0  0  0  0  0  0  0  0
    6.6315  -12.5522   27.6151 C   0  0  0  0  0  0  0  0  0  0  0  0
    7.3211  -13.3045   26.5033 C   0  0  2  0  0  0  0  0  0  0  0  0
    6.9402  -12.7357   25.1738 C   0  0  0  0  0  0  0  0  0  0  0  0
    6.9755  -14.7746   26.6375 C   0  0  2  0  0  0  0  0  0  0  0  0
    7.2111  -15.1907   28.0388 N   0  0  0  0  0  0  0  0  0  0  0  0
    7.9161  -15.5477   25.7977 C   0  0  0  0  0  0  0  0  0  0  0  0
    9.0648  -15.8279   26.2748 O   0  0  0  0  0  0  0  0  0  0  0  0
    7.6527  -16.0145   24.4918 N   0  0  0  0  0  0  0  0  0  0  0  0
    8.3143  -15.4278   23.3445 C   0  0  0  0  0  0  0  0  0  0  0  0
    7.9253  -16.1874   22.1304 C   0  0  0  0  0  0  0  0  0  0  0  0
    6.7198  -16.3316   21.8449 O   0  0  0  0  0  0  0  0  0  0  0  0
    9.4066  -14.8938   15.6803 N   0  0  0  0  0  0  0  0  0  0  0  0
    8.3801  -13.9442   15.3746 C   0  0  0  0  0  0  0  0  0  0  0  0
    8.0136  -13.7919   14.1527 N   0  0  0  0  0  0  0  0  0  0  0  0
    7.8024  -13.2020   16.4406 N   0  0  0  0  0  0  0  0  0  0  0  0
    8.3240  -13.3893   17.7681 C   0  0  0  0  0  0  0  0  0  0  0  0
    7.8454  -14.6637   18.3602 C   0  0  0  0  0  0  0  0  0  0  0  0
    8.2996  -14.9896   19.7309 C   0  0  0  0  0  0  0  0  0  0  0  0
    9.0269  -16.2860   19.9038 C   0  0  2  0  0  0  0  0  0  0  0  0
    8.8819  -16.7703   21.2599 N   0  0  0  0  0  0  0  0  0  0  0  0
   10.4179  -16.2989   19.4432 C   0  0  0  0  0  0  0  0  0  0  0  0
   10.7032  -16.2376   18.2086 O   0  0  0  0  0  0  0  0  0  0  0  0
   11.4708  -16.3768   20.3335 O   0  0  0  0  0  0  0  0  0  0  0  0
  2  1  1  0
  2  3  1  0
  3  5  1  0
  3  4  1  6
  5  7  1  0
  5  6  1  1
  7  9  1  0
  8  7  2  0
  9 10  1  0
 11 12  2  0
 11 10  1  0
 14 13  1  0
 14 15  2  0
 16 14  1  0
 17 16  1  0
 18 17  1  0
 18 19  1  0
 20 19  1  1
 20 21  1  0
 21 11  1  0
 22 20  1  0
 22 24  1  0
 23 22  2  0
M  END
$$$$
