IGR.pdb
     RDKit          3D

 24 23  0  0  1  0  0  0  0  0999 V2000
    7.6184  -11.7666   18.8133 C   0  0  0  0  0  0  0  0  0  0  0  0
    8.8565  -12.4116   19.3622 C   0  0  0  0  0  0  0  0  0  0  0  0
    8.5691  -13.6496   20.1761 C   0  0  2  0  0  0  0  0  0  0  0  0
    7.6799  -13.3194   21.3322 C   0  0  0  0  0  0  0  0  0  0  0  0
    9.8914  -14.2565   20.6026 C   0  0  2  0  0  0  0  0  0  0  0  0
   10.6798  -14.5746   19.3903 N   0  0  0  0  0  0  0  0  0  0  0  0
    9.6116  -15.5410   21.2805 C   0  0  0  0  0  0  0  0  0  0  0  0
    9.2887  -16.5458   20.5653 O   0  0  0  0  0  0  0  0  0  0  0  0
    9.6727  -15.7610   22.6735 N   0  0  0  0  0  0  0  0  0  0  0  0
    9.4344  -17.0770   23.2298 C   0  0  0  0  0  0  0  0  0  0  0  0
   10.7196  -17.8182   23.2670 C   0  0  0  0  0  0  0  0  0  0  0  0
   10.7487  -18.9953   23.6785 O   0  0  0  0  0  0  0  0  0  0  0  0
   14.3974  -16.0596   16.8101 N   0  0  0  0  0  0  0  0  0  0  0  0
   14.4860  -15.5070   18.1275 C   0  0  0  0  0  0  0  0  0  0  0  0
   14.3698  -14.2368   18.2813 N   0  0  0  0  0  0  0  0  0  0  0  0
   14.7005  -16.3895   19.2211 N   0  0  0  0  0  0  0  0  0  0  0  0
   14.0934  -17.6930   19.1794 C   0  0  0  0  0  0  0  0  0  0  0  0
   13.3117  -17.9630   20.4123 C   0  0  0  0  0  0  0  0  0  0  0  0
   14.0049  -17.7892   21.7087 C   0  0  0  0  0  0  0  0  0  0  0  0
   13.1785  -17.9871   22.9406 C   0  0  2  0  0  0  0  0  0  0  0  0
   11.9440  -17.2376   22.8471 N   0  0  0  0  0  0  0  0  0  0  0  0
   13.8751  -17.7753   24.2121 C   0  0  0  0  0  0  0  0  0  0  0  0
   14.9508  -18.3905   24.4839 O   0  0  0  0  0  0  0  0  0  0  0  0
   13.3896  -16.8985   25.1622 O   0  0  0  0  0  0  0  0  0  0  0  0
  2  1  1  0
  2  3  1  0
  3  5  1  0
  3  4  1  1
  5  7  1  0
  5  6  1  6
  7  9  1  0
  8  7  2  0
  9 10  1  0
 11 12  2  0
 11 10  1  0
 14 13  1  0
 14 15  2  0
 16 14  1  0
 17 16  1  0
 18 17  1  0
 18 19  1  0
 20 19  1  6
 20 21  1  0
 21 11  1  0
 22 20  1  0
 22 24  1  0
 23 22  2  0
M  END
$$$$
