IGR.pdb
     RDKit          3D

 24 23  0  0  1  0  0  0  0  0999 V2000
    7.9574  -11.5888   19.6478 C   0  0  0  0  0  0  0  0  0  0  0  0
    8.6959  -12.8897   19.5359 C   0  0  0  0  0  0  0  0  0  0  0  0
    8.2055  -13.9354   20.5075 C   0  0  2  0  0  0  0  0  0  0  0  0
    8.3045  -13.4304   21.9116 C   0  0  0  0  0  0  0  0  0  0  0  0
    8.9999  -15.2065   20.2797 C   0  0  2  0  0  0  0  0  0  0  0  0
    8.8364  -15.6209   18.8677 N   0  0  0  0  0  0  0  0  0  0  0  0
    8.4061  -16.2761   21.1111 C   0  0  0  0  0  0  0  0  0  0  0  0
    7.2179  -16.6575   20.8498 O   0  0  0  0  0  0  0  0  0  0  0  0
    9.0476  -16.9273   22.1867 N   0  0  0  0  0  0  0  0  0  0  0  0
    8.3454  -17.9094   22.9871 C   0  0  0  0  0  0  0  0  0  0  0  0
    8.5457  -17.5860   24.4216 C   0  0  0  0  0  0  0  0  0  0  0  0
    9.1804  -16.5628   24.7472 O   0  0  0  0  0  0  0  0  0  0  0  0
    6.6879  -23.4356   26.5464 N   0  0  0  0  0  0  0  0  0  0  0  0
    5.3586  -22.9097   26.6175 C   0  0  0  0  0  0  0  0  0  0  0  0
    4.4300  -23.4627   25.9230 N   0  0  0  0  0  0  0  0  0  0  0  0
    5.1157  -21.7894   27.4583 N   0  0  0  0  0  0  0  0  0  0  0  0
    6.2414  -21.1303   28.0647 C   0  0  0  0  0  0  0  0  0  0  0  0
    6.7567  -20.0392   27.2000 C   0  0  0  0  0  0  0  0  0  0  0  0
    7.8594  -19.2097   27.7363 C   0  0  0  0  0  0  0  0  0  0  0  0
    8.3773  -18.1270   26.8424 C   0  0  2  0  0  0  0  0  0  0  0  0
    8.0378  -18.4044   25.4631 N   0  0  0  0  0  0  0  0  0  0  0  0
    9.7898  -17.7801   27.0196 C   0  0  0  0  0  0  0  0  0  0  0  0
   10.6971  -18.6650   26.9630 O   0  0  0  0  0  0  0  0  0  0  0  0
   10.1881  -16.4786   27.2534 O   0  0  0  0  0  0  0  0  0  0  0  0
  2  1  1  0
  2  3  1  0
  3  5  1  0
  3  4  1  1
  5  7  1  0
  5  6  1  6
  7  9  1  0
  8  7  2  0
  9 10  1  0
 11 12  2  0
 11 10  1  0
 14 13  1  0
 14 15  2  0
 16 14  1  0
 17 16  1  0
 18 17  1  0
 18 19  1  0
 20 19  1  1
 20 21  1  0
 21 11  1  0
 22 20  1  0
 22 24  1  0
 23 22  2  0
M  END
$$$$
