IGR.pdb
     RDKit          3D

 24 23  0  0  1  0  0  0  0  0999 V2000
    6.9151  -11.8353   28.5737 C   0  0  0  0  0  0  0  0  0  0  0  0
    6.7400  -13.1779   27.9280 C   0  0  0  0  0  0  0  0  0  0  0  0
    7.2525  -13.2249   26.5092 C   0  0  2  0  0  0  0  0  0  0  0  0
    6.5415  -12.2170   25.6638 C   0  0  0  0  0  0  0  0  0  0  0  0
    7.0977  -14.6424   25.9938 C   0  0  2  0  0  0  0  0  0  0  0  0
    7.8834  -15.5501   26.8605 N   0  0  0  0  0  0  0  0  0  0  0  0
    7.7004  -14.7106   24.6448 C   0  0  0  0  0  0  0  0  0  0  0  0
    8.9557  -14.5180   24.5315 O   0  0  0  0  0  0  0  0  0  0  0  0
    7.0000  -14.9766   23.4485 N   0  0  0  0  0  0  0  0  0  0  0  0
    7.6340  -14.7941   22.1590 C   0  0  0  0  0  0  0  0  0  0  0  0
    8.7794  -15.7320   22.0544 C   0  0  0  0  0  0  0  0  0  0  0  0
    8.5738  -16.9578   21.9507 O   0  0  0  0  0  0  0  0  0  0  0  0
    8.4628  -14.3110   19.0499 N   0  0  0  0  0  0  0  0  0  0  0  0
    9.0392  -13.8068   17.8406 C   0  0  0  0  0  0  0  0  0  0  0  0
    8.3501  -13.0107   17.1045 N   0  0  0  0  0  0  0  0  0  0  0  0
   10.3593  -14.2085   17.4986 N   0  0  0  0  0  0  0  0  0  0  0  0
   10.9914  -15.2306   18.2893 C   0  0  0  0  0  0  0  0  0  0  0  0
   11.2875  -14.7449   19.6605 C   0  0  0  0  0  0  0  0  0  0  0  0
   11.9903  -15.6739   20.5741 C   0  0  0  0  0  0  0  0  0  0  0  0
   11.1991  -16.2017   21.7295 C   0  0  2  0  0  0  0  0  0  0  0  0
   10.1273  -15.2897   22.0670 N   0  0  0  0  0  0  0  0  0  0  0  0
   11.9814  -16.6140   22.8980 C   0  0  0  0  0  0  0  0  0  0  0  0
   13.0439  -16.0041   23.2273 O   0  0  0  0  0  0  0  0  0  0  0  0
   11.5926  -17.6797   23.6855 O   0  0  0  0  0  0  0  0  0  0  0  0
  2  1  1  0
  2  3  1  0
  3  5  1  0
  3  4  1  6
  5  7  1  0
  5  6  1  1
  7  9  1  0
  8  7  2  0
  9 10  1  0
 11 12  2  0
 11 10  1  0
 14 13  1  0
 14 15  2  0
 16 14  1  0
 17 16  1  0
 18 17  1  0
 18 19  1  0
 20 19  1  6
 20 21  1  0
 21 11  1  0
 22 20  1  0
 22 24  1  0
 23 22  2  0
M  END
$$$$
