IGR.pdb
     RDKit          3D

 24 23  0  0  1  0  0  0  0  0999 V2000
    7.4645  -11.9743   20.8850 C   0  0  0  0  0  0  0  0  0  0  0  0
    7.1017  -13.4062   21.1460 C   0  0  0  0  0  0  0  0  0  0  0  0
    8.2608  -14.2285   21.6540 C   0  0  2  0  0  0  0  0  0  0  0  0
    9.4712  -14.0046   20.8049 C   0  0  0  0  0  0  0  0  0  0  0  0
    7.8306  -15.6817   21.6975 C   0  0  2  0  0  0  0  0  0  0  0  0
    6.5216  -15.7680   22.3841 N   0  0  0  0  0  0  0  0  0  0  0  0
    8.8008  -16.4247   22.5308 C   0  0  0  0  0  0  0  0  0  0  0  0
    8.4866  -16.6870   23.7383 O   0  0  0  0  0  0  0  0  0  0  0  0
   10.0663  -16.8806   22.1027 N   0  0  0  0  0  0  0  0  0  0  0  0
   10.7808  -17.8981   22.8459 C   0  0  0  0  0  0  0  0  0  0  0  0
   11.2324  -17.3175   24.1350 C   0  0  0  0  0  0  0  0  0  0  0  0
   12.4458  -17.3082   24.4233 O   0  0  0  0  0  0  0  0  0  0  0  0
    5.5570  -11.6076   26.3961 N   0  0  0  0  0  0  0  0  0  0  0  0
    6.5171  -12.3850   25.6732 C   0  0  0  0  0  0  0  0  0  0  0  0
    6.1426  -13.0184   24.6201 N   0  0  0  0  0  0  0  0  0  0  0  0
    7.8554  -12.4267   26.1509 N   0  0  0  0  0  0  0  0  0  0  0  0
    8.2474  -13.5215   26.9976 C   0  0  0  0  0  0  0  0  0  0  0  0
    9.2926  -14.3546   26.3517 C   0  0  0  0  0  0  0  0  0  0  0  0
    9.7636  -15.5480   27.0902 C   0  0  0  0  0  0  0  0  0  0  0  0
   10.7823  -16.4013   26.4019 C   0  0  2  0  0  0  0  0  0  0  0  0
   10.3283  -16.7602   25.0755 N   0  0  0  0  0  0  0  0  0  0  0  0
   11.2649  -17.5542   27.1669 C   0  0  0  0  0  0  0  0  0  0  0  0
   12.0527  -17.4084   28.1506 O   0  0  0  0  0  0  0  0  0  0  0  0
   10.8808  -18.8419   26.8484 O   0  0  0  0  0  0  0  0  0  0  0  0
  2  1  1  0
  2  3  1  0
  3  5  1  0
  3  4  1  6
  5  7  1  0
  5  6  1  1
  7  9  1  0
  8  7  2  0
  9 10  1  0
 11 12  2  0
 11 10  1  0
 14 13  1  0
 14 15  2  0
 16 14  1  0
 17 16  1  0
 18 17  1  0
 18 19  1  0
 20 19  1  1
 20 21  1  0
 21 11  1  0
 22 20  1  0
 22 24  1  0
 23 22  2  0
M  END
$$$$
