IGR.pdb
     RDKit          3D

 24 23  0  0  1  0  0  0  0  0999 V2000
    7.9678  -11.9576   20.2001 C   0  0  0  0  0  0  0  0  0  0  0  0
    8.2431  -13.4322   20.1920 C   0  0  0  0  0  0  0  0  0  0  0  0
    8.4754  -13.9844   18.8067 C   0  0  2  0  0  0  0  0  0  0  0  0
    7.2878  -13.7254   17.9357 C   0  0  0  0  0  0  0  0  0  0  0  0
    8.8061  -15.4588   18.9313 C   0  0  2  0  0  0  0  0  0  0  0  0
    7.7086  -16.1304   19.6638 N   0  0  0  0  0  0  0  0  0  0  0  0
   10.0204  -15.5897   19.7655 C   0  0  0  0  0  0  0  0  0  0  0  0
   11.1562  -15.5931   19.1862 O   0  0  0  0  0  0  0  0  0  0  0  0
   10.0375  -15.7116   21.1717 N   0  0  0  0  0  0  0  0  0  0  0  0
   11.2889  -15.8088   21.8948 C   0  0  0  0  0  0  0  0  0  0  0  0
   11.2877  -17.0672   22.6817 C   0  0  0  0  0  0  0  0  0  0  0  0
   12.1982  -17.2883   23.5050 O   0  0  0  0  0  0  0  0  0  0  0  0
    9.1557  -14.9988   25.9422 N   0  0  0  0  0  0  0  0  0  0  0  0
    7.8117  -15.2052   25.4951 C   0  0  0  0  0  0  0  0  0  0  0  0
    7.2266  -14.2778   24.8258 N   0  0  0  0  0  0  0  0  0  0  0  0
    7.1725  -16.4352   25.8105 N   0  0  0  0  0  0  0  0  0  0  0  0
    7.9290  -17.6524   25.6873 C   0  0  0  0  0  0  0  0  0  0  0  0
    8.0661  -18.0600   24.2663 C   0  0  0  0  0  0  0  0  0  0  0  0
    8.8056  -19.3114   23.9861 C   0  0  0  0  0  0  0  0  0  0  0  0
   10.2003  -19.1614   23.4645 C   0  0  2  0  0  0  0  0  0  0  0  0
   10.2770  -18.0523   22.5380 N   0  0  0  0  0  0  0  0  0  0  0  0
   10.8151  -20.3830   22.9382 C   0  0  0  0  0  0  0  0  0  0  0  0
   10.8835  -21.4394   23.6373 O   0  0  0  0  0  0  0  0  0  0  0  0
   11.3421  -20.4323   21.6626 O   0  0  0  0  0  0  0  0  0  0  0  0
  2  1  1  0
  2  3  1  0
  3  5  1  0
  3  4  1  6
  5  7  1  0
  5  6  1  1
  7  9  1  0
  8  7  2  0
  9 10  1  0
 11 12  2  0
 11 10  1  0
 14 13  1  0
 14 15  2  0
 16 14  1  0
 17 16  1  0
 18 17  1  0
 18 19  1  0
 20 19  1  6
 20 21  1  0
 21 11  1  0
 22 20  1  0
 22 24  1  0
 23 22  2  0
M  END
$$$$
