YYF.pdb
     RDKit          3D

 36 38  0  0  1  0  0  0  0  0999 V2000
    8.4762  -13.6511   15.5251 O   0  0  0  0  0  0  0  0  0  0  0  0
    8.2218  -13.9751   16.8546 C   0  0  0  0  0  0  0  0  0  0  0  0
    8.4966  -15.2393   17.3408 C   0  0  0  0  0  0  0  0  0  0  0  0
    8.2465  -15.5612   18.6521 C   0  0  0  0  0  0  0  0  0  0  0  0
    7.7108  -14.6246   19.5234 C   0  0  0  0  0  0  0  0  0  0  0  0
    7.4283  -14.9448   20.9475 C   0  0  0  0  0  0  0  0  0  0  0  0
    6.6942  -16.2689   20.9969 C   0  0  2  0  0  0  0  0  0  0  0  0
    5.3765  -16.1057   20.4281 N   0  0  0  0  0  0  0  0  0  0  0  0
    6.5506  -16.7698   22.3796 C   0  0  0  0  0  0  0  0  0  0  0  0
    5.7852  -16.1661   23.1656 O   0  0  0  0  0  0  0  0  0  0  0  0
    7.4494  -13.3709   18.9999 C   0  0  0  0  0  0  0  0  0  0  0  0
    7.6955  -13.0344   17.6862 C   0  0  0  0  0  0  0  0  0  0  0  0
    8.4795  -20.7883   29.9575 O   0  0  0  0  0  0  0  0  0  0  0  0
    8.2195  -20.5096   28.6299 C   0  0  0  0  0  0  0  0  0  0  0  0
    9.2243  -20.6596   27.6850 C   0  0  0  0  0  0  0  0  0  0  0  0
    8.9857  -20.3873   26.3579 C   0  0  0  0  0  0  0  0  0  0  0  0
    7.7566  -19.9589   25.9090 C   0  0  0  0  0  0  0  0  0  0  0  0
    7.4837  -19.6653   24.5037 C   0  0  0  0  0  0  0  0  0  0  0  0
    7.5076  -18.1856   24.1930 C   0  0  2  0  0  0  0  0  0  0  0  0
    7.2780  -17.9213   22.7938 N   0  0  0  0  0  0  0  0  0  0  0  0
    8.7783  -17.5629   24.6596 C   0  0  0  0  0  0  0  0  0  0  0  0
    9.8517  -17.8443   24.0668 O   0  0  0  0  0  0  0  0  0  0  0  0
    6.7492  -19.8056   26.8380 C   0  0  0  0  0  0  0  0  0  0  0  0
    6.9890  -20.0791   28.1701 C   0  0  0  0  0  0  0  0  0  0  0  0
    8.8383  -16.6622   25.7473 N   0  0  0  0  0  0  0  0  0  0  0  0
   10.0784  -16.0450   26.2055 C   0  0  1  0  0  0  0  0  0  0  0  0
   10.1491  -14.6024   25.8450 C   0  0  0  0  0  0  0  0  0  0  0  0
    9.0356  -13.7659   26.2636 C   0  0  0  0  0  0  0  0  0  0  0  0
    7.9672  -13.5601   25.4230 C   0  0  0  0  0  0  0  0  0  0  0  0
    6.8820  -12.7671   25.7909 C   0  0  0  0  0  0  0  0  0  0  0  0
    6.8757  -12.1688   27.0350 C   0  0  0  0  0  0  0  0  0  0  0  0
    7.9333  -12.3556   27.9024 C   0  0  0  0  0  0  0  0  0  0  0  0
    8.9964  -13.1449   27.5160 C   0  0  0  0  0  0  0  0  0  0  0  0
   10.2967  -16.2794   27.6468 C   0  0  0  0  0  0  0  0  0  0  0  0
   11.4267  -16.0426   28.1320 O   0  0  0  0  0  0  0  0  0  0  0  0
    9.3214  -16.7517   28.5165 O   0  0  0  0  0  0  0  0  0  0  0  0
  2  1  1  0
  3  2  2  0
  4  3  1  0
  5  4  2  0
  5 11  1  0
  6  5  1  0
  7  9  1  0
  7  6  1  0
  7  8  1  1
  9 10  2  0
 11 12  2  0
 12  2  1  0
 13 14  1  0
 14 15  2  0
 15 16  1  0
 17 16  2  0
 17 18  1  0
 19 18  1  6
 19 21  1  0
 20 19  1  0
 20  9  1  0
 21 25  1  0
 21 22  2  0
 23 17  1  0
 24 14  1  0
 24 23  2  0
 25 26  1  0
 26 27  1  1
 28 27  1  0
 29 28  2  0
 30 29  1  0
 31 30  2  0
 31 32  1  0
 32 33  2  0
 33 28  1  0
 34 36  1  0
 34 26  1  0
 35 34  2  0
M  END
$$$$
