YYF.pdb
     RDKit          3D

 36 38  0  0  1  0  0  0  0  0999 V2000
    7.5824  -11.4106   17.0361 O   0  0  0  0  0  0  0  0  0  0  0  0
    7.5693  -12.2093   18.1759 C   0  0  0  0  0  0  0  0  0  0  0  0
    8.7047  -12.3581   18.9499 C   0  0  0  0  0  0  0  0  0  0  0  0
    8.6943  -13.1456   20.0747 C   0  0  0  0  0  0  0  0  0  0  0  0
    7.5423  -13.8128   20.4636 C   0  0  0  0  0  0  0  0  0  0  0  0
    7.5015  -14.6730   21.6755 C   0  0  0  0  0  0  0  0  0  0  0  0
    8.2155  -15.9705   21.3577 C   0  0  2  0  0  0  0  0  0  0  0  0
    7.4004  -16.7567   20.4610 N   0  0  0  0  0  0  0  0  0  0  0  0
    8.4801  -16.7678   22.5733 C   0  0  0  0  0  0  0  0  0  0  0  0
    7.5302  -17.3770   23.1162 O   0  0  0  0  0  0  0  0  0  0  0  0
    6.4267  -13.6392   19.6639 C   0  0  0  0  0  0  0  0  0  0  0  0
    6.4234  -12.8519   18.5326 C   0  0  0  0  0  0  0  0  0  0  0  0
    9.5791  -22.6827   20.4683 O   0  0  0  0  0  0  0  0  0  0  0  0
    9.9547  -21.7010   21.3643 C   0  0  0  0  0  0  0  0  0  0  0  0
   10.7006  -20.6166   20.9254 C   0  0  0  0  0  0  0  0  0  0  0  0
   11.0847  -19.6284   21.8018 C   0  0  0  0  0  0  0  0  0  0  0  0
   10.7528  -19.6663   23.1375 C   0  0  0  0  0  0  0  0  0  0  0  0
   11.1508  -18.6261   24.0835 C   0  0  0  0  0  0  0  0  0  0  0  0
   10.0776  -17.5837   24.3028 C   0  0  2  0  0  0  0  0  0  0  0  0
    9.7994  -16.8309   23.1044 N   0  0  0  0  0  0  0  0  0  0  0  0
   10.4312  -16.6841   25.4367 C   0  0  0  0  0  0  0  0  0  0  0  0
   11.3312  -15.8200   25.2748 O   0  0  0  0  0  0  0  0  0  0  0  0
   10.0116  -20.7388   23.5868 C   0  0  0  0  0  0  0  0  0  0  0  0
    9.6262  -21.7306   22.7067 C   0  0  0  0  0  0  0  0  0  0  0  0
    9.7992  -16.7543   26.6991 N   0  0  0  0  0  0  0  0  0  0  0  0
   10.1998  -15.9369   27.8392 C   0  0  1  0  0  0  0  0  0  0  0  0
    9.0685  -15.1274   28.3693 C   0  0  0  0  0  0  0  0  0  0  0  0
    8.4372  -14.1980   27.4460 C   0  0  0  0  0  0  0  0  0  0  0  0
    7.4145  -14.6180   26.6287 C   0  0  0  0  0  0  0  0  0  0  0  0
    6.7847  -13.7555   25.7336 C   0  0  0  0  0  0  0  0  0  0  0  0
    7.1968  -12.4399   25.6625 C   0  0  0  0  0  0  0  0  0  0  0  0
    8.2210  -11.9868   26.4696 C   0  0  0  0  0  0  0  0  0  0  0  0
    8.8294  -12.8592   27.3478 C   0  0  0  0  0  0  0  0  0  0  0  0
   10.8511  -16.7515   28.8843 C   0  0  0  0  0  0  0  0  0  0  0  0
   10.7800  -17.9995   28.8080 O   0  0  0  0  0  0  0  0  0  0  0  0
   11.5483  -16.2227   29.9637 O   0  0  0  0  0  0  0  0  0  0  0  0
  2  1  1  0
  3  2  2  0
  4  3  1  0
  5  4  2  0
  5 11  1  0
  6  5  1  0
  7  9  1  0
  7  6  1  0
  7  8  1  6
  9 10  2  0
 11 12  2  0
 12  2  1  0
 13 14  1  0
 14 15  2  0
 15 16  1  0
 17 16  2  0
 17 18  1  0
 19 18  1  6
 19 21  1  0
 20 19  1  0
 20  9  1  0
 21 25  1  0
 21 22  2  0
 23 17  1  0
 24 14  1  0
 24 23  2  0
 25 26  1  0
 26 27  1  1
 28 27  1  0
 29 28  2  0
 30 29  1  0
 31 30  2  0
 31 32  1  0
 32 33  2  0
 33 28  1  0
 34 36  1  0
 34 26  1  0
 35 34  2  0
M  END
$$$$
