YYF.pdb
     RDKit          3D

 36 38  0  0  1  0  0  0  0  0999 V2000
    8.3188  -12.2648   17.2866 O   0  0  0  0  0  0  0  0  0  0  0  0
    7.9582  -13.0144   18.4024 C   0  0  0  0  0  0  0  0  0  0  0  0
    6.9043  -12.6249   19.2072 C   0  0  0  0  0  0  0  0  0  0  0  0
    6.5467  -13.3628   20.3087 C   0  0  0  0  0  0  0  0  0  0  0  0
    7.2351  -14.5197   20.6423 C   0  0  0  0  0  0  0  0  0  0  0  0
    6.8715  -15.3379   21.8291 C   0  0  0  0  0  0  0  0  0  0  0  0
    7.7900  -16.5417   21.8719 C   0  0  2  0  0  0  0  0  0  0  0  0
    7.4359  -17.4504   20.8064 N   0  0  0  0  0  0  0  0  0  0  0  0
    7.6943  -17.2643   23.1572 C   0  0  0  0  0  0  0  0  0  0  0  0
    7.4147  -16.6205   24.1942 O   0  0  0  0  0  0  0  0  0  0  0  0
    8.2834  -14.8769   19.8130 C   0  0  0  0  0  0  0  0  0  0  0  0
    8.6528  -14.1456   18.7047 C   0  0  0  0  0  0  0  0  0  0  0  0
    2.7487  -22.4452   23.2936 O   0  0  0  0  0  0  0  0  0  0  0  0
    4.0510  -22.0509   23.5308 C   0  0  0  0  0  0  0  0  0  0  0  0
    4.4991  -21.9027   24.8355 C   0  0  0  0  0  0  0  0  0  0  0  0
    5.7923  -21.5109   25.0930 C   0  0  0  0  0  0  0  0  0  0  0  0
    6.6920  -21.2504   24.0838 C   0  0  0  0  0  0  0  0  0  0  0  0
    8.0695  -20.8340   24.3373 C   0  0  0  0  0  0  0  0  0  0  0  0
    8.2245  -19.3333   24.4406 C   0  0  2  0  0  0  0  0  0  0  0  0
    7.9195  -18.6694   23.1970 N   0  0  0  0  0  0  0  0  0  0  0  0
    9.5846  -18.9697   24.9284 C   0  0  0  0  0  0  0  0  0  0  0  0
   10.4240  -18.5074   24.1133 O   0  0  0  0  0  0  0  0  0  0  0  0
    6.2593  -21.3938   22.7824 C   0  0  0  0  0  0  0  0  0  0  0  0
    4.9611  -21.7872   22.5243 C   0  0  0  0  0  0  0  0  0  0  0  0
    9.9830  -19.1204   26.2762 N   0  0  0  0  0  0  0  0  0  0  0  0
   10.3078  -17.9932   27.1437 C   0  0  1  0  0  0  0  0  0  0  0  0
    9.1807  -17.0262   27.2463 C   0  0  0  0  0  0  0  0  0  0  0  0
    9.4275  -15.8082   28.0017 C   0  0  0  0  0  0  0  0  0  0  0  0
    9.7781  -15.8736   29.3295 C   0  0  0  0  0  0  0  0  0  0  0  0
   10.0244  -14.7282   30.0840 C   0  0  0  0  0  0  0  0  0  0  0  0
    9.9141  -13.4897   29.4843 C   0  0  0  0  0  0  0  0  0  0  0  0
    9.5638  -13.3900   28.1527 C   0  0  0  0  0  0  0  0  0  0  0  0
    9.3249  -14.5378   27.4262 C   0  0  0  0  0  0  0  0  0  0  0  0
   10.7840  -18.4493   28.4647 C   0  0  0  0  0  0  0  0  0  0  0  0
   10.1168  -19.3108   29.0820 O   0  0  0  0  0  0  0  0  0  0  0  0
   11.9385  -17.9825   29.0812 O   0  0  0  0  0  0  0  0  0  0  0  0
  2  1  1  0
  3  2  2  0
  4  3  1  0
  5  4  2  0
  5 11  1  0
  6  5  1  0
  7  9  1  0
  7  6  1  0
  7  8  1  6
  9 10  2  0
 11 12  2  0
 12  2  1  0
 13 14  1  0
 14 15  2  0
 15 16  1  0
 17 16  2  0
 17 18  1  0
 19 18  1  6
 19 21  1  0
 20 19  1  0
 20  9  1  0
 21 25  1  0
 21 22  2  0
 23 17  1  0
 24 14  1  0
 24 23  2  0
 25 26  1  0
 26 27  1  1
 28 27  1  0
 29 28  2  0
 30 29  1  0
 31 30  2  0
 31 32  1  0
 32 33  2  0
 33 28  1  0
 34 36  1  0
 34 26  1  0
 35 34  2  0
M  END
$$$$
