YYF.pdb
     RDKit          3D

 36 38  0  0  1  0  0  0  0  0999 V2000
    0.2812  -19.7152   20.3798 O   0  0  0  0  0  0  0  0  0  0  0  0
    1.4861  -19.2639   20.9105 C   0  0  0  0  0  0  0  0  0  0  0  0
    2.0390  -19.8654   22.0252 C   0  0  0  0  0  0  0  0  0  0  0  0
    3.2276  -19.4219   22.5505 C   0  0  0  0  0  0  0  0  0  0  0  0
    3.9048  -18.3571   21.9751 C   0  0  0  0  0  0  0  0  0  0  0  0
    5.1924  -17.8544   22.5224 C   0  0  0  0  0  0  0  0  0  0  0  0
    6.1667  -17.7021   21.3727 C   0  0  2  0  0  0  0  0  0  0  0  0
    6.4345  -19.0003   20.7987 N   0  0  0  0  0  0  0  0  0  0  0  0
    7.4473  -17.1076   21.8086 C   0  0  0  0  0  0  0  0  0  0  0  0
    8.4633  -17.8370   21.8701 O   0  0  0  0  0  0  0  0  0  0  0  0
    3.3201  -17.7812   20.8612 C   0  0  0  0  0  0  0  0  0  0  0  0
    2.1279  -18.2164   20.3237 C   0  0  0  0  0  0  0  0  0  0  0  0
    8.1278  -13.0624   16.5440 O   0  0  0  0  0  0  0  0  0  0  0  0
    8.3238  -13.2189   17.9022 C   0  0  0  0  0  0  0  0  0  0  0  0
    7.2805  -12.9692   18.7821 C   0  0  0  0  0  0  0  0  0  0  0  0
    7.4553  -13.1192   20.1382 C   0  0  0  0  0  0  0  0  0  0  0  0
    8.6560  -13.5184   20.6809 C   0  0  0  0  0  0  0  0  0  0  0  0
    8.8609  -13.6840   22.1182 C   0  0  0  0  0  0  0  0  0  0  0  0
    8.7464  -15.1224   22.5704 C   0  0  2  0  0  0  0  0  0  0  0  0
    7.5063  -15.7266   22.1490 N   0  0  0  0  0  0  0  0  0  0  0  0
    8.9289  -15.2344   24.0449 C   0  0  0  0  0  0  0  0  0  0  0  0
    9.1916  -14.1990   24.7096 O   0  0  0  0  0  0  0  0  0  0  0  0
    9.7012  -13.7698   19.8173 C   0  0  0  0  0  0  0  0  0  0  0  0
    9.5254  -13.6192   18.4560 C   0  0  0  0  0  0  0  0  0  0  0  0
    8.8208  -16.4595   24.7415 N   0  0  0  0  0  0  0  0  0  0  0  0
    8.9147  -16.5633   26.1938 C   0  0  1  0  0  0  0  0  0  0  0  0
    7.6696  -16.1020   26.8671 C   0  0  0  0  0  0  0  0  0  0  0  0
    7.4143  -14.6704   26.8652 C   0  0  0  0  0  0  0  0  0  0  0  0
    8.3054  -13.8052   27.4550 C   0  0  0  0  0  0  0  0  0  0  0  0
    8.0951  -12.4278   27.4705 C   0  0  0  0  0  0  0  0  0  0  0  0
    6.9599  -11.9128   26.8773 C   0  0  0  0  0  0  0  0  0  0  0  0
    6.0455  -12.7548   26.2766 C   0  0  0  0  0  0  0  0  0  0  0  0
    6.2753  -14.1148   26.2738 C   0  0  0  0  0  0  0  0  0  0  0  0
    9.3142  -17.9216   26.6125 C   0  0  0  0  0  0  0  0  0  0  0  0
    9.5372  -18.1378   27.8257 O   0  0  0  0  0  0  0  0  0  0  0  0
    9.4628  -18.9940   25.7414 O   0  0  0  0  0  0  0  0  0  0  0  0
  2  1  1  0
  3  2  2  0
  4  3  1  0
  5  4  2  0
  5 11  1  0
  6  5  1  0
  7  9  1  0
  7  6  1  0
  7  8  1  1
  9 10  2  0
 11 12  2  0
 12  2  1  0
 13 14  1  0
 14 15  2  0
 15 16  1  0
 17 16  2  0
 17 18  1  0
 19 18  1  1
 19 21  1  0
 20 19  1  0
 20  9  1  0
 21 25  1  0
 21 22  2  0
 23 17  1  0
 24 14  1  0
 24 23  2  0
 25 26  1  0
 26 27  1  1
 28 27  1  0
 29 28  2  0
 30 29  1  0
 31 30  2  0
 31 32  1  0
 32 33  2  0
 33 28  1  0
 34 36  1  0
 34 26  1  0
 35 34  2  0
M  END
$$$$
