YYF.pdb
     RDKit          3D

 36 38  0  0  1  0  0  0  0  0999 V2000
    8.5171  -13.6231   15.6916 O   0  0  0  0  0  0  0  0  0  0  0  0
    8.2736  -13.9039   17.0328 C   0  0  0  0  0  0  0  0  0  0  0  0
    7.5904  -13.0068   17.8320 C   0  0  0  0  0  0  0  0  0  0  0  0
    7.3490  -13.2817   19.1555 C   0  0  0  0  0  0  0  0  0  0  0  0
    7.7853  -14.4686   19.7251 C   0  0  0  0  0  0  0  0  0  0  0  0
    7.5397  -14.7928   21.1551 C   0  0  0  0  0  0  0  0  0  0  0  0
    6.8894  -16.1590   21.2244 C   0  0  2  0  0  0  0  0  0  0  0  0
    5.5705  -16.0902   20.6391 N   0  0  0  0  0  0  0  0  0  0  0  0
    6.7617  -16.6403   22.6156 C   0  0  0  0  0  0  0  0  0  0  0  0
    5.8548  -16.1681   23.3386 O   0  0  0  0  0  0  0  0  0  0  0  0
    8.4651  -15.3408   18.8937 C   0  0  0  0  0  0  0  0  0  0  0  0
    8.7141  -15.0775   17.5639 C   0  0  0  0  0  0  0  0  0  0  0  0
    8.8714  -20.4393   30.2914 O   0  0  0  0  0  0  0  0  0  0  0  0
    8.6283  -20.1793   28.9568 C   0  0  0  0  0  0  0  0  0  0  0  0
    7.3974  -19.6715   28.5670 C   0  0  0  0  0  0  0  0  0  0  0  0
    7.1355  -19.4059   27.2429 C   0  0  0  0  0  0  0  0  0  0  0  0
    8.0679  -19.6275   26.2544 C   0  0  0  0  0  0  0  0  0  0  0  0
    7.8088  -19.3511   24.8432 C   0  0  0  0  0  0  0  0  0  0  0  0
    7.7839  -17.8731   24.5246 C   0  0  2  0  0  0  0  0  0  0  0  0
    7.6636  -17.6251   23.1089 N   0  0  0  0  0  0  0  0  0  0  0  0
    8.9755  -17.1842   25.0950 C   0  0  0  0  0  0  0  0  0  0  0  0
   10.1106  -17.4182   24.6055 O   0  0  0  0  0  0  0  0  0  0  0  0
    9.2955  -20.1320   26.6285 C   0  0  0  0  0  0  0  0  0  0  0  0
    9.5582  -20.3986   27.9577 C   0  0  0  0  0  0  0  0  0  0  0  0
    8.8932  -16.2711   26.1709 N   0  0  0  0  0  0  0  0  0  0  0  0
   10.0514  -15.5674   26.7114 C   0  0  1  0  0  0  0  0  0  0  0  0
    9.7756  -14.1197   26.9218 C   0  0  0  0  0  0  0  0  0  0  0  0
    8.4164  -13.7573   27.2908 C   0  0  0  0  0  0  0  0  0  0  0  0
    7.4032  -13.8270   26.3640 C   0  0  0  0  0  0  0  0  0  0  0  0
    6.0890  -13.4900   26.6820 C   0  0  0  0  0  0  0  0  0  0  0  0
    5.7915  -13.0736   27.9642 C   0  0  0  0  0  0  0  0  0  0  0  0
    6.7863  -12.9929   28.9180 C   0  0  0  0  0  0  0  0  0  0  0  0
    8.0798  -13.3316   28.5796 C   0  0  0  0  0  0  0  0  0  0  0  0
   10.5642  -16.2282   27.9280 C   0  0  0  0  0  0  0  0  0  0  0  0
   11.6597  -15.8510   28.4032 O   0  0  0  0  0  0  0  0  0  0  0  0
    9.9065  -17.2556   28.5935 O   0  0  0  0  0  0  0  0  0  0  0  0
  2  1  1  0
  3  2  2  0
  4  3  1  0
  5  4  2  0
  5 11  1  0
  6  5  1  0
  7  9  1  0
  7  6  1  0
  7  8  1  1
  9 10  2  0
 11 12  2  0
 12  2  1  0
 13 14  1  0
 14 15  2  0
 15 16  1  0
 17 16  2  0
 17 18  1  0
 19 18  1  6
 19 21  1  0
 20 19  1  0
 20  9  1  0
 21 25  1  0
 21 22  2  0
 23 17  1  0
 24 14  1  0
 24 23  2  0
 25 26  1  0
 26 27  1  1
 28 27  1  0
 29 28  2  0
 30 29  1  0
 31 30  2  0
 31 32  1  0
 32 33  2  0
 33 28  1  0
 34 36  1  0
 34 26  1  0
 35 34  2  0
M  END
$$$$
