YYF.pdb
     RDKit          3D

 36 38  0  0  1  0  0  0  0  0999 V2000
    8.1422  -12.1144   17.3878 O   0  0  0  0  0  0  0  0  0  0  0  0
    7.9126  -12.8653   18.5370 C   0  0  0  0  0  0  0  0  0  0  0  0
    8.2003  -14.2167   18.5697 C   0  0  0  0  0  0  0  0  0  0  0  0
    7.9745  -14.9595   19.7023 C   0  0  0  0  0  0  0  0  0  0  0  0
    7.4511  -14.3717   20.8443 C   0  0  0  0  0  0  0  0  0  0  0  0
    7.1950  -15.1508   22.0843 C   0  0  0  0  0  0  0  0  0  0  0  0
    7.6788  -16.5685   21.8595 C   0  0  2  0  0  0  0  0  0  0  0  0
    6.5623  -17.3975   21.4685 N   0  0  0  0  0  0  0  0  0  0  0  0
    8.2881  -17.1440   23.0764 C   0  0  0  0  0  0  0  0  0  0  0  0
    7.5476  -17.7018   23.9182 O   0  0  0  0  0  0  0  0  0  0  0  0
    7.1762  -13.0176   20.7728 C   0  0  0  0  0  0  0  0  0  0  0  0
    7.3979  -12.2604   19.6428 C   0  0  0  0  0  0  0  0  0  0  0  0
   10.7735  -23.0642   21.1302 O   0  0  0  0  0  0  0  0  0  0  0  0
   10.9728  -21.9200   21.8778 C   0  0  0  0  0  0  0  0  0  0  0  0
   11.2383  -20.7173   21.2390 C   0  0  0  0  0  0  0  0  0  0  0  0
   11.4397  -19.5666   21.9654 C   0  0  0  0  0  0  0  0  0  0  0  0
   11.3885  -19.5521   23.3412 C   0  0  0  0  0  0  0  0  0  0  0  0
   11.5990  -18.3402   24.1300 C   0  0  0  0  0  0  0  0  0  0  0  0
   10.3130  -17.6122   24.4509 C   0  0  2  0  0  0  0  0  0  0  0  0
    9.6955  -17.0565   23.2718 N   0  0  0  0  0  0  0  0  0  0  0  0
   10.5365  -16.5664   25.4883 C   0  0  0  0  0  0  0  0  0  0  0  0
   11.4047  -15.6788   25.2858 O   0  0  0  0  0  0  0  0  0  0  0  0
   11.1255  -20.7409   23.9884 C   0  0  0  0  0  0  0  0  0  0  0  0
   10.9233  -21.8958   23.2590 C   0  0  0  0  0  0  0  0  0  0  0  0
    9.8137  -16.5218   26.7023 N   0  0  0  0  0  0  0  0  0  0  0  0
   10.1043  -15.5711   27.7701 C   0  0  1  0  0  0  0  0  0  0  0  0
    8.9101  -14.7605   28.1347 C   0  0  0  0  0  0  0  0  0  0  0  0
    8.4367  -13.8070   27.1440 C   0  0  0  0  0  0  0  0  0  0  0  0
    9.2402  -13.4456   26.0884 C   0  0  0  0  0  0  0  0  0  0  0  0
    8.8195  -12.5371   25.1192 C   0  0  0  0  0  0  0  0  0  0  0  0
    7.5597  -11.9813   25.2182 C   0  0  0  0  0  0  0  0  0  0  0  0
    6.7286  -12.3233   26.2660 C   0  0  0  0  0  0  0  0  0  0  0  0
    7.1670  -13.2249   27.2134 C   0  0  0  0  0  0  0  0  0  0  0  0
   10.7115  -16.2406   28.9376 C   0  0  0  0  0  0  0  0  0  0  0  0
   10.6983  -17.4918   28.9898 O   0  0  0  0  0  0  0  0  0  0  0  0
   11.3059  -15.5697   29.9994 O   0  0  0  0  0  0  0  0  0  0  0  0
  2  1  1  0
  3  2  2  0
  4  3  1  0
  5  4  2  0
  5 11  1  0
  6  5  1  0
  7  9  1  0
  7  6  1  0
  7  8  1  1
  9 10  2  0
 11 12  2  0
 12  2  1  0
 13 14  1  0
 14 15  2  0
 15 16  1  0
 17 16  2  0
 17 18  1  0
 19 18  1  6
 19 21  1  0
 20 19  1  0
 20  9  1  0
 21 25  1  0
 21 22  2  0
 23 17  1  0
 24 14  1  0
 24 23  2  0
 25 26  1  0
 26 27  1  1
 28 27  1  0
 29 28  2  0
 30 29  1  0
 31 30  2  0
 31 32  1  0
 32 33  2  0
 33 28  1  0
 34 36  1  0
 34 26  1  0
 35 34  2  0
M  END
$$$$
