HPV.pdb
     RDKit          3D

 25 26  0  0  1  0  0  0  0  0999 V2000
   15.8272  -21.4178    3.0197 N   0  0  0  0  0  0  0  0  0  0  0  0
   16.9853  -21.9814    3.6116 C   0  0  1  0  0  0  0  0  0  0  0  0
   16.9564  -21.9069    5.1416 C   0  0  0  0  0  0  0  0  0  0  0  0
   16.6668  -20.5156    5.5867 C   0  0  0  0  0  0  0  0  0  0  0  0
   17.6089  -19.5260    5.7359 C   0  0  0  0  0  0  0  0  0  0  0  0
   16.9860  -18.4250    6.1457 N   0  0  0  0  0  0  0  0  0  0  0  0
   15.6960  -18.7163    6.2494 C   0  0  0  0  0  0  0  0  0  0  0  0
   15.4761  -19.9959    5.9109 N   0  0  0  0  0  0  0  0  0  0  0  0
   17.2736  -23.3794    3.2579 C   0  0  0  0  0  0  0  0  0  0  0  0
   16.2657  -24.0347    2.8260 O   0  0  0  0  0  0  0  0  0  0  0  0
   18.5520  -23.9941    3.3706 N   0  0  0  0  0  0  0  0  0  0  0  0
   19.7833  -23.4555    3.8913 C   0  0  0  0  0  0  0  0  0  0  0  0
   20.9051  -24.3141    3.3485 C   0  0  0  0  0  0  0  0  0  0  0  0
   20.2531  -25.2868    2.4093 C   0  0  0  0  0  0  0  0  0  0  0  0
   18.8431  -25.3437    2.9541 C   0  0  1  0  0  0  0  0  0  0  0  0
   18.8200  -26.3312    4.0429 C   0  0  0  0  0  0  0  0  0  0  0  0
   18.6922  -25.8960    5.2159 O   0  0  0  0  0  0  0  0  0  0  0  0
   16.7929  -28.9959    2.2666 C   0  0  0  0  0  0  0  0  0  0  0  0
   16.6772  -28.7128    3.7253 C   0  0  1  0  0  0  0  0  0  0  0  0
   15.8376  -29.8030    4.3581 C   0  0  0  0  0  0  0  0  0  0  0  0
   17.9978  -28.6822    4.4471 C   0  0  2  0  0  0  0  0  0  0  0  0
   18.9305  -27.7398    3.8835 N   0  0  0  0  0  0  0  0  0  0  0  0
   18.5934  -30.0379    4.3866 C   0  0  0  0  0  0  0  0  0  0  0  0
   19.1833  -30.4440    3.3470 O   0  0  0  0  0  0  0  0  0  0  0  0
   18.4887  -30.8556    5.5019 O   0  0  0  0  0  0  0  0  0  0  0  0
  2  9  1  0
  2  1  1  6
  3  2  1  0
  4  3  1  0
  5  4  2  0
  6  5  1  0
  7  6  1  0
  7  8  2  0
  8  4  1  0
  9 11  1  0
 10  9  2  0
 11 15  1  0
 12 11  1  0
 12 13  1  0
 13 14  1  0
 15 16  1  1
 15 14  1  0
 16 17  2  0
 19 18  1  6
 19 21  1  0
 19 20  1  0
 21 22  1  6
 22 16  1  0
 23 21  1  0
 24 23  2  0
 25 23  1  0
M  END
$$$$
