HPV.pdb
     RDKit          3D

 25 26  0  0  1  0  0  0  0  0999 V2000
   18.1717  -14.5980  -18.7515 N   0  0  0  0  0  0  0  0  0  0  0  0
   17.8299  -13.4808  -17.9488 C   0  0  1  0  0  0  0  0  0  0  0  0
   17.6011  -13.8614  -16.4825 C   0  0  0  0  0  0  0  0  0  0  0  0
   16.5015  -14.8596  -16.3722 C   0  0  0  0  0  0  0  0  0  0  0  0
   15.1848  -14.5541  -16.1224 C   0  0  0  0  0  0  0  0  0  0  0  0
   14.4980  -15.6923  -16.0939 N   0  0  0  0  0  0  0  0  0  0  0  0
   15.3569  -16.6779  -16.3185 C   0  0  0  0  0  0  0  0  0  0  0  0
   16.5946  -16.1899  -16.4926 N   0  0  0  0  0  0  0  0  0  0  0  0
   18.7886  -12.3658  -17.9556 C   0  0  0  0  0  0  0  0  0  0  0  0
   20.0130  -12.7210  -18.0360 O   0  0  0  0  0  0  0  0  0  0  0  0
   18.4293  -10.9909  -17.8808 N   0  0  0  0  0  0  0  0  0  0  0  0
   17.1220  -10.3906  -17.7917 C   0  0  0  0  0  0  0  0  0  0  0  0
   17.2693   -8.9463  -18.2188 C   0  0  0  0  0  0  0  0  0  0  0  0
   18.6965   -8.7977  -18.6600 C   0  0  0  0  0  0  0  0  0  0  0  0
   19.3763   -9.9034  -17.8831 C   0  0  1  0  0  0  0  0  0  0  0  0
   19.7017   -9.3817  -16.5477 C   0  0  0  0  0  0  0  0  0  0  0  0
   18.8142   -9.4680  -15.6609 O   0  0  0  0  0  0  0  0  0  0  0  0
   22.4362  -10.9818  -14.6398 C   0  0  0  0  0  0  0  0  0  0  0  0
   22.6448   -9.5085  -14.5561 C   0  0  1  0  0  0  0  0  0  0  0  0
   23.6666   -9.1107  -15.6009 C   0  0  0  0  0  0  0  0  0  0  0  0
   21.4000   -8.7011  -14.8101 C   0  0  2  0  0  0  0  0  0  0  0  0
   20.9368   -8.7860  -16.1717 N   0  0  0  0  0  0  0  0  0  0  0  0
   21.6914   -7.2832  -14.4923 C   0  0  0  0  0  0  0  0  0  0  0  0
   21.8673   -6.4335  -15.4092 O   0  0  0  0  0  0  0  0  0  0  0  0
   21.7672   -6.9072  -13.1595 O   0  0  0  0  0  0  0  0  0  0  0  0
  2  9  1  0
  2  1  1  6
  3  2  1  0
  4  3  1  0
  5  4  2  0
  6  5  1  0
  7  6  1  0
  7  8  2  0
  8  4  1  0
  9 11  1  0
 10  9  2  0
 11 15  1  0
 12 11  1  0
 12 13  1  0
 13 14  1  0
 15 16  1  1
 15 14  1  0
 16 17  2  0
 19 18  1  6
 19 21  1  0
 19 20  1  0
 21 22  1  6
 22 16  1  0
 23 21  1  0
 24 23  2  0
 25 23  1  0
M  END
$$$$
