HPV.pdb
     RDKit          3D

 25 26  0  0  1  0  0  0  0  0999 V2000
   22.8405  -21.4913  -15.3311 N   0  0  0  0  0  0  0  0  0  0  0  0
   23.6954  -20.5762  -14.6673 C   0  0  1  0  0  0  0  0  0  0  0  0
   22.9517  -19.3295  -14.1777 C   0  0  0  0  0  0  0  0  0  0  0  0
   22.3485  -18.6013  -15.3282 C   0  0  0  0  0  0  0  0  0  0  0  0
   23.0468  -17.8173  -16.2154 C   0  0  0  0  0  0  0  0  0  0  0  0
   22.1828  -17.3323  -17.1022 N   0  0  0  0  0  0  0  0  0  0  0  0
   20.9831  -17.7976  -16.7803 C   0  0  0  0  0  0  0  0  0  0  0  0
   21.0603  -18.5800  -15.6930 N   0  0  0  0  0  0  0  0  0  0  0  0
   24.4392  -21.1090  -13.5160 C   0  0  0  0  0  0  0  0  0  0  0  0
   23.7881  -21.9504  -12.8089 O   0  0  0  0  0  0  0  0  0  0  0  0
   25.7733  -20.7471  -13.1784 N   0  0  0  0  0  0  0  0  0  0  0  0
   26.6455  -19.7838  -13.8020 C   0  0  0  0  0  0  0  0  0  0  0  0
   28.0575  -20.1294  -13.3813 C   0  0  0  0  0  0  0  0  0  0  0  0
   27.9447  -21.3981  -12.5867 C   0  0  0  0  0  0  0  0  0  0  0  0
   26.5190  -21.3233  -12.0868 C   0  0  1  0  0  0  0  0  0  0  0  0
   26.5139  -20.5162  -10.8580 C   0  0  0  0  0  0  0  0  0  0  0  0
   26.5770  -19.2668  -10.9864 O   0  0  0  0  0  0  0  0  0  0  0  0
   25.8129  -22.2126   -6.8717 C   0  0  0  0  0  0  0  0  0  0  0  0
   25.2124  -20.9574   -7.4057 C   0  0  1  0  0  0  0  0  0  0  0  0
   24.9537  -20.0202   -6.2444 C   0  0  0  0  0  0  0  0  0  0  0  0
   26.0922  -20.2299   -8.3868 C   0  0  2  0  0  0  0  0  0  0  0  0
   26.4441  -21.0282   -9.5334 N   0  0  0  0  0  0  0  0  0  0  0  0
   27.3344  -19.8248   -7.6875 C   0  0  0  0  0  0  0  0  0  0  0  0
   28.4230  -20.4308   -7.8907 O   0  0  0  0  0  0  0  0  0  0  0  0
   27.2757  -18.7603   -6.8004 O   0  0  0  0  0  0  0  0  0  0  0  0
  2  9  1  0
  2  1  1  1
  3  2  1  0
  4  3  1  0
  5  4  2  0
  6  5  1  0
  7  6  1  0
  7  8  2  0
  8  4  1  0
  9 11  1  0
 10  9  2  0
 11 15  1  0
 12 11  1  0
 12 13  1  0
 13 14  1  0
 15 16  1  1
 15 14  1  0
 16 17  2  0
 19 18  1  1
 19 21  1  0
 19 20  1  0
 21 22  1  6
 22 16  1  0
 23 21  1  0
 24 23  2  0
 25 23  1  0
M  END
$$$$
