HPV.pdb
     RDKit          3D

 25 26  0  0  1  0  0  0  0  0999 V2000
   23.8895  -20.6631  -18.1163 N   0  0  0  0  0  0  0  0  0  0  0  0
   24.3560  -19.7831  -17.1078 C   0  0  1  0  0  0  0  0  0  0  0  0
   23.2516  -18.8640  -16.5759 C   0  0  0  0  0  0  0  0  0  0  0  0
   22.8526  -17.8776  -17.6178 C   0  0  0  0  0  0  0  0  0  0  0  0
   21.6590  -17.8939  -18.2993 C   0  0  0  0  0  0  0  0  0  0  0  0
   21.6552  -16.8672  -19.1442 N   0  0  0  0  0  0  0  0  0  0  0  0
   22.8088  -16.2293  -18.9962 C   0  0  0  0  0  0  0  0  0  0  0  0
   23.5611  -16.8324  -18.0632 N   0  0  0  0  0  0  0  0  0  0  0  0
   24.9825  -20.4181  -15.9387 C   0  0  0  0  0  0  0  0  0  0  0  0
   24.4579  -21.5315  -15.5966 O   0  0  0  0  0  0  0  0  0  0  0  0
   26.0824  -19.8753  -15.2171 N   0  0  0  0  0  0  0  0  0  0  0  0
   26.7869  -18.6346  -15.4203 C   0  0  0  0  0  0  0  0  0  0  0  0
   28.1244  -18.7673  -14.7249 C   0  0  0  0  0  0  0  0  0  0  0  0
   28.1810  -20.1804  -14.2214 C   0  0  0  0  0  0  0  0  0  0  0  0
   26.7128  -20.5209  -14.0922 C   0  0  1  0  0  0  0  0  0  0  0  0
   26.2520  -20.0392  -12.7819 C   0  0  0  0  0  0  0  0  0  0  0  0
   25.4515  -19.0694  -12.7709 O   0  0  0  0  0  0  0  0  0  0  0  0
   26.9120  -19.8967   -8.6702 C   0  0  0  0  0  0  0  0  0  0  0  0
   26.2866  -21.1584   -9.1582 C   0  0  1  0  0  0  0  0  0  0  0  0
   25.1657  -21.5331   -8.2111 C   0  0  0  0  0  0  0  0  0  0  0  0
   25.6959  -21.0519  -10.5387 C   0  0  2  0  0  0  0  0  0  0  0  0
   26.6351  -20.5766  -11.5224 N   0  0  0  0  0  0  0  0  0  0  0  0
   24.5479  -20.1164  -10.4833 C   0  0  0  0  0  0  0  0  0  0  0  0
   24.7243  -18.8667  -10.5159 O   0  0  0  0  0  0  0  0  0  0  0  0
   23.2687  -20.6451  -10.3945 O   0  0  0  0  0  0  0  0  0  0  0  0
  2  9  1  0
  2  1  1  6
  3  2  1  0
  4  3  1  0
  5  4  2  0
  6  5  1  0
  7  6  1  0
  7  8  2  0
  8  4  1  0
  9 11  1  0
 10  9  2  0
 11 15  1  0
 12 11  1  0
 12 13  1  0
 13 14  1  0
 15 16  1  1
 15 14  1  0
 16 17  2  0
 19 18  1  1
 19 21  1  0
 19 20  1  0
 21 22  1  6
 22 16  1  0
 23 21  1  0
 24 23  2  0
 25 23  1  0
M  END
$$$$
