HPV.pdb
     RDKit          3D

 25 26  0  0  1  0  0  0  0  0999 V2000
   27.7838  -20.3791  -17.8831 N   0  0  0  0  0  0  0  0  0  0  0  0
   27.7515  -19.6218  -16.6853 C   0  0  1  0  0  0  0  0  0  0  0  0
   26.7317  -18.4798  -16.7418 C   0  0  0  0  0  0  0  0  0  0  0  0
   27.0646  -17.5430  -17.8505 C   0  0  0  0  0  0  0  0  0  0  0  0
   26.3978  -17.4772  -19.0507 C   0  0  0  0  0  0  0  0  0  0  0  0
   26.9711  -16.5299  -19.7869 N   0  0  0  0  0  0  0  0  0  0  0  0
   27.9641  -16.0195  -19.0707 C   0  0  0  0  0  0  0  0  0  0  0  0
   28.0407  -16.6268  -17.8767 N   0  0  0  0  0  0  0  0  0  0  0  0
   27.4784  -20.3771  -15.4534 C   0  0  0  0  0  0  0  0  0  0  0  0
   26.5166  -21.2125  -15.5470 O   0  0  0  0  0  0  0  0  0  0  0  0
   28.1985  -20.2240  -14.2356 N   0  0  0  0  0  0  0  0  0  0  0  0
   29.2320  -19.2783  -13.8966 C   0  0  0  0  0  0  0  0  0  0  0  0
   29.9708  -19.8413  -12.7019 C   0  0  0  0  0  0  0  0  0  0  0  0
   29.3764  -21.1984  -12.4602 C   0  0  0  0  0  0  0  0  0  0  0  0
   27.9991  -21.0442  -13.0663 C   0  0  1  0  0  0  0  0  0  0  0  0
   27.1233  -20.4448  -12.0490 C   0  0  0  0  0  0  0  0  0  0  0  0
   27.2541  -19.2141  -11.8257 O   0  0  0  0  0  0  0  0  0  0  0  0
   23.4273  -22.2698  -11.8455 C   0  0  0  0  0  0  0  0  0  0  0  0
   23.7346  -20.8186  -11.7011 C   0  0  1  0  0  0  0  0  0  0  0  0
   22.5327  -20.1351  -11.0830 C   0  0  0  0  0  0  0  0  0  0  0  0
   24.9211  -20.5313  -10.8204 C   0  0  2  0  0  0  0  0  0  0  0  0
   26.1389  -21.1387  -11.2933 N   0  0  0  0  0  0  0  0  0  0  0  0
   24.6278  -21.0446   -9.4615 C   0  0  0  0  0  0  0  0  0  0  0  0
   25.2069  -22.0738   -9.0154 O   0  0  0  0  0  0  0  0  0  0  0  0
   23.6990  -20.3670   -8.6857 O   0  0  0  0  0  0  0  0  0  0  0  0
  2  9  1  0
  2  1  1  6
  3  2  1  0
  4  3  1  0
  5  4  2  0
  6  5  1  0
  7  6  1  0
  7  8  2  0
  8  4  1  0
  9 11  1  0
 10  9  2  0
 11 15  1  0
 12 11  1  0
 12 13  1  0
 13 14  1  0
 15 16  1  1
 15 14  1  0
 16 17  2  0
 19 18  1  1
 19 21  1  0
 19 20  1  0
 21 22  1  6
 22 16  1  0
 23 21  1  0
 24 23  2  0
 25 23  1  0
M  END
$$$$
