HPV.pdb
     RDKit          3D

 25 26  0  0  1  0  0  0  0  0999 V2000
   20.0176  -14.0939  -17.9630 N   0  0  0  0  0  0  0  0  0  0  0  0
   20.9958  -13.0824  -18.1336 C   0  0  1  0  0  0  0  0  0  0  0  0
   20.8006  -12.2919  -19.4313 C   0  0  0  0  0  0  0  0  0  0  0  0
   20.8984  -13.1979  -20.6091 C   0  0  0  0  0  0  0  0  0  0  0  0
   22.0752  -13.6213  -21.1794 C   0  0  0  0  0  0  0  0  0  0  0  0
   21.7729  -14.4141  -22.2032 N   0  0  0  0  0  0  0  0  0  0  0  0
   20.4501  -14.4845  -22.2713 C   0  0  0  0  0  0  0  0  0  0  0  0
   19.8911  -13.7448  -21.3013 N   0  0  0  0  0  0  0  0  0  0  0  0
   21.1004  -12.0981  -17.0460 C   0  0  0  0  0  0  0  0  0  0  0  0
   19.9833  -11.7677  -16.5219 O   0  0  0  0  0  0  0  0  0  0  0  0
   22.3214  -11.5332  -16.5823 N   0  0  0  0  0  0  0  0  0  0  0  0
   23.6560  -11.6844  -17.1052 C   0  0  0  0  0  0  0  0  0  0  0  0
   24.6107  -11.2913  -15.9988 C   0  0  0  0  0  0  0  0  0  0  0  0
   23.7510  -11.0235  -14.7977 C   0  0  0  0  0  0  0  0  0  0  0  0
   22.4296  -10.6615  -15.4386 C   0  0  1  0  0  0  0  0  0  0  0  0
   22.4667   -9.2298  -15.7706 C   0  0  0  0  0  0  0  0  0  0  0  0
   23.2294   -8.8721  -16.7043 O   0  0  0  0  0  0  0  0  0  0  0  0
   20.0456   -7.4495  -17.4736 C   0  0  0  0  0  0  0  0  0  0  0  0
   20.3176   -6.5658  -16.3047 C   0  0  1  0  0  0  0  0  0  0  0  0
   19.2076   -6.7580  -15.2924 C   0  0  0  0  0  0  0  0  0  0  0  0
   21.6201   -6.8583  -15.6092 C   0  0  2  0  0  0  0  0  0  0  0  0
   21.7128   -8.2120  -15.1246 N   0  0  0  0  0  0  0  0  0  0  0  0
   21.7543   -5.9301  -14.4618 C   0  0  0  0  0  0  0  0  0  0  0  0
   21.5146   -6.3132  -13.2830 O   0  0  0  0  0  0  0  0  0  0  0  0
   22.1509   -4.6247  -14.7112 O   0  0  0  0  0  0  0  0  0  0  0  0
  2  9  1  0
  2  1  1  1
  3  2  1  0
  4  3  1  0
  5  4  2  0
  6  5  1  0
  7  6  1  0
  7  8  2  0
  8  4  1  0
  9 11  1  0
 10  9  2  0
 11 15  1  0
 12 11  1  0
 12 13  1  0
 13 14  1  0
 15 16  1  6
 15 14  1  0
 16 17  2  0
 19 18  1  6
 19 21  1  0
 19 20  1  0
 21 22  1  1
 22 16  1  0
 23 21  1  0
 24 23  2  0
 25 23  1  0
M  END
$$$$
