HPV.pdb
     RDKit          3D

 25 26  0  0  1  0  0  0  0  0999 V2000
   24.5764  -21.8127  -15.9728 N   0  0  0  0  0  0  0  0  0  0  0  0
   25.2028  -20.8112  -15.1895 C   0  0  1  0  0  0  0  0  0  0  0  0
   24.2813  -19.6174  -14.9192 C   0  0  0  0  0  0  0  0  0  0  0  0
   23.8796  -18.9731  -16.2004 C   0  0  0  0  0  0  0  0  0  0  0  0
   22.6496  -19.1120  -16.7980 C   0  0  0  0  0  0  0  0  0  0  0  0
   22.6555  -18.3974  -17.9193 N   0  0  0  0  0  0  0  0  0  0  0  0
   23.8502  -17.8299  -18.0200 C   0  0  0  0  0  0  0  0  0  0  0  0
   24.6196  -18.1695  -16.9745 N   0  0  0  0  0  0  0  0  0  0  0  0
   25.7288  -21.2475  -13.8873 C   0  0  0  0  0  0  0  0  0  0  0  0
   24.9652  -22.0488  -13.2497 O   0  0  0  0  0  0  0  0  0  0  0  0
   26.9779  -20.8380  -13.3423 N   0  0  0  0  0  0  0  0  0  0  0  0
   27.9539  -19.9230  -13.8783 C   0  0  0  0  0  0  0  0  0  0  0  0
   29.2617  -20.2094  -13.1728 C   0  0  0  0  0  0  0  0  0  0  0  0
   28.9989  -21.4026  -12.3006 C   0  0  0  0  0  0  0  0  0  0  0  0
   27.5053  -21.3029  -12.0832 C   0  0  1  0  0  0  0  0  0  0  0  0
   27.2740  -20.3883  -10.9557 C   0  0  0  0  0  0  0  0  0  0  0  0
   27.3080  -19.1542  -11.1955 O   0  0  0  0  0  0  0  0  0  0  0  0
   24.0918  -20.2528   -9.2810 C   0  0  0  0  0  0  0  0  0  0  0  0
   25.0904  -20.2548   -8.1748 C   0  0  1  0  0  0  0  0  0  0  0  0
   25.1468  -21.6487   -7.5849 C   0  0  0  0  0  0  0  0  0  0  0  0
   26.4845  -19.8914   -8.6112 C   0  0  2  0  0  0  0  0  0  0  0  0
   27.0148  -20.7800   -9.6136 N   0  0  0  0  0  0  0  0  0  0  0  0
   27.3694  -19.9293   -7.4231 C   0  0  0  0  0  0  0  0  0  0  0  0
   28.2388  -20.8346   -7.2875 O   0  0  0  0  0  0  0  0  0  0  0  0
   27.2219  -18.9443   -6.4579 O   0  0  0  0  0  0  0  0  0  0  0  0
  2  9  1  0
  2  1  1  1
  3  2  1  0
  4  3  1  0
  5  4  2  0
  6  5  1  0
  7  6  1  0
  7  8  2  0
  8  4  1  0
  9 11  1  0
 10  9  2  0
 11 15  1  0
 12 11  1  0
 12 13  1  0
 13 14  1  0
 15 16  1  1
 15 14  1  0
 16 17  2  0
 19 18  1  6
 19 21  1  0
 19 20  1  0
 21 22  1  6
 22 16  1  0
 23 21  1  0
 24 23  2  0
 25 23  1  0
M  END
$$$$
