HPV.pdb
     RDKit          3D

 25 26  0  0  1  0  0  0  0  0999 V2000
   23.8982  -13.5983  -20.1460 N   0  0  0  0  0  0  0  0  0  0  0  0
   23.1230  -12.4397  -20.4029 C   0  0  1  0  0  0  0  0  0  0  0  0
   21.6212  -12.7389  -20.4518 C   0  0  0  0  0  0  0  0  0  0  0  0
   21.3322  -13.7703  -21.4864 C   0  0  0  0  0  0  0  0  0  0  0  0
   21.3216  -13.5424  -22.8418 C   0  0  0  0  0  0  0  0  0  0  0  0
   21.0260  -14.6883  -23.4481 N   0  0  0  0  0  0  0  0  0  0  0  0
   20.8572  -15.6034  -22.5027 C   0  0  0  0  0  0  0  0  0  0  0  0
   21.0405  -15.0621  -21.2887 N   0  0  0  0  0  0  0  0  0  0  0  0
   23.3052  -11.3222  -19.4646 C   0  0  0  0  0  0  0  0  0  0  0  0
   23.6393  -11.6727  -18.2825 O   0  0  0  0  0  0  0  0  0  0  0  0
   23.1345   -9.9498  -19.7998 N   0  0  0  0  0  0  0  0  0  0  0  0
   22.7207   -9.3574  -21.0468 C   0  0  0  0  0  0  0  0  0  0  0  0
   23.1614   -7.9100  -21.0157 C   0  0  0  0  0  0  0  0  0  0  0  0
   23.9409   -7.7509  -19.7427 C   0  0  0  0  0  0  0  0  0  0  0  0
   23.3638   -8.8569  -18.8873 C   0  0  1  0  0  0  0  0  0  0  0  0
   22.1470   -8.3408  -18.2437 C   0  0  0  0  0  0  0  0  0  0  0  0
   21.0965   -8.3085  -18.9343 O   0  0  0  0  0  0  0  0  0  0  0  0
   21.9664   -9.0307  -14.1751 C   0  0  0  0  0  0  0  0  0  0  0  0
   20.8201   -9.0427  -15.1275 C   0  0  1  0  0  0  0  0  0  0  0  0
   19.5371   -8.9193  -14.3321 C   0  0  0  0  0  0  0  0  0  0  0  0
   20.8443   -7.9156  -16.1250 C   0  0  2  0  0  0  0  0  0  0  0  0
   22.0555   -7.8733  -16.9040 N   0  0  0  0  0  0  0  0  0  0  0  0
   20.7060   -6.6376  -15.3874 C   0  0  0  0  0  0  0  0  0  0  0  0
   21.7222   -5.9887  -15.0133 O   0  0  0  0  0  0  0  0  0  0  0  0
   19.4301   -6.1668  -15.1152 O   0  0  0  0  0  0  0  0  0  0  0  0
  2  9  1  0
  2  1  1  1
  3  2  1  0
  4  3  1  0
  5  4  2  0
  6  5  1  0
  7  6  1  0
  7  8  2  0
  8  4  1  0
  9 11  1  0
 10  9  2  0
 11 15  1  0
 12 11  1  0
 12 13  1  0
 13 14  1  0
 15 16  1  6
 15 14  1  0
 16 17  2  0
 19 18  1  1
 19 21  1  0
 19 20  1  0
 21 22  1  1
 22 16  1  0
 23 21  1  0
 24 23  2  0
 25 23  1  0
M  END
$$$$
