HPV.pdb
     RDKit          3D

 25 26  0  0  1  0  0  0  0  0999 V2000
   14.4308  -22.0108    1.8423 N   0  0  0  0  0  0  0  0  0  0  0  0
   15.5769  -22.6385    2.3914 C   0  0  1  0  0  0  0  0  0  0  0  0
   16.7331  -22.7259    1.3899 C   0  0  0  0  0  0  0  0  0  0  0  0
   16.3025  -23.4543    0.1644 C   0  0  0  0  0  0  0  0  0  0  0  0
   16.3526  -24.8183    0.0025 C   0  0  0  0  0  0  0  0  0  0  0  0
   15.8897  -25.1046   -1.2107 N   0  0  0  0  0  0  0  0  0  0  0  0
   15.5607  -23.9570   -1.7890 C   0  0  0  0  0  0  0  0  0  0  0  0
   15.8058  -22.9288   -0.9626 N   0  0  0  0  0  0  0  0  0  0  0  0
   16.1186  -22.0317    3.6165 C   0  0  0  0  0  0  0  0  0  0  0  0
   15.8787  -20.7831    3.7393 O   0  0  0  0  0  0  0  0  0  0  0  0
   16.8543  -22.7365    4.6100 N   0  0  0  0  0  0  0  0  0  0  0  0
   17.3183  -24.1010    4.6087 C   0  0  0  0  0  0  0  0  0  0  0  0
   17.6031  -24.4718    6.0480 C   0  0  0  0  0  0  0  0  0  0  0  0
   17.1684  -23.2897    6.8648 C   0  0  0  0  0  0  0  0  0  0  0  0
   17.2826  -22.1630    5.8619 C   0  0  1  0  0  0  0  0  0  0  0  0
   18.6760  -21.6942    5.8674 C   0  0  0  0  0  0  0  0  0  0  0  0
   19.4935  -22.3015    5.1296 O   0  0  0  0  0  0  0  0  0  0  0  0
   19.6208  -18.4445    4.5217 C   0  0  0  0  0  0  0  0  0  0  0  0
   20.2572  -18.5383    5.8661 C   0  0  1  0  0  0  0  0  0  0  0  0
   19.3786  -17.8102    6.8621 C   0  0  0  0  0  0  0  0  0  0  0  0
   20.4301  -19.9491    6.3618 C   0  0  2  0  0  0  0  0  0  0  0  0
   19.1802  -20.6106    6.6375 N   0  0  0  0  0  0  0  0  0  0  0  0
   21.2347  -19.9106    7.6057 C   0  0  0  0  0  0  0  0  0  0  0  0
   22.4570  -19.5960    7.5808 O   0  0  0  0  0  0  0  0  0  0  0  0
   20.6135  -20.2290    8.8042 O   0  0  0  0  0  0  0  0  0  0  0  0
  2  9  1  0
  2  1  1  6
  3  2  1  0
  4  3  1  0
  5  4  2  0
  6  5  1  0
  7  6  1  0
  7  8  2  0
  8  4  1  0
  9 11  1  0
 10  9  2  0
 11 15  1  0
 12 11  1  0
 12 13  1  0
 13 14  1  0
 15 16  1  6
 15 14  1  0
 16 17  2  0
 19 18  1  6
 19 21  1  0
 19 20  1  0
 21 22  1  1
 22 16  1  0
 23 21  1  0
 24 23  2  0
 25 23  1  0
M  END
$$$$
