ERD.pdb
     RDKit          3D

 29 28  0  0  1  0  0  0  0  0999 V2000
   26.7275  -19.0083  -17.4439 N   0  0  0  0  0  0  0  0  0  0  0  0
   26.3088  -20.3070  -17.8738 C   0  0  1  0  0  0  0  0  0  0  0  0
   27.4470  -21.2975  -17.9374 C   0  0  0  0  0  0  0  0  0  0  0  0
   27.6831  -22.0013  -16.6201 C   0  0  0  0  0  0  0  0  0  0  0  0
   28.8139  -22.9259  -16.8138 C   0  0  0  0  0  0  0  0  0  0  0  0
   29.0058  -23.8384  -15.9928 O   0  0  0  0  0  0  0  0  0  0  0  0
   25.1590  -20.7793  -17.0859 C   0  0  0  0  0  0  0  0  0  0  0  0
   24.4339  -21.7506  -17.4317 O   0  0  0  0  0  0  0  0  0  0  0  0
   29.6439  -22.7751  -17.8930 O   0  0  0  0  0  0  0  0  0  0  0  0
   24.9737  -20.9000   -8.4729 N   0  0  0  0  0  0  0  0  0  0  0  0
   23.6230  -21.1834   -8.7836 C   0  0  0  0  0  0  0  0  0  0  0  0
   22.7961  -21.4585   -7.8394 N   0  0  0  0  0  0  0  0  0  0  0  0
   23.2060  -21.1570  -10.1506 N   0  0  0  0  0  0  0  0  0  0  0  0
   24.1106  -20.6610  -11.1574 C   0  0  0  0  0  0  0  0  0  0  0  0
   23.4451  -20.8661  -12.5289 C   0  0  0  0  0  0  0  0  0  0  0  0
   24.3963  -20.4062  -13.5768 C   0  0  0  0  0  0  0  0  0  0  0  0
   23.8453  -20.6153  -14.9440 C   0  0  2  0  0  0  0  0  0  0  0  0
   24.8542  -20.1025  -15.8746 N   0  0  0  0  0  0  0  0  0  0  0  0
   22.5999  -19.8800  -15.2054 C   0  0  0  0  0  0  0  0  0  0  0  0
   22.6060  -18.6343  -15.2074 O   0  0  0  0  0  0  0  0  0  0  0  0
   21.8197  -21.7102   -8.0926 N   0  0  0  0  0  0  0  0  0  0  0  0
   21.3923  -20.5646  -15.4545 C   0  0  1  0  0  0  0  0  0  0  0  0
   20.1091  -19.9107  -15.7150 C   0  0  0  0  0  0  0  0  0  0  0  0
   19.5125  -20.5457  -16.9043 C   0  0  0  0  0  0  0  0  0  0  0  0
   19.9439  -20.0994  -18.2206 O   0  0  0  0  0  0  0  0  0  0  0  0
   20.6854  -19.1463  -18.5048 C   0  0  0  0  0  0  0  0  0  0  0  0
   19.2757  -19.8922  -14.4899 O   0  0  0  0  0  0  0  0  0  0  0  0
   19.3107  -20.8165  -13.6620 O   0  0  0  0  0  0  0  0  0  0  0  0
   19.4459  -20.8605  -19.3067 O   0  0  0  0  0  0  0  0  0  0  0  0
  2  1  1  1
  2  3  1  0
  2  7  1  0
  3  4  1  0
  4  5  1  0
  5  9  1  0
  6  5  2  0
  7  8  2  0
 11 10  1  0
 12 11  2  0
 13 11  1  0
 14 13  1  0
 15 14  1  0
 15 16  1  0
 17 16  1  1
 18  7  1  0
 18 17  1  0
 19 17  1  0
 19 20  2  0
 21 19  1  0
 22 21  1  0
 22 23  1  6
 24 25  2  0
 24 23  1  0
 26 22  1  0
 26 29  1  0
 27 26  2  0
 28 24  1  0
M  END
$$$$
