ERD.pdb
     RDKit          3D

 29 28  0  0  1  0  0  0  0  0999 V2000
   21.2979  -11.4026  -20.8920 N   0  0  0  0  0  0  0  0  0  0  0  0
   22.0991  -10.4531  -20.1825 C   0  0  1  0  0  0  0  0  0  0  0  0
   23.0421   -9.6931  -21.0846 C   0  0  0  0  0  0  0  0  0  0  0  0
   24.1646  -10.5558  -21.6156 C   0  0  0  0  0  0  0  0  0  0  0  0
   25.2876  -10.4458  -20.6680 C   0  0  0  0  0  0  0  0  0  0  0  0
   26.3642   -9.9564  -21.0489 O   0  0  0  0  0  0  0  0  0  0  0  0
   21.2647   -9.5854  -19.3360 C   0  0  0  0  0  0  0  0  0  0  0  0
   20.3237   -8.8771  -19.7847 O   0  0  0  0  0  0  0  0  0  0  0  0
   25.1396  -10.8820  -19.3780 O   0  0  0  0  0  0  0  0  0  0  0  0
   18.2011  -14.6276  -15.4346 N   0  0  0  0  0  0  0  0  0  0  0  0
   17.5338  -13.9198  -16.4616 C   0  0  0  0  0  0  0  0  0  0  0  0
   16.7773  -14.5533  -17.2845 N   0  0  0  0  0  0  0  0  0  0  0  0
   17.7177  -12.5057  -16.5610 N   0  0  0  0  0  0  0  0  0  0  0  0
   18.9722  -11.9244  -16.1535 C   0  0  0  0  0  0  0  0  0  0  0  0
   18.9010  -10.4127  -16.4293 C   0  0  0  0  0  0  0  0  0  0  0  0
   20.1956   -9.8067  -16.0155 C   0  0  0  0  0  0  0  0  0  0  0  0
   20.6760   -8.8115  -17.0131 C   0  0  2  0  0  0  0  0  0  0  0  0
   21.5379   -9.5469  -17.9423 N   0  0  0  0  0  0  0  0  0  0  0  0
   21.4845   -7.7286  -16.4356 C   0  0  0  0  0  0  0  0  0  0  0  0
   22.6646   -7.9481  -16.1024 O   0  0  0  0  0  0  0  0  0  0  0  0
   16.7220  -15.5889  -17.2110 N   0  0  0  0  0  0  0  0  0  0  0  0
   20.9437   -6.4392  -16.2509 C   0  0  2  0  0  0  0  0  0  0  0  0
   21.6758   -5.3095  -15.6767 C   0  0  0  0  0  0  0  0  0  0  0  0
   21.0038   -4.0703  -16.1084 C   0  0  0  0  0  0  0  0  0  0  0  0
   21.5047   -2.7980  -15.6099 O   0  0  0  0  0  0  0  0  0  0  0  0
   22.5091   -2.5868  -14.9131 C   0  0  0  0  0  0  0  0  0  0  0  0
   21.8503   -5.4901  -14.2163 O   0  0  0  0  0  0  0  0  0  0  0  0
   20.9455   -5.9511  -13.5023 O   0  0  0  0  0  0  0  0  0  0  0  0
   20.7373   -1.6648  -15.9753 O   0  0  0  0  0  0  0  0  0  0  0  0
  2  1  1  6
  2  3  1  0
  2  7  1  0
  3  4  1  0
  4  5  1  0
  5  9  1  0
  6  5  2  0
  7  8  2  0
 11 10  1  0
 12 11  2  0
 13 11  1  0
 14 13  1  0
 15 14  1  0
 15 16  1  0
 17 16  1  1
 18  7  1  0
 18 17  1  0
 19 17  1  0
 19 20  2  0
 21 19  1  0
 22 21  1  0
 22 23  1  6
 24 25  2  0
 24 23  1  0
 26 22  1  0
 26 29  1  0
 27 26  2  0
 28 24  1  0
M  END
$$$$
