ERD.pdb
     RDKit          3D

 29 28  0  0  1  0  0  0  0  0999 V2000
   26.8229  -16.2121  -18.6702 N   0  0  0  0  0  0  0  0  0  0  0  0
   26.5718  -17.5441  -19.1279 C   0  0  1  0  0  0  0  0  0  0  0  0
   27.6898  -18.0889  -19.9846 C   0  0  0  0  0  0  0  0  0  0  0  0
   28.8791  -18.5468  -19.1708 C   0  0  0  0  0  0  0  0  0  0  0  0
   29.8647  -19.1068  -20.1122 C   0  0  0  0  0  0  0  0  0  0  0  0
   30.0602  -20.3335  -20.1357 O   0  0  0  0  0  0  0  0  0  0  0  0
   26.2019  -18.4263  -18.0096 C   0  0  0  0  0  0  0  0  0  0  0  0
   25.8226  -19.6185  -18.1634 O   0  0  0  0  0  0  0  0  0  0  0  0
   30.5574  -18.2757  -20.9524 O   0  0  0  0  0  0  0  0  0  0  0  0
   25.9903  -20.9979  -10.6000 N   0  0  0  0  0  0  0  0  0  0  0  0
   25.8148  -21.6764  -11.8288 C   0  0  0  0  0  0  0  0  0  0  0  0
   24.9594  -22.6314  -11.9130 N   0  0  0  0  0  0  0  0  0  0  0  0
   26.5989  -21.2812  -12.9569 N   0  0  0  0  0  0  0  0  0  0  0  0
   27.4637  -20.1328  -12.8507 C   0  0  0  0  0  0  0  0  0  0  0  0
   26.6202  -18.8809  -13.1464 C   0  0  0  0  0  0  0  0  0  0  0  0
   27.0024  -18.3743  -14.4924 C   0  0  0  0  0  0  0  0  0  0  0  0
   25.9866  -18.7341  -15.5196 C   0  0  2  0  0  0  0  0  0  0  0  0
   26.2771  -17.9030  -16.6910 N   0  0  0  0  0  0  0  0  0  0  0  0
   24.6023  -18.4483  -15.1171 C   0  0  0  0  0  0  0  0  0  0  0  0
   24.2903  -17.3004  -14.7471 O   0  0  0  0  0  0  0  0  0  0  0  0
   24.8494  -23.1201  -12.8239 N   0  0  0  0  0  0  0  0  0  0  0  0
   23.6169  -19.4569  -15.1423 C   0  0  2  0  0  0  0  0  0  0  0  0
   22.2090  -19.2468  -14.8023 C   0  0  0  0  0  0  0  0  0  0  0  0
   21.4550  -19.1169  -16.0625 C   0  0  0  0  0  0  0  0  0  0  0  0
   20.0240  -18.8615  -15.9931 O   0  0  0  0  0  0  0  0  0  0  0  0
   19.3291  -18.6455  -14.9884 C   0  0  0  0  0  0  0  0  0  0  0  0
   21.7401  -20.2884  -13.8582 O   0  0  0  0  0  0  0  0  0  0  0  0
   22.1799  -21.4486  -13.8945 O   0  0  0  0  0  0  0  0  0  0  0  0
   19.3518  -18.8623  -17.2401 O   0  0  0  0  0  0  0  0  0  0  0  0
  2  1  1  1
  2  3  1  0
  2  7  1  0
  3  4  1  0
  4  5  1  0
  5  9  1  0
  6  5  2  0
  7  8  2  0
 11 10  1  0
 12 11  2  0
 13 11  1  0
 14 13  1  0
 15 14  1  0
 15 16  1  0
 17 16  1  1
 18  7  1  0
 18 17  1  0
 19 17  1  0
 19 20  2  0
 21 19  1  0
 22 21  1  0
 22 23  1  6
 24 25  2  0
 24 23  1  0
 26 22  1  0
 26 29  1  0
 27 26  2  0
 28 24  1  0
M  END
$$$$
