ERD.pdb
     RDKit          3D

 29 28  0  0  1  0  0  0  0  0999 V2000
   22.2192  -17.7002  -17.7497 N   0  0  0  0  0  0  0  0  0  0  0  0
   23.1041  -18.6211  -17.1048 C   0  0  1  0  0  0  0  0  0  0  0  0
   24.5595  -18.3148  -17.3664 C   0  0  0  0  0  0  0  0  0  0  0  0
   24.9936  -18.6923  -18.7647 C   0  0  0  0  0  0  0  0  0  0  0  0
   24.9390  -20.1618  -18.8587 C   0  0  0  0  0  0  0  0  0  0  0  0
   25.5938  -20.8509  -18.0588 O   0  0  0  0  0  0  0  0  0  0  0  0
   22.7770  -18.7559  -15.6763 C   0  0  0  0  0  0  0  0  0  0  0  0
   22.6568  -17.7726  -14.8970 O   0  0  0  0  0  0  0  0  0  0  0  0
   24.1704  -20.7576  -19.8234 O   0  0  0  0  0  0  0  0  0  0  0  0
   17.3159  -24.1719  -12.0843 N   0  0  0  0  0  0  0  0  0  0  0  0
   17.6675  -23.4277  -13.2348 C   0  0  0  0  0  0  0  0  0  0  0  0
   17.1395  -23.7204  -14.3690 N   0  0  0  0  0  0  0  0  0  0  0  0
   18.6090  -22.3595  -13.1082 N   0  0  0  0  0  0  0  0  0  0  0  0
   19.7557  -22.5243  -12.2505 C   0  0  0  0  0  0  0  0  0  0  0  0
   20.5511  -21.2079  -12.2718 C   0  0  0  0  0  0  0  0  0  0  0  0
   20.9689  -20.9439  -13.6755 C   0  0  0  0  0  0  0  0  0  0  0  0
   22.3032  -20.2859  -13.7332 C   0  0  2  0  0  0  0  0  0  0  0  0
   22.5885  -20.0632  -15.1531 N   0  0  0  0  0  0  0  0  0  0  0  0
   23.3975  -21.1053  -13.1938 C   0  0  0  0  0  0  0  0  0  0  0  0
   23.4369  -22.3255  -13.4421 O   0  0  0  0  0  0  0  0  0  0  0  0
   17.4229  -23.1708  -15.2048 N   0  0  0  0  0  0  0  0  0  0  0  0
   24.4083  -20.5306  -12.3956 C   0  0  1  0  0  0  0  0  0  0  0  0
   25.4979  -21.2828  -11.7719 C   0  0  0  0  0  0  0  0  0  0  0  0
   26.7708  -20.7172  -12.2551 C   0  0  0  0  0  0  0  0  0  0  0  0
   27.1977  -21.0252  -13.6118 O   0  0  0  0  0  0  0  0  0  0  0  0
   26.6464  -21.7632  -14.4427 C   0  0  0  0  0  0  0  0  0  0  0  0
   25.3174  -21.3390  -10.3022 O   0  0  0  0  0  0  0  0  0  0  0  0
   26.0391  -22.0470   -9.5820 O   0  0  0  0  0  0  0  0  0  0  0  0
   28.3976  -20.3941  -14.0225 O   0  0  0  0  0  0  0  0  0  0  0  0
  2  1  1  1
  2  3  1  0
  2  7  1  0
  3  4  1  0
  4  5  1  0
  5  9  1  0
  6  5  2  0
  7  8  2  0
 11 10  1  0
 12 11  2  0
 13 11  1  0
 14 13  1  0
 15 14  1  0
 15 16  1  0
 17 16  1  6
 18  7  1  0
 18 17  1  0
 19 17  1  0
 19 20  2  0
 21 19  1  0
 22 21  1  0
 22 23  1  1
 24 25  2  0
 24 23  1  0
 26 22  1  0
 26 29  1  0
 27 26  2  0
 28 24  1  0
M  END
$$$$
