ERD.pdb
     RDKit          3D

 29 28  0  0  1  0  0  0  0  0999 V2000
   27.1852  -19.6308  -19.7846 N   0  0  0  0  0  0  0  0  0  0  0  0
   26.5126  -18.9554  -18.7177 C   0  0  1  0  0  0  0  0  0  0  0  0
   25.4730  -17.9761  -19.2085 C   0  0  0  0  0  0  0  0  0  0  0  0
   26.0707  -16.8448  -20.0143 C   0  0  0  0  0  0  0  0  0  0  0  0
   25.5975  -15.5836  -19.4168 C   0  0  0  0  0  0  0  0  0  0  0  0
   24.6226  -15.5991  -18.6469 O   0  0  0  0  0  0  0  0  0  0  0  0
   25.9987  -19.9139  -17.7263 C   0  0  0  0  0  0  0  0  0  0  0  0
   25.5260  -21.0414  -18.0326 O   0  0  0  0  0  0  0  0  0  0  0  0
   26.2320  -14.4062  -19.7123 O   0  0  0  0  0  0  0  0  0  0  0  0
   25.8618  -19.2020   -9.4343 N   0  0  0  0  0  0  0  0  0  0  0  0
   25.6559  -20.5988   -9.5225 C   0  0  0  0  0  0  0  0  0  0  0  0
   24.9137  -21.1895   -8.6558 N   0  0  0  0  0  0  0  0  0  0  0  0
   26.2829  -21.3263  -10.5813 N   0  0  0  0  0  0  0  0  0  0  0  0
   26.7876  -20.6137  -11.7281 C   0  0  0  0  0  0  0  0  0  0  0  0
   25.8730  -20.9370  -12.9219 C   0  0  0  0  0  0  0  0  0  0  0  0
   26.3580  -20.1640  -14.0973 C   0  0  0  0  0  0  0  0  0  0  0  0
   25.5339  -20.4360  -15.3071 C   0  0  2  0  0  0  0  0  0  0  0  0
   26.0390  -19.5449  -16.3549 N   0  0  0  0  0  0  0  0  0  0  0  0
   24.1048  -20.1388  -15.1360 C   0  0  0  0  0  0  0  0  0  0  0  0
   23.7394  -18.9700  -14.9069 O   0  0  0  0  0  0  0  0  0  0  0  0
   24.7839  -22.2181   -8.7324 N   0  0  0  0  0  0  0  0  0  0  0  0
   23.1359  -21.1595  -15.2269 C   0  0  2  0  0  0  0  0  0  0  0  0
   21.6933  -20.9440  -15.1071 C   0  0  0  0  0  0  0  0  0  0  0  0
   21.0124  -22.1158  -15.6873 C   0  0  0  0  0  0  0  0  0  0  0  0
   21.2502  -22.4353  -17.0871 O   0  0  0  0  0  0  0  0  0  0  0  0
   21.2200  -23.5464  -17.6382 C   0  0  0  0  0  0  0  0  0  0  0  0
   21.3328  -20.5959  -13.7125 O   0  0  0  0  0  0  0  0  0  0  0  0
   22.0439  -20.9294  -12.7513 O   0  0  0  0  0  0  0  0  0  0  0  0
   21.5534  -21.3259  -17.9141 O   0  0  0  0  0  0  0  0  0  0  0  0
  2  1  1  6
  2  3  1  0
  2  7  1  0
  3  4  1  0
  4  5  1  0
  5  9  1  0
  6  5  2  0
  7  8  2  0
 11 10  1  0
 12 11  2  0
 13 11  1  0
 14 13  1  0
 15 14  1  0
 15 16  1  0
 17 16  1  1
 18  7  1  0
 18 17  1  0
 19 17  1  0
 19 20  2  0
 21 19  1  0
 22 21  1  0
 22 23  1  6
 24 25  2  0
 24 23  1  0
 26 22  1  0
 26 29  1  0
 27 26  2  0
 28 24  1  0
M  END
$$$$
