ERD.pdb
     RDKit          3D

 29 28  0  0  1  0  0  0  0  0999 V2000
   28.3173  -22.5663  -17.1696 N   0  0  0  0  0  0  0  0  0  0  0  0
   28.1238  -21.5019  -16.2334 C   0  0  1  0  0  0  0  0  0  0  0  0
   28.3086  -20.1371  -16.8528 C   0  0  0  0  0  0  0  0  0  0  0  0
   27.3409  -19.8734  -17.9843 C   0  0  0  0  0  0  0  0  0  0  0  0
   26.7733  -18.5303  -17.7714 C   0  0  0  0  0  0  0  0  0  0  0  0
   27.5112  -17.6083  -17.3855 O   0  0  0  0  0  0  0  0  0  0  0  0
   26.8490  -21.6558  -15.5144 C   0  0  0  0  0  0  0  0  0  0  0  0
   25.8352  -22.2147  -16.0129 O   0  0  0  0  0  0  0  0  0  0  0  0
   25.4412  -18.3065  -17.9987 O   0  0  0  0  0  0  0  0  0  0  0  0
   22.4012  -19.8296   -9.3090 N   0  0  0  0  0  0  0  0  0  0  0  0
   23.1180  -20.7654   -8.5270 C   0  0  0  0  0  0  0  0  0  0  0  0
   22.5190  -21.3987   -7.5831 N   0  0  0  0  0  0  0  0  0  0  0  0
   24.5023  -20.9865   -8.8068 N   0  0  0  0  0  0  0  0  0  0  0  0
   25.1669  -20.1639   -9.7862 C   0  0  0  0  0  0  0  0  0  0  0  0
   24.7070  -20.6275  -11.1790 C   0  0  0  0  0  0  0  0  0  0  0  0
   25.9191  -20.9032  -11.9971 C   0  0  0  0  0  0  0  0  0  0  0  0
   25.5602  -21.3405  -13.3742 C   0  0  2  0  0  0  0  0  0  0  0  0
   26.7610  -21.1464  -14.1911 N   0  0  0  0  0  0  0  0  0  0  0  0
   24.4838  -20.5519  -13.9903 C   0  0  0  0  0  0  0  0  0  0  0  0
   24.6272  -19.3240  -14.1442 O   0  0  0  0  0  0  0  0  0  0  0  0
   23.0697  -22.0646   -7.0051 N   0  0  0  0  0  0  0  0  0  0  0  0
   23.2857  -21.1650  -14.4116 C   0  0  2  0  0  0  0  0  0  0  0  0
   22.1890  -20.4647  -15.0814 C   0  0  0  0  0  0  0  0  0  0  0  0
   21.8782  -21.1962  -16.3231 C   0  0  0  0  0  0  0  0  0  0  0  0
   20.7587  -20.7430  -17.1351 O   0  0  0  0  0  0  0  0  0  0  0  0
   19.9811  -19.8016  -16.9160 C   0  0  0  0  0  0  0  0  0  0  0  0
   21.0613  -20.2467  -14.1451 O   0  0  0  0  0  0  0  0  0  0  0  0
   20.3141  -19.2601  -14.2408 O   0  0  0  0  0  0  0  0  0  0  0  0
   20.5414  -21.4805  -18.3249 O   0  0  0  0  0  0  0  0  0  0  0  0
  2  1  1  6
  2  3  1  0
  2  7  1  0
  3  4  1  0
  4  5  1  0
  5  9  1  0
  6  5  2  0
  7  8  2  0
 11 10  1  0
 12 11  2  0
 13 11  1  0
 14 13  1  0
 15 14  1  0
 15 16  1  0
 17 16  1  1
 18  7  1  0
 18 17  1  0
 19 17  1  0
 19 20  2  0
 21 19  1  0
 22 21  1  0
 22 23  1  6
 24 25  2  0
 24 23  1  0
 26 22  1  0
 26 29  1  0
 27 26  2  0
 28 24  1  0
M  END
$$$$
