EWG.pdb
     RDKit          3D

 28 29  0  0  1  0  0  0  0  0999 V2000
    9.1159  -16.4314   21.2318 N   0  0  0  0  0  0  0  0  0  0  0  0
   10.0891  -17.0682   22.0962 C   0  0  1  0  0  0  0  0  0  0  0  0
   11.4317  -17.0710   21.4272 C   0  0  0  0  0  0  0  0  0  0  0  0
   11.3252  -17.5727   19.9808 C   0  0  0  0  0  0  0  0  0  0  0  0
   12.6610  -17.6663   19.3585 C   0  0  0  0  0  0  0  0  0  0  0  0
   13.1408  -16.6923   18.7368 O   0  0  0  0  0  0  0  0  0  0  0  0
   10.1238  -16.4509   23.4456 C   0  0  0  0  0  0  0  0  0  0  0  0
   10.5749  -15.3004   23.6554 O   0  0  0  0  0  0  0  0  0  0  0  0
   13.3943  -18.8231   19.4537 O   0  0  0  0  0  0  0  0  0  0  0  0
    9.6352  -17.1746   24.5387 N   0  0  0  0  0  0  0  0  0  0  0  0
    9.6600  -16.7765   25.9097 C   0  0  1  0  0  0  0  0  0  0  0  0
    8.2912  -16.6038   26.4323 C   0  0  0  0  0  0  0  0  0  0  0  0
    7.5274  -15.5279   25.7578 C   0  0  0  0  0  0  0  0  0  0  0  0
    6.7814  -15.7829   24.6028 C   0  0  0  0  0  0  0  0  0  0  0  0
    6.1883  -14.6300   24.2582 N   0  0  0  0  0  0  0  0  0  0  0  0
    6.5000  -13.6540   25.1074 C   0  0  0  0  0  0  0  0  0  0  0  0
    6.1817  -12.3053   25.2216 C   0  0  0  0  0  0  0  0  0  0  0  0
    6.6828  -11.5265   26.2422 C   0  0  0  0  0  0  0  0  0  0  0  0
    7.5221  -12.0735   27.1856 C   0  0  0  0  0  0  0  0  0  0  0  0
    7.8418  -13.4326   27.0697 C   0  0  0  0  0  0  0  0  0  0  0  0
    7.3422  -14.2121   26.0526 C   0  0  0  0  0  0  0  0  0  0  0  0
   10.5769  -17.5658   26.7388 C   0  0  0  0  0  0  0  0  0  0  0  0
   10.5353  -17.3571   27.9800 O   0  0  0  0  0  0  0  0  0  0  0  0
   11.4816  -18.5190   26.2649 N   0  0  0  0  0  0  0  0  0  0  0  0
   12.2868  -19.3870   27.1108 C   0  0  0  0  0  0  0  0  0  0  0  0
   12.9759  -20.4279   26.3394 C   0  0  0  0  0  0  0  0  0  0  0  0
   14.2190  -20.4213   26.2216 O   0  0  0  0  0  0  0  0  0  0  0  0
   12.2514  -21.4331   25.7312 O   0  0  0  0  0  0  0  0  0  0  0  0
  2  1  1  6
  3  4  1  0
  3  2  1  0
  5  6  2  0
  5  4  1  0
  7  2  1  0
  7 10  1  0
  8  7  2  0
  9  5  1  0
 11 10  1  0
 11 12  1  1
 13 14  2  0
 13 12  1  0
 15 14  1  0
 16 21  2  0
 16 15  1  0
 17 16  1  0
 18 19  1  0
 18 17  2  0
 19 20  2  0
 20 21  1  0
 21 13  1  0
 22 11  1  0
 23 22  2  0
 24 22  1  0
 25 24  1  0
 26 25  1  0
 27 26  2  0
 28 26  1  0
M  END
$$$$
