EWG.pdb
     RDKit          3D

 28 29  0  0  1  0  0  0  0  0999 V2000
    9.0361  -17.9443   21.5112 N   0  0  0  0  0  0  0  0  0  0  0  0
   10.3100  -17.9780   22.2009 C   0  0  1  0  0  0  0  0  0  0  0  0
   11.4045  -17.5749   21.2576 C   0  0  0  0  0  0  0  0  0  0  0  0
   10.9030  -17.5579   19.8073 C   0  0  0  0  0  0  0  0  0  0  0  0
   11.9513  -17.0569   18.8959 C   0  0  0  0  0  0  0  0  0  0  0  0
   11.6516  -16.3281   17.9240 O   0  0  0  0  0  0  0  0  0  0  0  0
   10.2941  -17.1620   23.4406 C   0  0  0  0  0  0  0  0  0  0  0  0
   11.0309  -16.1615   23.6054 O   0  0  0  0  0  0  0  0  0  0  0  0
   13.2686  -17.3841   19.1026 O   0  0  0  0  0  0  0  0  0  0  0  0
    9.4235  -17.5148   24.4774 N   0  0  0  0  0  0  0  0  0  0  0  0
    9.3499  -16.9206   25.7737 C   0  0  1  0  0  0  0  0  0  0  0  0
    7.9777  -16.4644   26.0663 C   0  0  0  0  0  0  0  0  0  0  0  0
    7.5511  -15.3005   25.2543 C   0  0  0  0  0  0  0  0  0  0  0  0
    7.1810  -15.4481   23.9139 C   0  0  0  0  0  0  0  0  0  0  0  0
    6.8203  -14.2339   23.4721 N   0  0  0  0  0  0  0  0  0  0  0  0
    6.9327  -13.3181   24.4311 C   0  0  0  0  0  0  0  0  0  0  0  0
    6.7064  -11.9492   24.5207 C   0  0  0  0  0  0  0  0  0  0  0  0
    6.9291  -11.2529   25.6890 C   0  0  0  0  0  0  0  0  0  0  0  0
    7.3874  -11.9058   26.8102 C   0  0  0  0  0  0  0  0  0  0  0  0
    7.6147  -13.2853   26.7189 C   0  0  0  0  0  0  0  0  0  0  0  0
    7.3923  -13.9825   25.5543 C   0  0  0  0  0  0  0  0  0  0  0  0
   10.0113  -17.7042   26.8224 C   0  0  0  0  0  0  0  0  0  0  0  0
    9.3555  -17.8966   27.8801 O   0  0  0  0  0  0  0  0  0  0  0  0
   11.2961  -18.2467   26.7406 N   0  0  0  0  0  0  0  0  0  0  0  0
   11.9229  -19.0480   27.7809 C   0  0  0  0  0  0  0  0  0  0  0  0
   13.2893  -19.4475   27.4245 C   0  0  0  0  0  0  0  0  0  0  0  0
   14.0044  -20.0765   28.2319 O   0  0  0  0  0  0  0  0  0  0  0  0
   13.8021  -19.1296   26.1830 O   0  0  0  0  0  0  0  0  0  0  0  0
  2  1  1  6
  3  4  1  0
  3  2  1  0
  5  6  2  0
  5  4  1  0
  7  2  1  0
  7 10  1  0
  8  7  2  0
  9  5  1  0
 11 10  1  0
 11 12  1  1
 13 14  2  0
 13 12  1  0
 15 14  1  0
 16 21  2  0
 16 15  1  0
 17 16  1  0
 18 19  1  0
 18 17  2  0
 19 20  2  0
 20 21  1  0
 21 13  1  0
 22 11  1  0
 23 22  2  0
 24 22  1  0
 25 24  1  0
 26 25  1  0
 27 26  2  0
 28 26  1  0
M  END
$$$$
