EWG.pdb
     RDKit          3D

 28 29  0  0  1  0  0  0  0  0999 V2000
    6.9082  -15.5616   20.3662 N   0  0  0  0  0  0  0  0  0  0  0  0
    7.5008  -16.4678   21.3291 C   0  0  1  0  0  0  0  0  0  0  0  0
    8.1236  -17.6286   20.6115 C   0  0  0  0  0  0  0  0  0  0  0  0
    8.8117  -17.1715   19.3182 C   0  0  0  0  0  0  0  0  0  0  0  0
    9.3574  -18.3269   18.5780 C   0  0  0  0  0  0  0  0  0  0  0  0
    8.6026  -19.0612   17.9021 O   0  0  0  0  0  0  0  0  0  0  0  0
    8.4539  -15.7757   22.2322 C   0  0  0  0  0  0  0  0  0  0  0  0
    9.1313  -14.7837   21.8743 O   0  0  0  0  0  0  0  0  0  0  0  0
   10.6999  -18.6109   18.6214 O   0  0  0  0  0  0  0  0  0  0  0  0
    8.6122  -16.2415   23.5419 N   0  0  0  0  0  0  0  0  0  0  0  0
    9.5012  -15.7256   24.5330 C   0  0  1  0  0  0  0  0  0  0  0  0
    8.8541  -15.7005   25.8586 C   0  0  0  0  0  0  0  0  0  0  0  0
    7.6371  -14.8565   25.9115 C   0  0  0  0  0  0  0  0  0  0  0  0
    6.3602  -15.4190   25.8201 C   0  0  0  0  0  0  0  0  0  0  0  0
    5.4807  -14.4121   25.9317 N   0  0  0  0  0  0  0  0  0  0  0  0
    6.1005  -13.2448   26.0874 C   0  0  0  0  0  0  0  0  0  0  0  0
    5.6944  -11.9239   26.2405 C   0  0  0  0  0  0  0  0  0  0  0  0
    6.6038  -10.8974   26.3770 C   0  0  0  0  0  0  0  0  0  0  0  0
    7.9545  -11.1598   26.3645 C   0  0  0  0  0  0  0  0  0  0  0  0
    8.3626  -12.4912   26.2104 C   0  0  0  0  0  0  0  0  0  0  0  0
    7.4569  -13.5174   26.0750 C   0  0  0  0  0  0  0  0  0  0  0  0
   10.8480  -16.3038   24.4786 C   0  0  0  0  0  0  0  0  0  0  0  0
   11.2621  -16.8665   25.5263 O   0  0  0  0  0  0  0  0  0  0  0  0
   11.6967  -16.2792   23.3692 N   0  0  0  0  0  0  0  0  0  0  0  0
   13.1499  -16.2586   23.4402 C   0  0  0  0  0  0  0  0  0  0  0  0
   13.7355  -17.5800   23.1866 C   0  0  0  0  0  0  0  0  0  0  0  0
   13.1024  -18.6232   23.4512 O   0  0  0  0  0  0  0  0  0  0  0  0
   15.0023  -17.6843   22.6484 O   0  0  0  0  0  0  0  0  0  0  0  0
  2  1  1  6
  3  4  1  0
  3  2  1  0
  5  6  2  0
  5  4  1  0
  7  2  1  0
  7 10  1  0
  8  7  2  0
  9  5  1  0
 11 10  1  0
 11 12  1  1
 13 14  2  0
 13 12  1  0
 15 14  1  0
 16 21  2  0
 16 15  1  0
 17 16  1  0
 18 19  1  0
 18 17  2  0
 19 20  2  0
 20 21  1  0
 21 13  1  0
 22 11  1  0
 23 22  2  0
 24 22  1  0
 25 24  1  0
 26 25  1  0
 27 26  2  0
 28 26  1  0
M  END
$$$$
