EWG.pdb
     RDKit          3D

 28 29  0  0  1  0  0  0  0  0999 V2000
    7.4953  -16.3743   20.6603 N   0  0  0  0  0  0  0  0  0  0  0  0
    8.7957  -16.8207   21.1181 C   0  0  1  0  0  0  0  0  0  0  0  0
    9.7600  -16.8250   19.9691 C   0  0  0  0  0  0  0  0  0  0  0  0
    9.2359  -17.6882   18.8135 C   0  0  0  0  0  0  0  0  0  0  0  0
   10.1970  -17.7031   17.6925 C   0  0  0  0  0  0  0  0  0  0  0  0
    9.9378  -17.1011   16.6266 O   0  0  0  0  0  0  0  0  0  0  0  0
    9.2839  -16.0243   22.2714 C   0  0  0  0  0  0  0  0  0  0  0  0
    9.6537  -14.8313   22.1659 O   0  0  0  0  0  0  0  0  0  0  0  0
   11.3875  -18.3778   17.8045 O   0  0  0  0  0  0  0  0  0  0  0  0
    9.3386  -16.6197   23.5363 N   0  0  0  0  0  0  0  0  0  0  0  0
    9.7395  -15.9997   24.7583 C   0  0  1  0  0  0  0  0  0  0  0  0
    8.7632  -16.2702   25.8308 C   0  0  0  0  0  0  0  0  0  0  0  0
    7.5543  -15.4156   25.7652 C   0  0  0  0  0  0  0  0  0  0  0  0
    6.2919  -15.9632   25.5165 C   0  0  0  0  0  0  0  0  0  0  0  0
    5.4128  -14.9504   25.5513 N   0  0  0  0  0  0  0  0  0  0  0  0
    6.0194  -13.7931   25.8034 C   0  0  0  0  0  0  0  0  0  0  0  0
    5.6082  -12.4720   25.9404 C   0  0  0  0  0  0  0  0  0  0  0  0
    6.5037  -11.4579   26.2030 C   0  0  0  0  0  0  0  0  0  0  0  0
    7.8452  -11.7333   26.3375 C   0  0  0  0  0  0  0  0  0  0  0  0
    8.2584  -13.0649   26.1996 C   0  0  0  0  0  0  0  0  0  0  0  0
    7.3664  -14.0788   25.9385 C   0  0  0  0  0  0  0  0  0  0  0  0
   11.1508  -16.2140   25.0957 C   0  0  0  0  0  0  0  0  0  0  0  0
   11.4724  -16.0520   26.3024 O   0  0  0  0  0  0  0  0  0  0  0  0
   12.1534  -16.5791   24.1940 N   0  0  0  0  0  0  0  0  0  0  0  0
   13.5572  -16.7426   24.5402 C   0  0  0  0  0  0  0  0  0  0  0  0
   14.3779  -17.0921   23.3750 C   0  0  0  0  0  0  0  0  0  0  0  0
   13.8666  -17.2046   22.2414 O   0  0  0  0  0  0  0  0  0  0  0  0
   15.7344  -17.3015   23.5211 O   0  0  0  0  0  0  0  0  0  0  0  0
  2  1  1  6
  3  4  1  0
  3  2  1  0
  5  6  2  0
  5  4  1  0
  7  2  1  0
  7 10  1  0
  8  7  2  0
  9  5  1  0
 11 10  1  0
 11 12  1  1
 13 14  2  0
 13 12  1  0
 15 14  1  0
 16 21  2  0
 16 15  1  0
 17 16  1  0
 18 19  1  0
 18 17  2  0
 19 20  2  0
 20 21  1  0
 21 13  1  0
 22 11  1  0
 23 22  2  0
 24 22  1  0
 25 24  1  0
 26 25  1  0
 27 26  2  0
 28 26  1  0
M  END
$$$$
