EWG.pdb
     RDKit          3D

 28 29  0  0  1  0  0  0  0  0999 V2000
   10.3578  -15.8498   20.3977 N   0  0  0  0  0  0  0  0  0  0  0  0
   10.5121  -16.8777   21.4073 C   0  0  1  0  0  0  0  0  0  0  0  0
   11.8554  -17.5294   21.2615 C   0  0  0  0  0  0  0  0  0  0  0  0
   12.0154  -18.1559   19.8698 C   0  0  0  0  0  0  0  0  0  0  0  0
   13.3635  -18.7365   19.7079 C   0  0  0  0  0  0  0  0  0  0  0  0
   13.6962  -19.7567   20.3514 O   0  0  0  0  0  0  0  0  0  0  0  0
   10.2759  -16.3543   22.7759 C   0  0  0  0  0  0  0  0  0  0  0  0
   10.6336  -15.2084   23.1366 O   0  0  0  0  0  0  0  0  0  0  0  0
   14.2697  -18.1647   18.8496 O   0  0  0  0  0  0  0  0  0  0  0  0
    9.6272  -17.1655   23.7132 N   0  0  0  0  0  0  0  0  0  0  0  0
    9.2931  -16.8218   25.0581 C   0  0  1  0  0  0  0  0  0  0  0  0
    7.8431  -16.5881   25.1969 C   0  0  0  0  0  0  0  0  0  0  0  0
    7.4110  -15.2431   24.7494 C   0  0  0  0  0  0  0  0  0  0  0  0
    7.0377  -15.0054   23.4230 C   0  0  0  0  0  0  0  0  0  0  0  0
    6.6724  -13.7169   23.3446 N   0  0  0  0  0  0  0  0  0  0  0  0
    6.7848  -13.1107   24.5239 C   0  0  0  0  0  0  0  0  0  0  0  0
    6.5550  -11.8243   24.9989 C   0  0  0  0  0  0  0  0  0  0  0  0
    6.7788  -11.4875   26.3163 C   0  0  0  0  0  0  0  0  0  0  0  0
    7.2420  -12.4302   27.2052 C   0  0  0  0  0  0  0  0  0  0  0  0
    7.4729  -13.7263   26.7257 C   0  0  0  0  0  0  0  0  0  0  0  0
    7.2493  -14.0650   25.4115 C   0  0  0  0  0  0  0  0  0  0  0  0
    9.9093  -17.6950   26.0628 C   0  0  0  0  0  0  0  0  0  0  0  0
    9.2058  -18.6494   26.4871 O   0  0  0  0  0  0  0  0  0  0  0  0
   11.1995  -17.5521   26.5792 N   0  0  0  0  0  0  0  0  0  0  0  0
   11.8460  -18.5085   27.4649 C   0  0  0  0  0  0  0  0  0  0  0  0
   11.2891  -18.4707   28.8221 C   0  0  0  0  0  0  0  0  0  0  0  0
   10.2807  -17.7817   29.0821 O   0  0  0  0  0  0  0  0  0  0  0  0
   11.8787  -19.2022   29.8332 O   0  0  0  0  0  0  0  0  0  0  0  0
  2  1  1  6
  3  4  1  0
  3  2  1  0
  5  6  2  0
  5  4  1  0
  7  2  1  0
  7 10  1  0
  8  7  2  0
  9  5  1  0
 11 10  1  0
 11 12  1  6
 13 14  2  0
 13 12  1  0
 15 14  1  0
 16 21  2  0
 16 15  1  0
 17 16  1  0
 18 19  1  0
 18 17  2  0
 19 20  2  0
 20 21  1  0
 21 13  1  0
 22 11  1  0
 23 22  2  0
 24 22  1  0
 25 24  1  0
 26 25  1  0
 27 26  2  0
 28 26  1  0
M  END
$$$$
