EWG.pdb
     RDKit          3D

 28 29  0  0  1  0  0  0  0  0999 V2000
    7.6375  -17.7661   19.6842 N   0  0  0  0  0  0  0  0  0  0  0  0
    8.8511  -17.9751   20.4478 C   0  0  1  0  0  0  0  0  0  0  0  0
    9.9997  -18.2139   19.5130 C   0  0  0  0  0  0  0  0  0  0  0  0
    9.6204  -19.2233   18.4211 C   0  0  0  0  0  0  0  0  0  0  0  0
   10.4170  -18.9972   17.1984 C   0  0  0  0  0  0  0  0  0  0  0  0
    9.9102  -18.4248   16.2079 O   0  0  0  0  0  0  0  0  0  0  0  0
    9.1090  -16.8651   21.3988 C   0  0  0  0  0  0  0  0  0  0  0  0
    9.5447  -15.7470   21.0366 O   0  0  0  0  0  0  0  0  0  0  0  0
   11.7241  -19.4120   17.1321 O   0  0  0  0  0  0  0  0  0  0  0  0
    8.8592  -17.0630   22.7611 N   0  0  0  0  0  0  0  0  0  0  0  0
    9.1371  -16.1514   23.8242 C   0  0  1  0  0  0  0  0  0  0  0  0
    7.9327  -15.9145   24.6427 C   0  0  0  0  0  0  0  0  0  0  0  0
    8.0264  -14.7145   25.5070 C   0  0  0  0  0  0  0  0  0  0  0  0
    7.2010  -13.6050   25.2992 C   0  0  0  0  0  0  0  0  0  0  0  0
    7.5020  -12.7100   26.2522 N   0  0  0  0  0  0  0  0  0  0  0  0
    8.4606  -13.1643   27.0557 C   0  0  0  0  0  0  0  0  0  0  0  0
    9.1367  -12.6685   28.1649 C   0  0  0  0  0  0  0  0  0  0  0  0
   10.1190  -13.3971   28.8001 C   0  0  0  0  0  0  0  0  0  0  0  0
   10.4585  -14.6504   28.3447 C   0  0  0  0  0  0  0  0  0  0  0  0
    9.7764  -15.1491   27.2271 C   0  0  0  0  0  0  0  0  0  0  0  0
    8.7951  -14.4242   26.5921 C   0  0  0  0  0  0  0  0  0  0  0  0
   10.3709  -16.4549   24.5570 C   0  0  0  0  0  0  0  0  0  0  0  0
   10.2369  -16.9992   25.6846 O   0  0  0  0  0  0  0  0  0  0  0  0
   11.6668  -16.1905   24.1072 N   0  0  0  0  0  0  0  0  0  0  0  0
   12.8758  -16.4334   24.8798 C   0  0  0  0  0  0  0  0  0  0  0  0
   14.0748  -15.9187   24.2082 C   0  0  0  0  0  0  0  0  0  0  0  0
   14.7447  -16.6463   23.4461 O   0  0  0  0  0  0  0  0  0  0  0  0
   14.4776  -14.6146   24.4137 O   0  0  0  0  0  0  0  0  0  0  0  0
  2  1  1  6
  3  4  1  0
  3  2  1  0
  5  6  2  0
  5  4  1  0
  7  2  1  0
  7 10  1  0
  8  7  2  0
  9  5  1  0
 11 10  1  0
 11 12  1  1
 13 14  2  0
 13 12  1  0
 15 14  1  0
 16 21  2  0
 16 15  1  0
 17 16  1  0
 18 19  1  0
 18 17  2  0
 19 20  2  0
 20 21  1  0
 21 13  1  0
 22 11  1  0
 23 22  2  0
 24 22  1  0
 25 24  1  0
 26 25  1  0
 27 26  2  0
 28 26  1  0
M  END
$$$$
