EWG.pdb
     RDKit          3D

 28 29  0  0  1  0  0  0  0  0999 V2000
    9.0268  -18.2139   22.2363 N   0  0  0  0  0  0  0  0  0  0  0  0
    9.7696  -16.9814   22.0669 C   0  0  1  0  0  0  0  0  0  0  0  0
    9.0606  -16.0968   21.0845 C   0  0  0  0  0  0  0  0  0  0  0  0
    8.6995  -16.8693   19.8087 C   0  0  0  0  0  0  0  0  0  0  0  0
    8.1778  -15.9558   18.7725 C   0  0  0  0  0  0  0  0  0  0  0  0
    7.0085  -16.0824   18.3455 O   0  0  0  0  0  0  0  0  0  0  0  0
   10.0290  -16.3048   23.3622 C   0  0  0  0  0  0  0  0  0  0  0  0
   10.6305  -15.2085   23.4481 O   0  0  0  0  0  0  0  0  0  0  0  0
    8.9685  -14.9553   18.2637 O   0  0  0  0  0  0  0  0  0  0  0  0
    9.5882  -16.9068   24.5457 N   0  0  0  0  0  0  0  0  0  0  0  0
    9.8932  -16.4987   25.8796 C   0  0  1  0  0  0  0  0  0  0  0  0
    8.6649  -16.3839   26.6887 C   0  0  0  0  0  0  0  0  0  0  0  0
    7.6617  -15.4534   26.1197 C   0  0  0  0  0  0  0  0  0  0  0  0
    6.5519  -15.9272   25.4130 C   0  0  0  0  0  0  0  0  0  0  0  0
    5.8262  -14.8553   25.0606 N   0  0  0  0  0  0  0  0  0  0  0  0
    6.3899  -13.7286   25.4892 C   0  0  0  0  0  0  0  0  0  0  0  0
    6.0812  -12.3756   25.4041 C   0  0  0  0  0  0  0  0  0  0  0  0
    6.8923  -11.4109   25.9615 C   0  0  0  0  0  0  0  0  0  0  0  0
    8.0433  -11.7695   26.6248 C   0  0  0  0  0  0  0  0  0  0  0  0
    8.3532  -13.1332   26.7103 C   0  0  0  0  0  0  0  0  0  0  0  0
    7.5448  -14.0978   26.1556 C   0  0  0  0  0  0  0  0  0  0  0  0
   11.0035  -17.2407   26.4863 C   0  0  0  0  0  0  0  0  0  0  0  0
   11.3922  -16.8473   27.6176 O   0  0  0  0  0  0  0  0  0  0  0  0
   11.6554  -18.3358   25.9141 N   0  0  0  0  0  0  0  0  0  0  0  0
   12.7412  -19.0726   26.5428 C   0  0  0  0  0  0  0  0  0  0  0  0
   12.3290  -19.6962   27.8056 C   0  0  0  0  0  0  0  0  0  0  0  0
   11.2134  -20.2462   27.9146 O   0  0  0  0  0  0  0  0  0  0  0  0
   13.1771  -19.6811   28.8945 O   0  0  0  0  0  0  0  0  0  0  0  0
  2  1  1  1
  3  4  1  0
  3  2  1  0
  5  6  2  0
  5  4  1  0
  7  2  1  0
  7 10  1  0
  8  7  2  0
  9  5  1  0
 11 10  1  0
 11 12  1  1
 13 14  2  0
 13 12  1  0
 15 14  1  0
 16 21  2  0
 16 15  1  0
 17 16  1  0
 18 19  1  0
 18 17  2  0
 19 20  2  0
 20 21  1  0
 21 13  1  0
 22 11  1  0
 23 22  2  0
 24 22  1  0
 25 24  1  0
 26 25  1  0
 27 26  2  0
 28 26  1  0
M  END
$$$$
