EWG.pdb
     RDKit          3D

 28 29  0  0  1  0  0  0  0  0999 V2000
    8.3765  -17.9721   21.7917 N   0  0  0  0  0  0  0  0  0  0  0  0
    9.4377  -17.0925   21.3448 C   0  0  1  0  0  0  0  0  0  0  0  0
    8.9728  -16.3063   20.1548 C   0  0  0  0  0  0  0  0  0  0  0  0
    8.6291  -17.2343   18.9819 C   0  0  0  0  0  0  0  0  0  0  0  0
    8.2705  -16.4519   17.7819 C   0  0  0  0  0  0  0  0  0  0  0  0
    9.0601  -15.5964   17.3232 O   0  0  0  0  0  0  0  0  0  0  0  0
    9.9424  -16.2273   22.4401 C   0  0  0  0  0  0  0  0  0  0  0  0
   10.5819  -15.1697   22.2312 O   0  0  0  0  0  0  0  0  0  0  0  0
    7.0664  -16.6525   17.1537 O   0  0  0  0  0  0  0  0  0  0  0  0
    9.7007  -16.5977   23.7674 N   0  0  0  0  0  0  0  0  0  0  0  0
   10.1898  -15.9476   24.9408 C   0  0  1  0  0  0  0  0  0  0  0  0
    9.1825  -15.9787   26.0183 C   0  0  0  0  0  0  0  0  0  0  0  0
    7.9223  -15.2783   25.6759 C   0  0  0  0  0  0  0  0  0  0  0  0
    6.8991  -15.9267   24.9772 C   0  0  0  0  0  0  0  0  0  0  0  0
    5.8932  -15.0479   24.8526 N   0  0  0  0  0  0  0  0  0  0  0  0
    6.1968  -13.8830   25.4198 C   0  0  0  0  0  0  0  0  0  0  0  0
    5.5495  -12.6624   25.5762 C   0  0  0  0  0  0  0  0  0  0  0  0
    6.1457  -11.6043   26.2276 C   0  0  0  0  0  0  0  0  0  0  0  0
    7.4139  -11.7331   26.7457 C   0  0  0  0  0  0  0  0  0  0  0  0
    8.0651  -12.9635   26.5879 C   0  0  0  0  0  0  0  0  0  0  0  0
    7.4718  -14.0212   25.9390 C   0  0  0  0  0  0  0  0  0  0  0  0
   11.5518  -16.3446   25.3133 C   0  0  0  0  0  0  0  0  0  0  0  0
   11.7129  -16.7718   26.4869 O   0  0  0  0  0  0  0  0  0  0  0  0
   12.6703  -16.2862   24.4783 N   0  0  0  0  0  0  0  0  0  0  0  0
   14.0171  -16.6709   24.8722 C   0  0  0  0  0  0  0  0  0  0  0  0
   14.9403  -16.7009   23.7319 C   0  0  0  0  0  0  0  0  0  0  0  0
   14.5451  -16.4261   22.5798 O   0  0  0  0  0  0  0  0  0  0  0  0
   16.2657  -17.0359   23.9226 O   0  0  0  0  0  0  0  0  0  0  0  0
  2  1  1  1
  3  4  1  0
  3  2  1  0
  5  6  2  0
  5  4  1  0
  7  2  1  0
  7 10  1  0
  8  7  2  0
  9  5  1  0
 11 10  1  0
 11 12  1  1
 13 14  2  0
 13 12  1  0
 15 14  1  0
 16 21  2  0
 16 15  1  0
 17 16  1  0
 18 19  1  0
 18 17  2  0
 19 20  2  0
 20 21  1  0
 21 13  1  0
 22 11  1  0
 23 22  2  0
 24 22  1  0
 25 24  1  0
 26 25  1  0
 27 26  2  0
 28 26  1  0
M  END
$$$$
