EWG.pdb
     RDKit          3D

 28 29  0  0  1  0  0  0  0  0999 V2000
    7.5817  -13.0159   18.0591 N   0  0  0  0  0  0  0  0  0  0  0  0
    7.8123  -14.2490   18.7843 C   0  0  1  0  0  0  0  0  0  0  0  0
    8.8152  -15.0866   18.0476 C   0  0  0  0  0  0  0  0  0  0  0  0
    8.5536  -15.0564   16.5357 C   0  0  0  0  0  0  0  0  0  0  0  0
    9.5353  -15.8930   15.8168 C   0  0  0  0  0  0  0  0  0  0  0  0
    9.6706  -17.1027   16.1063 O   0  0  0  0  0  0  0  0  0  0  0  0
    8.2004  -14.0013   20.1953 C   0  0  0  0  0  0  0  0  0  0  0  0
    8.8868  -13.0137   20.5481 O   0  0  0  0  0  0  0  0  0  0  0  0
   10.3128  -15.3547   14.8214 O   0  0  0  0  0  0  0  0  0  0  0  0
    7.7886  -14.9020   21.1835 N   0  0  0  0  0  0  0  0  0  0  0  0
    7.9026  -14.7341   22.5968 C   0  0  1  0  0  0  0  0  0  0  0  0
    6.6500  -15.1182   23.2751 C   0  0  0  0  0  0  0  0  0  0  0  0
    6.6425  -14.8187   24.7264 C   0  0  0  0  0  0  0  0  0  0  0  0
    6.5802  -15.8418   25.6776 C   0  0  0  0  0  0  0  0  0  0  0  0
    6.6228  -15.2568   26.8841 N   0  0  0  0  0  0  0  0  0  0  0  0
    6.7072  -13.9331   26.7761 C   0  0  0  0  0  0  0  0  0  0  0  0
    6.7737  -12.8716   27.6716 C   0  0  0  0  0  0  0  0  0  0  0  0
    6.8495  -11.5645   27.2415 C   0  0  0  0  0  0  0  0  0  0  0  0
    6.8610  -11.2753   25.8963 C   0  0  0  0  0  0  0  0  0  0  0  0
    6.7942  -12.3457   24.9948 C   0  0  0  0  0  0  0  0  0  0  0  0
    6.7195  -13.6512   25.4216 C   0  0  0  0  0  0  0  0  0  0  0  0
    9.1408  -15.2827   23.1601 C   0  0  0  0  0  0  0  0  0  0  0  0
    9.2096  -15.3437   24.4160 O   0  0  0  0  0  0  0  0  0  0  0  0
   10.2359  -15.7370   22.4213 N   0  0  0  0  0  0  0  0  0  0  0  0
   11.4039  -16.3912   22.9916 C   0  0  0  0  0  0  0  0  0  0  0  0
   12.4147  -16.7046   21.9749 C   0  0  0  0  0  0  0  0  0  0  0  0
   13.4394  -16.0018   21.8521 O   0  0  0  0  0  0  0  0  0  0  0  0
   12.2418  -17.7880   21.1374 O   0  0  0  0  0  0  0  0  0  0  0  0
  2  1  1  6
  3  4  1  0
  3  2  1  0
  5  6  2  0
  5  4  1  0
  7  2  1  0
  7 10  1  0
  8  7  2  0
  9  5  1  0
 11 10  1  0
 11 12  1  1
 13 14  2  0
 13 12  1  0
 15 14  1  0
 16 21  2  0
 16 15  1  0
 17 16  1  0
 18 19  1  0
 18 17  2  0
 19 20  2  0
 20 21  1  0
 21 13  1  0
 22 11  1  0
 23 22  2  0
 24 22  1  0
 25 24  1  0
 26 25  1  0
 27 26  2  0
 28 26  1  0
M  END
$$$$
