EWG.pdb
     RDKit          3D

 28 29  0  0  1  0  0  0  0  0999 V2000
    8.4463  -18.3830   22.1845 N   0  0  0  0  0  0  0  0  0  0  0  0
    9.6136  -17.6034   21.8251 C   0  0  1  0  0  0  0  0  0  0  0  0
    9.3298  -16.8159   20.5803 C   0  0  0  0  0  0  0  0  0  0  0  0
    9.7159  -17.6109   19.3258 C   0  0  0  0  0  0  0  0  0  0  0  0
    9.3927  -16.8497   18.1025 C   0  0  0  0  0  0  0  0  0  0  0  0
   10.1916  -15.9960   17.6569 O   0  0  0  0  0  0  0  0  0  0  0  0
   10.0813  -16.7511   22.9468 C   0  0  0  0  0  0  0  0  0  0  0  0
   10.9159  -15.8281   22.7970 O   0  0  0  0  0  0  0  0  0  0  0  0
    8.2115  -17.0683   17.4377 O   0  0  0  0  0  0  0  0  0  0  0  0
    9.5762  -16.9782   24.2316 N   0  0  0  0  0  0  0  0  0  0  0  0
   10.0776  -16.4420   25.4562 C   0  0  1  0  0  0  0  0  0  0  0  0
    8.9982  -16.3076   26.4529 C   0  0  0  0  0  0  0  0  0  0  0  0
    7.8383  -15.5204   25.9722 C   0  0  0  0  0  0  0  0  0  0  0  0
    6.7191  -16.1456   25.4138 C   0  0  0  0  0  0  0  0  0  0  0  0
    5.8408  -15.1775   25.1116 N   0  0  0  0  0  0  0  0  0  0  0  0
    6.3154  -13.9770   25.4350 C   0  0  0  0  0  0  0  0  0  0  0  0
    5.8461  -12.6716   25.3411 C   0  0  0  0  0  0  0  0  0  0  0  0
    6.5977  -11.5988   25.7694 C   0  0  0  0  0  0  0  0  0  0  0  0
    7.8484  -11.7976   26.3078 C   0  0  0  0  0  0  0  0  0  0  0  0
    8.3201  -13.1135   26.4023 C   0  0  0  0  0  0  0  0  0  0  0  0
    7.5714  -14.1858   25.9763 C   0  0  0  0  0  0  0  0  0  0  0  0
   11.3138  -17.0808   25.9199 C   0  0  0  0  0  0  0  0  0  0  0  0
   12.3941  -16.5867   25.5020 O   0  0  0  0  0  0  0  0  0  0  0  0
   11.3854  -18.1808   26.7780 N   0  0  0  0  0  0  0  0  0  0  0  0
   12.6194  -18.8449   27.1697 C   0  0  0  0  0  0  0  0  0  0  0  0
   12.3789  -19.9621   28.0904 C   0  0  0  0  0  0  0  0  0  0  0  0
   11.2223  -20.3842   28.2977 O   0  0  0  0  0  0  0  0  0  0  0  0
   13.4373  -20.5628   28.7418 O   0  0  0  0  0  0  0  0  0  0  0  0
  2  1  1  1
  3  4  1  0
  3  2  1  0
  5  6  2  0
  5  4  1  0
  7  2  1  0
  7 10  1  0
  8  7  2  0
  9  5  1  0
 11 10  1  0
 11 12  1  1
 13 14  2  0
 13 12  1  0
 15 14  1  0
 16 21  2  0
 16 15  1  0
 17 16  1  0
 18 19  1  0
 18 17  2  0
 19 20  2  0
 20 21  1  0
 21 13  1  0
 22 11  1  0
 23 22  2  0
 24 22  1  0
 25 24  1  0
 26 25  1  0
 27 26  2  0
 28 26  1  0
M  END
$$$$
