TRQ.pdb
     RDKit          3D

 28 27  0  0  1  0  0  0  0  0999 V2000
   28.4006  -21.6436  -19.1836 C   0  0  0  0  0  0  0  0  0  0  0  0
   27.6072  -22.1124  -17.9772 C   0  0  1  0  0  0  0  0  0  0  0  0
   28.4373  -22.7206  -17.0662 O   0  0  0  0  0  0  0  0  0  0  0  0
   26.9325  -20.9136  -17.3687 C   0  0  2  0  0  0  0  0  0  0  0  0
   27.9114  -19.9416  -16.9286 N   0  0  0  0  0  0  0  0  0  0  0  0
   26.1242  -21.3267  -16.1827 C   0  0  0  0  0  0  0  0  0  0  0  0
   25.1266  -22.1086  -16.3290 O   0  0  0  0  0  0  0  0  0  0  0  0
   23.5419  -20.5395   -9.0946 N   0  0  0  0  0  0  0  0  0  0  0  0
   24.6425  -20.9612   -8.3215 C   0  0  0  0  0  0  0  0  0  0  0  0
   24.5647  -21.0069   -7.0359 N   0  0  0  0  0  0  0  0  0  0  0  0
   25.8674  -21.3484   -8.9263 N   0  0  0  0  0  0  0  0  0  0  0  0
   26.3804  -20.6935  -10.1121 C   0  0  0  0  0  0  0  0  0  0  0  0
   25.4675  -20.9263  -11.2866 C   0  0  0  0  0  0  0  0  0  0  0  0
   26.2548  -20.9004  -12.5431 C   0  0  0  0  0  0  0  0  0  0  0  0
   25.4950  -21.1904  -13.8068 C   0  0  2  0  0  0  0  0  0  0  0  0
   26.4552  -20.8565  -14.8844 N   0  0  0  0  0  0  0  0  0  0  0  0
   24.3338  -20.3044  -13.9713 C   0  0  0  0  0  0  0  0  0  0  0  0
   24.5392  -19.1155  -14.3535 O   0  0  0  0  0  0  0  0  0  0  0  0
   25.4295  -21.2289   -6.4711 N   0  0  0  0  0  0  0  0  0  0  0  0
   22.6042  -19.0038  -18.4377 C   0  0  0  0  0  0  0  0  0  0  0  0
   21.4561  -18.4664  -17.8095 O   0  0  0  0  0  0  0  0  0  0  0  0
   20.6263  -17.7569  -18.4851 C   0  0  0  0  0  0  0  0  0  0  0  0
   21.1812  -18.7074  -16.3864 C   0  0  0  0  0  0  0  0  0  0  0  0
   22.1335  -19.5471  -15.6409 C   0  0  1  0  0  0  0  0  0  0  0  0
   21.8962  -19.8307  -14.2042 N   0  0  0  0  0  0  0  0  0  0  0  0
   22.9950  -20.6845  -13.7360 C   0  0  0  0  0  0  0  0  0  0  0  0
   20.6002  -20.3573  -13.8195 O   0  0  0  0  0  0  0  0  0  0  0  0
   20.3169  -21.5974  -13.8520 O   0  0  0  0  0  0  0  0  0  0  0  0
  2  1  1  6
  2  3  1  0
  4  2  1  0
  4  5  1  1
  6  4  1  0
  7  6  2  0
  9  8  1  0
 10  9  2  0
 11  9  1  0
 12 11  1  0
 13 14  1  0
 13 12  1  0
 15 14  1  1
 15 16  1  0
 16  6  1  0
 17 18  2  0
 17 15  1  0
 19 20  1  0
 20 22  1  0
 21 20  2  0
 22 23  1  0
 24 23  1  1
 24 25  1  0
 25 17  1  0
 26 28  1  0
 26 24  1  0
 27 26  2  0
M  END
$$$$
