TRQ.pdb
     RDKit          3D

 28 27  0  0  1  0  0  0  0  0999 V2000
   25.8959  -14.3894  -20.4970 C   0  0  0  0  0  0  0  0  0  0  0  0
   25.4301  -15.5545  -19.6423 C   0  0  1  0  0  0  0  0  0  0  0  0
   24.6649  -16.4186  -20.3884 O   0  0  0  0  0  0  0  0  0  0  0  0
   26.6481  -16.2508  -19.1000 C   0  0  2  0  0  0  0  0  0  0  0  0
   27.4222  -16.8411  -20.1719 N   0  0  0  0  0  0  0  0  0  0  0  0
   26.2414  -17.3433  -18.1664 C   0  0  0  0  0  0  0  0  0  0  0  0
   26.1076  -18.5368  -18.5975 O   0  0  0  0  0  0  0  0  0  0  0  0
   25.5466  -21.0212  -11.1261 N   0  0  0  0  0  0  0  0  0  0  0  0
   26.8795  -21.1827  -11.5553 C   0  0  0  0  0  0  0  0  0  0  0  0
   27.4997  -22.2973  -11.3707 N   0  0  0  0  0  0  0  0  0  0  0  0
   27.5819  -20.1317  -12.2020 N   0  0  0  0  0  0  0  0  0  0  0  0
   26.9621  -18.8539  -12.4870 C   0  0  0  0  0  0  0  0  0  0  0  0
   25.9642  -18.9837  -13.6070 C   0  0  0  0  0  0  0  0  0  0  0  0
   26.4243  -18.1992  -14.7784 C   0  0  0  0  0  0  0  0  0  0  0  0
   25.5181  -18.2056  -15.9771 C   0  0  2  0  0  0  0  0  0  0  0  0
   26.0004  -17.0680  -16.7945 N   0  0  0  0  0  0  0  0  0  0  0  0
   24.1217  -17.9200  -15.6181 C   0  0  0  0  0  0  0  0  0  0  0  0
   23.8566  -16.7970  -15.0981 O   0  0  0  0  0  0  0  0  0  0  0  0
   28.5207  -22.3726  -11.6318 N   0  0  0  0  0  0  0  0  0  0  0  0
   19.1130  -18.9373  -18.9143 C   0  0  0  0  0  0  0  0  0  0  0  0
   18.5658  -18.4004  -17.7252 O   0  0  0  0  0  0  0  0  0  0  0  0
   17.3270  -18.0662  -17.6812 C   0  0  0  0  0  0  0  0  0  0  0  0
   19.3876  -18.2188  -16.5207 C   0  0  0  0  0  0  0  0  0  0  0  0
   20.8219  -18.5359  -16.6199 C   0  0  1  0  0  0  0  0  0  0  0  0
   21.6860  -18.4185  -15.4198 N   0  0  0  0  0  0  0  0  0  0  0  0
   23.0445  -18.8107  -15.8147 C   0  0  0  0  0  0  0  0  0  0  0  0
   21.2601  -19.0900  -14.2063 O   0  0  0  0  0  0  0  0  0  0  0  0
   21.7985  -20.1612  -13.7798 O   0  0  0  0  0  0  0  0  0  0  0  0
  2  1  1  6
  2  3  1  0
  4  2  1  0
  4  5  1  6
  6  4  1  0
  7  6  2  0
  9  8  1  0
 10  9  2  0
 11  9  1  0
 12 11  1  0
 13 14  1  0
 13 12  1  0
 15 14  1  1
 15 16  1  0
 16  6  1  0
 17 18  2  0
 17 15  1  0
 19 20  1  0
 20 22  1  0
 21 20  2  0
 22 23  1  0
 24 23  1  6
 24 25  1  0
 25 17  1  0
 26 28  1  0
 26 24  1  0
 27 26  2  0
M  END
$$$$
