TRQ.pdb
     RDKit          3D

 28 27  0  0  1  0  0  0  0  0999 V2000
   26.7916  -19.0152  -18.8505 C   0  0  0  0  0  0  0  0  0  0  0  0
   26.8547  -20.3000  -19.6566 C   0  0  1  0  0  0  0  0  0  0  0  0
   27.6316  -20.1239  -20.7766 O   0  0  0  0  0  0  0  0  0  0  0  0
   27.4251  -21.3763  -18.7742 C   0  0  2  0  0  0  0  0  0  0  0  0
   27.4567  -22.6466  -19.4685 N   0  0  0  0  0  0  0  0  0  0  0  0
   26.5827  -21.5375  -17.5515 C   0  0  0  0  0  0  0  0  0  0  0  0
   25.4652  -22.1496  -17.6205 O   0  0  0  0  0  0  0  0  0  0  0  0
   24.3733  -20.2018  -10.5672 N   0  0  0  0  0  0  0  0  0  0  0  0
   25.4537  -20.6362   -9.7730 C   0  0  0  0  0  0  0  0  0  0  0  0
   25.3016  -20.8397   -8.5094 N   0  0  0  0  0  0  0  0  0  0  0  0
   26.7390  -20.8642  -10.3317 N   0  0  0  0  0  0  0  0  0  0  0  0
   27.1438  -20.2794  -11.5936 C   0  0  0  0  0  0  0  0  0  0  0  0
   26.1839  -20.6596  -12.6894 C   0  0  0  0  0  0  0  0  0  0  0  0
   26.9245  -20.8366  -13.9620 C   0  0  0  0  0  0  0  0  0  0  0  0
   26.1040  -21.2363  -15.1558 C   0  0  2  0  0  0  0  0  0  0  0  0
   27.0135  -21.0141  -16.3039 N   0  0  0  0  0  0  0  0  0  0  0  0
   24.9408  -20.3585  -15.3482 C   0  0  0  0  0  0  0  0  0  0  0  0
   25.1500  -19.1304  -15.5711 O   0  0  0  0  0  0  0  0  0  0  0  0
   26.1194  -21.1858   -7.9372 N   0  0  0  0  0  0  0  0  0  0  0  0
   19.6740  -20.7064  -17.7624 C   0  0  0  0  0  0  0  0  0  0  0  0
   19.8686  -19.3052  -17.7410 O   0  0  0  0  0  0  0  0  0  0  0  0
   18.9324  -18.5201  -18.1353 C   0  0  0  0  0  0  0  0  0  0  0  0
   21.1286  -18.7167  -17.2667 C   0  0  0  0  0  0  0  0  0  0  0  0
   22.1986  -19.6393  -16.8526 C   0  0  1  0  0  0  0  0  0  0  0  0
   22.5095  -19.8058  -15.4117 N   0  0  0  0  0  0  0  0  0  0  0  0
   23.5966  -20.7869  -15.3059 C   0  0  0  0  0  0  0  0  0  0  0  0
   21.4148  -20.1120  -14.5102 O   0  0  0  0  0  0  0  0  0  0  0  0
   21.3614  -21.1795  -13.8198 O   0  0  0  0  0  0  0  0  0  0  0  0
  2  1  1  1
  2  3  1  0
  4  2  1  0
  4  5  1  6
  6  4  1  0
  7  6  2  0
  9  8  1  0
 10  9  2  0
 11  9  1  0
 12 11  1  0
 13 14  1  0
 13 12  1  0
 15 14  1  1
 15 16  1  0
 16  6  1  0
 17 18  2  0
 17 15  1  0
 19 20  1  0
 20 22  1  0
 21 20  2  0
 22 23  1  0
 24 23  1  6
 24 25  1  0
 25 17  1  0
 26 28  1  0
 26 24  1  0
 27 26  2  0
M  END
$$$$
