TRQ.pdb
     RDKit          3D

 28 27  0  0  1  0  0  0  0  0999 V2000
   24.1946  -19.3044  -19.1264 C   0  0  0  0  0  0  0  0  0  0  0  0
   25.6254  -19.4234  -18.6331 C   0  0  1  0  0  0  0  0  0  0  0  0
   26.4795  -18.7568  -19.4788 O   0  0  0  0  0  0  0  0  0  0  0  0
   25.6894  -18.8470  -17.2453 C   0  0  2  0  0  0  0  0  0  0  0  0
   27.0479  -18.8637  -16.7443 N   0  0  0  0  0  0  0  0  0  0  0  0
   24.8429  -19.6529  -16.3154 C   0  0  0  0  0  0  0  0  0  0  0  0
   25.2947  -20.7362  -15.8152 O   0  0  0  0  0  0  0  0  0  0  0  0
   18.9302  -21.4351  -13.3731 N   0  0  0  0  0  0  0  0  0  0  0  0
   19.3797  -21.7650  -12.0785 C   0  0  0  0  0  0  0  0  0  0  0  0
   18.8853  -22.7742  -11.4476 N   0  0  0  0  0  0  0  0  0  0  0  0
   20.3861  -21.0037  -11.4276 N   0  0  0  0  0  0  0  0  0  0  0  0
   21.3831  -20.2560  -12.1659 C   0  0  0  0  0  0  0  0  0  0  0  0
   20.8232  -19.7719  -13.4771 C   0  0  0  0  0  0  0  0  0  0  0  0
   21.9044  -19.1562  -14.2842 C   0  0  0  0  0  0  0  0  0  0  0  0
   22.7757  -20.1052  -15.0578 C   0  0  2  0  0  0  0  0  0  0  0  0
   23.5316  -19.2247  -15.9787 N   0  0  0  0  0  0  0  0  0  0  0  0
   21.9893  -21.0281  -15.8886 C   0  0  0  0  0  0  0  0  0  0  0  0
   21.0477  -20.5492  -16.5856 O   0  0  0  0  0  0  0  0  0  0  0  0
   19.3039  -23.0633  -10.5216 N   0  0  0  0  0  0  0  0  0  0  0  0
   20.4024  -27.4466  -16.6121 C   0  0  0  0  0  0  0  0  0  0  0  0
   21.3313  -26.9874  -15.6489 O   0  0  0  0  0  0  0  0  0  0  0  0
   21.6233  -27.7210  -14.6365 C   0  0  0  0  0  0  0  0  0  0  0  0
   21.9845  -25.6780  -15.7817 C   0  0  0  0  0  0  0  0  0  0  0  0
   21.2376  -24.4942  -15.3254 C   0  0  2  0  0  0  0  0  0  0  0  0
   21.0849  -23.3274  -16.2287 N   0  0  0  0  0  0  0  0  0  0  0  0
   22.2097  -22.4198  -15.9706 C   0  0  0  0  0  0  0  0  0  0  0  0
   19.8139  -22.6277  -16.2277 O   0  0  0  0  0  0  0  0  0  0  0  0
   19.5346  -21.6960  -15.4073 O   0  0  0  0  0  0  0  0  0  0  0  0
  2  1  1  6
  2  3  1  0
  4  2  1  0
  4  5  1  1
  6  4  1  0
  7  6  2  0
  9  8  1  0
 10  9  2  0
 11  9  1  0
 12 11  1  0
 13 14  1  0
 13 12  1  0
 15 14  1  6
 15 16  1  0
 16  6  1  0
 17 18  2  0
 17 15  1  0
 19 20  1  0
 20 22  1  0
 21 20  2  0
 22 23  1  0
 24 23  1  6
 24 25  1  0
 25 17  1  0
 26 28  1  0
 26 24  1  0
 27 26  2  0
M  END
$$$$
