TRQ.pdb
     RDKit          3D

 28 27  0  0  1  0  0  0  0  0999 V2000
   23.5788  -21.4650  -12.6044 C   0  0  0  0  0  0  0  0  0  0  0  0
   23.4407  -20.6883  -11.3074 C   0  0  1  0  0  0  0  0  0  0  0  0
   22.3220  -21.0978  -10.6220 O   0  0  0  0  0  0  0  0  0  0  0  0
   24.6825  -20.9199  -10.4910 C   0  0  2  0  0  0  0  0  0  0  0  0
   24.5432  -20.3443   -9.1696 N   0  0  0  0  0  0  0  0  0  0  0  0
   25.8586  -20.2804  -11.1531 C   0  0  0  0  0  0  0  0  0  0  0  0
   26.0573  -19.0258  -11.0320 O   0  0  0  0  0  0  0  0  0  0  0  0
   33.4459  -22.3871  -10.4984 N   0  0  0  0  0  0  0  0  0  0  0  0
   32.4463  -22.8188  -11.3936 C   0  0  0  0  0  0  0  0  0  0  0  0
   32.6831  -23.7626  -12.2388 N   0  0  0  0  0  0  0  0  0  0  0  0
   31.1523  -22.2346  -11.3967 N   0  0  0  0  0  0  0  0  0  0  0  0
   30.7862  -21.1716  -10.4833 C   0  0  0  0  0  0  0  0  0  0  0  0
   29.3955  -20.6738  -10.7749 C   0  0  0  0  0  0  0  0  0  0  0  0
   29.0893  -20.8633  -12.2135 C   0  0  0  0  0  0  0  0  0  0  0  0
   27.7801  -20.3014  -12.6916 C   0  0  2  0  0  0  0  0  0  0  0  0
   26.7653  -21.0575  -11.9214 N   0  0  0  0  0  0  0  0  0  0  0  0
   27.5423  -20.5829  -14.1145 C   0  0  0  0  0  0  0  0  0  0  0  0
   27.0982  -21.7249  -14.4311 O   0  0  0  0  0  0  0  0  0  0  0  0
   31.9310  -24.0460  -12.9246 N   0  0  0  0  0  0  0  0  0  0  0  0
   30.1830  -23.4585  -17.3711 C   0  0  0  0  0  0  0  0  0  0  0  0
   29.3236  -22.9888  -18.3921 O   0  0  0  0  0  0  0  0  0  0  0  0
   29.3235  -23.5559  -19.5439 C   0  0  0  0  0  0  0  0  0  0  0  0
   28.4141  -21.8576  -18.1639 C   0  0  0  0  0  0  0  0  0  0  0  0
   28.4180  -21.2386  -16.8280 C   0  0  2  0  0  0  0  0  0  0  0  0
   27.5439  -20.0713  -16.5556 N   0  0  0  0  0  0  0  0  0  0  0  0
   27.7711  -19.6660  -15.1629 C   0  0  0  0  0  0  0  0  0  0  0  0
   26.1306  -20.1936  -16.8597 O   0  0  0  0  0  0  0  0  0  0  0  0
   25.6647  -20.1118  -18.0410 O   0  0  0  0  0  0  0  0  0  0  0  0
  2  1  1  6
  2  3  1  0
  4  2  1  0
  4  5  1  1
  6  4  1  0
  7  6  2  0
  9  8  1  0
 10  9  2  0
 11  9  1  0
 12 11  1  0
 13 14  1  0
 13 12  1  0
 15 14  1  1
 15 16  1  0
 16  6  1  0
 17 18  2  0
 17 15  1  0
 19 20  1  0
 20 22  1  0
 21 20  2  0
 22 23  1  0
 24 23  1  6
 24 25  1  0
 25 17  1  0
 26 28  1  0
 26 24  1  0
 27 26  2  0
M  END
$$$$
