TRQ.pdb
     RDKit          3D

 28 27  0  0  1  0  0  0  0  0999 V2000
   19.7193   -9.8611  -17.8987 C   0  0  0  0  0  0  0  0  0  0  0  0
   18.7211  -10.9925  -17.7305 C   0  0  1  0  0  0  0  0  0  0  0  0
   19.0292  -12.0313  -18.5760 O   0  0  0  0  0  0  0  0  0  0  0  0
   18.7625  -11.4409  -16.2953 C   0  0  2  0  0  0  0  0  0  0  0  0
   17.8112  -12.5075  -16.0629 N   0  0  0  0  0  0  0  0  0  0  0  0
   18.4135  -10.3039  -15.3921 C   0  0  0  0  0  0  0  0  0  0  0  0
   17.1933  -10.0672  -15.1034 O   0  0  0  0  0  0  0  0  0  0  0  0
   14.6721   -8.9141   -9.4668 N   0  0  0  0  0  0  0  0  0  0  0  0
   15.4531   -7.7546   -9.2869 C   0  0  0  0  0  0  0  0  0  0  0  0
   15.0681   -6.8193   -8.4881 N   0  0  0  0  0  0  0  0  0  0  0  0
   16.6832   -7.5763   -9.9733 N   0  0  0  0  0  0  0  0  0  0  0  0
   17.1013   -8.4581  -11.0438 C   0  0  0  0  0  0  0  0  0  0  0  0
   18.5059   -8.1370  -11.4807 C   0  0  0  0  0  0  0  0  0  0  0  0
   18.8943   -9.0250  -12.6033 C   0  0  0  0  0  0  0  0  0  0  0  0
   18.9733   -8.3821  -13.9593 C   0  0  2  0  0  0  0  0  0  0  0  0
   19.4306   -9.4769  -14.8465 N   0  0  0  0  0  0  0  0  0  0  0  0
   19.9938   -7.3257  -14.0135 C   0  0  0  0  0  0  0  0  0  0  0  0
   21.2103   -7.6722  -14.0561 O   0  0  0  0  0  0  0  0  0  0  0  0
   15.6596   -5.9502   -8.3831 N   0  0  0  0  0  0  0  0  0  0  0  0
   21.4472   -5.0714  -19.0370 C   0  0  0  0  0  0  0  0  0  0  0  0
   22.4078   -5.0536  -17.9985 O   0  0  0  0  0  0  0  0  0  0  0  0
   23.6108   -5.4385  -18.2288 C   0  0  0  0  0  0  0  0  0  0  0  0
   22.0620   -4.5938  -16.6465 C   0  0  0  0  0  0  0  0  0  0  0  0
   21.1668   -5.4448  -15.8452 C   0  0  1  0  0  0  0  0  0  0  0  0
   20.7306   -4.9933  -14.5011 N   0  0  0  0  0  0  0  0  0  0  0  0
   19.7162   -5.9418  -14.0251 C   0  0  0  0  0  0  0  0  0  0  0  0
   20.2961   -3.6170  -14.3534 O   0  0  0  0  0  0  0  0  0  0  0  0
   19.0738   -3.2833  -14.2361 O   0  0  0  0  0  0  0  0  0  0  0  0
  2  1  1  1
  2  3  1  0
  4  2  1  0
  4  5  1  6
  6  4  1  0
  7  6  2  0
  9  8  1  0
 10  9  2  0
 11  9  1  0
 12 11  1  0
 13 14  1  0
 13 12  1  0
 15 14  1  1
 15 16  1  0
 16  6  1  0
 17 18  2  0
 17 15  1  0
 19 20  1  0
 20 22  1  0
 21 20  2  0
 22 23  1  0
 24 23  1  1
 24 25  1  0
 25 17  1  0
 26 28  1  0
 26 24  1  0
 27 26  2  0
M  END
$$$$
