TRQ.pdb
     RDKit          3D

 28 27  0  0  1  0  0  0  0  0999 V2000
   26.3912  -17.9237  -15.5438 C   0  0  0  0  0  0  0  0  0  0  0  0
   27.0530  -19.1892  -16.0587 C   0  0  1  0  0  0  0  0  0  0  0  0
   28.3612  -18.9402  -16.3984 O   0  0  0  0  0  0  0  0  0  0  0  0
   26.9705  -20.2314  -14.9773 C   0  0  2  0  0  0  0  0  0  0  0  0
   27.7070  -21.4203  -15.3526 N   0  0  0  0  0  0  0  0  0  0  0  0
   25.5472  -20.6213  -14.7479 C   0  0  0  0  0  0  0  0  0  0  0  0
   25.0426  -21.6052  -15.3846 O   0  0  0  0  0  0  0  0  0  0  0  0
   19.2820  -21.7192  -10.0789 N   0  0  0  0  0  0  0  0  0  0  0  0
   20.3876  -21.8375   -9.2125 C   0  0  0  0  0  0  0  0  0  0  0  0
   20.3974  -22.7221   -8.2753 N   0  0  0  0  0  0  0  0  0  0  0  0
   21.5222  -20.9933   -9.3400 N   0  0  0  0  0  0  0  0  0  0  0  0
   21.5542  -19.8834  -10.2703 C   0  0  0  0  0  0  0  0  0  0  0  0
   21.7150  -20.3771  -11.6836 C   0  0  0  0  0  0  0  0  0  0  0  0
   23.0828  -20.0691  -12.1669 C   0  0  0  0  0  0  0  0  0  0  0  0
   23.3814  -20.4422  -13.5916 C   0  0  2  0  0  0  0  0  0  0  0  0
   24.7427  -19.9051  -13.8228 N   0  0  0  0  0  0  0  0  0  0  0  0
   22.4833  -19.7696  -14.5410 C   0  0  0  0  0  0  0  0  0  0  0  0
   22.2983  -18.5246  -14.4083 O   0  0  0  0  0  0  0  0  0  0  0  0
   21.2085  -22.7528   -7.5989 N   0  0  0  0  0  0  0  0  0  0  0  0
   17.5390  -20.7829  -12.9634 C   0  0  0  0  0  0  0  0  0  0  0  0
   17.6285  -21.6263  -14.0957 O   0  0  0  0  0  0  0  0  0  0  0  0
   16.8201  -22.6151  -14.2264 C   0  0  0  0  0  0  0  0  0  0  0  0
   18.6318  -21.3935  -15.1437 C   0  0  0  0  0  0  0  0  0  0  0  0
   19.5146  -20.2247  -14.9946 C   0  0  2  0  0  0  0  0  0  0  0  0
   20.5052  -19.9111  -16.0534 N   0  0  0  0  0  0  0  0  0  0  0  0
   21.8084  -20.4131  -15.6005 C   0  0  0  0  0  0  0  0  0  0  0  0
   20.5870  -18.5414  -16.5248 O   0  0  0  0  0  0  0  0  0  0  0  0
   20.7612  -17.5488  -15.7479 O   0  0  0  0  0  0  0  0  0  0  0  0
  2  1  1  1
  2  3  1  0
  4  2  1  0
  4  5  1  6
  6  4  1  0
  7  6  2  0
  9  8  1  0
 10  9  2  0
 11  9  1  0
 12 11  1  0
 13 14  1  0
 13 12  1  0
 15 14  1  1
 15 16  1  0
 16  6  1  0
 17 18  2  0
 17 15  1  0
 19 20  1  0
 20 22  1  0
 21 20  2  0
 22 23  1  0
 24 23  1  6
 24 25  1  0
 25 17  1  0
 26 28  1  0
 26 24  1  0
 27 26  2  0
M  END
$$$$
