TRQ.pdb
     RDKit          3D

 28 27  0  0  1  0  0  0  0  0999 V2000
   17.7137  -25.9219  -14.4821 C   0  0  0  0  0  0  0  0  0  0  0  0
   17.2589  -25.5506  -13.0822 C   0  0  1  0  0  0  0  0  0  0  0  0
   16.5314  -26.5766  -12.5281 O   0  0  0  0  0  0  0  0  0  0  0  0
   18.4820  -25.2563  -12.2576 C   0  0  2  0  0  0  0  0  0  0  0  0
   18.1174  -24.9447  -10.8913 N   0  0  0  0  0  0  0  0  0  0  0  0
   19.2109  -24.0813  -12.8220 C   0  0  0  0  0  0  0  0  0  0  0  0
   18.7347  -22.9057  -12.6830 O   0  0  0  0  0  0  0  0  0  0  0  0
   26.8796  -24.7611  -16.2649 N   0  0  0  0  0  0  0  0  0  0  0  0
   25.5566  -25.0978  -16.6157 C   0  0  0  0  0  0  0  0  0  0  0  0
   25.3165  -26.0916  -17.4004 N   0  0  0  0  0  0  0  0  0  0  0  0
   24.4487  -24.3603  -16.1210 N   0  0  0  0  0  0  0  0  0  0  0  0
   24.6035  -23.0544  -15.5137 C   0  0  0  0  0  0  0  0  0  0  0  0
   23.2615  -22.4610  -15.1763 C   0  0  0  0  0  0  0  0  0  0  0  0
   22.4379  -23.4653  -14.4604 C   0  0  0  0  0  0  0  0  0  0  0  0
   21.0532  -23.0302  -14.0712 C   0  0  2  0  0  0  0  0  0  0  0  0
   20.4368  -24.2578  -13.5163 N   0  0  0  0  0  0  0  0  0  0  0  0
   20.2499  -22.6302  -15.2353 C   0  0  0  0  0  0  0  0  0  0  0  0
   19.6042  -23.5272  -15.8519 O   0  0  0  0  0  0  0  0  0  0  0  0
   24.3204  -26.2999  -17.6844 N   0  0  0  0  0  0  0  0  0  0  0  0
   16.5076  -23.6042  -17.6323 C   0  0  0  0  0  0  0  0  0  0  0  0
   15.9249  -22.3153  -17.6068 O   0  0  0  0  0  0  0  0  0  0  0  0
   14.8213  -22.0963  -18.2251 C   0  0  0  0  0  0  0  0  0  0  0  0
   16.5546  -21.2071  -16.8758 C   0  0  0  0  0  0  0  0  0  0  0  0
   17.8092  -21.4892  -16.1588 C   0  0  1  0  0  0  0  0  0  0  0  0
   19.0924  -20.9652  -16.6874 N   0  0  0  0  0  0  0  0  0  0  0  0
   20.1412  -21.3087  -15.7192 C   0  0  0  0  0  0  0  0  0  0  0  0
   19.1494  -19.5679  -17.0738 O   0  0  0  0  0  0  0  0  0  0  0  0
   19.7605  -18.6834  -16.3931 O   0  0  0  0  0  0  0  0  0  0  0  0
  2  1  1  6
  2  3  1  0
  4  2  1  0
  4  5  1  1
  6  4  1  0
  7  6  2  0
  9  8  1  0
 10  9  2  0
 11  9  1  0
 12 11  1  0
 13 14  1  0
 13 12  1  0
 15 14  1  6
 15 16  1  0
 16  6  1  0
 17 18  2  0
 17 15  1  0
 19 20  1  0
 20 22  1  0
 21 20  2  0
 22 23  1  0
 24 23  1  6
 24 25  1  0
 25 17  1  0
 26 28  1  0
 26 24  1  0
 27 26  2  0
M  END
$$$$
