MWV.pdb
     RDKit          3D

 30 31  0  0  1  0  0  0  0  0999 V2000
   25.5508  -20.5079  -18.9284 C   0  0  0  0  0  0  0  0  0  0  0  0
   27.1401  -20.6210  -19.7849 S   0  0  0  0  0  0  0  0  0  0  0  0
   28.2968  -21.6906  -18.9093 C   0  0  0  0  0  0  0  0  0  0  0  0
   27.6329  -22.3222  -17.6890 C   0  0  0  0  0  0  0  0  0  0  0  0
   28.4477  -22.0418  -16.4392 C   0  0  2  0  0  0  0  0  0  0  0  0
   29.4049  -23.1221  -16.3094 N   0  0  0  0  0  0  0  0  0  0  0  0
   27.5951  -21.9304  -15.2427 C   0  0  0  0  0  0  0  0  0  0  0  0
   27.0519  -22.9903  -14.7795 O   0  0  0  0  0  0  0  0  0  0  0  0
   27.3570  -20.6924  -14.5885 N   0  0  0  0  0  0  0  0  0  0  0  0
   26.5136  -20.6788  -13.4275 C   0  0  1  0  0  0  0  0  0  0  0  0
   27.0875  -19.6621  -12.4558 C   0  0  0  0  0  0  0  0  0  0  0  0
   27.8501  -20.3089  -11.3736 C   0  0  0  0  0  0  0  0  0  0  0  0
   29.0541  -20.9560  -11.5340 C   0  0  0  0  0  0  0  0  0  0  0  0
   29.4626  -21.4277  -10.3214 N   0  0  0  0  0  0  0  0  0  0  0  0
   28.5529  -21.1026   -9.3772 C   0  0  0  0  0  0  0  0  0  0  0  0
   28.4966  -21.3393   -8.0266 C   0  0  0  0  0  0  0  0  0  0  0  0
   27.4113  -20.8692   -7.3119 C   0  0  0  0  0  0  0  0  0  0  0  0
   26.4087  -20.1779   -7.9446 C   0  0  0  0  0  0  0  0  0  0  0  0
   26.4849  -19.9516   -9.2986 C   0  0  0  0  0  0  0  0  0  0  0  0
   27.5540  -20.4089  -10.0325 C   0  0  0  0  0  0  0  0  0  0  0  0
   25.0960  -20.3912  -13.7389 C   0  0  0  0  0  0  0  0  0  0  0  0
   24.8538  -19.3939  -14.4672 O   0  0  0  0  0  0  0  0  0  0  0  0
   21.9043  -23.1657  -13.7638 C   0  0  0  0  0  0  0  0  0  0  0  0
   22.0097  -21.8522  -14.5302 C   0  0  2  0  0  0  0  0  0  0  0  0
   22.8288  -22.1109  -15.7726 C   0  0  0  0  0  0  0  0  0  0  0  0
   22.6479  -20.7807  -13.6627 C   0  0  2  0  0  0  0  0  0  0  0  0
   23.9959  -21.1503  -13.2814 N   0  0  0  0  0  0  0  0  0  0  0  0
   21.7930  -20.5254  -12.4771 C   0  0  0  0  0  0  0  0  0  0  0  0
   22.1585  -20.8773  -11.3355 O   0  0  0  0  0  0  0  0  0  0  0  0
   20.5654  -19.8850  -12.6329 O   0  0  0  0  0  0  0  0  0  0  0  0
  1  2  1  0
  3  2  1  0
  4  3  1  0
  5  7  1  0
  5  6  1  1
  5  4  1  0
  7  8  2  0
  9 10  1  0
  9  7  1  0
 10 11  1  1
 12 11  1  0
 12 13  2  0
 14 13  1  0
 15 14  1  0
 16 15  2  0
 17 16  1  0
 18 17  2  0
 18 19  1  0
 19 20  2  0
 20 15  1  0
 20 12  1  0
 21 10  1  0
 21 22  2  0
 24 23  1  1
 24 26  1  0
 25 24  1  0
 26 27  1  1
 26 28  1  0
 27 21  1  0
 28 29  2  0
 28 30  1  0
M  END
$$$$
