MWV.pdb
     RDKit          3D

 30 31  0  0  1  0  0  0  0  0999 V2000
   26.1868  -16.1531  -15.4367 C   0  0  0  0  0  0  0  0  0  0  0  0
   27.8965  -16.7231  -15.2819 S   0  0  0  0  0  0  0  0  0  0  0  0
   28.1044  -18.3950  -15.9222 C   0  0  0  0  0  0  0  0  0  0  0  0
   27.1764  -19.3698  -15.2029 C   0  0  0  0  0  0  0  0  0  0  0  0
   27.9186  -20.0793  -14.0847 C   0  0  2  0  0  0  0  0  0  0  0  0
   28.8251  -21.0202  -14.7117 N   0  0  0  0  0  0  0  0  0  0  0  0
   26.9953  -20.7565  -13.1574 C   0  0  0  0  0  0  0  0  0  0  0  0
   26.5226  -21.8961  -13.4906 O   0  0  0  0  0  0  0  0  0  0  0  0
   26.6140  -20.1905  -11.9118 N   0  0  0  0  0  0  0  0  0  0  0  0
   25.5859  -20.8376  -11.1479 C   0  0  1  0  0  0  0  0  0  0  0  0
   25.6898  -20.3329   -9.7191 C   0  0  0  0  0  0  0  0  0  0  0  0
   26.9858  -20.6786   -9.1091 C   0  0  0  0  0  0  0  0  0  0  0  0
   27.9402  -21.4845   -9.6867 C   0  0  0  0  0  0  0  0  0  0  0  0
   29.0039  -21.5803   -8.8386 N   0  0  0  0  0  0  0  0  0  0  0  0
   28.7633  -20.8560   -7.7240 C   0  0  0  0  0  0  0  0  0  0  0  0
   29.5028  -20.6298   -6.5904 C   0  0  0  0  0  0  0  0  0  0  0  0
   28.9754  -19.8231   -5.6000 C   0  0  0  0  0  0  0  0  0  0  0  0
   27.7332  -19.2595   -5.7505 C   0  0  0  0  0  0  0  0  0  0  0  0
   27.0089  -19.4991   -6.8943 C   0  0  0  0  0  0  0  0  0  0  0  0
   27.5111  -20.2980   -7.8944 C   0  0  0  0  0  0  0  0  0  0  0  0
   24.2290  -20.6283  -11.6998 C   0  0  0  0  0  0  0  0  0  0  0  0
   23.8591  -19.4410  -11.8925 O   0  0  0  0  0  0  0  0  0  0  0  0
   22.8844  -22.3446  -14.8633 C   0  0  0  0  0  0  0  0  0  0  0  0
   21.7896  -22.3659  -13.8028 C   0  0  2  0  0  0  0  0  0  0  0  0
   20.4785  -22.0692  -14.4915 C   0  0  0  0  0  0  0  0  0  0  0  0
   22.0835  -21.3469  -12.7151 C   0  0  2  0  0  0  0  0  0  0  0  0
   23.3194  -21.6586  -12.0261 N   0  0  0  0  0  0  0  0  0  0  0  0
   20.9360  -21.2746  -11.7773 C   0  0  0  0  0  0  0  0  0  0  0  0
   19.9792  -20.5009  -11.9935 O   0  0  0  0  0  0  0  0  0  0  0  0
   20.9196  -22.0778  -10.6388 O   0  0  0  0  0  0  0  0  0  0  0  0
  1  2  1  0
  3  2  1  0
  4  3  1  0
  5  7  1  0
  5  6  1  6
  5  4  1  0
  7  8  2  0
  9 10  1  0
  9  7  1  0
 10 11  1  1
 12 11  1  0
 12 13  2  0
 14 13  1  0
 15 14  1  0
 16 15  2  0
 17 16  1  0
 18 17  2  0
 18 19  1  0
 19 20  2  0
 20 15  1  0
 20 12  1  0
 21 10  1  0
 21 22  2  0
 24 23  1  6
 24 26  1  0
 25 24  1  0
 26 27  1  1
 26 28  1  0
 27 21  1  0
 28 29  2  0
 28 30  1  0
M  END
$$$$
