MWV.pdb
     RDKit          3D

 30 31  0  0  1  0  0  0  0  0999 V2000
   26.7149  -16.8660  -16.8904 C   0  0  0  0  0  0  0  0  0  0  0  0
   28.4016  -16.6070  -16.2906 S   0  0  0  0  0  0  0  0  0  0  0  0
   29.0760  -18.0946  -15.5284 C   0  0  0  0  0  0  0  0  0  0  0  0
   27.9659  -18.9317  -14.8993 C   0  0  0  0  0  0  0  0  0  0  0  0
   28.5270  -20.2353  -14.3606 C   0  0  2  0  0  0  0  0  0  0  0  0
   28.9286  -21.0263  -15.5066 N   0  0  0  0  0  0  0  0  0  0  0  0
   27.5453  -20.9522  -13.5281 C   0  0  0  0  0  0  0  0  0  0  0  0
   26.6566  -21.6636  -14.1087 O   0  0  0  0  0  0  0  0  0  0  0  0
   27.5518  -20.8814  -12.1096 N   0  0  0  0  0  0  0  0  0  0  0  0
   26.5101  -21.5490  -11.3826 C   0  0  1  0  0  0  0  0  0  0  0  0
   27.0818  -21.9618  -10.0373 C   0  0  0  0  0  0  0  0  0  0  0  0
   26.9506  -20.8902   -9.0345 C   0  0  0  0  0  0  0  0  0  0  0  0
   26.0001  -19.8954   -9.0620 C   0  0  0  0  0  0  0  0  0  0  0  0
   26.1812  -19.0866   -7.9789 N   0  0  0  0  0  0  0  0  0  0  0  0
   27.2265  -19.5322   -7.2486 C   0  0  0  0  0  0  0  0  0  0  0  0
   27.8048  -19.0796   -6.0893 C   0  0  0  0  0  0  0  0  0  0  0  0
   28.8882  -19.7646   -5.5729 C   0  0  0  0  0  0  0  0  0  0  0  0
   29.3752  -20.8779   -6.2106 C   0  0  0  0  0  0  0  0  0  0  0  0
   28.7809  -21.3146   -7.3710 C   0  0  0  0  0  0  0  0  0  0  0  0
   27.7018  -20.6507   -7.9055 C   0  0  0  0  0  0  0  0  0  0  0  0
   25.2897  -20.7275  -11.2242 C   0  0  0  0  0  0  0  0  0  0  0  0
   25.4431  -19.4920  -11.0402 O   0  0  0  0  0  0  0  0  0  0  0  0
   22.3541  -19.5573  -14.2545 C   0  0  0  0  0  0  0  0  0  0  0  0
   23.3371  -20.4430  -13.4977 C   0  0  2  0  0  0  0  0  0  0  0  0
   23.3226  -21.8053  -14.1499 C   0  0  0  0  0  0  0  0  0  0  0  0
   22.9527  -20.5306  -12.0305 C   0  0  2  0  0  0  0  0  0  0  0  0
   23.9679  -21.2242  -11.2641 N   0  0  0  0  0  0  0  0  0  0  0  0
   21.6264  -21.1832  -11.9014 C   0  0  0  0  0  0  0  0  0  0  0  0
   21.5343  -22.4057  -11.6612 O   0  0  0  0  0  0  0  0  0  0  0  0
   20.4650  -20.4278  -12.0489 O   0  0  0  0  0  0  0  0  0  0  0  0
  1  2  1  0
  3  2  1  0
  4  3  1  0
  5  7  1  0
  5  6  1  6
  5  4  1  0
  7  8  2  0
  9 10  1  0
  9  7  1  0
 10 11  1  1
 12 11  1  0
 12 13  2  0
 14 13  1  0
 15 14  1  0
 16 15  2  0
 17 16  1  0
 18 17  2  0
 18 19  1  0
 19 20  2  0
 20 15  1  0
 20 12  1  0
 21 10  1  0
 21 22  2  0
 24 23  1  6
 24 26  1  0
 25 24  1  0
 26 27  1  1
 26 28  1  0
 27 21  1  0
 28 29  2  0
 28 30  1  0
M  END
$$$$
