MWV.pdb
     RDKit          3D

 30 31  0  0  1  0  0  0  0  0999 V2000
   30.5022  -22.7050   -8.9606 C   0  0  0  0  0  0  0  0  0  0  0  0
   31.9906  -21.8462   -9.5255 S   0  0  0  0  0  0  0  0  0  0  0  0
   31.9520  -21.5390  -11.3011 C   0  0  0  0  0  0  0  0  0  0  0  0
   30.7861  -20.6250  -11.6674 C   0  0  0  0  0  0  0  0  0  0  0  0
   29.6484  -21.4327  -12.2655 C   0  0  2  0  0  0  0  0  0  0  0  0
   30.1852  -22.1256  -13.4196 N   0  0  0  0  0  0  0  0  0  0  0  0
   28.5045  -20.5797  -12.6328 C   0  0  0  0  0  0  0  0  0  0  0  0
   27.9151  -19.9193  -11.7111 O   0  0  0  0  0  0  0  0  0  0  0  0
   28.0361  -20.4656  -13.9687 N   0  0  0  0  0  0  0  0  0  0  0  0
   26.8047  -19.7690  -14.2089 C   0  0  1  0  0  0  0  0  0  0  0  0
   26.7090  -19.5087  -15.7023 C   0  0  0  0  0  0  0  0  0  0  0  0
   25.5022  -18.7369  -16.0473 C   0  0  0  0  0  0  0  0  0  0  0  0
   25.3581  -17.3789  -15.8766 C   0  0  0  0  0  0  0  0  0  0  0  0
   24.1160  -17.0131  -16.3047 N   0  0  0  0  0  0  0  0  0  0  0  0
   23.4498  -18.1009  -16.7494 C   0  0  0  0  0  0  0  0  0  0  0  0
   22.1919  -18.2653  -17.2728 C   0  0  0  0  0  0  0  0  0  0  0  0
   21.7851  -19.5322  -17.6456 C   0  0  0  0  0  0  0  0  0  0  0  0
   22.6267  -20.6055  -17.4939 C   0  0  0  0  0  0  0  0  0  0  0  0
   23.8830  -20.4188  -16.9673 C   0  0  0  0  0  0  0  0  0  0  0  0
   24.3118  -19.1684  -16.5885 C   0  0  0  0  0  0  0  0  0  0  0  0
   25.6163  -20.4940  -13.7074 C   0  0  0  0  0  0  0  0  0  0  0  0
   25.5615  -21.7332  -13.9201 O   0  0  0  0  0  0  0  0  0  0  0  0
   24.8549  -21.0199  -10.2528 C   0  0  0  0  0  0  0  0  0  0  0  0
   23.5474  -20.5235  -10.8590 C   0  0  2  0  0  0  0  0  0  0  0  0
   22.4194  -21.2808  -10.1990 C   0  0  0  0  0  0  0  0  0  0  0  0
   23.5458  -20.7335  -12.3636 C   0  0  2  0  0  0  0  0  0  0  0  0
   24.5408  -19.9014  -13.0092 N   0  0  0  0  0  0  0  0  0  0  0  0
   22.1861  -20.4792  -12.9004 C   0  0  0  0  0  0  0  0  0  0  0  0
   21.2315  -21.2312  -12.6108 O   0  0  0  0  0  0  0  0  0  0  0  0
   21.9649  -19.3887  -13.7391 O   0  0  0  0  0  0  0  0  0  0  0  0
  1  2  1  0
  3  2  1  0
  4  3  1  0
  5  7  1  0
  5  6  1  6
  5  4  1  0
  7  8  2  0
  9 10  1  0
  9  7  1  0
 10 11  1  6
 12 11  1  0
 12 13  2  0
 14 13  1  0
 15 14  1  0
 16 15  2  0
 17 16  1  0
 18 17  2  0
 18 19  1  0
 19 20  2  0
 20 15  1  0
 20 12  1  0
 21 10  1  0
 21 22  2  0
 24 23  1  1
 24 26  1  0
 25 24  1  0
 26 27  1  6
 26 28  1  0
 27 21  1  0
 28 29  2  0
 28 30  1  0
M  END
$$$$
