MWV.pdb
     RDKit          3D

 30 31  0  0  1  0  0  0  0  0999 V2000
   28.7546  -21.9953  -19.6151 C   0  0  0  0  0  0  0  0  0  0  0  0
   27.6776  -20.6403  -19.0899 S   0  0  0  0  0  0  0  0  0  0  0  0
   27.9895  -20.1624  -17.3803 C   0  0  0  0  0  0  0  0  0  0  0  0
   27.0737  -20.9268  -16.4285 C   0  0  0  0  0  0  0  0  0  0  0  0
   27.7826  -21.1944  -15.1131 C   0  0  2  0  0  0  0  0  0  0  0  0
   28.6941  -22.2974  -15.3427 N   0  0  0  0  0  0  0  0  0  0  0  0
   26.8314  -21.4977  -14.0296 C   0  0  0  0  0  0  0  0  0  0  0  0
   26.2514  -22.6364  -14.0277 O   0  0  0  0  0  0  0  0  0  0  0  0
   26.5378  -20.5739  -12.9915 N   0  0  0  0  0  0  0  0  0  0  0  0
   25.5376  -20.9220  -12.0232 C   0  0  1  0  0  0  0  0  0  0  0  0
   25.8029  -20.0997  -10.7740 C   0  0  0  0  0  0  0  0  0  0  0  0
   27.0343  -20.5284  -10.0876 C   0  0  0  0  0  0  0  0  0  0  0  0
   28.0761  -21.2023  -10.6830 C   0  0  0  0  0  0  0  0  0  0  0  0
   29.0411  -21.4316   -9.7469 N   0  0  0  0  0  0  0  0  0  0  0  0
   28.6510  -20.9229   -8.5579 C   0  0  0  0  0  0  0  0  0  0  0  0
   29.2503  -20.8918   -7.3237 C   0  0  0  0  0  0  0  0  0  0  0  0
   28.5863  -20.2844   -6.2750 C   0  0  0  0  0  0  0  0  0  0  0  0
   27.3490  -19.7229   -6.4675 C   0  0  0  0  0  0  0  0  0  0  0  0
   26.7664  -19.7650   -7.7122 C   0  0  0  0  0  0  0  0  0  0  0  0
   27.4062  -20.3635   -8.7720 C   0  0  0  0  0  0  0  0  0  0  0  0
   24.1557  -20.7293  -12.5160 C   0  0  0  0  0  0  0  0  0  0  0  0
   23.8435  -19.5829  -12.9309 O   0  0  0  0  0  0  0  0  0  0  0  0
   22.4606  -22.5247  -15.2958 C   0  0  0  0  0  0  0  0  0  0  0  0
   21.4621  -22.4962  -14.1443 C   0  0  2  0  0  0  0  0  0  0  0  0
   20.0991  -22.2053  -14.7266 C   0  0  0  0  0  0  0  0  0  0  0  0
   21.8600  -21.4456  -13.1217 C   0  0  2  0  0  0  0  0  0  0  0  0
   23.1625  -21.7329  -12.5559 N   0  0  0  0  0  0  0  0  0  0  0  0
   20.8150  -21.3510  -12.0726 C   0  0  0  0  0  0  0  0  0  0  0  0
   19.9705  -20.4305  -12.0902 O   0  0  0  0  0  0  0  0  0  0  0  0
   20.7700  -22.2982  -11.0518 O   0  0  0  0  0  0  0  0  0  0  0  0
  1  2  1  0
  3  2  1  0
  4  3  1  0
  5  7  1  0
  5  6  1  6
  5  4  1  0
  7  8  2  0
  9 10  1  0
  9  7  1  0
 10 11  1  1
 12 11  1  0
 12 13  2  0
 14 13  1  0
 15 14  1  0
 16 15  2  0
 17 16  1  0
 18 17  2  0
 18 19  1  0
 19 20  2  0
 20 15  1  0
 20 12  1  0
 21 10  1  0
 21 22  2  0
 24 23  1  6
 24 26  1  0
 25 24  1  0
 26 27  1  1
 26 28  1  0
 27 21  1  0
 28 29  2  0
 28 30  1  0
M  END
$$$$
