MWV.pdb
     RDKit          3D

 30 31  0  0  1  0  0  0  0  0999 V2000
   29.8939  -23.3610  -16.4702 C   0  0  0  0  0  0  0  0  0  0  0  0
   28.2527  -23.6767  -17.1621 S   0  0  0  0  0  0  0  0  0  0  0  0
   26.9901  -23.7571  -15.8784 C   0  0  0  0  0  0  0  0  0  0  0  0
   26.9269  -22.4472  -15.0981 C   0  0  0  0  0  0  0  0  0  0  0  0
   26.6681  -21.2835  -16.0380 C   0  0  2  0  0  0  0  0  0  0  0  0
   27.8873  -20.5014  -16.0855 N   0  0  0  0  0  0  0  0  0  0  0  0
   25.5218  -20.4687  -15.5988 C   0  0  0  0  0  0  0  0  0  0  0  0
   25.6805  -19.6747  -14.6102 O   0  0  0  0  0  0  0  0  0  0  0  0
   24.2525  -20.5337  -16.2327 N   0  0  0  0  0  0  0  0  0  0  0  0
   23.2155  -19.6467  -15.7888 C   0  0  1  0  0  0  0  0  0  0  0  0
   22.4161  -19.2281  -17.0106 C   0  0  0  0  0  0  0  0  0  0  0  0
   21.3927  -18.2219  -16.6770 C   0  0  0  0  0  0  0  0  0  0  0  0
   21.6240  -17.0662  -15.9665 C   0  0  0  0  0  0  0  0  0  0  0  0
   20.4507  -16.3806  -15.8513 N   0  0  0  0  0  0  0  0  0  0  0  0
   19.4628  -17.0634  -16.4698 C   0  0  0  0  0  0  0  0  0  0  0  0
   18.1251  -16.8065  -16.6368 C   0  0  0  0  0  0  0  0  0  0  0  0
   17.3533  -17.7163  -17.3342 C   0  0  0  0  0  0  0  0  0  0  0  0
   17.9177  -18.8561  -17.8497 C   0  0  0  0  0  0  0  0  0  0  0  0
   19.2600  -19.0941  -17.6710 C   0  0  0  0  0  0  0  0  0  0  0  0
   20.0497  -18.2047  -16.9809 C   0  0  0  0  0  0  0  0  0  0  0  0
   22.3459  -20.2392  -14.7485 C   0  0  0  0  0  0  0  0  0  0  0  0
   22.1109  -21.4732  -14.8241 O   0  0  0  0  0  0  0  0  0  0  0  0
   22.5707  -19.9045  -10.8421 C   0  0  0  0  0  0  0  0  0  0  0  0
   21.1429  -19.6527  -11.3127 C   0  0  2  0  0  0  0  0  0  0  0  0
   20.2108  -20.3010  -10.3165 C   0  0  0  0  0  0  0  0  0  0  0  0
   20.9362  -20.2163  -12.7082 C   0  0  2  0  0  0  0  0  0  0  0  0
   21.7607  -19.5256  -13.6790 N   0  0  0  0  0  0  0  0  0  0  0  0
   19.4973  -20.1495  -13.0642 C   0  0  0  0  0  0  0  0  0  0  0  0
   18.9551  -19.0583  -13.3396 O   0  0  0  0  0  0  0  0  0  0  0  0
   18.7356  -21.3159  -13.0932 O   0  0  0  0  0  0  0  0  0  0  0  0
  1  2  1  0
  3  2  1  0
  4  3  1  0
  5  7  1  0
  5  6  1  1
  5  4  1  0
  7  8  2  0
  9 10  1  0
  9  7  1  0
 10 11  1  6
 12 11  1  0
 12 13  2  0
 14 13  1  0
 15 14  1  0
 16 15  2  0
 17 16  1  0
 18 17  2  0
 18 19  1  0
 19 20  2  0
 20 15  1  0
 20 12  1  0
 21 10  1  0
 21 22  2  0
 24 23  1  1
 24 26  1  0
 25 24  1  0
 26 27  1  6
 26 28  1  0
 27 21  1  0
 28 29  2  0
 28 30  1  0
M  END
$$$$
