MWV.pdb
     RDKit          3D

 30 31  0  0  1  0  0  0  0  0999 V2000
   30.3527  -22.6889  -13.3176 C   0  0  0  0  0  0  0  0  0  0  0  0
   30.4497  -23.1672  -15.0593 S   0  0  0  0  0  0  0  0  0  0  0  0
   29.7464  -21.9070  -16.1390 C   0  0  0  0  0  0  0  0  0  0  0  0
   29.0637  -20.8137  -15.3221 C   0  0  0  0  0  0  0  0  0  0  0  0
   27.6392  -20.6050  -15.8038 C   0  0  2  0  0  0  0  0  0  0  0  0
   27.6922  -19.6106  -16.8567 N   0  0  0  0  0  0  0  0  0  0  0  0
   26.7467  -20.1845  -14.7096 C   0  0  0  0  0  0  0  0  0  0  0  0
   26.7896  -18.9681  -14.3203 O   0  0  0  0  0  0  0  0  0  0  0  0
   25.8440  -21.0788  -14.0752 N   0  0  0  0  0  0  0  0  0  0  0  0
   24.9618  -20.5656  -13.0665 C   0  0  1  0  0  0  0  0  0  0  0  0
   23.5395  -20.8744  -13.5009 C   0  0  0  0  0  0  0  0  0  0  0  0
   22.5527  -20.4300  -12.5010 C   0  0  0  0  0  0  0  0  0  0  0  0
   22.6984  -19.3343  -11.6811 C   0  0  0  0  0  0  0  0  0  0  0  0
   21.5926  -19.2294  -10.8898 N   0  0  0  0  0  0  0  0  0  0  0  0
   20.7323  -20.2307  -11.1760 C   0  0  0  0  0  0  0  0  0  0  0  0
   19.5009  -20.5649  -10.6707 C   0  0  0  0  0  0  0  0  0  0  0  0
   18.8497  -21.6727  -11.1792 C   0  0  0  0  0  0  0  0  0  0  0  0
   19.4270  -22.4237  -12.1722 C   0  0  0  0  0  0  0  0  0  0  0  0
   20.6615  -22.0713  -12.6643 C   0  0  0  0  0  0  0  0  0  0  0  0
   21.3302  -20.9737  -12.1754 C   0  0  0  0  0  0  0  0  0  0  0  0
   25.2447  -21.1004  -11.7162 C   0  0  0  0  0  0  0  0  0  0  0  0
   25.2845  -22.3515  -11.5855 O   0  0  0  0  0  0  0  0  0  0  0  0
   26.2746  -18.8057   -8.1444 C   0  0  0  0  0  0  0  0  0  0  0  0
   26.7197  -20.2293   -8.4588 C   0  0  2  0  0  0  0  0  0  0  0  0
   28.0275  -20.1453   -9.2098 C   0  0  0  0  0  0  0  0  0  0  0  0
   25.6604  -20.9490   -9.2760 C   0  0  2  0  0  0  0  0  0  0  0  0
   25.4731  -20.3144  -10.5649 N   0  0  0  0  0  0  0  0  0  0  0  0
   24.3937  -21.0104   -8.5056 C   0  0  0  0  0  0  0  0  0  0  0  0
   23.3801  -20.3883   -8.8881 O   0  0  0  0  0  0  0  0  0  0  0  0
   24.3279  -21.7701   -7.3395 O   0  0  0  0  0  0  0  0  0  0  0  0
  1  2  1  0
  3  2  1  0
  4  3  1  0
  5  7  1  0
  5  6  1  6
  5  4  1  0
  7  8  2  0
  9 10  1  0
  9  7  1  0
 10 11  1  6
 12 11  1  0
 12 13  2  0
 14 13  1  0
 15 14  1  0
 16 15  2  0
 17 16  1  0
 18 17  2  0
 18 19  1  0
 19 20  2  0
 20 15  1  0
 20 12  1  0
 21 10  1  0
 21 22  2  0
 24 23  1  6
 24 26  1  0
 25 24  1  0
 26 27  1  6
 26 28  1  0
 27 21  1  0
 28 29  2  0
 28 30  1  0
M  END
$$$$
