MWV.pdb
     RDKit          3D

 30 31  0  0  1  0  0  0  0  0999 V2000
   25.9897  -17.0958  -16.4223 C   0  0  0  0  0  0  0  0  0  0  0  0
   27.4931  -17.6752  -17.2446 S   0  0  0  0  0  0  0  0  0  0  0  0
   28.2286  -19.0770  -16.3828 C   0  0  0  0  0  0  0  0  0  0  0  0
   27.3023  -19.5815  -15.2800 C   0  0  0  0  0  0  0  0  0  0  0  0
   27.9836  -20.6737  -14.4754 C   0  0  2  0  0  0  0  0  0  0  0  0
   28.0172  -21.8555  -15.3135 N   0  0  0  0  0  0  0  0  0  0  0  0
   27.2859  -20.9341  -13.2040 C   0  0  0  0  0  0  0  0  0  0  0  0
   26.2852  -21.7289  -13.2088 O   0  0  0  0  0  0  0  0  0  0  0  0
   27.6845  -20.3364  -11.9789 N   0  0  0  0  0  0  0  0  0  0  0  0
   26.9134  -20.6056  -10.7990 C   0  0  1  0  0  0  0  0  0  0  0  0
   27.6183  -19.9413   -9.6291 C   0  0  0  0  0  0  0  0  0  0  0  0
   26.9769  -20.2713   -8.3443 C   0  0  0  0  0  0  0  0  0  0  0  0
   25.8104  -20.9883   -8.2055 C   0  0  0  0  0  0  0  0  0  0  0  0
   25.5200  -21.0993   -6.8776 N   0  0  0  0  0  0  0  0  0  0  0  0
   26.4698  -20.4715   -6.1506 C   0  0  0  0  0  0  0  0  0  0  0  0
   26.6364  -20.2979   -4.7995 C   0  0  0  0  0  0  0  0  0  0  0  0
   27.7355  -19.5922   -4.3483 C   0  0  0  0  0  0  0  0  0  0  0  0
   28.6431  -19.0751   -5.2385 C   0  0  0  0  0  0  0  0  0  0  0  0
   28.4573  -19.2607   -6.5881 C   0  0  0  0  0  0  0  0  0  0  0  0
   27.3719  -19.9589   -7.0626 C   0  0  0  0  0  0  0  0  0  0  0  0
   25.5060  -20.1617  -10.9072 C   0  0  0  0  0  0  0  0  0  0  0  0
   25.2960  -18.9269  -11.0288 O   0  0  0  0  0  0  0  0  0  0  0  0
   23.5386  -20.8932  -13.7063 C   0  0  0  0  0  0  0  0  0  0  0  0
   22.5942  -21.1945  -12.5483 C   0  0  2  0  0  0  0  0  0  0  0  0
   21.2198  -20.7043  -12.9382 C   0  0  0  0  0  0  0  0  0  0  0  0
   23.0799  -20.5193  -11.2771 C   0  0  2  0  0  0  0  0  0  0  0  0
   24.3825  -21.0177  -10.8846 N   0  0  0  0  0  0  0  0  0  0  0  0
   22.0753  -20.7029  -10.2007 C   0  0  0  0  0  0  0  0  0  0  0  0
   22.1281  -21.6894   -9.4360 O   0  0  0  0  0  0  0  0  0  0  0  0
   21.0572  -19.7660  -10.0357 O   0  0  0  0  0  0  0  0  0  0  0  0
  1  2  1  0
  3  2  1  0
  4  3  1  0
  5  7  1  0
  5  6  1  6
  5  4  1  0
  7  8  2  0
  9 10  1  0
  9  7  1  0
 10 11  1  1
 12 11  1  0
 12 13  2  0
 14 13  1  0
 15 14  1  0
 16 15  2  0
 17 16  1  0
 18 17  2  0
 18 19  1  0
 19 20  2  0
 20 15  1  0
 20 12  1  0
 21 10  1  0
 21 22  2  0
 24 23  1  6
 24 26  1  0
 25 24  1  0
 26 27  1  1
 26 28  1  0
 27 21  1  0
 28 29  2  0
 28 30  1  0
M  END
$$$$
