MWV.pdb
     RDKit          3D

 30 31  0  0  1  0  0  0  0  0999 V2000
   29.8939  -29.9191  -18.8976 C   0  0  0  0  0  0  0  0  0  0  0  0
   28.7975  -28.9475  -17.8366 S   0  0  0  0  0  0  0  0  0  0  0  0
   28.2329  -27.4448  -18.6562 C   0  0  0  0  0  0  0  0  0  0  0  0
   27.1722  -26.7367  -17.8182 C   0  0  0  0  0  0  0  0  0  0  0  0
   27.7624  -25.5119  -17.1427 C   0  0  2  0  0  0  0  0  0  0  0  0
   28.8385  -25.9781  -16.2914 N   0  0  0  0  0  0  0  0  0  0  0  0
   26.7494  -24.7688  -16.3731 C   0  0  0  0  0  0  0  0  0  0  0  0
   26.6066  -25.0388  -15.1322 O   0  0  0  0  0  0  0  0  0  0  0  0
   25.9300  -23.7673  -16.9584 N   0  0  0  0  0  0  0  0  0  0  0  0
   24.9947  -23.0689  -16.1237 C   0  0  1  0  0  0  0  0  0  0  0  0
   24.8753  -21.6512  -16.6555 C   0  0  0  0  0  0  0  0  0  0  0  0
   23.9188  -20.8508  -15.8709 C   0  0  0  0  0  0  0  0  0  0  0  0
   23.9585  -20.6894  -14.5047 C   0  0  0  0  0  0  0  0  0  0  0  0
   22.9221  -19.8867  -14.1284 N   0  0  0  0  0  0  0  0  0  0  0  0
   22.2102  -19.5230  -15.2172 C   0  0  0  0  0  0  0  0  0  0  0  0
   21.0957  -18.7376  -15.3738 C   0  0  0  0  0  0  0  0  0  0  0  0
   20.5878  -18.5465  -16.6447 C   0  0  0  0  0  0  0  0  0  0  0  0
   21.1896  -19.1332  -17.7295 C   0  0  0  0  0  0  0  0  0  0  0  0
   22.3054  -19.9163  -17.5504 C   0  0  0  0  0  0  0  0  0  0  0  0
   22.8304  -20.1223  -16.2964 C   0  0  0  0  0  0  0  0  0  0  0  0
   23.6741  -23.7317  -16.0449 C   0  0  0  0  0  0  0  0  0  0  0  0
   23.2380  -24.2798  -17.0904 O   0  0  0  0  0  0  0  0  0  0  0  0
   22.5466  -26.5992  -14.1550 C   0  0  0  0  0  0  0  0  0  0  0  0
   21.4656  -25.5519  -13.9138 C   0  0  2  0  0  0  0  0  0  0  0  0
   20.1273  -26.2476  -13.9943 C   0  0  0  0  0  0  0  0  0  0  0  0
   21.5689  -24.4357  -14.9392 C   0  0  2  0  0  0  0  0  0  0  0  0
   22.8676  -23.7956  -14.8869 N   0  0  0  0  0  0  0  0  0  0  0  0
   20.4688  -23.4625  -14.7283 C   0  0  0  0  0  0  0  0  0  0  0  0
   19.5424  -23.3524  -15.5591 O   0  0  0  0  0  0  0  0  0  0  0  0
   20.4638  -22.6581  -13.5906 O   0  0  0  0  0  0  0  0  0  0  0  0
  1  2  1  0
  3  2  1  0
  4  3  1  0
  5  7  1  0
  5  6  1  1
  5  4  1  0
  7  8  2  0
  9 10  1  0
  9  7  1  0
 10 11  1  6
 12 11  1  0
 12 13  2  0
 14 13  1  0
 15 14  1  0
 16 15  2  0
 17 16  1  0
 18 17  2  0
 18 19  1  0
 19 20  2  0
 20 15  1  0
 20 12  1  0
 21 10  1  0
 21 22  2  0
 24 23  1  6
 24 26  1  0
 25 24  1  0
 26 27  1  1
 26 28  1  0
 27 21  1  0
 28 29  2  0
 28 30  1  0
M  END
$$$$
