DWL.pdb
     RDKit          3D

 31 32  0  0  1  0  0  0  0  0999 V2000
   21.4913  -19.4694  -12.4253 N   0  0  0  0  0  0  0  0  0  0  0  0
   22.0820  -20.5806  -11.7458 C   0  0  1  0  0  0  0  0  0  0  0  0
   22.3468  -21.7458  -12.7142 C   0  0  0  0  0  0  0  0  0  0  0  0
   21.1442  -22.5855  -12.9064 C   0  0  0  0  0  0  0  0  0  0  0  0
   20.0421  -22.2946  -12.3859 O   0  0  0  0  0  0  0  0  0  0  0  0
   23.4115  -20.1745  -11.2200 C   0  0  0  0  0  0  0  0  0  0  0  0
   24.0472  -19.2835  -11.8694 O   0  0  0  0  0  0  0  0  0  0  0  0
   21.2005  -23.7506  -13.6894 O   0  0  0  0  0  0  0  0  0  0  0  0
   23.9713  -20.7423  -10.0458 N   0  0  0  0  0  0  0  0  0  0  0  0
   25.3009  -20.4122   -9.6115 C   0  0  1  0  0  0  0  0  0  0  0  0
   25.5871  -20.8259   -8.1781 C   0  0  0  0  0  0  0  0  0  0  0  0
   26.6225  -19.9419   -7.5988 C   0  0  0  0  0  0  0  0  0  0  0  0
   26.8817  -18.6623   -8.0805 C   0  0  0  0  0  0  0  0  0  0  0  0
   27.8378  -18.1259   -7.3340 N   0  0  0  0  0  0  0  0  0  0  0  0
   28.2297  -18.9849   -6.3788 C   0  0  0  0  0  0  0  0  0  0  0  0
   29.1831  -18.8463   -5.4045 C   0  0  0  0  0  0  0  0  0  0  0  0
   29.3922  -19.9058   -4.5432 C   0  0  0  0  0  0  0  0  0  0  0  0
   28.6353  -21.0448   -4.7055 C   0  0  0  0  0  0  0  0  0  0  0  0
   27.6669  -21.1721   -5.7030 C   0  0  0  0  0  0  0  0  0  0  0  0
   27.4677  -20.1147   -6.5506 C   0  0  0  0  0  0  0  0  0  0  0  0
   26.2907  -20.9438  -10.5523 C   0  0  0  0  0  0  0  0  0  0  0  0
   26.3829  -22.2162  -10.6522 O   0  0  0  0  0  0  0  0  0  0  0  0
   27.2244  -20.3906  -14.8832 C   0  0  0  0  0  0  0  0  0  0  0  0
   27.7546  -19.2505  -14.0024 C   0  0  2  0  0  0  0  0  0  0  0  0
   28.2480  -18.1414  -14.8724 C   0  0  0  0  0  0  0  0  0  0  0  0
   28.7803  -19.8106  -13.0720 C   0  0  0  0  0  0  0  0  0  0  0  0
   28.2725  -20.8263  -12.0912 C   0  0  2  0  0  0  0  0  0  0  0  0
   27.1634  -20.1858  -11.3706 N   0  0  0  0  0  0  0  0  0  0  0  0
   29.2599  -21.4398  -11.2190 C   0  0  0  0  0  0  0  0  0  0  0  0
   30.1925  -22.3035  -11.7915 O   0  0  0  0  0  0  0  0  0  0  0  0
   29.3627  -21.2726   -9.9844 O   0  0  0  0  0  0  0  0  0  0  0  0
  2  1  1  6
  2  3  1  0
  3  4  1  0
  4  8  1  0
  5  4  2  0
  6  7  2  0
  6  2  1  0
  9  6  1  0
 10  9  1  0
 10 11  1  1
 11 12  1  0
 12 13  2  0
 12 20  1  0
 13 14  1  0
 14 15  1  0
 15 16  2  0
 16 17  1  0
 18 17  2  0
 19 18  1  0
 20 19  2  0
 20 15  1  0
 21 10  1  0
 22 21  2  0
 24 23  1  6
 24 26  1  0
 25 24  1  0
 27 26  1  1
 27 28  1  0
 28 21  1  0
 29 30  1  0
 29 27  1  0
 31 29  2  0
M  END
$$$$
