DWL.pdb
     RDKit          3D

 31 32  0  0  1  0  0  0  0  0999 V2000
   20.7214  -14.2376  -18.8188 N   0  0  0  0  0  0  0  0  0  0  0  0
   19.5561  -13.7792  -18.1279 C   0  0  1  0  0  0  0  0  0  0  0  0
   19.5371  -14.2860  -16.6758 C   0  0  0  0  0  0  0  0  0  0  0  0
   19.2584  -15.7369  -16.6032 C   0  0  0  0  0  0  0  0  0  0  0  0
   18.8630  -16.3870  -17.5987 O   0  0  0  0  0  0  0  0  0  0  0  0
   19.5961  -12.2959  -18.0438 C   0  0  0  0  0  0  0  0  0  0  0  0
   20.7346  -11.7526  -17.8758 O   0  0  0  0  0  0  0  0  0  0  0  0
   19.4313  -16.4411  -15.3999 O   0  0  0  0  0  0  0  0  0  0  0  0
   18.4276  -11.4962  -18.1424 N   0  0  0  0  0  0  0  0  0  0  0  0
   18.4937  -10.0610  -18.1070 C   0  0  1  0  0  0  0  0  0  0  0  0
   17.1699   -9.3884  -18.4275 C   0  0  0  0  0  0  0  0  0  0  0  0
   17.3819   -7.9389  -18.6354 C   0  0  0  0  0  0  0  0  0  0  0  0
   18.3945   -7.2234  -18.0036 C   0  0  0  0  0  0  0  0  0  0  0  0
   18.3333   -5.9657  -18.4203 N   0  0  0  0  0  0  0  0  0  0  0  0
   17.3292   -5.8070  -19.2983 C   0  0  0  0  0  0  0  0  0  0  0  0
   16.9093   -4.6862  -19.9653 C   0  0  0  0  0  0  0  0  0  0  0  0
   15.8289   -4.8031  -20.8181 C   0  0  0  0  0  0  0  0  0  0  0  0
   15.2292   -6.0353  -20.9551 C   0  0  0  0  0  0  0  0  0  0  0  0
   15.6681   -7.1691  -20.2689 C   0  0  0  0  0  0  0  0  0  0  0  0
   16.7408   -7.0414  -19.4268 C   0  0  0  0  0  0  0  0  0  0  0  0
   19.0534   -9.6083  -16.8306 C   0  0  0  0  0  0  0  0  0  0  0  0
   18.8511  -10.3466  -15.8050 O   0  0  0  0  0  0  0  0  0  0  0  0
   23.0608  -10.3330  -13.6404 C   0  0  0  0  0  0  0  0  0  0  0  0
   22.0618   -9.1692  -13.7054 C   0  0  2  0  0  0  0  0  0  0  0  0
   21.2646   -9.1301  -12.4430 C   0  0  0  0  0  0  0  0  0  0  0  0
   21.2462   -9.3159  -14.9482 C   0  0  0  0  0  0  0  0  0  0  0  0
   20.3922   -8.1335  -15.3002 C   0  0  2  0  0  0  0  0  0  0  0  0
   19.8030   -8.4264  -16.6142 N   0  0  0  0  0  0  0  0  0  0  0  0
   21.0239   -6.8270  -15.2207 C   0  0  0  0  0  0  0  0  0  0  0  0
   21.6633   -6.3387  -16.3592 O   0  0  0  0  0  0  0  0  0  0  0  0
   21.0565   -6.0803  -14.2187 O   0  0  0  0  0  0  0  0  0  0  0  0
  2  1  1  1
  2  3  1  0
  3  4  1  0
  4  8  1  0
  5  4  2  0
  6  7  2  0
  6  2  1  0
  9  6  1  0
 10  9  1  0
 10 11  1  1
 11 12  1  0
 12 13  2  0
 12 20  1  0
 13 14  1  0
 14 15  1  0
 15 16  2  0
 16 17  1  0
 18 17  2  0
 19 18  1  0
 20 19  2  0
 20 15  1  0
 21 10  1  0
 22 21  2  0
 24 23  1  1
 24 26  1  0
 25 24  1  0
 27 26  1  6
 27 28  1  0
 28 21  1  0
 29 30  1  0
 29 27  1  0
 31 29  2  0
M  END
$$$$
