DWL.pdb
     RDKit          3D

 31 32  0  0  1  0  0  0  0  0999 V2000
   28.8590  -23.3604  -16.9821 N   0  0  0  0  0  0  0  0  0  0  0  0
   28.3080  -22.0479  -16.8429 C   0  0  1  0  0  0  0  0  0  0  0  0
   27.2558  -21.7702  -17.9298 C   0  0  0  0  0  0  0  0  0  0  0  0
   27.8809  -21.4321  -19.2271 C   0  0  0  0  0  0  0  0  0  0  0  0
   27.5217  -21.9746  -20.2978 O   0  0  0  0  0  0  0  0  0  0  0  0
   27.5894  -21.9605  -15.5449 C   0  0  0  0  0  0  0  0  0  0  0  0
   26.6156  -22.7596  -15.3633 O   0  0  0  0  0  0  0  0  0  0  0  0
   28.9103  -20.4788  -19.3005 O   0  0  0  0  0  0  0  0  0  0  0  0
   27.9534  -21.0325  -14.5344 N   0  0  0  0  0  0  0  0  0  0  0  0
   27.2507  -20.9704  -13.2824 C   0  0  1  0  0  0  0  0  0  0  0  0
   27.8985  -20.0382  -12.2730 C   0  0  0  0  0  0  0  0  0  0  0  0
   27.1877  -20.1295  -10.9785 C   0  0  0  0  0  0  0  0  0  0  0  0
   25.8098  -19.9757  -10.8588 C   0  0  0  0  0  0  0  0  0  0  0  0
   25.4851  -20.1416   -9.5835 N   0  0  0  0  0  0  0  0  0  0  0  0
   26.5786  -20.3976   -8.8468 C   0  0  0  0  0  0  0  0  0  0  0  0
   26.7026  -20.6256   -7.5014 C   0  0  0  0  0  0  0  0  0  0  0  0
   27.9663  -20.8593   -6.9947 C   0  0  0  0  0  0  0  0  0  0  0  0
   29.0350  -20.8514   -7.8633 C   0  0  0  0  0  0  0  0  0  0  0  0
   28.8937  -20.6177   -9.2323 C   0  0  0  0  0  0  0  0  0  0  0  0
   27.6359  -20.3881   -9.7235 C   0  0  0  0  0  0  0  0  0  0  0  0
   25.8378  -20.6528  -13.5065 C   0  0  0  0  0  0  0  0  0  0  0  0
   25.5709  -19.7002  -14.3182 O   0  0  0  0  0  0  0  0  0  0  0  0
   22.4013  -19.8777  -15.8993 C   0  0  0  0  0  0  0  0  0  0  0  0
   23.2403  -21.1591  -15.7950 C   0  0  2  0  0  0  0  0  0  0  0  0
   22.9361  -22.0459  -16.9576 C   0  0  0  0  0  0  0  0  0  0  0  0
   22.9893  -21.7805  -14.4601 C   0  0  0  0  0  0  0  0  0  0  0  0
   23.3520  -20.9317  -13.2772 C   0  0  2  0  0  0  0  0  0  0  0  0
   24.7270  -21.2992  -12.9114 N   0  0  0  0  0  0  0  0  0  0  0  0
   22.4256  -20.9450  -12.1574 C   0  0  0  0  0  0  0  0  0  0  0  0
   22.7545  -21.7181  -11.0449 O   0  0  0  0  0  0  0  0  0  0  0  0
   21.3424  -20.3252  -12.0854 O   0  0  0  0  0  0  0  0  0  0  0  0
  2  1  1  6
  2  3  1  0
  3  4  1  0
  4  8  1  0
  5  4  2  0
  6  7  2  0
  6  2  1  0
  9  6  1  0
 10  9  1  0
 10 11  1  1
 11 12  1  0
 12 13  2  0
 12 20  1  0
 13 14  1  0
 14 15  1  0
 15 16  2  0
 16 17  1  0
 18 17  2  0
 19 18  1  0
 20 19  2  0
 20 15  1  0
 21 10  1  0
 22 21  2  0
 24 23  1  6
 24 26  1  0
 25 24  1  0
 27 26  1  6
 27 28  1  0
 28 21  1  0
 29 30  1  0
 29 27  1  0
 31 29  2  0
M  END
$$$$
