DWL.pdb
     RDKit          3D

 31 32  0  0  1  0  0  0  0  0999 V2000
   26.8945  -22.7549  -14.9771 N   0  0  0  0  0  0  0  0  0  0  0  0
   26.8661  -21.4400  -14.4152 C   0  0  1  0  0  0  0  0  0  0  0  0
   25.8510  -20.5460  -15.1471 C   0  0  0  0  0  0  0  0  0  0  0  0
   26.3319  -20.1529  -16.4896 C   0  0  0  0  0  0  0  0  0  0  0  0
   25.6657  -20.3816  -17.5260 O   0  0  0  0  0  0  0  0  0  0  0  0
   26.3965  -21.5260  -13.0077 C   0  0  0  0  0  0  0  0  0  0  0  0
   25.3434  -22.2052  -12.7855 O   0  0  0  0  0  0  0  0  0  0  0  0
   27.5666  -19.5015  -16.6471 O   0  0  0  0  0  0  0  0  0  0  0  0
   27.0755  -20.8855  -11.9384 N   0  0  0  0  0  0  0  0  0  0  0  0
   26.5062  -20.8162  -10.6206 C   0  0  1  0  0  0  0  0  0  0  0  0
   27.3942  -20.1005   -9.6171 C   0  0  0  0  0  0  0  0  0  0  0  0
   26.8666  -20.3005   -8.2493 C   0  0  0  0  0  0  0  0  0  0  0  0
   25.6810  -20.9802   -7.9868 C   0  0  0  0  0  0  0  0  0  0  0  0
   25.5048  -21.0106   -6.6726 N   0  0  0  0  0  0  0  0  0  0  0  0
   26.5140  -20.3841   -6.0457 C   0  0  0  0  0  0  0  0  0  0  0  0
   26.7295  -20.1775   -4.7084 C   0  0  0  0  0  0  0  0  0  0  0  0
   27.8634  -19.4845   -4.3314 C   0  0  0  0  0  0  0  0  0  0  0  0
   28.7179  -19.0369   -5.3143 C   0  0  0  0  0  0  0  0  0  0  0  0
   28.4857  -19.2548   -6.6735 C   0  0  0  0  0  0  0  0  0  0  0  0
   27.3587  -19.9440   -7.0353 C   0  0  0  0  0  0  0  0  0  0  0  0
   25.1580  -20.2448  -10.6776 C   0  0  0  0  0  0  0  0  0  0  0  0
   25.0449  -19.0474  -11.1146 O   0  0  0  0  0  0  0  0  0  0  0  0
   20.4329  -20.8501  -12.7411 C   0  0  0  0  0  0  0  0  0  0  0  0
   21.5418  -19.8134  -12.9697 C   0  0  2  0  0  0  0  0  0  0  0  0
   21.7145  -19.5885  -14.4361 C   0  0  0  0  0  0  0  0  0  0  0  0
   22.7745  -20.2773  -12.2652 C   0  0  0  0  0  0  0  0  0  0  0  0
   22.6532  -20.4070  -10.7752 C   0  0  2  0  0  0  0  0  0  0  0  0
   23.9560  -20.8889  -10.2954 N   0  0  0  0  0  0  0  0  0  0  0  0
   21.5256  -21.1774  -10.2781 C   0  0  0  0  0  0  0  0  0  0  0  0
   20.4142  -20.4807   -9.8058 O   0  0  0  0  0  0  0  0  0  0  0  0
   21.4456  -22.4238  -10.2270 O   0  0  0  0  0  0  0  0  0  0  0  0
  2  1  1  6
  2  3  1  0
  3  4  1  0
  4  8  1  0
  5  4  2  0
  6  7  2  0
  6  2  1  0
  9  6  1  0
 10  9  1  0
 10 11  1  1
 11 12  1  0
 12 13  2  0
 12 20  1  0
 13 14  1  0
 14 15  1  0
 15 16  2  0
 16 17  1  0
 18 17  2  0
 19 18  1  0
 20 19  2  0
 20 15  1  0
 21 10  1  0
 22 21  2  0
 24 23  1  6
 24 26  1  0
 25 24  1  0
 27 26  1  6
 27 28  1  0
 28 21  1  0
 29 30  1  0
 29 27  1  0
 31 29  2  0
M  END
$$$$
