DWL.pdb
     RDKit          3D

 31 32  0  0  1  0  0  0  0  0999 V2000
   27.3725  -22.6568  -16.6429 N   0  0  0  0  0  0  0  0  0  0  0  0
   27.3327  -21.3544  -16.0534 C   0  0  1  0  0  0  0  0  0  0  0  0
   26.4649  -20.3953  -16.8857 C   0  0  0  0  0  0  0  0  0  0  0  0
   27.2669  -19.6518  -17.8817 C   0  0  0  0  0  0  0  0  0  0  0  0
   28.4992  -19.8371  -18.0128 O   0  0  0  0  0  0  0  0  0  0  0  0
   26.6799  -21.4464  -14.7214 C   0  0  0  0  0  0  0  0  0  0  0  0
   25.6855  -22.2332  -14.6133 O   0  0  0  0  0  0  0  0  0  0  0  0
   26.6641  -18.7023  -18.7237 O   0  0  0  0  0  0  0  0  0  0  0  0
   27.1268  -20.6977  -13.6014 N   0  0  0  0  0  0  0  0  0  0  0  0
   26.5304  -20.8577  -12.3037 C   0  0  1  0  0  0  0  0  0  0  0  0
   27.3899  -20.3162  -11.1743 C   0  0  0  0  0  0  0  0  0  0  0  0
   26.6465  -20.3945   -9.8973 C   0  0  0  0  0  0  0  0  0  0  0  0
   25.3303  -20.8383   -9.8133 C   0  0  0  0  0  0  0  0  0  0  0  0
   24.9677  -20.8160   -8.5377 N   0  0  0  0  0  0  0  0  0  0  0  0
   25.9769  -20.3784   -7.7669 C   0  0  0  0  0  0  0  0  0  0  0  0
   26.0358  -20.1955   -6.4103 C   0  0  0  0  0  0  0  0  0  0  0  0
   27.2140  -19.7195   -5.8685 C   0  0  0  0  0  0  0  0  0  0  0  0
   28.2669  -19.4529   -6.7151 C   0  0  0  0  0  0  0  0  0  0  0  0
   28.1926  -19.6441   -8.0960 C   0  0  0  0  0  0  0  0  0  0  0  0
   27.0198  -20.1175   -8.6218 C   0  0  0  0  0  0  0  0  0  0  0  0
   25.1772  -20.2953  -12.2922 C   0  0  0  0  0  0  0  0  0  0  0  0
   25.0340  -19.0992  -12.7239 O   0  0  0  0  0  0  0  0  0  0  0  0
   21.0963  -19.4969  -14.5340 C   0  0  0  0  0  0  0  0  0  0  0  0
   21.5741  -20.9439  -14.7207 C   0  0  2  0  0  0  0  0  0  0  0  0
   20.4520  -21.8796  -14.4111 C   0  0  0  0  0  0  0  0  0  0  0  0
   22.7978  -21.1480  -13.8888 C   0  0  0  0  0  0  0  0  0  0  0  0
   22.6994  -20.6665  -12.4711 C   0  0  2  0  0  0  0  0  0  0  0  0
   24.0007  -20.9469  -11.8486 N   0  0  0  0  0  0  0  0  0  0  0  0
   21.5659  -21.1454  -11.6979 C   0  0  0  0  0  0  0  0  0  0  0  0
   20.5606  -20.2343  -11.3769 O   0  0  0  0  0  0  0  0  0  0  0  0
   21.3940  -22.3111  -11.2804 O   0  0  0  0  0  0  0  0  0  0  0  0
  2  1  1  6
  2  3  1  0
  3  4  1  0
  4  8  1  0
  5  4  2  0
  6  7  2  0
  6  2  1  0
  9  6  1  0
 10  9  1  0
 10 11  1  1
 11 12  1  0
 12 13  2  0
 12 20  1  0
 13 14  1  0
 14 15  1  0
 15 16  2  0
 16 17  1  0
 18 17  2  0
 19 18  1  0
 20 19  2  0
 20 15  1  0
 21 10  1  0
 22 21  2  0
 24 23  1  1
 24 26  1  0
 25 24  1  0
 27 26  1  6
 27 28  1  0
 28 21  1  0
 29 30  1  0
 29 27  1  0
 31 29  2  0
M  END
$$$$
