DWL.pdb
     RDKit          3D

 31 32  0  0  1  0  0  0  0  0999 V2000
   28.6608  -21.5568  -14.9682 N   0  0  0  0  0  0  0  0  0  0  0  0
   27.7245  -20.5218  -14.6560 C   0  0  1  0  0  0  0  0  0  0  0  0
   26.8851  -20.1433  -15.8879 C   0  0  0  0  0  0  0  0  0  0  0  0
   27.6930  -19.4428  -16.9100 C   0  0  0  0  0  0  0  0  0  0  0  0
   27.5887  -19.7036  -18.1311 O   0  0  0  0  0  0  0  0  0  0  0  0
   26.7615  -21.0303  -13.6445 C   0  0  0  0  0  0  0  0  0  0  0  0
   26.2196  -22.1591  -13.8719 O   0  0  0  0  0  0  0  0  0  0  0  0
   28.6146  -18.4495  -16.5389 O   0  0  0  0  0  0  0  0  0  0  0  0
   26.4418  -20.3058  -12.4665 N   0  0  0  0  0  0  0  0  0  0  0  0
   25.4953  -20.8081  -11.5087 C   0  0  1  0  0  0  0  0  0  0  0  0
   25.6615  -20.2059  -10.1241 C   0  0  0  0  0  0  0  0  0  0  0  0
   26.9544  -20.6320   -9.5443 C   0  0  0  0  0  0  0  0  0  0  0  0
   27.8494  -21.4594  -10.2158 C   0  0  0  0  0  0  0  0  0  0  0  0
   28.9146  -21.6282   -9.4437 N   0  0  0  0  0  0  0  0  0  0  0  0
   28.7738  -20.9548   -8.2901 C   0  0  0  0  0  0  0  0  0  0  0  0
   29.6197  -20.8568   -7.2167 C   0  0  0  0  0  0  0  0  0  0  0  0
   29.2178  -20.0913   -6.1393 C   0  0  0  0  0  0  0  0  0  0  0  0
   27.9916  -19.4670   -6.1968 C   0  0  0  0  0  0  0  0  0  0  0  0
   27.1398  -19.5758   -7.2975 C   0  0  0  0  0  0  0  0  0  0  0  0
   27.5492  -20.3367   -8.3603 C   0  0  0  0  0  0  0  0  0  0  0  0
   24.1291  -20.6630  -12.0185 C   0  0  0  0  0  0  0  0  0  0  0  0
   23.7099  -19.4757  -12.2473 O   0  0  0  0  0  0  0  0  0  0  0  0
   21.9315  -21.5503  -15.7067 C   0  0  0  0  0  0  0  0  0  0  0  0
   22.1341  -22.8134  -14.8581 C   0  0  2  0  0  0  0  0  0  0  0  0
   21.6916  -24.0089  -15.6364 C   0  0  0  0  0  0  0  0  0  0  0  0
   21.4267  -22.6260  -13.5559 C   0  0  0  0  0  0  0  0  0  0  0  0
   21.8542  -21.4292  -12.7583 C   0  0  2  0  0  0  0  0  0  0  0  0
   23.2170  -21.7125  -12.2870 N   0  0  0  0  0  0  0  0  0  0  0  0
   20.9514  -20.9906  -11.7073 C   0  0  0  0  0  0  0  0  0  0  0  0
   19.8768  -20.1773  -12.0646 O   0  0  0  0  0  0  0  0  0  0  0  0
   21.0388  -21.2699  -10.4920 O   0  0  0  0  0  0  0  0  0  0  0  0
  2  1  1  6
  2  3  1  0
  3  4  1  0
  4  8  1  0
  5  4  2  0
  6  7  2  0
  6  2  1  0
  9  6  1  0
 10  9  1  0
 10 11  1  1
 11 12  1  0
 12 13  2  0
 12 20  1  0
 13 14  1  0
 14 15  1  0
 15 16  2  0
 16 17  1  0
 18 17  2  0
 19 18  1  0
 20 19  2  0
 20 15  1  0
 21 10  1  0
 22 21  2  0
 24 23  1  6
 24 26  1  0
 25 24  1  0
 27 26  1  1
 27 28  1  0
 28 21  1  0
 29 30  1  0
 29 27  1  0
 31 29  2  0
M  END
$$$$
