DWL.pdb
     RDKit          3D

 31 32  0  0  1  0  0  0  0  0999 V2000
   27.3378  -23.2023  -15.5378 N   0  0  0  0  0  0  0  0  0  0  0  0
   26.6564  -21.9582  -15.3550 C   0  0  1  0  0  0  0  0  0  0  0  0
   25.5902  -21.7449  -16.4427 C   0  0  0  0  0  0  0  0  0  0  0  0
   25.5357  -20.3363  -16.8909 C   0  0  0  0  0  0  0  0  0  0  0  0
   26.5718  -19.6864  -17.1633 O   0  0  0  0  0  0  0  0  0  0  0  0
   25.9225  -21.9943  -14.0631 C   0  0  0  0  0  0  0  0  0  0  0  0
   25.4486  -23.1161  -13.6937 O   0  0  0  0  0  0  0  0  0  0  0  0
   24.3043  -19.6741  -17.0277 O   0  0  0  0  0  0  0  0  0  0  0  0
   25.7429  -20.8397  -13.2574 N   0  0  0  0  0  0  0  0  0  0  0  0
   24.9277  -20.8682  -12.0741 C   0  0  1  0  0  0  0  0  0  0  0  0
   25.4232  -19.9402  -10.9782 C   0  0  0  0  0  0  0  0  0  0  0  0
   26.7022  -20.4465  -10.4332 C   0  0  0  0  0  0  0  0  0  0  0  0
   27.6175  -21.1668  -11.1947 C   0  0  0  0  0  0  0  0  0  0  0  0
   28.6629  -21.4467  -10.4279 N   0  0  0  0  0  0  0  0  0  0  0  0
   28.4895  -20.9493   -9.1923 C   0  0  0  0  0  0  0  0  0  0  0  0
   29.3069  -21.0093   -8.0943 C   0  0  0  0  0  0  0  0  0  0  0  0
   28.8742  -20.4097   -6.9275 C   0  0  0  0  0  0  0  0  0  0  0  0
   27.6475  -19.7837   -6.9253 C   0  0  0  0  0  0  0  0  0  0  0  0
   26.8250  -19.7303   -8.0520 C   0  0  0  0  0  0  0  0  0  0  0  0
   27.2649  -20.3275   -9.2035 C   0  0  0  0  0  0  0  0  0  0  0  0
   23.5238  -20.6252  -12.4167 C   0  0  0  0  0  0  0  0  0  0  0  0
   23.2175  -19.4608  -12.8502 O   0  0  0  0  0  0  0  0  0  0  0  0
   22.1991  -23.4575  -13.8719 C   0  0  0  0  0  0  0  0  0  0  0  0
   21.1751  -22.7074  -14.7354 C   0  0  2  0  0  0  0  0  0  0  0  0
   21.5849  -22.7858  -16.1695 C   0  0  0  0  0  0  0  0  0  0  0  0
   21.0386  -21.3175  -14.2057 C   0  0  0  0  0  0  0  0  0  0  0  0
   21.0942  -21.1904  -12.7116 C   0  0  2  0  0  0  0  0  0  0  0  0
   22.4616  -21.5565  -12.3167 N   0  0  0  0  0  0  0  0  0  0  0  0
   20.0627  -21.8855  -11.9600 C   0  0  0  0  0  0  0  0  0  0  0  0
   18.7351  -21.5198  -12.1782 O   0  0  0  0  0  0  0  0  0  0  0  0
   20.2435  -22.7940  -11.1206 O   0  0  0  0  0  0  0  0  0  0  0  0
  2  1  1  6
  2  3  1  0
  3  4  1  0
  4  8  1  0
  5  4  2  0
  6  7  2  0
  6  2  1  0
  9  6  1  0
 10  9  1  0
 10 11  1  1
 11 12  1  0
 12 13  2  0
 12 20  1  0
 13 14  1  0
 14 15  1  0
 15 16  2  0
 16 17  1  0
 18 17  2  0
 19 18  1  0
 20 19  2  0
 20 15  1  0
 21 10  1  0
 22 21  2  0
 24 23  1  1
 24 26  1  0
 25 24  1  0
 27 26  1  6
 27 28  1  0
 28 21  1  0
 29 30  1  0
 29 27  1  0
 31 29  2  0
M  END
$$$$
