DWL.pdb
     RDKit          3D

 31 32  0  0  1  0  0  0  0  0999 V2000
   27.7721  -22.6557  -15.1246 N   0  0  0  0  0  0  0  0  0  0  0  0
   27.6865  -21.3338  -14.5853 C   0  0  1  0  0  0  0  0  0  0  0  0
   26.7777  -20.4411  -15.4471 C   0  0  0  0  0  0  0  0  0  0  0  0
   27.4033  -20.1105  -16.7461 C   0  0  0  0  0  0  0  0  0  0  0  0
   28.5120  -19.5314  -16.8200 O   0  0  0  0  0  0  0  0  0  0  0  0
   27.0460  -21.3988  -13.2457 C   0  0  0  0  0  0  0  0  0  0  0  0
   25.9759  -22.0800  -13.1443 O   0  0  0  0  0  0  0  0  0  0  0  0
   26.7659  -20.4404  -17.9538 O   0  0  0  0  0  0  0  0  0  0  0  0
   27.5848  -20.7368  -12.1116 N   0  0  0  0  0  0  0  0  0  0  0  0
   26.9347  -20.7898  -10.8310 C   0  0  1  0  0  0  0  0  0  0  0  0
   27.7859  -20.2393   -9.6996 C   0  0  0  0  0  0  0  0  0  0  0  0
   27.0642  -20.3800   -8.4156 C   0  0  0  0  0  0  0  0  0  0  0  0
   25.8025  -20.9585   -8.3156 C   0  0  0  0  0  0  0  0  0  0  0  0
   25.4488  -20.9593   -7.0372 N   0  0  0  0  0  0  0  0  0  0  0  0
   26.4120  -20.4090   -6.2799 C   0  0  0  0  0  0  0  0  0  0  0  0
   26.4613  -20.2049   -4.9260 C   0  0  0  0  0  0  0  0  0  0  0  0
   27.5868  -19.6014   -4.3994 C   0  0  0  0  0  0  0  0  0  0  0  0
   28.5998  -19.2358   -5.2579 C   0  0  0  0  0  0  0  0  0  0  0  0
   28.5359  -19.4501   -6.6359 C   0  0  0  0  0  0  0  0  0  0  0  0
   27.4155  -20.0502   -7.1465 C   0  0  0  0  0  0  0  0  0  0  0  0
   25.6191  -20.1482  -10.9008 C   0  0  0  0  0  0  0  0  0  0  0  0
   25.5371  -19.0428  -11.5402 O   0  0  0  0  0  0  0  0  0  0  0  0
   22.0676  -19.0612  -13.3650 C   0  0  0  0  0  0  0  0  0  0  0  0
   23.2748  -20.0041  -13.4666 C   0  0  2  0  0  0  0  0  0  0  0  0
   23.3064  -20.6232  -14.8254 C   0  0  0  0  0  0  0  0  0  0  0  0
   23.2046  -20.9839  -12.3414 C   0  0  0  0  0  0  0  0  0  0  0  0
   23.1191  -20.3826  -10.9694 C   0  0  2  0  0  0  0  0  0  0  0  0
   24.4175  -20.6317  -10.3278 N   0  0  0  0  0  0  0  0  0  0  0  0
   21.9802  -20.7747  -10.1562 C   0  0  0  0  0  0  0  0  0  0  0  0
   22.1384  -21.8504   -9.2834 O   0  0  0  0  0  0  0  0  0  0  0  0
   20.8505  -20.2397  -10.1574 O   0  0  0  0  0  0  0  0  0  0  0  0
  2  1  1  6
  2  3  1  0
  3  4  1  0
  4  8  1  0
  5  4  2  0
  6  7  2  0
  6  2  1  0
  9  6  1  0
 10  9  1  0
 10 11  1  1
 11 12  1  0
 12 13  2  0
 12 20  1  0
 13 14  1  0
 14 15  1  0
 15 16  2  0
 16 17  1  0
 18 17  2  0
 19 18  1  0
 20 19  2  0
 20 15  1  0
 21 10  1  0
 22 21  2  0
 24 23  1  6
 24 26  1  0
 25 24  1  0
 27 26  1  6
 27 28  1  0
 28 21  1  0
 29 30  1  0
 29 27  1  0
 31 29  2  0
M  END
$$$$
