DWL.pdb
     RDKit          3D

 31 32  0  0  1  0  0  0  0  0999 V2000
   28.3282  -21.4920  -14.8405 N   0  0  0  0  0  0  0  0  0  0  0  0
   27.6426  -20.3997  -14.2223 C   0  0  1  0  0  0  0  0  0  0  0  0
   26.8066  -19.6171  -15.2491 C   0  0  0  0  0  0  0  0  0  0  0  0
   27.6394  -18.6862  -16.0415 C   0  0  0  0  0  0  0  0  0  0  0  0
   28.7864  -18.9968  -16.4390 O   0  0  0  0  0  0  0  0  0  0  0  0
   26.6752  -20.9359  -13.2295 C   0  0  0  0  0  0  0  0  0  0  0  0
   26.1075  -22.0405  -13.5074 O   0  0  0  0  0  0  0  0  0  0  0  0
   27.1640  -17.4078  -16.3785 O   0  0  0  0  0  0  0  0  0  0  0  0
   26.3786  -20.2628  -12.0156 N   0  0  0  0  0  0  0  0  0  0  0  0
   25.3647  -20.7436  -11.1178 C   0  0  1  0  0  0  0  0  0  0  0  0
   25.4962  -20.1918   -9.7086 C   0  0  0  0  0  0  0  0  0  0  0  0
   26.7843  -20.6212   -9.1206 C   0  0  0  0  0  0  0  0  0  0  0  0
   27.6530  -21.5004   -9.7602 C   0  0  0  0  0  0  0  0  0  0  0  0
   28.7214  -21.6584   -8.9903 N   0  0  0  0  0  0  0  0  0  0  0  0
   28.6077  -20.9286   -7.8684 C   0  0  0  0  0  0  0  0  0  0  0  0
   29.4662  -20.8007   -6.8082 C   0  0  0  0  0  0  0  0  0  0  0  0
   29.0930  -19.9762   -5.7646 C   0  0  0  0  0  0  0  0  0  0  0  0
   27.8813  -19.3260   -5.8408 C   0  0  0  0  0  0  0  0  0  0  0  0
   27.0165  -19.4657   -6.9277 C   0  0  0  0  0  0  0  0  0  0  0  0
   27.3975  -20.2851   -7.9570 C   0  0  0  0  0  0  0  0  0  0  0  0
   24.0326  -20.5134  -11.6835 C   0  0  0  0  0  0  0  0  0  0  0  0
   23.6192  -19.3037  -11.7408 O   0  0  0  0  0  0  0  0  0  0  0  0
   21.9811  -20.3968  -15.4989 C   0  0  0  0  0  0  0  0  0  0  0  0
   22.2640  -21.8217  -15.0026 C   0  0  2  0  0  0  0  0  0  0  0  0
   21.9957  -22.7924  -16.1056 C   0  0  0  0  0  0  0  0  0  0  0  0
   21.4650  -22.0572  -13.7628 C   0  0  0  0  0  0  0  0  0  0  0  0
   21.7869  -21.1536  -12.6089 C   0  0  2  0  0  0  0  0  0  0  0  0
   23.1481  -21.5024  -12.1787 N   0  0  0  0  0  0  0  0  0  0  0  0
   20.8221  -21.1154  -11.5227 C   0  0  0  0  0  0  0  0  0  0  0  0
   21.0941  -21.8646  -10.3789 O   0  0  0  0  0  0  0  0  0  0  0  0
   19.7518  -20.4698  -11.5057 O   0  0  0  0  0  0  0  0  0  0  0  0
  2  1  1  6
  2  3  1  0
  3  4  1  0
  4  8  1  0
  5  4  2  0
  6  7  2  0
  6  2  1  0
  9  6  1  0
 10  9  1  0
 10 11  1  1
 11 12  1  0
 12 13  2  0
 12 20  1  0
 13 14  1  0
 14 15  1  0
 15 16  2  0
 16 17  1  0
 18 17  2  0
 19 18  1  0
 20 19  2  0
 20 15  1  0
 21 10  1  0
 22 21  2  0
 24 23  1  6
 24 26  1  0
 25 24  1  0
 27 26  1  6
 27 28  1  0
 28 21  1  0
 29 30  1  0
 29 27  1  0
 31 29  2  0
M  END
$$$$
