DWL.pdb
     RDKit          3D

 31 32  0  0  1  0  0  0  0  0999 V2000
   28.0652  -21.2718  -17.8347 N   0  0  0  0  0  0  0  0  0  0  0  0
   28.2274  -22.1089  -16.6865 C   0  0  1  0  0  0  0  0  0  0  0  0
   29.6760  -22.6118  -16.5669 C   0  0  0  0  0  0  0  0  0  0  0  0
   29.9720  -23.6755  -17.5512 C   0  0  0  0  0  0  0  0  0  0  0  0
   31.0749  -24.2699  -17.5739 O   0  0  0  0  0  0  0  0  0  0  0  0
   27.9700  -21.3059  -15.4626 C   0  0  0  0  0  0  0  0  0  0  0  0
   28.6926  -20.2744  -15.2801 O   0  0  0  0  0  0  0  0  0  0  0  0
   29.0130  -24.0585  -18.5037 O   0  0  0  0  0  0  0  0  0  0  0  0
   26.9670  -21.6545  -14.5206 N   0  0  0  0  0  0  0  0  0  0  0  0
   26.2958  -20.6569  -13.7334 C   0  0  1  0  0  0  0  0  0  0  0  0
   25.1731  -19.9556  -14.4786 C   0  0  0  0  0  0  0  0  0  0  0  0
   25.5141  -18.5287  -14.6706 C   0  0  0  0  0  0  0  0  0  0  0  0
   26.8135  -18.0407  -14.5720 C   0  0  0  0  0  0  0  0  0  0  0  0
   26.7859  -16.7388  -14.8239 N   0  0  0  0  0  0  0  0  0  0  0  0
   25.5320  -16.3343  -15.0849 C   0  0  0  0  0  0  0  0  0  0  0  0
   25.0521  -15.0871  -15.3873 C   0  0  0  0  0  0  0  0  0  0  0  0
   23.6954  -14.9474  -15.6065 C   0  0  0  0  0  0  0  0  0  0  0  0
   22.8951  -16.0641  -15.5104 C   0  0  0  0  0  0  0  0  0  0  0  0
   23.3981  -17.3291  -15.2014 C   0  0  0  0  0  0  0  0  0  0  0  0
   24.7449  -17.4557  -14.9871 C   0  0  0  0  0  0  0  0  0  0  0  0
   25.8471  -21.2291  -12.4611 C   0  0  0  0  0  0  0  0  0  0  0  0
   25.1268  -22.2856  -12.5131 O   0  0  0  0  0  0  0  0  0  0  0  0
   26.1404  -18.7401   -8.8200 C   0  0  0  0  0  0  0  0  0  0  0  0
   26.2992  -20.0032   -7.9621 C   0  0  2  0  0  0  0  0  0  0  0  0
   27.3582  -19.7736   -6.9342 C   0  0  0  0  0  0  0  0  0  0  0  0
   26.5581  -21.1609   -8.8697 C   0  0  0  0  0  0  0  0  0  0  0  0
   25.5554  -21.3528   -9.9693 C   0  0  2  0  0  0  0  0  0  0  0  0
   26.1323  -20.7278  -11.1677 N   0  0  0  0  0  0  0  0  0  0  0  0
   24.1928  -20.9323   -9.6889 C   0  0  0  0  0  0  0  0  0  0  0  0
   23.5179  -21.5560   -8.6405 O   0  0  0  0  0  0  0  0  0  0  0  0
   23.5483  -20.0537  -10.3016 O   0  0  0  0  0  0  0  0  0  0  0  0
  2  1  1  6
  2  3  1  0
  3  4  1  0
  4  8  1  0
  5  4  2  0
  6  7  2  0
  6  2  1  0
  9  6  1  0
 10  9  1  0
 10 11  1  6
 11 12  1  0
 12 13  2  0
 12 20  1  0
 13 14  1  0
 14 15  1  0
 15 16  2  0
 16 17  1  0
 18 17  2  0
 19 18  1  0
 20 19  2  0
 20 15  1  0
 21 10  1  0
 22 21  2  0
 24 23  1  6
 24 26  1  0
 25 24  1  0
 27 26  1  1
 27 28  1  0
 28 21  1  0
 29 30  1  0
 29 27  1  0
 31 29  2  0
M  END
$$$$
