DWL.pdb
     RDKit          3D

 31 32  0  0  1  0  0  0  0  0999 V2000
   22.2622   -9.7963  -17.0067 N   0  0  0  0  0  0  0  0  0  0  0  0
   22.2250   -8.4418  -16.5491 C   0  0  1  0  0  0  0  0  0  0  0  0
   21.8798   -7.4780  -17.6970 C   0  0  0  0  0  0  0  0  0  0  0  0
   20.7911   -8.0045  -18.5488 C   0  0  0  0  0  0  0  0  0  0  0  0
   20.8526   -9.1385  -19.0782 O   0  0  0  0  0  0  0  0  0  0  0  0
   21.1328   -8.2986  -15.5513 C   0  0  0  0  0  0  0  0  0  0  0  0
   20.1765   -9.1362  -15.6103 O   0  0  0  0  0  0  0  0  0  0  0  0
   19.6383   -7.2398  -18.7937 O   0  0  0  0  0  0  0  0  0  0  0  0
   21.1324   -7.2782  -14.5647 N   0  0  0  0  0  0  0  0  0  0  0  0
   20.0644   -7.1553  -13.6109 C   0  0  1  0  0  0  0  0  0  0  0  0
   20.5239   -7.2966  -12.1698 C   0  0  0  0  0  0  0  0  0  0  0  0
   19.3552   -7.2441  -11.2640 C   0  0  0  0  0  0  0  0  0  0  0  0
   19.1981   -6.2663  -10.2864 C   0  0  0  0  0  0  0  0  0  0  0  0
   18.0434   -6.4803   -9.6700 N   0  0  0  0  0  0  0  0  0  0  0  0
   17.4229   -7.5532  -10.1878 C   0  0  0  0  0  0  0  0  0  0  0  0
   16.2248   -8.1269   -9.8521 C   0  0  0  0  0  0  0  0  0  0  0  0
   15.8205   -9.2466  -10.5529 C   0  0  0  0  0  0  0  0  0  0  0  0
   16.6384   -9.7293  -11.5503 C   0  0  0  0  0  0  0  0  0  0  0  0
   17.8570   -9.1341  -11.8816 C   0  0  0  0  0  0  0  0  0  0  0  0
   18.2470   -8.0239  -11.1807 C   0  0  0  0  0  0  0  0  0  0  0  0
   19.3188   -5.9144  -13.8382 C   0  0  0  0  0  0  0  0  0  0  0  0
   19.9814   -4.8197  -13.8262 O   0  0  0  0  0  0  0  0  0  0  0  0
   17.4371   -3.4266  -16.9832 C   0  0  0  0  0  0  0  0  0  0  0  0
   16.6989   -4.7262  -16.6324 C   0  0  2  0  0  0  0  0  0  0  0  0
   15.6272   -4.9749  -17.6425 C   0  0  0  0  0  0  0  0  0  0  0  0
   16.2112   -4.6267  -15.2241 C   0  0  0  0  0  0  0  0  0  0  0  0
   17.2810   -4.4864  -14.1814 C   0  0  2  0  0  0  0  0  0  0  0  0
   17.9267   -5.8021  -14.0727 N   0  0  0  0  0  0  0  0  0  0  0  0
   16.8752   -3.9268  -12.9030 C   0  0  0  0  0  0  0  0  0  0  0  0
   17.1084   -2.5708  -12.6784 O   0  0  0  0  0  0  0  0  0  0  0  0
   16.3293   -4.5455  -11.9639 O   0  0  0  0  0  0  0  0  0  0  0  0
  2  1  1  6
  2  3  1  0
  3  4  1  0
  4  8  1  0
  5  4  2  0
  6  7  2  0
  6  2  1  0
  9  6  1  0
 10  9  1  0
 10 11  1  1
 11 12  1  0
 12 13  2  0
 12 20  1  0
 13 14  1  0
 14 15  1  0
 15 16  2  0
 16 17  1  0
 18 17  2  0
 19 18  1  0
 20 19  2  0
 20 15  1  0
 21 10  1  0
 22 21  2  0
 24 23  1  6
 24 26  1  0
 25 24  1  0
 27 26  1  6
 27 28  1  0
 28 21  1  0
 29 30  1  0
 29 27  1  0
 31 29  2  0
M  END
$$$$
