DWL.pdb
     RDKit          3D

 31 32  0  0  1  0  0  0  0  0999 V2000
   27.6134  -21.5280  -17.7982 N   0  0  0  0  0  0  0  0  0  0  0  0
   26.8082  -20.5021  -17.2111 C   0  0  1  0  0  0  0  0  0  0  0  0
   25.4018  -20.4770  -17.8332 C   0  0  0  0  0  0  0  0  0  0  0  0
   24.9423  -19.0962  -18.0985 C   0  0  0  0  0  0  0  0  0  0  0  0
   25.7380  -18.1819  -18.4161 O   0  0  0  0  0  0  0  0  0  0  0  0
   26.6132  -20.8063  -15.7694 C   0  0  0  0  0  0  0  0  0  0  0  0
   26.1316  -21.9468  -15.4748 O   0  0  0  0  0  0  0  0  0  0  0  0
   23.5810  -18.7622  -18.0020 O   0  0  0  0  0  0  0  0  0  0  0  0
   26.9413  -19.8802  -14.7451 N   0  0  0  0  0  0  0  0  0  0  0  0
   26.7149  -20.1818  -13.3583 C   0  0  1  0  0  0  0  0  0  0  0  0
   27.6647  -19.4563  -12.4207 C   0  0  0  0  0  0  0  0  0  0  0  0
   27.8358  -20.2389  -11.1767 C   0  0  0  0  0  0  0  0  0  0  0  0
   28.5299  -21.4441  -11.1297 C   0  0  0  0  0  0  0  0  0  0  0  0
   28.5264  -21.8740   -9.8750 N   0  0  0  0  0  0  0  0  0  0  0  0
   27.8634  -21.0154   -9.0830 C   0  0  0  0  0  0  0  0  0  0  0  0
   27.6150  -21.0688   -7.7366 C   0  0  0  0  0  0  0  0  0  0  0  0
   26.8903  -20.0398   -7.1673 C   0  0  0  0  0  0  0  0  0  0  0  0
   26.4547  -19.0151   -7.9778 C   0  0  0  0  0  0  0  0  0  0  0  0
   26.7154  -18.9737   -9.3486 C   0  0  0  0  0  0  0  0  0  0  0  0
   27.4357  -19.9989   -9.9018 C   0  0  0  0  0  0  0  0  0  0  0  0
   25.3093  -19.9561  -13.0109 C   0  0  0  0  0  0  0  0  0  0  0  0
   24.7823  -18.8505  -13.3815 O   0  0  0  0  0  0  0  0  0  0  0  0
   22.0494  -20.9001  -15.4935 C   0  0  0  0  0  0  0  0  0  0  0  0
   22.4235  -21.4204  -14.0984 C   0  0  2  0  0  0  0  0  0  0  0  0
   21.5798  -22.6084  -13.7706 C   0  0  0  0  0  0  0  0  0  0  0  0
   22.3077  -20.2918  -13.1269 C   0  0  0  0  0  0  0  0  0  0  0  0
   23.1212  -20.4355  -11.8743 C   0  0  2  0  0  0  0  0  0  0  0  0
   24.4665  -20.8454  -12.3006 N   0  0  0  0  0  0  0  0  0  0  0  0
   22.5602  -21.2707  -10.8256 C   0  0  0  0  0  0  0  0  0  0  0  0
   23.3619  -22.2793  -10.2929 O   0  0  0  0  0  0  0  0  0  0  0  0
   21.4112  -21.1796  -10.3418 O   0  0  0  0  0  0  0  0  0  0  0  0
  2  1  1  6
  2  3  1  0
  3  4  1  0
  4  8  1  0
  5  4  2  0
  6  7  2  0
  6  2  1  0
  9  6  1  0
 10  9  1  0
 10 11  1  1
 11 12  1  0
 12 13  2  0
 12 20  1  0
 13 14  1  0
 14 15  1  0
 15 16  2  0
 16 17  1  0
 18 17  2  0
 19 18  1  0
 20 19  2  0
 20 15  1  0
 21 10  1  0
 22 21  2  0
 24 23  1  6
 24 26  1  0
 25 24  1  0
 27 26  1  6
 27 28  1  0
 28 21  1  0
 29 30  1  0
 29 27  1  0
 31 29  2  0
M  END
$$$$
