TDF.pdb
     RDKit          3D

 27 27  0  0  1  0  0  0  0  0999 V2000
   18.3381  -10.3398  -15.7816 C   0  0  0  0  0  0  0  0  0  0  0  0
   19.4213  -11.3491  -15.9875 C   0  0  1  0  0  0  0  0  0  0  0  0
   18.9347  -12.6341  -15.7830 O   0  0  0  0  0  0  0  0  0  0  0  0
   20.0825  -11.2163  -17.3509 C   0  0  2  0  0  0  0  0  0  0  0  0
   21.0442  -12.2800  -17.5597 N   0  0  0  0  0  0  0  0  0  0  0  0
   20.6871   -9.8817  -17.5238 C   0  0  0  0  0  0  0  0  0  0  0  0
   21.8662   -9.6885  -17.1356 O   0  0  0  0  0  0  0  0  0  0  0  0
   20.0216   -8.7758  -18.1086 N   0  0  0  0  0  0  0  0  0  0  0  0
   20.5691   -7.4313  -18.1888 C   0  0  1  0  0  0  0  0  0  0  0  0
   19.8879   -6.6473  -19.2912 C   0  0  0  0  0  0  0  0  0  0  0  0
   20.2424   -7.1692  -20.6291 C   0  0  0  0  0  0  0  0  0  0  0  0
   21.4585   -7.2186  -21.0170 O   0  0  0  0  0  0  0  0  0  0  0  0
   20.4411   -6.6882  -16.9354 C   0  0  0  0  0  0  0  0  0  0  0  0
   19.4174   -6.8129  -16.2348 O   0  0  0  0  0  0  0  0  0  0  0  0
   19.2414   -7.6063  -21.4632 O   0  0  0  0  0  0  0  0  0  0  0  0
   21.5034   -5.8312  -16.5441 N   0  0  0  0  0  0  0  0  0  0  0  0
   21.4919   -5.1259  -15.2760 C   0  0  1  0  0  0  0  0  0  0  0  0
   22.7316   -5.4858  -14.5096 C   0  0  0  0  0  0  0  0  0  0  0  0
   22.8306   -6.9292  -14.2187 C   0  0  0  0  0  0  0  0  0  0  0  0
   23.6867   -7.7608  -14.9047 C   0  0  0  0  0  0  0  0  0  0  0  0
   23.7891   -9.1089  -14.6447 C   0  0  0  0  0  0  0  0  0  0  0  0
   22.9807   -9.6263  -13.6393 C   0  0  0  0  0  0  0  0  0  0  0  0
   22.1315   -8.8091  -12.9572 C   0  0  0  0  0  0  0  0  0  0  0  0
   22.0472   -7.4719  -13.2336 C   0  0  0  0  0  0  0  0  0  0  0  0
   21.4112   -3.6667  -15.4495 C   0  0  0  0  0  0  0  0  0  0  0  0
   21.4649   -3.1440  -16.5894 O   0  0  0  0  0  0  0  0  0  0  0  0
   21.2725   -2.8223  -14.3602 O   0  0  0  0  0  0  0  0  0  0  0  0
  2  1  1  6
  2  3  1  0
  4  2  1  0
  4  5  1  1
  6  7  2  0
  6  4  1  0
  8  6  1  0
  9 10  1  6
  9  8  1  0
 11 15  1  0
 11 10  1  0
 12 11  2  0
 13  9  1  0
 14 13  2  0
 16 13  1  0
 17 16  1  0
 18 19  1  0
 17 18  1  6
 19 20  2  0
 20 21  1  0
 22 21  2  0
 23 22  1  0
 24 19  1  0
 24 23  2  0
 25 27  1  0
 25 17  1  0
 26 25  2  0
M  END
$$$$
