TDF.pdb
     RDKit          3D

 27 27  0  0  1  0  0  0  0  0999 V2000
   29.4745  -22.9157  -17.6308 C   0  0  0  0  0  0  0  0  0  0  0  0
   28.5802  -22.2179  -16.6573 C   0  0  1  0  0  0  0  0  0  0  0  0
   29.0546  -20.9399  -16.3901 O   0  0  0  0  0  0  0  0  0  0  0  0
   27.1326  -22.1866  -17.1233 C   0  0  2  0  0  0  0  0  0  0  0  0
   27.0436  -21.7038  -18.4867 N   0  0  0  0  0  0  0  0  0  0  0  0
   26.2914  -21.3997  -16.2015 C   0  0  0  0  0  0  0  0  0  0  0  0
   25.5732  -20.4782  -16.6632 O   0  0  0  0  0  0  0  0  0  0  0  0
   26.2317  -21.6108  -14.8014 N   0  0  0  0  0  0  0  0  0  0  0  0
   25.1100  -21.2332  -13.9571 C   0  0  1  0  0  0  0  0  0  0  0  0
   23.8273  -21.8511  -14.4737 C   0  0  0  0  0  0  0  0  0  0  0  0
   22.6675  -21.4788  -13.6345 C   0  0  0  0  0  0  0  0  0  0  0  0
   22.5649  -20.3088  -13.1323 O   0  0  0  0  0  0  0  0  0  0  0  0
   25.2913  -21.6255  -12.5596 C   0  0  0  0  0  0  0  0  0  0  0  0
   25.3122  -22.8317  -12.2451 O   0  0  0  0  0  0  0  0  0  0  0  0
   21.6878  -22.4127  -13.3954 O   0  0  0  0  0  0  0  0  0  0  0  0
   25.4410  -20.6054  -11.5834 N   0  0  0  0  0  0  0  0  0  0  0  0
   25.9836  -20.8792  -10.2657 C   0  0  1  0  0  0  0  0  0  0  0  0
   27.1001  -19.9140   -9.9908 C   0  0  0  0  0  0  0  0  0  0  0  0
   27.6543  -20.0464   -8.6295 C   0  0  0  0  0  0  0  0  0  0  0  0
   28.6415  -20.9554   -8.3223 C   0  0  0  0  0  0  0  0  0  0  0  0
   29.1673  -21.0904   -7.0571 C   0  0  0  0  0  0  0  0  0  0  0  0
   28.6606  -20.2588   -6.0653 C   0  0  0  0  0  0  0  0  0  0  0  0
   27.6839  -19.3577   -6.3626 C   0  0  0  0  0  0  0  0  0  0  0  0
   27.1767  -19.2419   -7.6279 C   0  0  0  0  0  0  0  0  0  0  0  0
   24.9623  -20.7837   -9.2104 C   0  0  0  0  0  0  0  0  0  0  0  0
   25.0957  -21.3913   -8.1202 O   0  0  0  0  0  0  0  0  0  0  0  0
   23.8204  -20.0192   -9.3856 O   0  0  0  0  0  0  0  0  0  0  0  0
  2  1  1  6
  2  3  1  0
  4  2  1  0
  4  5  1  6
  6  7  2  0
  6  4  1  0
  8  6  1  0
  9 10  1  6
  9  8  1  0
 11 15  1  0
 11 10  1  0
 12 11  2  0
 13  9  1  0
 14 13  2  0
 16 13  1  0
 17 16  1  0
 18 19  1  0
 17 18  1  1
 19 20  2  0
 20 21  1  0
 22 21  2  0
 23 22  1  0
 24 19  1  0
 24 23  2  0
 25 27  1  0
 25 17  1  0
 26 25  2  0
M  END
$$$$
