TDF.pdb
     RDKit          3D

 27 27  0  0  1  0  0  0  0  0999 V2000
   30.9883  -36.2056   -7.3265 C   0  0  0  0  0  0  0  0  0  0  0  0
   29.8234  -35.3299   -7.6594 C   0  0  1  0  0  0  0  0  0  0  0  0
   29.8279  -35.0064   -9.0103 O   0  0  0  0  0  0  0  0  0  0  0  0
   28.4983  -35.9485   -7.2411 C   0  0  2  0  0  0  0  0  0  0  0  0
   27.3896  -35.1100   -7.6504 N   0  0  0  0  0  0  0  0  0  0  0  0
   28.4737  -36.2307   -5.7932 C   0  0  0  0  0  0  0  0  0  0  0  0
   27.9037  -35.4202   -5.0208 O   0  0  0  0  0  0  0  0  0  0  0  0
   29.0587  -37.3742   -5.1948 N   0  0  0  0  0  0  0  0  0  0  0  0
   29.0254  -37.6690   -3.7714 C   0  0  1  0  0  0  0  0  0  0  0  0
   29.1713  -39.1580   -3.5358 C   0  0  0  0  0  0  0  0  0  0  0  0
   28.9756  -39.5054   -2.1114 C   0  0  0  0  0  0  0  0  0  0  0  0
   28.3616  -38.7148   -1.3179 O   0  0  0  0  0  0  0  0  0  0  0  0
   30.0677  -36.9698   -3.0201 C   0  0  0  0  0  0  0  0  0  0  0  0
   31.2704  -37.1978   -3.2567 O   0  0  0  0  0  0  0  0  0  0  0  0
   29.4656  -40.7002   -1.6410 O   0  0  0  0  0  0  0  0  0  0  0  0
   29.6752  -36.0352   -2.0259 N   0  0  0  0  0  0  0  0  0  0  0  0
   30.6474  -35.3026   -1.2361 C   0  0  1  0  0  0  0  0  0  0  0  0
   30.6587  -33.8708   -1.6871 C   0  0  0  0  0  0  0  0  0  0  0  0
   31.3519  -33.6779   -2.9756 C   0  0  0  0  0  0  0  0  0  0  0  0
   32.7126  -33.8379   -3.1101 C   0  0  0  0  0  0  0  0  0  0  0  0
   33.3726  -33.6608   -4.3052 C   0  0  0  0  0  0  0  0  0  0  0  0
   32.6060  -33.3051   -5.4089 C   0  0  0  0  0  0  0  0  0  0  0  0
   31.2597  -33.1450   -5.2825 C   0  0  0  0  0  0  0  0  0  0  0  0
   30.6259  -33.3266   -4.0837 C   0  0  0  0  0  0  0  0  0  0  0  0
   30.3639  -35.3756    0.2062 C   0  0  0  0  0  0  0  0  0  0  0  0
   29.3653  -35.9992    0.6413 O   0  0  0  0  0  0  0  0  0  0  0  0
   31.1907  -34.7589    1.1309 O   0  0  0  0  0  0  0  0  0  0  0  0
  2  1  1  6
  2  3  1  0
  4  2  1  0
  4  5  1  1
  6  7  2  0
  6  4  1  0
  8  6  1  0
  9 10  1  6
  9  8  1  0
 11 15  1  0
 11 10  1  0
 12 11  2  0
 13  9  1  0
 14 13  2  0
 16 13  1  0
 17 16  1  0
 18 19  1  0
 17 18  1  6
 19 20  2  0
 20 21  1  0
 22 21  2  0
 23 22  1  0
 24 19  1  0
 24 23  2  0
 25 27  1  0
 25 17  1  0
 26 25  2  0
M  END
$$$$
