TDF.pdb
     RDKit          3D

 27 27  0  0  1  0  0  0  0  0999 V2000
   18.1833  -11.9499  -14.8855 C   0  0  0  0  0  0  0  0  0  0  0  0
   17.7838  -12.2328  -16.2979 C   0  0  1  0  0  0  0  0  0  0  0  0
   17.0400  -13.4039  -16.3683 O   0  0  0  0  0  0  0  0  0  0  0  0
   17.0432  -11.0657  -16.9330 C   0  0  2  0  0  0  0  0  0  0  0  0
   16.5254  -11.4352  -18.2351 N   0  0  0  0  0  0  0  0  0  0  0  0
   17.8956   -9.8633  -16.9971 C   0  0  0  0  0  0  0  0  0  0  0  0
   18.8022   -9.8007  -17.8646 O   0  0  0  0  0  0  0  0  0  0  0  0
   17.7650   -8.7477  -16.1331 N   0  0  0  0  0  0  0  0  0  0  0  0
   18.6701   -7.6100  -16.1118 C   0  0  1  0  0  0  0  0  0  0  0  0
   18.0206   -6.4300  -15.4192 C   0  0  0  0  0  0  0  0  0  0  0  0
   16.8394   -5.9439  -16.1652 C   0  0  0  0  0  0  0  0  0  0  0  0
   16.8916   -5.7439  -17.4257 O   0  0  0  0  0  0  0  0  0  0  0  0
   19.9398   -7.9043  -15.4477 C   0  0  0  0  0  0  0  0  0  0  0  0
   19.9492   -8.3550  -14.2853 O   0  0  0  0  0  0  0  0  0  0  0  0
   15.6698   -5.7055  -15.4839 O   0  0  0  0  0  0  0  0  0  0  0  0
   21.1467   -7.6650  -16.1564 N   0  0  0  0  0  0  0  0  0  0  0  0
   22.4460   -7.9430  -15.5733 C   0  0  1  0  0  0  0  0  0  0  0  0
   23.1412   -8.9783  -16.4091 C   0  0  0  0  0  0  0  0  0  0  0  0
   24.4988   -9.2939  -15.9241 C   0  0  0  0  0  0  0  0  0  0  0  0
   24.7205  -10.1077  -14.8361 C   0  0  0  0  0  0  0  0  0  0  0  0
   25.9809  -10.4102  -14.3721 C   0  0  0  0  0  0  0  0  0  0  0  0
   27.0593   -9.8559  -15.0519 C   0  0  0  0  0  0  0  0  0  0  0  0
   26.8467   -9.0499  -16.1287 C   0  0  0  0  0  0  0  0  0  0  0  0
   25.5842   -8.7636  -16.5713 C   0  0  0  0  0  0  0  0  0  0  0  0
   23.2806   -6.7355  -15.4678 C   0  0  0  0  0  0  0  0  0  0  0  0
   23.2506   -5.8456  -16.3526 O   0  0  0  0  0  0  0  0  0  0  0  0
   24.1260   -6.5410  -14.3878 O   0  0  0  0  0  0  0  0  0  0  0  0
  2  1  1  1
  2  3  1  0
  4  2  1  0
  4  5  1  6
  6  7  2  0
  6  4  1  0
  8  6  1  0
  9 10  1  1
  9  8  1  0
 11 15  1  0
 11 10  1  0
 12 11  2  0
 13  9  1  0
 14 13  2  0
 16 13  1  0
 17 16  1  0
 18 19  1  0
 17 18  1  6
 19 20  2  0
 20 21  1  0
 22 21  2  0
 23 22  1  0
 24 19  1  0
 24 23  2  0
 25 27  1  0
 25 17  1  0
 26 25  2  0
M  END
$$$$
