TDF.pdb
     RDKit          3D

 27 27  0  0  1  0  0  0  0  0999 V2000
   29.0020  -21.1082  -18.5206 C   0  0  0  0  0  0  0  0  0  0  0  0
   28.1152  -20.7189  -17.3819 C   0  0  1  0  0  0  0  0  0  0  0  0
   28.5281  -19.5109  -16.8342 O   0  0  0  0  0  0  0  0  0  0  0  0
   26.6483  -20.6746  -17.7819 C   0  0  2  0  0  0  0  0  0  0  0  0
   26.4489  -19.7736  -18.8992 N   0  0  0  0  0  0  0  0  0  0  0  0
   25.7912  -20.3286  -16.6320 C   0  0  0  0  0  0  0  0  0  0  0  0
   25.5665  -19.1190  -16.3777 O   0  0  0  0  0  0  0  0  0  0  0  0
   25.1885  -21.2810  -15.7730 N   0  0  0  0  0  0  0  0  0  0  0  0
   24.4437  -20.9513  -14.5686 C   0  0  1  0  0  0  0  0  0  0  0  0
   23.0652  -21.5771  -14.6110 C   0  0  0  0  0  0  0  0  0  0  0  0
   22.2727  -21.2296  -13.4113 C   0  0  0  0  0  0  0  0  0  0  0  0
   22.1310  -20.0146  -13.0434 O   0  0  0  0  0  0  0  0  0  0  0  0
   25.1188  -21.3832  -13.3450 C   0  0  0  0  0  0  0  0  0  0  0  0
   25.5610  -22.5450  -13.2502 O   0  0  0  0  0  0  0  0  0  0  0  0
   21.6821  -22.2361  -12.6853 O   0  0  0  0  0  0  0  0  0  0  0  0
   25.2546  -20.4526  -12.2813 N   0  0  0  0  0  0  0  0  0  0  0  0
   25.8564  -20.8204  -11.0131 C   0  0  1  0  0  0  0  0  0  0  0  0
   26.9665  -19.8577  -10.7057 C   0  0  0  0  0  0  0  0  0  0  0  0
   27.5849  -20.0934   -9.3866 C   0  0  0  0  0  0  0  0  0  0  0  0
   28.5867  -21.0186   -9.1986 C   0  0  0  0  0  0  0  0  0  0  0  0
   29.1723  -21.2495   -7.9742 C   0  0  0  0  0  0  0  0  0  0  0  0
   28.7121  -20.5005   -6.8974 C   0  0  0  0  0  0  0  0  0  0  0  0
   27.7211  -19.5839   -7.0766 C   0  0  0  0  0  0  0  0  0  0  0  0
   27.1543  -19.3721   -8.3037 C   0  0  0  0  0  0  0  0  0  0  0  0
   24.8784  -20.8314   -9.9134 C   0  0  0  0  0  0  0  0  0  0  0  0
   23.8210  -20.1581   -9.9775 O   0  0  0  0  0  0  0  0  0  0  0  0
   25.0926  -21.5861   -8.7717 O   0  0  0  0  0  0  0  0  0  0  0  0
  2  1  1  6
  2  3  1  0
  4  2  1  0
  4  5  1  6
  6  7  2  0
  6  4  1  0
  8  6  1  0
  9 10  1  6
  9  8  1  0
 11 15  1  0
 11 10  1  0
 12 11  2  0
 13  9  1  0
 14 13  2  0
 16 13  1  0
 17 16  1  0
 18 19  1  0
 17 18  1  1
 19 20  2  0
 20 21  1  0
 22 21  2  0
 23 22  1  0
 24 19  1  0
 24 23  2  0
 25 27  1  0
 25 17  1  0
 26 25  2  0
M  END
$$$$
