TDF.pdb
     RDKit          3D

 27 27  0  0  1  0  0  0  0  0999 V2000
   28.3187  -17.4465  -16.5539 C   0  0  0  0  0  0  0  0  0  0  0  0
   27.3897  -17.7453  -15.4217 C   0  0  1  0  0  0  0  0  0  0  0  0
   26.1199  -18.0438  -15.8996 O   0  0  0  0  0  0  0  0  0  0  0  0
   27.9169  -18.8500  -14.5187 C   0  0  2  0  0  0  0  0  0  0  0  0
   28.0972  -20.0792  -15.2647 N   0  0  0  0  0  0  0  0  0  0  0  0
   27.0470  -19.0391  -13.3421 C   0  0  0  0  0  0  0  0  0  0  0  0
   26.7691  -18.0491  -12.6205 O   0  0  0  0  0  0  0  0  0  0  0  0
   26.4887  -20.2831  -12.9564 N   0  0  0  0  0  0  0  0  0  0  0  0
   25.5966  -20.4716  -11.8239 C   0  0  1  0  0  0  0  0  0  0  0  0
   24.5562  -21.5262  -12.1396 C   0  0  0  0  0  0  0  0  0  0  0  0
   23.4645  -20.9805  -12.9753 C   0  0  0  0  0  0  0  0  0  0  0  0
   22.4787  -21.7105  -13.3318 O   0  0  0  0  0  0  0  0  0  0  0  0
   26.3012  -20.8575  -10.6015 C   0  0  0  0  0  0  0  0  0  0  0  0
   27.1666  -21.7544  -10.6337 O   0  0  0  0  0  0  0  0  0  0  0  0
   23.5186  -19.6654  -13.3710 O   0  0  0  0  0  0  0  0  0  0  0  0
   25.9755  -20.1892   -9.3919 N   0  0  0  0  0  0  0  0  0  0  0  0
   26.5695  -20.5675   -8.1231 C   0  0  1  0  0  0  0  0  0  0  0  0
   27.3609  -19.4071   -7.5930 C   0  0  0  0  0  0  0  0  0  0  0  0
   27.9842  -19.6845   -6.2844 C   0  0  0  0  0  0  0  0  0  0  0  0
   29.0804  -20.5066   -6.1512 C   0  0  0  0  0  0  0  0  0  0  0  0
   29.6717  -20.7749   -4.9373 C   0  0  0  0  0  0  0  0  0  0  0  0
   29.1168  -20.1753   -3.8128 C   0  0  0  0  0  0  0  0  0  0  0  0
   28.0323  -19.3613   -3.9376 C   0  0  0  0  0  0  0  0  0  0  0  0
   27.4617  -19.1096   -5.1553 C   0  0  0  0  0  0  0  0  0  0  0  0
   25.5603  -20.9835   -7.1361 C   0  0  0  0  0  0  0  0  0  0  0  0
   24.3518  -20.6727   -7.2721 O   0  0  0  0  0  0  0  0  0  0  0  0
   25.9111  -21.7327   -6.0250 O   0  0  0  0  0  0  0  0  0  0  0  0
  2  1  1  6
  2  3  1  0
  4  2  1  0
  4  5  1  6
  6  7  2  0
  6  4  1  0
  8  6  1  0
  9 10  1  6
  9  8  1  0
 11 15  1  0
 11 10  1  0
 12 11  2  0
 13  9  1  0
 14 13  2  0
 16 13  1  0
 17 16  1  0
 18 19  1  0
 17 18  1  1
 19 20  2  0
 20 21  1  0
 22 21  2  0
 23 22  1  0
 24 19  1  0
 24 23  2  0
 25 27  1  0
 25 17  1  0
 26 25  2  0
M  END
$$$$
