TDF.pdb
     RDKit          3D

 27 27  0  0  1  0  0  0  0  0999 V2000
   28.9598  -23.4169  -16.8609 C   0  0  0  0  0  0  0  0  0  0  0  0
   28.1755  -22.7415  -15.7824 C   0  0  1  0  0  0  0  0  0  0  0  0
   29.0167  -22.3172  -14.7616 O   0  0  0  0  0  0  0  0  0  0  0  0
   27.3283  -21.5963  -16.3158 C   0  0  2  0  0  0  0  0  0  0  0  0
   28.1491  -20.6444  -17.0370 N   0  0  0  0  0  0  0  0  0  0  0  0
   26.5563  -20.9543  -15.2348 C   0  0  0  0  0  0  0  0  0  0  0  0
   26.8878  -19.8076  -14.8432 O   0  0  0  0  0  0  0  0  0  0  0  0
   25.4428  -21.5484  -14.5904 N   0  0  0  0  0  0  0  0  0  0  0  0
   24.7023  -20.9418  -13.4961 C   0  0  1  0  0  0  0  0  0  0  0  0
   23.2289  -21.2755  -13.6051 C   0  0  0  0  0  0  0  0  0  0  0  0
   22.4448  -20.6356  -12.5264 C   0  0  0  0  0  0  0  0  0  0  0  0
   22.6689  -19.4281  -12.1751 O   0  0  0  0  0  0  0  0  0  0  0  0
   25.1835  -21.3623  -12.1802 C   0  0  0  0  0  0  0  0  0  0  0  0
   25.3540  -22.5723  -11.9328 O   0  0  0  0  0  0  0  0  0  0  0  0
   21.4605  -21.3586  -11.8960 O   0  0  0  0  0  0  0  0  0  0  0  0
   25.4476  -20.3650  -11.2048 N   0  0  0  0  0  0  0  0  0  0  0  0
   25.9958  -20.6932   -9.9019 C   0  0  1  0  0  0  0  0  0  0  0  0
   26.8804  -19.5675   -9.4503 C   0  0  0  0  0  0  0  0  0  0  0  0
   27.4765  -19.8008   -8.1206 C   0  0  0  0  0  0  0  0  0  0  0  0
   28.5285  -20.6676   -7.9279 C   0  0  0  0  0  0  0  0  0  0  0  0
   29.0940  -20.8956   -6.6935 C   0  0  0  0  0  0  0  0  0  0  0  0
   28.5593  -20.2061   -5.6115 C   0  0  0  0  0  0  0  0  0  0  0  0
   27.5185  -19.3476   -5.7953 C   0  0  0  0  0  0  0  0  0  0  0  0
   26.9729  -19.1373   -7.0322 C   0  0  0  0  0  0  0  0  0  0  0  0
   24.9459  -20.9431   -8.9013 C   0  0  0  0  0  0  0  0  0  0  0  0
   25.1568  -21.6823   -7.9090 O   0  0  0  0  0  0  0  0  0  0  0  0
   23.6906  -20.3699   -9.0216 O   0  0  0  0  0  0  0  0  0  0  0  0
  2  1  1  6
  2  3  1  0
  4  2  1  0
  4  5  1  1
  6  7  2  0
  6  4  1  0
  8  6  1  0
  9 10  1  6
  9  8  1  0
 11 15  1  0
 11 10  1  0
 12 11  2  0
 13  9  1  0
 14 13  2  0
 16 13  1  0
 17 16  1  0
 18 19  1  0
 17 18  1  1
 19 20  2  0
 20 21  1  0
 22 21  2  0
 23 22  1  0
 24 19  1  0
 24 23  2  0
 25 27  1  0
 25 17  1  0
 26 25  2  0
M  END
$$$$
