RCC.pdb
     RDKit          3D

 24 23  0  0  1  0  0  0  0  0999 V2000
    3.0763  -22.4316   22.3944 N   0  0  0  0  0  0  0  0  0  0  0  0
    4.0957  -23.1704   23.0423 C   0  0  0  0  0  0  0  0  0  0  0  0
    4.4552  -24.3252   22.5915 N   0  0  0  0  0  0  0  0  0  0  0  0
    4.7192  -22.6419   24.1969 N   0  0  0  0  0  0  0  0  0  0  0  0
    5.5115  -21.4547   24.1634 C   0  0  0  0  0  0  0  0  0  0  0  0
    6.7719  -21.5748   23.3619 C   0  0  0  0  0  0  0  0  0  0  0  0
    7.5832  -20.3382   23.3735 C   0  0  0  0  0  0  0  0  0  0  0  0
    7.0773  -19.2554   22.4125 C   0  0  2  0  0  0  0  0  0  0  0  0
    6.9300  -19.8601   21.0957 N   0  0  0  0  0  0  0  0  0  0  0  0
    7.9078  -18.0541   22.3895 C   0  0  0  0  0  0  0  0  0  0  0  0
    8.5054  -17.7249   21.3503 O   0  0  0  0  0  0  0  0  0  0  0  0
    5.1857  -24.8670   23.0674 N   0  0  0  0  0  0  0  0  0  0  0  0
    8.0969  -17.1920   23.5074 C   0  0  2  0  0  0  0  0  0  0  0  0
    8.3334  -15.7981   23.4128 C   0  0  0  0  0  0  0  0  0  0  0  0
    7.4858  -15.0807   22.4025 S   0  0  0  0  0  0  0  0  0  0  0  0
    7.8702  -13.3417   22.2165 C   0  0  0  0  0  0  0  0  0  0  0  0
    8.2074  -15.1262   24.7448 O   0  0  0  0  0  0  0  0  0  0  0  0
    7.3764  -14.1876   24.8510 N   0  0  0  0  0  0  0  0  0  0  0  0
    8.9744  -15.4992   25.8728 C   0  0  1  0  0  0  0  0  0  0  0  0
    9.6306  -14.5275   26.7491 C   0  0  0  0  0  0  0  0  0  0  0  0
    8.6000  -13.6543   27.4388 S   0  0  0  0  0  0  0  0  0  0  0  0
    9.2592  -12.9197   28.9544 C   0  0  0  0  0  0  0  0  0  0  0  0
   10.3502  -15.2769   27.8069 O   0  0  0  0  0  0  0  0  0  0  0  0
   10.2906  -16.6769   27.8686 O   0  0  0  0  0  0  0  0  0  0  0  0
  1  2  1  0
  2  4  1  0
  3  2  2  0
  4  5  1  0
  6  7  1  0
  6  5  1  0
  7  8  1  0
  8 10  1  0
  8  9  1  6
 10 12  1  0
 11 10  2  0
 12 13  1  0
 13 16  1  0
 13 14  1  6
 14 15  1  0
 16 18  1  0
 16 17  2  0
 18 19  1  0
 19 22  1  0
 19 20  1  6
 21 20  1  0
 22 23  1  0
 24 22  2  0
M  END
$$$$
