RCC.pdb
     RDKit          3D

 24 23  0  0  1  0  0  0  0  0999 V2000
   11.9685  -17.2010   15.8406 N   0  0  0  0  0  0  0  0  0  0  0  0
   12.4281  -18.5308   15.9983 C   0  0  0  0  0  0  0  0  0  0  0  0
   13.2429  -19.0484   15.1413 N   0  0  0  0  0  0  0  0  0  0  0  0
   11.9847  -19.3004   17.0994 N   0  0  0  0  0  0  0  0  0  0  0  0
   11.0931  -18.7816   18.0863 C   0  0  0  0  0  0  0  0  0  0  0  0
   11.3125  -17.3373   18.4199 C   0  0  0  0  0  0  0  0  0  0  0  0
   10.3179  -16.8088   19.3785 C   0  0  0  0  0  0  0  0  0  0  0  0
    9.6202  -17.8928   20.2092 C   0  0  2  0  0  0  0  0  0  0  0  0
    8.2531  -18.0178   19.7228 N   0  0  0  0  0  0  0  0  0  0  0  0
    9.6853  -17.6630   21.6502 C   0  0  0  0  0  0  0  0  0  0  0  0
    9.8656  -16.5161   22.0946 O   0  0  0  0  0  0  0  0  0  0  0  0
   13.6370  -19.9838   15.2946 N   0  0  0  0  0  0  0  0  0  0  0  0
    9.5530  -18.6885   22.6297 C   0  0  1  0  0  0  0  0  0  0  0  0
    9.4291  -18.4553   24.0218 C   0  0  0  0  0  0  0  0  0  0  0  0
    8.2509  -17.6139   24.4189 S   0  0  0  0  0  0  0  0  0  0  0  0
    7.5479  -18.0314   26.0120 C   0  0  0  0  0  0  0  0  0  0  0  0
    9.4174  -19.7365   24.7963 O   0  0  0  0  0  0  0  0  0  0  0  0
    8.7736  -20.7051   24.3166 N   0  0  0  0  0  0  0  0  0  0  0  0
   10.0918  -19.8994   26.0287 C   0  0  1  0  0  0  0  0  0  0  0  0
   11.2796  -20.7406   26.1840 C   0  0  0  0  0  0  0  0  0  0  0  0
   12.4195  -20.2109   25.3351 S   0  0  0  0  0  0  0  0  0  0  0  0
   13.8959  -21.2445   25.4861 C   0  0  0  0  0  0  0  0  0  0  0  0
   11.7136  -20.6640   27.5997 O   0  0  0  0  0  0  0  0  0  0  0  0
   12.6458  -21.5737   28.1200 O   0  0  0  0  0  0  0  0  0  0  0  0
  1  2  1  0
  2  4  1  0
  3  2  2  0
  4  5  1  0
  6  7  1  0
  6  5  1  0
  7  8  1  0
  8 10  1  0
  8  9  1  6
 10 12  1  0
 11 10  2  0
 12 13  1  0
 13 16  1  0
 13 14  1  1
 14 15  1  0
 16 18  1  0
 16 17  2  0
 18 19  1  0
 19 22  1  0
 19 20  1  1
 21 20  1  0
 22 23  1  0
 24 22  2  0
M  END
$$$$
