RCC.pdb
     RDKit          3D

 24 23  0  0  1  0  0  0  0  0999 V2000
    8.5255  -11.8226   19.1961 N   0  0  0  0  0  0  0  0  0  0  0  0
    8.5998  -13.2199   18.9802 C   0  0  0  0  0  0  0  0  0  0  0  0
    8.6593  -13.6954   17.7816 N   0  0  0  0  0  0  0  0  0  0  0  0
    8.6010  -14.1017   20.0864 N   0  0  0  0  0  0  0  0  0  0  0  0
    8.1381  -15.4489   19.9919 C   0  0  0  0  0  0  0  0  0  0  0  0
    6.6496  -15.5854   19.8871 C   0  0  0  0  0  0  0  0  0  0  0  0
    6.0087  -15.9223   21.1768 C   0  0  0  0  0  0  0  0  0  0  0  0
    6.5052  -17.2366   21.7915 C   0  0  2  0  0  0  0  0  0  0  0  0
    5.7368  -18.3241   21.2015 N   0  0  0  0  0  0  0  0  0  0  0  0
    6.4724  -17.2528   23.2517 C   0  0  0  0  0  0  0  0  0  0  0  0
    5.4077  -17.4792   23.8522 O   0  0  0  0  0  0  0  0  0  0  0  0
    8.6919  -14.7090   17.6231 N   0  0  0  0  0  0  0  0  0  0  0  0
    7.6083  -17.0211   24.0791 C   0  0  2  0  0  0  0  0  0  0  0  0
    7.5795  -17.0161   25.4958 C   0  0  0  0  0  0  0  0  0  0  0  0
    7.7851  -18.3581   26.1366 S   0  0  0  0  0  0  0  0  0  0  0  0
    9.3687  -19.1133   25.7785 C   0  0  0  0  0  0  0  0  0  0  0  0
    8.5547  -16.0319   26.0632 O   0  0  0  0  0  0  0  0  0  0  0  0
    9.6778  -15.9320   25.5052 N   0  0  0  0  0  0  0  0  0  0  0  0
    8.2679  -15.2211   27.1858 C   0  0  1  0  0  0  0  0  0  0  0  0
    9.1925  -14.2077   27.6963 C   0  0  0  0  0  0  0  0  0  0  0  0
    8.4478  -13.1803   28.5271 S   0  0  0  0  0  0  0  0  0  0  0  0
    6.9544  -12.6024   27.6863 C   0  0  0  0  0  0  0  0  0  0  0  0
   10.1604  -14.8815   28.5949 O   0  0  0  0  0  0  0  0  0  0  0  0
   11.2506  -14.1842   29.1360 O   0  0  0  0  0  0  0  0  0  0  0  0
  1  2  1  0
  2  4  1  0
  3  2  2  0
  4  5  1  0
  6  7  1  0
  6  5  1  0
  7  8  1  0
  8 10  1  0
  8  9  1  6
 10 12  1  0
 11 10  2  0
 12 13  1  0
 13 16  1  0
 13 14  1  6
 14 15  1  0
 16 18  1  0
 16 17  2  0
 18 19  1  0
 19 22  1  0
 19 20  1  1
 21 20  1  0
 22 23  1  0
 24 22  2  0
M  END
$$$$
