RCC.pdb
     RDKit          3D

 24 23  0  0  1  0  0  0  0  0999 V2000
    7.3472  -12.6396   18.2707 N   0  0  0  0  0  0  0  0  0  0  0  0
    8.3145  -12.5888   19.3034 C   0  0  0  0  0  0  0  0  0  0  0  0
    8.5239  -11.4923   19.9514 N   0  0  0  0  0  0  0  0  0  0  0  0
    9.0622  -13.7467   19.6218 N   0  0  0  0  0  0  0  0  0  0  0  0
    8.6079  -15.0624   19.3046 C   0  0  0  0  0  0  0  0  0  0  0  0
    7.4742  -15.5472   20.1561 C   0  0  0  0  0  0  0  0  0  0  0  0
    7.1245  -16.9615   19.9009 C   0  0  0  0  0  0  0  0  0  0  0  0
    7.9941  -17.9639   20.6695 C   0  0  2  0  0  0  0  0  0  0  0  0
    7.5980  -19.3045   20.2608 N   0  0  0  0  0  0  0  0  0  0  0  0
    7.9579  -17.7845   22.1187 C   0  0  0  0  0  0  0  0  0  0  0  0
    6.9415  -18.0951   22.7636 O   0  0  0  0  0  0  0  0  0  0  0  0
    9.1790  -11.4699   20.7415 N   0  0  0  0  0  0  0  0  0  0  0  0
    9.0375  -17.2611   22.8862 C   0  0  2  0  0  0  0  0  0  0  0  0
    9.0281  -17.1313   24.2972 C   0  0  0  0  0  0  0  0  0  0  0  0
   10.2470  -17.6690   24.9892 S   0  0  0  0  0  0  0  0  0  0  0  0
   10.2826  -17.3784   26.7558 C   0  0  0  0  0  0  0  0  0  0  0  0
    8.7932  -15.7140   24.7186 O   0  0  0  0  0  0  0  0  0  0  0  0
    9.4725  -14.8159   24.1575 N   0  0  0  0  0  0  0  0  0  0  0  0
    7.8513  -15.3492   25.7085 C   0  0  1  0  0  0  0  0  0  0  0  0
    7.6917  -13.9769   26.1919 C   0  0  0  0  0  0  0  0  0  0  0  0
    6.2306  -13.6785   26.4687 S   0  0  0  0  0  0  0  0  0  0  0  0
    5.5953  -12.3919   25.3677 C   0  0  0  0  0  0  0  0  0  0  0  0
    8.4162  -13.8574   27.4800 O   0  0  0  0  0  0  0  0  0  0  0  0
    8.6365  -12.6050   28.0719 O   0  0  0  0  0  0  0  0  0  0  0  0
  1  2  1  0
  2  4  1  0
  3  2  2  0
  4  5  1  0
  6  7  1  0
  6  5  1  0
  7  8  1  0
  8 10  1  0
  8  9  1  1
 10 12  1  0
 11 10  2  0
 12 13  1  0
 13 16  1  0
 13 14  1  6
 14 15  1  0
 16 18  1  0
 16 17  2  0
 18 19  1  0
 19 22  1  0
 19 20  1  1
 21 20  1  0
 22 23  1  0
 24 22  2  0
M  END
$$$$
