RCC.pdb
     RDKit          3D

 24 23  0  0  1  0  0  0  0  0999 V2000
    7.8217  -13.0944   17.8469 N   0  0  0  0  0  0  0  0  0  0  0  0
    8.9817  -13.2073   18.6510 C   0  0  0  0  0  0  0  0  0  0  0  0
   10.1449  -12.9288   18.1656 N   0  0  0  0  0  0  0  0  0  0  0  0
    8.8653  -13.6360   19.9940 N   0  0  0  0  0  0  0  0  0  0  0  0
    8.3651  -14.9263   20.3450 C   0  0  0  0  0  0  0  0  0  0  0  0
    6.9475  -15.1745   19.9278 C   0  0  0  0  0  0  0  0  0  0  0  0
    6.1180  -15.7436   21.0121 C   0  0  0  0  0  0  0  0  0  0  0  0
    6.7043  -17.0141   21.6398 C   0  0  2  0  0  0  0  0  0  0  0  0
    6.1297  -18.1601   20.9486 N   0  0  0  0  0  0  0  0  0  0  0  0
    6.5330  -17.0878   23.0885 C   0  0  0  0  0  0  0  0  0  0  0  0
    5.4961  -17.5727   23.5733 O   0  0  0  0  0  0  0  0  0  0  0  0
   10.9873  -13.0179   18.7453 N   0  0  0  0  0  0  0  0  0  0  0  0
    7.4977  -16.6307   24.0314 C   0  0  2  0  0  0  0  0  0  0  0  0
    7.4151  -16.8450   25.4297 C   0  0  0  0  0  0  0  0  0  0  0  0
    7.1851  -18.2713   25.8376 S   0  0  0  0  0  0  0  0  0  0  0  0
    7.2449  -18.5534   27.6049 C   0  0  0  0  0  0  0  0  0  0  0  0
    8.6159  -16.3043   26.1419 O   0  0  0  0  0  0  0  0  0  0  0  0
    9.7190  -16.8772   25.9482 N   0  0  0  0  0  0  0  0  0  0  0  0
    8.5605  -15.1906   27.0118 C   0  0  1  0  0  0  0  0  0  0  0  0
    9.7445  -14.6226   27.6583 C   0  0  0  0  0  0  0  0  0  0  0  0
    9.4225  -13.2675   28.2586 S   0  0  0  0  0  0  0  0  0  0  0  0
    8.0947  -12.4383   27.3528 C   0  0  0  0  0  0  0  0  0  0  0  0
   10.1304  -15.5176   28.7756 O   0  0  0  0  0  0  0  0  0  0  0  0
   11.2635  -15.2499   29.5578 O   0  0  0  0  0  0  0  0  0  0  0  0
  1  2  1  0
  2  4  1  0
  3  2  2  0
  4  5  1  0
  6  7  1  0
  6  5  1  0
  7  8  1  0
  8 10  1  0
  8  9  1  6
 10 12  1  0
 11 10  2  0
 12 13  1  0
 13 16  1  0
 13 14  1  6
 14 15  1  0
 16 18  1  0
 16 17  2  0
 18 19  1  0
 19 22  1  0
 19 20  1  1
 21 20  1  0
 22 23  1  0
 24 22  2  0
M  END
$$$$
