RCC.pdb
     RDKit          3D

 24 23  0  0  1  0  0  0  0  0999 V2000
    8.1191  -18.5618   15.0557 N   0  0  0  0  0  0  0  0  0  0  0  0
    8.5437  -17.3797   14.4023 C   0  0  0  0  0  0  0  0  0  0  0  0
    8.2369  -17.1679   13.1665 N   0  0  0  0  0  0  0  0  0  0  0  0
    9.3165  -16.4273   15.1073 N   0  0  0  0  0  0  0  0  0  0  0  0
    9.7761  -16.6502   16.4404 C   0  0  0  0  0  0  0  0  0  0  0  0
    8.9314  -16.0117   17.5007 C   0  0  0  0  0  0  0  0  0  0  0  0
    8.6026  -14.6004   17.2045 C   0  0  0  0  0  0  0  0  0  0  0  0
    7.8309  -13.8947   18.3262 C   0  0  2  0  0  0  0  0  0  0  0  0
    7.5443  -12.5365   17.8855 N   0  0  0  0  0  0  0  0  0  0  0  0
    8.5062  -13.9348   19.6208 C   0  0  0  0  0  0  0  0  0  0  0  0
    9.5229  -13.2475   19.8189 O   0  0  0  0  0  0  0  0  0  0  0  0
    8.4905  -16.2843   12.7097 N   0  0  0  0  0  0  0  0  0  0  0  0
    8.0769  -14.7301   20.7216 C   0  0  2  0  0  0  0  0  0  0  0  0
    8.7519  -14.8075   21.9651 C   0  0  0  0  0  0  0  0  0  0  0  0
    7.8808  -14.6023   23.1705 S   0  0  0  0  0  0  0  0  0  0  0  0
    6.5024  -15.7391   23.2883 C   0  0  0  0  0  0  0  0  0  0  0  0
    9.5083  -16.0923   22.1025 O   0  0  0  0  0  0  0  0  0  0  0  0
    9.5991  -16.8299   21.0874 N   0  0  0  0  0  0  0  0  0  0  0  0
   10.1162  -16.5043   23.3111 C   0  0  1  0  0  0  0  0  0  0  0  0
   11.4252  -17.1570   23.3646 C   0  0  0  0  0  0  0  0  0  0  0  0
   12.5028  -16.2288   22.8378 S   0  0  0  0  0  0  0  0  0  0  0  0
   14.1491  -16.9580   23.0080 C   0  0  0  0  0  0  0  0  0  0  0  0
   11.7412  -17.4348   24.7864 O   0  0  0  0  0  0  0  0  0  0  0  0
   12.6482  -18.4441   25.1413 O   0  0  0  0  0  0  0  0  0  0  0  0
  1  2  1  0
  2  4  1  0
  3  2  2  0
  4  5  1  0
  6  7  1  0
  6  5  1  0
  7  8  1  0
  8 10  1  0
  8  9  1  6
 10 12  1  0
 11 10  2  0
 12 13  1  0
 13 16  1  0
 13 14  1  6
 14 15  1  0
 16 18  1  0
 16 17  2  0
 18 19  1  0
 19 22  1  0
 19 20  1  1
 21 20  1  0
 22 23  1  0
 24 22  2  0
M  END
$$$$
