RCC.pdb
     RDKit          3D

 24 23  0  0  1  0  0  0  0  0999 V2000
    3.4747  -20.2826   20.0199 N   0  0  0  0  0  0  0  0  0  0  0  0
    3.0586  -19.4794   21.1091 C   0  0  0  0  0  0  0  0  0  0  0  0
    1.9147  -19.6807   21.6723 N   0  0  0  0  0  0  0  0  0  0  0  0
    3.8999  -18.4434   21.5785 N   0  0  0  0  0  0  0  0  0  0  0  0
    4.7532  -17.6978   20.7101 C   0  0  0  0  0  0  0  0  0  0  0  0
    5.5586  -18.5362   19.7648 C   0  0  0  0  0  0  0  0  0  0  0  0
    7.0169  -18.3507   19.9279 C   0  0  0  0  0  0  0  0  0  0  0  0
    7.4694  -16.8879   19.8424 C   0  0  2  0  0  0  0  0  0  0  0  0
    8.0183  -16.6672   18.5116 N   0  0  0  0  0  0  0  0  0  0  0  0
    8.3929  -16.4946   20.9036 C   0  0  0  0  0  0  0  0  0  0  0  0
    9.6190  -16.6296   20.7495 O   0  0  0  0  0  0  0  0  0  0  0  0
    1.5962  -19.0758   22.4380 N   0  0  0  0  0  0  0  0  0  0  0  0
    7.9866  -15.9451   22.1532 C   0  0  2  0  0  0  0  0  0  0  0  0
    8.8760  -15.5733   23.1918 C   0  0  0  0  0  0  0  0  0  0  0  0
    8.2903  -14.6581   24.2276 S   0  0  0  0  0  0  0  0  0  0  0  0
    6.6055  -15.0490   24.6915 C   0  0  0  0  0  0  0  0  0  0  0  0
    9.4756  -16.7719   23.8592 O   0  0  0  0  0  0  0  0  0  0  0  0
    8.7638  -17.8045   23.9582 N   0  0  0  0  0  0  0  0  0  0  0  0
   10.7920  -16.7896   24.3758 C   0  0  1  0  0  0  0  0  0  0  0  0
   11.4203  -17.9945   24.9199 C   0  0  0  0  0  0  0  0  0  0  0  0
   12.8554  -18.1064   24.4421 S   0  0  0  0  0  0  0  0  0  0  0  0
   13.6372  -16.4815   24.3014 C   0  0  0  0  0  0  0  0  0  0  0  0
   11.4575  -17.8651   26.3964 O   0  0  0  0  0  0  0  0  0  0  0  0
   11.9735  -18.8930   27.1992 O   0  0  0  0  0  0  0  0  0  0  0  0
  1  2  1  0
  2  4  1  0
  3  2  2  0
  4  5  1  0
  6  7  1  0
  6  5  1  0
  7  8  1  0
  8 10  1  0
  8  9  1  6
 10 12  1  0
 11 10  2  0
 12 13  1  0
 13 16  1  0
 13 14  1  6
 14 15  1  0
 16 18  1  0
 16 17  2  0
 18 19  1  0
 19 22  1  0
 19 20  1  1
 21 20  1  0
 22 23  1  0
 24 22  2  0
M  END
$$$$
