PEV.pdb
     RDKit          3D

 24 24  0  0  1  0  0  0  0  0999 V2000
   44.1720  -16.1446   -7.3878 N   0  0  0  0  0  0  0  0  0  0  0  0
   44.3597  -17.5895   -7.5734 C   0  0  0  0  0  0  0  0  0  0  0  0
   45.0120  -17.5774   -8.9557 C   0  0  0  0  0  0  0  0  0  0  0  0
   46.0498  -16.4736   -8.7457 C   0  0  0  0  0  0  0  0  0  0  0  0
   45.4822  -15.5922   -7.6523 C   0  0  1  0  0  0  0  0  0  0  0  0
   45.3821  -14.1701   -8.1182 C   0  0  0  0  0  0  0  0  0  0  0  0
   46.4089  -13.5279   -8.3652 O   0  0  0  0  0  0  0  0  0  0  0  0
   44.1189  -13.5492   -8.2810 N   0  0  0  0  0  0  0  0  0  0  0  0
   43.9025  -12.2475   -8.7912 C   0  0  1  0  0  0  0  0  0  0  0  0
   42.6724  -12.0524   -9.6130 C   0  0  0  0  0  0  0  0  0  0  0  0
   42.5867  -10.6548  -10.1732 C   0  0  0  0  0  0  0  0  0  0  0  0
   41.3582  -10.4661  -10.9848 C   0  0  0  0  0  0  0  0  0  0  0  0
   40.5618  -11.4137  -11.2082 O   0  0  0  0  0  0  0  0  0  0  0  0
   44.0394  -11.1424   -7.7929 C   0  0  0  0  0  0  0  0  0  0  0  0
   43.3397  -11.2494   -6.7732 O   0  0  0  0  0  0  0  0  0  0  0  0
   41.0754   -9.2157  -11.5132 O   0  0  0  0  0  0  0  0  0  0  0  0
   46.5977   -7.5458   -5.7261 C   0  0  0  0  0  0  0  0  0  0  0  0
   46.5324   -8.7260   -6.6729 C   0  0  1  0  0  0  0  0  0  0  0  0
   47.1487   -9.9103   -5.9928 C   0  0  0  0  0  0  0  0  0  0  0  0
   45.1194   -8.9408   -7.1011 C   0  0  2  0  0  0  0  0  0  0  0  0
   44.8908  -10.0439   -7.9672 N   0  0  0  0  0  0  0  0  0  0  0  0
   44.4653   -7.6588   -7.4432 C   0  0  0  0  0  0  0  0  0  0  0  0
   43.9576   -7.4482   -8.7180 O   0  0  0  0  0  0  0  0  0  0  0  0
   44.3461   -6.7424   -6.6285 O   0  0  0  0  0  0  0  0  0  0  0  0
  1  5  1  0
  1  2  1  0
  2  3  1  0
  4  3  1  0
  5  4  1  0
  6  8  1  0
  5  6  1  6
  7  6  2  0
  9  8  1  0
 10 11  1  0
  9 10  1  1
 12 16  1  0
 12 11  1  0
 13 12  2  0
 14  9  1  0
 14 21  1  0
 15 14  2  0
 18 17  1  1
 18 20  1  0
 19 18  1  0
 20 21  1  6
 20 22  1  0
 22 23  1  0
 24 22  2  0
M  END
$$$$
