PEV.pdb
     RDKit          3D

 24 24  0  0  1  0  0  0  0  0999 V2000
   27.2400  -19.5657  -15.7564 N   0  0  0  0  0  0  0  0  0  0  0  0
   28.3126  -19.2694  -16.7153 C   0  0  0  0  0  0  0  0  0  0  0  0
   29.1217  -18.2770  -15.8805 C   0  0  0  0  0  0  0  0  0  0  0  0
   29.1761  -19.0349  -14.5530 C   0  0  0  0  0  0  0  0  0  0  0  0
   27.9499  -19.9243  -14.5484 C   0  0  1  0  0  0  0  0  0  0  0  0
   27.1107  -19.6614  -13.3336 C   0  0  0  0  0  0  0  0  0  0  0  0
   27.2479  -18.6058  -12.7054 O   0  0  0  0  0  0  0  0  0  0  0  0
   26.1564  -20.6119  -12.8937 N   0  0  0  0  0  0  0  0  0  0  0  0
   25.2084  -20.4088  -11.8634 C   0  0  1  0  0  0  0  0  0  0  0  0
   23.7754  -20.6008  -12.2322 C   0  0  0  0  0  0  0  0  0  0  0  0
   22.8513  -20.2718  -11.0865 C   0  0  0  0  0  0  0  0  0  0  0  0
   21.4260  -20.4118  -11.4769 C   0  0  0  0  0  0  0  0  0  0  0  0
   20.7834  -21.4718  -11.2630 O   0  0  0  0  0  0  0  0  0  0  0  0
   25.5100  -21.1063  -10.5753 C   0  0  0  0  0  0  0  0  0  0  0  0
   25.6201  -22.3406  -10.6454 O   0  0  0  0  0  0  0  0  0  0  0  0
   20.7805  -19.3509  -12.0936 O   0  0  0  0  0  0  0  0  0  0  0  0
   28.1816  -20.1388   -7.9548 C   0  0  0  0  0  0  0  0  0  0  0  0
   26.8722  -20.2663   -7.2046 C   0  0  1  0  0  0  0  0  0  0  0  0
   26.4353  -18.8964   -6.7833 C   0  0  0  0  0  0  0  0  0  0  0  0
   25.8797  -20.9831   -8.0573 C   0  0  2  0  0  0  0  0  0  0  0  0
   25.6625  -20.4404   -9.3525 N   0  0  0  0  0  0  0  0  0  0  0  0
   24.6874  -21.3741   -7.2736 C   0  0  0  0  0  0  0  0  0  0  0  0
   24.8306  -22.0241   -6.0553 O   0  0  0  0  0  0  0  0  0  0  0  0
   23.5406  -21.1445   -7.6608 O   0  0  0  0  0  0  0  0  0  0  0  0
  1  5  1  0
  1  2  1  0
  2  3  1  0
  4  3  1  0
  5  4  1  0
  6  8  1  0
  5  6  1  1
  7  6  2  0
  9  8  1  0
 10 11  1  0
  9 10  1  6
 12 16  1  0
 12 11  1  0
 13 12  2  0
 14  9  1  0
 14 21  1  0
 15 14  2  0
 18 17  1  6
 18 20  1  0
 19 18  1  0
 20 21  1  6
 20 22  1  0
 22 23  1  0
 24 22  2  0
M  END
$$$$
