PEV.pdb
     RDKit          3D

 24 24  0  0  1  0  0  0  0  0999 V2000
   33.5375  -24.8437  -17.9356 N   0  0  0  0  0  0  0  0  0  0  0  0
   34.9860  -24.9478  -17.7153 C   0  0  0  0  0  0  0  0  0  0  0  0
   35.0017  -24.9667  -16.1869 C   0  0  0  0  0  0  0  0  0  0  0  0
   33.8951  -25.9900  -15.9265 C   0  0  0  0  0  0  0  0  0  0  0  0
   32.9917  -25.9216  -17.1406 C   0  0  1  0  0  0  0  0  0  0  0  0
   31.5790  -25.6267  -16.7324 C   0  0  0  0  0  0  0  0  0  0  0  0
   31.0292  -26.3184  -15.8681 O   0  0  0  0  0  0  0  0  0  0  0  0
   30.8619  -24.5590  -17.3269 N   0  0  0  0  0  0  0  0  0  0  0  0
   29.5414  -24.1721  -16.9983 C   0  0  1  0  0  0  0  0  0  0  0  0
   29.2541  -22.7081  -17.0172 C   0  0  0  0  0  0  0  0  0  0  0  0
   27.8333  -22.4088  -16.6093 C   0  0  0  0  0  0  0  0  0  0  0  0
   27.5526  -20.9514  -16.6370 C   0  0  0  0  0  0  0  0  0  0  0  0
   28.3596  -20.1326  -17.1474 O   0  0  0  0  0  0  0  0  0  0  0  0
   28.4627  -24.9211  -17.7138 C   0  0  0  0  0  0  0  0  0  0  0  0
   28.3797  -24.7092  -18.9341 O   0  0  0  0  0  0  0  0  0  0  0  0
   26.3724  -20.4737  -16.0876 O   0  0  0  0  0  0  0  0  0  0  0  0
   27.7260  -28.7415  -17.3206 C   0  0  0  0  0  0  0  0  0  0  0  0
   26.4283  -27.9928  -17.0995 C   0  0  1  0  0  0  0  0  0  0  0  0
   26.0970  -28.0453  -15.6392 C   0  0  0  0  0  0  0  0  0  0  0  0
   26.5552  -26.6089  -17.6425 C   0  0  2  0  0  0  0  0  0  0  0  0
   27.5858  -25.8095  -17.0784 N   0  0  0  0  0  0  0  0  0  0  0  0
   25.2270  -25.9823  -17.8207 C   0  0  0  0  0  0  0  0  0  0  0  0
   24.9042  -24.8161  -17.1401 O   0  0  0  0  0  0  0  0  0  0  0  0
   24.3686  -26.4589  -18.5648 O   0  0  0  0  0  0  0  0  0  0  0  0
  1  5  1  0
  1  2  1  0
  2  3  1  0
  4  3  1  0
  5  4  1  0
  6  8  1  0
  5  6  1  1
  7  6  2  0
  9  8  1  0
 10 11  1  0
  9 10  1  6
 12 16  1  0
 12 11  1  0
 13 12  2  0
 14  9  1  0
 14 21  1  0
 15 14  2  0
 18 17  1  1
 18 20  1  0
 19 18  1  0
 20 21  1  1
 20 22  1  0
 22 23  1  0
 24 22  2  0
M  END
$$$$
