PEV.pdb
     RDKit          3D

 24 24  0  0  1  0  0  0  0  0999 V2000
   34.4189  -34.0895    2.1691 N   0  0  0  0  0  0  0  0  0  0  0  0
   35.8780  -33.9327    2.1061 C   0  0  0  0  0  0  0  0  0  0  0  0
   35.9588  -32.7817    1.1036 C   0  0  0  0  0  0  0  0  0  0  0  0
   34.8975  -31.8491    1.6898 C   0  0  0  0  0  0  0  0  0  0  0  0
   33.9421  -32.7518    2.4428 C   0  0  1  0  0  0  0  0  0  0  0  0
   32.5391  -32.5688    1.9453 C   0  0  0  0  0  0  0  0  0  0  0  0
   31.9986  -31.4596    2.0174 O   0  0  0  0  0  0  0  0  0  0  0  0
   31.8207  -33.6563    1.3897 N   0  0  0  0  0  0  0  0  0  0  0  0
   30.5168  -33.5877    0.8449 C   0  0  1  0  0  0  0  0  0  0  0  0
   30.3328  -34.1768   -0.5136 C   0  0  0  0  0  0  0  0  0  0  0  0
   28.9833  -33.8375   -1.0952 C   0  0  0  0  0  0  0  0  0  0  0  0
   28.8061  -34.4287   -2.4452 C   0  0  0  0  0  0  0  0  0  0  0  0
   28.8548  -35.6714   -2.6339 O   0  0  0  0  0  0  0  0  0  0  0  0
   29.4217  -34.0386    1.7580 C   0  0  0  0  0  0  0  0  0  0  0  0
   29.4324  -35.2434    2.0563 O   0  0  0  0  0  0  0  0  0  0  0  0
   28.5808  -33.5955   -3.5304 O   0  0  0  0  0  0  0  0  0  0  0  0
   26.6329  -31.1958    3.7359 C   0  0  0  0  0  0  0  0  0  0  0  0
   27.2146  -32.4789    4.2918 C   0  0  1  0  0  0  0  0  0  0  0  0
   26.3251  -32.9589    5.3979 C   0  0  0  0  0  0  0  0  0  0  0  0
   27.3907  -33.4641    3.1853 C   0  0  2  0  0  0  0  0  0  0  0  0
   28.4323  -33.1837    2.2602 N   0  0  0  0  0  0  0  0  0  0  0  0
   26.0843  -33.8850    2.6335 C   0  0  0  0  0  0  0  0  0  0  0  0
   25.7634  -33.6195    1.3091 O   0  0  0  0  0  0  0  0  0  0  0  0
   25.2428  -34.4766    3.3116 O   0  0  0  0  0  0  0  0  0  0  0  0
  1  5  1  0
  1  2  1  0
  2  3  1  0
  4  3  1  0
  5  4  1  0
  6  8  1  0
  5  6  1  6
  7  6  2  0
  9  8  1  0
 10 11  1  0
  9 10  1  6
 12 16  1  0
 12 11  1  0
 13 12  2  0
 14  9  1  0
 14 21  1  0
 15 14  2  0
 18 17  1  6
 18 20  1  0
 19 18  1  0
 20 21  1  6
 20 22  1  0
 22 23  1  0
 24 22  2  0
M  END
$$$$
