PEV.pdb
     RDKit          3D

 24 24  0  0  1  0  0  0  0  0999 V2000
   19.2695  -13.1922  -16.5995 N   0  0  0  0  0  0  0  0  0  0  0  0
   17.9677  -13.8459  -16.7875 C   0  0  0  0  0  0  0  0  0  0  0  0
   17.0757  -12.8261  -16.0799 C   0  0  0  0  0  0  0  0  0  0  0  0
   17.6204  -11.5338  -16.6904 C   0  0  0  0  0  0  0  0  0  0  0  0
   19.0500  -11.8465  -17.0817 C   0  0  1  0  0  0  0  0  0  0  0  0
   19.9984  -10.8819  -16.4342 C   0  0  0  0  0  0  0  0  0  0  0  0
   20.1868  -10.9271  -15.2134 O   0  0  0  0  0  0  0  0  0  0  0  0
   20.6862   -9.9140  -17.2073 N   0  0  0  0  0  0  0  0  0  0  0  0
   21.6229   -8.9782  -16.7090 C   0  0  1  0  0  0  0  0  0  0  0  0
   22.7428   -8.6084  -17.6231 C   0  0  0  0  0  0  0  0  0  0  0  0
   23.7898   -7.7793  -16.9223 C   0  0  0  0  0  0  0  0  0  0  0  0
   24.9218   -7.4523  -17.8250 C   0  0  0  0  0  0  0  0  0  0  0  0
   25.8124   -8.2968  -18.1007 O   0  0  0  0  0  0  0  0  0  0  0  0
   21.0297   -7.7511  -16.0934 C   0  0  0  0  0  0  0  0  0  0  0  0
   20.1502   -7.1855  -16.7622 O   0  0  0  0  0  0  0  0  0  0  0  0
   25.0059   -6.1853  -18.3820 O   0  0  0  0  0  0  0  0  0  0  0  0
   20.9376   -7.1772  -11.8863 C   0  0  0  0  0  0  0  0  0  0  0  0
   20.0606   -6.5031  -12.9208 C   0  0  1  0  0  0  0  0  0  0  0  0
   19.3905   -5.3279  -12.2766 C   0  0  0  0  0  0  0  0  0  0  0  0
   20.8828   -6.1519  -14.1152 C   0  0  2  0  0  0  0  0  0  0  0  0
   21.4196   -7.2456  -14.8466 N   0  0  0  0  0  0  0  0  0  0  0  0
   21.7862   -5.0169  -13.8254 C   0  0  0  0  0  0  0  0  0  0  0  0
   23.1614   -5.1667  -13.9429 O   0  0  0  0  0  0  0  0  0  0  0  0
   21.3655   -3.9134  -13.4744 O   0  0  0  0  0  0  0  0  0  0  0  0
  1  5  1  0
  1  2  1  0
  2  3  1  0
  4  3  1  0
  5  4  1  0
  6  8  1  0
  5  6  1  1
  7  6  2  0
  9  8  1  0
 10 11  1  0
  9 10  1  6
 12 16  1  0
 12 11  1  0
 13 12  2  0
 14  9  1  0
 14 21  1  0
 15 14  2  0
 18 17  1  1
 18 20  1  0
 19 18  1  0
 20 21  1  1
 20 22  1  0
 22 23  1  0
 24 22  2  0
M  END
$$$$
