IAC.pdb
     RDKit          3D

 20 19  0  0  1  0  0  0  0  0999 V2000
    6.6593  -11.8665   27.4854 C   0  0  0  0  0  0  0  0  0  0  0  0
    6.0140  -12.9777   26.7195 C   0  0  0  0  0  0  0  0  0  0  0  0
    6.9451  -13.6551   25.7628 C   0  0  2  0  0  0  0  0  0  0  0  0
    7.4769  -12.6242   24.8027 C   0  0  0  0  0  0  0  0  0  0  0  0
    6.2040  -14.7507   25.0389 C   0  0  2  0  0  0  0  0  0  0  0  0
    5.7178  -15.7342   25.9529 N   0  0  0  0  0  0  0  0  0  0  0  0
    7.0319  -15.3988   23.9984 C   0  0  0  0  0  0  0  0  0  0  0  0
    7.5188  -16.5512   24.2222 O   0  0  0  0  0  0  0  0  0  0  0  0
    7.9513  -14.6709   20.3996 C   0  0  0  0  0  0  0  0  0  0  0  0
    8.0543  -15.4759   21.6881 C   0  0  2  0  0  0  0  0  0  0  0  0
    7.3219  -14.8080   22.7477 N   0  0  0  0  0  0  0  0  0  0  0  0
    9.4613  -15.7184   22.0425 C   0  0  0  0  0  0  0  0  0  0  0  0
   10.2120  -16.1991   21.1553 O   0  0  0  0  0  0  0  0  0  0  0  0
   10.0349  -15.4505   23.3105 N   0  0  0  0  0  0  0  0  0  0  0  0
   11.4221  -15.7020   23.6381 C   0  0  1  0  0  0  0  0  0  0  0  0
   11.6370  -15.1006   25.0343 C   0  0  0  0  0  0  0  0  0  0  0  0
   10.3427  -15.6459   26.1596 S   0  0  0  0  0  0  0  0  0  0  0  0
   11.6021  -17.1650   23.7940 C   0  0  0  0  0  0  0  0  0  0  0  0
   10.6324  -17.9721   23.7731 O   0  0  0  0  0  0  0  0  0  0  0  0
   12.8556  -17.6917   23.9691 O   0  0  0  0  0  0  0  0  0  0  0  0
  2  1  1  0
  3  2  1  0
  3  5  1  0
  3  4  1  6
  5  7  1  0
  5  6  1  1
  7 11  1  0
  7  8  2  0
 10  9  1  6
 10 12  1  0
 11 10  1  0
 12 14  1  0
 13 12  2  0
 14 15  1  0
 15 18  1  0
 15 16  1  1
 16 17  1  0
 18 20  1  0
 19 18  2  0
M  END
$$$$
