IAC.pdb
     RDKit          3D

 20 19  0  0  1  0  0  0  0  0999 V2000
    5.6271  -11.0812   26.3074 C   0  0  0  0  0  0  0  0  0  0  0  0
    5.4542  -12.5095   25.8975 C   0  0  0  0  0  0  0  0  0  0  0  0
    6.7515  -13.2170   25.6572 C   0  0  2  0  0  0  0  0  0  0  0  0
    7.5023  -12.4844   24.5770 C   0  0  0  0  0  0  0  0  0  0  0  0
    6.4733  -14.6453   25.2623 C   0  0  2  0  0  0  0  0  0  0  0  0
    5.6297  -15.2887   26.2179 N   0  0  0  0  0  0  0  0  0  0  0  0
    7.7133  -15.4309   25.0787 C   0  0  0  0  0  0  0  0  0  0  0  0
    8.2986  -15.9129   26.0986 O   0  0  0  0  0  0  0  0  0  0  0  0
    9.9140  -16.4606   22.1684 C   0  0  0  0  0  0  0  0  0  0  0  0
    9.4748  -16.5145   23.6255 C   0  0  2  0  0  0  0  0  0  0  0  0
    8.3002  -15.6848   23.8183 N   0  0  0  0  0  0  0  0  0  0  0  0
   10.5812  -16.1404   24.5197 C   0  0  0  0  0  0  0  0  0  0  0  0
   11.3464  -15.2149   24.1457 O   0  0  0  0  0  0  0  0  0  0  0  0
   10.8500  -16.7455   25.7728 N   0  0  0  0  0  0  0  0  0  0  0  0
   11.9079  -16.3199   26.6643 C   0  0  1  0  0  0  0  0  0  0  0  0
   11.2585  -16.1865   28.0490 C   0  0  0  0  0  0  0  0  0  0  0  0
   10.1645  -14.7582   28.0953 S   0  0  0  0  0  0  0  0  0  0  0  0
   12.8876  -17.4261   26.7800 C   0  0  0  0  0  0  0  0  0  0  0  0
   12.7488  -18.5199   26.1664 O   0  0  0  0  0  0  0  0  0  0  0  0
   13.9956  -17.2868   27.5751 O   0  0  0  0  0  0  0  0  0  0  0  0
  2  1  1  0
  3  2  1  0
  3  5  1  0
  3  4  1  6
  5  7  1  0
  5  6  1  1
  7 11  1  0
  7  8  2  0
 10  9  1  6
 10 12  1  0
 11 10  1  0
 12 14  1  0
 13 12  2  0
 14 15  1  0
 15 18  1  0
 15 16  1  1
 16 17  1  0
 18 20  1  0
 19 18  2  0
M  END
$$$$
