IAC.pdb
     RDKit          3D

 20 19  0  0  1  0  0  0  0  0999 V2000
    6.5021  -11.5659   27.6062 C   0  0  0  0  0  0  0  0  0  0  0  0
    5.9328  -12.6976   26.8105 C   0  0  0  0  0  0  0  0  0  0  0  0
    6.9330  -13.3451   25.9041 C   0  0  2  0  0  0  0  0  0  0  0  0
    7.4129  -12.3195   24.9116 C   0  0  0  0  0  0  0  0  0  0  0  0
    6.2899  -14.5209   25.2130 C   0  0  2  0  0  0  0  0  0  0  0  0
    5.8097  -15.4752   26.1604 N   0  0  0  0  0  0  0  0  0  0  0  0
    7.2043  -15.1810   24.2557 C   0  0  0  0  0  0  0  0  0  0  0  0
    8.1370  -15.9216   24.6992 O   0  0  0  0  0  0  0  0  0  0  0  0
    7.7178  -15.1681   20.5000 C   0  0  0  0  0  0  0  0  0  0  0  0
    8.0243  -15.6506   21.9114 C   0  0  2  0  0  0  0  0  0  0  0  0
    7.1057  -15.0385   22.8530 N   0  0  0  0  0  0  0  0  0  0  0  0
    9.4325  -15.4010   22.2555 C   0  0  0  0  0  0  0  0  0  0  0  0
    9.7968  -14.2049   22.3912 O   0  0  0  0  0  0  0  0  0  0  0  0
   10.4108  -16.4087   22.4457 N   0  0  0  0  0  0  0  0  0  0  0  0
   11.7983  -16.1381   22.7564 C   0  0  1  0  0  0  0  0  0  0  0  0
   11.8183  -15.6951   24.2262 C   0  0  0  0  0  0  0  0  0  0  0  0
   10.8983  -16.8583   25.2458 S   0  0  0  0  0  0  0  0  0  0  0  0
   12.5411  -17.4199   22.7084 C   0  0  0  0  0  0  0  0  0  0  0  0
   11.9681  -18.5271   22.5132 O   0  0  0  0  0  0  0  0  0  0  0  0
   13.9012  -17.4366   22.8787 O   0  0  0  0  0  0  0  0  0  0  0  0
  2  1  1  0
  3  2  1  0
  3  5  1  0
  3  4  1  6
  5  7  1  0
  5  6  1  1
  7 11  1  0
  7  8  2  0
 10  9  1  6
 10 12  1  0
 11 10  1  0
 12 14  1  0
 13 12  2  0
 14 15  1  0
 15 18  1  0
 15 16  1  1
 16 17  1  0
 18 20  1  0
 19 18  2  0
M  END
$$$$
