IAC.pdb
     RDKit          3D

 20 19  0  0  1  0  0  0  0  0999 V2000
    5.8840  -11.6004   26.4417 C   0  0  0  0  0  0  0  0  0  0  0  0
    5.7521  -12.9368   25.7823 C   0  0  0  0  0  0  0  0  0  0  0  0
    7.0459  -13.6851   25.6985 C   0  0  2  0  0  0  0  0  0  0  0  0
    8.0518  -12.8221   24.9839 C   0  0  0  0  0  0  0  0  0  0  0  0
    6.8216  -14.9864   24.9705 C   0  0  2  0  0  0  0  0  0  0  0  0
    5.7521  -15.7275   25.5587 N   0  0  0  0  0  0  0  0  0  0  0  0
    8.0417  -15.8213   24.9196 C   0  0  0  0  0  0  0  0  0  0  0  0
    8.1793  -16.7696   25.7544 O   0  0  0  0  0  0  0  0  0  0  0  0
   11.1066  -16.0623   22.7005 C   0  0  0  0  0  0  0  0  0  0  0  0
   10.2523  -16.4838   23.8885 C   0  0  2  0  0  0  0  0  0  0  0  0
    9.0840  -15.6287   23.9848 N   0  0  0  0  0  0  0  0  0  0  0  0
   11.0463  -16.4937   25.1268 C   0  0  0  0  0  0  0  0  0  0  0  0
   12.1739  -17.0497   25.0924 O   0  0  0  0  0  0  0  0  0  0  0  0
   10.6353  -15.9229   26.3572 N   0  0  0  0  0  0  0  0  0  0  0  0
   11.3961  -16.0175   27.5848 C   0  0  1  0  0  0  0  0  0  0  0  0
   10.7431  -15.0259   28.5581 C   0  0  0  0  0  0  0  0  0  0  0  0
   10.4383  -13.4515   27.7412 S   0  0  0  0  0  0  0  0  0  0  0  0
   11.1722  -17.3630   28.1648 C   0  0  0  0  0  0  0  0  0  0  0  0
   10.4271  -18.2209   27.6161 O   0  0  0  0  0  0  0  0  0  0  0  0
   11.7828  -17.7189   29.3394 O   0  0  0  0  0  0  0  0  0  0  0  0
  2  1  1  0
  3  2  1  0
  3  5  1  0
  3  4  1  6
  5  7  1  0
  5  6  1  1
  7 11  1  0
  7  8  2  0
 10  9  1  6
 10 12  1  0
 11 10  1  0
 12 14  1  0
 13 12  2  0
 14 15  1  0
 15 18  1  0
 15 16  1  1
 16 17  1  0
 18 20  1  0
 19 18  2  0
M  END
$$$$
