IAC.pdb
     RDKit          3D

 20 19  0  0  1  0  0  0  0  0999 V2000
    6.6585  -11.7730   26.8482 C   0  0  0  0  0  0  0  0  0  0  0  0
    6.1145  -13.1229   26.5019 C   0  0  0  0  0  0  0  0  0  0  0  0
    7.0147  -13.9100   25.6011 C   0  0  2  0  0  0  0  0  0  0  0  0
    7.2247  -13.1268   24.3324 C   0  0  0  0  0  0  0  0  0  0  0  0
    6.3882  -15.2527   25.3217 C   0  0  2  0  0  0  0  0  0  0  0  0
    6.0409  -15.9212   26.5347 N   0  0  0  0  0  0  0  0  0  0  0  0
    7.2604  -16.1219   24.5021 C   0  0  0  0  0  0  0  0  0  0  0  0
    8.1637  -16.8096   25.0735 O   0  0  0  0  0  0  0  0  0  0  0  0
    7.5586  -17.0336   20.8323 C   0  0  0  0  0  0  0  0  0  0  0  0
    7.9744  -17.1247   22.2944 C   0  0  2  0  0  0  0  0  0  0  0  0
    7.1522  -16.2394   23.0978 N   0  0  0  0  0  0  0  0  0  0  0  0
    9.4117  -16.8516   22.4477 C   0  0  0  0  0  0  0  0  0  0  0  0
    9.9839  -16.2064   21.5322 O   0  0  0  0  0  0  0  0  0  0  0  0
   10.2009  -17.2615   23.5512 N   0  0  0  0  0  0  0  0  0  0  0  0
   11.5997  -16.9260   23.7119 C   0  0  1  0  0  0  0  0  0  0  0  0
   11.7651  -16.5196   25.1831 C   0  0  0  0  0  0  0  0  0  0  0  0
   10.9795  -14.9294   25.4882 S   0  0  0  0  0  0  0  0  0  0  0  0
   12.3947  -18.1652   23.5410 C   0  0  0  0  0  0  0  0  0  0  0  0
   13.6555  -18.1730   23.5939 O   0  0  0  0  0  0  0  0  0  0  0  0
   11.7669  -19.3628   23.3159 O   0  0  0  0  0  0  0  0  0  0  0  0
  2  1  1  0
  3  2  1  0
  3  5  1  0
  3  4  1  6
  5  7  1  0
  5  6  1  1
  7 11  1  0
  7  8  2  0
 10  9  1  6
 10 12  1  0
 11 10  1  0
 12 14  1  0
 13 12  2  0
 14 15  1  0
 15 18  1  0
 15 16  1  1
 16 17  1  0
 18 20  1  0
 19 18  2  0
M  END
$$$$
