IAC.pdb
     RDKit          3D

 20 19  0  0  1  0  0  0  0  0999 V2000
    8.0489  -12.4687   18.1663 C   0  0  0  0  0  0  0  0  0  0  0  0
    8.1058  -13.9090   18.5667 C   0  0  0  0  0  0  0  0  0  0  0  0
    7.8957  -14.1239   20.0333 C   0  0  2  0  0  0  0  0  0  0  0  0
    8.9831  -13.4009   20.7828 C   0  0  0  0  0  0  0  0  0  0  0  0
    7.9145  -15.6027   20.3270 C   0  0  2  0  0  0  0  0  0  0  0  0
    6.9247  -16.2920   19.5627 N   0  0  0  0  0  0  0  0  0  0  0  0
    7.7298  -15.8939   21.7655 C   0  0  0  0  0  0  0  0  0  0  0  0
    6.6053  -15.6547   22.3072 O   0  0  0  0  0  0  0  0  0  0  0  0
    9.7031  -17.5188   24.5473 C   0  0  0  0  0  0  0  0  0  0  0  0
    8.6153  -16.5876   24.0291 C   0  0  2  0  0  0  0  0  0  0  0  0
    8.7425  -16.4312   22.5922 N   0  0  0  0  0  0  0  0  0  0  0  0
    8.6458  -15.3004   24.7404 C   0  0  0  0  0  0  0  0  0  0  0  0
    9.6018  -14.5208   24.4953 O   0  0  0  0  0  0  0  0  0  0  0  0
    7.6773  -14.8723   25.6824 N   0  0  0  0  0  0  0  0  0  0  0  0
    7.7269  -13.5992   26.3691 C   0  0  1  0  0  0  0  0  0  0  0  0
    6.2646  -13.1921   26.5998 C   0  0  0  0  0  0  0  0  0  0  0  0
    6.1798  -11.6302   27.4897 S   0  0  0  0  0  0  0  0  0  0  0  0
    8.3035  -13.8228   27.7161 C   0  0  0  0  0  0  0  0  0  0  0  0
    8.7377  -12.8785   28.4316 O   0  0  0  0  0  0  0  0  0  0  0  0
    8.3821  -15.0905   28.2317 O   0  0  0  0  0  0  0  0  0  0  0  0
  2  1  1  0
  3  2  1  0
  3  5  1  0
  3  4  1  1
  5  7  1  0
  5  6  1  6
  7 11  1  0
  7  8  2  0
 10  9  1  1
 10 12  1  0
 11 10  1  0
 12 14  1  0
 13 12  2  0
 14 15  1  0
 15 18  1  0
 15 16  1  1
 16 17  1  0
 18 20  1  0
 19 18  2  0
M  END
$$$$
