IAC.pdb
     RDKit          3D

 20 19  0  0  1  0  0  0  0  0999 V2000
    5.5588  -11.4311   26.7791 C   0  0  0  0  0  0  0  0  0  0  0  0
    5.4187  -12.8141   26.2260 C   0  0  0  0  0  0  0  0  0  0  0  0
    6.7211  -13.4130   25.7941 C   0  0  2  0  0  0  0  0  0  0  0  0
    7.3371  -12.5169   24.7526 C   0  0  0  0  0  0  0  0  0  0  0  0
    6.4760  -14.7987   25.2526 C   0  0  2  0  0  0  0  0  0  0  0  0
    5.7273  -15.5879   26.1776 N   0  0  0  0  0  0  0  0  0  0  0  0
    7.7319  -15.4961   24.8999 C   0  0  0  0  0  0  0  0  0  0  0  0
    8.4510  -15.9849   25.8268 O   0  0  0  0  0  0  0  0  0  0  0  0
    9.6477  -16.2745   21.7215 C   0  0  0  0  0  0  0  0  0  0  0  0
    9.3866  -16.4001   23.2165 C   0  0  2  0  0  0  0  0  0  0  0  0
    8.1925  -15.6571   23.5735 N   0  0  0  0  0  0  0  0  0  0  0  0
   10.5643  -15.9787   23.9906 C   0  0  0  0  0  0  0  0  0  0  0  0
   11.2678  -15.0474   23.5220 O   0  0  0  0  0  0  0  0  0  0  0  0
   10.9661  -16.5442   25.2265 N   0  0  0  0  0  0  0  0  0  0  0  0
   12.1168  -16.0975   25.9823 C   0  0  1  0  0  0  0  0  0  0  0  0
   11.6891  -16.1369   27.4562 C   0  0  0  0  0  0  0  0  0  0  0  0
   10.6956  -14.6921   27.8613 S   0  0  0  0  0  0  0  0  0  0  0  0
   13.1851  -17.1154   25.8420 C   0  0  0  0  0  0  0  0  0  0  0  0
   13.0037  -18.2079   25.2373 O   0  0  0  0  0  0  0  0  0  0  0  0
   14.4268  -16.8914   26.3779 O   0  0  0  0  0  0  0  0  0  0  0  0
  2  1  1  0
  3  2  1  0
  3  5  1  0
  3  4  1  6
  5  7  1  0
  5  6  1  1
  7 11  1  0
  7  8  2  0
 10  9  1  6
 10 12  1  0
 11 10  1  0
 12 14  1  0
 13 12  2  0
 14 15  1  0
 15 18  1  0
 15 16  1  1
 16 17  1  0
 18 20  1  0
 19 18  2  0
M  END
$$$$
