IAC.pdb
     RDKit          3D

 20 19  0  0  1  0  0  0  0  0999 V2000
    6.4865  -11.5280   27.5849 C   0  0  0  0  0  0  0  0  0  0  0  0
    5.9031  -12.6294   26.7577 C   0  0  0  0  0  0  0  0  0  0  0  0
    6.9171  -13.3340   25.9112 C   0  0  2  0  0  0  0  0  0  0  0  0
    7.5044  -12.3413   24.9433 C   0  0  0  0  0  0  0  0  0  0  0  0
    6.2531  -14.4794   25.1896 C   0  0  2  0  0  0  0  0  0  0  0  0
    5.6910  -15.4127   26.1126 N   0  0  0  0  0  0  0  0  0  0  0  0
    7.1778  -15.1781   24.2704 C   0  0  0  0  0  0  0  0  0  0  0  0
    8.0092  -16.0143   24.7446 O   0  0  0  0  0  0  0  0  0  0  0  0
    7.8830  -15.1557   20.5434 C   0  0  0  0  0  0  0  0  0  0  0  0
    8.1185  -15.6355   21.9693 C   0  0  2  0  0  0  0  0  0  0  0  0
    7.1968  -14.9720   22.8723 N   0  0  0  0  0  0  0  0  0  0  0  0
    9.5239  -15.4457   22.3599 C   0  0  0  0  0  0  0  0  0  0  0  0
    9.9162  -14.2701   22.5744 O   0  0  0  0  0  0  0  0  0  0  0  0
   10.4703  -16.4896   22.5128 N   0  0  0  0  0  0  0  0  0  0  0  0
   11.8273  -16.2876   22.9739 C   0  0  1  0  0  0  0  0  0  0  0  0
   11.7160  -15.9669   24.4712 C   0  0  0  0  0  0  0  0  0  0  0  0
   10.8609  -17.2932   25.3363 S   0  0  0  0  0  0  0  0  0  0  0  0
   12.5421  -17.5832   22.8881 C   0  0  0  0  0  0  0  0  0  0  0  0
   13.7756  -17.6929   23.1310 O   0  0  0  0  0  0  0  0  0  0  0  0
   11.8666  -18.7224   22.5346 O   0  0  0  0  0  0  0  0  0  0  0  0
  2  1  1  0
  3  2  1  0
  3  5  1  0
  3  4  1  6
  5  7  1  0
  5  6  1  1
  7 11  1  0
  7  8  2  0
 10  9  1  6
 10 12  1  0
 11 10  1  0
 12 14  1  0
 13 12  2  0
 14 15  1  0
 15 18  1  0
 15 16  1  1
 16 17  1  0
 18 20  1  0
 19 18  2  0
M  END
$$$$
