IAC.pdb
     RDKit          3D

 20 19  0  0  1  0  0  0  0  0999 V2000
    6.3057  -11.3860   27.4386 C   0  0  0  0  0  0  0  0  0  0  0  0
    5.7881  -12.5669   26.6801 C   0  0  0  0  0  0  0  0  0  0  0  0
    6.8431  -13.2636   25.8784 C   0  0  2  0  0  0  0  0  0  0  0  0
    7.4348  -12.2768   24.9072 C   0  0  0  0  0  0  0  0  0  0  0  0
    6.2283  -14.4395   25.1624 C   0  0  2  0  0  0  0  0  0  0  0  0
    5.6713  -15.3724   26.0888 N   0  0  0  0  0  0  0  0  0  0  0  0
    7.1932  -15.1273   24.2769 C   0  0  0  0  0  0  0  0  0  0  0  0
    8.0400  -15.9272   24.7851 O   0  0  0  0  0  0  0  0  0  0  0  0
    8.0890  -15.0159   20.5963 C   0  0  0  0  0  0  0  0  0  0  0  0
    8.2270  -15.5611   22.0115 C   0  0  2  0  0  0  0  0  0  0  0  0
    7.2350  -14.9490   22.8755 N   0  0  0  0  0  0  0  0  0  0  0  0
    9.5984  -15.3783   22.5112 C   0  0  0  0  0  0  0  0  0  0  0  0
    9.9948  -14.2015   22.7106 O   0  0  0  0  0  0  0  0  0  0  0  0
   10.5076  -16.4304   22.7853 N   0  0  0  0  0  0  0  0  0  0  0  0
   11.8949  -16.2254   23.1433 C   0  0  1  0  0  0  0  0  0  0  0  0
   12.0600  -16.8376   24.5415 C   0  0  0  0  0  0  0  0  0  0  0  0
   10.4516  -17.1231   25.2967 S   0  0  0  0  0  0  0  0  0  0  0  0
   12.7321  -17.0482   22.2383 C   0  0  0  0  0  0  0  0  0  0  0  0
   12.2376  -17.7713   21.3300 O   0  0  0  0  0  0  0  0  0  0  0  0
   14.0968  -17.0452   22.3671 O   0  0  0  0  0  0  0  0  0  0  0  0
  2  1  1  0
  3  2  1  0
  3  5  1  0
  3  4  1  6
  5  7  1  0
  5  6  1  1
  7 11  1  0
  7  8  2  0
 10  9  1  6
 10 12  1  0
 11 10  1  0
 12 14  1  0
 13 12  2  0
 14 15  1  0
 15 18  1  0
 15 16  1  1
 16 17  1  0
 18 20  1  0
 19 18  2  0
M  END
$$$$
