IAC.pdb
     RDKit          3D

 20 19  0  0  1  0  0  0  0  0999 V2000
    6.4983  -11.4588   27.3430 C   0  0  0  0  0  0  0  0  0  0  0  0
    5.9473  -12.5791   26.5187 C   0  0  0  0  0  0  0  0  0  0  0  0
    7.0066  -13.3894   25.8387 C   0  0  2  0  0  0  0  0  0  0  0  0
    7.7676  -12.4904   24.9008 C   0  0  0  0  0  0  0  0  0  0  0  0
    6.3598  -14.5340   25.1003 C   0  0  2  0  0  0  0  0  0  0  0  0
    5.6039  -15.3579   25.9883 N   0  0  0  0  0  0  0  0  0  0  0  0
    7.3442  -15.3590   24.3664 C   0  0  0  0  0  0  0  0  0  0  0  0
    7.8647  -16.3640   24.9446 O   0  0  0  0  0  0  0  0  0  0  0  0
    8.7840  -15.4706   20.8656 C   0  0  0  0  0  0  0  0  0  0  0  0
    8.7646  -15.8621   22.3371 C   0  0  2  0  0  0  0  0  0  0  0  0
    7.7508  -15.0969   23.0384 N   0  0  0  0  0  0  0  0  0  0  0  0
   10.0994  -15.7105   22.9365 C   0  0  0  0  0  0  0  0  0  0  0  0
   11.0098  -15.2238   22.2180 O   0  0  0  0  0  0  0  0  0  0  0  0
   10.4368  -16.0722   24.2646 N   0  0  0  0  0  0  0  0  0  0  0  0
   11.7398  -15.8518   24.8549 C   0  0  1  0  0  0  0  0  0  0  0  0
   11.5596  -16.0815   26.3621 C   0  0  0  0  0  0  0  0  0  0  0  0
   10.3810  -14.9030   27.0410 S   0  0  0  0  0  0  0  0  0  0  0  0
   12.6471  -16.9260   24.3860 C   0  0  0  0  0  0  0  0  0  0  0  0
   13.8799  -16.9360   24.6553 O   0  0  0  0  0  0  0  0  0  0  0  0
   12.1597  -17.9606   23.6302 O   0  0  0  0  0  0  0  0  0  0  0  0
  2  1  1  0
  3  2  1  0
  3  5  1  0
  3  4  1  6
  5  7  1  0
  5  6  1  1
  7 11  1  0
  7  8  2  0
 10  9  1  6
 10 12  1  0
 11 10  1  0
 12 14  1  0
 13 12  2  0
 14 15  1  0
 15 18  1  0
 15 16  1  1
 16 17  1  0
 18 20  1  0
 19 18  2  0
M  END
$$$$
