IAC.pdb
     RDKit          3D

 20 19  0  0  1  0  0  0  0  0999 V2000
    7.7555  -12.3303   18.8694 C   0  0  0  0  0  0  0  0  0  0  0  0
    7.7043  -13.7771   19.2463 C   0  0  0  0  0  0  0  0  0  0  0  0
    7.7600  -14.0053   20.7248 C   0  0  2  0  0  0  0  0  0  0  0  0
    9.0798  -13.4936   21.2380 C   0  0  0  0  0  0  0  0  0  0  0  0
    7.5927  -15.4769   21.0076 C   0  0  2  0  0  0  0  0  0  0  0  0
    6.4029  -15.9851   20.4035 N   0  0  0  0  0  0  0  0  0  0  0  0
    7.5864  -15.7752   22.4565 C   0  0  0  0  0  0  0  0  0  0  0  0
    6.6183  -15.3640   23.1699 O   0  0  0  0  0  0  0  0  0  0  0  0
    9.5800  -17.8927   24.8564 C   0  0  0  0  0  0  0  0  0  0  0  0
    8.6432  -16.7338   24.5428 C   0  0  2  0  0  0  0  0  0  0  0  0
    8.6067  -16.5017   23.1111 N   0  0  0  0  0  0  0  0  0  0  0  0
    9.0269  -15.5315   25.2985 C   0  0  0  0  0  0  0  0  0  0  0  0
   10.0566  -14.9124   24.9265 O   0  0  0  0  0  0  0  0  0  0  0  0
    8.3224  -15.0178   26.4158 N   0  0  0  0  0  0  0  0  0  0  0  0
    8.7124  -13.8251   27.1371 C   0  0  1  0  0  0  0  0  0  0  0  0
    7.4023  -13.1291   27.5323 C   0  0  0  0  0  0  0  0  0  0  0  0
    6.4036  -12.7940   26.0731 S   0  0  0  0  0  0  0  0  0  0  0  0
    9.3504  -14.2417   28.4084 C   0  0  0  0  0  0  0  0  0  0  0  0
    9.8146  -13.4107   29.2368 O   0  0  0  0  0  0  0  0  0  0  0  0
    9.4555  -15.5714   28.7249 O   0  0  0  0  0  0  0  0  0  0  0  0
  2  1  1  0
  3  2  1  0
  3  5  1  0
  3  4  1  6
  5  7  1  0
  5  6  1  1
  7 11  1  0
  7  8  2  0
 10  9  1  6
 10 12  1  0
 11 10  1  0
 12 14  1  0
 13 12  2  0
 14 15  1  0
 15 18  1  0
 15 16  1  1
 16 17  1  0
 18 20  1  0
 19 18  2  0
M  END
$$$$
