IAC.pdb
     RDKit          3D

 20 19  0  0  1  0  0  0  0  0999 V2000
    6.3158  -11.9115   27.3984 C   0  0  0  0  0  0  0  0  0  0  0  0
    5.9837  -13.2097   26.7334 C   0  0  0  0  0  0  0  0  0  0  0  0
    6.8004  -13.4715   25.5063 C   0  0  2  0  0  0  0  0  0  0  0  0
    6.4630  -12.4267   24.4759 C   0  0  0  0  0  0  0  0  0  0  0  0
    6.5048  -14.8603   24.9991 C   0  0  2  0  0  0  0  0  0  0  0  0
    5.7189  -15.5949   25.9381 N   0  0  0  0  0  0  0  0  0  0  0  0
    7.7348  -15.6156   24.6751 C   0  0  0  0  0  0  0  0  0  0  0  0
    8.0610  -16.6087   25.3980 O   0  0  0  0  0  0  0  0  0  0  0  0
   10.3414  -15.5491   21.9238 C   0  0  0  0  0  0  0  0  0  0  0  0
    9.7475  -16.0845   23.2198 C   0  0  2  0  0  0  0  0  0  0  0  0
    8.5867  -15.2981   23.5931 N   0  0  0  0  0  0  0  0  0  0  0  0
   10.7637  -16.1277   24.2825 C   0  0  0  0  0  0  0  0  0  0  0  0
   11.8395  -16.7312   24.0369 O   0  0  0  0  0  0  0  0  0  0  0  0
   10.6211  -15.5395   25.5640 N   0  0  0  0  0  0  0  0  0  0  0  0
   11.6513  -15.5596   26.5804 C   0  0  1  0  0  0  0  0  0  0  0  0
   11.4752  -14.2603   27.3791 C   0  0  0  0  0  0  0  0  0  0  0  0
   10.1866  -14.4551   28.6202 S   0  0  0  0  0  0  0  0  0  0  0  0
   11.3475  -16.6610   27.5246 C   0  0  0  0  0  0  0  0  0  0  0  0
   10.3006  -17.3597   27.4349 O   0  0  0  0  0  0  0  0  0  0  0  0
   12.2158  -16.9564   28.5435 O   0  0  0  0  0  0  0  0  0  0  0  0
  2  1  1  0
  3  2  1  0
  3  5  1  0
  3  4  1  6
  5  7  1  0
  5  6  1  1
  7 11  1  0
  7  8  2  0
 10  9  1  6
 10 12  1  0
 11 10  1  0
 12 14  1  0
 13 12  2  0
 14 15  1  0
 15 18  1  0
 15 16  1  1
 16 17  1  0
 18 20  1  0
 19 18  2  0
M  END
$$$$
