QDA.pdb
     RDKit          3D

 23 22  0  0  1  0  0  0  0  0999 V2000
    8.7759  -12.8164   20.0605 N   0  0  0  0  0  0  0  0  0  0  0  0
    7.9948  -13.5569   19.1082 C   0  0  0  0  0  0  0  0  0  0  0  0
    6.9166  -13.0478   18.6984 O   0  0  0  0  0  0  0  0  0  0  0  0
    8.5170  -14.8721   18.6747 C   0  0  0  0  0  0  0  0  0  0  0  0
    9.6636  -14.7541   17.6982 C   0  0  0  0  0  0  0  0  0  0  0  0
   10.2995  -16.1307   17.4609 C   0  0  2  0  0  0  0  0  0  0  0  0
    9.2148  -16.9073   16.8330 N   0  0  0  0  0  0  0  0  0  0  0  0
   10.5782  -16.7372   18.7798 C   0  0  0  0  0  0  0  0  0  0  0  0
    9.6601  -17.3180   19.3987 O   0  0  0  0  0  0  0  0  0  0  0  0
   11.8549  -16.7107   19.4208 N   0  0  0  0  0  0  0  0  0  0  0  0
   12.0932  -17.4246   20.6683 C   0  0  1  0  0  0  0  0  0  0  0  0
   13.5290  -17.9336   20.7159 C   0  0  0  0  0  0  0  0  0  0  0  0
   13.7036  -18.9597   21.7606 C   0  0  0  0  0  0  0  0  0  0  0  0
   13.9219  -18.6432   22.9589 O   0  0  0  0  0  0  0  0  0  0  0  0
   11.7542  -16.6389   21.8574 C   0  0  0  0  0  0  0  0  0  0  0  0
   12.4278  -15.5925   22.1588 O   0  0  0  0  0  0  0  0  0  0  0  0
   13.6310  -20.3084   21.4438 O   0  0  0  0  0  0  0  0  0  0  0  0
    8.9662  -15.7637   24.0402 C   0  0  0  0  0  0  0  0  0  0  0  0
   10.4592  -16.1133   23.9498 C   0  0  2  0  0  0  0  0  0  0  0  0
   10.6899  -16.9405   22.7608 N   0  0  0  0  0  0  0  0  0  0  0  0
   10.8276  -16.8288   25.1873 C   0  0  0  0  0  0  0  0  0  0  0  0
   11.1809  -18.1722   25.1545 O   0  0  0  0  0  0  0  0  0  0  0  0
   10.8139  -16.1889   26.2808 O   0  0  0  0  0  0  0  0  0  0  0  0
  2  1  1  0
  2  3  2  0
  4  2  1  0
  5  4  1  0
  6  8  1  0
  6  5  1  0
  6  7  1  6
  8 10  1  0
  9  8  2  0
 11 10  1  0
 11 15  1  0
 11 12  1  1
 12 13  1  0
 13 14  2  0
 13 17  1  0
 15 16  2  0
 15 20  1  0
 19 21  1  0
 19 18  1  1
 20 19  1  0
 21 22  1  0
 23 21  2  0
M  END
$$$$
