QDA.pdb
     RDKit          3D

 23 22  0  0  1  0  0  0  0  0999 V2000
    7.8691  -13.2354   18.4323 N   0  0  0  0  0  0  0  0  0  0  0  0
    7.9784  -13.7514   17.0955 C   0  0  0  0  0  0  0  0  0  0  0  0
    7.4451  -13.0968   16.1593 O   0  0  0  0  0  0  0  0  0  0  0  0
    8.7147  -15.0223   16.9141 C   0  0  0  0  0  0  0  0  0  0  0  0
    9.2655  -15.5702   18.2097 C   0  0  0  0  0  0  0  0  0  0  0  0
    9.9987  -16.8943   17.9544 C   0  0  2  0  0  0  0  0  0  0  0  0
    8.9463  -17.7708   17.4086 N   0  0  0  0  0  0  0  0  0  0  0  0
   10.4079  -17.4478   19.2625 C   0  0  0  0  0  0  0  0  0  0  0  0
    9.6234  -18.1911   19.8911 O   0  0  0  0  0  0  0  0  0  0  0  0
   11.6698  -17.1919   19.8820 N   0  0  0  0  0  0  0  0  0  0  0  0
   12.0081  -17.7615   21.1796 C   0  0  1  0  0  0  0  0  0  0  0  0
   13.4636  -18.2135   21.1911 C   0  0  0  0  0  0  0  0  0  0  0  0
   13.8230  -18.8434   22.4752 C   0  0  0  0  0  0  0  0  0  0  0  0
   13.0281  -19.6168   23.0699 O   0  0  0  0  0  0  0  0  0  0  0  0
   11.7069  -16.8666   22.2997 C   0  0  0  0  0  0  0  0  0  0  0  0
   12.4354  -15.8377   22.5237 O   0  0  0  0  0  0  0  0  0  0  0  0
   15.0553  -18.5954   23.0621 O   0  0  0  0  0  0  0  0  0  0  0  0
    8.9684  -15.6639   24.3841 C   0  0  0  0  0  0  0  0  0  0  0  0
   10.4370  -16.1116   24.3365 C   0  0  2  0  0  0  0  0  0  0  0  0
   10.6231  -17.0371   23.2140 N   0  0  0  0  0  0  0  0  0  0  0  0
   10.7513  -16.7552   25.6272 C   0  0  0  0  0  0  0  0  0  0  0  0
   10.7932  -16.0130   26.8012 O   0  0  0  0  0  0  0  0  0  0  0  0
   10.9826  -18.0008   25.6396 O   0  0  0  0  0  0  0  0  0  0  0  0
  2  1  1  0
  2  3  2  0
  4  2  1  0
  5  4  1  0
  6  8  1  0
  6  5  1  0
  6  7  1  1
  8 10  1  0
  9  8  2  0
 11 10  1  0
 11 15  1  0
 11 12  1  6
 12 13  1  0
 13 14  2  0
 13 17  1  0
 15 16  2  0
 15 20  1  0
 19 21  1  0
 19 18  1  1
 20 19  1  0
 21 22  1  0
 23 21  2  0
M  END
$$$$
