QDA.pdb
     RDKit          3D

 23 22  0  0  1  0  0  0  0  0999 V2000
    9.6687  -13.4801   19.6301 N   0  0  0  0  0  0  0  0  0  0  0  0
    8.3764  -13.0252   19.1964 C   0  0  0  0  0  0  0  0  0  0  0  0
    8.2605  -12.6004   18.0150 O   0  0  0  0  0  0  0  0  0  0  0  0
    7.2680  -13.0893   20.1749 C   0  0  0  0  0  0  0  0  0  0  0  0
    7.6904  -13.6776   21.5007 C   0  0  0  0  0  0  0  0  0  0  0  0
    8.1821  -15.1186   21.3068 C   0  0  2  0  0  0  0  0  0  0  0  0
    6.9685  -15.8427   20.8862 N   0  0  0  0  0  0  0  0  0  0  0  0
    8.5814  -15.6453   22.6290 C   0  0  0  0  0  0  0  0  0  0  0  0
    7.7134  -15.8209   23.5115 O   0  0  0  0  0  0  0  0  0  0  0  0
    9.9237  -15.9803   22.9865 N   0  0  0  0  0  0  0  0  0  0  0  0
   10.2462  -16.5272   24.2977 C   0  0  1  0  0  0  0  0  0  0  0  0
   11.5578  -17.3012   24.2355 C   0  0  0  0  0  0  0  0  0  0  0  0
   11.4038  -18.5651   23.4916 C   0  0  0  0  0  0  0  0  0  0  0  0
   10.2762  -19.1037   23.3425 O   0  0  0  0  0  0  0  0  0  0  0  0
   10.2603  -15.5163   25.3580 C   0  0  0  0  0  0  0  0  0  0  0  0
   10.2054  -14.2702   25.0687 O   0  0  0  0  0  0  0  0  0  0  0  0
   12.5075  -19.1950   22.9349 O   0  0  0  0  0  0  0  0  0  0  0  0
    9.0058  -13.9514   27.6627 C   0  0  0  0  0  0  0  0  0  0  0  0
   10.3383  -14.7116   27.7408 C   0  0  2  0  0  0  0  0  0  0  0  0
   10.3319  -15.7987   26.7562 N   0  0  0  0  0  0  0  0  0  0  0  0
   10.4799  -15.2275   29.1165 C   0  0  0  0  0  0  0  0  0  0  0  0
   10.7153  -14.3644   30.1797 O   0  0  0  0  0  0  0  0  0  0  0  0
   10.3821  -16.4765   29.3054 O   0  0  0  0  0  0  0  0  0  0  0  0
  2  1  1  0
  2  3  2  0
  4  2  1  0
  5  4  1  0
  6  8  1  0
  6  5  1  0
  6  7  1  1
  8 10  1  0
  9  8  2  0
 11 10  1  0
 11 15  1  0
 11 12  1  6
 12 13  1  0
 13 14  2  0
 13 17  1  0
 15 16  2  0
 15 20  1  0
 19 21  1  0
 19 18  1  1
 20 19  1  0
 21 22  1  0
 23 21  2  0
M  END
$$$$
