QDA.pdb
     RDKit          3D

 23 22  0  0  1  0  0  0  0  0999 V2000
    9.6185  -13.6054   19.4929 N   0  0  0  0  0  0  0  0  0  0  0  0
    8.3455  -13.0942   19.0647 C   0  0  0  0  0  0  0  0  0  0  0  0
    8.2328  -12.7002   17.8724 O   0  0  0  0  0  0  0  0  0  0  0  0
    7.2519  -13.0679   20.0615 C   0  0  0  0  0  0  0  0  0  0  0  0
    7.6667  -13.6299   21.4010 C   0  0  0  0  0  0  0  0  0  0  0  0
    7.8635  -15.1487   21.2989 C   0  0  2  0  0  0  0  0  0  0  0  0
    6.4977  -15.6588   21.0794 N   0  0  0  0  0  0  0  0  0  0  0  0
    8.3174  -15.6387   22.6176 C   0  0  0  0  0  0  0  0  0  0  0  0
    7.5026  -15.7116   23.5631 O   0  0  0  0  0  0  0  0  0  0  0  0
    9.6560  -16.0489   22.9032 N   0  0  0  0  0  0  0  0  0  0  0  0
   10.0282  -16.5673   24.2129 C   0  0  1  0  0  0  0  0  0  0  0  0
   11.2532  -17.4662   24.0929 C   0  0  0  0  0  0  0  0  0  0  0  0
   11.0509  -18.5222   23.0836 C   0  0  0  0  0  0  0  0  0  0  0  0
    9.9705  -19.1640   23.0153 O   0  0  0  0  0  0  0  0  0  0  0  0
   10.2193  -15.5176   25.2168 C   0  0  0  0  0  0  0  0  0  0  0  0
   10.8533  -14.4447   24.9228 O   0  0  0  0  0  0  0  0  0  0  0  0
   12.0552  -18.8354   22.1793 O   0  0  0  0  0  0  0  0  0  0  0  0
    9.0037  -13.5160   27.6595 C   0  0  0  0  0  0  0  0  0  0  0  0
   10.1302  -14.5534   27.5393 C   0  0  2  0  0  0  0  0  0  0  0  0
    9.7422  -15.5757   26.5617 N   0  0  0  0  0  0  0  0  0  0  0  0
   10.3460  -15.1377   28.8775 C   0  0  0  0  0  0  0  0  0  0  0  0
   10.8228  -14.3597   29.9254 O   0  0  0  0  0  0  0  0  0  0  0  0
   10.0866  -16.3660   29.0484 O   0  0  0  0  0  0  0  0  0  0  0  0
  2  1  1  0
  2  3  2  0
  4  2  1  0
  5  4  1  0
  6  8  1  0
  6  5  1  0
  6  7  1  1
  8 10  1  0
  9  8  2  0
 11 10  1  0
 11 15  1  0
 11 12  1  6
 12 13  1  0
 13 14  2  0
 13 17  1  0
 15 16  2  0
 15 20  1  0
 19 21  1  0
 19 18  1  1
 20 19  1  0
 21 22  1  0
 23 21  2  0
M  END
$$$$
