QDA.pdb
     RDKit          3D

 23 22  0  0  1  0  0  0  0  0999 V2000
    9.2454  -12.4157   19.0851 N   0  0  0  0  0  0  0  0  0  0  0  0
    8.3662  -13.2126   18.2743 C   0  0  0  0  0  0  0  0  0  0  0  0
    8.4603  -13.1144   17.0209 O   0  0  0  0  0  0  0  0  0  0  0  0
    7.4082  -14.0968   18.9748 C   0  0  0  0  0  0  0  0  0  0  0  0
    7.4924  -13.9772   20.4784 C   0  0  0  0  0  0  0  0  0  0  0  0
    8.8859  -14.3984   20.9649 C   0  0  2  0  0  0  0  0  0  0  0  0
    9.2771  -15.4559   20.0148 N   0  0  0  0  0  0  0  0  0  0  0  0
    8.7336  -15.0259   22.2946 C   0  0  0  0  0  0  0  0  0  0  0  0
    7.7917  -14.6756   23.0384 O   0  0  0  0  0  0  0  0  0  0  0  0
    9.6057  -16.0334   22.8103 N   0  0  0  0  0  0  0  0  0  0  0  0
    9.4830  -16.5156   24.1797 C   0  0  1  0  0  0  0  0  0  0  0  0
   10.2727  -17.8074   24.3541 C   0  0  0  0  0  0  0  0  0  0  0  0
    9.7125  -18.8974   23.5339 C   0  0  0  0  0  0  0  0  0  0  0  0
    9.7677  -18.8655   22.2770 O   0  0  0  0  0  0  0  0  0  0  0  0
    9.8525  -15.5120   25.1809 C   0  0  0  0  0  0  0  0  0  0  0  0
   11.0642  -15.1108   25.2827 O   0  0  0  0  0  0  0  0  0  0  0  0
    9.1064  -19.9917   24.1337 O   0  0  0  0  0  0  0  0  0  0  0  0
    8.3206  -13.0374   27.5573 C   0  0  0  0  0  0  0  0  0  0  0  0
    9.4377  -14.0138   27.1595 C   0  0  2  0  0  0  0  0  0  0  0  0
    8.9465  -14.9043   26.1027 N   0  0  0  0  0  0  0  0  0  0  0  0
    9.8245  -14.7686   28.3677 C   0  0  0  0  0  0  0  0  0  0  0  0
   10.5700  -14.1673   29.3743 O   0  0  0  0  0  0  0  0  0  0  0  0
    9.4607  -15.9783   28.4653 O   0  0  0  0  0  0  0  0  0  0  0  0
  2  1  1  0
  2  3  2  0
  4  2  1  0
  5  4  1  0
  6  8  1  0
  6  5  1  0
  6  7  1  6
  8 10  1  0
  9  8  2  0
 11 10  1  0
 11 15  1  0
 11 12  1  6
 12 13  1  0
 13 14  2  0
 13 17  1  0
 15 16  2  0
 15 20  1  0
 19 21  1  0
 19 18  1  1
 20 19  1  0
 21 22  1  0
 23 21  2  0
M  END
$$$$
