QDA.pdb
     RDKit          3D

 23 22  0  0  1  0  0  0  0  0999 V2000
   13.1289  -19.8828   12.7635 N   0  0  0  0  0  0  0  0  0  0  0  0
   12.3853  -18.7182   13.1586 C   0  0  0  0  0  0  0  0  0  0  0  0
   11.4428  -18.3331   12.4150 O   0  0  0  0  0  0  0  0  0  0  0  0
   12.7826  -18.0516   14.4188 C   0  0  0  0  0  0  0  0  0  0  0  0
   12.1335  -18.6664   15.6366 C   0  0  0  0  0  0  0  0  0  0  0  0
   12.5974  -17.9397   16.9064 C   0  0  2  0  0  0  0  0  0  0  0  0
   14.0338  -18.2636   16.9831 N   0  0  0  0  0  0  0  0  0  0  0  0
   11.9331  -18.5758   18.0636 C   0  0  0  0  0  0  0  0  0  0  0  0
   10.7860  -18.2066   18.3967 O   0  0  0  0  0  0  0  0  0  0  0  0
   12.5184  -19.6123   18.8539 N   0  0  0  0  0  0  0  0  0  0  0  0
   11.8641  -20.1119   20.0560 C   0  0  1  0  0  0  0  0  0  0  0  0
   12.3912  -21.4994   20.4025 C   0  0  0  0  0  0  0  0  0  0  0  0
   11.6302  -22.1044   21.5114 C   0  0  0  0  0  0  0  0  0  0  0  0
   10.3740  -22.1746   21.4814 O   0  0  0  0  0  0  0  0  0  0  0  0
   11.9630  -19.1924   21.1922 C   0  0  0  0  0  0  0  0  0  0  0  0
   11.5218  -19.5336   22.3448 O   0  0  0  0  0  0  0  0  0  0  0  0
   12.2868  -22.6137   22.6222 O   0  0  0  0  0  0  0  0  0  0  0  0
   11.0983  -16.4015   22.4550 C   0  0  0  0  0  0  0  0  0  0  0  0
   12.5037  -17.0047   22.3117 C   0  0  2  0  0  0  0  0  0  0  0  0
   12.5338  -17.8843   21.1384 N   0  0  0  0  0  0  0  0  0  0  0  0
   12.8017  -17.7463   23.5526 C   0  0  0  0  0  0  0  0  0  0  0  0
   13.8127  -17.3256   24.4080 O   0  0  0  0  0  0  0  0  0  0  0  0
   12.1139  -18.7763   23.8197 O   0  0  0  0  0  0  0  0  0  0  0  0
  2  1  1  0
  2  3  2  0
  4  2  1  0
  5  4  1  0
  6  8  1  0
  6  5  1  0
  6  7  1  1
  8 10  1  0
  9  8  2  0
 11 10  1  0
 11 15  1  0
 11 12  1  1
 12 13  1  0
 13 14  2  0
 13 17  1  0
 15 16  2  0
 15 20  1  0
 19 21  1  0
 19 18  1  1
 20 19  1  0
 21 22  1  0
 23 21  2  0
M  END
$$$$
