QDA.pdb
     RDKit          3D

 23 22  0  0  1  0  0  0  0  0999 V2000
   10.3175  -12.9535   20.2424 N   0  0  0  0  0  0  0  0  0  0  0  0
    9.2244  -12.5083   19.4224 C   0  0  0  0  0  0  0  0  0  0  0  0
    9.4931  -11.8978   18.3525 O   0  0  0  0  0  0  0  0  0  0  0  0
    7.8536  -12.8015   19.8968 C   0  0  0  0  0  0  0  0  0  0  0  0
    7.8353  -13.5410   21.2140 C   0  0  0  0  0  0  0  0  0  0  0  0
    8.3975  -14.9577   21.0327 C   0  0  2  0  0  0  0  0  0  0  0  0
    7.3472  -15.6488   20.2626 N   0  0  0  0  0  0  0  0  0  0  0  0
    8.4671  -15.5939   22.3650 C   0  0  0  0  0  0  0  0  0  0  0  0
    7.4482  -15.6242   23.0889 O   0  0  0  0  0  0  0  0  0  0  0  0
    9.6448  -16.1963   22.9052 N   0  0  0  0  0  0  0  0  0  0  0  0
    9.6684  -16.7390   24.2571 C   0  0  1  0  0  0  0  0  0  0  0  0
   10.4952  -18.0189   24.2947 C   0  0  0  0  0  0  0  0  0  0  0  0
   10.4586  -18.6460   25.6289 C   0  0  0  0  0  0  0  0  0  0  0  0
    9.6411  -18.2677   26.5078 O   0  0  0  0  0  0  0  0  0  0  0  0
   10.1176  -15.7708   25.2607 C   0  0  0  0  0  0  0  0  0  0  0  0
   11.3166  -15.3219   25.2397 O   0  0  0  0  0  0  0  0  0  0  0  0
   11.3320  -19.6754   25.9486 O   0  0  0  0  0  0  0  0  0  0  0  0
    8.6910  -13.2694   27.6149 C   0  0  0  0  0  0  0  0  0  0  0  0
    9.8287  -14.2248   27.2248 C   0  0  2  0  0  0  0  0  0  0  0  0
    9.3070  -15.2502   26.3150 N   0  0  0  0  0  0  0  0  0  0  0  0
   10.3586  -14.8213   28.4666 C   0  0  0  0  0  0  0  0  0  0  0  0
   11.0603  -14.0490   29.3843 O   0  0  0  0  0  0  0  0  0  0  0  0
   10.1590  -16.0548   28.6764 O   0  0  0  0  0  0  0  0  0  0  0  0
  2  1  1  0
  2  3  2  0
  4  2  1  0
  5  4  1  0
  6  8  1  0
  6  5  1  0
  6  7  1  6
  8 10  1  0
  9  8  2  0
 11 10  1  0
 11 15  1  0
 11 12  1  6
 12 13  1  0
 13 14  2  0
 13 17  1  0
 15 16  2  0
 15 20  1  0
 19 21  1  0
 19 18  1  1
 20 19  1  0
 21 22  1  0
 23 21  2  0
M  END
$$$$
