QDA.pdb
     RDKit          3D

 23 22  0  0  1  0  0  0  0  0999 V2000
    7.8001  -11.6933   18.4221 N   0  0  0  0  0  0  0  0  0  0  0  0
    8.7317  -12.6806   18.8940 C   0  0  0  0  0  0  0  0  0  0  0  0
    9.9433  -12.3504   19.0055 O   0  0  0  0  0  0  0  0  0  0  0  0
    8.1969  -14.0221   19.2172 C   0  0  0  0  0  0  0  0  0  0  0  0
    8.2427  -14.3304   20.6954 C   0  0  0  0  0  0  0  0  0  0  0  0
    7.7120  -15.7467   20.9567 C   0  0  2  0  0  0  0  0  0  0  0  0
    6.2866  -15.6530   20.5913 N   0  0  0  0  0  0  0  0  0  0  0  0
    7.7851  -15.9992   22.4113 C   0  0  0  0  0  0  0  0  0  0  0  0
    6.8456  -15.6318   23.1498 O   0  0  0  0  0  0  0  0  0  0  0  0
    8.8797  -16.6518   23.0577 N   0  0  0  0  0  0  0  0  0  0  0  0
    8.8790  -16.8920   24.4947 C   0  0  1  0  0  0  0  0  0  0  0  0
    9.7043  -18.1314   24.8200 C   0  0  0  0  0  0  0  0  0  0  0  0
    9.1223  -19.3423   24.2121 C   0  0  0  0  0  0  0  0  0  0  0  0
    9.6570  -19.8968   23.2169 O   0  0  0  0  0  0  0  0  0  0  0  0
    9.3110  -15.7298   25.2750 C   0  0  0  0  0  0  0  0  0  0  0  0
   10.4375  -15.1696   25.0373 O   0  0  0  0  0  0  0  0  0  0  0  0
    7.9622  -19.9023   24.7271 O   0  0  0  0  0  0  0  0  0  0  0  0
    7.9500  -13.0643   27.4973 C   0  0  0  0  0  0  0  0  0  0  0  0
    9.1018  -13.9922   27.0829 C   0  0  2  0  0  0  0  0  0  0  0  0
    8.5593  -15.1279   26.3298 N   0  0  0  0  0  0  0  0  0  0  0  0
    9.7853  -14.4352   28.3138 C   0  0  0  0  0  0  0  0  0  0  0  0
   10.4946  -13.5337   29.0980 O   0  0  0  0  0  0  0  0  0  0  0  0
    9.7105  -15.6576   28.6387 O   0  0  0  0  0  0  0  0  0  0  0  0
  2  1  1  0
  2  3  2  0
  4  2  1  0
  5  4  1  0
  6  8  1  0
  6  5  1  0
  6  7  1  1
  8 10  1  0
  9  8  2  0
 11 10  1  0
 11 15  1  0
 11 12  1  6
 12 13  1  0
 13 14  2  0
 13 17  1  0
 15 16  2  0
 15 20  1  0
 19 21  1  0
 19 18  1  1
 20 19  1  0
 21 22  1  0
 23 21  2  0
M  END
$$$$
