QDA.pdb
     RDKit          3D

 23 22  0  0  1  0  0  0  0  0999 V2000
    8.4574  -12.4745   19.5050 N   0  0  0  0  0  0  0  0  0  0  0  0
    8.0799  -13.5130   18.5862 C   0  0  0  0  0  0  0  0  0  0  0  0
    8.1737  -13.2780   17.3511 O   0  0  0  0  0  0  0  0  0  0  0  0
    7.6056  -14.7917   19.1609 C   0  0  0  0  0  0  0  0  0  0  0  0
    7.5175  -14.7592   20.6687 C   0  0  0  0  0  0  0  0  0  0  0  0
    8.9217  -14.6463   21.2779 C   0  0  2  0  0  0  0  0  0  0  0  0
    9.7480  -15.4922   20.3972 N   0  0  0  0  0  0  0  0  0  0  0  0
    8.8922  -15.2838   22.6112 C   0  0  0  0  0  0  0  0  0  0  0  0
    8.0118  -14.9525   23.4347 O   0  0  0  0  0  0  0  0  0  0  0  0
    9.8200  -16.2806   23.0440 N   0  0  0  0  0  0  0  0  0  0  0  0
    9.7585  -16.8435   24.3864 C   0  0  1  0  0  0  0  0  0  0  0  0
   10.5274  -18.1584   24.4400 C   0  0  0  0  0  0  0  0  0  0  0  0
   10.5311  -18.7264   25.8009 C   0  0  0  0  0  0  0  0  0  0  0  0
    9.4831  -19.1931   26.3182 O   0  0  0  0  0  0  0  0  0  0  0  0
   10.2022  -15.9105   25.4251 C   0  0  0  0  0  0  0  0  0  0  0  0
   11.3815  -15.4129   25.3911 O   0  0  0  0  0  0  0  0  0  0  0  0
   11.6993  -18.7590   26.5485 O   0  0  0  0  0  0  0  0  0  0  0  0
    9.0325  -13.4379   27.8303 C   0  0  0  0  0  0  0  0  0  0  0  0
    9.9778  -14.6213   27.5742 C   0  0  2  0  0  0  0  0  0  0  0  0
    9.4067  -15.4777   26.5295 N   0  0  0  0  0  0  0  0  0  0  0  0
   10.1363  -15.3518   28.8471 C   0  0  0  0  0  0  0  0  0  0  0  0
   10.7399  -14.7485   29.9437 O   0  0  0  0  0  0  0  0  0  0  0  0
    9.7091  -16.5426   28.9163 O   0  0  0  0  0  0  0  0  0  0  0  0
  2  1  1  0
  2  3  2  0
  4  2  1  0
  5  4  1  0
  6  8  1  0
  6  5  1  0
  6  7  1  6
  8 10  1  0
  9  8  2  0
 11 10  1  0
 11 15  1  0
 11 12  1  6
 12 13  1  0
 13 14  2  0
 13 17  1  0
 15 16  2  0
 15 20  1  0
 19 21  1  0
 19 18  1  1
 20 19  1  0
 21 22  1  0
 23 21  2  0
M  END
$$$$
