QDA.pdb
     RDKit          3D

 23 22  0  0  1  0  0  0  0  0999 V2000
    9.6849  -13.7114   19.8437 N   0  0  0  0  0  0  0  0  0  0  0  0
    8.4639  -13.1208   19.3689 C   0  0  0  0  0  0  0  0  0  0  0  0
    8.4196  -12.7258   18.1725 O   0  0  0  0  0  0  0  0  0  0  0  0
    7.3394  -13.0191   20.3258 C   0  0  0  0  0  0  0  0  0  0  0  0
    7.6589  -13.6260   21.6718 C   0  0  0  0  0  0  0  0  0  0  0  0
    7.6574  -15.1578   21.5746 C   0  0  2  0  0  0  0  0  0  0  0  0
    6.2311  -15.4905   21.4044 N   0  0  0  0  0  0  0  0  0  0  0  0
    8.0896  -15.6974   22.8812 C   0  0  0  0  0  0  0  0  0  0  0  0
    7.3093  -15.6511   23.8570 O   0  0  0  0  0  0  0  0  0  0  0  0
    9.3689  -16.2866   23.1217 N   0  0  0  0  0  0  0  0  0  0  0  0
    9.7143  -16.8475   24.4212 C   0  0  1  0  0  0  0  0  0  0  0  0
   10.8286  -17.8763   24.2695 C   0  0  0  0  0  0  0  0  0  0  0  0
   11.0260  -18.6453   25.5123 C   0  0  0  0  0  0  0  0  0  0  0  0
   10.2887  -18.4669   26.5165 O   0  0  0  0  0  0  0  0  0  0  0  0
   10.0459  -15.8289   25.4205 C   0  0  0  0  0  0  0  0  0  0  0  0
   11.0968  -15.1089   25.2907 O   0  0  0  0  0  0  0  0  0  0  0  0
   12.0375  -19.5903   25.6039 O   0  0  0  0  0  0  0  0  0  0  0  0
    8.5893  -13.6610   27.9938 C   0  0  0  0  0  0  0  0  0  0  0  0
    9.7482  -14.5833   27.5864 C   0  0  2  0  0  0  0  0  0  0  0  0
    9.2713  -15.5442   26.5862 N   0  0  0  0  0  0  0  0  0  0  0  0
   10.2292  -15.2635   28.8050 C   0  0  0  0  0  0  0  0  0  0  0  0
   10.8361  -14.5457   29.8283 O   0  0  0  0  0  0  0  0  0  0  0  0
   10.0760  -16.5179   28.8959 O   0  0  0  0  0  0  0  0  0  0  0  0
  2  1  1  0
  2  3  2  0
  4  2  1  0
  5  4  1  0
  6  8  1  0
  6  5  1  0
  6  7  1  1
  8 10  1  0
  9  8  2  0
 11 10  1  0
 11 15  1  0
 11 12  1  6
 12 13  1  0
 13 14  2  0
 13 17  1  0
 15 16  2  0
 15 20  1  0
 19 21  1  0
 19 18  1  1
 20 19  1  0
 21 22  1  0
 23 21  2  0
M  END
$$$$
