QKC.pdb
     RDKit          3D

 25 24  0  0  1  0  0  0  0  0999 V2000
   30.4571  -19.7384  -20.9403 N   0  0  0  0  0  0  0  0  0  0  0  0
   31.2965  -19.9147  -19.8210 C   0  0  0  0  0  0  0  0  0  0  0  0
   32.3155  -19.1940  -19.6683 O   0  0  0  0  0  0  0  0  0  0  0  0
   31.0176  -20.9440  -18.7891 C   0  0  0  0  0  0  0  0  0  0  0  0
   29.7935  -21.7626  -19.1355 C   0  0  0  0  0  0  0  0  0  0  0  0
   29.3229  -22.4821  -17.8862 C   0  0  2  0  0  0  0  0  0  0  0  0
   30.3488  -23.3816  -17.3952 N   0  0  0  0  0  0  0  0  0  0  0  0
   28.0762  -23.2819  -18.1916 C   0  0  0  0  0  0  0  0  0  0  0  0
   27.6323  -23.3109  -19.3538 O   0  0  0  0  0  0  0  0  0  0  0  0
   27.4048  -23.9988  -17.1771 N   0  0  0  0  0  0  0  0  0  0  0  0
   26.3234  -24.9838  -17.4745 C   0  0  1  0  0  0  0  0  0  0  0  0
   26.5610  -26.2145  -16.6751 C   0  0  0  0  0  0  0  0  0  0  0  0
   27.4127  -27.2318  -17.3160 C   0  0  0  0  0  0  0  0  0  0  0  0
   27.5901  -28.5059  -16.5300 C   0  0  0  0  0  0  0  0  0  0  0  0
   28.4812  -29.4888  -17.2899 C   0  0  0  0  0  0  0  0  0  0  0  0
   28.7073  -30.6640  -16.4340 N   0  0  0  0  0  0  0  0  0  0  0  0
   25.0526  -24.2865  -17.2852 C   0  0  0  0  0  0  0  0  0  0  0  0
   24.9994  -23.4917  -16.2716 O   0  0  0  0  0  0  0  0  0  0  0  0
   23.9063  -24.3956  -18.0895 N   0  0  0  0  0  0  0  0  0  0  0  0
   22.7247  -23.6092  -17.7467 C   0  0  1  0  0  0  0  0  0  0  0  0
   22.2519  -22.8134  -18.9419 C   0  0  0  0  0  0  0  0  0  0  0  0
   22.0296  -23.9175  -20.3389 S   0  0  0  0  0  0  0  0  0  0  0  0
   21.6837  -24.5172  -17.2430 C   0  0  0  0  0  0  0  0  0  0  0  0
   21.8773  -25.8851  -17.2421 O   0  0  0  0  0  0  0  0  0  0  0  0
   20.5721  -24.1173  -16.7894 O   0  0  0  0  0  0  0  0  0  0  0  0
  2  1  1  0
  2  4  1  0
  3  2  2  0
  5  4  1  0
  6  5  1  0
  6  7  1  6
  8  6  1  0
  8 10  1  0
  9  8  2  0
 10 11  1  0
 11 12  1  1
 12 13  1  0
 13 14  1  0
 14 15  1  0
 15 16  1  0
 17 18  2  0
 17 11  1  0
 19 17  1  0
 20 19  1  0
 20 23  1  0
 20 21  1  6
 22 21  1  0
 23 24  1  0
 25 23  2  0
M  END
$$$$
