QKC.pdb
     RDKit          3D

 25 24  0  0  1  0  0  0  0  0999 V2000
   24.5773  -38.9481  -18.2733 N   0  0  0  0  0  0  0  0  0  0  0  0
   25.2515  -38.8871  -17.0363 C   0  0  0  0  0  0  0  0  0  0  0  0
   24.6610  -39.2032  -15.9720 O   0  0  0  0  0  0  0  0  0  0  0  0
   26.6672  -38.4535  -16.9381 C   0  0  0  0  0  0  0  0  0  0  0  0
   27.2337  -38.0904  -18.2930 C   0  0  0  0  0  0  0  0  0  0  0  0
   28.5410  -37.3495  -18.0883 C   0  0  2  0  0  0  0  0  0  0  0  0
   29.5079  -38.1925  -17.4122 N   0  0  0  0  0  0  0  0  0  0  0  0
   28.3051  -36.1099  -17.2545 C   0  0  0  0  0  0  0  0  0  0  0  0
   28.4765  -36.1544  -16.0227 O   0  0  0  0  0  0  0  0  0  0  0  0
   27.8923  -34.8989  -17.8518 N   0  0  0  0  0  0  0  0  0  0  0  0
   27.7641  -33.6281  -17.0793 C   0  0  1  0  0  0  0  0  0  0  0  0
   27.9445  -32.4810  -18.0075 C   0  0  0  0  0  0  0  0  0  0  0  0
   28.6999  -31.3387  -17.4637 C   0  0  0  0  0  0  0  0  0  0  0  0
   30.1888  -31.3872  -17.6950 C   0  0  0  0  0  0  0  0  0  0  0  0
   30.8793  -30.2054  -17.0137 C   0  0  0  0  0  0  0  0  0  0  0  0
   32.3330  -30.3644  -17.1748 N   0  0  0  0  0  0  0  0  0  0  0  0
   26.5072  -33.7093  -16.3372 C   0  0  0  0  0  0  0  0  0  0  0  0
   25.5592  -34.3622  -16.9177 O   0  0  0  0  0  0  0  0  0  0  0  0
   26.2401  -33.1567  -15.0738 N   0  0  0  0  0  0  0  0  0  0  0  0
   24.9217  -33.3571  -14.4789 C   0  0  1  0  0  0  0  0  0  0  0  0
   24.9820  -33.1705  -12.9800 C   0  0  0  0  0  0  0  0  0  0  0  0
   23.3299  -33.3238  -12.2966 S   0  0  0  0  0  0  0  0  0  0  0  0
   23.9729  -32.4292  -15.1116 C   0  0  0  0  0  0  0  0  0  0  0  0
   22.7003  -32.8429  -15.4555 O   0  0  0  0  0  0  0  0  0  0  0  0
   24.2509  -31.2232  -15.3760 O   0  0  0  0  0  0  0  0  0  0  0  0
  2  1  1  0
  2  4  1  0
  3  2  2  0
  5  4  1  0
  6  5  1  0
  6  7  1  1
  8  6  1  0
  8 10  1  0
  9  8  2  0
 10 11  1  0
 11 12  1  6
 12 13  1  0
 13 14  1  0
 14 15  1  0
 15 16  1  0
 17 18  2  0
 17 11  1  0
 19 17  1  0
 20 19  1  0
 20 23  1  0
 20 21  1  1
 22 21  1  0
 23 24  1  0
 25 23  2  0
M  END
$$$$
