QKC.pdb
     RDKit          3D

 25 24  0  0  1  0  0  0  0  0999 V2000
   10.6958  -13.2859   -9.7804 N   0  0  0  0  0  0  0  0  0  0  0  0
   10.4058  -12.9769  -11.1254 C   0  0  0  0  0  0  0  0  0  0  0  0
    9.3336  -13.3687  -11.6528 O   0  0  0  0  0  0  0  0  0  0  0  0
   11.3402  -12.1870  -11.9650 C   0  0  0  0  0  0  0  0  0  0  0  0
   12.5637  -11.7589  -11.1851 C   0  0  0  0  0  0  0  0  0  0  0  0
   13.7998  -12.1294  -11.9818 C   0  0  2  0  0  0  0  0  0  0  0  0
   14.2409  -13.4703  -11.6500 N   0  0  0  0  0  0  0  0  0  0  0  0
   14.9181  -11.1574  -11.6785 C   0  0  0  0  0  0  0  0  0  0  0  0
   15.5823  -11.2891  -10.6345 O   0  0  0  0  0  0  0  0  0  0  0  0
   15.2225  -10.0995  -12.5628 N   0  0  0  0  0  0  0  0  0  0  0  0
   16.3417   -9.1440  -12.3128 C   0  0  1  0  0  0  0  0  0  0  0  0
   16.8870   -8.6900  -13.6192 C   0  0  0  0  0  0  0  0  0  0  0  0
   17.9928   -7.7193  -13.5412 C   0  0  0  0  0  0  0  0  0  0  0  0
   19.3551   -8.3186  -13.3014 C   0  0  0  0  0  0  0  0  0  0  0  0
   20.4325   -7.2340  -13.3207 C   0  0  0  0  0  0  0  0  0  0  0  0
   21.7491   -7.8902  -13.2936 N   0  0  0  0  0  0  0  0  0  0  0  0
   15.8304   -8.1235  -11.3994 C   0  0  0  0  0  0  0  0  0  0  0  0
   14.5637   -7.8955  -11.4723 O   0  0  0  0  0  0  0  0  0  0  0  0
   16.5737   -7.3839  -10.4649 N   0  0  0  0  0  0  0  0  0  0  0  0
   15.8872   -6.3936   -9.6401 C   0  0  1  0  0  0  0  0  0  0  0  0
   14.9025   -7.0671   -8.7117 C   0  0  0  0  0  0  0  0  0  0  0  0
   14.3413   -5.8848   -7.4840 S   0  0  0  0  0  0  0  0  0  0  0  0
   16.8931   -5.6138   -8.9041 C   0  0  0  0  0  0  0  0  0  0  0  0
   16.6654   -4.2900   -8.5809 O   0  0  0  0  0  0  0  0  0  0  0  0
   18.0037   -6.0901   -8.5281 O   0  0  0  0  0  0  0  0  0  0  0  0
  2  1  1  0
  2  4  1  0
  3  2  2  0
  5  4  1  0
  6  5  1  0
  6  7  1  1
  8  6  1  0
  8 10  1  0
  9  8  2  0
 10 11  1  0
 11 12  1  6
 12 13  1  0
 13 14  1  0
 14 15  1  0
 15 16  1  0
 17 18  2  0
 17 11  1  0
 19 17  1  0
 20 19  1  0
 20 23  1  0
 20 21  1  1
 22 21  1  0
 23 24  1  0
 25 23  2  0
M  END
$$$$
