QKC.pdb
     RDKit          3D

 25 24  0  0  1  0  0  0  0  0999 V2000
   16.5035  -18.6330  -14.2371 N   0  0  0  0  0  0  0  0  0  0  0  0
   16.7684  -18.6151  -15.6220 C   0  0  0  0  0  0  0  0  0  0  0  0
   16.0466  -17.9414  -16.4006 O   0  0  0  0  0  0  0  0  0  0  0  0
   17.8948  -19.3798  -16.2124 C   0  0  0  0  0  0  0  0  0  0  0  0
   18.6521  -20.1582  -15.1594 C   0  0  0  0  0  0  0  0  0  0  0  0
   19.8869  -19.3692  -14.7687 C   0  0  2  0  0  0  0  0  0  0  0  0
   20.3677  -18.5819  -15.8874 N   0  0  0  0  0  0  0  0  0  0  0  0
   20.9830  -20.3135  -14.3280 C   0  0  0  0  0  0  0  0  0  0  0  0
   20.7515  -21.1545  -13.4405 O   0  0  0  0  0  0  0  0  0  0  0  0
   22.2690  -20.2570  -14.9084 N   0  0  0  0  0  0  0  0  0  0  0  0
   23.3722  -21.1763  -14.5012 C   0  0  1  0  0  0  0  0  0  0  0  0
   24.2551  -21.4164  -15.6729 C   0  0  0  0  0  0  0  0  0  0  0  0
   25.4496  -22.2377  -15.4085 C   0  0  0  0  0  0  0  0  0  0  0  0
   26.3969  -22.3832  -16.5721 C   0  0  0  0  0  0  0  0  0  0  0  0
   27.5865  -23.2653  -16.1921 C   0  0  0  0  0  0  0  0  0  0  0  0
   28.4792  -23.3641  -17.3574 N   0  0  0  0  0  0  0  0  0  0  0  0
   23.9787  -20.6033  -13.3008 C   0  0  0  0  0  0  0  0  0  0  0  0
   23.9778  -19.3158  -13.2370 O   0  0  0  0  0  0  0  0  0  0  0  0
   24.5488  -21.3092  -12.2286 N   0  0  0  0  0  0  0  0  0  0  0  0
   25.3133  -20.5740  -11.2249 C   0  0  1  0  0  0  0  0  0  0  0  0
   24.5381  -20.4814   -9.9304 C   0  0  0  0  0  0  0  0  0  0  0  0
   25.6854  -20.2790   -8.5656 S   0  0  0  0  0  0  0  0  0  0  0  0
   26.6126  -21.2374  -11.0425 C   0  0  0  0  0  0  0  0  0  0  0  0
   27.6770  -20.5653  -10.4732 O   0  0  0  0  0  0  0  0  0  0  0  0
   26.8363  -22.4349  -11.3853 O   0  0  0  0  0  0  0  0  0  0  0  0
  2  1  1  0
  2  4  1  0
  3  2  2  0
  5  4  1  0
  6  5  1  0
  6  7  1  6
  8  6  1  0
  8 10  1  0
  9  8  2  0
 10 11  1  0
 11 12  1  6
 12 13  1  0
 13 14  1  0
 14 15  1  0
 15 16  1  0
 17 18  2  0
 17 11  1  0
 19 17  1  0
 20 19  1  0
 20 23  1  0
 20 21  1  1
 22 21  1  0
 23 24  1  0
 25 23  2  0
M  END
$$$$
