QKC.pdb
     RDKit          3D

 25 24  0  0  1  0  0  0  0  0999 V2000
   17.2056   -9.9007  -19.1890 N   0  0  0  0  0  0  0  0  0  0  0  0
   16.1851  -10.6670  -18.5890 C   0  0  0  0  0  0  0  0  0  0  0  0
   15.3206  -11.2435  -19.2970 O   0  0  0  0  0  0  0  0  0  0  0  0
   16.0886  -10.8240  -17.1166 C   0  0  0  0  0  0  0  0  0  0  0  0
   17.1632  -10.0358  -16.4007 C   0  0  0  0  0  0  0  0  0  0  0  0
   18.4226  -10.8785  -16.3404 C   0  0  2  0  0  0  0  0  0  0  0  0
   18.1742  -12.1225  -15.6378 N   0  0  0  0  0  0  0  0  0  0  0  0
   19.5154  -10.1201  -15.6209 C   0  0  0  0  0  0  0  0  0  0  0  0
   19.3094   -9.6830  -14.4741 O   0  0  0  0  0  0  0  0  0  0  0  0
   20.7699   -9.8987  -16.2301 N   0  0  0  0  0  0  0  0  0  0  0  0
   21.8990   -9.2309  -15.5179 C   0  0  1  0  0  0  0  0  0  0  0  0
   23.1795   -9.6551  -16.1428 C   0  0  0  0  0  0  0  0  0  0  0  0
   23.6989  -10.9607  -15.6993 C   0  0  0  0  0  0  0  0  0  0  0  0
   25.0865  -11.2959  -16.1840 C   0  0  0  0  0  0  0  0  0  0  0  0
   25.5365  -12.6507  -15.6365 C   0  0  0  0  0  0  0  0  0  0  0  0
   26.8792  -12.9393  -16.1644 N   0  0  0  0  0  0  0  0  0  0  0  0
   21.5969   -7.8007  -15.4937 C   0  0  0  0  0  0  0  0  0  0  0  0
   21.1844   -7.3000  -16.6077 O   0  0  0  0  0  0  0  0  0  0  0  0
   21.7081   -6.9370  -14.3917 N   0  0  0  0  0  0  0  0  0  0  0  0
   21.3931   -5.5220  -14.5679 C   0  0  1  0  0  0  0  0  0  0  0  0
   20.0347   -5.2044  -13.9856 C   0  0  0  0  0  0  0  0  0  0  0  0
   19.8109   -3.4245  -13.9398 S   0  0  0  0  0  0  0  0  0  0  0  0
   22.4589   -4.7210  -13.9482 C   0  0  0  0  0  0  0  0  0  0  0  0
   22.8879   -3.5430  -14.5288 O   0  0  0  0  0  0  0  0  0  0  0  0
   23.0382   -5.0481  -12.8717 O   0  0  0  0  0  0  0  0  0  0  0  0
  2  1  1  0
  2  4  1  0
  3  2  2  0
  5  4  1  0
  6  5  1  0
  6  7  1  1
  8  6  1  0
  8 10  1  0
  9  8  2  0
 10 11  1  0
 11 12  1  6
 12 13  1  0
 13 14  1  0
 14 15  1  0
 15 16  1  0
 17 18  2  0
 17 11  1  0
 19 17  1  0
 20 19  1  0
 20 23  1  0
 20 21  1  1
 22 21  1  0
 23 24  1  0
 25 23  2  0
M  END
$$$$
