QKC.pdb
     RDKit          3D

 25 24  0  0  1  0  0  0  0  0999 V2000
   20.1060  -16.2663  -17.5787 N   0  0  0  0  0  0  0  0  0  0  0  0
   20.9365  -15.3272  -18.2246 C   0  0  0  0  0  0  0  0  0  0  0  0
   20.5448  -14.1456  -18.4024 O   0  0  0  0  0  0  0  0  0  0  0  0
   22.2896  -15.6877  -18.7156 C   0  0  0  0  0  0  0  0  0  0  0  0
   22.6043  -17.1454  -18.4616 C   0  0  0  0  0  0  0  0  0  0  0  0
   23.1364  -17.2866  -17.0486 C   0  0  2  0  0  0  0  0  0  0  0  0
   24.5642  -17.0360  -17.0107 N   0  0  0  0  0  0  0  0  0  0  0  0
   22.8713  -18.6847  -16.5361 C   0  0  0  0  0  0  0  0  0  0  0  0
   21.7356  -19.1792  -16.6550 O   0  0  0  0  0  0  0  0  0  0  0  0
   23.8940  -19.4410  -15.9230 N   0  0  0  0  0  0  0  0  0  0  0  0
   23.6555  -20.8038  -15.3626 C   0  0  1  0  0  0  0  0  0  0  0  0
   24.9665  -21.4690  -15.1419 C   0  0  0  0  0  0  0  0  0  0  0  0
   25.6967  -21.8509  -16.3634 C   0  0  0  0  0  0  0  0  0  0  0  0
   27.0508  -22.4719  -16.1321 C   0  0  0  0  0  0  0  0  0  0  0  0
   27.7402  -22.7739  -17.4629 C   0  0  0  0  0  0  0  0  0  0  0  0
   29.0884  -23.2896  -17.1782 N   0  0  0  0  0  0  0  0  0  0  0  0
   22.7759  -20.6377  -14.2068 C   0  0  0  0  0  0  0  0  0  0  0  0
   23.2629  -19.9507  -13.2307 O   0  0  0  0  0  0  0  0  0  0  0  0
   21.4734  -21.1432  -14.0626 N   0  0  0  0  0  0  0  0  0  0  0  0
   20.7250  -20.8327  -12.8478 C   0  0  1  0  0  0  0  0  0  0  0  0
   20.5370  -19.3393  -12.7076 C   0  0  0  0  0  0  0  0  0  0  0  0
   20.8226  -18.8635  -11.0011 S   0  0  0  0  0  0  0  0  0  0  0  0
   19.4410  -21.5478  -12.8892 C   0  0  0  0  0  0  0  0  0  0  0  0
   18.7382  -21.8089  -11.7287 O   0  0  0  0  0  0  0  0  0  0  0  0
   18.9089  -21.9603  -13.9607 O   0  0  0  0  0  0  0  0  0  0  0  0
  2  1  1  0
  2  4  1  0
  3  2  2  0
  5  4  1  0
  6  5  1  0
  6  7  1  6
  8  6  1  0
  8 10  1  0
  9  8  2  0
 10 11  1  0
 11 12  1  1
 12 13  1  0
 13 14  1  0
 14 15  1  0
 15 16  1  0
 17 18  2  0
 17 11  1  0
 19 17  1  0
 20 19  1  0
 20 23  1  0
 20 21  1  6
 22 21  1  0
 23 24  1  0
 25 23  2  0
M  END
$$$$
