QKC.pdb
     RDKit          3D

 25 24  0  0  1  0  0  0  0  0999 V2000
   25.0171  -19.4975  -16.9357 N   0  0  0  0  0  0  0  0  0  0  0  0
   26.1737  -19.7170  -16.1594 C   0  0  0  0  0  0  0  0  0  0  0  0
   27.3154  -19.6431  -16.6811 O   0  0  0  0  0  0  0  0  0  0  0  0
   26.0948  -20.0404  -14.7133 C   0  0  0  0  0  0  0  0  0  0  0  0
   24.6640  -20.0517  -14.2223 C   0  0  0  0  0  0  0  0  0  0  0  0
   24.3756  -21.4052  -13.6021 C   0  0  2  0  0  0  0  0  0  0  0  0
   25.1383  -22.4457  -14.2641 N   0  0  0  0  0  0  0  0  0  0  0  0
   22.9025  -21.7246  -13.7255 C   0  0  0  0  0  0  0  0  0  0  0  0
   22.4703  -22.2436  -14.7707 O   0  0  0  0  0  0  0  0  0  0  0  0
   22.0061  -21.4431  -12.6715 N   0  0  0  0  0  0  0  0  0  0  0  0
   20.5702  -21.8489  -12.7118 C   0  0  1  0  0  0  0  0  0  0  0  0
   20.1118  -22.1332  -11.3265 C   0  0  0  0  0  0  0  0  0  0  0  0
   19.4874  -23.4523  -11.1239 C   0  0  0  0  0  0  0  0  0  0  0  0
   19.0127  -23.7271   -9.7197 C   0  0  0  0  0  0  0  0  0  0  0  0
   18.3638  -25.1086   -9.6303 C   0  0  0  0  0  0  0  0  0  0  0  0
   17.9523  -25.3364   -8.2363 N   0  0  0  0  0  0  0  0  0  0  0  0
   19.8596  -20.8153  -13.4629 C   0  0  0  0  0  0  0  0  0  0  0  0
   20.2086  -19.6012  -13.2058 O   0  0  0  0  0  0  0  0  0  0  0  0
   18.8540  -21.0157  -14.4227 N   0  0  0  0  0  0  0  0  0  0  0  0
   18.2511  -19.8529  -15.0684 C   0  0  1  0  0  0  0  0  0  0  0  0
   18.3787  -19.9550  -16.5712 C   0  0  0  0  0  0  0  0  0  0  0  0
   17.5296  -18.5701  -17.3336 S   0  0  0  0  0  0  0  0  0  0  0  0
   16.8483  -19.7503  -14.6405 C   0  0  0  0  0  0  0  0  0  0  0  0
   16.0739  -18.6661  -15.0060 O   0  0  0  0  0  0  0  0  0  0  0  0
   16.2727  -20.6241  -13.9286 O   0  0  0  0  0  0  0  0  0  0  0  0
  2  1  1  0
  2  4  1  0
  3  2  2  0
  5  4  1  0
  6  5  1  0
  6  7  1  6
  8  6  1  0
  8 10  1  0
  9  8  2  0
 10 11  1  0
 11 12  1  1
 12 13  1  0
 13 14  1  0
 14 15  1  0
 15 16  1  0
 17 18  2  0
 17 11  1  0
 19 17  1  0
 20 19  1  0
 20 23  1  0
 20 21  1  6
 22 21  1  0
 23 24  1  0
 25 23  2  0
M  END
$$$$
