QKC.pdb
     RDKit          3D

 25 24  0  0  1  0  0  0  0  0999 V2000
   20.0355  -17.6464  -14.9640 N   0  0  0  0  0  0  0  0  0  0  0  0
   21.3754  -17.6626  -15.4034 C   0  0  0  0  0  0  0  0  0  0  0  0
   21.9905  -16.5862  -15.6138 O   0  0  0  0  0  0  0  0  0  0  0  0
   22.1074  -18.9327  -15.6334 C   0  0  0  0  0  0  0  0  0  0  0  0
   21.2495  -20.1363  -15.3107 C   0  0  0  0  0  0  0  0  0  0  0  0
   21.8617  -20.8643  -14.1296 C   0  0  2  0  0  0  0  0  0  0  0  0
   23.1336  -21.4568  -14.4954 N   0  0  0  0  0  0  0  0  0  0  0  0
   20.9293  -21.9587  -13.6600 C   0  0  0  0  0  0  0  0  0  0  0  0
   20.7355  -22.9542  -14.3812 O   0  0  0  0  0  0  0  0  0  0  0  0
   20.2727  -21.8698  -12.4131 N   0  0  0  0  0  0  0  0  0  0  0  0
   19.3384  -22.9259  -11.9233 C   0  0  1  0  0  0  0  0  0  0  0  0
   19.4750  -23.0418  -10.4475 C   0  0  0  0  0  0  0  0  0  0  0  0
   18.6618  -24.0963   -9.8168 C   0  0  0  0  0  0  0  0  0  0  0  0
   18.9217  -24.3127   -8.3477 C   0  0  0  0  0  0  0  0  0  0  0  0
   17.9446  -25.3383   -7.7724 C   0  0  0  0  0  0  0  0  0  0  0  0
   18.2035  -25.4642   -6.3296 N   0  0  0  0  0  0  0  0  0  0  0  0
   18.0171  -22.6032  -12.4591 C   0  0  0  0  0  0  0  0  0  0  0  0
   17.6254  -21.3881  -12.2801 O   0  0  0  0  0  0  0  0  0  0  0  0
   17.1511  -23.4740  -13.1408 N   0  0  0  0  0  0  0  0  0  0  0  0
   15.9022  -22.9472  -13.6839 C   0  0  1  0  0  0  0  0  0  0  0  0
   15.5815  -23.6022  -15.0081 C   0  0  0  0  0  0  0  0  0  0  0  0
   16.7595  -23.0492  -16.2436 S   0  0  0  0  0  0  0  0  0  0  0  0
   14.8340  -23.1528  -12.6948 C   0  0  0  0  0  0  0  0  0  0  0  0
   15.0236  -23.9884  -11.6111 O   0  0  0  0  0  0  0  0  0  0  0  0
   13.7011  -22.5935  -12.7683 O   0  0  0  0  0  0  0  0  0  0  0  0
  2  1  1  0
  2  4  1  0
  3  2  2  0
  5  4  1  0
  6  5  1  0
  6  7  1  6
  8  6  1  0
  8 10  1  0
  9  8  2  0
 10 11  1  0
 11 12  1  1
 12 13  1  0
 13 14  1  0
 14 15  1  0
 15 16  1  0
 17 18  2  0
 17 11  1  0
 19 17  1  0
 20 19  1  0
 20 23  1  0
 20 21  1  6
 22 21  1  0
 23 24  1  0
 25 23  2  0
M  END
$$$$
