QKC.pdb
     RDKit          3D

 25 24  0  0  1  0  0  0  0  0999 V2000
   26.0569  -19.1142  -16.7567 N   0  0  0  0  0  0  0  0  0  0  0  0
   27.4318  -18.8636  -16.5686 C   0  0  0  0  0  0  0  0  0  0  0  0
   28.1557  -18.5198  -17.5376 O   0  0  0  0  0  0  0  0  0  0  0  0
   28.0751  -18.9930  -15.2376 C   0  0  0  0  0  0  0  0  0  0  0  0
   27.0494  -19.0676  -14.1282 C   0  0  0  0  0  0  0  0  0  0  0  0
   27.1791  -20.4120  -13.4386 C   0  0  2  0  0  0  0  0  0  0  0  0
   27.6154  -21.4291  -14.3756 N   0  0  0  0  0  0  0  0  0  0  0  0
   25.8450  -20.8229  -12.8567 C   0  0  0  0  0  0  0  0  0  0  0  0
   25.1790  -21.7150  -13.4127 O   0  0  0  0  0  0  0  0  0  0  0  0
   25.3404  -20.2095  -11.6892 N   0  0  0  0  0  0  0  0  0  0  0  0
   24.0648  -20.6413  -11.0453 C   0  0  1  0  0  0  0  0  0  0  0  0
   24.0377  -20.1376   -9.6469 C   0  0  0  0  0  0  0  0  0  0  0  0
   22.7636  -20.3247   -8.9308 C   0  0  0  0  0  0  0  0  0  0  0  0
   22.4489  -21.7477   -8.5450 C   0  0  0  0  0  0  0  0  0  0  0  0
   21.1064  -21.8250   -7.8174 C   0  0  0  0  0  0  0  0  0  0  0  0
   20.8010  -23.2411   -7.5607 N   0  0  0  0  0  0  0  0  0  0  0  0
   22.9811  -20.2296  -11.9359 C   0  0  0  0  0  0  0  0  0  0  0  0
   22.9403  -18.9725  -12.2190 O   0  0  0  0  0  0  0  0  0  0  0  0
   22.0001  -21.0585  -12.5047 N   0  0  0  0  0  0  0  0  0  0  0  0
   20.9573  -20.4558  -13.3303 C   0  0  1  0  0  0  0  0  0  0  0  0
   20.8211  -21.1994  -14.6394 C   0  0  0  0  0  0  0  0  0  0  0  0
   22.3817  -21.1351  -15.5228 S   0  0  0  0  0  0  0  0  0  0  0  0
   19.6996  -20.4464  -12.5689 C   0  0  0  0  0  0  0  0  0  0  0  0
   18.7867  -19.4208  -12.7222 O   0  0  0  0  0  0  0  0  0  0  0  0
   19.3784  -21.3520  -11.7453 O   0  0  0  0  0  0  0  0  0  0  0  0
  2  1  1  0
  2  4  1  0
  3  2  2  0
  5  4  1  0
  6  5  1  0
  6  7  1  6
  8  6  1  0
  8 10  1  0
  9  8  2  0
 10 11  1  0
 11 12  1  1
 12 13  1  0
 13 14  1  0
 14 15  1  0
 15 16  1  0
 17 18  2  0
 17 11  1  0
 19 17  1  0
 20 19  1  0
 20 23  1  0
 20 21  1  6
 22 21  1  0
 23 24  1  0
 25 23  2  0
M  END
$$$$
