QKC.pdb
     RDKit          3D

 25 24  0  0  1  0  0  0  0  0999 V2000
   13.3564  -14.3420  -15.1539 N   0  0  0  0  0  0  0  0  0  0  0  0
   14.5121  -14.8996  -15.7387 C   0  0  0  0  0  0  0  0  0  0  0  0
   14.5513  -16.1212  -16.0341 O   0  0  0  0  0  0  0  0  0  0  0  0
   15.7154  -14.0804  -16.0268 C   0  0  0  0  0  0  0  0  0  0  0  0
   15.5198  -12.6385  -15.6130 C   0  0  0  0  0  0  0  0  0  0  0  0
   16.8600  -12.0712  -15.1866 C   0  0  2  0  0  0  0  0  0  0  0  0
   17.4605  -12.8943  -14.1548 N   0  0  0  0  0  0  0  0  0  0  0  0
   16.6781  -10.6690  -14.6497 C   0  0  0  0  0  0  0  0  0  0  0  0
   16.1762   -9.7918  -15.3758 O   0  0  0  0  0  0  0  0  0  0  0  0
   17.0694  -10.3370  -13.3343 N   0  0  0  0  0  0  0  0  0  0  0  0
   16.8660   -8.9751  -12.7581 C   0  0  1  0  0  0  0  0  0  0  0  0
   16.2091   -9.1077  -11.4312 C   0  0  0  0  0  0  0  0  0  0  0  0
   14.7512   -9.3192  -11.4642 C   0  0  0  0  0  0  0  0  0  0  0  0
   14.0988   -9.4932  -10.1164 C   0  0  0  0  0  0  0  0  0  0  0  0
   12.5898   -9.6867  -10.2685 C   0  0  0  0  0  0  0  0  0  0  0  0
   12.0190   -9.9337   -8.9352 N   0  0  0  0  0  0  0  0  0  0  0  0
   18.1599   -8.2966  -12.8099 C   0  0  0  0  0  0  0  0  0  0  0  0
   18.8493   -8.3288  -11.7211 O   0  0  0  0  0  0  0  0  0  0  0  0
   18.7145   -7.6281  -13.9137 N   0  0  0  0  0  0  0  0  0  0  0  0
   20.0256   -7.0006  -13.7744 C   0  0  1  0  0  0  0  0  0  0  0  0
   21.0368   -7.6799  -14.6695 C   0  0  0  0  0  0  0  0  0  0  0  0
   21.3038   -9.3587  -14.0948 S   0  0  0  0  0  0  0  0  0  0  0  0
   19.8972   -5.5676  -14.0772 C   0  0  0  0  0  0  0  0  0  0  0  0
   20.9485   -4.6995  -13.8535 O   0  0  0  0  0  0  0  0  0  0  0  0
   18.8443   -5.0482  -14.5497 O   0  0  0  0  0  0  0  0  0  0  0  0
  2  1  1  0
  2  4  1  0
  3  2  2  0
  5  4  1  0
  6  5  1  0
  6  7  1  1
  8  6  1  0
  8 10  1  0
  9  8  2  0
 10 11  1  0
 11 12  1  1
 12 13  1  0
 13 14  1  0
 14 15  1  0
 15 16  1  0
 17 18  2  0
 17 11  1  0
 19 17  1  0
 20 19  1  0
 20 23  1  0
 20 21  1  6
 22 21  1  0
 23 24  1  0
 25 23  2  0
M  END
$$$$
