QKC.pdb
     RDKit          3D

 25 24  0  0  1  0  0  0  0  0999 V2000
   25.2886  -15.9803  -21.2020 N   0  0  0  0  0  0  0  0  0  0  0  0
   24.9920  -14.8404  -20.4265 C   0  0  0  0  0  0  0  0  0  0  0  0
   24.7226  -13.7444  -20.9810 O   0  0  0  0  0  0  0  0  0  0  0  0
   24.9849  -14.8842  -18.9433 C   0  0  0  0  0  0  0  0  0  0  0  0
   25.3144  -16.2668  -18.4253 C   0  0  0  0  0  0  0  0  0  0  0  0
   24.7073  -16.4238  -17.0445 C   0  0  2  0  0  0  0  0  0  0  0  0
   25.6676  -16.0667  -16.0183 N   0  0  0  0  0  0  0  0  0  0  0  0
   24.2749  -17.8575  -16.8323 C   0  0  0  0  0  0  0  0  0  0  0  0
   23.4160  -18.3589  -17.5803 O   0  0  0  0  0  0  0  0  0  0  0  0
   24.8311  -18.6395  -15.7965 N   0  0  0  0  0  0  0  0  0  0  0  0
   24.4205  -20.0537  -15.5524 C   0  0  1  0  0  0  0  0  0  0  0  0
   25.6200  -20.8430  -15.1675 C   0  0  0  0  0  0  0  0  0  0  0  0
   26.3778  -21.4302  -16.2865 C   0  0  0  0  0  0  0  0  0  0  0  0
   27.5848  -22.2404  -15.8870 C   0  0  0  0  0  0  0  0  0  0  0  0
   28.3297  -22.7440  -17.1235 C   0  0  0  0  0  0  0  0  0  0  0  0
   29.4911  -23.5284  -16.6756 N   0  0  0  0  0  0  0  0  0  0  0  0
   23.3039  -20.0131  -14.6096 C   0  0  0  0  0  0  0  0  0  0  0  0
   23.2974  -19.0122  -13.7972 O   0  0  0  0  0  0  0  0  0  0  0  0
   22.2550  -20.9419  -14.5089 N   0  0  0  0  0  0  0  0  0  0  0  0
   21.1682  -20.6818  -13.5690 C   0  0  1  0  0  0  0  0  0  0  0  0
   20.5615  -19.3206  -13.8229 C   0  0  0  0  0  0  0  0  0  0  0  0
   19.2263  -19.0400  -12.6574 S   0  0  0  0  0  0  0  0  0  0  0  0
   20.1742  -21.7585  -13.6877 C   0  0  0  0  0  0  0  0  0  0  0  0
   19.5008  -22.2263  -12.5757 O   0  0  0  0  0  0  0  0  0  0  0  0
   19.8775  -22.3132  -14.7858 O   0  0  0  0  0  0  0  0  0  0  0  0
  2  1  1  0
  2  4  1  0
  3  2  2  0
  5  4  1  0
  6  5  1  0
  6  7  1  1
  8  6  1  0
  8 10  1  0
  9  8  2  0
 10 11  1  0
 11 12  1  1
 12 13  1  0
 13 14  1  0
 14 15  1  0
 15 16  1  0
 17 18  2  0
 17 11  1  0
 19 17  1  0
 20 19  1  0
 20 23  1  0
 20 21  1  6
 22 21  1  0
 23 24  1  0
 25 23  2  0
M  END
$$$$
