GPD.pdb
     RDKit          3D

 20 20  0  0  1  0  0  0  0  0999 V2000
   22.7032  -13.8608  -18.1038 N   0  0  0  0  0  0  0  0  0  0  0  0
   23.6919  -12.7984  -18.0384 C   0  0  0  0  0  0  0  0  0  0  0  0
   23.5055  -11.9435  -16.8505 C   0  0  0  0  0  0  0  0  0  0  0  0
   22.4015  -11.9205  -16.2793 O   0  0  0  0  0  0  0  0  0  0  0  0
   24.5764  -11.1669  -16.3795 N   0  0  0  0  0  0  0  0  0  0  0  0
   25.9098  -11.1785  -16.9455 C   0  0  0  0  0  0  0  0  0  0  0  0
   26.7472  -10.2437  -16.1128 C   0  0  0  0  0  0  0  0  0  0  0  0
   25.9859  -10.2050  -14.8055 C   0  0  0  0  0  0  0  0  0  0  0  0
   24.5529  -10.2256  -15.2613 C   0  0  1  0  0  0  0  0  0  0  0  0
   24.0806   -8.8922  -15.6954 C   0  0  0  0  0  0  0  0  0  0  0  0
   24.2492   -8.5608  -16.8871 O   0  0  0  0  0  0  0  0  0  0  0  0
   23.4546   -8.0249  -14.7699 N   0  0  0  0  0  0  0  0  0  0  0  0
   22.7288   -6.8189  -15.2089 C   0  0  1  0  0  0  0  0  0  0  0  0
   21.5721   -7.2891  -16.0201 C   0  0  0  0  0  0  0  0  0  0  0  0
   20.6084   -6.2881  -16.4491 C   0  0  0  0  0  0  0  0  0  0  0  0
   20.9258   -5.1937  -16.9586 O   0  0  0  0  0  0  0  0  0  0  0  0
   22.3749   -5.9927  -14.0410 C   0  0  0  0  0  0  0  0  0  0  0  0
   22.1795   -6.3928  -12.8777 O   0  0  0  0  0  0  0  0  0  0  0  0
   19.2600   -6.5679  -16.2817 O   0  0  0  0  0  0  0  0  0  0  0  0
   22.2357   -4.6025  -14.2261 O   0  0  0  0  0  0  0  0  0  0  0  0
  2  1  1  0
  3  2  1  0
  4  3  2  0
  5  9  1  0
  5  3  1  0
  6  5  1  0
  7  6  1  0
  7  8  1  0
  8  9  1  0
  9 10  1  6
 10 12  1  0
 11 10  2  0
 13 12  1  0
 13 14  1  1
 14 15  1  0
 15 19  1  0
 16 15  2  0
 17 13  1  0
 18 17  2  0
 20 17  1  0
M  END
$$$$
