GPD.pdb
     RDKit          3D

 20 20  0  0  1  0  0  0  0  0999 V2000
   23.1530  -13.3556  -19.0195 N   0  0  0  0  0  0  0  0  0  0  0  0
   24.1972  -12.4532  -18.5658 C   0  0  0  0  0  0  0  0  0  0  0  0
   23.7947  -11.7061  -17.3589 C   0  0  0  0  0  0  0  0  0  0  0  0
   22.6261  -11.7956  -16.9442 O   0  0  0  0  0  0  0  0  0  0  0  0
   24.7354  -10.9035  -16.6937 N   0  0  0  0  0  0  0  0  0  0  0  0
   26.1194  -10.7567  -17.0957 C   0  0  0  0  0  0  0  0  0  0  0  0
   26.7752   -9.8519  -16.0860 C   0  0  0  0  0  0  0  0  0  0  0  0
   25.8731  -10.0048  -14.8805 C   0  0  0  0  0  0  0  0  0  0  0  0
   24.5067  -10.0863  -15.5034 C   0  0  1  0  0  0  0  0  0  0  0  0
   23.9719   -8.7547  -15.8645 C   0  0  0  0  0  0  0  0  0  0  0  0
   24.3573   -8.2279  -16.9287 O   0  0  0  0  0  0  0  0  0  0  0  0
   23.0464   -8.1068  -15.0134 N   0  0  0  0  0  0  0  0  0  0  0  0
   22.3915   -6.8440  -15.4014 C   0  0  1  0  0  0  0  0  0  0  0  0
   20.9943   -7.1884  -15.7837 C   0  0  0  0  0  0  0  0  0  0  0  0
   20.1081   -6.0888  -16.1305 C   0  0  0  0  0  0  0  0  0  0  0  0
   20.3957   -5.2019  -16.9605 O   0  0  0  0  0  0  0  0  0  0  0  0
   22.5138   -5.8594  -14.3117 C   0  0  0  0  0  0  0  0  0  0  0  0
   22.5548   -6.1016  -13.0905 O   0  0  0  0  0  0  0  0  0  0  0  0
   18.8733   -6.0239  -15.5017 O   0  0  0  0  0  0  0  0  0  0  0  0
   22.5949   -4.4945  -14.6533 O   0  0  0  0  0  0  0  0  0  0  0  0
  2  1  1  0
  3  2  1  0
  4  3  2  0
  5  9  1  0
  5  3  1  0
  6  5  1  0
  7  6  1  0
  7  8  1  0
  8  9  1  0
  9 10  1  6
 10 12  1  0
 11 10  2  0
 13 12  1  0
 13 14  1  1
 14 15  1  0
 15 19  1  0
 16 15  2  0
 17 13  1  0
 18 17  2  0
 20 17  1  0
M  END
$$$$
