GPD.pdb
     RDKit          3D

 20 20  0  0  1  0  0  0  0  0999 V2000
   23.0225  -13.9219  -18.0928 N   0  0  0  0  0  0  0  0  0  0  0  0
   24.0365  -12.8840  -18.0216 C   0  0  0  0  0  0  0  0  0  0  0  0
   23.8064  -11.9645  -16.8910 C   0  0  0  0  0  0  0  0  0  0  0  0
   22.7446  -12.0372  -16.2484 O   0  0  0  0  0  0  0  0  0  0  0  0
   24.7886  -11.0192  -16.5544 N   0  0  0  0  0  0  0  0  0  0  0  0
   26.0806  -10.9123  -17.2009 C   0  0  0  0  0  0  0  0  0  0  0  0
   26.8296   -9.8078  -16.5028 C   0  0  0  0  0  0  0  0  0  0  0  0
   26.1391   -9.7486  -15.1575 C   0  0  0  0  0  0  0  0  0  0  0  0
   24.6996   -9.9917  -15.5183 C   0  0  1  0  0  0  0  0  0  0  0  0
   24.0336   -8.7735  -16.0300 C   0  0  0  0  0  0  0  0  0  0  0  0
   24.1927   -8.4686  -17.2301 O   0  0  0  0  0  0  0  0  0  0  0  0
   23.2386   -7.9835  -15.1672 N   0  0  0  0  0  0  0  0  0  0  0  0
   22.4521   -6.8418  -15.6691 C   0  0  1  0  0  0  0  0  0  0  0  0
   21.0180   -7.2055  -15.5016 C   0  0  0  0  0  0  0  0  0  0  0  0
   20.0329   -6.1668  -15.7573 C   0  0  0  0  0  0  0  0  0  0  0  0
   19.8190   -5.6767  -16.8852 O   0  0  0  0  0  0  0  0  0  0  0  0
   22.8652   -5.6059  -14.9807 C   0  0  0  0  0  0  0  0  0  0  0  0
   22.6749   -4.4379  -15.3695 O   0  0  0  0  0  0  0  0  0  0  0  0
   19.2899   -5.6952  -14.6849 O   0  0  0  0  0  0  0  0  0  0  0  0
   23.5480   -5.7235  -13.7535 O   0  0  0  0  0  0  0  0  0  0  0  0
  2  1  1  0
  3  2  1  0
  4  3  2  0
  5  9  1  0
  5  3  1  0
  6  5  1  0
  7  6  1  0
  7  8  1  0
  8  9  1  0
  9 10  1  6
 10 12  1  0
 11 10  2  0
 13 12  1  0
 13 14  1  1
 14 15  1  0
 15 19  1  0
 16 15  2  0
 17 13  1  0
 18 17  2  0
 20 17  1  0
M  END
$$$$
