GPD.pdb
     RDKit          3D

 20 20  0  0  1  0  0  0  0  0999 V2000
   19.1416  -12.5174  -17.5825 N   0  0  0  0  0  0  0  0  0  0  0  0
   20.4841  -11.9933  -17.3992 C   0  0  0  0  0  0  0  0  0  0  0  0
   20.5651  -11.0738  -16.2482 C   0  0  0  0  0  0  0  0  0  0  0  0
   19.5187  -10.6604  -15.7194 O   0  0  0  0  0  0  0  0  0  0  0  0
   21.8220  -10.6770  -15.7642 N   0  0  0  0  0  0  0  0  0  0  0  0
   23.0885  -11.1532  -16.2817 C   0  0  0  0  0  0  0  0  0  0  0  0
   24.1695  -10.5149  -15.4497 C   0  0  0  0  0  0  0  0  0  0  0  0
   23.4344  -10.1717  -14.1722 C   0  0  0  0  0  0  0  0  0  0  0  0
   22.0870   -9.7354  -14.6778 C   0  0  1  0  0  0  0  0  0  0  0  0
   22.0949   -8.3401  -15.1703 C   0  0  0  0  0  0  0  0  0  0  0  0
   22.3804   -8.1341  -16.3681 O   0  0  0  0  0  0  0  0  0  0  0  0
   21.7842   -7.2757  -14.2923 N   0  0  0  0  0  0  0  0  0  0  0  0
   21.5687   -5.9032  -14.7864 C   0  0  1  0  0  0  0  0  0  0  0  0
   20.1027   -5.7516  -14.9982 C   0  0  0  0  0  0  0  0  0  0  0  0
   19.6246   -4.4523  -15.4429 C   0  0  0  0  0  0  0  0  0  0  0  0
   19.3041   -3.5286  -14.6668 O   0  0  0  0  0  0  0  0  0  0  0  0
   22.1659   -4.9332  -13.8513 C   0  0  0  0  0  0  0  0  0  0  0  0
   22.3181   -5.0792  -12.6236 O   0  0  0  0  0  0  0  0  0  0  0  0
   19.5195   -4.2290  -16.8080 O   0  0  0  0  0  0  0  0  0  0  0  0
   22.6219   -3.7038  -14.3679 O   0  0  0  0  0  0  0  0  0  0  0  0
  2  1  1  0
  3  2  1  0
  4  3  2  0
  5  9  1  0
  5  3  1  0
  6  5  1  0
  7  6  1  0
  7  8  1  0
  8  9  1  0
  9 10  1  6
 10 12  1  0
 11 10  2  0
 13 12  1  0
 13 14  1  1
 14 15  1  0
 15 19  1  0
 16 15  2  0
 17 13  1  0
 18 17  2  0
 20 17  1  0
M  END
$$$$
