GPD.pdb
     RDKit          3D

 20 20  0  0  1  0  0  0  0  0999 V2000
   23.3512  -13.6943  -18.9580 N   0  0  0  0  0  0  0  0  0  0  0  0
   24.3301  -12.6855  -18.5910 C   0  0  0  0  0  0  0  0  0  0  0  0
   23.9514  -11.9727  -17.3560 C   0  0  0  0  0  0  0  0  0  0  0  0
   22.8433  -12.1924  -16.8370 O   0  0  0  0  0  0  0  0  0  0  0  0
   24.8463  -11.0554  -16.7821 N   0  0  0  0  0  0  0  0  0  0  0  0
   26.1719  -10.7725  -17.2932 C   0  0  0  0  0  0  0  0  0  0  0  0
   26.7990   -9.7744  -16.3558 C   0  0  0  0  0  0  0  0  0  0  0  0
   26.0119   -9.9888  -15.0812 C   0  0  0  0  0  0  0  0  0  0  0  0
   24.6197  -10.2339  -15.5943 C   0  0  1  0  0  0  0  0  0  0  0  0
   23.9173   -8.9782  -15.9393 C   0  0  0  0  0  0  0  0  0  0  0  0
   24.1010   -8.4862  -17.0720 O   0  0  0  0  0  0  0  0  0  0  0  0
   23.0612   -8.3617  -14.9972 N   0  0  0  0  0  0  0  0  0  0  0  0
   22.2302   -7.1969  -15.3532 C   0  0  1  0  0  0  0  0  0  0  0  0
   20.8350   -7.6966  -15.4970 C   0  0  0  0  0  0  0  0  0  0  0  0
   19.8067   -6.7190  -15.8159 C   0  0  0  0  0  0  0  0  0  0  0  0
   19.1460   -6.1020  -14.9552 O   0  0  0  0  0  0  0  0  0  0  0  0
   22.4086   -6.1285  -14.3539 C   0  0  0  0  0  0  0  0  0  0  0  0
   22.6979   -6.2747  -13.1512 O   0  0  0  0  0  0  0  0  0  0  0  0
   19.5471   -6.4591  -17.1536 O   0  0  0  0  0  0  0  0  0  0  0  0
   22.2416   -4.7924  -14.7702 O   0  0  0  0  0  0  0  0  0  0  0  0
  2  1  1  0
  3  2  1  0
  4  3  2  0
  5  9  1  0
  5  3  1  0
  6  5  1  0
  7  6  1  0
  7  8  1  0
  8  9  1  0
  9 10  1  6
 10 12  1  0
 11 10  2  0
 13 12  1  0
 13 14  1  1
 14 15  1  0
 15 19  1  0
 16 15  2  0
 17 13  1  0
 18 17  2  0
 20 17  1  0
M  END
$$$$
