GPD.pdb
     RDKit          3D

 20 20  0  0  1  0  0  0  0  0999 V2000
   20.5112  -12.5578  -18.7626 N   0  0  0  0  0  0  0  0  0  0  0  0
   21.6652  -12.1066  -18.0041 C   0  0  0  0  0  0  0  0  0  0  0  0
   21.2833  -11.1960  -16.9079 C   0  0  0  0  0  0  0  0  0  0  0  0
   20.1223  -10.7545  -16.8544 O   0  0  0  0  0  0  0  0  0  0  0  0
   22.2348  -10.8393  -15.9388 N   0  0  0  0  0  0  0  0  0  0  0  0
   23.6172  -11.2722  -15.9476 C   0  0  0  0  0  0  0  0  0  0  0  0
   24.2623  -10.7027  -14.7115 C   0  0  0  0  0  0  0  0  0  0  0  0
   23.0730  -10.4636  -13.8067 C   0  0  0  0  0  0  0  0  0  0  0  0
   22.0204   -9.9881  -14.7698 C   0  0  1  0  0  0  0  0  0  0  0  0
   22.1771   -8.5578  -15.1146 C   0  0  0  0  0  0  0  0  0  0  0  0
   23.0151   -8.2445  -15.9854 O   0  0  0  0  0  0  0  0  0  0  0  0
   21.3887   -7.5802  -14.4640 N   0  0  0  0  0  0  0  0  0  0  0  0
   21.4070   -6.1669  -14.8838 C   0  0  1  0  0  0  0  0  0  0  0  0
   19.9937   -5.7842  -15.1542 C   0  0  0  0  0  0  0  0  0  0  0  0
   19.7205   -4.3781  -15.4053 C   0  0  0  0  0  0  0  0  0  0  0  0
   20.0364   -3.7878  -16.4588 O   0  0  0  0  0  0  0  0  0  0  0  0
   22.0890   -5.3491  -13.8650 C   0  0  0  0  0  0  0  0  0  0  0  0
   22.5796   -4.2155  -14.0263 O   0  0  0  0  0  0  0  0  0  0  0  0
   19.0717   -3.6536  -14.4160 O   0  0  0  0  0  0  0  0  0  0  0  0
   22.2157   -5.8754  -12.5637 O   0  0  0  0  0  0  0  0  0  0  0  0
  2  1  1  0
  3  2  1  0
  4  3  2  0
  5  9  1  0
  5  3  1  0
  6  5  1  0
  7  6  1  0
  7  8  1  0
  8  9  1  0
  9 10  1  6
 10 12  1  0
 11 10  2  0
 13 12  1  0
 13 14  1  1
 14 15  1  0
 15 19  1  0
 16 15  2  0
 17 13  1  0
 18 17  2  0
 20 17  1  0
M  END
$$$$
