GPD.pdb
     RDKit          3D

 20 20  0  0  1  0  0  0  0  0999 V2000
   26.1834  -23.8017  -15.6010 N   0  0  0  0  0  0  0  0  0  0  0  0
   25.8104  -22.4865  -16.0927 C   0  0  0  0  0  0  0  0  0  0  0  0
   24.6830  -21.9129  -15.3334 C   0  0  0  0  0  0  0  0  0  0  0  0
   24.1556  -22.5769  -14.4242 O   0  0  0  0  0  0  0  0  0  0  0  0
   24.2195  -20.6249  -15.6463 N   0  0  0  0  0  0  0  0  0  0  0  0
   24.7212  -19.8147  -16.7373 C   0  0  0  0  0  0  0  0  0  0  0  0
   23.9869  -18.5010  -16.6810 C   0  0  0  0  0  0  0  0  0  0  0  0
   23.5352  -18.4444  -15.2377 C   0  0  0  0  0  0  0  0  0  0  0  0
   23.1731  -19.8759  -14.9525 C   0  0  1  0  0  0  0  0  0  0  0  0
   21.8319  -20.2309  -15.4667 C   0  0  0  0  0  0  0  0  0  0  0  0
   21.7202  -20.5435  -16.6702 O   0  0  0  0  0  0  0  0  0  0  0  0
   20.7124  -20.2119  -14.6024 N   0  0  0  0  0  0  0  0  0  0  0  0
   19.3853  -20.6776  -15.0452 C   0  0  1  0  0  0  0  0  0  0  0  0
   18.7618  -21.3603  -13.8781 C   0  0  0  0  0  0  0  0  0  0  0  0
   17.4116  -21.8725  -14.0490 C   0  0  0  0  0  0  0  0  0  0  0  0
   16.3838  -21.2338  -13.7425 O   0  0  0  0  0  0  0  0  0  0  0  0
   18.6127  -19.5473  -15.5906 C   0  0  0  0  0  0  0  0  0  0  0  0
   17.9003  -19.5567  -16.6124 O   0  0  0  0  0  0  0  0  0  0  0  0
   17.2596  -23.1436  -14.5832 O   0  0  0  0  0  0  0  0  0  0  0  0
   18.6639  -18.3148  -14.9091 O   0  0  0  0  0  0  0  0  0  0  0  0
  2  1  1  0
  3  2  1  0
  4  3  2  0
  5  9  1  0
  5  3  1  0
  6  5  1  0
  7  6  1  0
  7  8  1  0
  8  9  1  0
  9 10  1  6
 10 12  1  0
 11 10  2  0
 13 12  1  0
 13 14  1  1
 14 15  1  0
 15 19  1  0
 16 15  2  0
 17 13  1  0
 18 17  2  0
 20 17  1  0
M  END
$$$$
