GPD.pdb
     RDKit          3D

 20 20  0  0  1  0  0  0  0  0999 V2000
   27.7175  -24.7484  -16.0606 N   0  0  0  0  0  0  0  0  0  0  0  0
   27.5278  -23.3615  -16.4491 C   0  0  0  0  0  0  0  0  0  0  0  0
   26.7344  -22.6136  -15.4553 C   0  0  0  0  0  0  0  0  0  0  0  0
   26.2964  -23.2029  -14.4519 O   0  0  0  0  0  0  0  0  0  0  0  0
   26.4836  -21.2465  -15.6542 N   0  0  0  0  0  0  0  0  0  0  0  0
   26.9286  -20.4895  -16.8063 C   0  0  0  0  0  0  0  0  0  0  0  0
   26.4887  -19.0653  -16.5913 C   0  0  0  0  0  0  0  0  0  0  0  0
   26.3253  -19.0005  -15.0882 C   0  0  0  0  0  0  0  0  0  0  0  0
   25.7474  -20.3505  -14.7640 C   0  0  1  0  0  0  0  0  0  0  0  0
   24.2922  -20.4172  -15.0232 C   0  0  0  0  0  0  0  0  0  0  0  0
   23.9060  -20.6825  -16.1804 O   0  0  0  0  0  0  0  0  0  0  0  0
   23.3728  -20.1835  -13.9740 N   0  0  0  0  0  0  0  0  0  0  0  0
   21.9330  -20.4595  -14.1315 C   0  0  1  0  0  0  0  0  0  0  0  0
   21.4393  -20.9186  -12.8039 C   0  0  0  0  0  0  0  0  0  0  0  0
   20.0198  -21.2116  -12.6858 C   0  0  0  0  0  0  0  0  0  0  0  0
   19.2145  -21.1347  -13.6365 O   0  0  0  0  0  0  0  0  0  0  0  0
   21.2499  -19.2708  -14.6723 C   0  0  0  0  0  0  0  0  0  0  0  0
   21.4361  -18.0867  -14.3337 O   0  0  0  0  0  0  0  0  0  0  0  0
   19.5354  -21.5984  -11.4448 O   0  0  0  0  0  0  0  0  0  0  0  0
   20.2805  -19.4595  -15.6777 O   0  0  0  0  0  0  0  0  0  0  0  0
  2  1  1  0
  3  2  1  0
  4  3  2  0
  5  9  1  0
  5  3  1  0
  6  5  1  0
  7  6  1  0
  7  8  1  0
  8  9  1  0
  9 10  1  6
 10 12  1  0
 11 10  2  0
 13 12  1  0
 13 14  1  1
 14 15  1  0
 15 19  1  0
 16 15  2  0
 17 13  1  0
 18 17  2  0
 20 17  1  0
M  END
$$$$
