GPD.pdb
     RDKit          3D

 20 20  0  0  1  0  0  0  0  0999 V2000
   23.7232  -13.9637  -19.0526 N   0  0  0  0  0  0  0  0  0  0  0  0
   24.6632  -12.9664  -18.5707 C   0  0  0  0  0  0  0  0  0  0  0  0
   24.0768  -12.1209  -17.5134 C   0  0  0  0  0  0  0  0  0  0  0  0
   22.8589  -12.1944  -17.2751 O   0  0  0  0  0  0  0  0  0  0  0  0
   24.9007  -11.2441  -16.7894 N   0  0  0  0  0  0  0  0  0  0  0  0
   26.3316  -11.1190  -16.9774 C   0  0  0  0  0  0  0  0  0  0  0  0
   26.8191  -10.1103  -15.9708 C   0  0  0  0  0  0  0  0  0  0  0  0
   25.7347  -10.1557  -14.9161 C   0  0  0  0  0  0  0  0  0  0  0  0
   24.4859  -10.3166  -15.7383 C   0  0  1  0  0  0  0  0  0  0  0  0
   24.0194   -9.0344  -16.3109 C   0  0  0  0  0  0  0  0  0  0  0  0
   24.4659   -8.6822  -17.4223 O   0  0  0  0  0  0  0  0  0  0  0  0
   23.0890   -8.2378  -15.6035 N   0  0  0  0  0  0  0  0  0  0  0  0
   22.1942   -7.2934  -16.2974 C   0  0  1  0  0  0  0  0  0  0  0  0
   21.1885   -8.1154  -17.0252 C   0  0  0  0  0  0  0  0  0  0  0  0
   20.0864   -7.4111  -17.6609 C   0  0  0  0  0  0  0  0  0  0  0  0
   18.9661   -7.2558  -17.1328 O   0  0  0  0  0  0  0  0  0  0  0  0
   21.6314   -6.3329  -15.3316 C   0  0  0  0  0  0  0  0  0  0  0  0
   21.2644   -5.1666  -15.5692 O   0  0  0  0  0  0  0  0  0  0  0  0
   20.2945   -6.8826  -18.9266 O   0  0  0  0  0  0  0  0  0  0  0  0
   21.4799   -6.7459  -13.9927 O   0  0  0  0  0  0  0  0  0  0  0  0
  2  1  1  0
  3  2  1  0
  4  3  2  0
  5  9  1  0
  5  3  1  0
  6  5  1  0
  7  6  1  0
  7  8  1  0
  8  9  1  0
  9 10  1  6
 10 12  1  0
 11 10  2  0
 13 12  1  0
 13 14  1  1
 14 15  1  0
 15 19  1  0
 16 15  2  0
 17 13  1  0
 18 17  2  0
 20 17  1  0
M  END
$$$$
