TVT.pdb
     RDKit          3D

 22 21  0  0  1  0  0  0  0  0999 V2000
   20.6528   -8.5065  -19.8919 C   0  0  0  0  0  0  0  0  0  0  0  0
   19.4662   -9.4439  -19.7272 C   0  0  1  0  0  0  0  0  0  0  0  0
   19.1725   -9.9969  -20.9688 O   0  0  0  0  0  0  0  0  0  0  0  0
   19.8712  -10.4943  -18.7276 C   0  0  2  0  0  0  0  0  0  0  0  0
   18.8496  -11.5196  -18.6201 N   0  0  0  0  0  0  0  0  0  0  0  0
   20.0618   -9.9289  -17.3648 C   0  0  0  0  0  0  0  0  0  0  0  0
   19.0959   -9.5575  -16.6528 O   0  0  0  0  0  0  0  0  0  0  0  0
   23.7271  -10.4608  -14.7844 C   0  0  0  0  0  0  0  0  0  0  0  0
   22.2428  -10.2180  -14.5017 C   0  0  2  0  0  0  0  0  0  0  0  0
   21.6058  -11.5600  -14.3873 C   0  0  0  0  0  0  0  0  0  0  0  0
   21.6364   -9.2766  -15.4770 C   0  0  2  0  0  0  0  0  0  0  0  0
   21.3645   -9.7725  -16.7782 N   0  0  0  0  0  0  0  0  0  0  0  0
   22.2224   -7.8960  -15.4410 C   0  0  0  0  0  0  0  0  0  0  0  0
   23.3846   -7.6661  -15.8642 O   0  0  0  0  0  0  0  0  0  0  0  0
   21.1408   -4.8670  -17.1051 C   0  0  0  0  0  0  0  0  0  0  0  0
   21.1799   -4.4974  -15.6364 C   0  0  1  0  0  0  0  0  0  0  0  0
   19.8864   -4.6305  -15.1284 O   0  0  0  0  0  0  0  0  0  0  0  0
   22.1474   -5.4316  -14.9488 C   0  0  2  0  0  0  0  0  0  0  0  0
   21.5268   -6.7655  -14.9340 N   0  0  0  0  0  0  0  0  0  0  0  0
   22.2588   -5.0032  -13.5316 C   0  0  0  0  0  0  0  0  0  0  0  0
   21.7990   -5.7557  -12.6320 O   0  0  0  0  0  0  0  0  0  0  0  0
   22.8453   -3.8150  -13.1626 O   0  0  0  0  0  0  0  0  0  0  0  0
  2  1  1  6
  2  3  1  0
  2  4  1  0
  4  5  1  1
  6  4  1  0
  6 12  1  0
  7  6  2  0
  9 11  1  0
  9  8  1  6
 10  9  1  0
 11 12  1  6
 11 13  1  0
 13 19  1  0
 14 13  2  0
 16 15  1  6
 17 16  1  0
 18 16  1  0
 18 19  1  1
 20 18  1  0
 20 22  1  0
 21 20  2  0
M  END
$$$$
