TVT.pdb
     RDKit          3D

 22 21  0  0  1  0  0  0  0  0999 V2000
   17.3215   -8.4830  -16.9007 C   0  0  0  0  0  0  0  0  0  0  0  0
   16.7341   -9.6338  -16.0981 C   0  0  1  0  0  0  0  0  0  0  0  0
   15.7165  -10.2132  -16.8480 O   0  0  0  0  0  0  0  0  0  0  0  0
   17.8558  -10.6024  -15.8329 C   0  0  2  0  0  0  0  0  0  0  0  0
   17.3688  -11.7650  -15.1135 N   0  0  0  0  0  0  0  0  0  0  0  0
   18.9335  -10.0001  -15.0028 C   0  0  0  0  0  0  0  0  0  0  0  0
   18.7950   -9.7956  -13.7712 O   0  0  0  0  0  0  0  0  0  0  0  0
   23.2268   -9.9593  -16.0611 C   0  0  0  0  0  0  0  0  0  0  0  0
   22.5293   -9.7500  -14.7151 C   0  0  2  0  0  0  0  0  0  0  0  0
   22.4321  -11.0906  -14.0726 C   0  0  0  0  0  0  0  0  0  0  0  0
   21.2624   -8.9884  -14.8564 C   0  0  2  0  0  0  0  0  0  0  0  0
   20.2011   -9.6145  -15.5597 N   0  0  0  0  0  0  0  0  0  0  0  0
   21.4540   -7.5345  -15.1731 C   0  0  0  0  0  0  0  0  0  0  0  0
   21.8163   -7.1551  -16.3166 O   0  0  0  0  0  0  0  0  0  0  0  0
   19.3300   -4.8614  -15.6742 C   0  0  0  0  0  0  0  0  0  0  0  0
   20.1824   -4.3666  -14.5236 C   0  0  1  0  0  0  0  0  0  0  0  0
   19.4982   -4.6394  -13.3378 O   0  0  0  0  0  0  0  0  0  0  0  0
   21.5063   -5.0913  -14.5823 C   0  0  2  0  0  0  0  0  0  0  0  0
   21.2490   -6.4954  -14.2260 N   0  0  0  0  0  0  0  0  0  0  0  0
   22.3724   -4.5370  -13.5113 C   0  0  0  0  0  0  0  0  0  0  0  0
   22.6453   -5.2599  -12.5162 O   0  0  0  0  0  0  0  0  0  0  0  0
   22.8888   -3.2632  -13.5636 O   0  0  0  0  0  0  0  0  0  0  0  0
  2  1  1  6
  2  3  1  0
  2  4  1  0
  4  5  1  1
  6  4  1  0
  6 12  1  0
  7  6  2  0
  9 11  1  0
  9  8  1  6
 10  9  1  0
 11 12  1  6
 11 13  1  0
 13 19  1  0
 14 13  2  0
 16 15  1  6
 17 16  1  0
 18 16  1  0
 18 19  1  1
 20 18  1  0
 20 22  1  0
 21 20  2  0
M  END
$$$$
