TVT.pdb
     RDKit          3D

 22 21  0  0  1  0  0  0  0  0999 V2000
   19.1447   -8.5719  -19.1704 C   0  0  0  0  0  0  0  0  0  0  0  0
   18.0978   -9.5873  -18.7387 C   0  0  1  0  0  0  0  0  0  0  0  0
   17.4556  -10.0616  -19.8772 O   0  0  0  0  0  0  0  0  0  0  0  0
   18.8246  -10.6843  -18.0074 C   0  0  2  0  0  0  0  0  0  0  0  0
   17.9141  -11.7608  -17.6633 N   0  0  0  0  0  0  0  0  0  0  0  0
   19.4296  -10.2061  -16.7351 C   0  0  0  0  0  0  0  0  0  0  0  0
   18.7347   -9.9272  -15.7265 O   0  0  0  0  0  0  0  0  0  0  0  0
   23.3825   -9.5559  -13.7830 C   0  0  0  0  0  0  0  0  0  0  0  0
   22.6303  -10.3136  -14.8794 C   0  0  2  0  0  0  0  0  0  0  0  0
   23.6557  -10.7828  -15.8531 C   0  0  0  0  0  0  0  0  0  0  0  0
   21.5037   -9.5202  -15.4327 C   0  0  2  0  0  0  0  0  0  0  0  0
   20.8481  -10.0335  -16.5815 N   0  0  0  0  0  0  0  0  0  0  0  0
   21.7518   -8.0408  -15.4597 C   0  0  0  0  0  0  0  0  0  0  0  0
   22.4628   -7.5117  -16.3526 O   0  0  0  0  0  0  0  0  0  0  0  0
   20.4791   -3.4885  -14.4893 C   0  0  0  0  0  0  0  0  0  0  0  0
   20.1922   -4.9736  -14.5750 C   0  0  1  0  0  0  0  0  0  0  0  0
   19.4849   -5.2040  -15.7562 O   0  0  0  0  0  0  0  0  0  0  0  0
   21.5151   -5.7026  -14.5666 C   0  0  2  0  0  0  0  0  0  0  0  0
   21.2174   -7.1417  -14.4979 N   0  0  0  0  0  0  0  0  0  0  0  0
   22.2134   -5.3563  -13.3029 C   0  0  0  0  0  0  0  0  0  0  0  0
   22.0260   -6.0787  -12.2880 O   0  0  0  0  0  0  0  0  0  0  0  0
   23.0581   -4.2759  -13.1975 O   0  0  0  0  0  0  0  0  0  0  0  0
  2  1  1  6
  2  3  1  0
  2  4  1  0
  4  5  1  1
  6  4  1  0
  6 12  1  0
  7  6  2  0
  9 11  1  0
  9  8  1  1
 10  9  1  0
 11 12  1  6
 11 13  1  0
 13 19  1  0
 14 13  2  0
 16 15  1  6
 17 16  1  0
 18 16  1  0
 18 19  1  1
 20 18  1  0
 20 22  1  0
 21 20  2  0
M  END
$$$$
