TVT.pdb
     RDKit          3D

 22 21  0  0  1  0  0  0  0  0999 V2000
   23.9194   -9.9511  -19.5482 C   0  0  0  0  0  0  0  0  0  0  0  0
   23.5994  -11.4318  -19.6849 C   0  0  1  0  0  0  0  0  0  0  0  0
   24.5147  -11.9955  -20.5670 O   0  0  0  0  0  0  0  0  0  0  0  0
   23.7041  -12.0331  -18.3087 C   0  0  2  0  0  0  0  0  0  0  0  0
   23.5909  -13.4786  -18.3717 N   0  0  0  0  0  0  0  0  0  0  0  0
   22.6256  -11.5538  -17.4029 C   0  0  0  0  0  0  0  0  0  0  0  0
   21.4615  -12.0242  -17.4400 O   0  0  0  0  0  0  0  0  0  0  0  0
   23.0717   -9.4763  -13.4305 C   0  0  0  0  0  0  0  0  0  0  0  0
   21.9698  -10.2826  -14.1215 C   0  0  2  0  0  0  0  0  0  0  0  0
   22.2033  -11.7115  -13.7699 C   0  0  0  0  0  0  0  0  0  0  0  0
   21.8691   -9.9632  -15.5681 C   0  0  2  0  0  0  0  0  0  0  0  0
   22.8496  -10.5215  -16.4282 N   0  0  0  0  0  0  0  0  0  0  0  0
   21.5225   -8.5322  -15.8564 C   0  0  0  0  0  0  0  0  0  0  0  0
   22.4151   -7.6553  -15.9876 O   0  0  0  0  0  0  0  0  0  0  0  0
   18.2645   -5.2186  -17.4505 C   0  0  0  0  0  0  0  0  0  0  0  0
   18.5793   -6.6544  -17.0836 C   0  0  1  0  0  0  0  0  0  0  0  0
   18.6098   -7.3994  -18.2638 O   0  0  0  0  0  0  0  0  0  0  0  0
   19.9156   -6.6707  -16.3797 C   0  0  2  0  0  0  0  0  0  0  0  0
   20.1880   -8.0651  -15.9975 N   0  0  0  0  0  0  0  0  0  0  0  0
   19.7687   -5.9082  -15.1142 C   0  0  0  0  0  0  0  0  0  0  0  0
   19.3494   -6.5084  -14.0890 O   0  0  0  0  0  0  0  0  0  0  0  0
   20.0731   -4.5703  -15.0180 O   0  0  0  0  0  0  0  0  0  0  0  0
  2  1  1  1
  2  3  1  0
  2  4  1  0
  4  5  1  6
  6  4  1  0
  6 12  1  0
  7  6  2  0
  9 11  1  0
  9  8  1  6
 10  9  1  0
 11 12  1  6
 11 13  1  0
 13 19  1  0
 14 13  2  0
 16 15  1  6
 17 16  1  0
 18 16  1  0
 18 19  1  1
 20 18  1  0
 20 22  1  0
 21 20  2  0
M  END
$$$$
