TVT.pdb
     RDKit          3D

 22 21  0  0  1  0  0  0  0  0999 V2000
   22.4042   -9.0049  -20.1284 C   0  0  0  0  0  0  0  0  0  0  0  0
   21.8158  -10.3896  -20.3521 C   0  0  1  0  0  0  0  0  0  0  0  0
   22.2888  -10.8727  -21.5673 O   0  0  0  0  0  0  0  0  0  0  0  0
   22.2595  -11.2476  -19.1972 C   0  0  2  0  0  0  0  0  0  0  0  0
   21.8505  -12.6257  -19.3966 N   0  0  0  0  0  0  0  0  0  0  0  0
   21.6671  -10.8028  -17.9071 C   0  0  0  0  0  0  0  0  0  0  0  0
   20.4686  -11.0298  -17.6069 O   0  0  0  0  0  0  0  0  0  0  0  0
   22.8281  -11.3115  -14.2551 C   0  0  0  0  0  0  0  0  0  0  0  0
   22.6388   -9.8078  -14.4674 C   0  0  2  0  0  0  0  0  0  0  0  0
   22.0341   -9.2736  -13.2150 C   0  0  0  0  0  0  0  0  0  0  0  0
   21.9191   -9.5096  -15.7315 C   0  0  2  0  0  0  0  0  0  0  0  0
   22.4304  -10.0849  -16.9234 N   0  0  0  0  0  0  0  0  0  0  0  0
   21.4779   -8.0817  -15.8627 C   0  0  0  0  0  0  0  0  0  0  0  0
   22.3022   -7.1330  -15.8048 O   0  0  0  0  0  0  0  0  0  0  0  0
   19.8751   -6.2685  -18.5967 C   0  0  0  0  0  0  0  0  0  0  0  0
   18.9374   -6.1171  -17.4165 C   0  0  1  0  0  0  0  0  0  0  0  0
   17.9540   -7.1021  -17.5238 O   0  0  0  0  0  0  0  0  0  0  0  0
   19.7512   -6.2775  -16.1542 C   0  0  2  0  0  0  0  0  0  0  0  0
   20.1235   -7.6974  -16.0550 N   0  0  0  0  0  0  0  0  0  0  0  0
   18.8582   -5.9949  -15.0022 C   0  0  0  0  0  0  0  0  0  0  0  0
   18.4867   -6.9525  -14.2728 O   0  0  0  0  0  0  0  0  0  0  0  0
   18.4204   -4.7264  -14.7003 O   0  0  0  0  0  0  0  0  0  0  0  0
  2  1  1  1
  2  3  1  0
  2  4  1  0
  4  5  1  6
  6  4  1  0
  6 12  1  0
  7  6  2  0
  9 11  1  0
  9  8  1  1
 10  9  1  0
 11 12  1  6
 11 13  1  0
 13 19  1  0
 14 13  2  0
 16 15  1  6
 17 16  1  0
 18 16  1  0
 18 19  1  1
 20 18  1  0
 20 22  1  0
 21 20  2  0
M  END
$$$$
