TVT.pdb
     RDKit          3D

 22 21  0  0  1  0  0  0  0  0999 V2000
   18.0448   -9.6737  -18.1380 C   0  0  0  0  0  0  0  0  0  0  0  0
   17.5496  -10.9204  -17.4208 C   0  0  1  0  0  0  0  0  0  0  0  0
   16.7559  -11.6444  -18.3037 O   0  0  0  0  0  0  0  0  0  0  0  0
   18.7678  -11.6968  -16.9969 C   0  0  2  0  0  0  0  0  0  0  0  0
   18.3865  -12.9726  -16.4196 N   0  0  0  0  0  0  0  0  0  0  0  0
   19.5628  -10.9759  -15.9665 C   0  0  0  0  0  0  0  0  0  0  0  0
   19.1515  -10.8230  -14.7894 O   0  0  0  0  0  0  0  0  0  0  0  0
   23.9677  -10.1821  -16.2311 C   0  0  0  0  0  0  0  0  0  0  0  0
   23.0127  -10.3036  -15.0415 C   0  0  2  0  0  0  0  0  0  0  0  0
   23.0333  -11.7334  -14.6230 C   0  0  0  0  0  0  0  0  0  0  0  0
   21.6803   -9.7170  -15.3342 C   0  0  2  0  0  0  0  0  0  0  0  0
   20.8518  -10.4095  -16.2546 N   0  0  0  0  0  0  0  0  0  0  0  0
   21.6904   -8.2257  -15.4972 C   0  0  0  0  0  0  0  0  0  0  0  0
   21.8613   -7.6906  -16.6230 O   0  0  0  0  0  0  0  0  0  0  0  0
   20.1468   -3.8558  -14.4968 C   0  0  0  0  0  0  0  0  0  0  0  0
   20.1182   -5.3697  -14.4453 C   0  0  1  0  0  0  0  0  0  0  0  0
   19.2699   -5.8151  -15.4606 O   0  0  0  0  0  0  0  0  0  0  0  0
   21.5309   -5.8670  -14.6415 C   0  0  2  0  0  0  0  0  0  0  0  0
   21.5148   -7.3207  -14.4159 N   0  0  0  0  0  0  0  0  0  0  0  0
   22.3689   -5.2830  -13.5640 C   0  0  0  0  0  0  0  0  0  0  0  0
   22.4883   -5.9122  -12.4791 O   0  0  0  0  0  0  0  0  0  0  0  0
   23.0208   -4.0800  -13.7046 O   0  0  0  0  0  0  0  0  0  0  0  0
  2  1  1  6
  2  3  1  0
  2  4  1  0
  4  5  1  1
  6  4  1  0
  6 12  1  0
  7  6  2  0
  9 11  1  0
  9  8  1  6
 10  9  1  0
 11 12  1  6
 11 13  1  0
 13 19  1  0
 14 13  2  0
 16 15  1  6
 17 16  1  0
 18 16  1  0
 18 19  1  1
 20 18  1  0
 20 22  1  0
 21 20  2  0
M  END
$$$$
