VVQ.pdb
     RDKit          3D

 24 23  0  0  1  0  0  0  0  0999 V2000
   21.0047  -15.8553  -17.3898 C   0  0  0  0  0  0  0  0  0  0  0  0
   19.8768  -15.1673  -18.1619 C   0  0  2  0  0  0  0  0  0  0  0  0
   19.5803  -16.0222  -19.3840 C   0  0  0  0  0  0  0  0  0  0  0  0
   20.3037  -13.7744  -18.5764 C   0  0  2  0  0  0  0  0  0  0  0  0
   21.4142  -13.9007  -19.4864 N   0  0  0  0  0  0  0  0  0  0  0  0
   20.6562  -13.0200  -17.3605 C   0  0  0  0  0  0  0  0  0  0  0  0
   19.7632  -12.8453  -16.4928 O   0  0  0  0  0  0  0  0  0  0  0  0
   23.5100  -13.4763  -14.8456 C   0  0  0  0  0  0  0  0  0  0  0  0
   23.4969  -12.0510  -15.3444 C   0  0  1  0  0  0  0  0  0  0  0  0
   24.6568  -11.8272  -16.2709 C   0  0  0  0  0  0  0  0  0  0  0  0
   22.1724  -11.6711  -15.9523 C   0  0  2  0  0  0  0  0  0  0  0  0
   21.9460  -12.4791  -17.1126 N   0  0  0  0  0  0  0  0  0  0  0  0
   22.1477  -10.2028  -16.2881 C   0  0  0  0  0  0  0  0  0  0  0  0
   22.3151   -9.8075  -17.4697 O   0  0  0  0  0  0  0  0  0  0  0  0
   17.7084   -7.4236  -15.9871 N   0  0  0  0  0  0  0  0  0  0  0  0
   18.4044   -6.3641  -16.6692 C   0  0  0  0  0  0  0  0  0  0  0  0
   17.7484   -5.3517  -16.8966 O   0  0  0  0  0  0  0  0  0  0  0  0
   19.7777   -6.5829  -17.0173 C   0  0  0  0  0  0  0  0  0  0  0  0
   20.4115   -7.8571  -16.6397 C   0  0  0  0  0  0  0  0  0  0  0  0
   21.4633   -7.8669  -15.6038 C   0  0  2  0  0  0  0  0  0  0  0  0
   21.9388   -9.2191  -15.3064 N   0  0  0  0  0  0  0  0  0  0  0  0
   21.2282   -7.1318  -14.3667 C   0  0  0  0  0  0  0  0  0  0  0  0
   21.2414   -7.6643  -13.0862 O   0  0  0  0  0  0  0  0  0  0  0  0
   20.9838   -5.8740  -14.4379 O   0  0  0  0  0  0  0  0  0  0  0  0
  2  1  1  6
  3  2  1  0
  4  2  1  0
  4  5  1  6
  6  7  2  0
  6  4  1  0
  9  8  1  6
  9 11  1  0
 10  9  1  0
 11 12  1  6
 12  6  1  0
 13 21  1  0
 13 11  1  0
 14 13  2  0
 16 15  1  0
 17 16  2  0
 18 16  1  0
 19 18  1  0
 20 19  1  1
 20 21  1  0
 20 22  1  0
 22 23  1  0
 24 22  2  0
M  END
$$$$
