VVQ.pdb
     RDKit          3D

 24 23  0  0  1  0  0  0  0  0999 V2000
   25.0097  -16.5483  -15.8814 C   0  0  0  0  0  0  0  0  0  0  0  0
   26.1436  -16.6130  -14.8559 C   0  0  2  0  0  0  0  0  0  0  0  0
   27.0314  -15.4007  -15.0883 C   0  0  0  0  0  0  0  0  0  0  0  0
   26.9330  -17.8936  -15.0325 C   0  0  2  0  0  0  0  0  0  0  0  0
   27.3694  -17.9629  -16.4043 N   0  0  0  0  0  0  0  0  0  0  0  0
   26.0644  -19.0248  -14.6611 C   0  0  0  0  0  0  0  0  0  0  0  0
   25.4752  -19.6457  -15.5820 O   0  0  0  0  0  0  0  0  0  0  0  0
   27.1844  -21.6562  -12.1865 C   0  0  0  0  0  0  0  0  0  0  0  0
   25.7175  -21.3973  -11.9381 C   0  0  1  0  0  0  0  0  0  0  0  0
   25.5373  -20.7462  -10.5975 C   0  0  0  0  0  0  0  0  0  0  0  0
   25.0757  -20.6262  -13.0613 C   0  0  2  0  0  0  0  0  0  0  0  0
   25.8548  -19.4538  -13.3233 N   0  0  0  0  0  0  0  0  0  0  0  0
   23.6515  -20.2774  -12.7155 C   0  0  0  0  0  0  0  0  0  0  0  0
   23.3819  -19.6126  -11.6831 O   0  0  0  0  0  0  0  0  0  0  0  0
   19.1013  -18.2602  -16.2754 N   0  0  0  0  0  0  0  0  0  0  0  0
   20.5390  -18.2906  -16.3420 C   0  0  0  0  0  0  0  0  0  0  0  0
   21.0436  -17.7028  -17.2943 O   0  0  0  0  0  0  0  0  0  0  0  0
   21.2409  -18.9936  -15.3087 C   0  0  0  0  0  0  0  0  0  0  0  0
   20.4639  -19.6968  -14.2745 C   0  0  0  0  0  0  0  0  0  0  0  0
   21.1715  -20.4068  -13.1906 C   0  0  2  0  0  0  0  0  0  0  0  0
   22.5719  -20.6749  -13.5225 N   0  0  0  0  0  0  0  0  0  0  0  0
   20.5525  -21.5963  -12.6182 C   0  0  0  0  0  0  0  0  0  0  0  0
   19.3809  -21.6299  -11.8768 O   0  0  0  0  0  0  0  0  0  0  0  0
   21.1218  -22.7319  -12.8007 O   0  0  0  0  0  0  0  0  0  0  0  0
  2  1  1  6
  3  2  1  0
  4  2  1  0
  4  5  1  6
  6  7  2  0
  6  4  1  0
  9  8  1  6
  9 11  1  0
 10  9  1  0
 11 12  1  1
 12  6  1  0
 13 21  1  0
 13 11  1  0
 14 13  2  0
 16 15  1  0
 17 16  2  0
 18 16  1  0
 19 18  1  0
 20 19  1  6
 20 21  1  0
 20 22  1  0
 22 23  1  0
 24 22  2  0
M  END
$$$$
