VVQ.pdb
     RDKit          3D

 24 23  0  0  1  0  0  0  0  0999 V2000
   28.5364  -21.7316  -14.3893 C   0  0  0  0  0  0  0  0  0  0  0  0
   27.7675  -21.8607  -15.7061 C   0  0  2  0  0  0  0  0  0  0  0  0
   28.6927  -21.3883  -16.8165 C   0  0  0  0  0  0  0  0  0  0  0  0
   26.5124  -21.0140  -15.6614 C   0  0  2  0  0  0  0  0  0  0  0  0
   26.9090  -19.6285  -15.6598 N   0  0  0  0  0  0  0  0  0  0  0  0
   25.7513  -21.3823  -14.4544 C   0  0  0  0  0  0  0  0  0  0  0  0
   25.2742  -22.5437  -14.3871 O   0  0  0  0  0  0  0  0  0  0  0  0
   24.3558  -20.7854   -9.8160 C   0  0  0  0  0  0  0  0  0  0  0  0
   25.2569  -20.4768  -10.9879 C   0  0  1  0  0  0  0  0  0  0  0  0
   26.6137  -21.0760  -10.7560 C   0  0  0  0  0  0  0  0  0  0  0  0
   24.6456  -20.8872  -12.3017 C   0  0  2  0  0  0  0  0  0  0  0  0
   25.5258  -20.5014  -13.3632 N   0  0  0  0  0  0  0  0  0  0  0  0
   23.2807  -20.2709  -12.4641 C   0  0  0  0  0  0  0  0  0  0  0  0
   23.1467  -19.0311  -12.6238 O   0  0  0  0  0  0  0  0  0  0  0  0
   22.2831  -19.3252  -16.5162 N   0  0  0  0  0  0  0  0  0  0  0  0
   21.3654  -20.4332  -16.5645 C   0  0  0  0  0  0  0  0  0  0  0  0
   21.3068  -21.0340  -17.6334 O   0  0  0  0  0  0  0  0  0  0  0  0
   20.6138  -20.7301  -15.3806 C   0  0  0  0  0  0  0  0  0  0  0  0
   20.8239  -19.9036  -14.1804 C   0  0  0  0  0  0  0  0  0  0  0  0
   20.7956  -20.5372  -12.8472 C   0  0  2  0  0  0  0  0  0  0  0  0
   22.1082  -21.0454  -12.4447 N   0  0  0  0  0  0  0  0  0  0  0  0
   19.7643  -21.5301  -12.5707 C   0  0  0  0  0  0  0  0  0  0  0  0
   18.4168  -21.2719  -12.3676 O   0  0  0  0  0  0  0  0  0  0  0  0
   20.1049  -22.7655  -12.5029 O   0  0  0  0  0  0  0  0  0  0  0  0
  2  1  1  1
  3  2  1  0
  4  2  1  0
  4  5  1  1
  6  7  2  0
  6  4  1  0
  9  8  1  1
  9 11  1  0
 10  9  1  0
 11 12  1  6
 12  6  1  0
 13 21  1  0
 13 11  1  0
 14 13  2  0
 16 15  1  0
 17 16  2  0
 18 16  1  0
 19 18  1  0
 20 19  1  6
 20 21  1  0
 20 22  1  0
 22 23  1  0
 24 22  2  0
M  END
$$$$
