VVQ.pdb
     RDKit          3D

 24 23  0  0  1  0  0  0  0  0999 V2000
   20.5710  -21.8710  -16.2691 C   0  0  0  0  0  0  0  0  0  0  0  0
   20.7220  -20.3628  -16.0584 C   0  0  2  0  0  0  0  0  0  0  0  0
   20.8050  -19.7214  -17.4346 C   0  0  0  0  0  0  0  0  0  0  0  0
   21.9746  -20.0717  -15.2581 C   0  0  2  0  0  0  0  0  0  0  0  0
   23.1103  -20.4965  -16.0370 N   0  0  0  0  0  0  0  0  0  0  0  0
   21.8759  -20.7855  -13.9725 C   0  0  0  0  0  0  0  0  0  0  0  0
   22.5544  -21.8335  -13.8241 O   0  0  0  0  0  0  0  0  0  0  0  0
   22.8423  -19.6740  -10.5515 C   0  0  0  0  0  0  0  0  0  0  0  0
   21.3963  -20.1090  -10.5387 C   0  0  1  0  0  0  0  0  0  0  0  0
   20.5035  -18.9020  -10.5326 C   0  0  0  0  0  0  0  0  0  0  0  0
   21.0802  -21.0730  -11.6518 C   0  0  2  0  0  0  0  0  0  0  0  0
   21.0588  -20.3579  -12.8922 N   0  0  0  0  0  0  0  0  0  0  0  0
   19.7690  -21.7676  -11.3919 C   0  0  0  0  0  0  0  0  0  0  0  0
   18.7678  -21.5513  -12.1207 O   0  0  0  0  0  0  0  0  0  0  0  0
   18.5295  -25.3646   -6.2336 N   0  0  0  0  0  0  0  0  0  0  0  0
   17.2470  -25.3034   -6.8846 C   0  0  0  0  0  0  0  0  0  0  0  0
   16.3150  -25.8280   -6.2821 O   0  0  0  0  0  0  0  0  0  0  0  0
   17.1745  -24.6475   -8.1571 C   0  0  0  0  0  0  0  0  0  0  0  0
   18.4026  -24.0723   -8.7303 C   0  0  0  0  0  0  0  0  0  0  0  0
   18.3233  -23.2837   -9.9760 C   0  0  2  0  0  0  0  0  0  0  0  0
   19.6075  -22.6790  -10.3344 N   0  0  0  0  0  0  0  0  0  0  0  0
   17.2501  -22.3064  -10.1135 C   0  0  0  0  0  0  0  0  0  0  0  0
   17.2749  -20.9975   -9.6556 O   0  0  0  0  0  0  0  0  0  0  0  0
   16.1701  -22.6615  -10.7089 O   0  0  0  0  0  0  0  0  0  0  0  0
  2  1  1  6
  3  2  1  0
  4  2  1  0
  4  5  1  6
  6  7  2  0
  6  4  1  0
  9  8  1  6
  9 11  1  0
 10  9  1  0
 11 12  1  6
 12  6  1  0
 13 21  1  0
 13 11  1  0
 14 13  2  0
 16 15  1  0
 17 16  2  0
 18 16  1  0
 19 18  1  0
 20 19  1  1
 20 21  1  0
 20 22  1  0
 22 23  1  0
 24 22  2  0
M  END
$$$$
