VVQ.pdb
     RDKit          3D

 24 23  0  0  1  0  0  0  0  0999 V2000
   26.8334  -13.4244  -15.5271 C   0  0  0  0  0  0  0  0  0  0  0  0
   25.7852  -12.4897  -16.1348 C   0  0  2  0  0  0  0  0  0  0  0  0
   25.8014  -11.2048  -15.3219 C   0  0  0  0  0  0  0  0  0  0  0  0
   24.4169  -13.1371  -16.0815 C   0  0  2  0  0  0  0  0  0  0  0  0
   24.4770  -14.3689  -16.8273 N   0  0  0  0  0  0  0  0  0  0  0  0
   23.4368  -12.1889  -16.6403 C   0  0  0  0  0  0  0  0  0  0  0  0
   23.5561  -11.8572  -17.8472 O   0  0  0  0  0  0  0  0  0  0  0  0
   20.0958  -12.5855  -17.4840 C   0  0  0  0  0  0  0  0  0  0  0  0
   20.0979  -11.3604  -16.6010 C   0  0  1  0  0  0  0  0  0  0  0  0
   19.5282  -11.7042  -15.2552 C   0  0  0  0  0  0  0  0  0  0  0  0
   21.4570  -10.7166  -16.5211 C   0  0  2  0  0  0  0  0  0  0  0  0
   22.3659  -11.6285  -15.8943 N   0  0  0  0  0  0  0  0  0  0  0  0
   21.3796   -9.4116  -15.7724 C   0  0  0  0  0  0  0  0  0  0  0  0
   21.7547   -9.3305  -14.5753 O   0  0  0  0  0  0  0  0  0  0  0  0
   22.3589   -5.9912  -13.0408 N   0  0  0  0  0  0  0  0  0  0  0  0
   22.4088   -4.7921  -13.8358 C   0  0  0  0  0  0  0  0  0  0  0  0
   22.4155   -3.7353  -13.2113 O   0  0  0  0  0  0  0  0  0  0  0  0
   22.4441   -4.9369  -15.2615 C   0  0  0  0  0  0  0  0  0  0  0  0
   22.2409   -6.2734  -15.8446 C   0  0  0  0  0  0  0  0  0  0  0  0
   20.9216   -6.9254  -15.7258 C   0  0  2  0  0  0  0  0  0  0  0  0
   20.8897   -8.2387  -16.3718 N   0  0  0  0  0  0  0  0  0  0  0  0
   19.7328   -6.1598  -16.0813 C   0  0  0  0  0  0  0  0  0  0  0  0
   19.1416   -5.1675  -15.3137 O   0  0  0  0  0  0  0  0  0  0  0  0
   19.1584   -6.4048  -17.2025 O   0  0  0  0  0  0  0  0  0  0  0  0
  2  1  1  1
  3  2  1  0
  4  2  1  0
  4  5  1  6
  6  7  2  0
  6  4  1  0
  9  8  1  6
  9 11  1  0
 10  9  1  0
 11 12  1  1
 12  6  1  0
 13 21  1  0
 13 11  1  0
 14 13  2  0
 16 15  1  0
 17 16  2  0
 18 16  1  0
 19 18  1  0
 20 19  1  6
 20 21  1  0
 20 22  1  0
 22 23  1  0
 24 22  2  0
M  END
$$$$
