VVQ.pdb
     RDKit          3D

 24 23  0  0  1  0  0  0  0  0999 V2000
   16.7793  -15.3563  -18.3098 C   0  0  0  0  0  0  0  0  0  0  0  0
   17.8115  -14.4988  -17.5742 C   0  0  2  0  0  0  0  0  0  0  0  0
   17.5272  -13.0478  -17.9291 C   0  0  0  0  0  0  0  0  0  0  0  0
   19.2115  -14.8878  -18.0017 C   0  0  2  0  0  0  0  0  0  0  0  0
   19.4656  -16.2262  -17.5315 N   0  0  0  0  0  0  0  0  0  0  0  0
   20.1546  -13.9055  -17.4385 C   0  0  0  0  0  0  0  0  0  0  0  0
   20.3512  -13.9186  -16.1967 O   0  0  0  0  0  0  0  0  0  0  0  0
   22.5760  -11.4800  -19.8800 C   0  0  0  0  0  0  0  0  0  0  0  0
   22.9465  -11.8141  -18.4546 C   0  0  1  0  0  0  0  0  0  0  0  0
   23.8945  -10.7794  -17.9212 C   0  0  0  0  0  0  0  0  0  0  0  0
   21.7356  -12.0130  -17.5816 C   0  0  2  0  0  0  0  0  0  0  0  0
   20.8539  -12.9452  -18.2172 N   0  0  0  0  0  0  0  0  0  0  0  0
   21.0520  -10.6964  -17.3196 C   0  0  0  0  0  0  0  0  0  0  0  0
   20.2073  -10.2350  -18.1283 O   0  0  0  0  0  0  0  0  0  0  0  0
   17.5298   -9.1753  -12.9754 N   0  0  0  0  0  0  0  0  0  0  0  0
   17.7715   -7.8404  -13.4571 C   0  0  0  0  0  0  0  0  0  0  0  0
   17.0694   -6.9596  -12.9690 O   0  0  0  0  0  0  0  0  0  0  0  0
   18.7921   -7.6623  -14.4477 C   0  0  0  0  0  0  0  0  0  0  0  0
   19.5169   -8.8452  -14.9409 C   0  0  0  0  0  0  0  0  0  0  0  0
   20.6557   -8.6676  -15.8635 C   0  0  2  0  0  0  0  0  0  0  0  0
   21.3247   -9.9327  -16.1718 N   0  0  0  0  0  0  0  0  0  0  0  0
   21.6415   -7.6367  -15.5614 C   0  0  0  0  0  0  0  0  0  0  0  0
   21.4240   -6.2672  -15.5872 O   0  0  0  0  0  0  0  0  0  0  0  0
   22.8292   -8.0000  -15.2384 O   0  0  0  0  0  0  0  0  0  0  0  0
  2  1  1  6
  3  2  1  0
  4  2  1  0
  4  5  1  1
  6  7  2  0
  6  4  1  0
  9  8  1  6
  9 11  1  0
 10  9  1  0
 11 12  1  6
 12  6  1  0
 13 21  1  0
 13 11  1  0
 14 13  2  0
 16 15  1  0
 17 16  2  0
 18 16  1  0
 19 18  1  0
 20 19  1  1
 20 21  1  0
 20 22  1  0
 22 23  1  0
 24 22  2  0
M  END
$$$$
