VVQ.pdb
     RDKit          3D

 24 23  0  0  1  0  0  0  0  0999 V2000
   19.3310  -14.6652  -16.7520 C   0  0  0  0  0  0  0  0  0  0  0  0
   20.3756  -15.2652  -17.6958 C   0  0  2  0  0  0  0  0  0  0  0  0
   19.7031  -16.4030  -18.4477 C   0  0  0  0  0  0  0  0  0  0  0  0
   21.5607  -15.7767  -16.9033 C   0  0  2  0  0  0  0  0  0  0  0  0
   21.1403  -16.9501  -16.1798 N   0  0  0  0  0  0  0  0  0  0  0  0
   22.0165  -14.6980  -16.0087 C   0  0  0  0  0  0  0  0  0  0  0  0
   21.4229  -14.5496  -14.9103 O   0  0  0  0  0  0  0  0  0  0  0  0
   25.2897  -12.1101  -16.9498 C   0  0  0  0  0  0  0  0  0  0  0  0
   24.8431  -12.3942  -15.5355 C   0  0  1  0  0  0  0  0  0  0  0  0
   25.2549  -11.2642  -14.6369 C   0  0  0  0  0  0  0  0  0  0  0  0
   23.3728  -12.7095  -15.4536 C   0  0  2  0  0  0  0  0  0  0  0  0
   23.0872  -13.8166  -16.3157 N   0  0  0  0  0  0  0  0  0  0  0  0
   22.5525  -11.4996  -15.8180 C   0  0  0  0  0  0  0  0  0  0  0  0
   22.2453  -11.2639  -17.0140 O   0  0  0  0  0  0  0  0  0  0  0  0
   17.7188   -9.8908  -16.9440 N   0  0  0  0  0  0  0  0  0  0  0  0
   17.8292   -8.6579  -16.2091 C   0  0  0  0  0  0  0  0  0  0  0  0
   16.9538   -7.8250  -16.4256 O   0  0  0  0  0  0  0  0  0  0  0  0
   18.9336   -8.5150  -15.3065 C   0  0  0  0  0  0  0  0  0  0  0  0
   19.8669   -9.6418  -15.1426 C   0  0  0  0  0  0  0  0  0  0  0  0
   21.3215   -9.3900  -15.1644 C   0  0  2  0  0  0  0  0  0  0  0  0
   22.0987  -10.5896  -14.8480 N   0  0  0  0  0  0  0  0  0  0  0  0
   21.8402   -8.2443  -14.4267 C   0  0  0  0  0  0  0  0  0  0  0  0
   21.8453   -6.9277  -14.8626 O   0  0  0  0  0  0  0  0  0  0  0  0
   22.3451   -8.4415  -13.2635 O   0  0  0  0  0  0  0  0  0  0  0  0
  2  1  1  1
  3  2  1  0
  4  2  1  0
  4  5  1  1
  6  7  2  0
  6  4  1  0
  9  8  1  6
  9 11  1  0
 10  9  1  0
 11 12  1  6
 12  6  1  0
 13 21  1  0
 13 11  1  0
 14 13  2  0
 16 15  1  0
 17 16  2  0
 18 16  1  0
 19 18  1  0
 20 19  1  1
 20 21  1  0
 20 22  1  0
 22 23  1  0
 24 22  2  0
M  END
$$$$
