VVQ.pdb
     RDKit          3D

 24 23  0  0  1  0  0  0  0  0999 V2000
   25.3785  -16.0468  -15.2282 C   0  0  0  0  0  0  0  0  0  0  0  0
   23.8980  -16.1125  -15.6094 C   0  0  2  0  0  0  0  0  0  0  0  0
   23.6782  -17.4284  -16.3388 C   0  0  0  0  0  0  0  0  0  0  0  0
   23.5374  -14.9421  -16.5008 C   0  0  2  0  0  0  0  0  0  0  0  0
   24.2744  -15.0757  -17.7321 N   0  0  0  0  0  0  0  0  0  0  0  0
   23.8646  -13.6979  -15.7819 C   0  0  0  0  0  0  0  0  0  0  0  0
   23.2958  -13.4834  -14.6813 O   0  0  0  0  0  0  0  0  0  0  0  0
   26.7929  -10.9090  -17.1481 C   0  0  0  0  0  0  0  0  0  0  0  0
   26.3514  -11.0086  -15.7074 C   0  0  1  0  0  0  0  0  0  0  0  0
   26.6103   -9.7066  -15.0064 C   0  0  0  0  0  0  0  0  0  0  0  0
   24.9258  -11.4767  -15.5782 C   0  0  2  0  0  0  0  0  0  0  0  0
   24.7849  -12.7277  -16.2605 N   0  0  0  0  0  0  0  0  0  0  0  0
   23.9785  -10.4401  -16.1236 C   0  0  0  0  0  0  0  0  0  0  0  0
   23.7566  -10.3538  -17.3580 O   0  0  0  0  0  0  0  0  0  0  0  0
   19.1095  -10.5719  -17.8907 N   0  0  0  0  0  0  0  0  0  0  0  0
   19.0284  -10.5589  -16.4535 C   0  0  0  0  0  0  0  0  0  0  0  0
   18.0392  -11.0997  -15.9679 O   0  0  0  0  0  0  0  0  0  0  0  0
   20.0914   -9.9251  -15.7303 C   0  0  0  0  0  0  0  0  0  0  0  0
   21.1919   -9.3035  -16.4855 C   0  0  0  0  0  0  0  0  0  0  0  0
   22.2727   -8.6101  -15.7570 C   0  0  2  0  0  0  0  0  0  0  0  0
   23.3075   -9.5326  -15.2864 N   0  0  0  0  0  0  0  0  0  0  0  0
   21.9098   -7.6766  -14.6974 C   0  0  0  0  0  0  0  0  0  0  0  0
   21.0404   -6.6029  -14.8184 O   0  0  0  0  0  0  0  0  0  0  0  0
   22.4271   -7.8384  -13.5341 O   0  0  0  0  0  0  0  0  0  0  0  0
  2  1  1  6
  3  2  1  0
  4  2  1  0
  4  5  1  6
  6  7  2  0
  6  4  1  0
  9  8  1  6
  9 11  1  0
 10  9  1  0
 11 12  1  6
 12  6  1  0
 13 21  1  0
 13 11  1  0
 14 13  2  0
 16 15  1  0
 17 16  2  0
 18 16  1  0
 19 18  1  0
 20 19  1  1
 20 21  1  0
 20 22  1  0
 22 23  1  0
 24 22  2  0
M  END
$$$$
