EGY.pdb
     RDKit          3D

 26 26  0  0  1  0  0  0  0  0999 V2000
   39.9060   -7.7562  -16.8933 N   0  0  0  0  0  0  0  0  0  0  0  0
   38.5450   -8.2669  -16.8246 C   0  0  1  0  0  0  0  0  0  0  0  0
   37.9975   -8.6067  -18.1719 C   0  0  0  0  0  0  0  0  0  0  0  0
   38.8947   -8.1685  -19.2674 C   0  0  0  0  0  0  0  0  0  0  0  0
   38.2514   -7.7130  -20.5003 C   0  0  0  0  0  0  0  0  0  0  0  0
   37.0434   -7.4832  -20.6869 O   0  0  0  0  0  0  0  0  0  0  0  0
   38.5646   -9.4511  -15.9134 C   0  0  0  0  0  0  0  0  0  0  0  0
   37.5430  -10.1280  -15.7328 O   0  0  0  0  0  0  0  0  0  0  0  0
   39.0865   -7.5101  -21.6030 O   0  0  0  0  0  0  0  0  0  0  0  0
   39.7507   -9.8095  -15.2488 N   0  0  0  0  0  0  0  0  0  0  0  0
   39.9009  -10.9800  -14.4217 C   0  0  0  0  0  0  0  0  0  0  0  0
   40.3675  -10.6005  -13.0700 C   0  0  0  0  0  0  0  0  0  0  0  0
   40.5630   -9.3750  -12.7994 O   0  0  0  0  0  0  0  0  0  0  0  0
   43.3779  -10.9232   -4.8464 O   0  0  0  0  0  0  0  0  0  0  0  0
   42.7486  -11.2205   -6.0459 C   0  0  0  0  0  0  0  0  0  0  0  0
   43.2794  -12.2002   -6.8544 C   0  0  0  0  0  0  0  0  0  0  0  0
   42.6263  -12.4669   -8.0375 C   0  0  0  0  0  0  0  0  0  0  0  0
   41.4883  -11.8016   -8.4269 C   0  0  0  0  0  0  0  0  0  0  0  0
   40.8636  -12.1608   -9.7116 C   0  0  0  0  0  0  0  0  0  0  0  0
   41.1895  -11.1878  -10.8244 C   0  0  2  0  0  0  0  0  0  0  0  0
   40.5999  -11.5809  -12.0728 N   0  0  0  0  0  0  0  0  0  0  0  0
   42.6390  -10.9511  -10.9284 C   0  0  0  0  0  0  0  0  0  0  0  0
   43.1316   -9.9448  -10.3821 O   0  0  0  0  0  0  0  0  0  0  0  0
   40.9795  -10.8271   -7.5995 C   0  0  0  0  0  0  0  0  0  0  0  0
   41.6134  -10.5338   -6.4005 C   0  0  0  0  0  0  0  0  0  0  0  0
   43.4533  -11.8171  -11.6143 O   0  0  0  0  0  0  0  0  0  0  0  0
  2  1  1  6
  2  3  1  0
  4  3  1  0
  4  5  1  0
  5  9  1  0
  5  6  2  0
  7  8  2  0
  7  2  1  0
 10  7  1  0
 11 12  1  0
 11 10  1  0
 12 21  1  0
 13 12  2  0
 15 14  1  0
 16 15  2  0
 17 16  1  0
 18 24  1  0
 18 17  2  0
 19 18  1  0
 20 19  1  1
 21 20  1  0
 22 26  1  0
 22 20  1  0
 23 22  2  0
 24 25  2  0
 25 15  1  0
M  END
$$$$
