EGY.pdb
     RDKit          3D

 26 26  0  0  1  0  0  0  0  0999 V2000
   17.9606  -13.5174  -15.5201 N   0  0  0  0  0  0  0  0  0  0  0  0
   18.9389  -13.2084  -16.5520 C   0  0  1  0  0  0  0  0  0  0  0  0
   18.7525  -14.0400  -17.7785 C   0  0  0  0  0  0  0  0  0  0  0  0
   18.0104  -15.2921  -17.4980 C   0  0  0  0  0  0  0  0  0  0  0  0
   17.7809  -16.1873  -18.6326 C   0  0  0  0  0  0  0  0  0  0  0  0
   16.8022  -16.2059  -19.3999 O   0  0  0  0  0  0  0  0  0  0  0  0
   18.8247  -11.7473  -16.8437 C   0  0  0  0  0  0  0  0  0  0  0  0
   17.7926  -11.2805  -17.3451 O   0  0  0  0  0  0  0  0  0  0  0  0
   18.7744  -17.1363  -18.8911 O   0  0  0  0  0  0  0  0  0  0  0  0
   19.8948  -10.8840  -16.5495 N   0  0  0  0  0  0  0  0  0  0  0  0
   19.9121   -9.4744  -16.8484 C   0  0  0  0  0  0  0  0  0  0  0  0
   20.0068   -8.6834  -15.6017 C   0  0  0  0  0  0  0  0  0  0  0  0
   19.4902   -9.1383  -14.5343 O   0  0  0  0  0  0  0  0  0  0  0  0
   26.2184   -5.2170  -17.1808 O   0  0  0  0  0  0  0  0  0  0  0  0
   25.1911   -5.5749  -16.3206 C   0  0  0  0  0  0  0  0  0  0  0  0
   24.8920   -6.9084  -16.1549 C   0  0  0  0  0  0  0  0  0  0  0  0
   23.8654   -7.2242  -15.2925 C   0  0  0  0  0  0  0  0  0  0  0  0
   23.1475   -6.2725  -14.6084 C   0  0  0  0  0  0  0  0  0  0  0  0
   22.0678   -6.7125  -13.7081 C   0  0  0  0  0  0  0  0  0  0  0  0
   20.7004   -6.6756  -14.3564 C   0  0  2  0  0  0  0  0  0  0  0  0
   20.6639   -7.4275  -15.5787 N   0  0  0  0  0  0  0  0  0  0  0  0
   20.2179   -5.2945  -14.5226 C   0  0  0  0  0  0  0  0  0  0  0  0
   19.9941   -4.8624  -15.6701 O   0  0  0  0  0  0  0  0  0  0  0  0
   23.4678   -4.9472  -14.7928 C   0  0  0  0  0  0  0  0  0  0  0  0
   24.4966   -4.5950  -15.6547 C   0  0  0  0  0  0  0  0  0  0  0  0
   20.0115   -4.4784  -13.4386 O   0  0  0  0  0  0  0  0  0  0  0  0
  2  1  1  1
  2  3  1  0
  4  3  1  0
  4  5  1  0
  5  9  1  0
  5  6  2  0
  7  8  2  0
  7  2  1  0
 10  7  1  0
 11 12  1  0
 11 10  1  0
 12 21  1  0
 13 12  2  0
 15 14  1  0
 16 15  2  0
 17 16  1  0
 18 24  1  0
 18 17  2  0
 19 18  1  0
 20 19  1  6
 21 20  1  0
 22 26  1  0
 22 20  1  0
 23 22  2  0
 24 25  2  0
 25 15  1  0
M  END
$$$$
