EGY.pdb
     RDKit          3D

 26 26  0  0  1  0  0  0  0  0999 V2000
   17.4087   -9.5550  -20.3427 N   0  0  0  0  0  0  0  0  0  0  0  0
   17.8080   -9.1568  -19.0012 C   0  0  1  0  0  0  0  0  0  0  0  0
   17.9773  -10.3266  -18.0884 C   0  0  0  0  0  0  0  0  0  0  0  0
   17.8152   -9.9524  -16.6633 C   0  0  0  0  0  0  0  0  0  0  0  0
   19.0154   -9.4903  -15.9654 C   0  0  0  0  0  0  0  0  0  0  0  0
   20.2019   -9.6962  -16.2764 O   0  0  0  0  0  0  0  0  0  0  0  0
   19.0673   -8.3634  -19.1339 C   0  0  0  0  0  0  0  0  0  0  0  0
   19.9286   -8.6774  -19.9670 O   0  0  0  0  0  0  0  0  0  0  0  0
   18.8128   -8.7266  -14.8120 O   0  0  0  0  0  0  0  0  0  0  0  0
   19.2869   -7.2462  -18.3090 N   0  0  0  0  0  0  0  0  0  0  0  0
   20.5321   -6.5258  -18.2251 C   0  0  0  0  0  0  0  0  0  0  0  0
   20.4935   -5.5567  -17.1078 C   0  0  0  0  0  0  0  0  0  0  0  0
   19.4077   -5.3806  -16.4728 O   0  0  0  0  0  0  0  0  0  0  0  0
   21.7385   -9.6433  -12.7396 O   0  0  0  0  0  0  0  0  0  0  0  0
   21.9481   -8.3468  -13.1852 C   0  0  0  0  0  0  0  0  0  0  0  0
   21.3110   -7.3084  -12.5441 C   0  0  0  0  0  0  0  0  0  0  0  0
   21.5441   -6.0353  -13.0154 C   0  0  0  0  0  0  0  0  0  0  0  0
   22.3732   -5.7753  -14.0804 C   0  0  0  0  0  0  0  0  0  0  0  0
   22.5576   -4.3779  -14.5086 C   0  0  0  0  0  0  0  0  0  0  0  0
   21.5890   -3.9549  -15.5922 C   0  0  2  0  0  0  0  0  0  0  0  0
   21.6471   -4.8223  -16.7345 N   0  0  0  0  0  0  0  0  0  0  0  0
   21.7591   -2.5356  -15.9454 C   0  0  0  0  0  0  0  0  0  0  0  0
   21.5715   -1.6652  -15.0732 O   0  0  0  0  0  0  0  0  0  0  0  0
   22.9972   -6.8319  -14.7027 C   0  0  0  0  0  0  0  0  0  0  0  0
   22.7838   -8.1271  -14.2526 C   0  0  0  0  0  0  0  0  0  0  0  0
   22.1196   -2.1572  -17.2145 O   0  0  0  0  0  0  0  0  0  0  0  0
  2  1  1  6
  2  3  1  0
  4  3  1  0
  4  5  1  0
  5  9  1  0
  5  6  2  0
  7  8  2  0
  7  2  1  0
 10  7  1  0
 11 12  1  0
 11 10  1  0
 12 21  1  0
 13 12  2  0
 15 14  1  0
 16 15  2  0
 17 16  1  0
 18 24  1  0
 18 17  2  0
 19 18  1  0
 20 19  1  1
 21 20  1  0
 22 26  1  0
 22 20  1  0
 23 22  2  0
 24 25  2  0
 25 15  1  0
M  END
$$$$
