EGY.pdb
     RDKit          3D

 26 26  0  0  1  0  0  0  0  0999 V2000
   27.4014  -21.3330  -17.1020 N   0  0  0  0  0  0  0  0  0  0  0  0
   26.2026  -20.5101  -17.1588 C   0  0  1  0  0  0  0  0  0  0  0  0
   25.7572  -20.2517  -18.5608 C   0  0  0  0  0  0  0  0  0  0  0  0
   26.0434  -21.3958  -19.4587 C   0  0  0  0  0  0  0  0  0  0  0  0
   27.3614  -21.4178  -20.0940 C   0  0  0  0  0  0  0  0  0  0  0  0
   27.9835  -20.4602  -20.5867 O   0  0  0  0  0  0  0  0  0  0  0  0
   25.1517  -21.2071  -16.3570 C   0  0  0  0  0  0  0  0  0  0  0  0
   24.0393  -20.6897  -16.1853 O   0  0  0  0  0  0  0  0  0  0  0  0
   28.0035  -22.6580  -20.1588 O   0  0  0  0  0  0  0  0  0  0  0  0
   25.4182  -22.4644  -15.7869 N   0  0  0  0  0  0  0  0  0  0  0  0
   24.4830  -23.2114  -14.9845 C   0  0  0  0  0  0  0  0  0  0  0  0
   24.6844  -22.9170  -13.5487 C   0  0  0  0  0  0  0  0  0  0  0  0
   23.9291  -23.4666  -12.6880 O   0  0  0  0  0  0  0  0  0  0  0  0
   27.7049  -19.5643   -6.0206 O   0  0  0  0  0  0  0  0  0  0  0  0
   27.5708  -19.9555   -7.3444 C   0  0  0  0  0  0  0  0  0  0  0  0
   28.2705  -21.0537   -7.7910 C   0  0  0  0  0  0  0  0  0  0  0  0
   28.1115  -21.4112   -9.1117 C   0  0  0  0  0  0  0  0  0  0  0  0
   27.2957  -20.7223   -9.9771 C   0  0  0  0  0  0  0  0  0  0  0  0
   27.1928  -21.1849  -11.3718 C   0  0  0  0  0  0  0  0  0  0  0  0
   25.8204  -21.7189  -11.7219 C   0  0  2  0  0  0  0  0  0  0  0  0
   25.7050  -22.0325  -13.1180 N   0  0  0  0  0  0  0  0  0  0  0  0
   24.7539  -20.8202  -11.2498 C   0  0  0  0  0  0  0  0  0  0  0  0
   24.3190  -19.9379  -12.0154 O   0  0  0  0  0  0  0  0  0  0  0  0
   26.6081  -19.6284   -9.5040 C   0  0  0  0  0  0  0  0  0  0  0  0
   26.7460  -19.2416   -8.1786 C   0  0  0  0  0  0  0  0  0  0  0  0
   24.2330  -20.9378   -9.9855 O   0  0  0  0  0  0  0  0  0  0  0  0
  2  1  1  6
  2  3  1  0
  4  3  1  0
  4  5  1  0
  5  9  1  0
  5  6  2  0
  7  8  2  0
  7  2  1  0
 10  7  1  0
 11 12  1  0
 11 10  1  0
 12 21  1  0
 13 12  2  0
 15 14  1  0
 16 15  2  0
 17 16  1  0
 18 24  1  0
 18 17  2  0
 19 18  1  0
 20 19  1  6
 21 20  1  0
 22 26  1  0
 22 20  1  0
 23 22  2  0
 24 25  2  0
 25 15  1  0
M  END
$$$$
