EGY.pdb
     RDKit          3D

 26 26  0  0  1  0  0  0  0  0999 V2000
   25.9046  -17.9535  -17.3229 N   0  0  0  0  0  0  0  0  0  0  0  0
   25.7306  -19.3983  -17.3129 C   0  0  1  0  0  0  0  0  0  0  0  0
   26.2899  -20.0461  -18.5368 C   0  0  0  0  0  0  0  0  0  0  0  0
   27.3986  -19.2603  -19.1289 C   0  0  0  0  0  0  0  0  0  0  0  0
   27.0347  -18.2800  -20.1525 C   0  0  0  0  0  0  0  0  0  0  0  0
   26.1117  -18.3554  -20.9828 O   0  0  0  0  0  0  0  0  0  0  0  0
   26.3733  -19.9105  -16.0649 C   0  0  0  0  0  0  0  0  0  0  0  0
   26.1649  -21.0674  -15.6742 O   0  0  0  0  0  0  0  0  0  0  0  0
   27.8114  -17.1191  -20.2106 O   0  0  0  0  0  0  0  0  0  0  0  0
   27.2259  -19.0782  -15.3184 N   0  0  0  0  0  0  0  0  0  0  0  0
   27.9155  -19.4816  -14.1191 C   0  0  0  0  0  0  0  0  0  0  0  0
   27.0554  -19.2717  -12.9337 C   0  0  0  0  0  0  0  0  0  0  0  0
   26.6673  -18.0972  -12.6455 O   0  0  0  0  0  0  0  0  0  0  0  0
   19.2241  -19.7664   -9.9496 O   0  0  0  0  0  0  0  0  0  0  0  0
   20.4614  -19.8898  -10.5637 C   0  0  0  0  0  0  0  0  0  0  0  0
   21.1575  -18.7505  -10.8996 C   0  0  0  0  0  0  0  0  0  0  0  0
   22.3826  -18.9137  -11.5079 C   0  0  0  0  0  0  0  0  0  0  0  0
   22.9191  -20.1488  -11.7835 C   0  0  0  0  0  0  0  0  0  0  0  0
   24.2375  -20.2175  -12.4368 C   0  0  0  0  0  0  0  0  0  0  0  0
   25.3846  -20.3113  -11.4536 C   0  0  2  0  0  0  0  0  0  0  0  0
   26.6578  -20.3586  -12.1151 N   0  0  0  0  0  0  0  0  0  0  0  0
   25.1941  -21.4210  -10.5048 C   0  0  0  0  0  0  0  0  0  0  0  0
   25.5150  -22.5757  -10.8471 O   0  0  0  0  0  0  0  0  0  0  0  0
   22.2018  -21.2706  -11.4369 C   0  0  0  0  0  0  0  0  0  0  0  0
   20.9643  -21.1412  -10.8227 C   0  0  0  0  0  0  0  0  0  0  0  0
   24.6708  -21.2052   -9.2544 O   0  0  0  0  0  0  0  0  0  0  0  0
  2  1  1  6
  2  3  1  0
  4  3  1  0
  4  5  1  0
  5  9  1  0
  5  6  2  0
  7  8  2  0
  7  2  1  0
 10  7  1  0
 11 12  1  0
 11 10  1  0
 12 21  1  0
 13 12  2  0
 15 14  1  0
 16 15  2  0
 17 16  1  0
 18 24  1  0
 18 17  2  0
 19 18  1  0
 20 19  1  6
 21 20  1  0
 22 26  1  0
 22 20  1  0
 23 22  2  0
 24 25  2  0
 25 15  1  0
M  END
$$$$
