EGY.pdb
     RDKit          3D

 26 26  0  0  1  0  0  0  0  0999 V2000
   18.7065  -33.5902  -16.3900 N   0  0  0  0  0  0  0  0  0  0  0  0
   19.8906  -33.9572  -17.1521 C   0  0  1  0  0  0  0  0  0  0  0  0
   20.3078  -32.8852  -18.1045 C   0  0  0  0  0  0  0  0  0  0  0  0
   19.6981  -31.5751  -17.7744 C   0  0  0  0  0  0  0  0  0  0  0  0
   20.6032  -30.4271  -17.7113 C   0  0  0  0  0  0  0  0  0  0  0  0
   21.7997  -30.3833  -18.0484 O   0  0  0  0  0  0  0  0  0  0  0  0
   20.9662  -34.2797  -16.1661 C   0  0  0  0  0  0  0  0  0  0  0  0
   22.1113  -34.5592  -16.5471 O   0  0  0  0  0  0  0  0  0  0  0  0
   20.0675  -29.2351  -17.2146 O   0  0  0  0  0  0  0  0  0  0  0  0
   20.6860  -34.2685  -14.7884 N   0  0  0  0  0  0  0  0  0  0  0  0
   21.6638  -34.4964  -13.7547 C   0  0  0  0  0  0  0  0  0  0  0  0
   21.0283  -34.4348  -12.4201 C   0  0  0  0  0  0  0  0  0  0  0  0
   19.8628  -33.9427  -12.3071 O   0  0  0  0  0  0  0  0  0  0  0  0
   26.8671  -32.4730   -8.6832 O   0  0  0  0  0  0  0  0  0  0  0  0
   25.6556  -33.1471   -8.7180 C   0  0  0  0  0  0  0  0  0  0  0  0
   25.5036  -34.2042   -9.5867 C   0  0  0  0  0  0  0  0  0  0  0  0
   24.2861  -34.8486   -9.5923 C   0  0  0  0  0  0  0  0  0  0  0  0
   23.2432  -34.4782   -8.7773 C   0  0  0  0  0  0  0  0  0  0  0  0
   21.9802  -35.2318   -8.8581 C   0  0  0  0  0  0  0  0  0  0  0  0
   21.0787  -34.7637   -9.9804 C   0  0  2  0  0  0  0  0  0  0  0  0
   21.6978  -34.9152  -11.2667 N   0  0  0  0  0  0  0  0  0  0  0  0
   20.5853  -33.3968   -9.7431 C   0  0  0  0  0  0  0  0  0  0  0  0
   21.0009  -32.4669  -10.4616 O   0  0  0  0  0  0  0  0  0  0  0  0
   23.4227  -33.4181   -7.9187 C   0  0  0  0  0  0  0  0  0  0  0  0
   24.6370  -32.7473   -7.8882 C   0  0  0  0  0  0  0  0  0  0  0  0
   19.6786  -33.1312   -8.7476 O   0  0  0  0  0  0  0  0  0  0  0  0
  2  1  1  1
  2  3  1  0
  4  3  1  0
  4  5  1  0
  5  9  1  0
  5  6  2  0
  7  8  2  0
  7  2  1  0
 10  7  1  0
 11 12  1  0
 11 10  1  0
 12 21  1  0
 13 12  2  0
 15 14  1  0
 16 15  2  0
 17 16  1  0
 18 24  1  0
 18 17  2  0
 19 18  1  0
 20 19  1  1
 21 20  1  0
 22 26  1  0
 22 20  1  0
 23 22  2  0
 24 25  2  0
 25 15  1  0
M  END
$$$$
