EGY.pdb
     RDKit          3D

 26 26  0  0  1  0  0  0  0  0999 V2000
   22.1717  -21.4625  -13.4653 N   0  0  0  0  0  0  0  0  0  0  0  0
   22.7405  -20.8209  -14.6410 C   0  0  1  0  0  0  0  0  0  0  0  0
   21.8520  -19.7542  -15.1916 C   0  0  0  0  0  0  0  0  0  0  0  0
   21.0966  -19.0509  -14.1277 C   0  0  0  0  0  0  0  0  0  0  0  0
   19.8201  -19.6438  -13.7275 C   0  0  0  0  0  0  0  0  0  0  0  0
   19.3774  -19.7873  -12.5741 O   0  0  0  0  0  0  0  0  0  0  0  0
   24.0790  -20.2862  -14.2466 C   0  0  0  0  0  0  0  0  0  0  0  0
   24.9249  -20.0007  -15.1054 O   0  0  0  0  0  0  0  0  0  0  0  0
   18.9953  -20.1060  -14.7573 O   0  0  0  0  0  0  0  0  0  0  0  0
   24.3918  -20.1014  -12.8883 N   0  0  0  0  0  0  0  0  0  0  0  0
   25.6660  -19.6380  -12.4001 C   0  0  0  0  0  0  0  0  0  0  0  0
   26.1925  -20.5631  -11.3725 C   0  0  0  0  0  0  0  0  0  0  0  0
   26.5002  -21.7505  -11.7019 O   0  0  0  0  0  0  0  0  0  0  0  0
   28.6499  -18.4142   -3.5809 O   0  0  0  0  0  0  0  0  0  0  0  0
   28.5269  -19.0248   -4.8201 C   0  0  0  0  0  0  0  0  0  0  0  0
   28.8570  -20.3554   -4.9453 C   0  0  0  0  0  0  0  0  0  0  0  0
   28.7217  -20.9264   -6.1915 C   0  0  0  0  0  0  0  0  0  0  0  0
   28.2779  -20.2261   -7.2878 C   0  0  0  0  0  0  0  0  0  0  0  0
   28.1672  -20.9279   -8.5782 C   0  0  0  0  0  0  0  0  0  0  0  0
   26.7357  -21.1121   -9.0344 C   0  0  2  0  0  0  0  0  0  0  0  0
   26.3590  -20.1466  -10.0277 N   0  0  0  0  0  0  0  0  0  0  0  0
   25.8052  -21.1488   -7.8939 C   0  0  0  0  0  0  0  0  0  0  0  0
   25.0155  -20.1998   -7.7225 O   0  0  0  0  0  0  0  0  0  0  0  0
   27.9550  -18.8975   -7.1341 C   0  0  0  0  0  0  0  0  0  0  0  0
   28.0800  -18.2918   -5.8920 C   0  0  0  0  0  0  0  0  0  0  0  0
   25.7934  -22.2070   -7.0199 O   0  0  0  0  0  0  0  0  0  0  0  0
  2  1  1  1
  2  3  1  0
  4  3  1  0
  4  5  1  0
  5  9  1  0
  5  6  2  0
  7  8  2  0
  7  2  1  0
 10  7  1  0
 11 12  1  0
 11 10  1  0
 12 21  1  0
 13 12  2  0
 15 14  1  0
 16 15  2  0
 17 16  1  0
 18 24  1  0
 18 17  2  0
 19 18  1  0
 20 19  1  1
 21 20  1  0
 22 26  1  0
 22 20  1  0
 23 22  2  0
 24 25  2  0
 25 15  1  0
M  END
$$$$
