EGY.pdb
     RDKit          3D

 26 26  0  0  1  0  0  0  0  0999 V2000
   26.9053  -17.4550  -17.7376 N   0  0  0  0  0  0  0  0  0  0  0  0
   25.6209  -17.5490  -17.0600 C   0  0  1  0  0  0  0  0  0  0  0  0
   24.6766  -18.4713  -17.7586 C   0  0  0  0  0  0  0  0  0  0  0  0
   24.5733  -18.1744  -19.2072 C   0  0  0  0  0  0  0  0  0  0  0  0
   23.6403  -17.1161  -19.5955 C   0  0  0  0  0  0  0  0  0  0  0  0
   22.4096  -17.2074  -19.7507 O   0  0  0  0  0  0  0  0  0  0  0  0
   25.8942  -17.9850  -15.6571 C   0  0  0  0  0  0  0  0  0  0  0  0
   24.9642  -18.1824  -14.8629 O   0  0  0  0  0  0  0  0  0  0  0  0
   24.1893  -15.8502  -19.8203 O   0  0  0  0  0  0  0  0  0  0  0  0
   27.2180  -18.1764  -15.2236 N   0  0  0  0  0  0  0  0  0  0  0  0
   27.5872  -18.6550  -13.9155 C   0  0  0  0  0  0  0  0  0  0  0  0
   26.8759  -19.9151  -13.6070 C   0  0  0  0  0  0  0  0  0  0  0  0
   26.9021  -20.8672  -14.4473 O   0  0  0  0  0  0  0  0  0  0  0  0
   27.2700  -19.0991   -6.3834 O   0  0  0  0  0  0  0  0  0  0  0  0
   27.0209  -19.8426   -7.5273 C   0  0  0  0  0  0  0  0  0  0  0  0
   28.0445  -20.0538   -8.4234 C   0  0  0  0  0  0  0  0  0  0  0  0
   27.7583  -20.7969   -9.5474 C   0  0  0  0  0  0  0  0  0  0  0  0
   26.5126  -21.3216   -9.7965 C   0  0  0  0  0  0  0  0  0  0  0  0
   26.3076  -22.1033  -11.0281 C   0  0  0  0  0  0  0  0  0  0  0  0
   25.5538  -21.3420  -12.0974 C   0  0  2  0  0  0  0  0  0  0  0  0
   26.1662  -20.0773  -12.3906 N   0  0  0  0  0  0  0  0  0  0  0  0
   24.1239  -21.2198  -11.7677 C   0  0  0  0  0  0  0  0  0  0  0  0
   23.4425  -22.2535  -11.6237 O   0  0  0  0  0  0  0  0  0  0  0  0
   25.5080  -21.0950   -8.8840 C   0  0  0  0  0  0  0  0  0  0  0  0
   25.7630  -20.3504   -7.7412 C   0  0  0  0  0  0  0  0  0  0  0  0
   23.5317  -19.9908  -11.6171 O   0  0  0  0  0  0  0  0  0  0  0  0
  2  1  1  6
  2  3  1  0
  4  3  1  0
  4  5  1  0
  5  9  1  0
  5  6  2  0
  7  8  2  0
  7  2  1  0
 10  7  1  0
 11 12  1  0
 11 10  1  0
 12 21  1  0
 13 12  2  0
 15 14  1  0
 16 15  2  0
 17 16  1  0
 18 24  1  0
 18 17  2  0
 19 18  1  0
 20 19  1  1
 21 20  1  0
 22 26  1  0
 22 20  1  0
 23 22  2  0
 24 25  2  0
 25 15  1  0
M  END
$$$$
