EGY.pdb
     RDKit          3D

 26 26  0  0  1  0  0  0  0  0999 V2000
   22.9739  -27.0369  -13.6420 N   0  0  0  0  0  0  0  0  0  0  0  0
   22.7791  -26.9050  -15.0781 C   0  0  1  0  0  0  0  0  0  0  0  0
   21.3491  -26.6682  -15.4377 C   0  0  0  0  0  0  0  0  0  0  0  0
   20.8538  -25.3651  -14.9338 C   0  0  0  0  0  0  0  0  0  0  0  0
   19.4401  -25.0663  -15.1652 C   0  0  0  0  0  0  0  0  0  0  0  0
   18.4566  -25.7662  -14.8655 O   0  0  0  0  0  0  0  0  0  0  0  0
   23.6645  -25.7943  -15.5423 C   0  0  0  0  0  0  0  0  0  0  0  0
   23.7580  -25.5204  -16.7467 O   0  0  0  0  0  0  0  0  0  0  0  0
   19.1530  -23.8528  -15.7972 O   0  0  0  0  0  0  0  0  0  0  0  0
   24.4038  -25.0455  -14.6098 N   0  0  0  0  0  0  0  0  0  0  0  0
   25.2634  -23.9397  -14.9487 C   0  0  0  0  0  0  0  0  0  0  0  0
   24.5923  -22.6547  -14.6532 C   0  0  0  0  0  0  0  0  0  0  0  0
   23.3613  -22.6521  -14.3405 O   0  0  0  0  0  0  0  0  0  0  0  0
   25.4005  -21.4128   -8.2125 O   0  0  0  0  0  0  0  0  0  0  0  0
   25.3834  -20.8976   -9.5000 C   0  0  0  0  0  0  0  0  0  0  0  0
   26.4740  -21.0997  -10.3154 C   0  0  0  0  0  0  0  0  0  0  0  0
   26.4198  -20.5729  -11.5870 C   0  0  0  0  0  0  0  0  0  0  0  0
   25.3368  -19.8685  -12.0561 C   0  0  0  0  0  0  0  0  0  0  0  0
   25.3755  -19.3455  -13.4326 C   0  0  0  0  0  0  0  0  0  0  0  0
   24.6104  -20.2038  -14.4170 C   0  0  2  0  0  0  0  0  0  0  0  0
   25.2997  -21.4277  -14.7132 N   0  0  0  0  0  0  0  0  0  0  0  0
   24.2482  -19.4468  -15.6269 C   0  0  0  0  0  0  0  0  0  0  0  0
   23.4537  -18.4912  -15.5313 O   0  0  0  0  0  0  0  0  0  0  0  0
   24.2603  -19.6814  -11.2198 C   0  0  0  0  0  0  0  0  0  0  0  0
   24.2829  -20.1992   -9.9326 C   0  0  0  0  0  0  0  0  0  0  0  0
   24.7694  -19.7752  -16.8534 O   0  0  0  0  0  0  0  0  0  0  0  0
  2  1  1  1
  2  3  1  0
  4  3  1  0
  4  5  1  0
  5  9  1  0
  5  6  2  0
  7  8  2  0
  7  2  1  0
 10  7  1  0
 11 12  1  0
 11 10  1  0
 12 21  1  0
 13 12  2  0
 15 14  1  0
 16 15  2  0
 17 16  1  0
 18 24  1  0
 18 17  2  0
 19 18  1  0
 20 19  1  1
 21 20  1  0
 22 26  1  0
 22 20  1  0
 23 22  2  0
 24 25  2  0
 25 15  1  0
M  END
$$$$
