HLP.pdb
     RDKit          3D

 26 27  0  0  1  0  0  0  0  0999 V2000
   23.1431  -29.5772  -17.6051 N   0  0  0  0  0  0  0  0  0  0  0  0
   24.0307  -30.4104  -16.8313 C   0  0  1  0  0  0  0  0  0  0  0  0
   23.3821  -31.6647  -16.3358 C   0  0  0  0  0  0  0  0  0  0  0  0
   22.3382  -31.4106  -15.3144 C   0  0  0  0  0  0  0  0  0  0  0  0
   22.4407  -31.3289  -13.9497 C   0  0  0  0  0  0  0  0  0  0  0  0
   21.2227  -31.0815  -13.4336 N   0  0  0  0  0  0  0  0  0  0  0  0
   20.3619  -31.0095  -14.4818 C   0  0  0  0  0  0  0  0  0  0  0  0
   21.0463  -31.2111  -15.6317 N   0  0  0  0  0  0  0  0  0  0  0  0
   25.1755  -30.8090  -17.6990 C   0  0  0  0  0  0  0  0  0  0  0  0
   24.9959  -30.8610  -18.9248 O   0  0  0  0  0  0  0  0  0  0  0  0
   30.7421  -32.0171  -18.3285 C   0  0  0  0  0  0  0  0  0  0  0  0
   29.9787  -30.7398  -18.4274 C   0  0  1  0  0  0  0  0  0  0  0  0
   29.5620  -30.5627  -19.8892 C   0  0  0  0  0  0  0  0  0  0  0  0
   28.8117  -30.5910  -17.5139 C   0  0  0  0  0  0  0  0  0  0  0  0
   27.6144  -31.4209  -17.9116 C   0  0  2  0  0  0  0  0  0  0  0  0
   26.4620  -31.1310  -17.1744 N   0  0  0  0  0  0  0  0  0  0  0  0
   27.9809  -32.8276  -18.1542 C   0  0  0  0  0  0  0  0  0  0  0  0
   28.7296  -33.2928  -17.1964 O   0  0  0  0  0  0  0  0  0  0  0  0
   27.6228  -33.6395  -19.2326 N   0  0  0  0  0  0  0  0  0  0  0  0
   26.6510  -33.3199  -20.2595 C   0  0  0  0  0  0  0  0  0  0  0  0
   27.3414  -33.8444  -21.5340 C   0  0  0  0  0  0  0  0  0  0  0  0
   28.5600  -34.6308  -21.0366 C   0  0  0  0  0  0  0  0  0  0  0  0
   28.0342  -34.9511  -19.6306 C   0  0  1  0  0  0  0  0  0  0  0  0
   28.8465  -35.7842  -18.8290 C   0  0  0  0  0  0  0  0  0  0  0  0
   29.3830  -35.6574  -17.7185 O   0  0  0  0  0  0  0  0  0  0  0  0
   29.1270  -37.0599  -19.4005 O   0  0  0  0  0  0  0  0  0  0  0  0
  2  9  1  0
  2  3  1  0
  2  1  1  6
  4  8  1  0
  4  3  1  0
  5  4  2  0
  6  5  1  0
  6  7  1  0
  7  8  2  0
  9 10  2  0
 12 11  1  6
 13 12  1  0
 14 12  1  0
 15 14  1  1
 16 15  1  0
 16  9  1  0
 17 18  2  0
 17 15  1  0
 19 17  1  0
 20 19  1  0
 21 20  1  0
 22 21  1  0
 22 23  1  0
 23 19  1  0
 23 24  1  1
 24 26  1  0
 25 24  2  0
M  END
$$$$
