HLP.pdb
     RDKit          3D

 26 27  0  0  1  0  0  0  0  0999 V2000
   28.3560  -19.0662  -17.3328 N   0  0  0  0  0  0  0  0  0  0  0  0
   27.4341  -18.4063  -16.4410 C   0  0  1  0  0  0  0  0  0  0  0  0
   26.3584  -17.6504  -17.1558 C   0  0  0  0  0  0  0  0  0  0  0  0
   26.8681  -16.4530  -17.8657 C   0  0  0  0  0  0  0  0  0  0  0  0
   27.7186  -15.4676  -17.4351 C   0  0  0  0  0  0  0  0  0  0  0  0
   27.8980  -14.5791  -18.4298 N   0  0  0  0  0  0  0  0  0  0  0  0
   27.1562  -15.0149  -19.4809 C   0  0  0  0  0  0  0  0  0  0  0  0
   26.5269  -16.1615  -19.1338 N   0  0  0  0  0  0  0  0  0  0  0  0
   26.7714  -19.4433  -15.5997 C   0  0  0  0  0  0  0  0  0  0  0  0
   26.4319  -20.5087  -16.1359 O   0  0  0  0  0  0  0  0  0  0  0  0
   26.4738  -21.2772   -9.6873 C   0  0  0  0  0  0  0  0  0  0  0  0
   25.8394  -21.1414  -11.0302 C   0  0  1  0  0  0  0  0  0  0  0  0
   24.3371  -20.9463  -10.8138 C   0  0  0  0  0  0  0  0  0  0  0  0
   26.3952  -20.0873  -11.9238 C   0  0  0  0  0  0  0  0  0  0  0  0
   25.8947  -20.1657  -13.3464 C   0  0  2  0  0  0  0  0  0  0  0  0
   26.5149  -19.2567  -14.2093 N   0  0  0  0  0  0  0  0  0  0  0  0
   24.4312  -20.3304  -13.4024 C   0  0  0  0  0  0  0  0  0  0  0  0
   23.8226  -19.3635  -12.7789 O   0  0  0  0  0  0  0  0  0  0  0  0
   23.7000  -21.3488  -14.0175 N   0  0  0  0  0  0  0  0  0  0  0  0
   24.2104  -22.3134  -14.9715 C   0  0  0  0  0  0  0  0  0  0  0  0
   23.5182  -23.6144  -14.5194 C   0  0  0  0  0  0  0  0  0  0  0  0
   22.4869  -23.1781  -13.4722 C   0  0  0  0  0  0  0  0  0  0  0  0
   22.3217  -21.7267  -13.9430 C   0  0  1  0  0  0  0  0  0  0  0  0
   21.3427  -20.9559  -13.2766 C   0  0  0  0  0  0  0  0  0  0  0  0
   21.3856  -20.0126  -12.4732 O   0  0  0  0  0  0  0  0  0  0  0  0
   19.9984  -21.3236  -13.5770 O   0  0  0  0  0  0  0  0  0  0  0  0
  2  9  1  0
  2  3  1  0
  2  1  1  6
  4  8  1  0
  4  3  1  0
  5  4  2  0
  6  5  1  0
  6  7  1  0
  7  8  2  0
  9 10  2  0
 12 11  1  1
 13 12  1  0
 14 12  1  0
 15 14  1  1
 16 15  1  0
 16  9  1  0
 17 18  2  0
 17 15  1  0
 19 17  1  0
 20 19  1  0
 21 20  1  0
 22 21  1  0
 22 23  1  0
 23 19  1  0
 23 24  1  1
 24 26  1  0
 25 24  2  0
M  END
$$$$
