HLP.pdb
     RDKit          3D

 26 27  0  0  1  0  0  0  0  0999 V2000
   14.9399  -21.3022    1.7913 N   0  0  0  0  0  0  0  0  0  0  0  0
   14.7544  -20.1675    2.6623 C   0  0  1  0  0  0  0  0  0  0  0  0
   13.8058  -20.4352    3.7883 C   0  0  0  0  0  0  0  0  0  0  0  0
   12.3848  -20.2798    3.3958 C   0  0  0  0  0  0  0  0  0  0  0  0
   11.5765  -19.1729    3.4286 C   0  0  0  0  0  0  0  0  0  0  0  0
   10.3557  -19.5091    2.9732 N   0  0  0  0  0  0  0  0  0  0  0  0
   10.4068  -20.8290    2.6568 C   0  0  0  0  0  0  0  0  0  0  0  0
   11.6492  -21.2988    2.9161 N   0  0  0  0  0  0  0  0  0  0  0  0
   16.0735  -19.8145    3.2604 C   0  0  0  0  0  0  0  0  0  0  0  0
   16.8875  -20.7257    3.4723 O   0  0  0  0  0  0  0  0  0  0  0  0
   18.2281  -14.9417    1.9406 C   0  0  0  0  0  0  0  0  0  0  0  0
   18.1156  -16.3692    2.3575 C   0  0  1  0  0  0  0  0  0  0  0  0
   19.3049  -17.1213    1.7560 C   0  0  0  0  0  0  0  0  0  0  0  0
   18.0005  -16.6269    3.8200 C   0  0  0  0  0  0  0  0  0  0  0  0
   17.6382  -18.0523    4.1629 C   0  0  2  0  0  0  0  0  0  0  0  0
   16.4319  -18.4755    3.5960 N   0  0  0  0  0  0  0  0  0  0  0  0
   17.9196  -18.3628    5.5758 C   0  0  0  0  0  0  0  0  0  0  0  0
   16.9786  -17.9135    6.3549 O   0  0  0  0  0  0  0  0  0  0  0  0
   19.0168  -19.0431    6.1082 N   0  0  0  0  0  0  0  0  0  0  0  0
   19.8951  -19.9459    5.3909 C   0  0  0  0  0  0  0  0  0  0  0  0
   21.2805  -19.5600    5.9459 C   0  0  0  0  0  0  0  0  0  0  0  0
   20.9948  -18.6127    7.1171 C   0  0  0  0  0  0  0  0  0  0  0  0
   19.5714  -19.0966    7.4264 C   0  0  1  0  0  0  0  0  0  0  0  0
   18.9426  -18.5237    8.5547 C   0  0  0  0  0  0  0  0  0  0  0  0
   18.5466  -18.9692    9.6418 O   0  0  0  0  0  0  0  0  0  0  0  0
   18.6974  -17.1236    8.4449 O   0  0  0  0  0  0  0  0  0  0  0  0
  2  9  1  0
  2  3  1  0
  2  1  1  6
  4  8  1  0
  4  3  1  0
  5  4  2  0
  6  5  1  0
  6  7  1  0
  7  8  2  0
  9 10  2  0
 12 11  1  1
 13 12  1  0
 14 12  1  0
 15 14  1  1
 16 15  1  0
 16  9  1  0
 17 18  2  0
 17 15  1  0
 19 17  1  0
 20 19  1  0
 21 20  1  0
 22 21  1  0
 22 23  1  0
 23 19  1  0
 23 24  1  1
 24 26  1  0
 25 24  2  0
M  END
$$$$
