HLP.pdb
     RDKit          3D

 26 27  0  0  1  0  0  0  0  0999 V2000
   26.0616  -21.4160  -12.3607 N   0  0  0  0  0  0  0  0  0  0  0  0
   25.4616  -20.5365  -11.3875 C   0  0  1  0  0  0  0  0  0  0  0  0
   23.9658  -20.5828  -11.3915 C   0  0  0  0  0  0  0  0  0  0  0  0
   23.3740  -20.0260  -12.6314 C   0  0  0  0  0  0  0  0  0  0  0  0
   23.9840  -19.5425  -13.7600 C   0  0  0  0  0  0  0  0  0  0  0  0
   23.0391  -19.1410  -14.6300 N   0  0  0  0  0  0  0  0  0  0  0  0
   21.8390  -19.3762  -14.0390 C   0  0  0  0  0  0  0  0  0  0  0  0
   22.0460  -19.9177  -12.8162 N   0  0  0  0  0  0  0  0  0  0  0  0
   25.9204  -20.9540  -10.0319 C   0  0  0  0  0  0  0  0  0  0  0  0
   25.7150  -22.1235   -9.6743 O   0  0  0  0  0  0  0  0  0  0  0  0
   29.4351  -20.4190   -5.5565 C   0  0  0  0  0  0  0  0  0  0  0  0
   28.2083  -19.6007   -5.7792 C   0  0  1  0  0  0  0  0  0  0  0  0
   28.3640  -18.3069   -4.9771 C   0  0  0  0  0  0  0  0  0  0  0  0
   27.8487  -19.3149   -7.1960 C   0  0  0  0  0  0  0  0  0  0  0  0
   26.8612  -20.2937   -7.7855 C   0  0  2  0  0  0  0  0  0  0  0  0
   26.5828  -20.0634   -9.1364 N   0  0  0  0  0  0  0  0  0  0  0  0
   25.7513  -20.5755   -6.8578 C   0  0  0  0  0  0  0  0  0  0  0  0
   25.1492  -19.4801   -6.4947 O   0  0  0  0  0  0  0  0  0  0  0  0
   25.3227  -21.8139   -6.3753 N   0  0  0  0  0  0  0  0  0  0  0  0
   25.5977  -23.1066   -6.9705 C   0  0  0  0  0  0  0  0  0  0  0  0
   25.8873  -23.9787   -5.7328 C   0  0  0  0  0  0  0  0  0  0  0  0
   25.5064  -23.1082   -4.5296 C   0  0  0  0  0  0  0  0  0  0  0  0
   24.5162  -22.1850   -5.2528 C   0  0  1  0  0  0  0  0  0  0  0  0
   23.8279  -21.2474   -4.4504 C   0  0  0  0  0  0  0  0  0  0  0  0
   24.1824  -20.3082   -3.7229 O   0  0  0  0  0  0  0  0  0  0  0  0
   22.4095  -21.3909   -4.4619 O   0  0  0  0  0  0  0  0  0  0  0  0
  2  9  1  0
  2  3  1  0
  2  1  1  6
  4  8  1  0
  4  3  1  0
  5  4  2  0
  6  5  1  0
  6  7  1  0
  7  8  2  0
  9 10  2  0
 12 11  1  6
 13 12  1  0
 14 12  1  0
 15 14  1  1
 16 15  1  0
 16  9  1  0
 17 18  2  0
 17 15  1  0
 19 17  1  0
 20 19  1  0
 21 20  1  0
 22 21  1  0
 22 23  1  0
 23 19  1  0
 23 24  1  1
 24 26  1  0
 25 24  2  0
M  END
$$$$
