HLP.pdb
     RDKit          3D

 26 27  0  0  1  0  0  0  0  0999 V2000
   16.0222  -11.3474   -9.9916 N   0  0  0  0  0  0  0  0  0  0  0  0
   15.6468  -10.1977  -10.7776 C   0  0  1  0  0  0  0  0  0  0  0  0
   14.4188   -9.5096  -10.2697 C   0  0  0  0  0  0  0  0  0  0  0  0
   13.2030  -10.3522  -10.3662 C   0  0  0  0  0  0  0  0  0  0  0  0
   12.3866  -10.8393   -9.3783 C   0  0  0  0  0  0  0  0  0  0  0  0
   11.3996  -11.5596   -9.9421 N   0  0  0  0  0  0  0  0  0  0  0  0
   11.6044  -11.5191  -11.2842 C   0  0  0  0  0  0  0  0  0  0  0  0
   12.7082  -10.7799  -11.5417 N   0  0  0  0  0  0  0  0  0  0  0  0
   16.7650   -9.2128  -10.7321 C   0  0  0  0  0  0  0  0  0  0  0  0
   17.3910   -9.0804   -9.6698 O   0  0  0  0  0  0  0  0  0  0  0  0
   21.4496   -6.6676  -11.7357 C   0  0  0  0  0  0  0  0  0  0  0  0
   20.2804   -6.5138  -12.6486 C   0  0  1  0  0  0  0  0  0  0  0  0
   20.8234   -6.2376  -14.0524 C   0  0  0  0  0  0  0  0  0  0  0  0
   19.2973   -7.6327  -12.6631 C   0  0  0  0  0  0  0  0  0  0  0  0
   18.0452   -7.3567  -11.8651 C   0  0  2  0  0  0  0  0  0  0  0  0
   17.1392   -8.4219  -11.8583 N   0  0  0  0  0  0  0  0  0  0  0  0
   17.5474   -5.9873  -12.0860 C   0  0  0  0  0  0  0  0  0  0  0  0
   17.7623   -5.5979  -13.3093 O   0  0  0  0  0  0  0  0  0  0  0  0
   16.9150   -5.1408  -11.1729 N   0  0  0  0  0  0  0  0  0  0  0  0
   16.3345   -5.5311   -9.9034 C   0  0  0  0  0  0  0  0  0  0  0  0
   16.7616   -4.3721   -8.9813 C   0  0  0  0  0  0  0  0  0  0  0  0
   17.3576   -3.3131   -9.9163 C   0  0  0  0  0  0  0  0  0  0  0  0
   16.6267   -3.7392  -11.1969 C   0  0  1  0  0  0  0  0  0  0  0  0
   16.8263   -2.9273  -12.3359 C   0  0  0  0  0  0  0  0  0  0  0  0
   17.7139   -2.8523  -13.1983 O   0  0  0  0  0  0  0  0  0  0  0  0
   15.7922   -1.9737  -12.5683 O   0  0  0  0  0  0  0  0  0  0  0  0
  2  9  1  0
  2  3  1  0
  2  1  1  1
  4  8  1  0
  4  3  1  0
  5  4  2  0
  6  5  1  0
  6  7  1  0
  7  8  2  0
  9 10  2  0
 12 11  1  1
 13 12  1  0
 14 12  1  0
 15 14  1  6
 16 15  1  0
 16  9  1  0
 17 18  2  0
 17 15  1  0
 19 17  1  0
 20 19  1  0
 21 20  1  0
 22 21  1  0
 22 23  1  0
 23 19  1  0
 23 24  1  6
 24 26  1  0
 25 24  2  0
M  END
$$$$
