HLP.pdb
     RDKit          3D

 26 27  0  0  1  0  0  0  0  0999 V2000
   27.5967  -18.2970  -16.7372 N   0  0  0  0  0  0  0  0  0  0  0  0
   26.7813  -17.9480  -15.5997 C   0  0  1  0  0  0  0  0  0  0  0  0
   25.3537  -17.6761  -15.9567 C   0  0  0  0  0  0  0  0  0  0  0  0
   25.1810  -16.4269  -16.7360 C   0  0  0  0  0  0  0  0  0  0  0  0
   25.0882  -15.1271  -16.3099 C   0  0  0  0  0  0  0  0  0  0  0  0
   24.9374  -14.3257  -17.3804 N   0  0  0  0  0  0  0  0  0  0  0  0
   24.9366  -15.1311  -18.4741 C   0  0  0  0  0  0  0  0  0  0  0  0
   25.0858  -16.4163  -18.0777 N   0  0  0  0  0  0  0  0  0  0  0  0
   26.7954  -19.0917  -14.6437 C   0  0  0  0  0  0  0  0  0  0  0  0
   26.7031  -20.2416  -15.0987 O   0  0  0  0  0  0  0  0  0  0  0  0
   28.1404  -21.4158   -9.3762 C   0  0  0  0  0  0  0  0  0  0  0  0
   26.9834  -20.6260   -9.8878 C   0  0  1  0  0  0  0  0  0  0  0  0
   26.2850  -19.9951   -8.6811 C   0  0  0  0  0  0  0  0  0  0  0  0
   27.2850  -19.6045  -10.9290 C   0  0  0  0  0  0  0  0  0  0  0  0
   26.5869  -19.8491  -12.2456 C   0  0  2  0  0  0  0  0  0  0  0  0
   26.9103  -18.9135  -13.2333 N   0  0  0  0  0  0  0  0  0  0  0  0
   25.1784  -20.2377  -12.0532 C   0  0  0  0  0  0  0  0  0  0  0  0
   24.5962  -19.4816  -11.1679 O   0  0  0  0  0  0  0  0  0  0  0  0
   24.4708  -21.2611  -12.6873 N   0  0  0  0  0  0  0  0  0  0  0  0
   24.8749  -21.9649  -13.8884 C   0  0  0  0  0  0  0  0  0  0  0  0
   24.4882  -23.4199  -13.5575 C   0  0  0  0  0  0  0  0  0  0  0  0
   23.6752  -23.3349  -12.2604 C   0  0  0  0  0  0  0  0  0  0  0  0
   23.2108  -21.8793  -12.4075 C   0  0  1  0  0  0  0  0  0  0  0  0
   22.3154  -21.4014  -11.4244 C   0  0  0  0  0  0  0  0  0  0  0  0
   21.1816  -20.9009  -11.4590 O   0  0  0  0  0  0  0  0  0  0  0  0
   22.7981  -21.5063  -10.0871 O   0  0  0  0  0  0  0  0  0  0  0  0
  2  9  1  0
  2  3  1  0
  2  1  1  6
  4  8  1  0
  4  3  1  0
  5  4  2  0
  6  5  1  0
  6  7  1  0
  7  8  2  0
  9 10  2  0
 12 11  1  1
 13 12  1  0
 14 12  1  0
 15 14  1  1
 16 15  1  0
 16  9  1  0
 17 18  2  0
 17 15  1  0
 19 17  1  0
 20 19  1  0
 21 20  1  0
 22 21  1  0
 22 23  1  0
 23 19  1  0
 23 24  1  1
 24 26  1  0
 25 24  2  0
M  END
$$$$
