HLP.pdb
     RDKit          3D

 26 27  0  0  1  0  0  0  0  0999 V2000
   21.2130  -18.6326  -18.0665 N   0  0  0  0  0  0  0  0  0  0  0  0
   21.2686  -18.3561  -16.6519 C   0  0  1  0  0  0  0  0  0  0  0  0
   20.1692  -19.0127  -15.8775 C   0  0  0  0  0  0  0  0  0  0  0  0
   18.8803  -18.2869  -15.9757 C   0  0  0  0  0  0  0  0  0  0  0  0
   18.3432  -17.3282  -15.1559 C   0  0  0  0  0  0  0  0  0  0  0  0
   17.1455  -16.9564  -15.6441 N   0  0  0  0  0  0  0  0  0  0  0  0
   16.9391  -17.6870  -16.7703 C   0  0  0  0  0  0  0  0  0  0  0  0
   18.0016  -18.5005  -16.9715 N   0  0  0  0  0  0  0  0  0  0  0  0
   22.5623  -18.8744  -16.1229 C   0  0  0  0  0  0  0  0  0  0  0  0
   22.9287  -20.0077  -16.4680 O   0  0  0  0  0  0  0  0  0  0  0  0
   26.6572  -15.3674  -15.1796 C   0  0  0  0  0  0  0  0  0  0  0  0
   25.9910  -16.6722  -15.4582 C   0  0  1  0  0  0  0  0  0  0  0  0
   26.9465  -17.5050  -16.3157 C   0  0  0  0  0  0  0  0  0  0  0  0
   25.5201  -17.4438  -14.2744 C   0  0  0  0  0  0  0  0  0  0  0  0
   24.5602  -18.5591  -14.6139 C   0  0  2  0  0  0  0  0  0  0  0  0
   23.3895  -18.1194  -15.2398 N   0  0  0  0  0  0  0  0  0  0  0  0
   24.4690  -19.5510  -13.5278 C   0  0  0  0  0  0  0  0  0  0  0  0
   23.5743  -19.2068  -12.6473 O   0  0  0  0  0  0  0  0  0  0  0  0
   25.1975  -20.7325  -13.3742 N   0  0  0  0  0  0  0  0  0  0  0  0
   25.7645  -21.5338  -14.4407 C   0  0  0  0  0  0  0  0  0  0  0  0
   27.1362  -21.9266  -13.8573 C   0  0  0  0  0  0  0  0  0  0  0  0
   27.0923  -21.4801  -12.3912 C   0  0  0  0  0  0  0  0  0  0  0  0
   25.5670  -21.4946  -12.2206 C   0  0  1  0  0  0  0  0  0  0  0  0
   25.0757  -21.2236  -10.9238 C   0  0  0  0  0  0  0  0  0  0  0  0
   24.5663  -20.2309  -10.3833 O   0  0  0  0  0  0  0  0  0  0  0  0
   25.1759  -22.3177  -10.0153 O   0  0  0  0  0  0  0  0  0  0  0  0
  2  9  1  0
  2  3  1  0
  2  1  1  6
  4  8  1  0
  4  3  1  0
  5  4  2  0
  6  5  1  0
  6  7  1  0
  7  8  2  0
  9 10  2  0
 12 11  1  1
 13 12  1  0
 14 12  1  0
 15 14  1  1
 16 15  1  0
 16  9  1  0
 17 18  2  0
 17 15  1  0
 19 17  1  0
 20 19  1  0
 21 20  1  0
 22 21  1  0
 22 23  1  0
 23 19  1  0
 23 24  1  1
 24 26  1  0
 25 24  2  0
M  END
$$$$
