HLP.pdb
     RDKit          3D

 26 27  0  0  1  0  0  0  0  0999 V2000
   26.3904  -20.5967  -11.3476 N   0  0  0  0  0  0  0  0  0  0  0  0
   25.8452  -20.0573  -10.1260 C   0  0  1  0  0  0  0  0  0  0  0  0
   24.6125  -20.7689   -9.6637 C   0  0  0  0  0  0  0  0  0  0  0  0
   23.4764  -20.6272  -10.6053 C   0  0  0  0  0  0  0  0  0  0  0  0
   23.4109  -19.9947  -11.8200 C   0  0  0  0  0  0  0  0  0  0  0  0
   22.1670  -20.1274  -12.3158 N   0  0  0  0  0  0  0  0  0  0  0  0
   21.4584  -20.8446  -11.4056 C   0  0  0  0  0  0  0  0  0  0  0  0
   22.2613  -21.1495  -10.3598 N   0  0  0  0  0  0  0  0  0  0  0  0
   26.8716  -20.1937   -9.0535 C   0  0  0  0  0  0  0  0  0  0  0  0
   27.7109  -21.1012   -9.1528 O   0  0  0  0  0  0  0  0  0  0  0  0
   27.3999  -15.5804   -6.2987 C   0  0  0  0  0  0  0  0  0  0  0  0
   27.7812  -16.8386   -7.0029 C   0  0  1  0  0  0  0  0  0  0  0  0
   29.0242  -16.5389   -7.8436 C   0  0  0  0  0  0  0  0  0  0  0  0
   27.9871  -18.0415   -6.1489 C   0  0  0  0  0  0  0  0  0  0  0  0
   27.8714  -19.3487   -6.8962 C   0  0  2  0  0  0  0  0  0  0  0  0
   26.9237  -19.3243   -7.9242 N   0  0  0  0  0  0  0  0  0  0  0  0
   27.9171  -20.5053   -5.9840 C   0  0  0  0  0  0  0  0  0  0  0  0
   26.7195  -20.9147   -5.6797 O   0  0  0  0  0  0  0  0  0  0  0  0
   29.0408  -21.1492   -5.4619 N   0  0  0  0  0  0  0  0  0  0  0  0
   30.2383  -21.5106   -6.1943 C   0  0  0  0  0  0  0  0  0  0  0  0
   31.3522  -21.1620   -5.1874 C   0  0  0  0  0  0  0  0  0  0  0  0
   30.6241  -20.8491   -3.8749 C   0  0  0  0  0  0  0  0  0  0  0  0
   29.3456  -21.6504   -4.1565 C   0  0  1  0  0  0  0  0  0  0  0  0
   28.3978  -21.7123   -3.1103 C   0  0  0  0  0  0  0  0  0  0  0  0
   27.9875  -22.6175   -2.3691 O   0  0  0  0  0  0  0  0  0  0  0  0
   27.7560  -20.4722   -2.8226 O   0  0  0  0  0  0  0  0  0  0  0  0
  2  9  1  0
  2  3  1  0
  2  1  1  6
  4  8  1  0
  4  3  1  0
  5  4  2  0
  6  5  1  0
  6  7  1  0
  7  8  2  0
  9 10  2  0
 12 11  1  1
 13 12  1  0
 14 12  1  0
 15 14  1  1
 16 15  1  0
 16  9  1  0
 17 18  2  0
 17 15  1  0
 19 17  1  0
 20 19  1  0
 21 20  1  0
 22 21  1  0
 22 23  1  0
 23 19  1  0
 23 24  1  1
 24 26  1  0
 25 24  2  0
M  END
$$$$
