HLP.pdb
     RDKit          3D

 26 27  0  0  1  0  0  0  0  0999 V2000
   26.0451  -19.3367  -11.1631 N   0  0  0  0  0  0  0  0  0  0  0  0
   25.6263  -19.7417   -9.8436 C   0  0  1  0  0  0  0  0  0  0  0  0
   24.8055  -20.9930   -9.8419 C   0  0  0  0  0  0  0  0  0  0  0  0
   23.5076  -20.8334  -10.5402 C   0  0  0  0  0  0  0  0  0  0  0  0
   23.1175  -21.2566  -11.7845 C   0  0  0  0  0  0  0  0  0  0  0  0
   21.8420  -20.8824  -11.9938 N   0  0  0  0  0  0  0  0  0  0  0  0
   21.4395  -20.2249  -10.8755 C   0  0  0  0  0  0  0  0  0  0  0  0
   22.4600  -20.1960   -9.9873 N   0  0  0  0  0  0  0  0  0  0  0  0
   26.8440  -20.0020   -9.0240 C   0  0  0  0  0  0  0  0  0  0  0  0
   27.8560  -20.4368   -9.5936 O   0  0  0  0  0  0  0  0  0  0  0  0
   27.3668  -16.7813   -4.6643 C   0  0  0  0  0  0  0  0  0  0  0  0
   27.7394  -17.6389   -5.8262 C   0  0  1  0  0  0  0  0  0  0  0  0
   28.9697  -17.0131   -6.4866 C   0  0  0  0  0  0  0  0  0  0  0  0
   27.9588  -19.0843   -5.5414 C   0  0  0  0  0  0  0  0  0  0  0  0
   27.9902  -19.9528   -6.7764 C   0  0  2  0  0  0  0  0  0  0  0  0
   26.8879  -19.7707   -7.6174 N   0  0  0  0  0  0  0  0  0  0  0  0
   28.4467  -21.3204   -6.4712 C   0  0  0  0  0  0  0  0  0  0  0  0
   27.4399  -22.1247   -6.2870 O   0  0  0  0  0  0  0  0  0  0  0  0
   29.7578  -21.7911   -6.3723 N   0  0  0  0  0  0  0  0  0  0  0  0
   30.7025  -21.9295   -7.4628 C   0  0  0  0  0  0  0  0  0  0  0  0
   32.0147  -21.4388   -6.8197 C   0  0  0  0  0  0  0  0  0  0  0  0
   31.7000  -21.2915   -5.3264 C   0  0  0  0  0  0  0  0  0  0  0  0
   30.5266  -22.2792   -5.2683 C   0  0  1  0  0  0  0  0  0  0  0  0
   29.9756  -22.5283   -3.9912 C   0  0  0  0  0  0  0  0  0  0  0  0
   28.9306  -22.1844   -3.4194 O   0  0  0  0  0  0  0  0  0  0  0  0
   30.7794  -23.3563   -3.1540 O   0  0  0  0  0  0  0  0  0  0  0  0
  2  9  1  0
  2  3  1  0
  2  1  1  6
  4  8  1  0
  4  3  1  0
  5  4  2  0
  6  5  1  0
  6  7  1  0
  7  8  2  0
  9 10  2  0
 12 11  1  1
 13 12  1  0
 14 12  1  0
 15 14  1  1
 16 15  1  0
 16  9  1  0
 17 18  2  0
 17 15  1  0
 19 17  1  0
 20 19  1  0
 21 20  1  0
 22 21  1  0
 22 23  1  0
 23 19  1  0
 23 24  1  1
 24 26  1  0
 25 24  2  0
M  END
$$$$
