HLP.pdb
     RDKit          3D

 26 27  0  0  1  0  0  0  0  0999 V2000
   15.5069  -20.7541    1.3536 N   0  0  0  0  0  0  0  0  0  0  0  0
   15.0780  -19.8359    2.3800 C   0  0  1  0  0  0  0  0  0  0  0  0
   14.3315  -20.5007    3.4937 C   0  0  0  0  0  0  0  0  0  0  0  0
   13.0372  -21.0773    3.0580 C   0  0  0  0  0  0  0  0  0  0  0  0
   11.8069  -20.4863    2.9293 C   0  0  0  0  0  0  0  0  0  0  0  0
   10.9227  -21.4055    2.5001 N   0  0  0  0  0  0  0  0  0  0  0  0
   11.6070  -22.5707    2.3621 C   0  0  0  0  0  0  0  0  0  0  0  0
   12.9005  -22.3679    2.7039 N   0  0  0  0  0  0  0  0  0  0  0  0
   16.2870  -19.1936    2.9701 C   0  0  0  0  0  0  0  0  0  0  0  0
   17.3427  -19.8434    3.0037 O   0  0  0  0  0  0  0  0  0  0  0  0
   19.5034  -14.3810    3.6458 C   0  0  0  0  0  0  0  0  0  0  0  0
   18.4818  -15.0073    4.5337 C   0  0  1  0  0  0  0  0  0  0  0  0
   17.9578  -13.9196    5.4739 C   0  0  0  0  0  0  0  0  0  0  0  0
   17.3616  -15.7194    3.8582 C   0  0  0  0  0  0  0  0  0  0  0  0
   17.3381  -17.2070    4.1173 C   0  0  2  0  0  0  0  0  0  0  0  0
   16.2745  -17.8674    3.4944 N   0  0  0  0  0  0  0  0  0  0  0  0
   17.6608  -17.5223    5.5203 C   0  0  0  0  0  0  0  0  0  0  0  0
   16.8591  -16.9057    6.3397 O   0  0  0  0  0  0  0  0  0  0  0  0
   18.6678  -18.3580    6.0077 N   0  0  0  0  0  0  0  0  0  0  0  0
   19.4276  -19.3226    5.2375 C   0  0  0  0  0  0  0  0  0  0  0  0
   20.8510  -19.1379    5.7997 C   0  0  0  0  0  0  0  0  0  0  0  0
   20.6858  -18.2251    7.0204 C   0  0  0  0  0  0  0  0  0  0  0  0
   19.2147  -18.5473    7.3167 C   0  0  1  0  0  0  0  0  0  0  0  0
   18.6631  -17.9614    8.4782 C   0  0  0  0  0  0  0  0  0  0  0  0
   18.3892  -18.3831    9.6114 O   0  0  0  0  0  0  0  0  0  0  0  0
   18.3410  -16.5790    8.3446 O   0  0  0  0  0  0  0  0  0  0  0  0
  2  9  1  0
  2  3  1  0
  2  1  1  6
  4  8  1  0
  4  3  1  0
  5  4  2  0
  6  5  1  0
  6  7  1  0
  7  8  2  0
  9 10  2  0
 12 11  1  6
 13 12  1  0
 14 12  1  0
 15 14  1  1
 16 15  1  0
 16  9  1  0
 17 18  2  0
 17 15  1  0
 19 17  1  0
 20 19  1  0
 21 20  1  0
 22 21  1  0
 22 23  1  0
 23 19  1  0
 23 24  1  1
 24 26  1  0
 25 24  2  0
M  END
$$$$
