HLP.pdb
     RDKit          3D

 26 27  0  0  1  0  0  0  0  0999 V2000
   23.1539  -20.8766  -18.7766 N   0  0  0  0  0  0  0  0  0  0  0  0
   22.9051  -19.8875  -17.7566 C   0  0  1  0  0  0  0  0  0  0  0  0
   21.5142  -19.9418  -17.2071 C   0  0  0  0  0  0  0  0  0  0  0  0
   20.9243  -18.5986  -16.9944 C   0  0  0  0  0  0  0  0  0  0  0  0
   20.6586  -17.9262  -15.8294 C   0  0  0  0  0  0  0  0  0  0  0  0
   20.1196  -16.7299  -16.1281 N   0  0  0  0  0  0  0  0  0  0  0  0
   20.0508  -16.6599  -17.4828 C   0  0  0  0  0  0  0  0  0  0  0  0
   20.5436  -17.8042  -18.0110 N   0  0  0  0  0  0  0  0  0  0  0  0
   23.8449  -20.1328  -16.6258 C   0  0  0  0  0  0  0  0  0  0  0  0
   24.1048  -21.3060  -16.3193 O   0  0  0  0  0  0  0  0  0  0  0  0
   27.5426  -16.2189  -15.4989 C   0  0  0  0  0  0  0  0  0  0  0  0
   26.9070  -17.5640  -15.6024 C   0  0  1  0  0  0  0  0  0  0  0  0
   28.0128  -18.5749  -15.9135 C   0  0  0  0  0  0  0  0  0  0  0  0
   26.0891  -18.0035  -14.4377 C   0  0  0  0  0  0  0  0  0  0  0  0
   25.2146  -19.2014  -14.7220 C   0  0  2  0  0  0  0  0  0  0  0  0
   24.4525  -19.0746  -15.8877 N   0  0  0  0  0  0  0  0  0  0  0  0
   24.5785  -19.7167  -13.4966 C   0  0  0  0  0  0  0  0  0  0  0  0
   23.4424  -19.1235  -13.2685 O   0  0  0  0  0  0  0  0  0  0  0  0
   25.0484  -20.7062  -12.6304 N   0  0  0  0  0  0  0  0  0  0  0  0
   26.1207  -21.6430  -12.9017 C   0  0  0  0  0  0  0  0  0  0  0  0
   26.8696  -21.6778  -11.5548 C   0  0  0  0  0  0  0  0  0  0  0  0
   25.9735  -20.9093  -10.5765 C   0  0  0  0  0  0  0  0  0  0  0  0
   24.6448  -21.1103  -11.3182 C   0  0  1  0  0  0  0  0  0  0  0  0
   23.4855  -20.6170  -10.6786 C   0  0  0  0  0  0  0  0  0  0  0  0
   22.6668  -19.7243  -10.9430 O   0  0  0  0  0  0  0  0  0  0  0  0
   23.1628  -21.2742   -9.4552 O   0  0  0  0  0  0  0  0  0  0  0  0
  2  9  1  0
  2  3  1  0
  2  1  1  6
  4  8  1  0
  4  3  1  0
  5  4  2  0
  6  5  1  0
  6  7  1  0
  7  8  2  0
  9 10  2  0
 12 11  1  1
 13 12  1  0
 14 12  1  0
 15 14  1  1
 16 15  1  0
 16  9  1  0
 17 18  2  0
 17 15  1  0
 19 17  1  0
 20 19  1  0
 21 20  1  0
 22 21  1  0
 22 23  1  0
 23 19  1  0
 23 24  1  1
 24 26  1  0
 25 24  2  0
M  END
$$$$
