HLP.pdb
     RDKit          3D

 26 27  0  0  1  0  0  0  0  0999 V2000
   27.3764  -19.1217  -18.0747 N   0  0  0  0  0  0  0  0  0  0  0  0
   26.5271  -18.5083  -17.0833 C   0  0  1  0  0  0  0  0  0  0  0  0
   25.2974  -17.8829  -17.6633 C   0  0  0  0  0  0  0  0  0  0  0  0
   25.5742  -16.6060  -18.3636 C   0  0  0  0  0  0  0  0  0  0  0  0
   24.9127  -15.4065  -18.3054 C   0  0  0  0  0  0  0  0  0  0  0  0
   25.5282  -14.5277  -19.1176 N   0  0  0  0  0  0  0  0  0  0  0  0
   26.5751  -15.1841  -19.6814 C   0  0  0  0  0  0  0  0  0  0  0  0
   26.6016  -16.4556  -19.2188 N   0  0  0  0  0  0  0  0  0  0  0  0
   26.0861  -19.5625  -16.1260 C   0  0  0  0  0  0  0  0  0  0  0  0
   25.6335  -20.6224  -16.5838 O   0  0  0  0  0  0  0  0  0  0  0  0
   26.2086  -22.1536  -11.0376 C   0  0  0  0  0  0  0  0  0  0  0  0
   25.4719  -20.8909  -11.3327 C   0  0  1  0  0  0  0  0  0  0  0  0
   25.2585  -20.1596  -10.0056 C   0  0  0  0  0  0  0  0  0  0  0  0
   26.0795  -19.9900  -12.3513 C   0  0  0  0  0  0  0  0  0  0  0  0
   25.5290  -20.1828  -13.7442 C   0  0  2  0  0  0  0  0  0  0  0  0
   26.1649  -19.3983  -14.7115 N   0  0  0  0  0  0  0  0  0  0  0  0
   24.0581  -20.2745  -13.7425 C   0  0  0  0  0  0  0  0  0  0  0  0
   23.5198  -19.2249  -13.1920 O   0  0  0  0  0  0  0  0  0  0  0  0
   23.2566  -21.3038  -14.2408 N   0  0  0  0  0  0  0  0  0  0  0  0
   23.6578  -22.3136  -15.2001 C   0  0  0  0  0  0  0  0  0  0  0  0
   22.9969  -23.5840  -14.6296 C   0  0  0  0  0  0  0  0  0  0  0  0
   22.0796  -23.0895  -13.5050 C   0  0  0  0  0  0  0  0  0  0  0  0
   21.8875  -21.6550  -14.0162 C   0  0  1  0  0  0  0  0  0  0  0  0
   20.9891  -20.8422  -13.2891 C   0  0  0  0  0  0  0  0  0  0  0  0
   20.0247  -20.1280  -13.6007 O   0  0  0  0  0  0  0  0  0  0  0  0
   21.2206  -20.8205  -11.8825 O   0  0  0  0  0  0  0  0  0  0  0  0
  2  9  1  0
  2  3  1  0
  2  1  1  6
  4  8  1  0
  4  3  1  0
  5  4  2  0
  6  5  1  0
  6  7  1  0
  7  8  2  0
  9 10  2  0
 12 11  1  1
 13 12  1  0
 14 12  1  0
 15 14  1  1
 16 15  1  0
 16  9  1  0
 17 18  2  0
 17 15  1  0
 19 17  1  0
 20 19  1  0
 21 20  1  0
 22 21  1  0
 22 23  1  0
 23 19  1  0
 23 24  1  1
 24 26  1  0
 25 24  2  0
M  END
$$$$
