QEF.pdb
     RDKit          3D

 30 30  0  0  1  0  0  0  0  0999 V2000
    7.9548  -11.9263   20.7177 N   0  0  0  0  0  0  0  0  0  0  0  0
    8.0558  -12.4965   19.4143 C   0  0  0  0  0  0  0  0  0  0  0  0
    8.0635  -11.7368   18.4344 O   0  0  0  0  0  0  0  0  0  0  0  0
    8.1436  -13.9651   19.3207 C   0  0  0  0  0  0  0  0  0  0  0  0
    8.1041  -14.6293   20.6666 C   0  0  0  0  0  0  0  0  0  0  0  0
    8.2788  -16.1220   20.6320 C   0  0  2  0  0  0  0  0  0  0  0  0
    7.0218  -16.6509   20.0953 N   0  0  0  0  0  0  0  0  0  0  0  0
    8.4715  -16.6011   22.0331 C   0  0  0  0  0  0  0  0  0  0  0  0
    7.5099  -16.9024   22.7779 O   0  0  0  0  0  0  0  0  0  0  0  0
    9.7658  -16.7445   22.6085 N   0  0  0  0  0  0  0  0  0  0  0  0
    9.9602  -17.3907   23.8678 C   0  0  1  0  0  0  0  0  0  0  0  0
   11.0938  -18.3820   23.8332 C   0  0  0  0  0  0  0  0  0  0  0  0
   11.3116  -19.0828   25.1355 C   0  0  0  0  0  0  0  0  0  0  0  0
   12.4762  -19.9933   24.9804 C   0  0  0  0  0  0  0  0  0  0  0  0
   13.5858  -19.5834   24.5537 O   0  0  0  0  0  0  0  0  0  0  0  0
   10.1382  -16.4058   24.9840 C   0  0  0  0  0  0  0  0  0  0  0  0
   10.9429  -15.4480   24.8651 O   0  0  0  0  0  0  0  0  0  0  0  0
   12.3943  -21.3536   25.3025 O   0  0  0  0  0  0  0  0  0  0  0  0
    9.4244  -16.4986   26.2077 N   0  0  0  0  0  0  0  0  0  0  0  0
    9.7487  -15.6304   27.3524 C   0  0  1  0  0  0  0  0  0  0  0  0
    8.5307  -14.9581   27.8830 C   0  0  0  0  0  0  0  0  0  0  0  0
    8.0434  -13.9338   26.9544 C   0  0  0  0  0  0  0  0  0  0  0  0
    8.7080  -12.7296   26.8613 C   0  0  0  0  0  0  0  0  0  0  0  0
    8.2228  -11.7916   25.9777 C   0  0  0  0  0  0  0  0  0  0  0  0
    7.1002  -12.0354   25.1976 C   0  0  0  0  0  0  0  0  0  0  0  0
    6.4202  -13.2407   25.2789 C   0  0  0  0  0  0  0  0  0  0  0  0
    6.9112  -14.1746   26.1651 C   0  0  0  0  0  0  0  0  0  0  0  0
   10.5379  -16.3849   28.3304 C   0  0  0  0  0  0  0  0  0  0  0  0
   11.1124  -15.7460   29.4515 O   0  0  0  0  0  0  0  0  0  0  0  0
   10.7688  -17.6168   28.2682 O   0  0  0  0  0  0  0  0  0  0  0  0
  2  1  1  0
  2  3  2  0
  4  2  1  0
  5  4  1  0
  6  5  1  0
  6  7  1  1
  8  9  2  0
  8  6  1  0
 10  8  1  0
 11 10  1  0
 11 12  1  6
 13 14  1  0
 13 12  1  0
 14 18  1  0
 15 14  2  0
 16 17  2  0
 16 11  1  0
 19 16  1  0
 20 21  1  1
 20 19  1  0
 22 21  1  0
 22 23  2  0
 24 23  1  0
 25 24  2  0
 26 27  2  0
 26 25  1  0
 27 22  1  0
 28 20  1  0
 29 28  1  0
 30 28  2  0
M  END
$$$$
