QEF.pdb
     RDKit          3D

 30 30  0  0  1  0  0  0  0  0999 V2000
    9.3059  -14.2891   15.9138 N   0  0  0  0  0  0  0  0  0  0  0  0
    7.9582  -14.4072   16.3654 C   0  0  0  0  0  0  0  0  0  0  0  0
    7.2633  -15.3327   15.9204 O   0  0  0  0  0  0  0  0  0  0  0  0
    7.4787  -13.4097   17.3393 C   0  0  0  0  0  0  0  0  0  0  0  0
    7.3936  -13.9627   18.7325 C   0  0  0  0  0  0  0  0  0  0  0  0
    8.5913  -13.6730   19.5938 C   0  0  2  0  0  0  0  0  0  0  0  0
    9.7265  -13.5907   18.6706 N   0  0  0  0  0  0  0  0  0  0  0  0
    8.7819  -14.8220   20.5282 C   0  0  0  0  0  0  0  0  0  0  0  0
    7.8756  -15.2201   21.2966 O   0  0  0  0  0  0  0  0  0  0  0  0
   10.0109  -15.5369   20.6018 N   0  0  0  0  0  0  0  0  0  0  0  0
   10.2286  -16.5575   21.5775 C   0  0  1  0  0  0  0  0  0  0  0  0
   11.3027  -17.5279   21.1605 C   0  0  0  0  0  0  0  0  0  0  0  0
   11.5604  -18.6001   22.1696 C   0  0  0  0  0  0  0  0  0  0  0  0
   12.6211  -19.4928   21.6336 C   0  0  0  0  0  0  0  0  0  0  0  0
   13.7546  -19.0551   21.3095 O   0  0  0  0  0  0  0  0  0  0  0  0
   10.5135  -15.9872   22.9343 C   0  0  0  0  0  0  0  0  0  0  0  0
   11.3487  -15.0584   23.0715 O   0  0  0  0  0  0  0  0  0  0  0  0
   12.4094  -20.8665   21.4632 O   0  0  0  0  0  0  0  0  0  0  0  0
    9.8708  -16.4538   24.1111 N   0  0  0  0  0  0  0  0  0  0  0  0
    9.3243  -15.5183   25.1088 C   0  0  1  0  0  0  0  0  0  0  0  0
    8.4534  -14.4938   24.4691 C   0  0  0  0  0  0  0  0  0  0  0  0
    7.8954  -13.5752   25.4660 C   0  0  0  0  0  0  0  0  0  0  0  0
    8.7196  -12.6566   26.0802 C   0  0  0  0  0  0  0  0  0  0  0  0
    8.1608  -11.8090   27.0103 C   0  0  0  0  0  0  0  0  0  0  0  0
    6.8108  -11.8649   27.3310 C   0  0  0  0  0  0  0  0  0  0  0  0
    5.9682  -12.7824   26.7229 C   0  0  0  0  0  0  0  0  0  0  0  0
    6.5341  -13.6274   25.7932 C   0  0  0  0  0  0  0  0  0  0  0  0
    8.7175  -16.2749   26.2078 C   0  0  0  0  0  0  0  0  0  0  0  0
    7.7022  -17.2262   25.9640 O   0  0  0  0  0  0  0  0  0  0  0  0
    9.0281  -16.1553   27.4178 O   0  0  0  0  0  0  0  0  0  0  0  0
  2  1  1  0
  2  3  2  0
  4  2  1  0
  5  4  1  0
  6  5  1  0
  6  7  1  6
  8  9  2  0
  8  6  1  0
 10  8  1  0
 11 10  1  0
 11 12  1  6
 13 14  1  0
 13 12  1  0
 14 18  1  0
 15 14  2  0
 16 17  2  0
 16 11  1  0
 19 16  1  0
 20 21  1  6
 20 19  1  0
 22 21  1  0
 22 23  2  0
 24 23  1  0
 25 24  2  0
 26 27  2  0
 26 25  1  0
 27 22  1  0
 28 20  1  0
 29 28  1  0
 30 28  2  0
M  END
$$$$
