QEF.pdb
     RDKit          3D

 30 30  0  0  1  0  0  0  0  0999 V2000
    3.6511  -23.1148   24.8694 N   0  0  0  0  0  0  0  0  0  0  0  0
    2.9349  -23.0155   23.6400 C   0  0  0  0  0  0  0  0  0  0  0  0
    1.8753  -23.6479   23.5189 O   0  0  0  0  0  0  0  0  0  0  0  0
    3.5105  -22.1601   22.5862 C   0  0  0  0  0  0  0  0  0  0  0  0
    4.7120  -21.3951   23.0607 C   0  0  0  0  0  0  0  0  0  0  0  0
    4.9070  -20.0619   22.3939 C   0  0  2  0  0  0  0  0  0  0  0  0
    4.9805  -20.3491   20.9587 N   0  0  0  0  0  0  0  0  0  0  0  0
    6.2053  -19.4922   22.8625 C   0  0  0  0  0  0  0  0  0  0  0  0
    6.4126  -19.1904   24.0610 O   0  0  0  0  0  0  0  0  0  0  0  0
    7.2900  -19.2569   21.9708 N   0  0  0  0  0  0  0  0  0  0  0  0
    8.5317  -18.7158   22.4252 C   0  0  1  0  0  0  0  0  0  0  0  0
    9.5751  -18.6873   21.3391 C   0  0  0  0  0  0  0  0  0  0  0  0
   10.9201  -18.2443   21.8174 C   0  0  0  0  0  0  0  0  0  0  0  0
   11.8500  -18.2588   20.6579 C   0  0  0  0  0  0  0  0  0  0  0  0
   11.4699  -17.9504   19.4995 O   0  0  0  0  0  0  0  0  0  0  0  0
    8.3618  -17.3619   23.0461 C   0  0  0  0  0  0  0  0  0  0  0  0
    7.6510  -16.4898   22.4862 O   0  0  0  0  0  0  0  0  0  0  0  0
   13.1963  -18.6171   20.7992 O   0  0  0  0  0  0  0  0  0  0  0  0
    8.9796  -16.9988   24.2717 N   0  0  0  0  0  0  0  0  0  0  0  0
    8.8780  -15.6300   24.8058 C   0  0  1  0  0  0  0  0  0  0  0  0
    7.4638  -15.1649   24.8354 C   0  0  0  0  0  0  0  0  0  0  0  0
    7.3488  -13.8588   25.4908 C   0  0  0  0  0  0  0  0  0  0  0  0
    7.3016  -13.7908   26.8669 C   0  0  0  0  0  0  0  0  0  0  0  0
    7.1948  -12.5471   27.4481 C   0  0  0  0  0  0  0  0  0  0  0  0
    7.1353  -11.3878   26.6860 C   0  0  0  0  0  0  0  0  0  0  0  0
    7.1814  -11.4383   25.3014 C   0  0  0  0  0  0  0  0  0  0  0  0
    7.2884  -12.6860   24.7267 C   0  0  0  0  0  0  0  0  0  0  0  0
    9.6038  -15.5458   26.0765 C   0  0  0  0  0  0  0  0  0  0  0  0
    9.5075  -16.5742   27.0401 O   0  0  0  0  0  0  0  0  0  0  0  0
   10.3477  -14.5936   26.4155 O   0  0  0  0  0  0  0  0  0  0  0  0
  2  1  1  0
  2  3  2  0
  4  2  1  0
  5  4  1  0
  6  5  1  0
  6  7  1  6
  8  9  2  0
  8  6  1  0
 10  8  1  0
 11 10  1  0
 11 12  1  6
 13 14  1  0
 13 12  1  0
 14 18  1  0
 15 14  2  0
 16 17  2  0
 16 11  1  0
 19 16  1  0
 20 21  1  1
 20 19  1  0
 22 21  1  0
 22 23  2  0
 24 23  1  0
 25 24  2  0
 26 27  2  0
 26 25  1  0
 27 22  1  0
 28 20  1  0
 29 28  1  0
 30 28  2  0
M  END
$$$$
