QEF.pdb
     RDKit          3D

 30 30  0  0  1  0  0  0  0  0999 V2000
    9.8778  -13.1549   18.6511 N   0  0  0  0  0  0  0  0  0  0  0  0
    8.6385  -13.0927   17.9479 C   0  0  0  0  0  0  0  0  0  0  0  0
    8.5581  -12.3570   16.9531 O   0  0  0  0  0  0  0  0  0  0  0  0
    7.5263  -13.9148   18.4585 C   0  0  0  0  0  0  0  0  0  0  0  0
    7.8939  -14.6674   19.7044 C   0  0  0  0  0  0  0  0  0  0  0  0
    8.2217  -16.1180   19.4843 C   0  0  2  0  0  0  0  0  0  0  0  0
    6.9561  -16.7520   19.1046 N   0  0  0  0  0  0  0  0  0  0  0  0
    8.7046  -16.6879   20.7772 C   0  0  0  0  0  0  0  0  0  0  0  0
    7.9207  -17.0692   21.6774 O   0  0  0  0  0  0  0  0  0  0  0  0
   10.0914  -16.8324   21.0651 N   0  0  0  0  0  0  0  0  0  0  0  0
   10.5497  -17.3052   22.3330 C   0  0  1  0  0  0  0  0  0  0  0  0
   11.9456  -17.8671   22.2636 C   0  0  0  0  0  0  0  0  0  0  0  0
   12.4428  -18.3892   23.5730 C   0  0  0  0  0  0  0  0  0  0  0  0
   13.8177  -18.9157   23.3677 C   0  0  0  0  0  0  0  0  0  0  0  0
   14.3925  -18.8508   22.2511 O   0  0  0  0  0  0  0  0  0  0  0  0
   10.4430  -16.2548   23.3972 C   0  0  0  0  0  0  0  0  0  0  0  0
   10.7612  -15.0645   23.1506 O   0  0  0  0  0  0  0  0  0  0  0  0
   14.5405  -19.5104   24.4092 O   0  0  0  0  0  0  0  0  0  0  0  0
    9.9872  -16.5400   24.7112 N   0  0  0  0  0  0  0  0  0  0  0  0
    9.4136  -15.4892   25.5690 C   0  0  1  0  0  0  0  0  0  0  0  0
    8.3748  -14.7068   24.8440 C   0  0  0  0  0  0  0  0  0  0  0  0
    7.7433  -13.7198   25.7249 C   0  0  0  0  0  0  0  0  0  0  0  0
    8.3901  -12.5309   25.9871 C   0  0  0  0  0  0  0  0  0  0  0  0
    7.7666  -11.6269   26.8179 C   0  0  0  0  0  0  0  0  0  0  0  0
    6.5252  -11.8895   27.3820 C   0  0  0  0  0  0  0  0  0  0  0  0
    5.8613  -13.0798   27.1288 C   0  0  0  0  0  0  0  0  0  0  0  0
    6.4910  -13.9796   26.2967 C   0  0  0  0  0  0  0  0  0  0  0  0
    8.9955  -16.0745   26.8462 C   0  0  0  0  0  0  0  0  0  0  0  0
    8.8076  -17.4679   26.9823 O   0  0  0  0  0  0  0  0  0  0  0  0
    8.7741  -15.4224   27.8953 O   0  0  0  0  0  0  0  0  0  0  0  0
  2  1  1  0
  2  3  2  0
  4  2  1  0
  5  4  1  0
  6  5  1  0
  6  7  1  1
  8  9  2  0
  8  6  1  0
 10  8  1  0
 11 10  1  0
 11 12  1  6
 13 14  1  0
 13 12  1  0
 14 18  1  0
 15 14  2  0
 16 17  2  0
 16 11  1  0
 19 16  1  0
 20 21  1  6
 20 19  1  0
 22 21  1  0
 22 23  2  0
 24 23  1  0
 25 24  2  0
 26 27  2  0
 26 25  1  0
 27 22  1  0
 28 20  1  0
 29 28  1  0
 30 28  2  0
M  END
$$$$
