QEF.pdb
     RDKit          3D

 30 30  0  0  1  0  0  0  0  0999 V2000
    6.6132  -14.3708   16.1485 N   0  0  0  0  0  0  0  0  0  0  0  0
    8.0271  -14.5034   16.2810 C   0  0  0  0  0  0  0  0  0  0  0  0
    8.6747  -14.9342   15.3155 O   0  0  0  0  0  0  0  0  0  0  0  0
    8.6273  -14.1165   17.5708 C   0  0  0  0  0  0  0  0  0  0  0  0
    7.5973  -13.7051   18.5827 C   0  0  0  0  0  0  0  0  0  0  0  0
    8.1580  -13.3169   19.9224 C   0  0  2  0  0  0  0  0  0  0  0  0
    9.5199  -12.8462   19.6553 N   0  0  0  0  0  0  0  0  0  0  0  0
    8.2044  -14.5385   20.7798 C   0  0  0  0  0  0  0  0  0  0  0  0
    7.1708  -15.1615   21.1173 O   0  0  0  0  0  0  0  0  0  0  0  0
    9.4318  -15.0705   21.2669 N   0  0  0  0  0  0  0  0  0  0  0  0
    9.4750  -16.2677   22.0453 C   0  0  1  0  0  0  0  0  0  0  0  0
   10.6762  -17.1172   21.7221 C   0  0  0  0  0  0  0  0  0  0  0  0
   10.6692  -17.6513   20.3260 C   0  0  0  0  0  0  0  0  0  0  0  0
   11.8832  -18.4900   20.1468 C   0  0  0  0  0  0  0  0  0  0  0  0
   12.3675  -19.1654   21.0905 O   0  0  0  0  0  0  0  0  0  0  0  0
    9.3926  -15.9862   23.5154 C   0  0  0  0  0  0  0  0  0  0  0  0
   10.2461  -15.2500   24.0711 O   0  0  0  0  0  0  0  0  0  0  0  0
   12.5475  -18.5688   18.9166 O   0  0  0  0  0  0  0  0  0  0  0  0
    8.3703  -16.5229   24.3415 N   0  0  0  0  0  0  0  0  0  0  0  0
    8.3775  -16.3203   25.8002 C   0  0  1  0  0  0  0  0  0  0  0  0
    7.1191  -15.6720   26.2622 C   0  0  0  0  0  0  0  0  0  0  0  0
    7.2655  -14.2148   26.3252 C   0  0  0  0  0  0  0  0  0  0  0  0
    8.5249  -13.6559   26.2803 C   0  0  0  0  0  0  0  0  0  0  0  0
    8.6242  -12.2838   26.3405 C   0  0  0  0  0  0  0  0  0  0  0  0
    7.5007  -11.4743   26.4435 C   0  0  0  0  0  0  0  0  0  0  0  0
    6.2272  -12.0200   26.4899 C   0  0  0  0  0  0  0  0  0  0  0  0
    6.1353  -13.3935   26.4292 C   0  0  0  0  0  0  0  0  0  0  0  0
    8.7293  -17.5774   26.4669 C   0  0  0  0  0  0  0  0  0  0  0  0
    9.0368  -17.6099   27.8452 O   0  0  0  0  0  0  0  0  0  0  0  0
    8.7885  -18.6964   25.9019 O   0  0  0  0  0  0  0  0  0  0  0  0
  2  1  1  0
  2  3  2  0
  4  2  1  0
  5  4  1  0
  6  5  1  0
  6  7  1  6
  8  9  2  0
  8  6  1  0
 10  8  1  0
 11 10  1  0
 11 12  1  1
 13 14  1  0
 13 12  1  0
 14 18  1  0
 15 14  2  0
 16 17  2  0
 16 11  1  0
 19 16  1  0
 20 21  1  1
 20 19  1  0
 22 21  1  0
 22 23  2  0
 24 23  1  0
 25 24  2  0
 26 27  2  0
 26 25  1  0
 27 22  1  0
 28 20  1  0
 29 28  1  0
 30 28  2  0
M  END
$$$$
