QEF.pdb
     RDKit          3D

 30 30  0  0  1  0  0  0  0  0999 V2000
    8.4545  -12.1619   18.0453 N   0  0  0  0  0  0  0  0  0  0  0  0
    8.0180  -13.2663   17.2554 C   0  0  0  0  0  0  0  0  0  0  0  0
    8.2182  -13.2354   16.0321 O   0  0  0  0  0  0  0  0  0  0  0  0
    7.3506  -14.3794   17.9546 C   0  0  0  0  0  0  0  0  0  0  0  0
    7.1265  -14.0904   19.4107 C   0  0  0  0  0  0  0  0  0  0  0  0
    8.3493  -14.2384   20.2724 C   0  0  2  0  0  0  0  0  0  0  0  0
    9.3511  -14.8875   19.4222 N   0  0  0  0  0  0  0  0  0  0  0  0
    8.0057  -15.1302   21.4197 C   0  0  0  0  0  0  0  0  0  0  0  0
    7.0123  -14.9250   22.1556 O   0  0  0  0  0  0  0  0  0  0  0  0
    8.7902  -16.2723   21.7470 N   0  0  0  0  0  0  0  0  0  0  0  0
    8.5275  -17.0544   22.9134 C   0  0  1  0  0  0  0  0  0  0  0  0
    8.9925  -18.4793   22.7633 C   0  0  0  0  0  0  0  0  0  0  0  0
    8.1912  -19.2661   21.7769 C   0  0  0  0  0  0  0  0  0  0  0  0
    8.7707  -20.6326   21.6968 C   0  0  0  0  0  0  0  0  0  0  0  0
    9.7778  -20.9660   22.3721 O   0  0  0  0  0  0  0  0  0  0  0  0
    9.0969  -16.4282   24.1507 C   0  0  0  0  0  0  0  0  0  0  0  0
   10.2488  -15.9261   24.1374 O   0  0  0  0  0  0  0  0  0  0  0  0
    8.2227  -21.6162   20.8644 O   0  0  0  0  0  0  0  0  0  0  0  0
    8.3833  -16.3692   25.3766 N   0  0  0  0  0  0  0  0  0  0  0  0
    8.9627  -15.7322   26.5715 C   0  0  1  0  0  0  0  0  0  0  0  0
    7.9586  -14.8862   27.2737 C   0  0  0  0  0  0  0  0  0  0  0  0
    7.6435  -13.6830   26.4980 C   0  0  0  0  0  0  0  0  0  0  0  0
    6.3419  -13.2323   26.4416 C   0  0  0  0  0  0  0  0  0  0  0  0
    6.0831  -12.0984   25.7046 C   0  0  0  0  0  0  0  0  0  0  0  0
    7.0906  -11.4184   25.0331 C   0  0  0  0  0  0  0  0  0  0  0  0
    8.4046  -11.8579   25.0793 C   0  0  0  0  0  0  0  0  0  0  0  0
    8.6562  -12.9931   25.8186 C   0  0  0  0  0  0  0  0  0  0  0  0
    9.6277  -16.7477   27.3932 C   0  0  0  0  0  0  0  0  0  0  0  0
    9.4934  -18.1233   27.1015 O   0  0  0  0  0  0  0  0  0  0  0  0
   10.3484  -16.5032   28.3910 O   0  0  0  0  0  0  0  0  0  0  0  0
  2  1  1  0
  2  3  2  0
  4  2  1  0
  5  4  1  0
  6  5  1  0
  6  7  1  6
  8  9  2  0
  8  6  1  0
 10  8  1  0
 11 10  1  0
 11 12  1  6
 13 14  1  0
 13 12  1  0
 14 18  1  0
 15 14  2  0
 16 17  2  0
 16 11  1  0
 19 16  1  0
 20 21  1  1
 20 19  1  0
 22 21  1  0
 22 23  2  0
 24 23  1  0
 25 24  2  0
 26 27  2  0
 26 25  1  0
 27 22  1  0
 28 20  1  0
 29 28  1  0
 30 28  2  0
M  END
$$$$
