QEF.pdb
     RDKit          3D

 30 30  0  0  1  0  0  0  0  0999 V2000
    6.4274  -12.7673   17.8307 N   0  0  0  0  0  0  0  0  0  0  0  0
    7.5471  -13.3765   17.1909 C   0  0  0  0  0  0  0  0  0  0  0  0
    7.5983  -13.3682   15.9521 O   0  0  0  0  0  0  0  0  0  0  0  0
    8.5765  -13.9817   18.0555 C   0  0  0  0  0  0  0  0  0  0  0  0
    8.2095  -13.9257   19.5102 C   0  0  0  0  0  0  0  0  0  0  0  0
    9.3696  -14.0804   20.4536 C   0  0  2  0  0  0  0  0  0  0  0  0
   10.4418  -14.6869   19.6595 N   0  0  0  0  0  0  0  0  0  0  0  0
    8.9606  -15.0126   21.5461 C   0  0  0  0  0  0  0  0  0  0  0  0
    7.9180  -14.8411   22.2198 O   0  0  0  0  0  0  0  0  0  0  0  0
    9.7349  -16.1572   21.8886 N   0  0  0  0  0  0  0  0  0  0  0  0
    9.2956  -17.0933   22.8744 C   0  0  1  0  0  0  0  0  0  0  0  0
    9.9218  -18.4512   22.6932 C   0  0  0  0  0  0  0  0  0  0  0  0
   11.3846  -18.3965   22.3904 C   0  0  0  0  0  0  0  0  0  0  0  0
   11.8933  -19.7912   22.3179 C   0  0  0  0  0  0  0  0  0  0  0  0
   12.5231  -20.3174   23.2708 O   0  0  0  0  0  0  0  0  0  0  0  0
    9.5068  -16.5831   24.2682 C   0  0  0  0  0  0  0  0  0  0  0  0
   10.4835  -15.8376   24.5318 O   0  0  0  0  0  0  0  0  0  0  0  0
   11.6958  -20.5881   21.1836 O   0  0  0  0  0  0  0  0  0  0  0  0
    8.6358  -16.9064   25.3418 N   0  0  0  0  0  0  0  0  0  0  0  0
    8.8413  -16.3504   26.6900 C   0  0  1  0  0  0  0  0  0  0  0  0
    7.6103  -15.6791   27.1913 C   0  0  0  0  0  0  0  0  0  0  0  0
    7.4418  -14.3567   26.5814 C   0  0  0  0  0  0  0  0  0  0  0  0
    8.1962  -13.2969   27.0377 C   0  0  0  0  0  0  0  0  0  0  0  0
    8.0124  -12.0699   26.4406 C   0  0  0  0  0  0  0  0  0  0  0  0
    7.0995  -11.8889   25.4099 C   0  0  0  0  0  0  0  0  0  0  0  0
    6.3330  -12.9438   24.9393 C   0  0  0  0  0  0  0  0  0  0  0  0
    6.5222  -14.1687   25.5413 C   0  0  0  0  0  0  0  0  0  0  0  0
    9.4055  -17.3830   27.5641 C   0  0  0  0  0  0  0  0  0  0  0  0
    9.5143  -18.7235   27.1320 O   0  0  0  0  0  0  0  0  0  0  0  0
    9.8275  -17.1840   28.7291 O   0  0  0  0  0  0  0  0  0  0  0  0
  2  1  1  0
  2  3  2  0
  4  2  1  0
  5  4  1  0
  6  5  1  0
  6  7  1  6
  8  9  2  0
  8  6  1  0
 10  8  1  0
 11 10  1  0
 11 12  1  1
 13 14  1  0
 13 12  1  0
 14 18  1  0
 15 14  2  0
 16 17  2  0
 16 11  1  0
 19 16  1  0
 20 21  1  1
 20 19  1  0
 22 21  1  0
 22 23  2  0
 24 23  1  0
 25 24  2  0
 26 27  2  0
 26 25  1  0
 27 22  1  0
 28 20  1  0
 29 28  1  0
 30 28  2  0
M  END
$$$$
