QEF.pdb
     RDKit          3D

 30 30  0  0  1  0  0  0  0  0999 V2000
    5.9194  -19.6918   15.5212 N   0  0  0  0  0  0  0  0  0  0  0  0
    6.4800  -19.6695   16.8324 C   0  0  0  0  0  0  0  0  0  0  0  0
    6.5188  -20.7272   17.4782 O   0  0  0  0  0  0  0  0  0  0  0  0
    6.9788  -18.3766   17.3355 C   0  0  0  0  0  0  0  0  0  0  0  0
    7.3808  -18.4397   18.7807 C   0  0  0  0  0  0  0  0  0  0  0  0
    7.8476  -17.1321   19.3569 C   0  0  2  0  0  0  0  0  0  0  0  0
    8.7210  -16.5445   18.3372 N   0  0  0  0  0  0  0  0  0  0  0  0
    8.6359  -17.4220   20.5915 C   0  0  0  0  0  0  0  0  0  0  0  0
    8.1358  -17.9924   21.5890 O   0  0  0  0  0  0  0  0  0  0  0  0
   10.0093  -17.0656   20.7091 N   0  0  0  0  0  0  0  0  0  0  0  0
   10.7363  -17.2681   21.9221 C   0  0  1  0  0  0  0  0  0  0  0  0
   12.2190  -17.3916   21.6866 C   0  0  0  0  0  0  0  0  0  0  0  0
   12.9926  -17.7207   22.9226 C   0  0  0  0  0  0  0  0  0  0  0  0
   14.4047  -17.9689   22.5307 C   0  0  0  0  0  0  0  0  0  0  0  0
   14.7014  -18.5769   21.4706 O   0  0  0  0  0  0  0  0  0  0  0  0
   10.4378  -16.2092   22.9404 C   0  0  0  0  0  0  0  0  0  0  0  0
   10.6169  -14.9957   22.6677 O   0  0  0  0  0  0  0  0  0  0  0  0
   15.4748  -17.5373   23.3240 O   0  0  0  0  0  0  0  0  0  0  0  0
    9.9478  -16.5117   24.2382 N   0  0  0  0  0  0  0  0  0  0  0  0
    9.4511  -15.4551   25.1359 C   0  0  1  0  0  0  0  0  0  0  0  0
    8.4208  -14.6155   24.4645 C   0  0  0  0  0  0  0  0  0  0  0  0
    7.8976  -13.5908   25.3728 C   0  0  0  0  0  0  0  0  0  0  0  0
    8.7410  -12.6089   25.8475 C   0  0  0  0  0  0  0  0  0  0  0  0
    8.2148  -11.6622   26.6977 C   0  0  0  0  0  0  0  0  0  0  0  0
    6.8785  -11.6818   27.0749 C   0  0  0  0  0  0  0  0  0  0  0  0
    6.0170  -12.6619   26.6068 C   0  0  0  0  0  0  0  0  0  0  0  0
    6.5503  -13.6059   25.7566 C   0  0  0  0  0  0  0  0  0  0  0  0
    9.0551  -16.0478   26.4168 C   0  0  0  0  0  0  0  0  0  0  0  0
    8.2390  -17.1997   26.4652 O   0  0  0  0  0  0  0  0  0  0  0  0
    9.3885  -15.6079   27.5438 O   0  0  0  0  0  0  0  0  0  0  0  0
  2  1  1  0
  2  3  2  0
  4  2  1  0
  5  4  1  0
  6  5  1  0
  6  7  1  6
  8  9  2  0
  8  6  1  0
 10  8  1  0
 11 10  1  0
 11 12  1  6
 13 14  1  0
 13 12  1  0
 14 18  1  0
 15 14  2  0
 16 17  2  0
 16 11  1  0
 19 16  1  0
 20 21  1  6
 20 19  1  0
 22 21  1  0
 22 23  2  0
 24 23  1  0
 25 24  2  0
 26 27  2  0
 26 25  1  0
 27 22  1  0
 28 20  1  0
 29 28  1  0
 30 28  2  0
M  END
$$$$
