QEF.pdb
     RDKit          3D

 30 30  0  0  1  0  0  0  0  0999 V2000
    6.1880  -18.7849   17.3910 N   0  0  0  0  0  0  0  0  0  0  0  0
    6.6305  -17.6099   16.7145 C   0  0  0  0  0  0  0  0  0  0  0  0
    6.4857  -17.5444   15.4848 O   0  0  0  0  0  0  0  0  0  0  0  0
    7.2371  -16.5436   17.5320 C   0  0  0  0  0  0  0  0  0  0  0  0
    7.2039  -16.8568   19.0000 C   0  0  0  0  0  0  0  0  0  0  0  0
    7.7881  -15.7873   19.8803 C   0  0  2  0  0  0  0  0  0  0  0  0
    8.7714  -15.0889   19.0477 N   0  0  0  0  0  0  0  0  0  0  0  0
    8.4771  -16.4521   21.0262 C   0  0  0  0  0  0  0  0  0  0  0  0
    7.8598  -17.1358   21.8757 O   0  0  0  0  0  0  0  0  0  0  0  0
    9.8834  -16.3479   21.2223 N   0  0  0  0  0  0  0  0  0  0  0  0
   10.5327  -16.9559   22.3403 C   0  0  1  0  0  0  0  0  0  0  0  0
   12.0293  -17.0032   22.1765 C   0  0  0  0  0  0  0  0  0  0  0  0
   12.7369  -17.6123   23.3439 C   0  0  0  0  0  0  0  0  0  0  0  0
   14.1978  -17.5649   23.0740 C   0  0  0  0  0  0  0  0  0  0  0  0
   14.6524  -17.3993   21.9132 O   0  0  0  0  0  0  0  0  0  0  0  0
   10.1517  -16.3037   23.6352 C   0  0  0  0  0  0  0  0  0  0  0  0
   10.6176  -15.1777   23.9418 O   0  0  0  0  0  0  0  0  0  0  0  0
   15.1401  -17.7025   24.1006 O   0  0  0  0  0  0  0  0  0  0  0  0
    9.2646  -16.9079   24.5646 N   0  0  0  0  0  0  0  0  0  0  0  0
    8.9162  -16.2464   25.8335 C   0  0  1  0  0  0  0  0  0  0  0  0
    7.5054  -15.7701   25.8253 C   0  0  0  0  0  0  0  0  0  0  0  0
    7.4378  -14.3104   25.9415 C   0  0  0  0  0  0  0  0  0  0  0  0
    8.5606  -13.6063   26.3211 C   0  0  0  0  0  0  0  0  0  0  0  0
    8.4607  -12.2365   26.4185 C   0  0  0  0  0  0  0  0  0  0  0  0
    7.2733  -11.5698   26.1464 C   0  0  0  0  0  0  0  0  0  0  0  0
    6.1352  -12.2625   25.7635 C   0  0  0  0  0  0  0  0  0  0  0  0
    6.2424  -13.6329   25.6681 C   0  0  0  0  0  0  0  0  0  0  0  0
    9.2904  -17.1124   26.9554 C   0  0  0  0  0  0  0  0  0  0  0  0
    9.8314  -18.3983   26.7342 O   0  0  0  0  0  0  0  0  0  0  0  0
    9.1714  -16.8078   28.1670 O   0  0  0  0  0  0  0  0  0  0  0  0
  2  1  1  0
  2  3  2  0
  4  2  1  0
  5  4  1  0
  6  5  1  0
  6  7  1  6
  8  9  2  0
  8  6  1  0
 10  8  1  0
 11 10  1  0
 11 12  1  6
 13 14  1  0
 13 12  1  0
 14 18  1  0
 15 14  2  0
 16 17  2  0
 16 11  1  0
 19 16  1  0
 20 21  1  6
 20 19  1  0
 22 21  1  0
 22 23  2  0
 24 23  1  0
 25 24  2  0
 26 27  2  0
 26 25  1  0
 27 22  1  0
 28 20  1  0
 29 28  1  0
 30 28  2  0
M  END
$$$$
