PMN.pdb
     RDKit          3D

 24 24  0  0  1  0  0  0  0  0999 V2000
    7.2855  -15.0986   20.3298 N   0  0  0  0  0  0  0  0  0  0  0  0
    6.4284  -13.9572   20.1121 C   0  0  0  0  0  0  0  0  0  0  0  0
    7.3044  -12.7572   19.8481 C   0  0  0  0  0  0  0  0  0  0  0  0
    8.6853  -13.3349   19.5856 C   0  0  0  0  0  0  0  0  0  0  0  0
    8.6373  -14.6482   20.3369 C   0  0  1  0  0  0  0  0  0  0  0  0
    9.1555  -14.4235   21.7187 C   0  0  0  0  0  0  0  0  0  0  0  0
   10.3745  -14.1892   21.8328 O   0  0  0  0  0  0  0  0  0  0  0  0
    5.6873  -11.6157   26.9330 C   0  0  0  0  0  0  0  0  0  0  0  0
    7.4824  -11.6448   26.9786 S   0  0  0  0  0  0  0  0  0  0  0  0
    8.1011  -13.3070   26.4701 C   0  0  0  0  0  0  0  0  0  0  0  0
    7.6175  -13.5582   25.0630 C   0  0  0  0  0  0  0  0  0  0  0  0
    8.6417  -14.3008   24.2214 C   0  0  2  0  0  0  0  0  0  0  0  0
    8.3281  -14.4697   22.8533 N   0  0  0  0  0  0  0  0  0  0  0  0
    9.2182  -15.4755   24.8677 C   0  0  0  0  0  0  0  0  0  0  0  0
    9.5345  -15.4406   26.1020 O   0  0  0  0  0  0  0  0  0  0  0  0
    7.7530  -19.9873   24.5600 N   0  0  0  0  0  0  0  0  0  0  0  0
    8.5764  -19.3093   23.6343 C   0  0  0  0  0  0  0  0  0  0  0  0
    8.1052  -18.9338   22.5142 O   0  0  0  0  0  0  0  0  0  0  0  0
    9.9995  -19.0389   23.9914 C   0  0  0  0  0  0  0  0  0  0  0  0
   10.0911  -17.8278   24.9180 C   0  0  2  0  0  0  0  0  0  0  0  0
    9.4669  -16.7194   24.1934 N   0  0  0  0  0  0  0  0  0  0  0  0
   11.5172  -17.5479   25.1813 C   0  0  0  0  0  0  0  0  0  0  0  0
   12.3345  -18.4172   25.8905 O   0  0  0  0  0  0  0  0  0  0  0  0
   12.0469  -16.4847   24.7588 O   0  0  0  0  0  0  0  0  0  0  0  0
  1  5  1  0
  1  2  1  0
  2  3  1  0
  4  3  1  0
  5  4  1  0
  5  6  1  1
  7  6  2  0
  8  9  1  0
  9 10  1  0
 11 10  1  0
 12 11  1  1
 12 13  1  0
 13  6  1  0
 14 12  1  0
 14 15  2  0
 17 16  1  0
 17 19  1  0
 18 17  2  0
 20 19  1  6
 20 21  1  0
 21 14  1  0
 22 20  1  0
 23 22  1  0
 24 22  2  0
M  END
$$$$
