PMN.pdb
     RDKit          3D

 24 24  0  0  1  0  0  0  0  0999 V2000
    7.4381  -14.9724   19.8599 N   0  0  0  0  0  0  0  0  0  0  0  0
    6.5119  -13.8839   19.6547 C   0  0  0  0  0  0  0  0  0  0  0  0
    7.2898  -12.5917   19.7019 C   0  0  0  0  0  0  0  0  0  0  0  0
    8.7468  -13.0118   19.6000 C   0  0  0  0  0  0  0  0  0  0  0  0
    8.7190  -14.4209   20.1524 C   0  0  1  0  0  0  0  0  0  0  0  0
    8.9920  -14.3611   21.6189 C   0  0  0  0  0  0  0  0  0  0  0  0
   10.1062  -13.9245   21.9678 O   0  0  0  0  0  0  0  0  0  0  0  0
    6.3055  -10.6099   26.6455 C   0  0  0  0  0  0  0  0  0  0  0  0
    6.2437  -12.3946   26.4538 S   0  0  0  0  0  0  0  0  0  0  0  0
    7.2012  -12.9038   24.9612 C   0  0  0  0  0  0  0  0  0  0  0  0
    7.1205  -14.4074   24.8636 C   0  0  0  0  0  0  0  0  0  0  0  0
    8.2019  -14.9897   23.9690 C   0  0  2  0  0  0  0  0  0  0  0  0
    8.0533  -14.7725   22.5800 N   0  0  0  0  0  0  0  0  0  0  0  0
    8.6312  -16.3352   24.3366 C   0  0  0  0  0  0  0  0  0  0  0  0
    8.3219  -17.3318   23.6044 O   0  0  0  0  0  0  0  0  0  0  0  0
   12.1573  -19.7662   25.5093 N   0  0  0  0  0  0  0  0  0  0  0  0
   12.2232  -18.8308   24.4533 C   0  0  0  0  0  0  0  0  0  0  0  0
   13.0811  -18.9730   23.5253 O   0  0  0  0  0  0  0  0  0  0  0  0
   11.2723  -17.6811   24.4421 C   0  0  0  0  0  0  0  0  0  0  0  0
   10.2281  -17.8481   25.5446 C   0  0  2  0  0  0  0  0  0  0  0  0
    9.4073  -16.6365   25.5074 N   0  0  0  0  0  0  0  0  0  0  0  0
   10.9301  -17.9687   26.8385 C   0  0  0  0  0  0  0  0  0  0  0  0
   11.4939  -19.1582   27.2788 O   0  0  0  0  0  0  0  0  0  0  0  0
   11.0406  -16.9697   27.5996 O   0  0  0  0  0  0  0  0  0  0  0  0
  1  5  1  0
  1  2  1  0
  2  3  1  0
  4  3  1  0
  5  4  1  0
  5  6  1  1
  7  6  2  0
  8  9  1  0
  9 10  1  0
 11 10  1  0
 12 11  1  1
 12 13  1  0
 13  6  1  0
 14 12  1  0
 14 15  2  0
 17 16  1  0
 17 19  1  0
 18 17  2  0
 20 19  1  6
 20 21  1  0
 21 14  1  0
 22 20  1  0
 23 22  1  0
 24 22  2  0
M  END
$$$$
