PMN.pdb
     RDKit          3D

 24 24  0  0  1  0  0  0  0  0999 V2000
    7.5494  -15.3666   20.1980 N   0  0  0  0  0  0  0  0  0  0  0  0
    6.6436  -14.3316   19.7586 C   0  0  0  0  0  0  0  0  0  0  0  0
    7.4280  -13.0496   19.6221 C   0  0  0  0  0  0  0  0  0  0  0  0
    8.8850  -13.4790   19.6716 C   0  0  0  0  0  0  0  0  0  0  0  0
    8.8175  -14.7708   20.4577 C   0  0  1  0  0  0  0  0  0  0  0  0
    9.0139  -14.4571   21.9039 C   0  0  0  0  0  0  0  0  0  0  0  0
   10.1538  -14.0921   22.2521 O   0  0  0  0  0  0  0  0  0  0  0  0
    7.1937  -10.9731   28.0641 C   0  0  0  0  0  0  0  0  0  0  0  0
    6.8882  -11.5055   26.3762 S   0  0  0  0  0  0  0  0  0  0  0  0
    6.8889  -13.3482   26.2846 C   0  0  0  0  0  0  0  0  0  0  0  0
    6.7214  -13.7287   24.8340 C   0  0  0  0  0  0  0  0  0  0  0  0
    7.9851  -14.3303   24.2423 C   0  0  2  0  0  0  0  0  0  0  0  0
    7.9782  -14.5613   22.8476 N   0  0  0  0  0  0  0  0  0  0  0  0
    8.5747  -15.4020   25.0383 C   0  0  0  0  0  0  0  0  0  0  0  0
    8.7591  -15.2470   26.2900 O   0  0  0  0  0  0  0  0  0  0  0  0
    6.4403  -18.6323   24.1503 N   0  0  0  0  0  0  0  0  0  0  0  0
    7.2913  -18.8027   25.2644 C   0  0  0  0  0  0  0  0  0  0  0  0
    6.8112  -18.8023   26.4421 O   0  0  0  0  0  0  0  0  0  0  0  0
    8.7546  -18.9860   25.0382 C   0  0  0  0  0  0  0  0  0  0  0  0
    9.5084  -17.7047   25.3899 C   0  0  2  0  0  0  0  0  0  0  0  0
    8.9801  -16.6702   24.4989 N   0  0  0  0  0  0  0  0  0  0  0  0
   10.9477  -17.9269   25.1434 C   0  0  0  0  0  0  0  0  0  0  0  0
   11.6944  -18.8618   25.8469 O   0  0  0  0  0  0  0  0  0  0  0  0
   11.5549  -17.2572   24.2646 O   0  0  0  0  0  0  0  0  0  0  0  0
  1  5  1  0
  1  2  1  0
  2  3  1  0
  4  3  1  0
  5  4  1  0
  5  6  1  1
  7  6  2  0
  8  9  1  0
  9 10  1  0
 11 10  1  0
 12 11  1  1
 12 13  1  0
 13  6  1  0
 14 12  1  0
 14 15  2  0
 17 16  1  0
 17 19  1  0
 18 17  2  0
 20 19  1  6
 20 21  1  0
 21 14  1  0
 22 20  1  0
 23 22  1  0
 24 22  2  0
M  END
$$$$
