PMN.pdb
     RDKit          3D

 24 24  0  0  1  0  0  0  0  0999 V2000
    7.5107  -15.1224   19.9825 N   0  0  0  0  0  0  0  0  0  0  0  0
    6.6032  -14.0273   19.7336 C   0  0  0  0  0  0  0  0  0  0  0  0
    7.3961  -12.7440   19.7717 C   0  0  0  0  0  0  0  0  0  0  0  0
    8.8496  -13.1838   19.7117 C   0  0  0  0  0  0  0  0  0  0  0  0
    8.7916  -14.5805   20.2925 C   0  0  1  0  0  0  0  0  0  0  0  0
    9.0322  -14.4932   21.7633 C   0  0  0  0  0  0  0  0  0  0  0  0
   10.1772  -14.1629   22.1288 O   0  0  0  0  0  0  0  0  0  0  0  0
    6.4446  -10.4730   26.8358 C   0  0  0  0  0  0  0  0  0  0  0  0
    6.0469  -12.1469   26.3206 S   0  0  0  0  0  0  0  0  0  0  0  0
    7.4092  -12.8287   25.2798 C   0  0  0  0  0  0  0  0  0  0  0  0
    7.0525  -14.2566   24.9469 C   0  0  0  0  0  0  0  0  0  0  0  0
    8.1204  -14.9415   24.1106 C   0  0  2  0  0  0  0  0  0  0  0  0
    8.0312  -14.7662   22.7106 N   0  0  0  0  0  0  0  0  0  0  0  0
    8.4462  -16.2980   24.5390 C   0  0  0  0  0  0  0  0  0  0  0  0
    8.0728  -17.2994   23.8442 O   0  0  0  0  0  0  0  0  0  0  0  0
   10.8507  -20.0905   24.5739 N   0  0  0  0  0  0  0  0  0  0  0  0
   11.4736  -18.9191   24.0901 C   0  0  0  0  0  0  0  0  0  0  0  0
   12.3613  -18.9947   23.1824 O   0  0  0  0  0  0  0  0  0  0  0  0
   11.0728  -17.5978   24.6556 C   0  0  0  0  0  0  0  0  0  0  0  0
   10.0457  -17.7894   25.7700 C   0  0  2  0  0  0  0  0  0  0  0  0
    9.1856  -16.6054   25.7317 N   0  0  0  0  0  0  0  0  0  0  0  0
   10.7642  -17.8766   27.0576 C   0  0  0  0  0  0  0  0  0  0  0  0
   10.7483  -19.0157   27.8506 O   0  0  0  0  0  0  0  0  0  0  0  0
   11.4296  -16.8944   27.4843 O   0  0  0  0  0  0  0  0  0  0  0  0
  1  5  1  0
  1  2  1  0
  2  3  1  0
  4  3  1  0
  5  4  1  0
  5  6  1  1
  7  6  2  0
  8  9  1  0
  9 10  1  0
 11 10  1  0
 12 11  1  1
 12 13  1  0
 13  6  1  0
 14 12  1  0
 14 15  2  0
 17 16  1  0
 17 19  1  0
 18 17  2  0
 20 19  1  6
 20 21  1  0
 21 14  1  0
 22 20  1  0
 23 22  1  0
 24 22  2  0
M  END
$$$$
