PMN.pdb
     RDKit          3D

 24 24  0  0  1  0  0  0  0  0999 V2000
    7.2279  -14.9547   19.5969 N   0  0  0  0  0  0  0  0  0  0  0  0
    6.5151  -13.7329   19.3072 C   0  0  0  0  0  0  0  0  0  0  0  0
    7.5252  -12.6182   19.1881 C   0  0  0  0  0  0  0  0  0  0  0  0
    8.8684  -13.3212   19.0823 C   0  0  0  0  0  0  0  0  0  0  0  0
    8.6041  -14.6361   19.7842 C   0  0  1  0  0  0  0  0  0  0  0  0
    8.9627  -14.4851   21.2254 C   0  0  0  0  0  0  0  0  0  0  0  0
   10.1773  -14.4524   21.5039 O   0  0  0  0  0  0  0  0  0  0  0  0
    6.5794  -11.7275   28.2491 C   0  0  0  0  0  0  0  0  0  0  0  0
    6.1776  -12.1044   26.5397 S   0  0  0  0  0  0  0  0  0  0  0  0
    7.4547  -13.2263   25.8225 C   0  0  0  0  0  0  0  0  0  0  0  0
    7.1131  -13.4280   24.3666 C   0  0  0  0  0  0  0  0  0  0  0  0
    8.1459  -14.2730   23.6400 C   0  0  2  0  0  0  0  0  0  0  0  0
    7.9948  -14.3834   22.2387 N   0  0  0  0  0  0  0  0  0  0  0  0
    8.4954  -15.5168   24.3188 C   0  0  0  0  0  0  0  0  0  0  0  0
    7.6439  -16.4609   24.4106 O   0  0  0  0  0  0  0  0  0  0  0  0
   11.4389  -19.9313   24.3480 N   0  0  0  0  0  0  0  0  0  0  0  0
   11.9875  -18.7640   24.9231 C   0  0  0  0  0  0  0  0  0  0  0  0
   12.9328  -18.8511   25.7695 O   0  0  0  0  0  0  0  0  0  0  0  0
   11.4454  -17.4334   24.5208 C   0  0  0  0  0  0  0  0  0  0  0  0
   10.1528  -17.1380   25.2794 C   0  0  2  0  0  0  0  0  0  0  0  0
    9.7771  -15.7705   24.9159 N   0  0  0  0  0  0  0  0  0  0  0  0
   10.4268  -17.2413   26.7271 C   0  0  0  0  0  0  0  0  0  0  0  0
   10.4566  -16.1361   27.5664 O   0  0  0  0  0  0  0  0  0  0  0  0
   10.6469  -18.3644   27.2559 O   0  0  0  0  0  0  0  0  0  0  0  0
  1  5  1  0
  1  2  1  0
  2  3  1  0
  4  3  1  0
  5  4  1  0
  5  6  1  1
  7  6  2  0
  8  9  1  0
  9 10  1  0
 11 10  1  0
 12 11  1  1
 12 13  1  0
 13  6  1  0
 14 12  1  0
 14 15  2  0
 17 16  1  0
 17 19  1  0
 18 17  2  0
 20 19  1  6
 20 21  1  0
 21 14  1  0
 22 20  1  0
 23 22  1  0
 24 22  2  0
M  END
$$$$
