PMN.pdb
     RDKit          3D

 24 24  0  0  1  0  0  0  0  0999 V2000
    7.3434  -15.0864   19.8508 N   0  0  0  0  0  0  0  0  0  0  0  0
    6.5009  -13.9398   19.6052 C   0  0  0  0  0  0  0  0  0  0  0  0
    7.3834  -12.7181   19.5274 C   0  0  0  0  0  0  0  0  0  0  0  0
    8.7948  -13.2665   19.3971 C   0  0  0  0  0  0  0  0  0  0  0  0
    8.6774  -14.6269   20.0506 C   0  0  1  0  0  0  0  0  0  0  0  0
    9.0221  -14.4901   21.4966 C   0  0  0  0  0  0  0  0  0  0  0  0
   10.2149  -14.2555   21.7723 O   0  0  0  0  0  0  0  0  0  0  0  0
    7.1019  -11.2664   27.6541 C   0  0  0  0  0  0  0  0  0  0  0  0
    6.1786  -12.5770   26.8445 S   0  0  0  0  0  0  0  0  0  0  0  0
    7.3379  -13.8452   26.1724 C   0  0  0  0  0  0  0  0  0  0  0  0
    7.0330  -14.0028   24.7030 C   0  0  0  0  0  0  0  0  0  0  0  0
    8.2125  -14.5575   23.9220 C   0  0  2  0  0  0  0  0  0  0  0  0
    8.0648  -14.6163   22.5172 N   0  0  0  0  0  0  0  0  0  0  0  0
    8.8366  -15.7322   24.5224 C   0  0  0  0  0  0  0  0  0  0  0  0
    8.1907  -16.8272   24.6156 O   0  0  0  0  0  0  0  0  0  0  0  0
   13.3387  -15.8411   23.5157 N   0  0  0  0  0  0  0  0  0  0  0  0
   12.5682  -16.9061   24.0318 C   0  0  0  0  0  0  0  0  0  0  0  0
   12.1837  -17.8469   23.2671 O   0  0  0  0  0  0  0  0  0  0  0  0
   12.2174  -16.9116   25.4820 C   0  0  0  0  0  0  0  0  0  0  0  0
   10.7011  -16.9692   25.6588 C   0  0  2  0  0  0  0  0  0  0  0  0
   10.1775  -15.7514   25.0377 N   0  0  0  0  0  0  0  0  0  0  0  0
   10.4000  -16.9939   27.1046 C   0  0  0  0  0  0  0  0  0  0  0  0
   10.7048  -18.0777   27.9166 O   0  0  0  0  0  0  0  0  0  0  0  0
    9.8438  -16.0066   27.6571 O   0  0  0  0  0  0  0  0  0  0  0  0
  1  5  1  0
  1  2  1  0
  2  3  1  0
  4  3  1  0
  5  4  1  0
  5  6  1  1
  7  6  2  0
  8  9  1  0
  9 10  1  0
 11 10  1  0
 12 11  1  1
 12 13  1  0
 13  6  1  0
 14 12  1  0
 14 15  2  0
 17 16  1  0
 17 19  1  0
 18 17  2  0
 20 19  1  1
 20 21  1  0
 21 14  1  0
 22 20  1  0
 23 22  1  0
 24 22  2  0
M  END
$$$$
