PMN.pdb
     RDKit          3D

 24 24  0  0  1  0  0  0  0  0999 V2000
    7.1077  -15.0024   20.1514 N   0  0  0  0  0  0  0  0  0  0  0  0
    6.2953  -13.8178   20.0045 C   0  0  0  0  0  0  0  0  0  0  0  0
    7.2143  -12.6215   19.9654 C   0  0  0  0  0  0  0  0  0  0  0  0
    8.6013  -13.2043   19.7511 C   0  0  0  0  0  0  0  0  0  0  0  0
    8.4623  -14.5969   20.3280 C   0  0  1  0  0  0  0  0  0  0  0  0
    8.8620  -14.5570   21.7658 C   0  0  0  0  0  0  0  0  0  0  0  0
   10.0720  -14.3838   22.0102 O   0  0  0  0  0  0  0  0  0  0  0  0
    7.1861  -11.3327   27.3163 C   0  0  0  0  0  0  0  0  0  0  0  0
    5.9282  -12.1326   26.3145 S   0  0  0  0  0  0  0  0  0  0  0  0
    6.6913  -12.8508   24.7961 C   0  0  0  0  0  0  0  0  0  0  0  0
    7.0350  -14.2885   25.0996 C   0  0  0  0  0  0  0  0  0  0  0  0
    8.1426  -14.8212   24.2061 C   0  0  2  0  0  0  0  0  0  0  0  0
    7.9364  -14.7060   22.8123 N   0  0  0  0  0  0  0  0  0  0  0  0
    8.7085  -16.0950   24.6388 C   0  0  0  0  0  0  0  0  0  0  0  0
    8.0102  -17.1602   24.5865 O   0  0  0  0  0  0  0  0  0  0  0  0
   12.5609  -20.0086   24.4540 N   0  0  0  0  0  0  0  0  0  0  0  0
   12.6441  -18.9060   25.3324 C   0  0  0  0  0  0  0  0  0  0  0  0
   13.2708  -19.0116   26.4341 O   0  0  0  0  0  0  0  0  0  0  0  0
   11.9914  -17.6208   24.9474 C   0  0  0  0  0  0  0  0  0  0  0  0
   10.5538  -17.5828   25.4628 C   0  0  2  0  0  0  0  0  0  0  0  0
   10.0462  -16.2483   25.1395 N   0  0  0  0  0  0  0  0  0  0  0  0
   10.5756  -17.7980   26.9239 C   0  0  0  0  0  0  0  0  0  0  0  0
   10.6213  -19.0618   27.4961 O   0  0  0  0  0  0  0  0  0  0  0  0
   10.5529  -16.8154   27.7136 O   0  0  0  0  0  0  0  0  0  0  0  0
  1  5  1  0
  1  2  1  0
  2  3  1  0
  4  3  1  0
  5  4  1  0
  5  6  1  1
  7  6  2  0
  8  9  1  0
  9 10  1  0
 11 10  1  0
 12 11  1  1
 12 13  1  0
 13  6  1  0
 14 12  1  0
 14 15  2  0
 17 16  1  0
 17 19  1  0
 18 17  2  0
 20 19  1  1
 20 21  1  0
 21 14  1  0
 22 20  1  0
 23 22  1  0
 24 22  2  0
M  END
$$$$
