PMN.pdb
     RDKit          3D

 24 24  0  0  1  0  0  0  0  0999 V2000
    7.6488  -15.0382   19.8994 N   0  0  0  0  0  0  0  0  0  0  0  0
    6.6957  -13.9862   19.6354 C   0  0  0  0  0  0  0  0  0  0  0  0
    7.4411  -12.6744   19.6096 C   0  0  0  0  0  0  0  0  0  0  0  0
    8.9081  -13.0631   19.5290 C   0  0  0  0  0  0  0  0  0  0  0  0
    8.9156  -14.4395   20.1590 C   0  0  1  0  0  0  0  0  0  0  0  0
    9.1870  -14.2916   21.6194 C   0  0  0  0  0  0  0  0  0  0  0  0
   10.3170  -13.8772   21.9439 O   0  0  0  0  0  0  0  0  0  0  0  0
    6.5060  -11.0981   27.1885 C   0  0  0  0  0  0  0  0  0  0  0  0
    5.9653  -12.7862   26.8997 S   0  0  0  0  0  0  0  0  0  0  0  0
    7.3559  -13.7872   26.2153 C   0  0  0  0  0  0  0  0  0  0  0  0
    7.1181  -13.9371   24.7327 C   0  0  0  0  0  0  0  0  0  0  0  0
    8.3137  -14.5360   24.0110 C   0  0  2  0  0  0  0  0  0  0  0  0
    8.2302  -14.5992   22.6012 N   0  0  0  0  0  0  0  0  0  0  0  0
    8.8690  -15.7269   24.6462 C   0  0  0  0  0  0  0  0  0  0  0  0
    8.8016  -15.8724   25.9108 O   0  0  0  0  0  0  0  0  0  0  0  0
    9.6907  -18.7082   21.2620 N   0  0  0  0  0  0  0  0  0  0  0  0
    9.4037  -19.0398   22.6044 C   0  0  0  0  0  0  0  0  0  0  0  0
    8.2337  -19.4131   22.9351 O   0  0  0  0  0  0  0  0  0  0  0  0
   10.4906  -18.9491   23.6225 C   0  0  0  0  0  0  0  0  0  0  0  0
   10.1521  -17.8835   24.6635 C   0  0  2  0  0  0  0  0  0  0  0  0
    9.5120  -16.7918   23.9277 N   0  0  0  0  0  0  0  0  0  0  0  0
   11.4090  -17.4287   25.2920 C   0  0  0  0  0  0  0  0  0  0  0  0
   11.8714  -16.1240   25.1876 O   0  0  0  0  0  0  0  0  0  0  0  0
   12.1161  -18.2321   25.9583 O   0  0  0  0  0  0  0  0  0  0  0  0
  1  5  1  0
  1  2  1  0
  2  3  1  0
  4  3  1  0
  5  4  1  0
  5  6  1  1
  7  6  2  0
  8  9  1  0
  9 10  1  0
 11 10  1  0
 12 11  1  1
 12 13  1  0
 13  6  1  0
 14 12  1  0
 14 15  2  0
 17 16  1  0
 17 19  1  0
 18 17  2  0
 20 19  1  6
 20 21  1  0
 21 14  1  0
 22 20  1  0
 23 22  1  0
 24 22  2  0
M  END
$$$$
