NYK.pdb
     RDKit          3D

 30 30  0  0  1  0  0  0  0  0999 V2000
    8.6981  -20.3439   18.1576 N   0  0  0  0  0  0  0  0  0  0  0  0
    8.1018  -19.1093   18.5193 C   0  0  0  0  0  0  0  0  0  0  0  0
    7.2861  -18.5800   17.7270 O   0  0  0  0  0  0  0  0  0  0  0  0
    8.4593  -18.4911   19.8090 C   0  0  0  0  0  0  0  0  0  0  0  0
    8.7968  -17.0179   19.5762 C   0  0  2  0  0  0  0  0  0  0  0  0
    9.9661  -16.9298   18.7079 N   0  0  0  0  0  0  0  0  0  0  0  0
    9.0699  -16.3894   20.8994 C   0  0  0  0  0  0  0  0  0  0  0  0
   10.1675  -16.6034   21.4368 O   0  0  0  0  0  0  0  0  0  0  0  0
    7.3585  -11.7343   28.3663 O   0  0  0  0  0  0  0  0  0  0  0  0
    7.3345  -12.2757   27.0888 C   0  0  0  0  0  0  0  0  0  0  0  0
    6.2446  -13.0154   26.6802 C   0  0  0  0  0  0  0  0  0  0  0  0
    6.1792  -13.5697   25.4231 C   0  0  0  0  0  0  0  0  0  0  0  0
    7.2144  -13.4130   24.4927 C   0  0  0  0  0  0  0  0  0  0  0  0
    7.1435  -14.0278   23.1516 C   0  0  0  0  0  0  0  0  0  0  0  0
    8.3281  -14.9381   22.8410 C   0  0  2  0  0  0  0  0  0  0  0  0
    8.1329  -15.5742   21.5419 N   0  0  0  0  0  0  0  0  0  0  0  0
    8.3915  -15.9821   23.8740 C   0  0  0  0  0  0  0  0  0  0  0  0
    7.4442  -16.8245   24.0316 O   0  0  0  0  0  0  0  0  0  0  0  0
    8.2901  -12.6634   24.9441 C   0  0  0  0  0  0  0  0  0  0  0  0
    8.3685  -12.1044   26.1949 C   0  0  0  0  0  0  0  0  0  0  0  0
    9.4832  -16.1486   24.7691 N   0  0  0  0  0  0  0  0  0  0  0  0
    9.5084  -17.2197   25.7890 C   0  0  1  0  0  0  0  0  0  0  0  0
   10.3610  -18.3586   25.3149 C   0  0  0  0  0  0  0  0  0  0  0  0
   10.4978  -19.5158   26.2148 C   0  0  0  0  0  0  0  0  0  0  0  0
   11.3541  -20.6329   25.6925 C   0  0  0  0  0  0  0  0  0  0  0  0
   11.4659  -21.7776   26.6730 C   0  0  0  0  0  0  0  0  0  0  0  0
   12.2845  -22.8566   26.1688 N   0  0  0  0  0  0  0  0  0  0  0  0
   10.1029  -16.6873   27.0453 C   0  0  0  0  0  0  0  0  0  0  0  0
   10.8704  -15.6990   27.0957 O   0  0  0  0  0  0  0  0  0  0  0  0
    9.8041  -17.3064   28.2548 O   0  0  0  0  0  0  0  0  0  0  0  0
  2  3  2  0
  2  1  1  0
  4  5  1  0
  4  2  1  0
  5  7  1  0
  5  6  1  6
  7  8  2  0
  9 10  1  0
 10 11  2  0
 11 12  1  0
 13 14  1  0
 13 12  2  0
 15 14  1  1
 15 17  1  0
 16 15  1  0
 16  7  1  0
 17 18  2  0
 19 13  1  0
 20 19  2  0
 20 10  1  0
 21 17  1  0
 21 22  1  0
 22 28  1  0
 22 23  1  6
 24 23  1  0
 25 24  1  0
 26 25  1  0
 26 27  1  0
 28 29  2  0
 28 30  1  0
M  END
$$$$
