NYK.pdb
     RDKit          3D

 30 30  0  0  1  0  0  0  0  0999 V2000
   10.7346  -19.2545   17.2718 N   0  0  0  0  0  0  0  0  0  0  0  0
   11.9595  -18.9444   17.9153 C   0  0  0  0  0  0  0  0  0  0  0  0
   13.0235  -19.4080   17.4395 O   0  0  0  0  0  0  0  0  0  0  0  0
   11.9418  -18.0914   19.1176 C   0  0  0  0  0  0  0  0  0  0  0  0
   10.4895  -17.8034   19.4999 C   0  0  2  0  0  0  0  0  0  0  0  0
    9.8335  -17.1174   18.3916 N   0  0  0  0  0  0  0  0  0  0  0  0
   10.4914  -16.9530   20.7236 C   0  0  0  0  0  0  0  0  0  0  0  0
   11.5498  -16.3936   21.0494 O   0  0  0  0  0  0  0  0  0  0  0  0
    7.5298  -11.9764   17.9523 O   0  0  0  0  0  0  0  0  0  0  0  0
    7.6194  -12.7593   19.0946 C   0  0  0  0  0  0  0  0  0  0  0  0
    8.4521  -12.3734   20.1240 C   0  0  0  0  0  0  0  0  0  0  0  0
    8.5711  -13.1192   21.2737 C   0  0  0  0  0  0  0  0  0  0  0  0
    7.8543  -14.3081   21.4596 C   0  0  0  0  0  0  0  0  0  0  0  0
    8.0029  -15.1120   22.6898 C   0  0  0  0  0  0  0  0  0  0  0  0
    9.2750  -15.9544   22.7109 C   0  0  2  0  0  0  0  0  0  0  0  0
    9.3449  -16.7710   21.5032 N   0  0  0  0  0  0  0  0  0  0  0  0
    9.2207  -16.8434   23.8805 C   0  0  0  0  0  0  0  0  0  0  0  0
    8.3994  -17.8200   23.9398 O   0  0  0  0  0  0  0  0  0  0  0  0
    7.0301  -14.6590   20.4011 C   0  0  0  0  0  0  0  0  0  0  0  0
    6.9014  -13.9246   19.2490 C   0  0  0  0  0  0  0  0  0  0  0  0
   10.0548  -16.7045   25.0232 N   0  0  0  0  0  0  0  0  0  0  0  0
   10.1628  -17.7619   26.0519 C   0  0  1  0  0  0  0  0  0  0  0  0
   10.8424  -18.9686   25.4770 C   0  0  0  0  0  0  0  0  0  0  0  0
   12.2503  -18.8185   25.0734 C   0  0  0  0  0  0  0  0  0  0  0  0
   12.9059  -20.0705   24.5665 C   0  0  0  0  0  0  0  0  0  0  0  0
   14.3650  -19.8604   24.2335 C   0  0  0  0  0  0  0  0  0  0  0  0
   14.9851  -21.0516   23.6994 N   0  0  0  0  0  0  0  0  0  0  0  0
   10.9874  -17.2614   27.1854 C   0  0  0  0  0  0  0  0  0  0  0  0
   11.2161  -17.9137   28.2297 O   0  0  0  0  0  0  0  0  0  0  0  0
   11.5528  -15.9926   27.1069 O   0  0  0  0  0  0  0  0  0  0  0  0
  2  3  2  0
  2  1  1  0
  4  5  1  0
  4  2  1  0
  5  7  1  0
  5  6  1  6
  7  8  2  0
  9 10  1  0
 10 11  2  0
 11 12  1  0
 13 14  1  0
 13 12  2  0
 15 14  1  6
 15 17  1  0
 16 15  1  0
 16  7  1  0
 17 18  2  0
 19 13  1  0
 20 19  2  0
 20 10  1  0
 21 17  1  0
 21 22  1  0
 22 28  1  0
 22 23  1  6
 24 23  1  0
 25 24  1  0
 26 25  1  0
 26 27  1  0
 28 29  2  0
 28 30  1  0
M  END
$$$$
