NYK.pdb
     RDKit          3D

 30 30  0  0  1  0  0  0  0  0999 V2000
    9.9996  -16.5737   16.1061 N   0  0  0  0  0  0  0  0  0  0  0  0
   10.4331  -17.2839   17.2543 C   0  0  0  0  0  0  0  0  0  0  0  0
   10.6770  -18.5095   17.1474 O   0  0  0  0  0  0  0  0  0  0  0  0
   10.5814  -16.5610   18.5306 C   0  0  0  0  0  0  0  0  0  0  0  0
    9.5298  -17.0731   19.5157 C   0  0  2  0  0  0  0  0  0  0  0  0
    8.2048  -16.8966   18.9305 N   0  0  0  0  0  0  0  0  0  0  0  0
    9.6595  -16.2945   20.7796 C   0  0  0  0  0  0  0  0  0  0  0  0
   10.7925  -16.1378   21.2603 O   0  0  0  0  0  0  0  0  0  0  0  0
    7.0305  -11.6684   27.9965 O   0  0  0  0  0  0  0  0  0  0  0  0
    7.0719  -12.3509   26.7888 C   0  0  0  0  0  0  0  0  0  0  0  0
    7.7695  -11.8171   25.7256 C   0  0  0  0  0  0  0  0  0  0  0  0
    7.8367  -12.4598   24.5114 C   0  0  0  0  0  0  0  0  0  0  0  0
    7.2013  -13.6883   24.2905 C   0  0  0  0  0  0  0  0  0  0  0  0
    7.2635  -14.3618   22.9774 C   0  0  0  0  0  0  0  0  0  0  0  0
    8.5860  -15.0815   22.7297 C   0  0  2  0  0  0  0  0  0  0  0  0
    8.5509  -15.7422   21.4287 N   0  0  0  0  0  0  0  0  0  0  0  0
    8.7591  -16.1018   23.7737 C   0  0  0  0  0  0  0  0  0  0  0  0
    7.9603  -17.0931   23.8782 O   0  0  0  0  0  0  0  0  0  0  0  0
    6.5116  -14.1886   25.3845 C   0  0  0  0  0  0  0  0  0  0  0  0
    6.4365  -13.5586   26.6013 C   0  0  0  0  0  0  0  0  0  0  0  0
    9.8036  -16.0824   24.7379 N   0  0  0  0  0  0  0  0  0  0  0  0
    9.9750  -17.1621   25.7343 C   0  0  1  0  0  0  0  0  0  0  0  0
   11.3215  -17.8015   25.5706 C   0  0  0  0  0  0  0  0  0  0  0  0
   11.6900  -18.8492   26.5371 C   0  0  0  0  0  0  0  0  0  0  0  0
   13.0593  -19.4361   26.3510 C   0  0  0  0  0  0  0  0  0  0  0  0
   13.3682  -20.5081   27.3706 C   0  0  0  0  0  0  0  0  0  0  0  0
   14.6041  -21.2005   27.0846 N   0  0  0  0  0  0  0  0  0  0  0  0
    9.9003  -16.5829   27.1033 C   0  0  0  0  0  0  0  0  0  0  0  0
   10.1388  -15.3833   27.3728 O   0  0  0  0  0  0  0  0  0  0  0  0
    9.5451  -17.4023   28.1701 O   0  0  0  0  0  0  0  0  0  0  0  0
  2  3  2  0
  2  1  1  0
  4  5  1  0
  4  2  1  0
  5  7  1  0
  5  6  1  6
  7  8  2  0
  9 10  1  0
 10 11  2  0
 11 12  1  0
 13 14  1  0
 13 12  2  0
 15 14  1  1
 15 17  1  0
 16 15  1  0
 16  7  1  0
 17 18  2  0
 19 13  1  0
 20 19  2  0
 20 10  1  0
 21 17  1  0
 21 22  1  0
 22 28  1  0
 22 23  1  6
 24 23  1  0
 25 24  1  0
 26 25  1  0
 26 27  1  0
 28 29  2  0
 28 30  1  0
M  END
$$$$
