NYK.pdb
     RDKit          3D

 30 30  0  0  1  0  0  0  0  0999 V2000
   10.9833  -19.3202   18.8534 N   0  0  0  0  0  0  0  0  0  0  0  0
    9.8231  -18.6447   18.3970 C   0  0  0  0  0  0  0  0  0  0  0  0
    9.5239  -18.7168   17.1810 O   0  0  0  0  0  0  0  0  0  0  0  0
    9.0108  -17.8827   19.3628 C   0  0  0  0  0  0  0  0  0  0  0  0
    9.6372  -18.0156   20.7515 C   0  0  2  0  0  0  0  0  0  0  0  0
    8.6898  -18.6831   21.6381 N   0  0  0  0  0  0  0  0  0  0  0  0
    9.9569  -16.6480   21.2495 C   0  0  0  0  0  0  0  0  0  0  0  0
    9.8887  -15.7005   20.4514 O   0  0  0  0  0  0  0  0  0  0  0  0
    7.3076  -12.0567   18.9129 O   0  0  0  0  0  0  0  0  0  0  0  0
    7.4999  -12.9683   19.9414 C   0  0  0  0  0  0  0  0  0  0  0  0
    6.8455  -14.1818   19.9105 C   0  0  0  0  0  0  0  0  0  0  0  0
    7.0073  -15.1143   20.9086 C   0  0  0  0  0  0  0  0  0  0  0  0
    7.8438  -14.8813   22.0077 C   0  0  0  0  0  0  0  0  0  0  0  0
    7.9967  -15.8810   23.0841 C   0  0  0  0  0  0  0  0  0  0  0  0
    9.4185  -15.9670   23.6313 C   0  0  2  0  0  0  0  0  0  0  0  0
   10.3260  -16.4085   22.5768 N   0  0  0  0  0  0  0  0  0  0  0  0
    9.4365  -16.9584   24.7165 C   0  0  0  0  0  0  0  0  0  0  0  0
    8.3568  -17.4481   25.1921 O   0  0  0  0  0  0  0  0  0  0  0  0
    8.4815  -13.6500   21.9993 C   0  0  0  0  0  0  0  0  0  0  0  0
    8.3297  -12.7108   21.0104 C   0  0  0  0  0  0  0  0  0  0  0  0
   10.6243  -17.4526   25.3213 N   0  0  0  0  0  0  0  0  0  0  0  0
   10.6007  -18.5191   26.3460 C   0  0  1  0  0  0  0  0  0  0  0  0
   11.4002  -19.6979   25.8771 C   0  0  0  0  0  0  0  0  0  0  0  0
   11.1311  -20.1945   24.5175 C   0  0  0  0  0  0  0  0  0  0  0  0
   11.9464  -21.3839   24.0994 C   0  0  0  0  0  0  0  0  0  0  0  0
   11.6543  -21.8100   22.6791 C   0  0  0  0  0  0  0  0  0  0  0  0
   12.4430  -22.9508   22.2730 N   0  0  0  0  0  0  0  0  0  0  0  0
   11.2193  -18.0088   27.5999 C   0  0  0  0  0  0  0  0  0  0  0  0
   11.3004  -18.6673   28.6620 O   0  0  0  0  0  0  0  0  0  0  0  0
   11.7493  -16.7226   27.6222 O   0  0  0  0  0  0  0  0  0  0  0  0
  2  3  2  0
  2  1  1  0
  4  5  1  0
  4  2  1  0
  5  7  1  0
  5  6  1  1
  7  8  2  0
  9 10  1  0
 10 11  2  0
 11 12  1  0
 13 14  1  0
 13 12  2  0
 15 14  1  6
 15 17  1  0
 16 15  1  0
 16  7  1  0
 17 18  2  0
 19 13  1  0
 20 19  2  0
 20 10  1  0
 21 17  1  0
 21 22  1  0
 22 28  1  0
 22 23  1  6
 24 23  1  0
 25 24  1  0
 26 25  1  0
 26 27  1  0
 28 29  2  0
 28 30  1  0
M  END
$$$$
