NYK.pdb
     RDKit          3D

 30 30  0  0  1  0  0  0  0  0999 V2000
   10.5578  -18.7693   17.1863 N   0  0  0  0  0  0  0  0  0  0  0  0
    9.4129  -18.4347   17.9530 C   0  0  0  0  0  0  0  0  0  0  0  0
    8.2780  -18.6220   17.4529 O   0  0  0  0  0  0  0  0  0  0  0  0
    9.5939  -17.8795   19.3066 C   0  0  0  0  0  0  0  0  0  0  0  0
    9.0812  -16.4390   19.3244 C   0  0  2  0  0  0  0  0  0  0  0  0
    9.8186  -15.6599   18.3353 N   0  0  0  0  0  0  0  0  0  0  0  0
    9.2880  -15.8894   20.6940 C   0  0  0  0  0  0  0  0  0  0  0  0
   10.3721  -16.1060   21.2572 O   0  0  0  0  0  0  0  0  0  0  0  0
    7.0849  -11.9462   28.4408 O   0  0  0  0  0  0  0  0  0  0  0  0
    7.0865  -12.4235   27.1377 C   0  0  0  0  0  0  0  0  0  0  0  0
    7.9367  -11.8652   26.2064 C   0  0  0  0  0  0  0  0  0  0  0  0
    7.9712  -12.3077   24.9045 C   0  0  0  0  0  0  0  0  0  0  0  0
    7.1460  -13.3469   24.4561 C   0  0  0  0  0  0  0  0  0  0  0  0
    7.1767  -13.8026   23.0515 C   0  0  0  0  0  0  0  0  0  0  0  0
    8.4202  -14.6173   22.7077 C   0  0  2  0  0  0  0  0  0  0  0  0
    8.3042  -15.1444   21.3517 N   0  0  0  0  0  0  0  0  0  0  0  0
    8.5080  -15.7444   23.6474 C   0  0  0  0  0  0  0  0  0  0  0  0
    7.5910  -16.6312   23.7148 O   0  0  0  0  0  0  0  0  0  0  0  0
    6.3074  -13.8790   25.4238 C   0  0  0  0  0  0  0  0  0  0  0  0
    6.2628  -13.4479   26.7258 C   0  0  0  0  0  0  0  0  0  0  0  0
    9.5924  -15.9487   24.5437 N   0  0  0  0  0  0  0  0  0  0  0  0
    9.6217  -17.0776   25.4991 C   0  0  1  0  0  0  0  0  0  0  0  0
   10.6883  -18.0551   25.1046 C   0  0  0  0  0  0  0  0  0  0  0  0
   10.3796  -18.9767   23.9988 C   0  0  0  0  0  0  0  0  0  0  0  0
   11.4998  -19.8934   23.6003 C   0  0  0  0  0  0  0  0  0  0  0  0
   11.1054  -20.8299   22.4815 C   0  0  0  0  0  0  0  0  0  0  0  0
   12.2124  -21.6383   22.0239 N   0  0  0  0  0  0  0  0  0  0  0  0
    9.9446  -16.5625   26.8576 C   0  0  0  0  0  0  0  0  0  0  0  0
    9.9628  -17.2694   27.8912 O   0  0  0  0  0  0  0  0  0  0  0  0
   10.2499  -15.2148   27.0192 O   0  0  0  0  0  0  0  0  0  0  0  0
  2  3  2  0
  2  1  1  0
  4  5  1  0
  4  2  1  0
  5  7  1  0
  5  6  1  6
  7  8  2  0
  9 10  1  0
 10 11  2  0
 11 12  1  0
 13 14  1  0
 13 12  2  0
 15 14  1  1
 15 17  1  0
 16 15  1  0
 16  7  1  0
 17 18  2  0
 19 13  1  0
 20 19  2  0
 20 10  1  0
 21 17  1  0
 21 22  1  0
 22 28  1  0
 22 23  1  6
 24 23  1  0
 25 24  1  0
 26 25  1  0
 26 27  1  0
 28 29  2  0
 28 30  1  0
M  END
$$$$
