NYK.pdb
     RDKit          3D

 30 30  0  0  1  0  0  0  0  0999 V2000
    5.3749  -20.8776   20.0019 N   0  0  0  0  0  0  0  0  0  0  0  0
    6.7710  -21.1126   20.0819 C   0  0  0  0  0  0  0  0  0  0  0  0
    7.2441  -22.1263   19.5145 O   0  0  0  0  0  0  0  0  0  0  0  0
    7.6163  -20.1619   20.8268 C   0  0  0  0  0  0  0  0  0  0  0  0
    7.6062  -18.8157   20.1016 C   0  0  2  0  0  0  0  0  0  0  0  0
    7.9802  -19.0246   18.7067 N   0  0  0  0  0  0  0  0  0  0  0  0
    8.5783  -17.9144   20.7822 C   0  0  0  0  0  0  0  0  0  0  0  0
    9.7836  -18.0416   20.5171 O   0  0  0  0  0  0  0  0  0  0  0  0
    7.5844  -11.8337   17.6681 O   0  0  0  0  0  0  0  0  0  0  0  0
    7.8094  -12.5149   18.8560 C   0  0  0  0  0  0  0  0  0  0  0  0
    6.7903  -13.2476   19.4273 C   0  0  0  0  0  0  0  0  0  0  0  0
    6.9698  -13.9379   20.6034 C   0  0  0  0  0  0  0  0  0  0  0  0
    8.1950  -13.9334   21.2822 C   0  0  0  0  0  0  0  0  0  0  0  0
    8.3727  -14.6624   22.5544 C   0  0  0  0  0  0  0  0  0  0  0  0
    9.0644  -16.0120   22.3857 C   0  0  2  0  0  0  0  0  0  0  0  0
    8.1714  -16.9406   21.6996 N   0  0  0  0  0  0  0  0  0  0  0  0
    9.3665  -16.5462   23.7215 C   0  0  0  0  0  0  0  0  0  0  0  0
    8.4776  -17.1407   24.4202 O   0  0  0  0  0  0  0  0  0  0  0  0
    9.1912  -13.1848   20.6739 C   0  0  0  0  0  0  0  0  0  0  0  0
    9.0263  -12.4918   19.5010 C   0  0  0  0  0  0  0  0  0  0  0  0
   10.6415  -16.4551   24.3437 N   0  0  0  0  0  0  0  0  0  0  0  0
   11.1814  -17.5383   25.1940 C   0  0  1  0  0  0  0  0  0  0  0  0
   11.4715  -18.7493   24.3585 C   0  0  0  0  0  0  0  0  0  0  0  0
   10.4906  -19.8463   24.4016 C   0  0  0  0  0  0  0  0  0  0  0  0
   10.7639  -20.9843   23.4611 C   0  0  0  0  0  0  0  0  0  0  0  0
    9.6998  -22.0553   23.5308 C   0  0  0  0  0  0  0  0  0  0  0  0
    9.9506  -23.1414   22.6111 N   0  0  0  0  0  0  0  0  0  0  0  0
   12.4570  -17.0863   25.8136 C   0  0  0  0  0  0  0  0  0  0  0  0
   12.7985  -17.3483   26.9897 O   0  0  0  0  0  0  0  0  0  0  0  0
   13.3454  -16.3237   25.0621 O   0  0  0  0  0  0  0  0  0  0  0  0
  2  3  2  0
  2  1  1  0
  4  5  1  0
  4  2  1  0
  5  7  1  0
  5  6  1  6
  7  8  2  0
  9 10  1  0
 10 11  2  0
 11 12  1  0
 13 14  1  0
 13 12  2  0
 15 14  1  1
 15 17  1  0
 16 15  1  0
 16  7  1  0
 17 18  2  0
 19 13  1  0
 20 19  2  0
 20 10  1  0
 21 17  1  0
 21 22  1  0
 22 28  1  0
 22 23  1  6
 24 23  1  0
 25 24  1  0
 26 25  1  0
 26 27  1  0
 28 29  2  0
 28 30  1  0
M  END
$$$$
