NYK.pdb
     RDKit          3D

 30 30  0  0  1  0  0  0  0  0999 V2000
   11.8767  -18.8818   17.8478 N   0  0  0  0  0  0  0  0  0  0  0  0
   11.2182  -17.6280   17.7763 C   0  0  0  0  0  0  0  0  0  0  0  0
   10.6577  -17.3029   16.7023 O   0  0  0  0  0  0  0  0  0  0  0  0
   11.2147  -16.7516   18.9618 C   0  0  0  0  0  0  0  0  0  0  0  0
   10.0874  -17.1883   19.8981 C   0  0  2  0  0  0  0  0  0  0  0  0
    8.8153  -17.0846   19.1908 N   0  0  0  0  0  0  0  0  0  0  0  0
   10.1045  -16.2974   21.0925 C   0  0  0  0  0  0  0  0  0  0  0  0
   11.1869  -16.1055   21.6677 O   0  0  0  0  0  0  0  0  0  0  0  0
    6.7007  -11.6455   27.9432 O   0  0  0  0  0  0  0  0  0  0  0  0
    6.9097  -12.2625   26.7179 C   0  0  0  0  0  0  0  0  0  0  0  0
    6.2737  -13.4530   26.4348 C   0  0  0  0  0  0  0  0  0  0  0  0
    6.4521  -14.0982   25.2332 C   0  0  0  0  0  0  0  0  0  0  0  0
    7.2877  -13.5814   24.2350 C   0  0  0  0  0  0  0  0  0  0  0  0
    7.4877  -14.2910   22.9551 C   0  0  0  0  0  0  0  0  0  0  0  0
    8.8311  -15.0091   22.8660 C   0  0  2  0  0  0  0  0  0  0  0  0
    8.9464  -15.6794   21.5746 N   0  0  0  0  0  0  0  0  0  0  0  0
    8.8852  -16.0212   23.9307 C   0  0  0  0  0  0  0  0  0  0  0  0
    8.0953  -17.0251   23.9389 O   0  0  0  0  0  0  0  0  0  0  0  0
    7.9071  -12.3843   24.5607 C   0  0  0  0  0  0  0  0  0  0  0  0
    7.7381  -11.7297   25.7549 C   0  0  0  0  0  0  0  0  0  0  0  0
    9.7972  -15.9799   25.0204 N   0  0  0  0  0  0  0  0  0  0  0  0
    9.8780  -17.0666   26.0206 C   0  0  1  0  0  0  0  0  0  0  0  0
   11.0343  -17.9680   25.7057 C   0  0  0  0  0  0  0  0  0  0  0  0
   11.2540  -19.1167   26.5999 C   0  0  0  0  0  0  0  0  0  0  0  0
   12.4561  -19.9563   26.2769 C   0  0  0  0  0  0  0  0  0  0  0  0
   12.5566  -21.1791   27.1594 C   0  0  0  0  0  0  0  0  0  0  0  0
   13.7855  -21.9100   26.9499 N   0  0  0  0  0  0  0  0  0  0  0  0
   10.1035  -16.4771   27.3686 C   0  0  0  0  0  0  0  0  0  0  0  0
   10.6327  -15.3596   27.5672 O   0  0  0  0  0  0  0  0  0  0  0  0
    9.7111  -17.1901   28.4970 O   0  0  0  0  0  0  0  0  0  0  0  0
  2  3  2  0
  2  1  1  0
  4  5  1  0
  4  2  1  0
  5  7  1  0
  5  6  1  6
  7  8  2  0
  9 10  1  0
 10 11  2  0
 11 12  1  0
 13 14  1  0
 13 12  2  0
 15 14  1  6
 15 17  1  0
 16 15  1  0
 16  7  1  0
 17 18  2  0
 19 13  1  0
 20 19  2  0
 20 10  1  0
 21 17  1  0
 21 22  1  0
 22 28  1  0
 22 23  1  6
 24 23  1  0
 25 24  1  0
 26 25  1  0
 26 27  1  0
 28 29  2  0
 28 30  1  0
M  END
$$$$
