AFP.pdb
     RDKit          3D

 24 25  0  0  1  0  0  0  0  0999 V2000
   24.7060  -17.3156  -15.9668 C   0  0  0  0  0  0  0  0  0  0  0  0
   25.7889  -16.7909  -15.0335 C   0  0  2  0  0  0  0  0  0  0  0  0
   26.9125  -16.3577  -15.8547 N   0  0  0  0  0  0  0  0  0  0  0  0
   26.1774  -17.9133  -14.1389 C   0  0  0  0  0  0  0  0  0  0  0  0
   26.9582  -18.7654  -14.6024 O   0  0  0  0  0  0  0  0  0  0  0  0
   25.7107  -18.0417  -12.8346 N   0  0  0  0  0  0  0  0  0  0  0  0
   26.1688  -19.1139  -11.8983 C   0  0  1  0  0  0  0  0  0  0  0  0
   26.0603  -18.4188  -10.5613 C   0  0  0  0  0  0  0  0  0  0  0  0
   26.4375  -19.1447   -9.3769 C   0  0  0  0  0  0  0  0  0  0  0  0
   25.5463  -19.9249   -8.6839 C   0  0  0  0  0  0  0  0  0  0  0  0
   25.9230  -20.6229   -7.5344 C   0  0  0  0  0  0  0  0  0  0  0  0
   27.2125  -20.5419   -7.0662 C   0  0  0  0  0  0  0  0  0  0  0  0
   28.1320  -19.7606   -7.7485 C   0  0  0  0  0  0  0  0  0  0  0  0
   27.7446  -19.0762   -8.8838 C   0  0  0  0  0  0  0  0  0  0  0  0
   25.1633  -20.1785  -12.0477 C   0  0  0  0  0  0  0  0  0  0  0  0
   23.9174  -19.9099  -11.8761 O   0  0  0  0  0  0  0  0  0  0  0  0
   25.4563  -21.5274  -12.3820 N   0  0  0  0  0  0  0  0  0  0  0  0
   26.7327  -21.9753  -12.8320 C   0  0  0  0  0  0  0  0  0  0  0  0
   26.7745  -23.4189  -12.3846 C   0  0  0  0  0  0  0  0  0  0  0  0
   25.3351  -23.8628  -12.3766 C   0  0  0  0  0  0  0  0  0  0  0  0
   24.5224  -22.5876  -12.4212 C   0  0  1  0  0  0  0  0  0  0  0  0
   23.5199  -22.5983  -11.3168 C   0  0  0  0  0  0  0  0  0  0  0  0
   22.3618  -23.3388  -11.3107 O   0  0  0  0  0  0  0  0  0  0  0  0
   23.7999  -21.8445  -10.3226 O   0  0  0  0  0  0  0  0  0  0  0  0
  2  1  1  6
  2  4  1  0
  2  3  1  0
  4  5  2  0
  6  7  1  0
  6  4  1  0
  7 15  1  0
  8  9  1  0
  7  8  1  1
  9 10  2  0
 10 11  1  0
 12 11  2  0
 13 12  1  0
 14 13  2  0
 14  9  1  0
 15 17  1  0
 15 16  2  0
 17 21  1  0
 18 17  1  0
 19 20  1  0
 19 18  1  0
 20 21  1  0
 21 22  1  1
 22 24  2  0
 22 23  1  0
M  END
$$$$
