AFP.pdb
     RDKit          3D

 24 25  0  0  1  0  0  0  0  0999 V2000
   21.1643  -21.4398  -14.6835 C   0  0  0  0  0  0  0  0  0  0  0  0
   21.1258  -21.1722  -13.1849 C   0  0  2  0  0  0  0  0  0  0  0  0
   20.0025  -20.2818  -12.9205 N   0  0  0  0  0  0  0  0  0  0  0  0
   22.4175  -20.5316  -12.8212 C   0  0  0  0  0  0  0  0  0  0  0  0
   22.4520  -19.2869  -12.8126 O   0  0  0  0  0  0  0  0  0  0  0  0
   23.5605  -21.2561  -12.4983 N   0  0  0  0  0  0  0  0  0  0  0  0
   24.8364  -20.6217  -12.0448 C   0  0  1  0  0  0  0  0  0  0  0  0
   25.1724  -21.4484  -10.8258 C   0  0  0  0  0  0  0  0  0  0  0  0
   26.2193  -20.9889   -9.9512 C   0  0  0  0  0  0  0  0  0  0  0  0
   27.5162  -21.4197  -10.0759 C   0  0  0  0  0  0  0  0  0  0  0  0
   28.5235  -20.9689   -9.2199 C   0  0  0  0  0  0  0  0  0  0  0  0
   28.2329  -20.0716   -8.2203 C   0  0  0  0  0  0  0  0  0  0  0  0
   26.9303  -19.6210   -8.0736 C   0  0  0  0  0  0  0  0  0  0  0  0
   25.9450  -20.0759   -8.9278 C   0  0  0  0  0  0  0  0  0  0  0  0
   25.7756  -20.8669  -13.1514 C   0  0  0  0  0  0  0  0  0  0  0  0
   25.9593  -22.0654  -13.5803 O   0  0  0  0  0  0  0  0  0  0  0  0
   26.5227  -19.8592  -13.8173 N   0  0  0  0  0  0  0  0  0  0  0  0
   26.3916  -18.4651  -13.5497 C   0  0  0  0  0  0  0  0  0  0  0  0
   27.7538  -17.9117  -13.9018 C   0  0  0  0  0  0  0  0  0  0  0  0
   28.2822  -18.8352  -14.9681 C   0  0  0  0  0  0  0  0  0  0  0  0
   27.4118  -20.0703  -14.8956 C   0  0  1  0  0  0  0  0  0  0  0  0
   28.2756  -21.2813  -14.7850 C   0  0  0  0  0  0  0  0  0  0  0  0
   28.5781  -21.9292  -13.6110 O   0  0  0  0  0  0  0  0  0  0  0  0
   28.7505  -21.7119  -15.8914 O   0  0  0  0  0  0  0  0  0  0  0  0
  2  1  1  6
  2  4  1  0
  2  3  1  0
  4  5  2  0
  6  7  1  0
  6  4  1  0
  7 15  1  0
  8  9  1  0
  7  8  1  1
  9 10  2  0
 10 11  1  0
 12 11  2  0
 13 12  1  0
 14 13  2  0
 14  9  1  0
 15 17  1  0
 15 16  2  0
 17 21  1  0
 18 17  1  0
 19 20  1  0
 19 18  1  0
 20 21  1  0
 21 22  1  1
 22 24  2  0
 22 23  1  0
M  END
$$$$
