AFP.pdb
     RDKit          3D

 24 25  0  0  1  0  0  0  0  0999 V2000
   20.9307  -20.9426  -14.7187 C   0  0  0  0  0  0  0  0  0  0  0  0
   21.0874  -21.2494  -13.2353 C   0  0  2  0  0  0  0  0  0  0  0  0
   19.9364  -20.6864  -12.5405 N   0  0  0  0  0  0  0  0  0  0  0  0
   22.3525  -20.6093  -12.7871 C   0  0  0  0  0  0  0  0  0  0  0  0
   22.3358  -19.3761  -12.6156 O   0  0  0  0  0  0  0  0  0  0  0  0
   23.5252  -21.3223  -12.5584 N   0  0  0  0  0  0  0  0  0  0  0  0
   24.8124  -20.6802  -12.1502 C   0  0  1  0  0  0  0  0  0  0  0  0
   25.2111  -21.5235  -10.9618 C   0  0  0  0  0  0  0  0  0  0  0  0
   26.2868  -21.0639  -10.1230 C   0  0  0  0  0  0  0  0  0  0  0  0
   26.0709  -20.2516   -9.0383 C   0  0  0  0  0  0  0  0  0  0  0  0
   27.1229  -19.8097   -8.2329 C   0  0  0  0  0  0  0  0  0  0  0  0
   28.4149  -20.1844   -8.5137 C   0  0  0  0  0  0  0  0  0  0  0  0
   28.6594  -21.0048   -9.6038 C   0  0  0  0  0  0  0  0  0  0  0  0
   27.6089  -21.4336  -10.3910 C   0  0  0  0  0  0  0  0  0  0  0  0
   25.7047  -20.8951  -13.3009 C   0  0  0  0  0  0  0  0  0  0  0  0
   25.8178  -22.0699  -13.8117 O   0  0  0  0  0  0  0  0  0  0  0  0
   26.4787  -19.8811  -13.9254 N   0  0  0  0  0  0  0  0  0  0  0  0
   26.4193  -18.5024  -13.5678 C   0  0  0  0  0  0  0  0  0  0  0  0
   27.7952  -17.9884  -13.9263 C   0  0  0  0  0  0  0  0  0  0  0  0
   28.2510  -18.8648  -15.0635 C   0  0  0  0  0  0  0  0  0  0  0  0
   27.3270  -20.0624  -15.0414 C   0  0  1  0  0  0  0  0  0  0  0  0
   28.1370  -21.3149  -15.0325 C   0  0  0  0  0  0  0  0  0  0  0  0
   28.6911  -21.8874  -13.9123 O   0  0  0  0  0  0  0  0  0  0  0  0
   28.3045  -21.8607  -16.1767 O   0  0  0  0  0  0  0  0  0  0  0  0
  2  1  1  6
  2  4  1  0
  2  3  1  0
  4  5  2  0
  6  7  1  0
  6  4  1  0
  7 15  1  0
  8  9  1  0
  7  8  1  1
  9 10  2  0
 10 11  1  0
 12 11  2  0
 13 12  1  0
 14 13  2  0
 14  9  1  0
 15 17  1  0
 15 16  2  0
 17 21  1  0
 18 17  1  0
 19 20  1  0
 19 18  1  0
 20 21  1  0
 21 22  1  1
 22 24  2  0
 22 23  1  0
M  END
$$$$
