AFP.pdb
     RDKit          3D

 24 25  0  0  1  0  0  0  0  0999 V2000
   35.4473  -30.0139    4.7532 C   0  0  0  0  0  0  0  0  0  0  0  0
   34.3286  -29.1157    4.2426 C   0  0  2  0  0  0  0  0  0  0  0  0
   33.9687  -29.5698    2.9052 N   0  0  0  0  0  0  0  0  0  0  0  0
   34.8601  -27.7272    4.2146 C   0  0  0  0  0  0  0  0  0  0  0  0
   35.4921  -27.3810    3.1991 O   0  0  0  0  0  0  0  0  0  0  0  0
   34.6808  -26.8239    5.2574 N   0  0  0  0  0  0  0  0  0  0  0  0
   35.1298  -25.3988    5.1983 C   0  0  1  0  0  0  0  0  0  0  0  0
   33.8776  -24.6661    5.6194 C   0  0  0  0  0  0  0  0  0  0  0  0
   33.2960  -23.7180    4.7056 C   0  0  0  0  0  0  0  0  0  0  0  0
   32.6946  -24.1068    3.5351 C   0  0  0  0  0  0  0  0  0  0  0  0
   32.1358  -23.1776    2.6547 C   0  0  0  0  0  0  0  0  0  0  0  0
   32.1771  -21.8353    2.9463 C   0  0  0  0  0  0  0  0  0  0  0  0
   32.7789  -21.4169    4.1227 C   0  0  0  0  0  0  0  0  0  0  0  0
   33.3271  -22.3476    4.9834 C   0  0  0  0  0  0  0  0  0  0  0  0
   36.1878  -25.3103    6.2179 C   0  0  0  0  0  0  0  0  0  0  0  0
   35.9800  -25.7791    7.3972 O   0  0  0  0  0  0  0  0  0  0  0  0
   37.4693  -24.7356    6.0067 N   0  0  0  0  0  0  0  0  0  0  0  0
   38.0119  -24.4547    4.7187 C   0  0  0  0  0  0  0  0  0  0  0  0
   38.9471  -23.2954    4.9783 C   0  0  0  0  0  0  0  0  0  0  0  0
   39.3986  -23.4749    6.4041 C   0  0  0  0  0  0  0  0  0  0  0  0
   38.4236  -24.4591    7.0120 C   0  0  1  0  0  0  0  0  0  0  0  0
   37.8735  -23.8956    8.2788 C   0  0  0  0  0  0  0  0  0  0  0  0
   38.5334  -23.8753    9.4845 O   0  0  0  0  0  0  0  0  0  0  0  0
   36.6950  -23.4078    8.1888 O   0  0  0  0  0  0  0  0  0  0  0  0
  2  1  1  6
  2  4  1  0
  2  3  1  0
  4  5  2  0
  6  7  1  0
  6  4  1  0
  7 15  1  0
  8  9  1  0
  7  8  1  1
  9 10  2  0
 10 11  1  0
 12 11  2  0
 13 12  1  0
 14 13  2  0
 14  9  1  0
 15 17  1  0
 15 16  2  0
 17 21  1  0
 18 17  1  0
 19 20  1  0
 19 18  1  0
 20 21  1  0
 21 22  1  1
 22 24  2  0
 22 23  1  0
M  END
$$$$
