AFP.pdb
     RDKit          3D

 24 25  0  0  1  0  0  0  0  0999 V2000
-26131.3652-12690.268614960.5537 C   0  0  0  0  0  0  0  0  0  0  0  0
-26129.9531-12690.459014961.1172 C   0  0  2  0  0  0  0  0  0  0  0  0
-26129.4922-12691.789114960.7266 N   0  0  0  0  0  0  0  0  0  0  0  0
-26130.0547-12690.343814962.5918 C   0  0  0  0  0  0  0  0  0  0  0  0
-26130.2910-12691.388714963.2295 O   0  0  0  0  0  0  0  0  0  0  0  0
-26129.9023-12689.144514963.2764 N   0  0  0  0  0  0  0  0  0  0  0  0
-26129.7051-12687.824214962.6064 C   0  0  1  0  0  0  0  0  0  0  0  0
-26129.8047-12688.201214961.1494 C   0  0  0  0  0  0  0  0  0  0  0  0
-26129.1562-12687.363314960.1797 C   0  0  0  0  0  0  0  0  0  0  0  0
-26129.1328-12687.679714958.8398 C   0  0  0  0  0  0  0  0  0  0  0  0
-26128.4980-12686.856414957.9053 C   0  0  0  0  0  0  0  0  0  0  0  0
-26127.8652-12685.702114958.3115 C   0  0  0  0  0  0  0  0  0  0  0  0
-26127.8730-12685.371114959.6504 C   0  0  0  0  0  0  0  0  0  0  0  0
-26128.4980-12686.188514960.5684 C   0  0  0  0  0  0  0  0  0  0  0  0
-26130.8613-12687.023414963.0469 C   0  0  0  0  0  0  0  0  0  0  0  0
-26131.4902-12686.301814962.1914 O   0  0  0  0  0  0  0  0  0  0  0  0
-26131.3555-12686.977514964.3789 N   0  0  0  0  0  0  0  0  0  0  0  0
-26131.6445-12685.759814965.0674 C   0  0  0  0  0  0  0  0  0  0  0  0
-26132.7246-12686.163114966.0400 C   0  0  0  0  0  0  0  0  0  0  0  0
-26132.4648-12687.617214966.3223 C   0  0  0  0  0  0  0  0  0  0  0  0
-26131.5312-12688.075214965.2275 C   0  0  1  0  0  0  0  0  0  0  0  0
-26132.0957-12689.295914964.5811 C   0  0  0  0  0  0  0  0  0  0  0  0
-26131.3789-12690.427714964.2734 O   0  0  0  0  0  0  0  0  0  0  0  0
-26133.3398-12689.246114964.3047 O   0  0  0  0  0  0  0  0  0  0  0  0
  2  1  1  6
  2  4  1  0
  2  3  1  0
  4  5  2  0
  6  7  1  0
  6  4  1  0
  7 15  1  0
  8  9  1  0
  7  8  1  6
  9 10  2  0
 10 11  1  0
 12 11  2  0
 13 12  1  0
 14 13  2  0
 14  9  1  0
 15 17  1  0
 15 16  2  0
 17 21  1  0
 18 17  1  0
 19 20  1  0
 19 18  1  0
 20 21  1  0
 21 22  1  6
 22 24  2  0
 22 23  1  0
M  END
$$$$
