TID.pdb
     RDKit          3D

 24 23  0  0  1  0  0  0  0  0999 V2000
   28.7007  -18.3878  -15.8780 C   0  0  0  0  0  0  0  0  0  0  0  0
   27.4602  -19.1284  -15.4212 C   0  0  1  0  0  0  0  0  0  0  0  0
   26.5535  -19.2600  -16.4588 O   0  0  0  0  0  0  0  0  0  0  0  0
   27.8067  -20.4466  -14.7692 C   0  0  2  0  0  0  0  0  0  0  0  0
   28.3064  -21.3333  -15.7880 N   0  0  0  0  0  0  0  0  0  0  0  0
   26.6594  -21.0279  -14.0355 C   0  0  0  0  0  0  0  0  0  0  0  0
   26.0448  -21.9648  -14.5555 O   0  0  0  0  0  0  0  0  0  0  0  0
   26.9320  -20.6518   -8.7881 C   0  0  0  0  0  0  0  0  0  0  0  0
   26.5573  -21.1481  -10.1456 C   0  0  0  0  0  0  0  0  0  0  0  0
   25.2308  -20.5677  -10.6293 C   0  0  2  0  0  0  0  0  0  0  0  0
   24.1101  -20.8956   -9.7118 C   0  0  0  0  0  0  0  0  0  0  0  0
   25.0958  -20.9971  -12.0480 C   0  0  2  0  0  0  0  0  0  0  0  0
   26.2944  -20.5055  -12.7690 N   0  0  0  0  0  0  0  0  0  0  0  0
   23.8731  -20.5745  -12.7421 C   0  0  0  0  0  0  0  0  0  0  0  0
   23.5531  -19.3303  -12.8392 O   0  0  0  0  0  0  0  0  0  0  0  0
   22.9805  -21.4572  -13.3400 N   0  0  0  0  0  0  0  0  0  0  0  0
   21.7515  -20.9756  -14.0498 C   0  0  1  0  0  0  0  0  0  0  0  0
   21.5044  -22.0055  -15.1270 C   0  0  0  0  0  0  0  0  0  0  0  0
   20.2972  -21.8319  -15.9175 C   0  0  0  0  0  0  0  0  0  0  0  0
   19.5083  -20.9003  -15.7244 O   0  0  0  0  0  0  0  0  0  0  0  0
   20.6490  -20.9148  -13.0728 C   0  0  0  0  0  0  0  0  0  0  0  0
   20.7298  -21.5479  -11.8607 O   0  0  0  0  0  0  0  0  0  0  0  0
   20.0509  -22.7833  -16.9343 O   0  0  0  0  0  0  0  0  0  0  0  0
   19.6044  -20.2721  -13.3441 O   0  0  0  0  0  0  0  0  0  0  0  0
  2  1  1  6
  2  3  1  0
  4  2  1  0
  4  6  1  0
  4  5  1  6
  6  7  2  0
  8  9  1  0
  9 10  1  0
 10 12  1  0
 10 11  1  1
 12 14  1  0
 12 13  1  6
 13  6  1  0
 14 16  1  0
 14 15  2  0
 16 17  1  0
 17 21  1  0
 17 18  1  6
 19 18  1  0
 20 19  2  0
 21 24  2  0
 21 22  1  0
 23 19  1  0
M  END
$$$$
