TID.pdb
     RDKit          3D

 24 23  0  0  1  0  0  0  0  0999 V2000
   21.3208  -18.9575  -17.9217 C   0  0  0  0  0  0  0  0  0  0  0  0
   21.5940  -19.9108  -16.7761 C   0  0  1  0  0  0  0  0  0  0  0  0
   21.5350  -21.2261  -17.2034 O   0  0  0  0  0  0  0  0  0  0  0  0
   22.8874  -19.5770  -16.0699 C   0  0  2  0  0  0  0  0  0  0  0  0
   23.1018  -20.5591  -15.0387 N   0  0  0  0  0  0  0  0  0  0  0  0
   22.8948  -18.1957  -15.5367 C   0  0  0  0  0  0  0  0  0  0  0  0
   22.1591  -17.9324  -14.5799 O   0  0  0  0  0  0  0  0  0  0  0  0
   27.2964  -16.6561  -15.6272 C   0  0  0  0  0  0  0  0  0  0  0  0
   26.0243  -16.2905  -14.9363 C   0  0  0  0  0  0  0  0  0  0  0  0
   25.1671  -15.3379  -15.7658 C   0  0  2  0  0  0  0  0  0  0  0  0
   25.4297  -13.9151  -15.4309 C   0  0  0  0  0  0  0  0  0  0  0  0
   23.7677  -15.8235  -15.6200 C   0  0  2  0  0  0  0  0  0  0  0  0
   23.7340  -17.2167  -16.1262 N   0  0  0  0  0  0  0  0  0  0  0  0
   22.7282  -15.0178  -16.2725 C   0  0  0  0  0  0  0  0  0  0  0  0
   22.6958  -14.8741  -17.5524 O   0  0  0  0  0  0  0  0  0  0  0  0
   21.7154  -14.3600  -15.5834 N   0  0  0  0  0  0  0  0  0  0  0  0
   20.6780  -13.5454  -16.2951 C   0  0  1  0  0  0  0  0  0  0  0  0
   19.4853  -13.5519  -15.3679 C   0  0  0  0  0  0  0  0  0  0  0  0
   18.3650  -12.7113  -15.7559 C   0  0  0  0  0  0  0  0  0  0  0  0
   18.3621  -12.0546  -16.8029 O   0  0  0  0  0  0  0  0  0  0  0  0
   21.2178  -12.1889  -16.5000 C   0  0  0  0  0  0  0  0  0  0  0  0
   22.2767  -11.7207  -15.7678 O   0  0  0  0  0  0  0  0  0  0  0  0
   17.2571  -12.6691  -14.8780 O   0  0  0  0  0  0  0  0  0  0  0  0
   20.7049  -11.4326  -17.3619 O   0  0  0  0  0  0  0  0  0  0  0  0
  2  1  1  6
  2  3  1  0
  4  2  1  0
  4  6  1  0
  4  5  1  1
  6  7  2  0
  8  9  1  0
  9 10  1  0
 10 12  1  0
 10 11  1  1
 12 14  1  0
 12 13  1  6
 13  6  1  0
 14 16  1  0
 14 15  2  0
 16 17  1  0
 17 21  1  0
 17 18  1  1
 19 18  1  0
 20 19  2  0
 21 24  2  0
 21 22  1  0
 23 19  1  0
M  END
$$$$
