TID.pdb
     RDKit          3D

 24 23  0  0  1  0  0  0  0  0999 V2000
   17.6578  -11.3889  -19.7658 C   0  0  0  0  0  0  0  0  0  0  0  0
   18.2797  -10.7212  -18.5560 C   0  0  1  0  0  0  0  0  0  0  0  0
   17.4154   -9.7893  -18.0075 O   0  0  0  0  0  0  0  0  0  0  0  0
   18.7694  -11.7363  -17.5497 C   0  0  2  0  0  0  0  0  0  0  0  0
   17.6440  -12.5310  -17.1302 N   0  0  0  0  0  0  0  0  0  0  0  0
   19.4635  -11.1020  -16.4058 C   0  0  0  0  0  0  0  0  0  0  0  0
   18.7880  -10.7434  -15.4357 O   0  0  0  0  0  0  0  0  0  0  0  0
   23.7844  -13.2297  -14.7687 C   0  0  0  0  0  0  0  0  0  0  0  0
   22.5668  -12.3684  -14.8373 C   0  0  0  0  0  0  0  0  0  0  0  0
   22.9002  -10.9199  -15.1855 C   0  0  2  0  0  0  0  0  0  0  0  0
   23.8645  -10.3229  -14.2269 C   0  0  0  0  0  0  0  0  0  0  0  0
   21.5902  -10.2324  -15.3490 C   0  0  2  0  0  0  0  0  0  0  0  0
   20.8691  -10.9217  -16.4460 N   0  0  0  0  0  0  0  0  0  0  0  0
   21.6410   -8.7869  -15.6004 C   0  0  0  0  0  0  0  0  0  0  0  0
   22.1081   -8.3141  -16.7041 O   0  0  0  0  0  0  0  0  0  0  0  0
   21.1992   -7.8297  -14.6937 N   0  0  0  0  0  0  0  0  0  0  0  0
   21.3135   -6.3625  -14.9779 C   0  0  1  0  0  0  0  0  0  0  0  0
   19.8878   -5.8964  -15.1582 C   0  0  0  0  0  0  0  0  0  0  0  0
   19.6889   -4.4602  -15.2579 C   0  0  0  0  0  0  0  0  0  0  0  0
   18.8175   -3.8667  -14.6129 O   0  0  0  0  0  0  0  0  0  0  0  0
   21.9690   -5.7193  -13.8245 C   0  0  0  0  0  0  0  0  0  0  0  0
   22.5918   -4.5047  -13.9398 O   0  0  0  0  0  0  0  0  0  0  0  0
   20.5423   -3.7512  -16.1346 O   0  0  0  0  0  0  0  0  0  0  0  0
   21.9656   -6.2865  -12.7037 O   0  0  0  0  0  0  0  0  0  0  0  0
  2  1  1  6
  2  3  1  0
  4  2  1  0
  4  6  1  0
  4  5  1  1
  6  7  2  0
  8  9  1  0
  9 10  1  0
 10 12  1  0
 10 11  1  1
 12 14  1  0
 12 13  1  6
 13  6  1  0
 14 16  1  0
 14 15  2  0
 16 17  1  0
 17 21  1  0
 17 18  1  1
 19 18  1  0
 20 19  2  0
 21 24  2  0
 21 22  1  0
 23 19  1  0
M  END
$$$$
