TID.pdb
     RDKit          3D

 24 23  0  0  1  0  0  0  0  0999 V2000
   28.5379  -18.5897  -16.1766 C   0  0  0  0  0  0  0  0  0  0  0  0
   27.3438  -19.3315  -15.6108 C   0  0  1  0  0  0  0  0  0  0  0  0
   26.4320  -19.6328  -16.6078 O   0  0  0  0  0  0  0  0  0  0  0  0
   27.7673  -20.5424  -14.8125 C   0  0  2  0  0  0  0  0  0  0  0  0
   28.3311  -21.5052  -15.7230 N   0  0  0  0  0  0  0  0  0  0  0  0
   26.6526  -21.1088  -14.0193 C   0  0  0  0  0  0  0  0  0  0  0  0
   26.0928  -22.1271  -14.4385 O   0  0  0  0  0  0  0  0  0  0  0  0
   26.8582  -20.5552   -8.7838 C   0  0  0  0  0  0  0  0  0  0  0  0
   26.4771  -21.0873  -10.1258 C   0  0  0  0  0  0  0  0  0  0  0  0
   25.2041  -20.4404  -10.6657 C   0  0  2  0  0  0  0  0  0  0  0  0
   24.0482  -20.6365   -9.7542 C   0  0  0  0  0  0  0  0  0  0  0  0
   25.0606  -20.9359  -12.0619 C   0  0  2  0  0  0  0  0  0  0  0  0
   26.2558  -20.4806  -12.8119 N   0  0  0  0  0  0  0  0  0  0  0  0
   23.8346  -20.5444  -12.7684 C   0  0  0  0  0  0  0  0  0  0  0  0
   23.6242  -19.3229  -13.1200 O   0  0  0  0  0  0  0  0  0  0  0  0
   22.8233  -21.4351  -13.1111 N   0  0  0  0  0  0  0  0  0  0  0  0
   21.5354  -20.9693  -13.7199 C   0  0  1  0  0  0  0  0  0  0  0  0
   20.9646  -22.1965  -14.3911 C   0  0  0  0  0  0  0  0  0  0  0  0
   19.6085  -22.0783  -14.9004 C   0  0  0  0  0  0  0  0  0  0  0  0
   18.9500  -21.0379  -14.7935 O   0  0  0  0  0  0  0  0  0  0  0  0
   20.6675  -20.4710  -12.6373 C   0  0  0  0  0  0  0  0  0  0  0  0
   19.9224  -19.3308  -12.7834 O   0  0  0  0  0  0  0  0  0  0  0  0
   19.0573  -23.2159  -15.5343 O   0  0  0  0  0  0  0  0  0  0  0  0
   20.5999  -21.0950  -11.5492 O   0  0  0  0  0  0  0  0  0  0  0  0
  2  1  1  6
  2  3  1  0
  4  2  1  0
  4  6  1  0
  4  5  1  6
  6  7  2  0
  8  9  1  0
  9 10  1  0
 10 12  1  0
 10 11  1  1
 12 14  1  0
 12 13  1  6
 13  6  1  0
 14 16  1  0
 14 15  2  0
 16 17  1  0
 17 21  1  0
 17 18  1  1
 19 18  1  0
 20 19  2  0
 21 24  2  0
 21 22  1  0
 23 19  1  0
M  END
$$$$
