TID.pdb
     RDKit          3D

 24 23  0  0  1  0  0  0  0  0999 V2000
   17.6346   -8.5353  -18.0894 C   0  0  0  0  0  0  0  0  0  0  0  0
   16.8634   -9.5952  -17.3291 C   0  0  1  0  0  0  0  0  0  0  0  0
   15.8948  -10.1724  -18.1320 O   0  0  0  0  0  0  0  0  0  0  0  0
   17.7870  -10.6097  -16.6961 C   0  0  2  0  0  0  0  0  0  0  0  0
   16.9784  -11.6365  -16.0912 N   0  0  0  0  0  0  0  0  0  0  0  0
   18.7209   -9.9906  -15.7282 C   0  0  0  0  0  0  0  0  0  0  0  0
   18.2542   -9.4975  -14.6962 O   0  0  0  0  0  0  0  0  0  0  0  0
   23.2310  -12.3172  -14.7254 C   0  0  0  0  0  0  0  0  0  0  0  0
   22.0501  -11.4078  -14.6374 C   0  0  0  0  0  0  0  0  0  0  0  0
   22.3537  -10.0101  -15.1712 C   0  0  2  0  0  0  0  0  0  0  0  0
   23.5223   -9.3948  -14.4923 C   0  0  0  0  0  0  0  0  0  0  0  0
   21.0651   -9.2674  -15.1134 C   0  0  2  0  0  0  0  0  0  0  0  0
   20.1121   -9.9764  -16.0008 N   0  0  0  0  0  0  0  0  0  0  0  0
   21.1200   -7.8415  -15.4584 C   0  0  0  0  0  0  0  0  0  0  0  0
   21.3737   -7.4515  -16.6599 O   0  0  0  0  0  0  0  0  0  0  0  0
   20.9067   -6.8170  -14.5428 N   0  0  0  0  0  0  0  0  0  0  0  0
   21.0437   -5.3748  -14.9272 C   0  0  1  0  0  0  0  0  0  0  0  0
   19.6748   -4.7835  -14.6852 C   0  0  0  0  0  0  0  0  0  0  0  0
   19.5399   -3.3562  -14.9234 C   0  0  0  0  0  0  0  0  0  0  0  0
   20.4477   -2.5552  -14.6744 O   0  0  0  0  0  0  0  0  0  0  0  0
   22.0748   -4.7647  -14.0681 C   0  0  0  0  0  0  0  0  0  0  0  0
   22.8433   -3.7179  -14.5040 O   0  0  0  0  0  0  0  0  0  0  0  0
   18.3113   -2.9060  -15.4598 O   0  0  0  0  0  0  0  0  0  0  0  0
   22.2655   -5.2047  -12.9071 O   0  0  0  0  0  0  0  0  0  0  0  0
  2  1  1  6
  2  3  1  0
  4  2  1  0
  4  6  1  0
  4  5  1  1
  6  7  2  0
  8  9  1  0
  9 10  1  0
 10 12  1  0
 10 11  1  1
 12 14  1  0
 12 13  1  6
 13  6  1  0
 14 16  1  0
 14 15  2  0
 16 17  1  0
 17 21  1  0
 17 18  1  1
 19 18  1  0
 20 19  2  0
 21 24  2  0
 21 22  1  0
 23 19  1  0
M  END
$$$$
