TID.pdb
     RDKit          3D

 24 23  0  0  1  0  0  0  0  0999 V2000
   19.7619   -9.8283  -18.0628 C   0  0  0  0  0  0  0  0  0  0  0  0
   19.3570  -11.1446  -17.4308 C   0  0  1  0  0  0  0  0  0  0  0  0
   18.4619  -11.8253  -18.2379 O   0  0  0  0  0  0  0  0  0  0  0  0
   20.5615  -11.9753  -17.0536 C   0  0  2  0  0  0  0  0  0  0  0  0
   20.0953  -13.2561  -16.5888 N   0  0  0  0  0  0  0  0  0  0  0  0
   21.4201  -11.2970  -16.0560 C   0  0  0  0  0  0  0  0  0  0  0  0
   20.9866  -11.1570  -14.9077 O   0  0  0  0  0  0  0  0  0  0  0  0
   26.4502  -12.2636  -15.4858 C   0  0  0  0  0  0  0  0  0  0  0  0
   25.0625  -11.7439  -15.3028 C   0  0  0  0  0  0  0  0  0  0  0  0
   24.9267  -10.2874  -15.7393 C   0  0  2  0  0  0  0  0  0  0  0  0
   25.9311   -9.4119  -15.0834 C   0  0  0  0  0  0  0  0  0  0  0  0
   23.4923   -9.9402  -15.5455 C   0  0  2  0  0  0  0  0  0  0  0  0
   22.7042  -10.8288  -16.4328 N   0  0  0  0  0  0  0  0  0  0  0  0
   23.1263   -8.5367  -15.7726 C   0  0  0  0  0  0  0  0  0  0  0  0
   22.9674   -8.0692  -16.9627 O   0  0  0  0  0  0  0  0  0  0  0  0
   22.9233   -7.6166  -14.7500 N   0  0  0  0  0  0  0  0  0  0  0  0
   22.5764   -6.1864  -15.0336 C   0  0  1  0  0  0  0  0  0  0  0  0
   21.2071   -6.2445  -15.6693 C   0  0  0  0  0  0  0  0  0  0  0  0
   20.5361   -4.9707  -15.8677 C   0  0  0  0  0  0  0  0  0  0  0  0
   21.1114   -3.9875  -16.3473 O   0  0  0  0  0  0  0  0  0  0  0  0
   22.5673   -5.4521  -13.7553 C   0  0  0  0  0  0  0  0  0  0  0  0
   22.3331   -4.1033  -13.7052 O   0  0  0  0  0  0  0  0  0  0  0  0
   19.1767   -4.8926  -15.4860 O   0  0  0  0  0  0  0  0  0  0  0  0
   22.7785   -6.0635  -12.6785 O   0  0  0  0  0  0  0  0  0  0  0  0
  2  1  1  6
  2  3  1  0
  4  2  1  0
  4  6  1  0
  4  5  1  1
  6  7  2  0
  8  9  1  0
  9 10  1  0
 10 12  1  0
 10 11  1  1
 12 14  1  0
 12 13  1  6
 13  6  1  0
 14 16  1  0
 14 15  2  0
 16 17  1  0
 17 21  1  0
 17 18  1  1
 19 18  1  0
 20 19  2  0
 21 24  2  0
 21 22  1  0
 23 19  1  0
M  END
$$$$
