TID.pdb
     RDKit          3D

 24 23  0  0  1  0  0  0  0  0999 V2000
   26.6563  -19.0204  -16.4631 C   0  0  0  0  0  0  0  0  0  0  0  0
   27.3549  -20.3065  -16.8554 C   0  0  1  0  0  0  0  0  0  0  0  0
   28.3209  -20.0699  -17.8183 O   0  0  0  0  0  0  0  0  0  0  0  0
   27.8918  -21.0396  -15.6482 C   0  0  2  0  0  0  0  0  0  0  0  0
   28.6590  -22.1665  -16.1123 N   0  0  0  0  0  0  0  0  0  0  0  0
   26.8168  -21.4420  -14.7128 C   0  0  0  0  0  0  0  0  0  0  0  0
   26.0138  -22.3062  -15.0792 O   0  0  0  0  0  0  0  0  0  0  0  0
   27.9918  -21.0780   -9.6184 C   0  0  0  0  0  0  0  0  0  0  0  0
   27.3164  -21.5136  -10.8768 C   0  0  0  0  0  0  0  0  0  0  0  0
   26.0361  -20.7282  -11.1494 C   0  0  2  0  0  0  0  0  0  0  0  0
   25.0450  -20.8782  -10.0537 C   0  0  0  0  0  0  0  0  0  0  0  0
   25.6028  -21.1249  -12.5170 C   0  0  2  0  0  0  0  0  0  0  0  0
   26.7319  -20.8365  -13.4337 N   0  0  0  0  0  0  0  0  0  0  0  0
   24.3694  -20.5032  -13.0146 C   0  0  0  0  0  0  0  0  0  0  0  0
   24.4018  -19.4631  -13.7743 O   0  0  0  0  0  0  0  0  0  0  0  0
   23.0945  -20.9723  -12.7180 N   0  0  0  0  0  0  0  0  0  0  0  0
   21.8710  -20.3881  -13.3568 C   0  0  1  0  0  0  0  0  0  0  0  0
   22.0085  -20.7243  -14.8232 C   0  0  0  0  0  0  0  0  0  0  0  0
   20.8862  -20.3635  -15.6733 C   0  0  0  0  0  0  0  0  0  0  0  0
   19.8362  -19.8954  -15.2194 O   0  0  0  0  0  0  0  0  0  0  0  0
   20.6865  -21.0205  -12.7481 C   0  0  0  0  0  0  0  0  0  0  0  0
   19.5684  -20.2943  -12.4336 O   0  0  0  0  0  0  0  0  0  0  0  0
   21.0390  -20.5703  -17.0638 O   0  0  0  0  0  0  0  0  0  0  0  0
   20.6879  -22.2530  -12.5054 O   0  0  0  0  0  0  0  0  0  0  0  0
  2  1  1  1
  2  3  1  0
  4  2  1  0
  4  6  1  0
  4  5  1  6
  6  7  2  0
  8  9  1  0
  9 10  1  0
 10 12  1  0
 10 11  1  1
 12 14  1  0
 12 13  1  6
 13  6  1  0
 14 16  1  0
 14 15  2  0
 16 17  1  0
 17 21  1  0
 17 18  1  6
 19 18  1  0
 20 19  2  0
 21 24  2  0
 21 22  1  0
 23 19  1  0
M  END
$$$$
