TID.pdb
     RDKit          3D

 24 23  0  0  1  0  0  0  0  0999 V2000
   17.0986   -8.8923  -17.2969 C   0  0  0  0  0  0  0  0  0  0  0  0
   16.5678  -10.0588  -16.4885 C   0  0  1  0  0  0  0  0  0  0  0  0
   15.5363  -10.6947  -17.1577 O   0  0  0  0  0  0  0  0  0  0  0  0
   17.6747  -11.0015  -16.0775 C   0  0  2  0  0  0  0  0  0  0  0  0
   17.0806  -12.1170  -15.3872 N   0  0  0  0  0  0  0  0  0  0  0  0
   18.7115  -10.3277  -15.2631 C   0  0  0  0  0  0  0  0  0  0  0  0
   18.4292  -10.0053  -14.1045 O   0  0  0  0  0  0  0  0  0  0  0  0
   23.5052  -12.0311  -14.7651 C   0  0  0  0  0  0  0  0  0  0  0  0
   22.2346  -11.2567  -14.6411 C   0  0  0  0  0  0  0  0  0  0  0  0
   22.3194   -9.8914  -15.3187 C   0  0  2  0  0  0  0  0  0  0  0  0
   23.5198   -9.1291  -14.8908 C   0  0  0  0  0  0  0  0  0  0  0  0
   20.9938   -9.2502  -15.1016 C   0  0  2  0  0  0  0  0  0  0  0  0
   19.9892  -10.0698  -15.8208 N   0  0  0  0  0  0  0  0  0  0  0  0
   20.8804   -7.8408  -15.4965 C   0  0  0  0  0  0  0  0  0  0  0  0
   21.0529   -7.4708  -16.7186 O   0  0  0  0  0  0  0  0  0  0  0  0
   20.5832   -6.8120  -14.6095 N   0  0  0  0  0  0  0  0  0  0  0  0
   20.5576   -5.3782  -15.0451 C   0  0  1  0  0  0  0  0  0  0  0  0
   19.2555   -4.8375  -14.5024 C   0  0  0  0  0  0  0  0  0  0  0  0
   19.0016   -3.4247  -14.7300 C   0  0  0  0  0  0  0  0  0  0  0  0
   18.1076   -2.8096  -14.1385 O   0  0  0  0  0  0  0  0  0  0  0  0
   21.7295   -4.6987  -14.4633 C   0  0  0  0  0  0  0  0  0  0  0  0
   22.3431   -3.6543  -15.1030 O   0  0  0  0  0  0  0  0  0  0  0  0
   19.8277   -2.7651  -15.6693 O   0  0  0  0  0  0  0  0  0  0  0  0
   22.1883   -5.0756  -13.3564 O   0  0  0  0  0  0  0  0  0  0  0  0
  2  1  1  6
  2  3  1  0
  4  2  1  0
  4  6  1  0
  4  5  1  1
  6  7  2  0
  8  9  1  0
  9 10  1  0
 10 12  1  0
 10 11  1  1
 12 14  1  0
 12 13  1  6
 13  6  1  0
 14 16  1  0
 14 15  2  0
 16 17  1  0
 17 21  1  0
 17 18  1  1
 19 18  1  0
 20 19  2  0
 21 24  2  0
 21 22  1  0
 23 19  1  0
M  END
$$$$
