FVQ.pdb
     RDKit          3D

 28 28  0  0  1  0  0  0  0  0999 V2000
   37.3009   -1.4558   -5.0306 N   0  0  0  0  0  0  0  0  0  0  0  0
   37.7545   -2.8073   -5.1667 C   0  0  1  0  0  0  0  0  0  0  0  0
   36.8607   -3.7239   -4.3615 C   0  0  0  0  0  0  0  0  0  0  0  0
   36.9904   -3.5534   -2.8964 C   0  0  0  0  0  0  0  0  0  0  0  0
   38.0890   -3.8883   -2.1728 C   0  0  0  0  0  0  0  0  0  0  0  0
   38.1692   -3.7016   -0.7917 C   0  0  0  0  0  0  0  0  0  0  0  0
   37.0978   -3.1597   -0.1439 C   0  0  0  0  0  0  0  0  0  0  0  0
   35.9657   -2.8110   -0.8659 C   0  0  0  0  0  0  0  0  0  0  0  0
   35.8996   -2.9991   -2.2258 C   0  0  0  0  0  0  0  0  0  0  0  0
   37.6154   -3.2559   -6.5876 C   0  0  0  0  0  0  0  0  0  0  0  0
   36.5462   -3.0391   -7.1836 O   0  0  0  0  0  0  0  0  0  0  0  0
   39.0742   -3.6379  -10.9748 C   0  0  0  0  0  0  0  0  0  0  0  0
   38.8933   -3.1437   -9.5448 C   0  0  2  0  0  0  0  0  0  0  0  0
   39.9528   -2.1550   -9.1880 C   0  0  0  0  0  0  0  0  0  0  0  0
   38.7029   -4.2769   -8.6158 C   0  0  2  0  0  0  0  0  0  0  0  0
   38.6944   -3.9173   -7.2426 N   0  0  0  0  0  0  0  0  0  0  0  0
   39.5291   -5.4850   -8.8941 C   0  0  0  0  0  0  0  0  0  0  0  0
   40.7033   -5.6102   -8.4590 O   0  0  0  0  0  0  0  0  0  0  0  0
   38.0779  -11.1210  -11.9477 N   0  0  0  0  0  0  0  0  0  0  0  0
   39.4322  -11.2101  -11.4826 C   0  0  0  0  0  0  0  0  0  0  0  0
   39.9982  -12.3127  -11.7861 O   0  0  0  0  0  0  0  0  0  0  0  0
   40.0865  -10.1233  -10.7295 C   0  0  0  0  0  0  0  0  0  0  0  0
   39.2402   -8.9202  -10.5000 C   0  0  0  0  0  0  0  0  0  0  0  0
   39.8987   -7.7133   -9.9715 C   0  0  2  0  0  0  0  0  0  0  0  0
   39.0372   -6.5850   -9.6907 N   0  0  0  0  0  0  0  0  0  0  0  0
   41.1199   -7.3010  -10.7550 C   0  0  0  0  0  0  0  0  0  0  0  0
   42.3967   -7.7484  -10.4891 O   0  0  0  0  0  0  0  0  0  0  0  0
   40.9494   -6.5029  -11.6986 O   0  0  0  0  0  0  0  0  0  0  0  0
  2  1  1  6
  2 10  1  0
  2  3  1  0
  4  9  2  0
  4  3  1  0
  5  4  1  0
  6  7  1  0
  6  5  2  0
  7  8  2  0
  8  9  1  0
 10 11  2  0
 13 12  1  6
 14 13  1  0
 15 13  1  0
 15 16  1  1
 16 10  1  0
 17 18  2  0
 17 15  1  0
 19 20  1  0
 20 21  2  0
 22 20  1  0
 22 23  1  0
 24 23  1  6
 24 26  1  0
 24 25  1  0
 25 17  1  0
 26 27  1  0
 28 26  2  0
M  END
$$$$
