FVQ.pdb
     RDKit          3D

 28 28  0  0  1  0  0  0  0  0999 V2000
   27.2592  -16.1332  -18.7929 N   0  0  0  0  0  0  0  0  0  0  0  0
   27.4667  -17.2931  -17.9790 C   0  0  1  0  0  0  0  0  0  0  0  0
   28.7975  -17.1811  -17.2692 C   0  0  0  0  0  0  0  0  0  0  0  0
   29.9673  -17.4086  -18.1481 C   0  0  0  0  0  0  0  0  0  0  0  0
   30.2422  -18.5763  -18.7832 C   0  0  0  0  0  0  0  0  0  0  0  0
   31.3547  -18.7424  -19.6099 C   0  0  0  0  0  0  0  0  0  0  0  0
   32.1996  -17.6858  -19.7859 C   0  0  0  0  0  0  0  0  0  0  0  0
   31.9358  -16.4840  -19.1451 C   0  0  0  0  0  0  0  0  0  0  0  0
   30.8364  -16.3330  -18.3342 C   0  0  0  0  0  0  0  0  0  0  0  0
   26.4363  -17.3519  -16.8953 C   0  0  0  0  0  0  0  0  0  0  0  0
   25.7435  -16.3446  -16.6704 O   0  0  0  0  0  0  0  0  0  0  0  0
   22.9078  -19.3692  -15.5838 C   0  0  0  0  0  0  0  0  0  0  0  0
   23.9165  -18.2284  -15.5296 C   0  0  2  0  0  0  0  0  0  0  0  0
   23.8389  -17.3936  -16.7643 C   0  0  0  0  0  0  0  0  0  0  0  0
   25.2545  -18.7258  -15.1476 C   0  0  2  0  0  0  0  0  0  0  0  0
   26.2544  -18.5460  -16.1389 N   0  0  0  0  0  0  0  0  0  0  0  0
   25.2868  -20.0812  -14.5302 C   0  0  0  0  0  0  0  0  0  0  0  0
   24.6606  -21.0570  -15.0194 O   0  0  0  0  0  0  0  0  0  0  0  0
   23.4151  -19.7392   -9.5041 N   0  0  0  0  0  0  0  0  0  0  0  0
   24.1160  -20.9027   -9.0424 C   0  0  0  0  0  0  0  0  0  0  0  0
   23.5919  -21.4284   -8.0046 O   0  0  0  0  0  0  0  0  0  0  0  0
   25.3213  -21.4230   -9.7153 C   0  0  0  0  0  0  0  0  0  0  0  0
   25.7977  -20.6098  -10.8678 C   0  0  0  0  0  0  0  0  0  0  0  0
   25.3865  -21.0324  -12.2176 C   0  0  2  0  0  0  0  0  0  0  0  0
   26.0313  -20.3581  -13.3237 N   0  0  0  0  0  0  0  0  0  0  0  0
   23.8904  -21.0965  -12.3993 C   0  0  0  0  0  0  0  0  0  0  0  0
   23.1726  -22.2699  -12.4937 O   0  0  0  0  0  0  0  0  0  0  0  0
   23.2775  -20.0122  -12.4692 O   0  0  0  0  0  0  0  0  0  0  0  0
  2  1  1  6
  2 10  1  0
  2  3  1  0
  4  9  2  0
  4  3  1  0
  5  4  1  0
  6  7  1  0
  6  5  2  0
  7  8  2  0
  8  9  1  0
 10 11  2  0
 13 12  1  6
 14 13  1  0
 15 13  1  0
 15 16  1  6
 16 10  1  0
 17 18  2  0
 17 15  1  0
 19 20  1  0
 20 21  2  0
 22 20  1  0
 22 23  1  0
 24 23  1  1
 24 26  1  0
 24 25  1  0
 25 17  1  0
 26 27  1  0
 28 26  2  0
M  END
$$$$
