FVQ.pdb
     RDKit          3D

 28 28  0  0  1  0  0  0  0  0999 V2000
   26.4021  -23.3550  -15.0082 N   0  0  0  0  0  0  0  0  0  0  0  0
   25.0778  -23.4396  -15.5469 C   0  0  1  0  0  0  0  0  0  0  0  0
   24.6539  -24.8894  -15.6209 C   0  0  0  0  0  0  0  0  0  0  0  0
   25.4232  -25.6903  -16.6003 C   0  0  0  0  0  0  0  0  0  0  0  0
   25.2141  -25.6812  -17.9415 C   0  0  0  0  0  0  0  0  0  0  0  0
   25.9709  -26.4484  -18.8289 C   0  0  0  0  0  0  0  0  0  0  0  0
   26.9618  -27.2394  -18.3253 C   0  0  0  0  0  0  0  0  0  0  0  0
   27.1908  -27.2626  -16.9572 C   0  0  0  0  0  0  0  0  0  0  0  0
   26.4391  -26.5018  -16.0941 C   0  0  0  0  0  0  0  0  0  0  0  0
   24.1031  -22.7820  -14.6212 C   0  0  0  0  0  0  0  0  0  0  0  0
   24.4039  -22.6591  -13.4213 O   0  0  0  0  0  0  0  0  0  0  0  0
   22.8745  -19.3334  -14.8363 C   0  0  0  0  0  0  0  0  0  0  0  0
   21.6292  -20.2107  -14.8735 C   0  0  2  0  0  0  0  0  0  0  0  0
   20.4600  -19.4962  -14.2817 C   0  0  0  0  0  0  0  0  0  0  0  0
   21.9192  -21.5600  -14.3456 C   0  0  2  0  0  0  0  0  0  0  0  0
   22.8538  -22.3038  -15.1125 N   0  0  0  0  0  0  0  0  0  0  0  0
   20.7317  -22.3629  -13.9401 C   0  0  0  0  0  0  0  0  0  0  0  0
   20.0388  -23.0042  -14.7721 O   0  0  0  0  0  0  0  0  0  0  0  0
   18.9170  -24.6944   -8.1299 N   0  0  0  0  0  0  0  0  0  0  0  0
   17.9342  -25.1110   -9.0884 C   0  0  0  0  0  0  0  0  0  0  0  0
   17.0004  -25.8160   -8.5794 O   0  0  0  0  0  0  0  0  0  0  0  0
   18.0142  -24.7495  -10.5165 C   0  0  0  0  0  0  0  0  0  0  0  0
   19.1444  -23.8488  -10.8740 C   0  0  0  0  0  0  0  0  0  0  0  0
   19.1460  -23.2584  -12.2235 C   0  0  2  0  0  0  0  0  0  0  0  0
   20.2944  -22.4472  -12.5659 N   0  0  0  0  0  0  0  0  0  0  0  0
   17.8515  -22.5722  -12.5826 C   0  0  0  0  0  0  0  0  0  0  0  0
   16.7596  -23.2161  -13.1248 O   0  0  0  0  0  0  0  0  0  0  0  0
   17.7795  -21.3446  -12.3723 O   0  0  0  0  0  0  0  0  0  0  0  0
  2  1  1  1
  2 10  1  0
  2  3  1  0
  4  9  2  0
  4  3  1  0
  5  4  1  0
  6  7  1  0
  6  5  2  0
  7  8  2  0
  8  9  1  0
 10 11  2  0
 13 12  1  1
 14 13  1  0
 15 13  1  0
 15 16  1  6
 16 10  1  0
 17 18  2  0
 17 15  1  0
 19 20  1  0
 20 21  2  0
 22 20  1  0
 22 23  1  0
 24 23  1  1
 24 26  1  0
 24 25  1  0
 25 17  1  0
 26 27  1  0
 28 26  2  0
M  END
$$$$
