FVQ.pdb
     RDKit          3D

 28 28  0  0  1  0  0  0  0  0999 V2000
   28.3827  -20.9188   -9.0039 N   0  0  0  0  0  0  0  0  0  0  0  0
   26.9605  -20.8256   -8.8641 C   0  0  1  0  0  0  0  0  0  0  0  0
   26.6184  -19.6940   -7.9209 C   0  0  0  0  0  0  0  0  0  0  0  0
   27.2494  -19.8134   -6.5867 C   0  0  0  0  0  0  0  0  0  0  0  0
   26.8200  -20.6397   -5.5990 C   0  0  0  0  0  0  0  0  0  0  0  0
   27.4526  -20.7247   -4.3574 C   0  0  0  0  0  0  0  0  0  0  0  0
   28.5478  -19.9441   -4.1291 C   0  0  0  0  0  0  0  0  0  0  0  0
   29.0019  -19.0929   -5.1261 C   0  0  0  0  0  0  0  0  0  0  0  0
   28.3706  -19.0191   -6.3447 C   0  0  0  0  0  0  0  0  0  0  0  0
   26.3378  -20.4593  -10.1746 C   0  0  0  0  0  0  0  0  0  0  0  0
   26.5739  -19.3391  -10.6592 O   0  0  0  0  0  0  0  0  0  0  0  0
   27.1717  -21.7294  -13.1248 C   0  0  0  0  0  0  0  0  0  0  0  0
   25.6644  -21.9307  -13.2215 C   0  0  2  0  0  0  0  0  0  0  0  0
   25.1889  -21.7089  -14.6187 C   0  0  0  0  0  0  0  0  0  0  0  0
   24.9637  -21.1848  -12.1556 C   0  0  2  0  0  0  0  0  0  0  0  0
   25.4917  -21.3838  -10.8531 N   0  0  0  0  0  0  0  0  0  0  0  0
   23.4758  -21.2490  -12.1946 C   0  0  0  0  0  0  0  0  0  0  0  0
   22.8233  -22.1026  -11.5395 O   0  0  0  0  0  0  0  0  0  0  0  0
   18.8430  -20.2585  -10.0059 N   0  0  0  0  0  0  0  0  0  0  0  0
   18.1917  -20.0522  -11.2674 C   0  0  0  0  0  0  0  0  0  0  0  0
   16.9224  -20.1669  -11.2044 O   0  0  0  0  0  0  0  0  0  0  0  0
   18.9345  -19.7397  -12.5031 C   0  0  0  0  0  0  0  0  0  0  0  0
   20.4091  -19.6210  -12.3365 C   0  0  0  0  0  0  0  0  0  0  0  0
   21.2599  -20.5378  -13.1146 C   0  0  2  0  0  0  0  0  0  0  0  0
   22.6886  -20.3410  -12.9961 N   0  0  0  0  0  0  0  0  0  0  0  0
   20.8340  -20.6788  -14.5548 C   0  0  0  0  0  0  0  0  0  0  0  0
   19.8106  -21.4981  -14.9818 O   0  0  0  0  0  0  0  0  0  0  0  0
   21.4571  -20.0079  -15.4020 O   0  0  0  0  0  0  0  0  0  0  0  0
  2  1  1  6
  2 10  1  0
  2  3  1  0
  4  9  2  0
  4  3  1  0
  5  4  1  0
  6  7  1  0
  6  5  2  0
  7  8  2  0
  8  9  1  0
 10 11  2  0
 13 12  1  6
 14 13  1  0
 15 13  1  0
 15 16  1  1
 16 10  1  0
 17 18  2  0
 17 15  1  0
 19 20  1  0
 20 21  2  0
 22 20  1  0
 22 23  1  0
 24 23  1  6
 24 26  1  0
 24 25  1  0
 25 17  1  0
 26 27  1  0
 28 26  2  0
M  END
$$$$
