FVQ.pdb
     RDKit          3D

 28 28  0  0  1  0  0  0  0  0999 V2000
   24.5232  -19.9203   -9.5168 N   0  0  0  0  0  0  0  0  0  0  0  0
   25.7854  -20.0102  -10.1873 C   0  0  1  0  0  0  0  0  0  0  0  0
   26.6943  -20.9520   -9.4296 C   0  0  0  0  0  0  0  0  0  0  0  0
   27.1243  -20.4381   -8.1091 C   0  0  0  0  0  0  0  0  0  0  0  0
   28.1650  -19.5895   -7.9107 C   0  0  0  0  0  0  0  0  0  0  0  0
   28.5295  -19.1244   -6.6460 C   0  0  0  0  0  0  0  0  0  0  0  0
   27.8083  -19.5411   -5.5655 C   0  0  0  0  0  0  0  0  0  0  0  0
   26.7411  -20.4086   -5.7477 C   0  0  0  0  0  0  0  0  0  0  0  0
   26.3918  -20.8587   -6.9985 C   0  0  0  0  0  0  0  0  0  0  0  0
   25.6065  -20.6249  -11.5399 C   0  0  0  0  0  0  0  0  0  0  0  0
   24.5320  -21.1912  -11.8047 O   0  0  0  0  0  0  0  0  0  0  0  0
   28.8284  -20.3886  -14.5750 C   0  0  0  0  0  0  0  0  0  0  0  0
   27.5513  -19.5583  -14.5386 C   0  0  2  0  0  0  0  0  0  0  0  0
   27.8263  -18.1860  -14.0201 C   0  0  0  0  0  0  0  0  0  0  0  0
   26.4549  -20.3060  -13.8888 C   0  0  2  0  0  0  0  0  0  0  0  0
   26.6523  -20.5567  -12.5057 N   0  0  0  0  0  0  0  0  0  0  0  0
   25.9605  -21.4999  -14.6301 C   0  0  0  0  0  0  0  0  0  0  0  0
   25.9958  -22.6577  -14.1383 O   0  0  0  0  0  0  0  0  0  0  0  0
   20.5367  -23.2346  -13.4679 N   0  0  0  0  0  0  0  0  0  0  0  0
   21.4993  -23.7297  -14.4093 C   0  0  0  0  0  0  0  0  0  0  0  0
   21.0340  -24.6366  -15.1769 O   0  0  0  0  0  0  0  0  0  0  0  0
   22.8850  -23.2268  -14.4673 C   0  0  0  0  0  0  0  0  0  0  0  0
   23.1026  -22.0921  -15.4061 C   0  0  0  0  0  0  0  0  0  0  0  0
   24.2497  -22.1778  -16.3262 C   0  0  2  0  0  0  0  0  0  0  0  0
   25.4186  -21.4046  -15.9657 N   0  0  0  0  0  0  0  0  0  0  0  0
   23.8765  -21.9820  -17.7746 C   0  0  0  0  0  0  0  0  0  0  0  0
   23.5200  -23.0059  -18.6264 O   0  0  0  0  0  0  0  0  0  0  0  0
   23.8983  -20.8156  -18.2163 O   0  0  0  0  0  0  0  0  0  0  0  0
  2  1  1  1
  2 10  1  0
  2  3  1  0
  4  9  2  0
  4  3  1  0
  5  4  1  0
  6  7  1  0
  6  5  2  0
  7  8  2  0
  8  9  1  0
 10 11  2  0
 13 12  1  1
 14 13  1  0
 15 13  1  0
 15 16  1  1
 16 10  1  0
 17 18  2  0
 17 15  1  0
 19 20  1  0
 20 21  2  0
 22 20  1  0
 22 23  1  0
 24 23  1  1
 24 26  1  0
 24 25  1  0
 25 17  1  0
 26 27  1  0
 28 26  2  0
M  END
$$$$
