FVQ.pdb
     RDKit          3D

 28 28  0  0  1  0  0  0  0  0999 V2000
   29.1526  -13.2260  -18.2399 N   0  0  0  0  0  0  0  0  0  0  0  0
   28.8797  -12.1619  -17.3212 C   0  0  1  0  0  0  0  0  0  0  0  0
   29.5242  -10.8873  -17.8184 C   0  0  0  0  0  0  0  0  0  0  0  0
   30.9809  -11.0048  -18.0566 C   0  0  0  0  0  0  0  0  0  0  0  0
   31.7882  -11.9274  -17.4739 C   0  0  0  0  0  0  0  0  0  0  0  0
   33.1572  -12.0056  -17.7354 C   0  0  0  0  0  0  0  0  0  0  0  0
   33.7048  -11.1169  -18.6138 C   0  0  0  0  0  0  0  0  0  0  0  0
   32.8962  -10.1662  -19.2195 C   0  0  0  0  0  0  0  0  0  0  0  0
   31.5493  -10.1002  -18.9542 C   0  0  0  0  0  0  0  0  0  0  0  0
   27.4104  -11.8809  -17.2814 C   0  0  0  0  0  0  0  0  0  0  0  0
   26.6175  -12.7860  -17.5936 O   0  0  0  0  0  0  0  0  0  0  0  0
   25.1580  -12.6356  -15.8128 C   0  0  0  0  0  0  0  0  0  0  0  0
   25.0445  -11.1588  -15.4552 C   0  0  2  0  0  0  0  0  0  0  0  0
   23.6687  -10.8340  -14.9763 C   0  0  0  0  0  0  0  0  0  0  0  0
   25.5881  -10.3114  -16.5368 C   0  0  2  0  0  0  0  0  0  0  0  0
   26.9334  -10.5968  -16.8885 N   0  0  0  0  0  0  0  0  0  0  0  0
   25.3189   -8.8516  -16.4096 C   0  0  0  0  0  0  0  0  0  0  0  0
   25.8481   -8.1470  -15.5113 O   0  0  0  0  0  0  0  0  0  0  0  0
   23.9540   -4.4489  -20.8643 N   0  0  0  0  0  0  0  0  0  0  0  0
   23.8169   -3.7805  -19.6023 C   0  0  0  0  0  0  0  0  0  0  0  0
   23.6037   -2.5276  -19.7157 O   0  0  0  0  0  0  0  0  0  0  0  0
   23.9162   -4.4901  -18.3127 C   0  0  0  0  0  0  0  0  0  0  0  0
   24.0980   -5.9639  -18.4191 C   0  0  0  0  0  0  0  0  0  0  0  0
   24.2348   -6.7269  -17.1666 C   0  0  2  0  0  0  0  0  0  0  0  0
   24.4241   -8.1548  -17.3043 N   0  0  0  0  0  0  0  0  0  0  0  0
   23.1753   -6.4009  -16.1436 C   0  0  0  0  0  0  0  0  0  0  0  0
   23.2128   -5.2991  -15.3156 O   0  0  0  0  0  0  0  0  0  0  0  0
   22.2116   -7.1876  -16.0503 O   0  0  0  0  0  0  0  0  0  0  0  0
  2  1  1  6
  2 10  1  0
  2  3  1  0
  4  9  2  0
  4  3  1  0
  5  4  1  0
  6  7  1  0
  6  5  2  0
  7  8  2  0
  8  9  1  0
 10 11  2  0
 13 12  1  6
 14 13  1  0
 15 13  1  0
 15 16  1  1
 16 10  1  0
 17 18  2  0
 17 15  1  0
 19 20  1  0
 20 21  2  0
 22 20  1  0
 22 23  1  0
 24 23  1  6
 24 26  1  0
 24 25  1  0
 25 17  1  0
 26 27  1  0
 28 26  2  0
M  END
$$$$
