FVQ.pdb
     RDKit          3D

 28 28  0  0  1  0  0  0  0  0999 V2000
   28.3592  -21.0557   -9.1594 N   0  0  0  0  0  0  0  0  0  0  0  0
   26.9608  -20.8091   -8.9732 C   0  0  1  0  0  0  0  0  0  0  0  0
   26.7747  -19.5913   -8.0961 C   0  0  0  0  0  0  0  0  0  0  0  0
   27.4287  -19.6998   -6.7721 C   0  0  0  0  0  0  0  0  0  0  0  0
   28.6103  -19.1184   -6.4429 C   0  0  0  0  0  0  0  0  0  0  0  0
   29.1858  -19.2418   -5.1771 C   0  0  0  0  0  0  0  0  0  0  0  0
   28.5319  -19.9778   -4.2327 C   0  0  0  0  0  0  0  0  0  0  0  0
   27.3231  -20.5802   -4.5500 C   0  0  0  0  0  0  0  0  0  0  0  0
   26.7665  -20.4502   -5.7999 C   0  0  0  0  0  0  0  0  0  0  0  0
   26.3208  -20.4646  -10.2813 C   0  0  0  0  0  0  0  0  0  0  0  0
   26.7290  -19.4703  -10.9059 O   0  0  0  0  0  0  0  0  0  0  0  0
   24.6981  -23.3267  -12.9508 C   0  0  0  0  0  0  0  0  0  0  0  0
   25.0876  -21.8678  -13.1544 C   0  0  2  0  0  0  0  0  0  0  0  0
   26.5336  -21.7495  -13.5051 C   0  0  0  0  0  0  0  0  0  0  0  0
   24.6057  -21.0325  -12.0348 C   0  0  2  0  0  0  0  0  0  0  0  0
   25.2636  -21.2678  -10.7992 N   0  0  0  0  0  0  0  0  0  0  0  0
   23.1259  -20.9332  -11.8945 C   0  0  0  0  0  0  0  0  0  0  0  0
   22.5137  -21.3943  -10.8964 O   0  0  0  0  0  0  0  0  0  0  0  0
   18.8315  -16.8634  -13.9195 N   0  0  0  0  0  0  0  0  0  0  0  0
   18.1436  -17.7297  -13.0061 C   0  0  0  0  0  0  0  0  0  0  0  0
   16.9000  -17.4649  -12.8994 O   0  0  0  0  0  0  0  0  0  0  0  0
   18.8253  -18.8130  -12.2725 C   0  0  0  0  0  0  0  0  0  0  0  0
   20.2918  -18.9071  -12.5113 C   0  0  0  0  0  0  0  0  0  0  0  0
   20.8648  -20.2480  -12.7196 C   0  0  2  0  0  0  0  0  0  0  0  0
   22.2990  -20.3101  -12.9018 N   0  0  0  0  0  0  0  0  0  0  0  0
   20.1348  -21.0603  -13.7601 C   0  0  0  0  0  0  0  0  0  0  0  0
   18.9254  -21.6862  -13.5441 O   0  0  0  0  0  0  0  0  0  0  0  0
   20.6718  -21.1656  -14.8812 O   0  0  0  0  0  0  0  0  0  0  0  0
  2  1  1  6
  2 10  1  0
  2  3  1  0
  4  9  2  0
  4  3  1  0
  5  4  1  0
  6  7  1  0
  6  5  2  0
  7  8  2  0
  8  9  1  0
 10 11  2  0
 13 12  1  1
 14 13  1  0
 15 13  1  0
 15 16  1  1
 16 10  1  0
 17 18  2  0
 17 15  1  0
 19 20  1  0
 20 21  2  0
 22 20  1  0
 22 23  1  0
 24 23  1  6
 24 26  1  0
 24 25  1  0
 25 17  1  0
 26 27  1  0
 28 26  2  0
M  END
$$$$
