FVQ.pdb
     RDKit          3D

 28 28  0  0  1  0  0  0  0  0999 V2000
   25.2070  -12.6280  -15.9567 N   0  0  0  0  0  0  0  0  0  0  0  0
   24.4917  -11.6334  -15.2150 C   0  0  1  0  0  0  0  0  0  0  0  0
   25.4693  -10.6387  -14.6302 C   0  0  0  0  0  0  0  0  0  0  0  0
   26.3524  -10.0036  -15.6348 C   0  0  0  0  0  0  0  0  0  0  0  0
   26.0921   -8.8273  -16.2603 C   0  0  0  0  0  0  0  0  0  0  0  0
   26.9596   -8.2619  -17.1965 C   0  0  0  0  0  0  0  0  0  0  0  0
   28.1168   -8.9203  -17.4939 C   0  0  0  0  0  0  0  0  0  0  0  0
   28.4006  -10.1241  -16.8654 C   0  0  0  0  0  0  0  0  0  0  0  0
   27.5385  -10.6700  -15.9446 C   0  0  0  0  0  0  0  0  0  0  0  0
   23.6121  -10.8421  -16.1313 C   0  0  0  0  0  0  0  0  0  0  0  0
   23.8076  -10.9090  -17.3572 O   0  0  0  0  0  0  0  0  0  0  0  0
   19.5526  -10.2086  -15.3034 C   0  0  0  0  0  0  0  0  0  0  0  0
   20.3453  -10.0999  -16.6002 C   0  0  2  0  0  0  0  0  0  0  0  0
   20.4637  -11.4324  -17.2620 C   0  0  0  0  0  0  0  0  0  0  0  0
   21.6008   -9.3499  -16.3890 C   0  0  2  0  0  0  0  0  0  0  0  0
   22.5675  -10.0296  -15.6026 N   0  0  0  0  0  0  0  0  0  0  0  0
   21.4407   -7.9198  -16.0033 C   0  0  0  0  0  0  0  0  0  0  0  0
   21.7856   -7.4865  -14.8733 O   0  0  0  0  0  0  0  0  0  0  0  0
   22.9219   -2.5453  -18.6572 N   0  0  0  0  0  0  0  0  0  0  0  0
   22.1290   -2.1659  -17.5234 C   0  0  0  0  0  0  0  0  0  0  0  0
   22.1486   -0.9113  -17.2913 O   0  0  0  0  0  0  0  0  0  0  0  0
   21.3737   -3.1450  -16.7188 C   0  0  0  0  0  0  0  0  0  0  0  0
   21.4881   -4.5567  -17.1778 C   0  0  0  0  0  0  0  0  0  0  0  0
   20.6999   -5.5735  -16.4605 C   0  0  2  0  0  0  0  0  0  0  0  0
   20.8692   -6.9418  -16.8998 N   0  0  0  0  0  0  0  0  0  0  0  0
   19.2431   -5.2119  -16.3112 C   0  0  0  0  0  0  0  0  0  0  0  0
   18.7378   -4.4471  -15.2813 O   0  0  0  0  0  0  0  0  0  0  0  0
   18.4573   -5.6404  -17.1803 O   0  0  0  0  0  0  0  0  0  0  0  0
  2  1  1  6
  2 10  1  0
  2  3  1  0
  4  9  2  0
  4  3  1  0
  5  4  1  0
  6  7  1  0
  6  5  2  0
  7  8  2  0
  8  9  1  0
 10 11  2  0
 13 12  1  1
 14 13  1  0
 15 13  1  0
 15 16  1  1
 16 10  1  0
 17 18  2  0
 17 15  1  0
 19 20  1  0
 20 21  2  0
 22 20  1  0
 22 23  1  0
 24 23  1  6
 24 26  1  0
 24 25  1  0
 25 17  1  0
 26 27  1  0
 28 26  2  0
M  END
$$$$
