SPT.pdb
     RDKit          3D

 21 21  0  0  1  0  0  0  0  0999 V2000
    8.3094  -17.6659   17.3939 O   0  0  0  0  0  0  0  0  0  0  0  0
    7.7413  -16.6682   16.5804 C   0  0  0  0  0  0  0  0  0  0  0  0
    8.7269  -15.5085   16.4872 C   0  0  2  0  0  0  0  0  0  0  0  0
    9.8010  -15.9721   15.5738 N   0  0  0  0  0  0  0  0  0  0  0  0
    9.3552  -15.2108   17.7950 C   0  0  0  0  0  0  0  0  0  0  0  0
   10.4473  -15.8274   18.0423 O   0  0  0  0  0  0  0  0  0  0  0  0
    8.8090  -14.3050   18.7357 N   0  0  0  0  0  0  0  0  0  0  0  0
    7.5765  -13.5941   18.5209 C   0  0  0  0  0  0  0  0  0  0  0  0
    7.1579  -13.1020   19.8576 C   0  0  0  0  0  0  0  0  0  0  0  0
    8.5113  -12.7428   20.4736 C   0  0  0  0  0  0  0  0  0  0  0  0
    9.3471  -13.9332   19.9961 C   0  0  1  0  0  0  0  0  0  0  0  0
    9.3060  -15.0242   21.0065 C   0  0  0  0  0  0  0  0  0  0  0  0
    8.2092  -15.6133   21.1878 O   0  0  0  0  0  0  0  0  0  0  0  0
   11.4446  -18.0554   20.9132 C   0  0  0  0  0  0  0  0  0  0  0  0
   11.5552  -17.5032   22.3190 C   0  0  1  0  0  0  0  0  0  0  0  0
   12.7661  -16.8776   22.4907 O   0  0  0  0  0  0  0  0  0  0  0  0
   10.3813  -16.6062   22.6549 C   0  0  2  0  0  0  0  0  0  0  0  0
   10.4112  -15.4523   21.7814 N   0  0  0  0  0  0  0  0  0  0  0  0
   10.4994  -16.2405   24.0797 C   0  0  0  0  0  0  0  0  0  0  0  0
   10.3284  -17.2429   25.0225 O   0  0  0  0  0  0  0  0  0  0  0  0
   10.7450  -15.0796   24.4957 O   0  0  0  0  0  0  0  0  0  0  0  0
  2  1  1  0
  3  2  1  0
  3  4  1  6
  3  5  1  0
  5  6  2  0
  7  5  1  0
  7 11  1  0
  8  7  1  0
  9  8  1  0
  9 10  1  0
 10 11  1  0
 11 12  1  1
 12 18  1  0
 12 13  2  0
 15 14  1  6
 15 17  1  0
 16 15  1  0
 17 19  1  0
 17 18  1  6
 19 20  1  0
 21 19  2  0
M  END
$$$$
