SPT.pdb
     RDKit          3D

 21 21  0  0  1  0  0  0  0  0999 V2000
    7.7821  -18.2308   17.7966 O   0  0  0  0  0  0  0  0  0  0  0  0
    7.0926  -17.1581   17.2017 C   0  0  0  0  0  0  0  0  0  0  0  0
    8.1034  -16.0666   16.8671 C   0  0  2  0  0  0  0  0  0  0  0  0
    9.0383  -16.6769   15.8891 N   0  0  0  0  0  0  0  0  0  0  0  0
    8.8987  -15.6681   18.0514 C   0  0  0  0  0  0  0  0  0  0  0  0
   10.0034  -16.2901   18.2163 O   0  0  0  0  0  0  0  0  0  0  0  0
    8.4923  -14.6649   18.9636 N   0  0  0  0  0  0  0  0  0  0  0  0
    7.2688  -13.9210   18.8227 C   0  0  0  0  0  0  0  0  0  0  0  0
    7.0191  -13.3026   20.1491 C   0  0  0  0  0  0  0  0  0  0  0  0
    8.4443  -12.9534   20.5815 C   0  0  0  0  0  0  0  0  0  0  0  0
    9.1802  -14.2144   20.1212 C   0  0  1  0  0  0  0  0  0  0  0  0
    9.2147  -15.2157   21.2210 C   0  0  0  0  0  0  0  0  0  0  0  0
    8.1280  -15.7530   21.5578 O   0  0  0  0  0  0  0  0  0  0  0  0
   12.5128  -17.5189   21.8865 C   0  0  0  0  0  0  0  0  0  0  0  0
   11.1130  -17.8668   22.3481 C   0  0  1  0  0  0  0  0  0  0  0  0
   11.1500  -18.9234   23.2253 O   0  0  0  0  0  0  0  0  0  0  0  0
   10.4024  -16.6572   22.9202 C   0  0  2  0  0  0  0  0  0  0  0  0
   10.3812  -15.6119   21.9189 N   0  0  0  0  0  0  0  0  0  0  0  0
   11.1277  -16.2563   24.1412 C   0  0  0  0  0  0  0  0  0  0  0  0
   11.1197  -17.1317   25.2167 O   0  0  0  0  0  0  0  0  0  0  0  0
   11.7529  -15.1732   24.2712 O   0  0  0  0  0  0  0  0  0  0  0  0
  2  1  1  0
  3  2  1  0
  3  4  1  6
  3  5  1  0
  5  6  2  0
  7  5  1  0
  7 11  1  0
  8  7  1  0
  9  8  1  0
  9 10  1  0
 10 11  1  0
 11 12  1  1
 12 18  1  0
 12 13  2  0
 15 14  1  1
 15 17  1  0
 16 15  1  0
 17 19  1  0
 17 18  1  6
 19 20  1  0
 21 19  2  0
M  END
$$$$
