SPT.pdb
     RDKit          3D

 21 21  0  0  1  0  0  0  0  0999 V2000
    6.7944  -15.8271   21.0888 O   0  0  0  0  0  0  0  0  0  0  0  0
    6.1401  -14.5883   21.2196 C   0  0  0  0  0  0  0  0  0  0  0  0
    7.1916  -13.5187   21.4940 C   0  0  2  0  0  0  0  0  0  0  0  0
    8.1171  -13.5643   20.3345 N   0  0  0  0  0  0  0  0  0  0  0  0
    7.9855  -13.8226   22.7070 C   0  0  0  0  0  0  0  0  0  0  0  0
    9.1190  -14.3786   22.5067 O   0  0  0  0  0  0  0  0  0  0  0  0
    7.5480  -13.5285   24.0207 N   0  0  0  0  0  0  0  0  0  0  0  0
    6.2845  -12.9032   24.3087 C   0  0  0  0  0  0  0  0  0  0  0  0
    6.0328  -13.1506   25.7508 C   0  0  0  0  0  0  0  0  0  0  0  0
    7.4473  -13.0254   26.3198 C   0  0  0  0  0  0  0  0  0  0  0  0
    8.2373  -13.7676   25.2388 C   0  0  1  0  0  0  0  0  0  0  0  0
    8.3486  -15.2097   25.5871 C   0  0  0  0  0  0  0  0  0  0  0  0
    7.2840  -15.8743   25.6759 O   0  0  0  0  0  0  0  0  0  0  0  0
   10.0811  -17.8477   23.6420 C   0  0  0  0  0  0  0  0  0  0  0  0
   10.6278  -17.9128   25.0528 C   0  0  1  0  0  0  0  0  0  0  0  0
   11.8682  -17.3253   25.1102 O   0  0  0  0  0  0  0  0  0  0  0  0
    9.6542  -17.3206   26.0512 C   0  0  2  0  0  0  0  0  0  0  0  0
    9.5653  -15.8935   25.8258 N   0  0  0  0  0  0  0  0  0  0  0  0
   10.1515  -17.6504   27.4009 C   0  0  0  0  0  0  0  0  0  0  0  0
   10.1541  -18.9834   27.7830 O   0  0  0  0  0  0  0  0  0  0  0  0
   10.5732  -16.8024   28.2280 O   0  0  0  0  0  0  0  0  0  0  0  0
  2  1  1  0
  3  2  1  0
  3  4  1  6
  3  5  1  0
  5  6  2  0
  7  5  1  0
  7 11  1  0
  8  7  1  0
  9  8  1  0
  9 10  1  0
 10 11  1  0
 11 12  1  1
 12 18  1  0
 12 13  2  0
 15 14  1  6
 15 17  1  0
 16 15  1  0
 17 19  1  0
 17 18  1  1
 19 20  1  0
 21 19  2  0
M  END
$$$$
