SPT.pdb
     RDKit          3D

 21 21  0  0  1  0  0  0  0  0999 V2000
    6.0967  -18.4159   17.5992 O   0  0  0  0  0  0  0  0  0  0  0  0
    6.9498  -17.8947   18.5894 C   0  0  0  0  0  0  0  0  0  0  0  0
    7.8501  -16.8480   17.9423 C   0  0  2  0  0  0  0  0  0  0  0  0
    8.7448  -17.6026   17.0296 N   0  0  0  0  0  0  0  0  0  0  0  0
    8.7074  -16.1646   18.9382 C   0  0  0  0  0  0  0  0  0  0  0  0
    9.8163  -16.7405   19.2083 O   0  0  0  0  0  0  0  0  0  0  0  0
    8.3531  -14.9485   19.5703 N   0  0  0  0  0  0  0  0  0  0  0  0
    7.1941  -14.1787   19.2036 C   0  0  0  0  0  0  0  0  0  0  0  0
    6.9552  -13.2478   20.3353 C   0  0  0  0  0  0  0  0  0  0  0  0
    8.3902  -12.9027   20.7375 C   0  0  0  0  0  0  0  0  0  0  0  0
    9.0406  -14.2835   20.6198 C   0  0  1  0  0  0  0  0  0  0  0  0
    8.9680  -14.9952   21.9241 C   0  0  0  0  0  0  0  0  0  0  0  0
    7.8366  -15.1220   22.4597 O   0  0  0  0  0  0  0  0  0  0  0  0
    9.4452  -18.4245   22.7846 C   0  0  0  0  0  0  0  0  0  0  0  0
   10.4090  -17.6760   23.6813 C   0  0  1  0  0  0  0  0  0  0  0  0
   11.6904  -17.7843   23.1982 O   0  0  0  0  0  0  0  0  0  0  0  0
    9.9783  -16.2367   23.8771 C   0  0  2  0  0  0  0  0  0  0  0  0
   10.0787  -15.5434   22.6103 N   0  0  0  0  0  0  0  0  0  0  0  0
   10.8517  -15.6520   24.9129 C   0  0  0  0  0  0  0  0  0  0  0  0
   10.6687  -16.0652   26.2239 O   0  0  0  0  0  0  0  0  0  0  0  0
   11.7514  -14.8036   24.6855 O   0  0  0  0  0  0  0  0  0  0  0  0
  2  1  1  0
  3  2  1  0
  3  4  1  6
  3  5  1  0
  5  6  2  0
  7  5  1  0
  7 11  1  0
  8  7  1  0
  9  8  1  0
  9 10  1  0
 10 11  1  0
 11 12  1  1
 12 18  1  0
 12 13  2  0
 15 14  1  6
 15 17  1  0
 16 15  1  0
 17 19  1  0
 17 18  1  6
 19 20  1  0
 21 19  2  0
M  END
$$$$
