SPT.pdb
     RDKit          3D

 21 21  0  0  1  0  0  0  0  0999 V2000
    6.8469  -16.5170   21.1453 O   0  0  0  0  0  0  0  0  0  0  0  0
    6.3270  -15.2233   20.9559 C   0  0  0  0  0  0  0  0  0  0  0  0
    7.4603  -14.2204   21.1431 C   0  0  2  0  0  0  0  0  0  0  0  0
    8.3666  -14.4241   19.9855 N   0  0  0  0  0  0  0  0  0  0  0  0
    8.2421  -14.4928   22.3713 C   0  0  0  0  0  0  0  0  0  0  0  0
    9.3522  -15.1035   22.2017 O   0  0  0  0  0  0  0  0  0  0  0  0
    7.8176  -14.1138   23.6674 N   0  0  0  0  0  0  0  0  0  0  0  0
    6.5618  -13.4606   23.9254 C   0  0  0  0  0  0  0  0  0  0  0  0
    6.3195  -13.6158   25.3819 C   0  0  0  0  0  0  0  0  0  0  0  0
    7.7394  -13.4682   25.9316 C   0  0  0  0  0  0  0  0  0  0  0  0
    8.5145  -14.2832   24.8929 C   0  0  1  0  0  0  0  0  0  0  0  0
    8.6162  -15.7018   25.3292 C   0  0  0  0  0  0  0  0  0  0  0  0
    7.5523  -16.3694   25.4026 O   0  0  0  0  0  0  0  0  0  0  0  0
   10.4324  -18.4198   23.6196 C   0  0  0  0  0  0  0  0  0  0  0  0
   10.9201  -18.4151   25.0533 C   0  0  1  0  0  0  0  0  0  0  0  0
   12.1596  -17.8283   25.1325 O   0  0  0  0  0  0  0  0  0  0  0  0
    9.9087  -17.7712   25.9796 C   0  0  2  0  0  0  0  0  0  0  0  0
    9.8231  -16.3601   25.6681 N   0  0  0  0  0  0  0  0  0  0  0  0
   10.3577  -18.0190   27.3633 C   0  0  0  0  0  0  0  0  0  0  0  0
   10.7147  -16.9234   28.1349 O   0  0  0  0  0  0  0  0  0  0  0  0
   10.4380  -19.1581   27.8895 O   0  0  0  0  0  0  0  0  0  0  0  0
  2  1  1  0
  3  2  1  0
  3  4  1  6
  3  5  1  0
  5  6  2  0
  7  5  1  0
  7 11  1  0
  8  7  1  0
  9  8  1  0
  9 10  1  0
 10 11  1  0
 11 12  1  1
 12 18  1  0
 12 13  2  0
 15 14  1  6
 15 17  1  0
 16 15  1  0
 17 19  1  0
 17 18  1  6
 19 20  1  0
 21 19  2  0
M  END
$$$$
