SPT.pdb
     RDKit          3D

 21 21  0  0  1  0  0  0  0  0999 V2000
    8.1993  -17.6185   17.0860 O   0  0  0  0  0  0  0  0  0  0  0  0
    7.4833  -16.5096   16.5984 C   0  0  0  0  0  0  0  0  0  0  0  0
    8.4661  -15.3644   16.3797 C   0  0  2  0  0  0  0  0  0  0  0  0
    9.4427  -15.8640   15.3799 N   0  0  0  0  0  0  0  0  0  0  0  0
    9.2203  -15.0405   17.6126 C   0  0  0  0  0  0  0  0  0  0  0  0
   10.3596  -15.6075   17.7346 O   0  0  0  0  0  0  0  0  0  0  0  0
    8.7409  -14.1617   18.6133 N   0  0  0  0  0  0  0  0  0  0  0  0
    7.5220  -13.4084   18.4820 C   0  0  0  0  0  0  0  0  0  0  0  0
    7.1743  -12.9634   19.8551 C   0  0  0  0  0  0  0  0  0  0  0  0
    8.5623  -12.6689   20.4269 C   0  0  0  0  0  0  0  0  0  0  0  0
    9.3419  -13.8601   19.8639 C   0  0  1  0  0  0  0  0  0  0  0  0
    9.3109  -14.9925   20.8282 C   0  0  0  0  0  0  0  0  0  0  0  0
    8.2126  -15.5795   21.0067 O   0  0  0  0  0  0  0  0  0  0  0  0
   11.5549  -18.0105   20.6607 C   0  0  0  0  0  0  0  0  0  0  0  0
   11.6032  -17.4986   22.0851 C   0  0  1  0  0  0  0  0  0  0  0  0
   12.7924  -16.8516   22.3183 O   0  0  0  0  0  0  0  0  0  0  0  0
   10.3977  -16.6384   22.4050 C   0  0  2  0  0  0  0  0  0  0  0  0
   10.4273  -15.4620   21.5619 N   0  0  0  0  0  0  0  0  0  0  0  0
   10.4613  -16.3068   23.8415 C   0  0  0  0  0  0  0  0  0  0  0  0
   10.2331  -17.3267   24.7529 O   0  0  0  0  0  0  0  0  0  0  0  0
   10.7087  -15.1601   24.2942 O   0  0  0  0  0  0  0  0  0  0  0  0
  2  1  1  0
  3  2  1  0
  3  4  1  6
  3  5  1  0
  5  6  2  0
  7  5  1  0
  7 11  1  0
  8  7  1  0
  9  8  1  0
  9 10  1  0
 10 11  1  0
 11 12  1  1
 12 18  1  0
 12 13  2  0
 15 14  1  6
 15 17  1  0
 16 15  1  0
 17 19  1  0
 17 18  1  6
 19 20  1  0
 21 19  2  0
M  END
$$$$
