SPT.pdb
     RDKit          3D

 21 21  0  0  1  0  0  0  0  0999 V2000
    9.6110  -17.7639   18.4027 O   0  0  0  0  0  0  0  0  0  0  0  0
    9.2583  -16.9759   17.2916 C   0  0  0  0  0  0  0  0  0  0  0  0
    9.9469  -15.6222   17.4276 C   0  0  2  0  0  0  0  0  0  0  0  0
   11.3416  -15.8376   16.9676 N   0  0  0  0  0  0  0  0  0  0  0  0
   10.0096  -15.1732   18.8376 C   0  0  0  0  0  0  0  0  0  0  0  0
   11.0765  -15.4773   19.4728 O   0  0  0  0  0  0  0  0  0  0  0  0
    8.9724  -14.4498   19.4738 N   0  0  0  0  0  0  0  0  0  0  0  0
    7.7834  -14.0131   18.7913 C   0  0  0  0  0  0  0  0  0  0  0  0
    6.8053  -13.6834   19.8585 C   0  0  0  0  0  0  0  0  0  0  0  0
    7.7234  -13.0683   20.9163 C   0  0  0  0  0  0  0  0  0  0  0  0
    8.9134  -14.0275   20.8282 C   0  0  1  0  0  0  0  0  0  0  0  0
    8.7405  -15.1458   21.7939 C   0  0  0  0  0  0  0  0  0  0  0  0
    7.9096  -16.0453   21.5053 O   0  0  0  0  0  0  0  0  0  0  0  0
   11.7949  -16.5086   24.2206 C   0  0  0  0  0  0  0  0  0  0  0  0
   10.4489  -16.3853   24.9036 C   0  0  1  0  0  0  0  0  0  0  0  0
   10.4207  -15.2675   25.7016 O   0  0  0  0  0  0  0  0  0  0  0  0
    9.3144  -16.4153   23.8999 C   0  0  2  0  0  0  0  0  0  0  0  0
    9.4430  -15.2758   23.0164 N   0  0  0  0  0  0  0  0  0  0  0  0
    8.0508  -16.4006   24.6620 C   0  0  0  0  0  0  0  0  0  0  0  0
    7.2581  -15.2657   24.5807 O   0  0  0  0  0  0  0  0  0  0  0  0
    7.6450  -17.3493   25.3805 O   0  0  0  0  0  0  0  0  0  0  0  0
  2  1  1  0
  3  2  1  0
  3  4  1  1
  3  5  1  0
  5  6  2  0
  7  5  1  0
  7 11  1  0
  8  7  1  0
  9  8  1  0
  9 10  1  0
 10 11  1  0
 11 12  1  1
 12 18  1  0
 12 13  2  0
 15 14  1  6
 15 17  1  0
 16 15  1  0
 17 19  1  0
 17 18  1  6
 19 20  1  0
 21 19  2  0
M  END
$$$$
