FHA.pdb
     RDKit          3D

 27 28  0  0  1  0  0  0  0  0999 V2000
   22.1370  -23.5142  -16.8406 N   0  0  0  0  0  0  0  0  0  0  0  0
   21.1423  -24.4320  -16.3823 C   0  0  1  0  0  0  0  0  0  0  0  0
   21.7226  -25.8306  -16.4739 C   0  0  0  0  0  0  0  0  0  0  0  0
   21.7770  -26.2923  -17.8745 C   0  0  0  0  0  0  0  0  0  0  0  0
   23.0209  -26.4368  -18.4916 C   0  0  0  0  0  0  0  0  0  0  0  0
   23.0749  -26.8680  -19.8001 C   0  0  0  0  0  0  0  0  0  0  0  0
   21.9269  -27.1552  -20.4990 C   0  0  0  0  0  0  0  0  0  0  0  0
   20.7023  -27.0091  -19.8798 C   0  0  0  0  0  0  0  0  0  0  0  0
   20.6223  -26.5785  -18.5693 C   0  0  0  0  0  0  0  0  0  0  0  0
   20.7546  -24.1938  -14.9648 C   0  0  0  0  0  0  0  0  0  0  0  0
   21.6293  -23.7368  -14.1902 O   0  0  0  0  0  0  0  0  0  0  0  0
   19.4570  -24.4630  -14.4808 N   0  0  0  0  0  0  0  0  0  0  0  0
   19.0723  -24.2576  -13.0635 C   0  0  1  0  0  0  0  0  0  0  0  0
   17.7540  -23.5741  -13.0132 C   0  0  0  0  0  0  0  0  0  0  0  0
   17.7725  -22.1575  -13.3790 C   0  0  0  0  0  0  0  0  0  0  0  0
   18.9461  -21.4371  -13.6308 C   0  0  0  0  0  0  0  0  0  0  0  0
   18.6610  -20.1792  -13.9363 N   0  0  0  0  0  0  0  0  0  0  0  0
   17.3242  -20.0654  -13.8886 C   0  0  0  0  0  0  0  0  0  0  0  0
   16.7943  -21.2542  -13.5540 N   0  0  0  0  0  0  0  0  0  0  0  0
   19.2180  -25.5147  -12.3524 C   0  0  0  0  0  0  0  0  0  0  0  0
   18.7001  -26.5568  -12.8925 O   0  0  0  0  0  0  0  0  0  0  0  0
   18.3701  -27.4232  -10.2202 C   0  0  0  0  0  0  0  0  0  0  0  0
   19.8243  -27.0426  -10.4868 C   0  0  2  0  0  0  0  0  0  0  0  0
   19.8790  -25.7361  -11.1145 N   0  0  0  0  0  0  0  0  0  0  0  0
   20.3715  -28.1027  -11.3538 C   0  0  0  0  0  0  0  0  0  0  0  0
   20.7773  -27.8051  -12.5015 O   0  0  0  0  0  0  0  0  0  0  0  0
   20.4310  -29.4006  -10.8961 O   0  0  0  0  0  0  0  0  0  0  0  0
  2  1  1  1
  2  3  1  0
  3  4  1  0
  4  9  1  0
  5  4  2  0
  5  6  1  0
  6  7  2  0
  7  8  1  0
  9  8  2  0
 10 11  2  0
 10  2  1  0
 12 10  1  0
 13 20  1  0
 13 12  1  0
 13 14  1  6
 15 14  1  0
 16 15  2  0
 17 16  1  0
 18 17  1  0
 18 19  2  0
 19 15  1  0
 20 24  1  0
 21 20  2  0
 23 22  1  6
 23 25  1  0
 24 23  1  0
 25 26  2  0
 25 27  1  0
M  END
$$$$
