FHA.pdb
     RDKit          3D

 27 28  0  0  1  0  0  0  0  0999 V2000
   24.7688  -12.0816  -17.9647 N   0  0  0  0  0  0  0  0  0  0  0  0
   24.7121  -11.2248  -16.8225 C   0  0  1  0  0  0  0  0  0  0  0  0
   26.0396  -10.4978  -16.7203 C   0  0  0  0  0  0  0  0  0  0  0  0
   27.1537  -11.4488  -16.5418 C   0  0  0  0  0  0  0  0  0  0  0  0
   27.2150  -12.2074  -15.3714 C   0  0  0  0  0  0  0  0  0  0  0  0
   28.2548  -13.0968  -15.2018 C   0  0  0  0  0  0  0  0  0  0  0  0
   29.2246  -13.2443  -16.1643 C   0  0  0  0  0  0  0  0  0  0  0  0
   29.1548  -12.4897  -17.3176 C   0  0  0  0  0  0  0  0  0  0  0  0
   28.1226  -11.5917  -17.5108 C   0  0  0  0  0  0  0  0  0  0  0  0
   23.6397  -10.1979  -16.9310 C   0  0  0  0  0  0  0  0  0  0  0  0
   23.1536   -9.9807  -18.0669 O   0  0  0  0  0  0  0  0  0  0  0  0
   23.1665   -9.4786  -15.8135 N   0  0  0  0  0  0  0  0  0  0  0  0
   22.0132   -8.5493  -15.8890 C   0  0  1  0  0  0  0  0  0  0  0  0
   20.9053   -9.0831  -15.0552 C   0  0  0  0  0  0  0  0  0  0  0  0
   20.2801  -10.3064  -15.5591 C   0  0  0  0  0  0  0  0  0  0  0  0
   20.3382  -11.5371  -14.8946 C   0  0  0  0  0  0  0  0  0  0  0  0
   19.6878  -12.4656  -15.5813 N   0  0  0  0  0  0  0  0  0  0  0  0
   19.2067  -11.8641  -16.6808 C   0  0  0  0  0  0  0  0  0  0  0  0
   19.5638  -10.5687  -16.6643 N   0  0  0  0  0  0  0  0  0  0  0  0
   22.4807   -7.2011  -15.6226 C   0  0  0  0  0  0  0  0  0  0  0  0
   23.2150   -7.0299  -14.5847 O   0  0  0  0  0  0  0  0  0  0  0  0
   22.5036   -3.7001  -17.0292 C   0  0  0  0  0  0  0  0  0  0  0  0
   22.7483   -4.7507  -15.9489 C   0  0  2  0  0  0  0  0  0  0  0  0
   22.2245   -6.0307  -16.3862 N   0  0  0  0  0  0  0  0  0  0  0  0
   22.0718   -4.2547  -14.7360 C   0  0  0  0  0  0  0  0  0  0  0  0
   21.0216   -4.8178  -14.3481 O   0  0  0  0  0  0  0  0  0  0  0  0
   22.5977   -3.1846  -14.0462 O   0  0  0  0  0  0  0  0  0  0  0  0
  2  1  1  6
  2  3  1  0
  3  4  1  0
  4  9  1  0
  5  4  2  0
  5  6  1  0
  6  7  2  0
  7  8  1  0
  9  8  2  0
 10 11  2  0
 10  2  1  0
 12 10  1  0
 13 20  1  0
 13 12  1  0
 13 14  1  1
 15 14  1  0
 16 15  2  0
 17 16  1  0
 18 17  1  0
 18 19  2  0
 19 15  1  0
 20 24  1  0
 21 20  2  0
 23 22  1  6
 23 25  1  0
 24 23  1  0
 25 26  2  0
 25 27  1  0
M  END
$$$$
