FHA.pdb
     RDKit          3D

 27 28  0  0  1  0  0  0  0  0999 V2000
   23.9994  -30.8561  -15.7444 N   0  0  0  0  0  0  0  0  0  0  0  0
   24.2780  -32.1543  -15.2165 C   0  0  1  0  0  0  0  0  0  0  0  0
   25.7849  -32.3194  -15.1590 C   0  0  0  0  0  0  0  0  0  0  0  0
   26.2896  -33.0119  -16.3603 C   0  0  0  0  0  0  0  0  0  0  0  0
   26.5172  -34.3881  -16.3028 C   0  0  0  0  0  0  0  0  0  0  0  0
   26.9888  -35.0378  -17.4237 C   0  0  0  0  0  0  0  0  0  0  0  0
   27.2357  -34.3517  -18.5886 C   0  0  0  0  0  0  0  0  0  0  0  0
   27.0074  -32.9915  -18.6351 C   0  0  0  0  0  0  0  0  0  0  0  0
   26.5350  -32.3179  -17.5249 C   0  0  0  0  0  0  0  0  0  0  0  0
   23.7488  -32.3361  -13.8369 C   0  0  0  0  0  0  0  0  0  0  0  0
   23.4027  -31.3087  -13.2054 O   0  0  0  0  0  0  0  0  0  0  0  0
   23.6292  -33.6062  -13.2346 N   0  0  0  0  0  0  0  0  0  0  0  0
   22.9681  -33.8116  -11.9232 C   0  0  1  0  0  0  0  0  0  0  0  0
   22.2466  -35.1103  -11.9421 C   0  0  0  0  0  0  0  0  0  0  0  0
   21.3606  -35.3474  -10.8019 C   0  0  0  0  0  0  0  0  0  0  0  0
   21.2520  -34.4774   -9.7106 C   0  0  0  0  0  0  0  0  0  0  0  0
   20.3788  -34.9455   -8.8301 N   0  0  0  0  0  0  0  0  0  0  0  0
   19.9160  -36.1039   -9.3262 C   0  0  0  0  0  0  0  0  0  0  0  0
   20.5071  -36.3420  -10.5093 N   0  0  0  0  0  0  0  0  0  0  0  0
   23.9400  -33.5850  -10.8690 C   0  0  0  0  0  0  0  0  0  0  0  0
   25.0021  -34.3043  -10.8867 O   0  0  0  0  0  0  0  0  0  0  0  0
   24.7403  -31.2980   -7.9811 C   0  0  0  0  0  0  0  0  0  0  0  0
   24.9472  -32.5337   -8.8533 C   0  0  2  0  0  0  0  0  0  0  0  0
   23.8594  -32.6455   -9.8063 N   0  0  0  0  0  0  0  0  0  0  0  0
   25.0009  -33.6817   -7.9291 C   0  0  0  0  0  0  0  0  0  0  0  0
   23.9504  -34.3201   -7.6855 O   0  0  0  0  0  0  0  0  0  0  0  0
   26.1974  -34.0384   -7.3470 O   0  0  0  0  0  0  0  0  0  0  0  0
  2  1  1  1
  2  3  1  0
  3  4  1  0
  4  9  1  0
  5  4  2  0
  5  6  1  0
  6  7  2  0
  7  8  1  0
  9  8  2  0
 10 11  2  0
 10  2  1  0
 12 10  1  0
 13 20  1  0
 13 12  1  0
 13 14  1  6
 15 14  1  0
 16 15  2  0
 17 16  1  0
 18 17  1  0
 18 19  2  0
 19 15  1  0
 20 24  1  0
 21 20  2  0
 23 22  1  1
 23 25  1  0
 24 23  1  0
 25 26  2  0
 25 27  1  0
M  END
$$$$
