FHA.pdb
     RDKit          3D

 27 28  0  0  1  0  0  0  0  0999 V2000
   26.9508  -11.7494  -16.5569 N   0  0  0  0  0  0  0  0  0  0  0  0
   26.5274  -10.3855  -16.6046 C   0  0  1  0  0  0  0  0  0  0  0  0
   26.8393   -9.8500  -17.9893 C   0  0  0  0  0  0  0  0  0  0  0  0
   28.2957   -9.7837  -18.2175 C   0  0  0  0  0  0  0  0  0  0  0  0
   29.0058   -8.6801  -17.7412 C   0  0  0  0  0  0  0  0  0  0  0  0
   30.3667   -8.6154  -17.9530 C   0  0  0  0  0  0  0  0  0  0  0  0
   31.0276   -9.6173  -18.6225 C   0  0  0  0  0  0  0  0  0  0  0  0
   30.3164  -10.7039  -19.0893 C   0  0  0  0  0  0  0  0  0  0  0  0
   28.9520  -10.7916  -18.8895 C   0  0  0  0  0  0  0  0  0  0  0  0
   25.0639  -10.2330  -16.3785 C   0  0  0  0  0  0  0  0  0  0  0  0
   24.3149  -11.1636  -16.7617 O   0  0  0  0  0  0  0  0  0  0  0  0
   24.5098   -9.0937  -15.7577 N   0  0  0  0  0  0  0  0  0  0  0  0
   23.0554   -8.9447  -15.5096 C   0  0  1  0  0  0  0  0  0  0  0  0
   22.8049   -9.0026  -14.0462 C   0  0  0  0  0  0  0  0  0  0  0  0
   21.3970   -8.9412  -13.6523 C   0  0  0  0  0  0  0  0  0  0  0  0
   20.3361   -8.9345  -14.5656 C   0  0  0  0  0  0  0  0  0  0  0  0
   19.1760   -8.8715  -13.9276 N   0  0  0  0  0  0  0  0  0  0  0  0
   19.4599   -8.8369  -12.6160 C   0  0  0  0  0  0  0  0  0  0  0  0
   20.7933   -8.8788  -12.4543 N   0  0  0  0  0  0  0  0  0  0  0  0
   22.5725   -7.7870  -16.2403 C   0  0  0  0  0  0  0  0  0  0  0  0
   23.2365   -6.6965  -16.1154 O   0  0  0  0  0  0  0  0  0  0  0  0
   20.1068   -6.7401  -18.8823 C   0  0  0  0  0  0  0  0  0  0  0  0
   21.1214   -6.4731  -17.7734 C   0  0  2  0  0  0  0  0  0  0  0  0
   21.4395   -7.7148  -17.0944 N   0  0  0  0  0  0  0  0  0  0  0  0
   20.4929   -5.4886  -16.8731 C   0  0  0  0  0  0  0  0  0  0  0  0
   19.6562   -5.8811  -16.0266 O   0  0  0  0  0  0  0  0  0  0  0  0
   20.8298   -4.1565  -16.9708 O   0  0  0  0  0  0  0  0  0  0  0  0
  2  1  1  6
  2  3  1  0
  3  4  1  0
  4  9  1  0
  5  4  2  0
  5  6  1  0
  6  7  2  0
  7  8  1  0
  9  8  2  0
 10 11  2  0
 10  2  1  0
 12 10  1  0
 13 20  1  0
 13 12  1  0
 13 14  1  1
 15 14  1  0
 16 15  2  0
 17 16  1  0
 18 17  1  0
 18 19  2  0
 19 15  1  0
 20 24  1  0
 21 20  2  0
 23 22  1  6
 23 25  1  0
 24 23  1  0
 25 26  2  0
 25 27  1  0
M  END
$$$$
