FHA.pdb
     RDKit          3D

 27 28  0  0  1  0  0  0  0  0999 V2000
   28.6837  -20.7429   -8.9185 N   0  0  0  0  0  0  0  0  0  0  0  0
   27.2580  -20.8357   -8.8916 C   0  0  1  0  0  0  0  0  0  0  0  0
   26.7351  -19.7108   -8.0185 C   0  0  0  0  0  0  0  0  0  0  0  0
   27.4352  -19.6771   -6.7198 C   0  0  0  0  0  0  0  0  0  0  0  0
   26.7631  -20.1147   -5.5771 C   0  0  0  0  0  0  0  0  0  0  0  0
   27.4146  -20.0843   -4.3624 C   0  0  0  0  0  0  0  0  0  0  0  0
   28.7085  -19.6317   -4.2639 C   0  0  0  0  0  0  0  0  0  0  0  0
   29.3640  -19.2013   -5.3995 C   0  0  0  0  0  0  0  0  0  0  0  0
   28.7323  -19.2221   -6.6283 C   0  0  0  0  0  0  0  0  0  0  0  0
   26.6497  -20.6822  -10.2417 C   0  0  0  0  0  0  0  0  0  0  0  0
   27.1205  -19.7970  -10.9958 O   0  0  0  0  0  0  0  0  0  0  0  0
   25.5807  -21.4890  -10.6851 N   0  0  0  0  0  0  0  0  0  0  0  0
   25.1679  -21.5606  -12.1076 C   0  0  1  0  0  0  0  0  0  0  0  0
   25.3582  -22.9501  -12.5982 C   0  0  0  0  0  0  0  0  0  0  0  0
   24.9843  -23.1742  -13.9950 C   0  0  0  0  0  0  0  0  0  0  0  0
   24.4911  -22.1698  -14.8362 C   0  0  0  0  0  0  0  0  0  0  0  0
   24.2357  -22.6588  -16.0414 N   0  0  0  0  0  0  0  0  0  0  0  0
   24.5528  -23.9627  -16.0023 C   0  0  0  0  0  0  0  0  0  0  0  0
   25.0016  -24.2686  -14.7731 N   0  0  0  0  0  0  0  0  0  0  0  0
   23.8524  -20.9620  -12.2435 C   0  0  0  0  0  0  0  0  0  0  0  0
   23.0199  -21.1533  -11.2864 O   0  0  0  0  0  0  0  0  0  0  0  0
   21.8247  -18.6777  -14.4626 C   0  0  0  0  0  0  0  0  0  0  0  0
   22.0515  -19.5710  -13.2456 C   0  0  2  0  0  0  0  0  0  0  0  0
   23.3688  -20.1734  -13.3218 N   0  0  0  0  0  0  0  0  0  0  0  0
   20.9741  -20.5777  -13.2715 C   0  0  0  0  0  0  0  0  0  0  0  0
   19.8622  -20.2963  -12.7665 O   0  0  0  0  0  0  0  0  0  0  0  0
   21.1992  -21.8089  -13.8469 O   0  0  0  0  0  0  0  0  0  0  0  0
  2  1  1  6
  2  3  1  0
  3  4  1  0
  4  9  1  0
  5  4  2  0
  5  6  1  0
  6  7  2  0
  7  8  1  0
  9  8  2  0
 10 11  2  0
 10  2  1  0
 12 10  1  0
 13 20  1  0
 13 12  1  0
 13 14  1  1
 15 14  1  0
 16 15  2  0
 17 16  1  0
 18 17  1  0
 18 19  2  0
 19 15  1  0
 20 24  1  0
 21 20  2  0
 23 22  1  6
 23 25  1  0
 24 23  1  0
 25 26  2  0
 25 27  1  0
M  END
$$$$
