FHA.pdb
     RDKit          3D

 27 28  0  0  1  0  0  0  0  0999 V2000
   25.0471  -21.0031   -8.3645 N   0  0  0  0  0  0  0  0  0  0  0  0
   26.0518  -20.1237   -8.8736 C   0  0  1  0  0  0  0  0  0  0  0  0
   27.4018  -20.6516   -8.4264 C   0  0  0  0  0  0  0  0  0  0  0  0
   27.7394  -20.1685   -7.0735 C   0  0  0  0  0  0  0  0  0  0  0  0
   27.7907  -21.0843   -6.0211 C   0  0  0  0  0  0  0  0  0  0  0  0
   28.1058  -20.6358   -4.7559 C   0  0  0  0  0  0  0  0  0  0  0  0
   28.3682  -19.3075   -4.5204 C   0  0  0  0  0  0  0  0  0  0  0  0
   28.3148  -18.4104   -5.5676 C   0  0  0  0  0  0  0  0  0  0  0  0
   28.0012  -18.8355   -6.8444 C   0  0  0  0  0  0  0  0  0  0  0  0
   26.0584  -20.0636  -10.3611 C   0  0  0  0  0  0  0  0  0  0  0  0
   25.7416  -21.1033  -10.9877 O   0  0  0  0  0  0  0  0  0  0  0  0
   26.4041  -18.8931  -11.0686 N   0  0  0  0  0  0  0  0  0  0  0  0
   26.3044  -18.7906  -12.5446 C   0  0  1  0  0  0  0  0  0  0  0  0
   26.1761  -17.3597  -12.9236 C   0  0  0  0  0  0  0  0  0  0  0  0
   26.1230  -17.0988  -14.3624 C   0  0  0  0  0  0  0  0  0  0  0  0
   24.9815  -17.3047  -15.1461 C   0  0  0  0  0  0  0  0  0  0  0  0
   25.2237  -16.9875  -16.4100 N   0  0  0  0  0  0  0  0  0  0  0  0
   26.5012  -16.5787  -16.4657 C   0  0  0  0  0  0  0  0  0  0  0  0
   27.0378  -16.6467  -15.2355 N   0  0  0  0  0  0  0  0  0  0  0  0
   27.3802  -19.5617  -13.1407 C   0  0  0  0  0  0  0  0  0  0  0  0
   28.2715  -20.0340  -12.3481 O   0  0  0  0  0  0  0  0  0  0  0  0
   28.2894  -22.1338  -14.0075 C   0  0  0  0  0  0  0  0  0  0  0  0
   28.4867  -20.9167  -14.9077 C   0  0  2  0  0  0  0  0  0  0  0  0
   27.5664  -19.8662  -14.5159 N   0  0  0  0  0  0  0  0  0  0  0  0
   28.2471  -21.3847  -16.2855 C   0  0  0  0  0  0  0  0  0  0  0  0
   29.0339  -22.2171  -16.7940 O   0  0  0  0  0  0  0  0  0  0  0  0
   27.1678  -20.9054  -16.9949 O   0  0  0  0  0  0  0  0  0  0  0  0
  2  1  1  6
  2  3  1  0
  3  4  1  0
  4  9  1  0
  5  4  2  0
  5  6  1  0
  6  7  2  0
  7  8  1  0
  9  8  2  0
 10 11  2  0
 10  2  1  0
 12 10  1  0
 13 20  1  0
 13 12  1  0
 13 14  1  1
 15 14  1  0
 16 15  2  0
 17 16  1  0
 18 17  1  0
 18 19  2  0
 19 15  1  0
 20 24  1  0
 21 20  2  0
 23 22  1  1
 23 25  1  0
 24 23  1  0
 25 26  2  0
 25 27  1  0
M  END
$$$$
