FHA.pdb
     RDKit          3D

 27 28  0  0  1  0  0  0  0  0999 V2000
   26.9669  -21.0294  -17.1307 N   0  0  0  0  0  0  0  0  0  0  0  0
   26.0528  -20.0089  -16.7248 C   0  0  1  0  0  0  0  0  0  0  0  0
   25.6306  -19.2429  -17.9642 C   0  0  0  0  0  0  0  0  0  0  0  0
   26.6891  -18.3110  -18.3989 C   0  0  0  0  0  0  0  0  0  0  0  0
   27.5739  -18.7120  -19.4015 C   0  0  0  0  0  0  0  0  0  0  0  0
   28.5639  -17.8434  -19.8096 C   0  0  0  0  0  0  0  0  0  0  0  0
   28.6890  -16.5966  -19.2452 C   0  0  0  0  0  0  0  0  0  0  0  0
   27.8093  -16.2100  -18.2548 C   0  0  0  0  0  0  0  0  0  0  0  0
   26.8089  -17.0626  -17.8287 C   0  0  0  0  0  0  0  0  0  0  0  0
   24.8235  -20.5613  -16.0924 C   0  0  0  0  0  0  0  0  0  0  0  0
   24.5092  -21.7449  -16.3651 O   0  0  0  0  0  0  0  0  0  0  0  0
   24.0204  -19.8045  -15.2134 N   0  0  0  0  0  0  0  0  0  0  0  0
   22.8555  -20.3790  -14.4977 C   0  0  1  0  0  0  0  0  0  0  0  0
   22.5414  -19.5275  -13.3213 C   0  0  0  0  0  0  0  0  0  0  0  0
   21.3862  -19.9568  -12.5323 C   0  0  0  0  0  0  0  0  0  0  0  0
   20.6175  -21.0869  -12.8350 C   0  0  0  0  0  0  0  0  0  0  0  0
   19.6379  -21.2305  -11.9538 N   0  0  0  0  0  0  0  0  0  0  0  0
   19.7530  -20.2158  -11.0823 C   0  0  0  0  0  0  0  0  0  0  0  0
   20.8029  -19.4535  -11.4324 N   0  0  0  0  0  0  0  0  0  0  0  0
   21.7972  -20.6361  -15.4574 C   0  0  0  0  0  0  0  0  0  0  0  0
   21.5184  -19.6985  -16.2874 O   0  0  0  0  0  0  0  0  0  0  0  0
   19.7733  -23.4252  -16.9300 C   0  0  0  0  0  0  0  0  0  0  0  0
   20.0861  -21.9497  -16.6939 C   0  0  2  0  0  0  0  0  0  0  0  0
   21.0241  -21.8201  -15.5951 N   0  0  0  0  0  0  0  0  0  0  0  0
   18.7943  -21.2993  -16.4059 C   0  0  0  0  0  0  0  0  0  0  0  0
   17.9329  -21.2222  -17.3129 O   0  0  0  0  0  0  0  0  0  0  0  0
   18.5490  -20.7867  -15.1510 O   0  0  0  0  0  0  0  0  0  0  0  0
  2  1  1  6
  2  3  1  0
  3  4  1  0
  4  9  1  0
  5  4  2  0
  5  6  1  0
  6  7  2  0
  7  8  1  0
  9  8  2  0
 10 11  2  0
 10  2  1  0
 12 10  1  0
 13 20  1  0
 13 12  1  0
 13 14  1  1
 15 14  1  0
 16 15  2  0
 17 16  1  0
 18 17  1  0
 18 19  2  0
 19 15  1  0
 20 24  1  0
 21 20  2  0
 23 22  1  1
 23 25  1  0
 24 23  1  0
 25 26  2  0
 25 27  1  0
M  END
$$$$
