FHA.pdb
     RDKit          3D

 27 28  0  0  1  0  0  0  0  0999 V2000
   24.7499  -19.9272   -7.8175 N   0  0  0  0  0  0  0  0  0  0  0  0
   25.9848  -20.1022   -8.5146 C   0  0  1  0  0  0  0  0  0  0  0  0
   26.7686  -21.1906   -7.8060 C   0  0  0  0  0  0  0  0  0  0  0  0
   27.4358  -20.6648   -6.5993 C   0  0  0  0  0  0  0  0  0  0  0  0
   28.7768  -20.2849   -6.6785 C   0  0  0  0  0  0  0  0  0  0  0  0
   29.4027  -19.7933   -5.5527 C   0  0  0  0  0  0  0  0  0  0  0  0
   28.7270  -19.6737   -4.3620 C   0  0  0  0  0  0  0  0  0  0  0  0
   27.4016  -20.0521   -4.2942 C   0  0  0  0  0  0  0  0  0  0  0  0
   26.7524  -20.5477   -5.4088 C   0  0  0  0  0  0  0  0  0  0  0  0
   25.7884  -20.5309   -9.9267 C   0  0  0  0  0  0  0  0  0  0  0  0
   24.6553  -20.9589  -10.2535 O   0  0  0  0  0  0  0  0  0  0  0  0
   26.8212  -20.4695  -10.8858 N   0  0  0  0  0  0  0  0  0  0  0  0
   26.6427  -19.8378  -12.2155 C   0  0  1  0  0  0  0  0  0  0  0  0
   27.9750  -19.4666  -12.7586 C   0  0  0  0  0  0  0  0  0  0  0  0
   27.9660  -18.9365  -14.1224 C   0  0  0  0  0  0  0  0  0  0  0  0
   27.5201  -17.6511  -14.4516 C   0  0  0  0  0  0  0  0  0  0  0  0
   27.6244  -17.4445  -15.7567 N   0  0  0  0  0  0  0  0  0  0  0  0
   28.1298  -18.5704  -16.2849 C   0  0  0  0  0  0  0  0  0  0  0  0
   28.3336  -19.4635  -15.3017 N   0  0  0  0  0  0  0  0  0  0  0  0
   25.7868  -20.6859  -13.0251 C   0  0  0  0  0  0  0  0  0  0  0  0
   25.9627  -21.9534  -12.9339 O   0  0  0  0  0  0  0  0  0  0  0  0
   22.5410  -21.0391  -14.5681 C   0  0  0  0  0  0  0  0  0  0  0  0
   24.0448  -21.2657  -14.7019 C   0  0  2  0  0  0  0  0  0  0  0  0
   24.7585  -20.2772  -13.9161 N   0  0  0  0  0  0  0  0  0  0  0  0
   24.3472  -21.1602  -16.1414 C   0  0  0  0  0  0  0  0  0  0  0  0
   25.0488  -20.2057  -16.5504 O   0  0  0  0  0  0  0  0  0  0  0  0
   23.8590  -22.1058  -17.0161 O   0  0  0  0  0  0  0  0  0  0  0  0
  2  1  1  1
  2  3  1  0
  3  4  1  0
  4  9  1  0
  5  4  2  0
  5  6  1  0
  6  7  2  0
  7  8  1  0
  9  8  2  0
 10 11  2  0
 10  2  1  0
 12 10  1  0
 13 20  1  0
 13 12  1  0
 13 14  1  6
 15 14  1  0
 16 15  2  0
 17 16  1  0
 18 17  1  0
 18 19  2  0
 19 15  1  0
 20 24  1  0
 21 20  2  0
 23 22  1  6
 23 25  1  0
 24 23  1  0
 25 26  2  0
 25 27  1  0
M  END
$$$$
