ELN.pdb
     RDKit          3D

 26 25  0  0  1  0  0  0  0  0999 V2000
   20.5244  -13.6148  -17.8397 N   0  0  0  0  0  0  0  0  0  0  0  0
   19.7470  -12.6449  -17.0900 C   0  0  1  0  0  0  0  0  0  0  0  0
   18.8099  -13.3621  -16.1109 C   0  0  0  0  0  0  0  0  0  0  0  0
   18.2449  -14.6214  -16.7817 C   0  0  0  0  0  0  0  0  0  0  0  0
   18.0507  -15.6775  -15.7589 C   0  0  0  0  0  0  0  0  0  0  0  0
   17.9713  -16.8955  -16.0455 O   0  0  0  0  0  0  0  0  0  0  0  0
   20.6995  -11.7995  -16.3278 C   0  0  0  0  0  0  0  0  0  0  0  0
   20.3048  -11.1646  -15.3027 O   0  0  0  0  0  0  0  0  0  0  0  0
   17.9511  -15.2948  -14.4251 O   0  0  0  0  0  0  0  0  0  0  0  0
   26.8551  -10.5748  -16.0294 C   0  0  0  0  0  0  0  0  0  0  0  0
   25.4198  -10.2796  -15.6474 C   0  0  2  0  0  0  0  0  0  0  0  0
   25.2919  -10.2314  -14.1568 C   0  0  0  0  0  0  0  0  0  0  0  0
   24.4288  -11.1251  -16.3562 C   0  0  0  0  0  0  0  0  0  0  0  0
   22.9903  -10.8258  -16.1421 C   0  0  2  0  0  0  0  0  0  0  0  0
   22.0603  -11.7128  -16.7683 N   0  0  0  0  0  0  0  0  0  0  0  0
   22.6720   -9.3945  -16.4014 C   0  0  0  0  0  0  0  0  0  0  0  0
   22.9803   -8.8998  -17.5116 O   0  0  0  0  0  0  0  0  0  0  0  0
   18.9384   -5.4857  -17.6098 N   0  0  0  0  0  0  0  0  0  0  0  0
   20.3184   -5.7494  -17.2882 C   0  0  0  0  0  0  0  0  0  0  0  0
   21.1216   -4.7971  -17.3527 O   0  0  0  0  0  0  0  0  0  0  0  0
   20.6524   -7.1386  -16.9080 C   0  0  0  0  0  0  0  0  0  0  0  0
   21.6875   -7.1462  -15.8361 C   0  0  2  0  0  0  0  0  0  0  0  0
   22.0352   -8.5367  -15.4637 N   0  0  0  0  0  0  0  0  0  0  0  0
   21.1455   -6.4991  -14.6185 C   0  0  0  0  0  0  0  0  0  0  0  0
   20.9466   -7.1464  -13.5447 O   0  0  0  0  0  0  0  0  0  0  0  0
   20.8376   -5.1473  -14.6167 O   0  0  0  0  0  0  0  0  0  0  0  0
  2  1  1  1
  3  2  1  0
  4  3  1  0
  5  4  1  0
  5  6  2  0
  7  2  1  0
  7  8  2  0
  9  5  1  0
 11 10  1  1
 11 12  1  0
 14 13  1  6
 13 11  1  0
 14 15  1  0
 15  7  1  0
 16 14  1  0
 17 16  2  0
 18 19  1  0
 19 21  1  0
 20 19  2  0
 22 21  1  6
 22 23  1  0
 23 16  1  0
 24 26  1  0
 24 22  1  0
 25 24  2  0
M  END
$$$$
