ELN.pdb
     RDKit          3D

 26 25  0  0  1  0  0  0  0  0999 V2000
   23.6478  -15.7005  -16.2675 N   0  0  0  0  0  0  0  0  0  0  0  0
   23.1818  -14.5777  -17.0608 C   0  0  1  0  0  0  0  0  0  0  0  0
   21.6493  -14.5639  -17.1080 C   0  0  0  0  0  0  0  0  0  0  0  0
   21.1553  -15.8026  -17.8672 C   0  0  0  0  0  0  0  0  0  0  0  0
   19.6899  -15.7015  -18.0714 C   0  0  0  0  0  0  0  0  0  0  0  0
   19.0060  -14.7475  -17.6309 O   0  0  0  0  0  0  0  0  0  0  0  0
   23.6640  -13.3357  -16.4066 C   0  0  0  0  0  0  0  0  0  0  0  0
   23.6790  -13.2497  -15.1408 O   0  0  0  0  0  0  0  0  0  0  0  0
   19.0508  -16.7126  -18.7818 O   0  0  0  0  0  0  0  0  0  0  0  0
   27.2199  -11.4939  -15.2651 C   0  0  0  0  0  0  0  0  0  0  0  0
   27.0847  -11.2633  -16.7556 C   0  0  2  0  0  0  0  0  0  0  0  0
   28.3752  -10.7424  -17.3068 C   0  0  0  0  0  0  0  0  0  0  0  0
   25.8661  -10.5070  -17.1332 C   0  0  0  0  0  0  0  0  0  0  0  0
   24.5601  -11.0183  -16.6458 C   0  0  2  0  0  0  0  0  0  0  0  0
   24.1063  -12.2447  -17.2236 N   0  0  0  0  0  0  0  0  0  0  0  0
   23.5085   -9.9642  -16.6532 C   0  0  0  0  0  0  0  0  0  0  0  0
   22.9763   -9.6511  -17.7445 O   0  0  0  0  0  0  0  0  0  0  0  0
   20.0368   -6.4829  -15.6412 N   0  0  0  0  0  0  0  0  0  0  0  0
   20.1648   -7.1730  -14.3822 C   0  0  0  0  0  0  0  0  0  0  0  0
   19.3769   -6.8610  -13.4667 O   0  0  0  0  0  0  0  0  0  0  0  0
   21.2288   -8.1959  -14.2969 C   0  0  0  0  0  0  0  0  0  0  0  0
   21.9702   -8.2790  -15.5867 C   0  0  2  0  0  0  0  0  0  0  0  0
   23.0605   -9.2767  -15.4925 N   0  0  0  0  0  0  0  0  0  0  0  0
   22.6077   -6.9735  -15.8775 C   0  0  0  0  0  0  0  0  0  0  0  0
   21.9299   -5.9077  -16.0054 O   0  0  0  0  0  0  0  0  0  0  0  0
   23.9836   -6.8770  -16.0179 O   0  0  0  0  0  0  0  0  0  0  0  0
  2  1  1  1
  3  2  1  0
  4  3  1  0
  5  4  1  0
  5  6  2  0
  7  2  1  0
  7  8  2  0
  9  5  1  0
 11 10  1  1
 11 12  1  0
 14 13  1  6
 13 11  1  0
 14 15  1  0
 15  7  1  0
 16 14  1  0
 17 16  2  0
 18 19  1  0
 19 21  1  0
 20 19  2  0
 22 21  1  1
 22 23  1  0
 23 16  1  0
 24 26  1  0
 24 22  1  0
 25 24  2  0
M  END
$$$$
