ELN.pdb
     RDKit          3D

 26 25  0  0  1  0  0  0  0  0999 V2000
   28.2737  -22.7310  -16.2582 N   0  0  0  0  0  0  0  0  0  0  0  0
   26.8271  -22.6394  -16.3369 C   0  0  1  0  0  0  0  0  0  0  0  0
   26.1880  -23.9494  -15.8609 C   0  0  0  0  0  0  0  0  0  0  0  0
   26.5506  -25.0742  -16.8398 C   0  0  0  0  0  0  0  0  0  0  0  0
   25.8027  -24.8834  -18.1060 C   0  0  0  0  0  0  0  0  0  0  0  0
   24.6102  -24.4978  -18.1401 O   0  0  0  0  0  0  0  0  0  0  0  0
   26.3988  -21.5322  -15.4460 C   0  0  0  0  0  0  0  0  0  0  0  0
   26.2270  -21.7447  -14.2070 O   0  0  0  0  0  0  0  0  0  0  0  0
   26.4566  -25.1467  -19.3054 O   0  0  0  0  0  0  0  0  0  0  0  0
   28.9578  -18.0339  -16.0819 C   0  0  0  0  0  0  0  0  0  0  0  0
   27.5363  -17.8395  -16.5663 C   0  0  2  0  0  0  0  0  0  0  0  0
   27.4774  -16.6808  -17.5120 C   0  0  0  0  0  0  0  0  0  0  0  0
   26.5305  -17.8388  -15.4764 C   0  0  0  0  0  0  0  0  0  0  0  0
   25.8312  -19.1156  -15.1843 C   0  0  2  0  0  0  0  0  0  0  0  0
   26.1830  -20.2311  -16.0063 N   0  0  0  0  0  0  0  0  0  0  0  0
   24.3575  -18.9341  -15.0746 C   0  0  0  0  0  0  0  0  0  0  0  0
   23.9134  -18.0777  -14.2735 O   0  0  0  0  0  0  0  0  0  0  0  0
   18.8866  -20.1297  -17.4435 N   0  0  0  0  0  0  0  0  0  0  0  0
   19.7722  -19.2996  -16.6661 C   0  0  0  0  0  0  0  0  0  0  0  0
   19.2578  -18.4937  -15.8647 O   0  0  0  0  0  0  0  0  0  0  0  0
   21.2208  -19.4861  -16.8956 C   0  0  0  0  0  0  0  0  0  0  0  0
   21.9546  -19.4773  -15.5988 C   0  0  2  0  0  0  0  0  0  0  0  0
   23.4047  -19.6759  -15.8245 N   0  0  0  0  0  0  0  0  0  0  0  0
   21.4925  -20.6076  -14.7596 C   0  0  0  0  0  0  0  0  0  0  0  0
   22.0891  -21.7281  -14.7530 O   0  0  0  0  0  0  0  0  0  0  0  0
   20.3799  -20.4706  -13.9439 O   0  0  0  0  0  0  0  0  0  0  0  0
  2  1  1  1
  3  2  1  0
  4  3  1  0
  5  4  1  0
  5  6  2  0
  7  2  1  0
  7  8  2  0
  9  5  1  0
 11 10  1  1
 11 12  1  0
 14 13  1  6
 13 11  1  0
 14 15  1  0
 15  7  1  0
 16 14  1  0
 17 16  2  0
 18 19  1  0
 19 21  1  0
 20 19  2  0
 22 21  1  6
 22 23  1  0
 23 16  1  0
 24 26  1  0
 24 22  1  0
 25 24  2  0
M  END
$$$$
