ELN.pdb
     RDKit          3D

 26 25  0  0  1  0  0  0  0  0999 V2000
   31.3870  -12.4132  -17.6678 N   0  0  0  0  0  0  0  0  0  0  0  0
   31.4256  -11.4672  -18.7682 C   0  0  1  0  0  0  0  0  0  0  0  0
   30.2328  -11.6964  -19.7041 C   0  0  0  0  0  0  0  0  0  0  0  0
   30.3894  -13.0552  -20.3998 C   0  0  0  0  0  0  0  0  0  0  0  0
   30.0449  -12.9145  -21.8353 C   0  0  0  0  0  0  0  0  0  0  0  0
   28.8716  -12.7341  -22.2387 O   0  0  0  0  0  0  0  0  0  0  0  0
   31.3406  -10.1029  -18.1898 C   0  0  0  0  0  0  0  0  0  0  0  0
   30.5544   -9.8720  -17.2210 O   0  0  0  0  0  0  0  0  0  0  0  0
   31.0715  -12.9883  -22.7712 O   0  0  0  0  0  0  0  0  0  0  0  0
   33.1009   -7.5398  -15.3567 C   0  0  0  0  0  0  0  0  0  0  0  0
   34.0118   -7.6336  -16.5627 C   0  0  2  0  0  0  0  0  0  0  0  0
   35.3584   -7.0740  -16.2252 C   0  0  0  0  0  0  0  0  0  0  0  0
   33.3960   -7.1310  -17.8148 C   0  0  0  0  0  0  0  0  0  0  0  0
   32.1011   -7.7259  -18.2320 C   0  0  2  0  0  0  0  0  0  0  0  0
   32.1539   -9.0604  -18.7420 N   0  0  0  0  0  0  0  0  0  0  0  0
   31.3237   -6.8119  -19.1136 C   0  0  0  0  0  0  0  0  0  0  0  0
   31.5602   -6.8163  -20.3450 O   0  0  0  0  0  0  0  0  0  0  0  0
   27.9839   -3.8985  -21.3781 N   0  0  0  0  0  0  0  0  0  0  0  0
   27.7563   -5.3205  -21.3179 C   0  0  0  0  0  0  0  0  0  0  0  0
   26.8694   -5.7979  -22.0539 O   0  0  0  0  0  0  0  0  0  0  0  0
   28.6060   -6.0845  -20.3797 C   0  0  0  0  0  0  0  0  0  0  0  0
   29.4882   -5.1608  -19.6123 C   0  0  2  0  0  0  0  0  0  0  0  0
   30.3185   -5.9203  -18.6496 N   0  0  0  0  0  0  0  0  0  0  0  0
   28.6568   -4.2265  -18.8178 C   0  0  0  0  0  0  0  0  0  0  0  0
   28.2839   -4.4978  -17.6350 O   0  0  0  0  0  0  0  0  0  0  0  0
   28.2585   -3.0103  -19.3508 O   0  0  0  0  0  0  0  0  0  0  0  0
  2  1  1  1
  3  2  1  0
  4  3  1  0
  5  4  1  0
  5  6  2  0
  7  2  1  0
  7  8  2  0
  9  5  1  0
 11 10  1  1
 11 12  1  0
 14 13  1  6
 13 11  1  0
 14 15  1  0
 15  7  1  0
 16 14  1  0
 17 16  2  0
 18 19  1  0
 19 21  1  0
 20 19  2  0
 22 21  1  1
 22 23  1  0
 23 16  1  0
 24 26  1  0
 24 22  1  0
 25 24  2  0
M  END
$$$$
