ELN.pdb
     RDKit          3D

 26 25  0  0  1  0  0  0  0  0999 V2000
   27.3391  -21.3391  -15.7615 N   0  0  0  0  0  0  0  0  0  0  0  0
   26.2946  -20.3641  -15.5058 C   0  0  1  0  0  0  0  0  0  0  0  0
   25.5877  -19.9916  -16.8145 C   0  0  0  0  0  0  0  0  0  0  0  0
   26.5610  -19.2160  -17.7123 C   0  0  0  0  0  0  0  0  0  0  0  0
   25.8302  -18.6924  -18.8916 C   0  0  0  0  0  0  0  0  0  0  0  0
   25.0654  -17.7007  -18.8326 O   0  0  0  0  0  0  0  0  0  0  0  0
   25.3164  -20.9874  -14.5797 C   0  0  0  0  0  0  0  0  0  0  0  0
   24.8122  -22.1184  -14.8561 O   0  0  0  0  0  0  0  0  0  0  0  0
   26.0029  -19.3339  -20.1139 O   0  0  0  0  0  0  0  0  0  0  0  0
   26.1626  -22.2008  -10.7061 C   0  0  0  0  0  0  0  0  0  0  0  0
   25.6525  -20.7872  -10.5202 C   0  0  2  0  0  0  0  0  0  0  0  0
   25.9168  -20.3335   -9.1185 C   0  0  0  0  0  0  0  0  0  0  0  0
   24.2708  -20.5822  -11.0184 C   0  0  0  0  0  0  0  0  0  0  0  0
   24.0116  -20.8453  -12.4565 C   0  0  2  0  0  0  0  0  0  0  0  0
   24.9536  -20.2936  -13.3796 N   0  0  0  0  0  0  0  0  0  0  0  0
   22.6033  -20.5448  -12.8354 C   0  0  0  0  0  0  0  0  0  0  0  0
   21.6767  -21.0164  -12.1345 O   0  0  0  0  0  0  0  0  0  0  0  0
   18.9311  -17.4241  -16.7518 N   0  0  0  0  0  0  0  0  0  0  0  0
   19.2561  -18.0965  -15.5191 C   0  0  0  0  0  0  0  0  0  0  0  0
   18.3268  -18.3197  -14.7173 O   0  0  0  0  0  0  0  0  0  0  0  0
   20.6752  -18.4615  -15.3220 C   0  0  0  0  0  0  0  0  0  0  0  0
   20.8036  -19.4633  -14.2264 C   0  0  2  0  0  0  0  0  0  0  0  0
   22.2306  -19.7504  -13.9536 N   0  0  0  0  0  0  0  0  0  0  0  0
   20.1820  -20.7408  -14.6470 C   0  0  0  0  0  0  0  0  0  0  0  0
   20.7033  -21.4816  -15.5363 O   0  0  0  0  0  0  0  0  0  0  0  0
   18.9966  -21.1708  -14.0708 O   0  0  0  0  0  0  0  0  0  0  0  0
  2  1  1  6
  3  2  1  0
  4  3  1  0
  5  4  1  0
  5  6  2  0
  7  2  1  0
  7  8  2  0
  9  5  1  0
 11 10  1  1
 11 12  1  0
 14 13  1  1
 13 11  1  0
 14 15  1  0
 15  7  1  0
 16 14  1  0
 17 16  2  0
 18 19  1  0
 19 21  1  0
 20 19  2  0
 22 21  1  6
 22 23  1  0
 23 16  1  0
 24 26  1  0
 24 22  1  0
 25 24  2  0
M  END
$$$$
