ELN.pdb
     RDKit          3D

 26 25  0  0  1  0  0  0  0  0999 V2000
   21.5551  -14.9668  -16.3590 N   0  0  0  0  0  0  0  0  0  0  0  0
   21.8293  -13.8937  -17.2973 C   0  0  1  0  0  0  0  0  0  0  0  0
   20.5506  -13.5130  -18.0530 C   0  0  0  0  0  0  0  0  0  0  0  0
   20.0109  -14.7472  -18.7882 C   0  0  0  0  0  0  0  0  0  0  0  0
   18.8229  -14.3620  -19.5878 C   0  0  0  0  0  0  0  0  0  0  0  0
   18.4350  -13.1752  -19.7012 O   0  0  0  0  0  0  0  0  0  0  0  0
   22.3038  -12.7247  -16.5154 C   0  0  0  0  0  0  0  0  0  0  0  0
   21.5996  -12.2698  -15.5631 O   0  0  0  0  0  0  0  0  0  0  0  0
   18.1104  -15.3650  -20.2370 O   0  0  0  0  0  0  0  0  0  0  0  0
   26.1457  -12.1229  -14.2719 C   0  0  0  0  0  0  0  0  0  0  0  0
   26.3996  -11.7669  -15.7217 C   0  0  2  0  0  0  0  0  0  0  0  0
   27.8635  -11.5430  -15.9395 C   0  0  0  0  0  0  0  0  0  0  0  0
   25.4976  -10.7111  -16.2425 C   0  0  0  0  0  0  0  0  0  0  0  0
   24.0354  -10.9596  -16.1739 C   0  0  2  0  0  0  0  0  0  0  0  0
   23.5598  -12.1236  -16.8541 N   0  0  0  0  0  0  0  0  0  0  0  0
   23.2448   -9.7434  -16.5097 C   0  0  0  0  0  0  0  0  0  0  0  0
   23.1745   -9.3818  -17.7082 O   0  0  0  0  0  0  0  0  0  0  0  0
   18.5151   -7.3057  -17.8231 N   0  0  0  0  0  0  0  0  0  0  0  0
   19.7587   -7.0333  -17.1472 C   0  0  0  0  0  0  0  0  0  0  0  0
   20.0638   -5.8395  -16.9522 O   0  0  0  0  0  0  0  0  0  0  0  0
   20.5610   -8.2082  -16.7450 C   0  0  0  0  0  0  0  0  0  0  0  0
   21.7652   -7.7746  -15.9820 C   0  0  2  0  0  0  0  0  0  0  0  0
   22.5554   -8.9509  -15.5519 N   0  0  0  0  0  0  0  0  0  0  0  0
   21.3439   -7.0675  -14.7500 C   0  0  0  0  0  0  0  0  0  0  0  0
   21.5143   -7.5678  -13.5957 O   0  0  0  0  0  0  0  0  0  0  0  0
   20.7444   -5.8196  -14.8239 O   0  0  0  0  0  0  0  0  0  0  0  0
  2  1  1  1
  3  2  1  0
  4  3  1  0
  5  4  1  0
  5  6  2  0
  7  2  1  0
  7  8  2  0
  9  5  1  0
 11 10  1  1
 11 12  1  0
 14 13  1  6
 13 11  1  0
 14 15  1  0
 15  7  1  0
 16 14  1  0
 17 16  2  0
 18 19  1  0
 19 21  1  0
 20 19  2  0
 22 21  1  1
 22 23  1  0
 23 16  1  0
 24 26  1  0
 24 22  1  0
 25 24  2  0
M  END
$$$$
