ELN.pdb
     RDKit          3D

 26 25  0  0  1  0  0  0  0  0999 V2000
   25.9281  -20.2069  -17.2581 N   0  0  0  0  0  0  0  0  0  0  0  0
   25.6041  -19.2913  -16.1793 C   0  0  1  0  0  0  0  0  0  0  0  0
   24.7072  -18.1606  -16.6975 C   0  0  0  0  0  0  0  0  0  0  0  0
   23.7099  -18.7316  -17.7145 C   0  0  0  0  0  0  0  0  0  0  0  0
   24.2364  -18.5285  -19.0859 C   0  0  0  0  0  0  0  0  0  0  0  0
   24.4711  -19.4768  -19.8716 O   0  0  0  0  0  0  0  0  0  0  0  0
   24.8733  -20.0612  -15.1419 C   0  0  0  0  0  0  0  0  0  0  0  0
   24.1887  -21.0777  -15.4704 O   0  0  0  0  0  0  0  0  0  0  0  0
   24.4804  -17.2275  -19.5136 O   0  0  0  0  0  0  0  0  0  0  0  0
   25.3309  -20.9668   -9.1153 C   0  0  0  0  0  0  0  0  0  0  0  0
   24.9760  -21.2732  -10.5551 C   0  0  2  0  0  0  0  0  0  0  0  0
   25.9983  -22.1944  -11.1439 C   0  0  0  0  0  0  0  0  0  0  0  0
   24.6495  -20.0693  -11.3573 C   0  0  0  0  0  0  0  0  0  0  0  0
   24.1853  -20.2768  -12.7522 C   0  0  2  0  0  0  0  0  0  0  0  0
   24.9528  -19.6379  -13.7752 N   0  0  0  0  0  0  0  0  0  0  0  0
   22.7248  -20.0269  -12.8990 C   0  0  0  0  0  0  0  0  0  0  0  0
   22.3449  -18.9221  -13.3544 O   0  0  0  0  0  0  0  0  0  0  0  0
   18.0300  -20.6898  -14.3720 N   0  0  0  0  0  0  0  0  0  0  0  0
   19.1143  -21.0568  -15.2478 C   0  0  0  0  0  0  0  0  0  0  0  0
   18.8441  -21.2752  -16.4459 O   0  0  0  0  0  0  0  0  0  0  0  0
   20.4572  -21.1392  -14.6348 C   0  0  0  0  0  0  0  0  0  0  0  0
   20.3724  -20.8854  -13.1689 C   0  0  2  0  0  0  0  0  0  0  0  0
   21.7162  -20.9665  -12.5520 N   0  0  0  0  0  0  0  0  0  0  0  0
   19.5436  -21.9348  -12.5309 C   0  0  0  0  0  0  0  0  0  0  0  0
   18.3049  -22.0577  -12.7801 O   0  0  0  0  0  0  0  0  0  0  0  0
   20.1065  -22.8273  -11.6315 O   0  0  0  0  0  0  0  0  0  0  0  0
  2  1  1  6
  3  2  1  0
  4  3  1  0
  5  4  1  0
  5  6  2  0
  7  2  1  0
  7  8  2  0
  9  5  1  0
 11 10  1  1
 11 12  1  0
 14 13  1  1
 13 11  1  0
 14 15  1  0
 15  7  1  0
 16 14  1  0
 17 16  2  0
 18 19  1  0
 19 21  1  0
 20 19  2  0
 22 21  1  6
 22 23  1  0
 23 16  1  0
 24 26  1  0
 24 22  1  0
 25 24  2  0
M  END
$$$$
