ELN.pdb
     RDKit          3D

 26 25  0  0  1  0  0  0  0  0999 V2000
   24.4860  -25.4416  -15.2179 N   0  0  0  0  0  0  0  0  0  0  0  0
   24.5060  -24.1041  -15.7817 C   0  0  1  0  0  0  0  0  0  0  0  0
   23.2888  -23.8956  -16.6906 C   0  0  0  0  0  0  0  0  0  0  0  0
   22.1939  -24.9005  -16.3084 C   0  0  0  0  0  0  0  0  0  0  0  0
   21.0262  -24.7190  -17.2043 C   0  0  0  0  0  0  0  0  0  0  0  0
   20.9753  -23.8262  -18.0830 O   0  0  0  0  0  0  0  0  0  0  0  0
   24.4470  -23.1411  -14.6537 C   0  0  0  0  0  0  0  0  0  0  0  0
   24.0003  -23.5117  -13.5255 O   0  0  0  0  0  0  0  0  0  0  0  0
   19.9419  -25.5783  -17.0583 O   0  0  0  0  0  0  0  0  0  0  0  0
   27.8455  -20.9208  -13.0896 C   0  0  0  0  0  0  0  0  0  0  0  0
   27.2100  -20.0643  -14.1645 C   0  0  2  0  0  0  0  0  0  0  0  0
   28.1171  -18.9236  -14.5056 C   0  0  0  0  0  0  0  0  0  0  0  0
   25.7976  -19.7084  -13.8849 C   0  0  0  0  0  0  0  0  0  0  0  0
   24.8077  -20.8135  -13.8275 C   0  0  2  0  0  0  0  0  0  0  0  0
   24.8978  -21.7969  -14.8613 N   0  0  0  0  0  0  0  0  0  0  0  0
   23.4184  -20.3112  -13.6417 C   0  0  0  0  0  0  0  0  0  0  0  0
   23.1897  -19.4999  -12.7134 O   0  0  0  0  0  0  0  0  0  0  0  0
   20.3845  -17.6324  -14.3151 N   0  0  0  0  0  0  0  0  0  0  0  0
   19.9307  -18.4110  -15.4400 C   0  0  0  0  0  0  0  0  0  0  0  0
   19.3257  -17.8136  -16.3529 O   0  0  0  0  0  0  0  0  0  0  0  0
   20.2302  -19.8583  -15.4031 C   0  0  0  0  0  0  0  0  0  0  0  0
   20.9533  -20.2044  -14.1471 C   0  0  2  0  0  0  0  0  0  0  0  0
   22.3167  -20.6942  -14.4541 N   0  0  0  0  0  0  0  0  0  0  0  0
   20.2467  -21.3083  -13.4560 C   0  0  0  0  0  0  0  0  0  0  0  0
   19.4028  -21.0927  -12.5324 O   0  0  0  0  0  0  0  0  0  0  0  0
   20.4893  -22.6279  -13.8052 O   0  0  0  0  0  0  0  0  0  0  0  0
  2  1  1  1
  3  2  1  0
  4  3  1  0
  5  4  1  0
  5  6  2  0
  7  2  1  0
  7  8  2  0
  9  5  1  0
 11 10  1  1
 11 12  1  0
 14 13  1  6
 13 11  1  0
 14 15  1  0
 15  7  1  0
 16 14  1  0
 17 16  2  0
 18 19  1  0
 19 21  1  0
 20 19  2  0
 22 21  1  6
 22 23  1  0
 23 16  1  0
 24 26  1  0
 24 22  1  0
 25 24  2  0
M  END
$$$$
