REE.pdb
     RDKit          3D

 30 29  0  0  1  0  0  0  0  0999 V2000
   24.8262  -13.9357  -19.7054 N   0  0  0  0  0  0  0  0  0  0  0  0
   23.6711  -14.3689  -20.4410 C   0  0  0  0  0  0  0  0  0  0  0  0
   23.6028  -15.5869  -20.7966 N   0  0  0  0  0  0  0  0  0  0  0  0
   22.6193  -13.4846  -20.7713 N   0  0  0  0  0  0  0  0  0  0  0  0
   22.3544  -12.3645  -19.8900 C   0  0  0  0  0  0  0  0  0  0  0  0
   21.3090  -11.4437  -20.3896 C   0  0  0  0  0  0  0  0  0  0  0  0
   20.9536  -10.3927  -19.3912 C   0  0  0  0  0  0  0  0  0  0  0  0
   20.3970  -10.8460  -18.0759 C   0  0  2  0  0  0  0  0  0  0  0  0
   19.2873  -11.6944  -18.2780 N   0  0  0  0  0  0  0  0  0  0  0  0
   20.0807   -9.6094  -17.3147 C   0  0  0  0  0  0  0  0  0  0  0  0
   19.1382   -8.8846  -17.7305 O   0  0  0  0  0  0  0  0  0  0  0  0
   22.8863  -16.0160  -21.4080 N   0  0  0  0  0  0  0  0  0  0  0  0
   20.7826   -9.2060  -16.1502 C   0  0  2  0  0  0  0  0  0  0  0  0
   20.5073   -7.9392  -15.4886 C   0  0  0  0  0  0  0  0  0  0  0  0
   21.2555   -7.9934  -14.1511 C   0  0  0  0  0  0  0  0  0  0  0  0
   20.8983   -6.6906  -13.4242 C   0  0  0  0  0  0  0  0  0  0  0  0
   21.5900   -6.6313  -12.1065 O   0  0  0  0  0  0  0  0  0  0  0  0
   22.7799   -6.2085  -12.0733 C   0  0  0  0  0  0  0  0  0  0  0  0
   20.9024   -6.7835  -16.2887 O   0  0  0  0  0  0  0  0  0  0  0  0
   21.7262   -6.9430  -17.2316 O   0  0  0  0  0  0  0  0  0  0  0  0
   20.9003   -7.0395  -10.9918 N   0  0  0  0  0  0  0  0  0  0  0  0
   20.3691   -5.5202  -16.0068 C   0  0  2  0  0  0  0  0  0  0  0  0
   20.3867   -4.4426  -16.9751 C   0  0  0  0  0  0  0  0  0  0  0  0
   19.8440   -4.8748  -18.3002 C   0  0  0  0  0  0  0  0  0  0  0  0
   20.8313   -5.2308  -19.3463 C   0  0  0  0  0  0  0  0  0  0  0  0
   20.4046   -5.0360  -20.7367 O   0  0  0  0  0  0  0  0  0  0  0  0
   19.2845   -4.5261  -20.9716 C   0  0  0  0  0  0  0  0  0  0  0  0
   19.7610   -3.2293  -16.4091 O   0  0  0  0  0  0  0  0  0  0  0  0
   19.8100   -2.1324  -17.0141 O   0  0  0  0  0  0  0  0  0  0  0  0
   21.1898   -5.3927  -21.8287 O   0  0  0  0  0  0  0  0  0  0  0  0
  1  2  1  0
  2  3  2  0
  4  2  1  0
  4  5  1  0
  6  5  1  0
  7  6  1  0
  8  9  1  6
  8  7  1  0
 10  8  1  0
 10 12  1  0
 11 10  2  0
 13 12  1  0
 13 18  1  0
 13 14  1  1
 15 14  1  0
 16 17  2  0
 16 15  1  0
 18 19  2  0
 20 16  1  0
 21 18  1  0
 21 22  1  0
 22 27  1  0
 23 24  1  0
 22 23  1  6
 25 24  1  0
 25 29  1  0
 26 25  2  0
 27 28  2  0
 27 30  1  0
M  END
$$$$
