REE.pdb
     RDKit          3D

 30 29  0  0  1  0  0  0  0  0999 V2000
   27.8609  -16.2336  -19.2806 N   0  0  0  0  0  0  0  0  0  0  0  0
   28.9686  -16.6020  -18.4436 C   0  0  0  0  0  0  0  0  0  0  0  0
   30.0841  -16.8579  -18.9955 N   0  0  0  0  0  0  0  0  0  0  0  0
   28.8500  -16.6817  -17.0376 N   0  0  0  0  0  0  0  0  0  0  0  0
   28.2122  -17.8494  -16.4620 C   0  0  0  0  0  0  0  0  0  0  0  0
   26.8586  -18.1172  -16.9972 C   0  0  0  0  0  0  0  0  0  0  0  0
   25.9849  -18.8153  -16.0087 C   0  0  0  0  0  0  0  0  0  0  0  0
   26.5752  -19.9673  -15.2539 C   0  0  2  0  0  0  0  0  0  0  0  0
   27.1553  -20.8940  -16.1464 N   0  0  0  0  0  0  0  0  0  0  0  0
   25.4719  -20.5297  -14.4324 C   0  0  0  0  0  0  0  0  0  0  0  0
   24.7289  -21.4006  -14.9578 O   0  0  0  0  0  0  0  0  0  0  0  0
   30.9646  -17.1251  -18.5214 N   0  0  0  0  0  0  0  0  0  0  0  0
   25.2142  -20.1375  -13.0940 C   0  0  1  0  0  0  0  0  0  0  0  0
   24.1210  -20.7114  -12.3233 C   0  0  0  0  0  0  0  0  0  0  0  0
   24.5290  -20.5751  -10.8513 C   0  0  0  0  0  0  0  0  0  0  0  0
   25.9025  -21.2491  -10.7387 C   0  0  0  0  0  0  0  0  0  0  0  0
   26.4006  -21.1693   -9.3373 O   0  0  0  0  0  0  0  0  0  0  0  0
   25.6064  -20.7661   -8.4416 C   0  0  0  0  0  0  0  0  0  0  0  0
   22.8374  -20.0709  -12.5953 O   0  0  0  0  0  0  0  0  0  0  0  0
   22.7926  -18.8158  -12.7210 O   0  0  0  0  0  0  0  0  0  0  0  0
   27.6993  -21.5379   -9.0876 N   0  0  0  0  0  0  0  0  0  0  0  0
   21.6780  -20.8465  -12.7142 C   0  0  1  0  0  0  0  0  0  0  0  0
   20.3969  -20.2687  -13.0664 C   0  0  0  0  0  0  0  0  0  0  0  0
   19.9233  -20.7369  -14.4057 C   0  0  0  0  0  0  0  0  0  0  0  0
   18.6108  -20.2283  -14.8691 C   0  0  0  0  0  0  0  0  0  0  0  0
   18.1598  -20.6960  -16.1848 O   0  0  0  0  0  0  0  0  0  0  0  0
   17.0651  -20.2912  -16.6405 C   0  0  0  0  0  0  0  0  0  0  0  0
   19.4292  -20.4471  -11.9638 O   0  0  0  0  0  0  0  0  0  0  0  0
   19.5035  -21.4298  -11.1890 O   0  0  0  0  0  0  0  0  0  0  0  0
   18.8944  -21.5805  -16.9686 O   0  0  0  0  0  0  0  0  0  0  0  0
  1  2  1  0
  2  3  2  0
  4  2  1  0
  4  5  1  0
  6  5  1  0
  7  6  1  0
  8  9  1  6
  8  7  1  0
 10  8  1  0
 10 12  1  0
 11 10  2  0
 13 12  1  0
 13 18  1  0
 13 14  1  6
 15 14  1  0
 16 17  2  0
 16 15  1  0
 18 19  2  0
 20 16  1  0
 21 18  1  0
 21 22  1  0
 22 27  1  0
 23 24  1  0
 22 23  1  1
 25 24  1  0
 25 29  1  0
 26 25  2  0
 27 28  2  0
 27 30  1  0
M  END
$$$$
