REE.pdb
     RDKit          3D

 30 29  0  0  1  0  0  0  0  0999 V2000
   29.9553  -20.0177  -12.2910 N   0  0  0  0  0  0  0  0  0  0  0  0
   28.9374  -20.9886  -12.0005 C   0  0  0  0  0  0  0  0  0  0  0  0
   28.7515  -21.3254  -10.7895 N   0  0  0  0  0  0  0  0  0  0  0  0
   28.1446  -21.5685  -13.0166 N   0  0  0  0  0  0  0  0  0  0  0  0
   28.3205  -21.1072  -14.3797 C   0  0  0  0  0  0  0  0  0  0  0  0
   27.8024  -19.7421  -14.6214 C   0  0  0  0  0  0  0  0  0  0  0  0
   26.4437  -19.7516  -15.2392 C   0  0  0  0  0  0  0  0  0  0  0  0
   25.7276  -21.0654  -15.3188 C   0  0  2  0  0  0  0  0  0  0  0  0
   26.0452  -21.7260  -16.5250 N   0  0  0  0  0  0  0  0  0  0  0  0
   24.2824  -20.7565  -15.1621 C   0  0  0  0  0  0  0  0  0  0  0  0
   23.5116  -21.0361  -16.1182 O   0  0  0  0  0  0  0  0  0  0  0  0
   28.0612  -22.0100  -10.4344 N   0  0  0  0  0  0  0  0  0  0  0  0
   23.7300  -20.1660  -13.9970 C   0  0  1  0  0  0  0  0  0  0  0  0
   22.3007  -19.9273  -13.8616 C   0  0  0  0  0  0  0  0  0  0  0  0
   22.0421  -19.7719  -12.3581 C   0  0  0  0  0  0  0  0  0  0  0  0
   20.5167  -19.7197  -12.2039 C   0  0  0  0  0  0  0  0  0  0  0  0
   20.1474  -19.6713  -10.7618 O   0  0  0  0  0  0  0  0  0  0  0  0
   21.0756  -19.5999   -9.9081 C   0  0  0  0  0  0  0  0  0  0  0  0
   21.8457  -18.7634  -14.6168 O   0  0  0  0  0  0  0  0  0  0  0  0
   22.4745  -17.6749  -14.5039 O   0  0  0  0  0  0  0  0  0  0  0  0
   18.8155  -19.7069  -10.4308 N   0  0  0  0  0  0  0  0  0  0  0  0
   20.7270  -18.8634  -15.4525 C   0  0  2  0  0  0  0  0  0  0  0  0
   20.2763  -17.7572  -16.2726 C   0  0  0  0  0  0  0  0  0  0  0  0
   19.8177  -18.2136  -17.6212 C   0  0  0  0  0  0  0  0  0  0  0  0
   19.2342  -17.1857  -18.5151 C   0  0  0  0  0  0  0  0  0  0  0  0
   18.7493  -17.6562  -19.8176 O   0  0  0  0  0  0  0  0  0  0  0  0
   18.9148  -18.8556  -20.1400 C   0  0  0  0  0  0  0  0  0  0  0  0
   19.3054  -16.9262  -15.5304 O   0  0  0  0  0  0  0  0  0  0  0  0
   18.4553  -17.4461  -14.7697 O   0  0  0  0  0  0  0  0  0  0  0  0
   18.1037  -16.8286  -20.7312 O   0  0  0  0  0  0  0  0  0  0  0  0
  1  2  1  0
  2  3  2  0
  4  2  1  0
  4  5  1  0
  6  5  1  0
  7  6  1  0
  8  9  1  6
  8  7  1  0
 10  8  1  0
 10 12  1  0
 11 10  2  0
 13 12  1  0
 13 18  1  0
 13 14  1  6
 15 14  1  0
 16 17  2  0
 16 15  1  0
 18 19  2  0
 20 16  1  0
 21 18  1  0
 21 22  1  0
 22 27  1  0
 23 24  1  0
 22 23  1  6
 25 24  1  0
 25 29  1  0
 26 25  2  0
 27 28  2  0
 27 30  1  0
M  END
$$$$
