REE.pdb
     RDKit          3D

 30 29  0  0  1  0  0  0  0  0999 V2000
   24.8070  -23.1019  -20.8187 N   0  0  0  0  0  0  0  0  0  0  0  0
   26.0124  -22.3225  -20.8725 C   0  0  0  0  0  0  0  0  0  0  0  0
   26.9321  -22.6862  -21.6702 N   0  0  0  0  0  0  0  0  0  0  0  0
   26.1961  -21.1724  -20.0721 N   0  0  0  0  0  0  0  0  0  0  0  0
   25.2154  -20.8800  -19.0452 C   0  0  0  0  0  0  0  0  0  0  0  0
   24.3976  -22.0479  -18.6484 C   0  0  0  0  0  0  0  0  0  0  0  0
   24.2956  -22.1926  -17.1663 C   0  0  0  0  0  0  0  0  0  0  0  0
   24.3131  -20.9396  -16.3448 C   0  0  2  0  0  0  0  0  0  0  0  0
   25.0075  -19.9159  -17.0245 N   0  0  0  0  0  0  0  0  0  0  0  0
   24.9150  -21.3126  -15.0382 C   0  0  0  0  0  0  0  0  0  0  0  0
   24.3982  -22.2684  -14.4011 O   0  0  0  0  0  0  0  0  0  0  0  0
   27.8509  -22.2299  -21.8078 N   0  0  0  0  0  0  0  0  0  0  0  0
   26.0357  -20.6505  -14.4750 C   0  0  1  0  0  0  0  0  0  0  0  0
   26.5383  -20.9841  -13.1505 C   0  0  0  0  0  0  0  0  0  0  0  0
   28.0667  -20.9107  -13.2513 C   0  0  0  0  0  0  0  0  0  0  0  0
   28.5914  -21.2804  -11.8580 C   0  0  0  0  0  0  0  0  0  0  0  0
   30.0808  -21.2833  -11.8540 O   0  0  0  0  0  0  0  0  0  0  0  0
   30.6832  -20.8876  -12.8913 C   0  0  0  0  0  0  0  0  0  0  0  0
   26.0172  -20.1049  -12.1077 O   0  0  0  0  0  0  0  0  0  0  0  0
   25.8495  -18.8807  -12.3650 O   0  0  0  0  0  0  0  0  0  0  0  0
   30.7265  -21.7165  -10.7225 N   0  0  0  0  0  0  0  0  0  0  0  0
   25.7101  -20.6219  -10.8435 C   0  0  1  0  0  0  0  0  0  0  0  0
   24.4967  -20.2628  -10.1380 C   0  0  0  0  0  0  0  0  0  0  0  0
   23.2764  -20.5043  -10.9686 C   0  0  0  0  0  0  0  0  0  0  0  0
   21.9653  -20.2606  -10.3223 C   0  0  0  0  0  0  0  0  0  0  0  0
   21.0440  -19.3692  -11.0362 O   0  0  0  0  0  0  0  0  0  0  0  0
   20.9762  -19.4263  -12.2861 C   0  0  0  0  0  0  0  0  0  0  0  0
   24.4743  -20.8864   -8.7984 O   0  0  0  0  0  0  0  0  0  0  0  0
   23.5072  -20.7144   -8.0194 O   0  0  0  0  0  0  0  0  0  0  0  0
   20.2264  -18.4473  -10.3899 O   0  0  0  0  0  0  0  0  0  0  0  0
  1  2  1  0
  2  3  2  0
  4  2  1  0
  4  5  1  0
  6  5  1  0
  7  6  1  0
  8  9  1  6
  8  7  1  0
 10  8  1  0
 10 12  1  0
 11 10  2  0
 13 12  1  0
 13 18  1  0
 13 14  1  1
 15 14  1  0
 16 17  2  0
 16 15  1  0
 18 19  2  0
 20 16  1  0
 21 18  1  0
 21 22  1  0
 22 27  1  0
 23 24  1  0
 22 23  1  1
 25 24  1  0
 25 29  1  0
 26 25  2  0
 27 28  2  0
 27 30  1  0
M  END
$$$$
