REE.pdb
     RDKit          3D

 30 29  0  0  1  0  0  0  0  0999 V2000
   27.1918  -16.8942  -19.8497 N   0  0  0  0  0  0  0  0  0  0  0  0
   28.6121  -17.1052  -19.8112 C   0  0  0  0  0  0  0  0  0  0  0  0
   29.3752  -16.1405  -20.1301 N   0  0  0  0  0  0  0  0  0  0  0  0
   29.1745  -18.3437  -19.4279 N   0  0  0  0  0  0  0  0  0  0  0  0
   29.4001  -18.5946  -18.0180 C   0  0  0  0  0  0  0  0  0  0  0  0
   28.3076  -18.1152  -17.1422 C   0  0  0  0  0  0  0  0  0  0  0  0
   27.3548  -19.2040  -16.7752 C   0  0  0  0  0  0  0  0  0  0  0  0
   27.8932  -20.3604  -15.9891 C   0  0  2  0  0  0  0  0  0  0  0  0
   28.4624  -21.3199  -16.8537 N   0  0  0  0  0  0  0  0  0  0  0  0
   26.7563  -20.8742  -15.1818 C   0  0  0  0  0  0  0  0  0  0  0  0
   26.0992  -21.8468  -15.6389 O   0  0  0  0  0  0  0  0  0  0  0  0
   30.4100  -16.1485  -20.1518 N   0  0  0  0  0  0  0  0  0  0  0  0
   26.3754  -20.3280  -13.9296 C   0  0  2  0  0  0  0  0  0  0  0  0
   25.3355  -20.9351  -13.1120 C   0  0  0  0  0  0  0  0  0  0  0  0
   25.6413  -20.5194  -11.6680 C   0  0  0  0  0  0  0  0  0  0  0  0
   24.6649  -21.3155  -10.7927 C   0  0  0  0  0  0  0  0  0  0  0  0
   24.8388  -20.9445   -9.3607 O   0  0  0  0  0  0  0  0  0  0  0  0
   25.9905  -20.6096   -8.9646 C   0  0  0  0  0  0  0  0  0  0  0  0
   23.9902  -20.5409  -13.5202 O   0  0  0  0  0  0  0  0  0  0  0  0
   23.7549  -19.3252  -13.7646 O   0  0  0  0  0  0  0  0  0  0  0  0
   23.7383  -20.9849   -8.5410 N   0  0  0  0  0  0  0  0  0  0  0  0
   22.9820  -21.5052  -13.6369 C   0  0  1  0  0  0  0  0  0  0  0  0
   21.6416  -21.1701  -14.0732 C   0  0  0  0  0  0  0  0  0  0  0  0
   20.9800  -20.1999  -13.1467 C   0  0  0  0  0  0  0  0  0  0  0  0
   19.6268  -19.7279  -13.5236 C   0  0  0  0  0  0  0  0  0  0  0  0
   19.0156  -18.7308  -12.6374 O   0  0  0  0  0  0  0  0  0  0  0  0
   19.7446  -18.0560  -11.8738 C   0  0  0  0  0  0  0  0  0  0  0  0
   21.6462  -20.7716  -15.4962 O   0  0  0  0  0  0  0  0  0  0  0  0
   22.6757  -20.2998  -16.0339 O   0  0  0  0  0  0  0  0  0  0  0  0
   17.6458  -18.4889  -12.5976 O   0  0  0  0  0  0  0  0  0  0  0  0
  1  2  1  0
  2  3  2  0
  4  2  1  0
  4  5  1  0
  6  5  1  0
  7  6  1  0
  8  9  1  6
  8  7  1  0
 10  8  1  0
 10 12  1  0
 11 10  2  0
 13 12  1  0
 13 18  1  0
 13 14  1  1
 15 14  1  0
 16 17  2  0
 16 15  1  0
 18 19  2  0
 20 16  1  0
 21 18  1  0
 21 22  1  0
 22 27  1  0
 23 24  1  0
 22 23  1  1
 25 24  1  0
 25 29  1  0
 26 25  2  0
 27 28  2  0
 27 30  1  0
M  END
$$$$
