REE.pdb
     RDKit          3D

 30 29  0  0  1  0  0  0  0  0999 V2000
   26.5397  -21.7081  -11.5056 N   0  0  0  0  0  0  0  0  0  0  0  0
   25.9688  -20.4065  -11.2985 C   0  0  0  0  0  0  0  0  0  0  0  0
   24.9825  -20.2984  -10.5047 N   0  0  0  0  0  0  0  0  0  0  0  0
   26.4742  -19.2562  -11.9456 N   0  0  0  0  0  0  0  0  0  0  0  0
   27.5025  -19.4247  -12.9535 C   0  0  0  0  0  0  0  0  0  0  0  0
   27.3264  -18.5568  -14.1394 C   0  0  0  0  0  0  0  0  0  0  0  0
   26.3309  -19.1093  -15.1045 C   0  0  0  0  0  0  0  0  0  0  0  0
   26.3900  -20.5777  -15.3970 C   0  0  2  0  0  0  0  0  0  0  0  0
   27.4120  -20.8520  -16.3310 N   0  0  0  0  0  0  0  0  0  0  0  0
   25.0307  -20.9602  -15.8598 C   0  0  0  0  0  0  0  0  0  0  0  0
   24.5332  -20.3207  -16.8243 O   0  0  0  0  0  0  0  0  0  0  0  0
   24.4518  -19.4367  -10.2875 N   0  0  0  0  0  0  0  0  0  0  0  0
   24.2689  -22.0032  -15.2738 C   0  0  2  0  0  0  0  0  0  0  0  0
   22.8945  -22.2673  -15.6733 C   0  0  0  0  0  0  0  0  0  0  0  0
   22.6437  -23.7473  -15.3600 C   0  0  0  0  0  0  0  0  0  0  0  0
   22.7226  -23.8659  -13.8326 C   0  0  0  0  0  0  0  0  0  0  0  0
   22.5214  -25.2817  -13.4161 O   0  0  0  0  0  0  0  0  0  0  0  0
   21.3695  -25.6369  -13.0387 C   0  0  0  0  0  0  0  0  0  0  0  0
   21.9319  -21.3970  -15.0041 O   0  0  0  0  0  0  0  0  0  0  0  0
   22.3568  -20.4676  -14.2633 O   0  0  0  0  0  0  0  0  0  0  0  0
   23.5985  -26.1318  -13.4625 N   0  0  0  0  0  0  0  0  0  0  0  0
   20.5587  -21.5980  -15.1881 C   0  0  1  0  0  0  0  0  0  0  0  0
   19.5849  -20.5592  -14.9197 C   0  0  0  0  0  0  0  0  0  0  0  0
   19.8524  -19.3241  -15.7197 C   0  0  0  0  0  0  0  0  0  0  0  0
   18.9055  -18.1967  -15.5508 C   0  0  0  0  0  0  0  0  0  0  0  0
   19.1497  -17.0122  -16.3818 O   0  0  0  0  0  0  0  0  0  0  0  0
   19.1369  -15.8760  -15.8538 C   0  0  0  0  0  0  0  0  0  0  0  0
   18.2126  -21.0950  -15.0371 O   0  0  0  0  0  0  0  0  0  0  0  0
   17.9482  -22.0324  -15.8264 O   0  0  0  0  0  0  0  0  0  0  0  0
   19.3995  -17.0825  -17.7488 O   0  0  0  0  0  0  0  0  0  0  0  0
  1  2  1  0
  2  3  2  0
  4  2  1  0
  4  5  1  0
  6  5  1  0
  7  6  1  0
  8  9  1  6
  8  7  1  0
 10  8  1  0
 10 12  1  0
 11 10  2  0
 13 12  1  0
 13 18  1  0
 13 14  1  1
 15 14  1  0
 16 17  2  0
 16 15  1  0
 18 19  2  0
 20 16  1  0
 21 18  1  0
 21 22  1  0
 22 27  1  0
 23 24  1  0
 22 23  1  1
 25 24  1  0
 25 29  1  0
 26 25  2  0
 27 28  2  0
 27 30  1  0
M  END
$$$$
