MKI.pdb
     RDKit          3D

 26 25  0  0  1  0  0  0  0  0999 V2000
    8.5130  -12.2931   19.7647 C   0  0  0  0  0  0  0  0  0  0  0  0
    7.6590  -13.1717   18.4261 S   0  0  0  0  0  0  0  0  0  0  0  0
    7.5049  -14.9039   18.8782 C   0  0  0  0  0  0  0  0  0  0  0  0
    6.8811  -15.0179   20.2515 C   0  0  0  0  0  0  0  0  0  0  0  0
    6.6617  -16.4636   20.5582 C   0  0  2  0  0  0  0  0  0  0  0  0
    5.5664  -16.9657   19.7916 N   0  0  0  0  0  0  0  0  0  0  0  0
    6.3946  -16.6979   22.0184 C   0  0  0  0  0  0  0  0  0  0  0  0
    5.4335  -16.0893   22.5754 O   0  0  0  0  0  0  0  0  0  0  0  0
    7.1922  -17.5718   22.7535 N   0  0  0  0  0  0  0  0  0  0  0  0
    7.3462  -17.6866   24.1851 C   0  0  1  0  0  0  0  0  0  0  0  0
    7.5361  -19.1088   24.6792 C   0  0  0  0  0  0  0  0  0  0  0  0
    7.6091  -19.0933   26.1722 C   0  0  0  0  0  0  0  0  0  0  0  0
    7.7307  -20.4712   26.7871 C   0  0  0  0  0  0  0  0  0  0  0  0
    7.6338  -20.3000   28.2898 C   0  0  0  0  0  0  0  0  0  0  0  0
    7.7157  -21.6201   28.9073 N   0  0  0  0  0  0  0  0  0  0  0  0
    8.2267  -16.6953   24.7896 C   0  0  0  0  0  0  0  0  0  0  0  0
    9.4644  -16.5936   24.4548 O   0  0  0  0  0  0  0  0  0  0  0  0
    6.1569  -11.9984   27.2923 C   0  0  0  0  0  0  0  0  0  0  0  0
    6.7632  -13.3668   27.1854 C   0  0  0  0  0  0  0  0  0  0  0  0
    7.9826  -13.3815   26.2802 C   0  0  2  0  0  0  0  0  0  0  0  0
    7.5443  -13.1139   24.8443 C   0  0  0  0  0  0  0  0  0  0  0  0
    8.5929  -14.7510   26.3528 C   0  0  2  0  0  0  0  0  0  0  0  0
    7.7828  -15.7804   25.7807 N   0  0  0  0  0  0  0  0  0  0  0  0
    9.0807  -15.1005   27.7353 C   0  0  0  0  0  0  0  0  0  0  0  0
   10.0385  -14.3515   28.3879 O   0  0  0  0  0  0  0  0  0  0  0  0
    8.6332  -16.0943   28.3610 O   0  0  0  0  0  0  0  0  0  0  0  0
  2  1  1  0
  3  4  1  0
  3  2  1  0
  4  5  1  0
  5  6  1  6
  7  5  1  0
  7  9  1  0
  8  7  2  0
 10  9  1  0
 10 11  1  6
 11 12  1  0
 13 12  1  0
 14 13  1  0
 15 14  1  0
 16 10  1  0
 17 16  2  0
 19 18  1  0
 19 20  1  0
 20 22  1  0
 20 21  1  6
 22 23  1  1
 22 24  1  0
 23 16  1  0
 24 25  1  0
 26 24  2  0
M  END
$$$$
