MKI.pdb
     RDKit          3D

 26 25  0  0  1  0  0  0  0  0999 V2000
   12.3141  -19.8212   25.7765 C   0  0  0  0  0  0  0  0  0  0  0  0
   13.3029  -20.4474   24.3897 S   0  0  0  0  0  0  0  0  0  0  0  0
   12.9269  -19.4749   22.9264 C   0  0  0  0  0  0  0  0  0  0  0  0
   12.2763  -18.1719   23.3347 C   0  0  0  0  0  0  0  0  0  0  0  0
   12.0523  -17.3453   22.1104 C   0  0  2  0  0  0  0  0  0  0  0  0
   13.3055  -16.9611   21.5433 N   0  0  0  0  0  0  0  0  0  0  0  0
   11.2399  -16.1146   22.3995 C   0  0  0  0  0  0  0  0  0  0  0  0
   11.7239  -15.2184   23.1525 O   0  0  0  0  0  0  0  0  0  0  0  0
    9.9701  -15.9581   21.8487 N   0  0  0  0  0  0  0  0  0  0  0  0
    8.9176  -15.0410   22.2201 C   0  0  1  0  0  0  0  0  0  0  0  0
    7.8967  -14.7885   21.1260 C   0  0  0  0  0  0  0  0  0  0  0  0
    8.5965  -14.2042   19.9412 C   0  0  0  0  0  0  0  0  0  0  0  0
    7.7357  -14.1456   18.6974 C   0  0  0  0  0  0  0  0  0  0  0  0
    8.6168  -13.6525   17.5672 C   0  0  0  0  0  0  0  0  0  0  0  0
    7.7863  -13.4862   16.3784 N   0  0  0  0  0  0  0  0  0  0  0  0
    8.3639  -15.2482   23.5518 C   0  0  0  0  0  0  0  0  0  0  0  0
    8.3928  -16.3983   24.1269 O   0  0  0  0  0  0  0  0  0  0  0  0
    6.7717  -10.6798   26.3180 C   0  0  0  0  0  0  0  0  0  0  0  0
    7.4258  -11.9989   26.0287 C   0  0  0  0  0  0  0  0  0  0  0  0
    6.4374  -13.1506   26.0854 C   0  0  2  0  0  0  0  0  0  0  0  0
    6.0260  -13.3871   27.5346 C   0  0  0  0  0  0  0  0  0  0  0  0
    7.1319  -14.3785   25.5728 C   0  0  2  0  0  0  0  0  0  0  0  0
    7.7602  -14.2037   24.3008 N   0  0  0  0  0  0  0  0  0  0  0  0
    6.2599  -15.6067   25.6229 C   0  0  0  0  0  0  0  0  0  0  0  0
    6.2674  -16.4700   26.6994 O   0  0  0  0  0  0  0  0  0  0  0  0
    5.4803  -15.9009   24.6821 O   0  0  0  0  0  0  0  0  0  0  0  0
  2  1  1  0
  3  4  1  0
  3  2  1  0
  4  5  1  0
  5  6  1  1
  7  5  1  0
  7  9  1  0
  8  7  2  0
 10  9  1  0
 10 11  1  6
 11 12  1  0
 13 12  1  0
 14 13  1  0
 15 14  1  0
 16 10  1  0
 17 16  2  0
 19 18  1  0
 19 20  1  0
 20 22  1  0
 20 21  1  1
 22 23  1  6
 22 24  1  0
 23 16  1  0
 24 25  1  0
 26 24  2  0
M  END
$$$$
