MKI.pdb
     RDKit          3D

 26 25  0  0  1  0  0  0  0  0999 V2000
    8.2470  -11.4005   19.9585 C   0  0  0  0  0  0  0  0  0  0  0  0
    8.5384  -12.0638   18.2947 S   0  0  0  0  0  0  0  0  0  0  0  0
    8.4210  -13.8556   18.3583 C   0  0  0  0  0  0  0  0  0  0  0  0
    8.1604  -14.2984   19.7810 C   0  0  0  0  0  0  0  0  0  0  0  0
    8.1746  -15.7917   19.8269 C   0  0  2  0  0  0  0  0  0  0  0  0
    7.1527  -16.3171   18.9788 N   0  0  0  0  0  0  0  0  0  0  0  0
    7.9810  -16.3166   21.2216 C   0  0  0  0  0  0  0  0  0  0  0  0
    6.8153  -16.3375   21.7169 O   0  0  0  0  0  0  0  0  0  0  0  0
    9.0672  -16.7746   21.9637 N   0  0  0  0  0  0  0  0  0  0  0  0
    9.1382  -17.1226   23.3639 C   0  0  1  0  0  0  0  0  0  0  0  0
    9.9373  -18.3798   23.6534 C   0  0  0  0  0  0  0  0  0  0  0  0
    9.4471  -19.4765   22.7637 C   0  0  0  0  0  0  0  0  0  0  0  0
   10.1097  -20.8119   23.0268 C   0  0  0  0  0  0  0  0  0  0  0  0
    9.5272  -21.8021   22.0384 C   0  0  0  0  0  0  0  0  0  0  0  0
   10.1960  -23.0856   22.2282 N   0  0  0  0  0  0  0  0  0  0  0  0
    9.3908  -16.0041   24.2628 C   0  0  0  0  0  0  0  0  0  0  0  0
   10.3083  -15.1351   24.0230 O   0  0  0  0  0  0  0  0  0  0  0  0
    5.5872  -13.0418   26.3836 C   0  0  0  0  0  0  0  0  0  0  0  0
    6.8851  -13.6149   25.8952 C   0  0  0  0  0  0  0  0  0  0  0  0
    7.7386  -14.1462   27.0336 C   0  0  2  0  0  0  0  0  0  0  0  0
    8.1911  -12.9809   27.9069 C   0  0  0  0  0  0  0  0  0  0  0  0
    8.9492  -14.8006   26.4342 C   0  0  2  0  0  0  0  0  0  0  0  0
    8.6474  -15.7971   25.4548 N   0  0  0  0  0  0  0  0  0  0  0  0
    9.9244  -15.2891   27.4744 C   0  0  0  0  0  0  0  0  0  0  0  0
   10.2158  -16.6281   27.6372 O   0  0  0  0  0  0  0  0  0  0  0  0
   10.5213  -14.4945   28.2436 O   0  0  0  0  0  0  0  0  0  0  0  0
  2  1  1  0
  3  4  1  0
  3  2  1  0
  4  5  1  0
  5  6  1  6
  7  5  1  0
  7  9  1  0
  8  7  2  0
 10  9  1  0
 10 11  1  6
 11 12  1  0
 13 12  1  0
 14 13  1  0
 15 14  1  0
 16 10  1  0
 17 16  2  0
 19 18  1  0
 19 20  1  0
 20 22  1  0
 20 21  1  1
 22 23  1  1
 22 24  1  0
 23 16  1  0
 24 25  1  0
 26 24  2  0
M  END
$$$$
