MKI.pdb
     RDKit          3D

 26 25  0  0  1  0  0  0  0  0999 V2000
    8.6181  -11.5311   19.6640 C   0  0  0  0  0  0  0  0  0  0  0  0
    8.1725  -12.3362   18.0999 S   0  0  0  0  0  0  0  0  0  0  0  0
    8.3238  -14.1151   18.3020 C   0  0  0  0  0  0  0  0  0  0  0  0
    7.9817  -14.4965   19.7252 C   0  0  0  0  0  0  0  0  0  0  0  0
    8.1648  -15.9710   19.8820 C   0  0  2  0  0  0  0  0  0  0  0  0
    7.3014  -16.6696   18.9842 N   0  0  0  0  0  0  0  0  0  0  0  0
    7.8944  -16.4284   21.2877 C   0  0  0  0  0  0  0  0  0  0  0  0
    6.7077  -16.3965   21.7296 O   0  0  0  0  0  0  0  0  0  0  0  0
    8.9331  -16.8815   22.0978 N   0  0  0  0  0  0  0  0  0  0  0  0
    8.9194  -17.2154   23.5031 C   0  0  1  0  0  0  0  0  0  0  0  0
    9.5122  -18.5745   23.8261 C   0  0  0  0  0  0  0  0  0  0  0  0
    8.8757  -19.5987   22.9426 C   0  0  0  0  0  0  0  0  0  0  0  0
    9.5140  -20.9675   23.0445 C   0  0  0  0  0  0  0  0  0  0  0  0
    8.8140  -21.8628   22.0418 C   0  0  0  0  0  0  0  0  0  0  0  0
    9.8251  -22.4489   21.1673 N   0  0  0  0  0  0  0  0  0  0  0  0
    9.3188  -16.1347   24.3950 C   0  0  0  0  0  0  0  0  0  0  0  0
   10.4511  -15.5372   24.2721 O   0  0  0  0  0  0  0  0  0  0  0  0
    6.0135  -12.3296   26.1123 C   0  0  0  0  0  0  0  0  0  0  0  0
    7.1892  -13.1841   25.7395 C   0  0  0  0  0  0  0  0  0  0  0  0
    7.8254  -13.8401   26.9526 C   0  0  2  0  0  0  0  0  0  0  0  0
    8.4464  -12.7638   27.8365 C   0  0  0  0  0  0  0  0  0  0  0  0
    8.9127  -14.7527   26.4648 C   0  0  2  0  0  0  0  0  0  0  0  0
    8.4923  -15.6697   25.4520 N   0  0  0  0  0  0  0  0  0  0  0  0
    9.6530  -15.4319   27.5882 C   0  0  0  0  0  0  0  0  0  0  0  0
   10.7403  -14.8513   28.2087 O   0  0  0  0  0  0  0  0  0  0  0  0
    9.3104  -16.5633   28.0149 O   0  0  0  0  0  0  0  0  0  0  0  0
  2  1  1  0
  3  4  1  0
  3  2  1  0
  4  5  1  0
  5  6  1  6
  7  5  1  0
  7  9  1  0
  8  7  2  0
 10  9  1  0
 10 11  1  6
 11 12  1  0
 13 12  1  0
 14 13  1  0
 15 14  1  0
 16 10  1  0
 17 16  2  0
 19 18  1  0
 19 20  1  0
 20 22  1  0
 20 21  1  1
 22 23  1  6
 22 24  1  0
 23 16  1  0
 24 25  1  0
 26 24  2  0
M  END
$$$$
