MNE.pdb
     RDKit          3D

 26 25  0  0  1  0  0  0  0  0999 V2000
   29.1818  -20.5484   -3.8731 C   0  0  0  0  0  0  0  0  0  0  0  0
   27.8463  -20.2435   -5.0675 S   0  0  0  0  0  0  0  0  0  0  0  0
   28.2911  -18.9276   -6.2403 C   0  0  0  0  0  0  0  0  0  0  0  0
   27.9908  -19.3447   -7.6618 C   0  0  0  0  0  0  0  0  0  0  0  0
   26.5653  -19.8223   -7.8150 C   0  0  2  0  0  0  0  0  0  0  0  0
   26.5318  -21.2257   -7.4537 N   0  0  0  0  0  0  0  0  0  0  0  0
   26.1599  -19.7058   -9.2382 C   0  0  0  0  0  0  0  0  0  0  0  0
   26.1951  -18.5598   -9.7920 O   0  0  0  0  0  0  0  0  0  0  0  0
   27.7343  -20.0437  -12.5597 N   0  0  0  0  0  0  0  0  0  0  0  0
   27.2506  -21.3584  -12.7646 C   0  0  0  0  0  0  0  0  0  0  0  0
   27.9419  -22.1611  -13.4641 O   0  0  0  0  0  0  0  0  0  0  0  0
   25.9534  -21.7708  -12.1581 C   0  0  0  0  0  0  0  0  0  0  0  0
   25.3440  -20.6705  -11.3505 C   0  0  2  0  0  0  0  0  0  0  0  0
   25.7395  -20.8479   -9.9752 N   0  0  0  0  0  0  0  0  0  0  0  0
   23.8606  -20.5790  -11.4856 C   0  0  0  0  0  0  0  0  0  0  0  0
   23.0879  -20.7640  -10.5105 O   0  0  0  0  0  0  0  0  0  0  0  0
   23.2488  -20.2771  -12.7328 N   0  0  0  0  0  0  0  0  0  0  0  0
   21.7848  -20.0490  -12.8349 C   0  0  1  0  0  0  0  0  0  0  0  0
   21.4857  -19.2097  -14.0274 C   0  0  0  0  0  0  0  0  0  0  0  0
   20.0099  -18.9278  -14.1285 C   0  0  0  0  0  0  0  0  0  0  0  0
   19.7092  -18.1151  -15.3529 C   0  0  0  0  0  0  0  0  0  0  0  0
   20.0359  -18.5597  -16.4616 O   0  0  0  0  0  0  0  0  0  0  0  0
   21.1552  -21.3701  -12.8158 C   0  0  0  0  0  0  0  0  0  0  0  0
   19.9342  -21.6313  -12.2354 O   0  0  0  0  0  0  0  0  0  0  0  0
   19.0808  -16.9011  -15.2146 O   0  0  0  0  0  0  0  0  0  0  0  0
   21.7255  -22.3786  -13.3517 O   0  0  0  0  0  0  0  0  0  0  0  0
  1  2  1  0
  2  3  1  0
  3  4  1  0
  4  5  1  0
  5  7  1  0
  5  6  1  6
  7 14  1  0
  7  8  2  0
  9 10  1  0
 10 11  2  0
 12 10  1  0
 13 12  1  6
 14 13  1  0
 15 16  2  0
 15 13  1  0
 17 15  1  0
 18 17  1  0
 18 19  1  6
 20 21  1  0
 20 19  1  0
 21 25  1  0
 22 21  2  0
 23 18  1  0
 24 23  1  0
 26 23  2  0
M  END
$$$$
