MNE.pdb
     RDKit          3D

 26 25  0  0  1  0  0  0  0  0999 V2000
   17.9324  -14.8905  -19.9896 C   0  0  0  0  0  0  0  0  0  0  0  0
   18.4796  -13.7524  -18.6826 S   0  0  0  0  0  0  0  0  0  0  0  0
   19.8839  -14.4351  -17.7516 C   0  0  0  0  0  0  0  0  0  0  0  0
   20.2843  -13.5139  -16.6222 C   0  0  0  0  0  0  0  0  0  0  0  0
   20.8624  -12.2162  -17.1374 C   0  0  2  0  0  0  0  0  0  0  0  0
   21.9865  -12.5453  -17.9915 N   0  0  0  0  0  0  0  0  0  0  0  0
   21.3736  -11.4195  -15.9940 C   0  0  0  0  0  0  0  0  0  0  0  0
   20.5563  -11.0573  -15.0874 O   0  0  0  0  0  0  0  0  0  0  0  0
   24.9631   -9.7778  -16.9148 N   0  0  0  0  0  0  0  0  0  0  0  0
   25.4955  -10.1848  -15.6677 C   0  0  0  0  0  0  0  0  0  0  0  0
   26.7525  -10.3230  -15.5564 O   0  0  0  0  0  0  0  0  0  0  0  0
   24.5786  -10.4375  -14.5204 C   0  0  0  0  0  0  0  0  0  0  0  0
   23.1557  -10.1448  -14.8727 C   0  0  2  0  0  0  0  0  0  0  0  0
   22.7485  -11.0642  -15.9062 N   0  0  0  0  0  0  0  0  0  0  0  0
   22.9177   -8.7280  -15.2761 C   0  0  0  0  0  0  0  0  0  0  0  0
   23.1040   -8.3280  -16.4540 O   0  0  0  0  0  0  0  0  0  0  0  0
   22.4667   -7.7581  -14.3396 N   0  0  0  0  0  0  0  0  0  0  0  0
   22.0630   -6.3975  -14.7772 C   0  0  1  0  0  0  0  0  0  0  0  0
   20.6385   -6.4072  -15.2093 C   0  0  0  0  0  0  0  0  0  0  0  0
   20.2062   -5.0379  -15.6629 C   0  0  0  0  0  0  0  0  0  0  0  0
   18.7826   -5.0618  -16.1349 C   0  0  0  0  0  0  0  0  0  0  0  0
   18.1843   -3.9883  -16.2872 O   0  0  0  0  0  0  0  0  0  0  0  0
   22.3840   -5.4924  -13.6727 C   0  0  0  0  0  0  0  0  0  0  0  0
   22.5820   -4.1379  -13.8217 O   0  0  0  0  0  0  0  0  0  0  0  0
   18.1792   -6.2705  -16.3858 O   0  0  0  0  0  0  0  0  0  0  0  0
   22.5020   -5.9276  -12.4785 O   0  0  0  0  0  0  0  0  0  0  0  0
  1  2  1  0
  2  3  1  0
  3  4  1  0
  4  5  1  0
  5  7  1  0
  5  6  1  6
  7 14  1  0
  7  8  2  0
  9 10  1  0
 10 11  2  0
 12 10  1  0
 13 12  1  6
 14 13  1  0
 15 16  2  0
 15 13  1  0
 17 15  1  0
 18 17  1  0
 18 19  1  1
 20 21  1  0
 20 19  1  0
 21 25  1  0
 22 21  2  0
 23 18  1  0
 24 23  1  0
 26 23  2  0
M  END
$$$$
