MNE.pdb
     RDKit          3D

 26 25  0  0  1  0  0  0  0  0999 V2000
   25.9339  -16.5251  -14.6946 C   0  0  0  0  0  0  0  0  0  0  0  0
   24.7352  -15.2069  -15.0525 S   0  0  0  0  0  0  0  0  0  0  0  0
   25.5651  -13.6831  -15.5949 C   0  0  0  0  0  0  0  0  0  0  0  0
   24.5716  -12.5570  -15.7672 C   0  0  0  0  0  0  0  0  0  0  0  0
   23.3003  -13.0301  -16.4333 C   0  0  2  0  0  0  0  0  0  0  0  0
   23.6159  -13.3334  -17.8152 N   0  0  0  0  0  0  0  0  0  0  0  0
   22.3028  -11.9309  -16.4217 C   0  0  0  0  0  0  0  0  0  0  0  0
   22.4368  -10.9752  -17.2522 O   0  0  0  0  0  0  0  0  0  0  0  0
   18.6786  -12.4726  -17.1942 N   0  0  0  0  0  0  0  0  0  0  0  0
   18.1824  -12.2122  -15.8941 C   0  0  0  0  0  0  0  0  0  0  0  0
   17.0680  -12.7160  -15.5538 O   0  0  0  0  0  0  0  0  0  0  0  0
   18.9722  -11.3625  -14.9587 C   0  0  0  0  0  0  0  0  0  0  0  0
   20.2407  -10.8795  -15.5849 C   0  0  2  0  0  0  0  0  0  0  0  0
   21.2157  -11.9389  -15.5039 N   0  0  0  0  0  0  0  0  0  0  0  0
   20.7584   -9.6130  -14.9893 C   0  0  0  0  0  0  0  0  0  0  0  0
   21.3272   -9.5852  -13.8678 O   0  0  0  0  0  0  0  0  0  0  0  0
   20.6302   -8.3702  -15.6677 N   0  0  0  0  0  0  0  0  0  0  0  0
   21.2821   -7.1409  -15.1484 C   0  0  1  0  0  0  0  0  0  0  0  0
   21.6919   -6.2682  -16.2825 C   0  0  0  0  0  0  0  0  0  0  0  0
   22.3100   -4.9903  -15.7800 C   0  0  0  0  0  0  0  0  0  0  0  0
   22.6665   -4.0890  -16.9247 C   0  0  0  0  0  0  0  0  0  0  0  0
   22.0601   -3.0170  -17.0539 O   0  0  0  0  0  0  0  0  0  0  0  0
   20.3454   -6.5436  -14.1955 C   0  0  0  0  0  0  0  0  0  0  0  0
   20.7313   -5.8497  -13.0706 O   0  0  0  0  0  0  0  0  0  0  0  0
   23.6539   -4.4738  -17.7994 O   0  0  0  0  0  0  0  0  0  0  0  0
   19.0838   -6.6410  -14.3640 O   0  0  0  0  0  0  0  0  0  0  0  0
  1  2  1  0
  2  3  1  0
  3  4  1  0
  4  5  1  0
  5  7  1  0
  5  6  1  6
  7 14  1  0
  7  8  2  0
  9 10  1  0
 10 11  2  0
 12 10  1  0
 13 12  1  1
 14 13  1  0
 15 16  2  0
 15 13  1  0
 17 15  1  0
 18 17  1  0
 18 19  1  6
 20 21  1  0
 20 19  1  0
 21 25  1  0
 22 21  2  0
 23 18  1  0
 24 23  1  0
 26 23  2  0
M  END
$$$$
