MNE.pdb
     RDKit          3D

 26 25  0  0  1  0  0  0  0  0999 V2000
   17.0251  -10.0002  -19.9026 C   0  0  0  0  0  0  0  0  0  0  0  0
   18.1142  -11.4406  -20.1079 S   0  0  0  0  0  0  0  0  0  0  0  0
   19.3341  -11.5484  -18.7643 C   0  0  0  0  0  0  0  0  0  0  0  0
   19.2159  -10.3667  -17.8292 C   0  0  0  0  0  0  0  0  0  0  0  0
   20.2236  -10.4401  -16.7055 C   0  0  2  0  0  0  0  0  0  0  0  0
   19.8170  -11.5143  -15.8212 N   0  0  0  0  0  0  0  0  0  0  0  0
   20.1892   -9.1730  -15.9331 C   0  0  0  0  0  0  0  0  0  0  0  0
   19.1811   -8.9358  -15.1924 O   0  0  0  0  0  0  0  0  0  0  0  0
   21.9791   -5.6076  -12.3404 N   0  0  0  0  0  0  0  0  0  0  0  0
   22.4339   -5.5916  -13.6811 C   0  0  0  0  0  0  0  0  0  0  0  0
   22.8378   -4.4943  -14.1755 O   0  0  0  0  0  0  0  0  0  0  0  0
   22.4326   -6.8517  -14.4764 C   0  0  0  0  0  0  0  0  0  0  0  0
   21.1636   -7.0189  -15.2486 C   0  0  2  0  0  0  0  0  0  0  0  0
   21.2582   -8.2375  -16.0137 N   0  0  0  0  0  0  0  0  0  0  0  0
   20.8331   -5.8517  -16.1177 C   0  0  0  0  0  0  0  0  0  0  0  0
   21.4299   -5.6369  -17.2039 O   0  0  0  0  0  0  0  0  0  0  0  0
   19.8211   -4.9218  -15.7540 N   0  0  0  0  0  0  0  0  0  0  0  0
   19.4759   -3.7781  -16.6363 C   0  0  1  0  0  0  0  0  0  0  0  0
   18.0099   -3.7627  -16.8939 C   0  0  0  0  0  0  0  0  0  0  0  0
   17.6018   -2.4945  -17.5958 C   0  0  0  0  0  0  0  0  0  0  0  0
   16.1508   -2.5419  -17.9730 C   0  0  0  0  0  0  0  0  0  0  0  0
   15.6501   -1.5669  -18.5495 O   0  0  0  0  0  0  0  0  0  0  0  0
   20.0195   -2.5794  -15.9961 C   0  0  0  0  0  0  0  0  0  0  0  0
   20.2447   -2.4659  -14.6425 O   0  0  0  0  0  0  0  0  0  0  0  0
   15.4152   -3.6622  -17.6705 O   0  0  0  0  0  0  0  0  0  0  0  0
   20.3195   -1.5457  -16.6823 O   0  0  0  0  0  0  0  0  0  0  0  0
  1  2  1  0
  2  3  1  0
  3  4  1  0
  4  5  1  0
  5  7  1  0
  5  6  1  1
  7 14  1  0
  7  8  2  0
  9 10  1  0
 10 11  2  0
 12 10  1  0
 13 12  1  6
 14 13  1  0
 15 16  2  0
 15 13  1  0
 17 15  1  0
 18 17  1  0
 18 19  1  1
 20 21  1  0
 20 19  1  0
 21 25  1  0
 22 21  2  0
 23 18  1  0
 24 23  1  0
 26 23  2  0
M  END
$$$$
