MNE.pdb
     RDKit          3D

 26 25  0  0  1  0  0  0  0  0999 V2000
   25.9684  -17.4354  -18.1863 C   0  0  0  0  0  0  0  0  0  0  0  0
   27.4309  -16.8061  -17.3100 S   0  0  0  0  0  0  0  0  0  0  0  0
   28.0778  -18.0304  -16.1320 C   0  0  0  0  0  0  0  0  0  0  0  0
   26.9672  -18.9020  -15.5920 C   0  0  0  0  0  0  0  0  0  0  0  0
   27.4851  -19.9153  -14.5977 C   0  0  2  0  0  0  0  0  0  0  0  0
   28.2150  -20.9243  -15.3397 N   0  0  0  0  0  0  0  0  0  0  0  0
   26.3367  -20.5784  -13.9307 C   0  0  0  0  0  0  0  0  0  0  0  0
   25.8603  -21.6405  -14.4465 O   0  0  0  0  0  0  0  0  0  0  0  0
   26.6433  -22.0626  -10.6609 N   0  0  0  0  0  0  0  0  0  0  0  0
   25.8046  -21.1819   -9.9361 C   0  0  0  0  0  0  0  0  0  0  0  0
   26.0021  -21.0377   -8.6904 O   0  0  0  0  0  0  0  0  0  0  0  0
   24.7190  -20.4462  -10.6438 C   0  0  0  0  0  0  0  0  0  0  0  0
   24.6964  -20.7615  -12.1048 C   0  0  2  0  0  0  0  0  0  0  0  0
   25.7747  -20.0435  -12.7381 N   0  0  0  0  0  0  0  0  0  0  0  0
   23.3873  -20.4718  -12.7600 C   0  0  0  0  0  0  0  0  0  0  0  0
   22.9766  -19.2971  -12.9426 O   0  0  0  0  0  0  0  0  0  0  0  0
   22.5379  -21.5191  -13.2104 N   0  0  0  0  0  0  0  0  0  0  0  0
   21.3066  -21.2285  -13.9884 C   0  0  1  0  0  0  0  0  0  0  0  0
   21.1632  -22.2140  -15.0947 C   0  0  0  0  0  0  0  0  0  0  0  0
   19.9190  -21.9414  -15.8981 C   0  0  0  0  0  0  0  0  0  0  0  0
   19.7274  -22.9933  -16.9501 C   0  0  0  0  0  0  0  0  0  0  0  0
   19.9772  -24.1733  -16.6691 O   0  0  0  0  0  0  0  0  0  0  0  0
   20.2047  -21.1915  -13.0258 C   0  0  0  0  0  0  0  0  0  0  0  0
   19.0446  -20.4739  -13.2129 O   0  0  0  0  0  0  0  0  0  0  0  0
   19.2810  -22.6230  -18.1957 O   0  0  0  0  0  0  0  0  0  0  0  0
   20.2670  -21.8417  -11.9291 O   0  0  0  0  0  0  0  0  0  0  0  0
  1  2  1  0
  2  3  1  0
  3  4  1  0
  4  5  1  0
  5  7  1  0
  5  6  1  6
  7 14  1  0
  7  8  2  0
  9 10  1  0
 10 11  2  0
 12 10  1  0
 13 12  1  1
 14 13  1  0
 15 16  2  0
 15 13  1  0
 17 15  1  0
 18 17  1  0
 18 19  1  6
 20 21  1  0
 20 19  1  0
 21 25  1  0
 22 21  2  0
 23 18  1  0
 24 23  1  0
 26 23  2  0
M  END
$$$$
