MNE.pdb
     RDKit          3D

 26 25  0  0  1  0  0  0  0  0999 V2000
   26.3832  -15.3492  -14.3551 C   0  0  0  0  0  0  0  0  0  0  0  0
   26.3267  -14.5168  -15.9697 S   0  0  0  0  0  0  0  0  0  0  0  0
   27.1091  -15.5247  -17.2648 C   0  0  0  0  0  0  0  0  0  0  0  0
   26.9664  -16.9991  -16.9640 C   0  0  0  0  0  0  0  0  0  0  0  0
   26.0322  -17.6803  -17.9369 C   0  0  2  0  0  0  0  0  0  0  0  0
   24.7349  -17.0445  -17.8177 N   0  0  0  0  0  0  0  0  0  0  0  0
   25.8804  -19.1063  -17.5537 C   0  0  0  0  0  0  0  0  0  0  0  0
   26.8694  -19.7043  -17.0196 O   0  0  0  0  0  0  0  0  0  0  0  0
   22.4785  -20.1482  -13.8850 N   0  0  0  0  0  0  0  0  0  0  0  0
   23.8239  -19.8274  -14.1871 C   0  0  0  0  0  0  0  0  0  0  0  0
   24.7161  -20.0511  -13.3122 O   0  0  0  0  0  0  0  0  0  0  0  0
   24.1633  -19.2420  -15.5148 C   0  0  0  0  0  0  0  0  0  0  0  0
   23.8744  -20.1937  -16.6308 C   0  0  2  0  0  0  0  0  0  0  0  0
   24.6567  -19.7974  -17.7755 N   0  0  0  0  0  0  0  0  0  0  0  0
   22.4246  -20.2983  -16.9687 C   0  0  0  0  0  0  0  0  0  0  0  0
   21.9328  -21.3316  -17.4906 O   0  0  0  0  0  0  0  0  0  0  0  0
   21.5268  -19.2257  -16.7147 N   0  0  0  0  0  0  0  0  0  0  0  0
   20.0818  -19.3407  -17.0381 C   0  0  1  0  0  0  0  0  0  0  0  0
   19.2680  -19.0610  -15.8235 C   0  0  0  0  0  0  0  0  0  0  0  0
   17.7967  -19.1561  -16.1300 C   0  0  0  0  0  0  0  0  0  0  0  0
   16.9814  -18.8801  -14.9016 C   0  0  0  0  0  0  0  0  0  0  0  0
   15.9128  -18.2651  -15.0181 O   0  0  0  0  0  0  0  0  0  0  0  0
   19.8392  -18.4585  -18.1805 C   0  0  0  0  0  0  0  0  0  0  0  0
   20.7567  -17.5497  -18.6582 O   0  0  0  0  0  0  0  0  0  0  0  0
   17.4389  -19.3147  -13.6810 O   0  0  0  0  0  0  0  0  0  0  0  0
   18.7289  -18.4869  -18.8097 O   0  0  0  0  0  0  0  0  0  0  0  0
  1  2  1  0
  2  3  1  0
  3  4  1  0
  4  5  1  0
  5  7  1  0
  5  6  1  1
  7 14  1  0
  7  8  2  0
  9 10  1  0
 10 11  2  0
 12 10  1  0
 13 12  1  1
 14 13  1  0
 15 16  2  0
 15 13  1  0
 17 15  1  0
 18 17  1  0
 18 19  1  1
 20 21  1  0
 20 19  1  0
 21 25  1  0
 22 21  2  0
 23 18  1  0
 24 23  1  0
 26 23  2  0
M  END
$$$$
