HSS.pdb
     RDKit          3D

 23 23  0  0  1  0  0  0  0  0999 V2000
    9.7380  -19.7357   15.3454 N   0  0  0  0  0  0  0  0  0  0  0  0
   10.7452  -19.2373   16.2452 C   0  0  1  0  0  0  0  0  0  0  0  0
   11.4718  -18.0945   15.6109 C   0  0  0  0  0  0  0  0  0  0  0  0
   12.2976  -18.6470   14.4986 C   0  0  0  0  0  0  0  0  0  0  0  0
   13.5627  -19.1938   14.5421 C   0  0  0  0  0  0  0  0  0  0  0  0
   13.9575  -19.5779   13.3102 N   0  0  0  0  0  0  0  0  0  0  0  0
   12.9393  -19.2712   12.4973 C   0  0  0  0  0  0  0  0  0  0  0  0
   11.9337  -18.7129   13.1839 N   0  0  0  0  0  0  0  0  0  0  0  0
   10.2103  -18.9309   17.5882 C   0  0  0  0  0  0  0  0  0  0  0  0
    9.2324  -18.1413   17.6522 O   0  0  0  0  0  0  0  0  0  0  0  0
   10.8542  -21.1953   20.9336 O   0  0  0  0  0  0  0  0  0  0  0  0
    9.7140  -20.3943   20.8350 C   0  0  0  0  0  0  0  0  0  0  0  0
   10.1164  -19.1557   20.0620 C   0  0  2  0  0  0  0  0  0  0  0  0
   10.7127  -19.4553   18.7918 N   0  0  0  0  0  0  0  0  0  0  0  0
   10.9733  -18.2556   20.8864 C   0  0  0  0  0  0  0  0  0  0  0  0
   12.1992  -18.2202   20.6784 O   0  0  0  0  0  0  0  0  0  0  0  0
    9.5365  -14.9367   22.8371 O   0  0  0  0  0  0  0  0  0  0  0  0
   10.2069  -15.8458   23.6580 C   0  0  0  0  0  0  0  0  0  0  0  0
   11.1981  -16.6346   22.8032 C   0  0  2  0  0  0  0  0  0  0  0  0
   10.4042  -17.4448   21.8995 N   0  0  0  0  0  0  0  0  0  0  0  0
   12.0500  -17.4537   23.6788 C   0  0  0  0  0  0  0  0  0  0  0  0
   12.0147  -18.7058   23.6736 O   0  0  0  0  0  0  0  0  0  0  0  0
   12.9238  -16.8204   24.5413 O   0  0  0  0  0  0  0  0  0  0  0  0
  2  1  1  6
  3  2  1  0
  3  4  1  0
  4  8  1  0
  5  4  2  0
  5  6  1  0
  6  7  1  0
  8  7  2  0
  9  2  1  0
  9 14  1  0
 10  9  2  0
 11 12  1  0
 13 15  1  0
 13 14  1  0
 13 12  1  1
 15 20  1  0
 16 15  2  0
 17 18  1  0
 19 18  1  1
 19 21  1  0
 20 19  1  0
 21 22  2  0
 21 23  1  0
M  END
$$$$
