HSS.pdb
     RDKit          3D

 23 23  0  0  1  0  0  0  0  0999 V2000
    8.3120  -18.8086   14.0036 N   0  0  0  0  0  0  0  0  0  0  0  0
    7.8390  -19.7854   14.9495 C   0  0  1  0  0  0  0  0  0  0  0  0
    7.8966  -21.1503   14.3412 C   0  0  0  0  0  0  0  0  0  0  0  0
    6.9716  -21.1620   13.1713 C   0  0  0  0  0  0  0  0  0  0  0  0
    5.5940  -21.2170   13.1512 C   0  0  0  0  0  0  0  0  0  0  0  0
    5.1360  -21.2077   11.8819 N   0  0  0  0  0  0  0  0  0  0  0  0
    6.2273  -21.1469   11.1092 C   0  0  0  0  0  0  0  0  0  0  0  0
    7.3386  -21.1185   11.8565 N   0  0  0  0  0  0  0  0  0  0  0  0
    8.5170  -19.6879   16.2588 C   0  0  0  0  0  0  0  0  0  0  0  0
    9.7743  -19.6338   16.2535 O   0  0  0  0  0  0  0  0  0  0  0  0
    6.6177  -19.5824   20.0093 O   0  0  0  0  0  0  0  0  0  0  0  0
    7.7800  -18.8309   19.8201 C   0  0  0  0  0  0  0  0  0  0  0  0
    8.5789  -19.5278   18.7386 C   0  0  2  0  0  0  0  0  0  0  0  0
    7.8619  -19.6515   17.5020 N   0  0  0  0  0  0  0  0  0  0  0  0
    9.1088  -20.8382   19.2141 C   0  0  0  0  0  0  0  0  0  0  0  0
    8.6057  -21.8922   18.7858 O   0  0  0  0  0  0  0  0  0  0  0  0
   12.8356  -23.2967   20.5398 O   0  0  0  0  0  0  0  0  0  0  0  0
   12.2517  -22.0591   20.2617 C   0  0  0  0  0  0  0  0  0  0  0  0
   10.7642  -22.1347   20.6037 C   0  0  2  0  0  0  0  0  0  0  0  0
   10.1756  -20.8911   20.1452 N   0  0  0  0  0  0  0  0  0  0  0  0
   10.6084  -22.3201   22.0545 C   0  0  0  0  0  0  0  0  0  0  0  0
   10.2581  -21.3914   22.8186 O   0  0  0  0  0  0  0  0  0  0  0  0
   10.8574  -23.5654   22.5983 O   0  0  0  0  0  0  0  0  0  0  0  0
  2  1  1  6
  3  2  1  0
  3  4  1  0
  4  8  1  0
  5  4  2  0
  5  6  1  0
  6  7  1  0
  8  7  2  0
  9  2  1  0
  9 14  1  0
 10  9  2  0
 11 12  1  0
 13 15  1  0
 13 14  1  0
 13 12  1  1
 15 20  1  0
 16 15  2  0
 17 18  1  0
 19 18  1  1
 19 21  1  0
 20 19  1  0
 21 22  2  0
 21 23  1  0
M  END
$$$$
