HSS.pdb
     RDKit          3D

 23 23  0  0  1  0  0  0  0  0999 V2000
   12.7884  -14.0094   17.3341 N   0  0  0  0  0  0  0  0  0  0  0  0
   13.3801  -14.9980   18.1973 C   0  0  1  0  0  0  0  0  0  0  0  0
   14.6879  -14.4968   18.7214 C   0  0  0  0  0  0  0  0  0  0  0  0
   15.6948  -14.6376   17.6302 C   0  0  0  0  0  0  0  0  0  0  0  0
   15.5358  -15.1494   16.3597 C   0  0  0  0  0  0  0  0  0  0  0  0
   16.6988  -15.0982   15.6773 N   0  0  0  0  0  0  0  0  0  0  0  0
   17.5842  -14.5545   16.5212 C   0  0  0  0  0  0  0  0  0  0  0  0
   17.0084  -14.2698   17.6967 N   0  0  0  0  0  0  0  0  0  0  0  0
   12.4550  -15.4631   19.2515 C   0  0  0  0  0  0  0  0  0  0  0  0
   11.7709  -14.5887   19.8441 O   0  0  0  0  0  0  0  0  0  0  0  0
   12.0917  -19.3673   21.0246 O   0  0  0  0  0  0  0  0  0  0  0  0
   10.9741  -18.6719   20.5568 C   0  0  0  0  0  0  0  0  0  0  0  0
   11.3186  -17.1985   20.6213 C   0  0  2  0  0  0  0  0  0  0  0  0
   12.2856  -16.8042   19.6373 N   0  0  0  0  0  0  0  0  0  0  0  0
   11.7226  -16.7950   21.9989 C   0  0  0  0  0  0  0  0  0  0  0  0
   12.8959  -16.4413   22.2124 O   0  0  0  0  0  0  0  0  0  0  0  0
    8.7670  -16.1391   24.5820 O   0  0  0  0  0  0  0  0  0  0  0  0
    9.9816  -15.5308   24.9055 C   0  0  0  0  0  0  0  0  0  0  0  0
   11.1198  -16.4265   24.4182 C   0  0  2  0  0  0  0  0  0  0  0  0
   10.7846  -16.8116   23.0607 N   0  0  0  0  0  0  0  0  0  0  0  0
   11.2386  -17.5893   25.3110 C   0  0  0  0  0  0  0  0  0  0  0  0
   10.9127  -18.7461   24.9578 O   0  0  0  0  0  0  0  0  0  0  0  0
   11.7284  -17.4016   26.5890 O   0  0  0  0  0  0  0  0  0  0  0  0
  2  1  1  1
  3  2  1  0
  3  4  1  0
  4  8  1  0
  5  4  2  0
  5  6  1  0
  6  7  1  0
  8  7  2  0
  9  2  1  0
  9 14  1  0
 10  9  2  0
 11 12  1  0
 13 15  1  0
 13 14  1  0
 13 12  1  1
 15 20  1  0
 16 15  2  0
 17 18  1  0
 19 18  1  1
 19 21  1  0
 20 19  1  0
 21 22  2  0
 21 23  1  0
M  END
$$$$
