HSS.pdb
     RDKit          3D

 23 23  0  0  1  0  0  0  0  0999 V2000
    9.4133  -20.4873   15.8764 N   0  0  0  0  0  0  0  0  0  0  0  0
    9.3013  -20.9037   17.2500 C   0  0  1  0  0  0  0  0  0  0  0  0
    9.0889  -22.3824   17.3165 C   0  0  0  0  0  0  0  0  0  0  0  0
    7.7296  -22.6676   16.7728 C   0  0  0  0  0  0  0  0  0  0  0  0
    6.9467  -21.8980   15.9384 C   0  0  0  0  0  0  0  0  0  0  0  0
    5.7763  -22.5176   15.6790 N   0  0  0  0  0  0  0  0  0  0  0  0
    5.8281  -23.6740   16.3511 C   0  0  0  0  0  0  0  0  0  0  0  0
    6.9866  -23.7879   17.0138 N   0  0  0  0  0  0  0  0  0  0  0  0
   10.4224  -20.4250   18.0852 C   0  0  0  0  0  0  0  0  0  0  0  0
   11.5581  -20.3667   17.5462 O   0  0  0  0  0  0  0  0  0  0  0  0
   10.0963  -18.9880   22.0000 O   0  0  0  0  0  0  0  0  0  0  0  0
   11.1255  -18.5113   21.1845 C   0  0  0  0  0  0  0  0  0  0  0  0
   11.4486  -19.6153   20.1995 C   0  0  2  0  0  0  0  0  0  0  0  0
   10.3115  -20.0326   19.4305 N   0  0  0  0  0  0  0  0  0  0  0  0
   12.1236  -20.7626   20.8720 C   0  0  0  0  0  0  0  0  0  0  0  0
   11.4429  -21.7271   21.2640 O   0  0  0  0  0  0  0  0  0  0  0  0
   16.1415  -20.5059   21.2575 O   0  0  0  0  0  0  0  0  0  0  0  0
   15.6594  -21.8163   21.2385 C   0  0  0  0  0  0  0  0  0  0  0  0
   14.2280  -21.8163   21.7738 C   0  0  2  0  0  0  0  0  0  0  0  0
   13.5271  -20.7618   21.0665 N   0  0  0  0  0  0  0  0  0  0  0  0
   14.2529  -21.5878   23.2265 C   0  0  0  0  0  0  0  0  0  0  0  0
   13.7895  -20.5502   23.7535 O   0  0  0  0  0  0  0  0  0  0  0  0
   14.8083  -22.5531   24.0441 O   0  0  0  0  0  0  0  0  0  0  0  0
  2  1  1  6
  3  2  1  0
  3  4  1  0
  4  8  1  0
  5  4  2  0
  5  6  1  0
  6  7  1  0
  8  7  2  0
  9  2  1  0
  9 14  1  0
 10  9  2  0
 11 12  1  0
 13 15  1  0
 13 14  1  0
 13 12  1  1
 15 20  1  0
 16 15  2  0
 17 18  1  0
 19 18  1  6
 19 21  1  0
 20 19  1  0
 21 22  2  0
 21 23  1  0
M  END
$$$$
