HSS.pdb
     RDKit          3D

 23 23  0  0  1  0  0  0  0  0999 V2000
    7.8740  -16.1682   20.7210 N   0  0  0  0  0  0  0  0  0  0  0  0
    8.4474  -15.0439   21.4137 C   0  0  1  0  0  0  0  0  0  0  0  0
    7.9200  -13.7692   20.8363 C   0  0  0  0  0  0  0  0  0  0  0  0
    8.0509  -13.8579   19.3533 C   0  0  0  0  0  0  0  0  0  0  0  0
    7.1939  -13.4001   18.3748 C   0  0  0  0  0  0  0  0  0  0  0  0
    7.6801  -13.6802   17.1475 N   0  0  0  0  0  0  0  0  0  0  0  0
    8.8405  -14.3130   17.3592 C   0  0  0  0  0  0  0  0  0  0  0  0
    9.0853  -14.4319   18.6709 N   0  0  0  0  0  0  0  0  0  0  0  0
    8.2978  -15.1399   22.8807 C   0  0  0  0  0  0  0  0  0  0  0  0
    8.7709  -14.1996   23.5705 O   0  0  0  0  0  0  0  0  0  0  0  0
    6.4783  -18.3081   24.9212 O   0  0  0  0  0  0  0  0  0  0  0  0
    6.4191  -17.0392   25.5025 C   0  0  0  0  0  0  0  0  0  0  0  0
    7.6165  -16.2675   24.9886 C   0  0  2  0  0  0  0  0  0  0  0  0
    7.6687  -16.2000   23.5563 N   0  0  0  0  0  0  0  0  0  0  0  0
    8.8874  -16.7844   25.5732 C   0  0  0  0  0  0  0  0  0  0  0  0
    9.6175  -17.5243   24.8898 O   0  0  0  0  0  0  0  0  0  0  0  0
   11.4101  -17.0877   29.7287 O   0  0  0  0  0  0  0  0  0  0  0  0
   10.4431  -16.4259   28.9691 C   0  0  0  0  0  0  0  0  0  0  0  0
   10.2965  -17.1488   27.6308 C   0  0  2  0  0  0  0  0  0  0  0  0
    9.2672  -16.4407   26.8942 N   0  0  0  0  0  0  0  0  0  0  0  0
    9.9364  -18.5539   27.8748 C   0  0  0  0  0  0  0  0  0  0  0  0
    8.7483  -18.9496   27.9044 O   0  0  0  0  0  0  0  0  0  0  0  0
   10.9454  -19.4750   28.0798 O   0  0  0  0  0  0  0  0  0  0  0  0
  2  1  1  6
  3  2  1  0
  3  4  1  0
  4  8  1  0
  5  4  2  0
  5  6  1  0
  6  7  1  0
  8  7  2  0
  9  2  1  0
  9 14  1  0
 10  9  2  0
 11 12  1  0
 13 15  1  0
 13 14  1  0
 13 12  1  6
 15 20  1  0
 16 15  2  0
 17 18  1  0
 19 18  1  1
 19 21  1  0
 20 19  1  0
 21 22  2  0
 21 23  1  0
M  END
$$$$
