HSS.pdb
     RDKit          3D

 23 23  0  0  1  0  0  0  0  0999 V2000
    7.3974  -13.5409   19.5643 N   0  0  0  0  0  0  0  0  0  0  0  0
    8.4712  -14.4964   19.6448 C   0  0  1  0  0  0  0  0  0  0  0  0
    9.4974  -14.1961   18.5995 C   0  0  0  0  0  0  0  0  0  0  0  0
    8.8379  -14.3304   17.2685 C   0  0  0  0  0  0  0  0  0  0  0  0
    8.3113  -13.3495   16.4549 C   0  0  0  0  0  0  0  0  0  0  0  0
    7.8022  -13.8890   15.3277 N   0  0  0  0  0  0  0  0  0  0  0  0
    8.0106  -15.2067   15.4370 C   0  0  0  0  0  0  0  0  0  0  0  0
    8.6289  -15.4967   16.5894 N   0  0  0  0  0  0  0  0  0  0  0  0
    9.0278  -14.6167   21.0084 C   0  0  0  0  0  0  0  0  0  0  0  0
   10.2248  -14.2655   21.1748 O   0  0  0  0  0  0  0  0  0  0  0  0
    6.8012  -15.3237   24.4013 O   0  0  0  0  0  0  0  0  0  0  0  0
    8.0270  -14.6666   24.5315 C   0  0  0  0  0  0  0  0  0  0  0  0
    8.9209  -15.1874   23.4254 C   0  0  2  0  0  0  0  0  0  0  0  0
    8.3200  -15.0923   22.1260 N   0  0  0  0  0  0  0  0  0  0  0  0
    9.4035  -16.5670   23.7215 C   0  0  0  0  0  0  0  0  0  0  0  0
    8.8100  -17.5413   23.2255 O   0  0  0  0  0  0  0  0  0  0  0  0
   12.4545  -16.8551   26.3569 O   0  0  0  0  0  0  0  0  0  0  0  0
   12.4124  -17.9248   25.4603 C   0  0  0  0  0  0  0  0  0  0  0  0
   10.9751  -18.0921   24.9690 C   0  0  2  0  0  0  0  0  0  0  0  0
   10.5272  -16.7750   24.5592 N   0  0  0  0  0  0  0  0  0  0  0  0
   10.1519  -18.6445   26.0555 C   0  0  0  0  0  0  0  0  0  0  0  0
    9.2714  -17.9735   26.6417 O   0  0  0  0  0  0  0  0  0  0  0  0
   10.3553  -19.9537   26.4469 O   0  0  0  0  0  0  0  0  0  0  0  0
  2  1  1  1
  3  2  1  0
  3  4  1  0
  4  8  1  0
  5  4  2  0
  5  6  1  0
  6  7  1  0
  8  7  2  0
  9  2  1  0
  9 14  1  0
 10  9  2  0
 11 12  1  0
 13 15  1  0
 13 14  1  0
 13 12  1  1
 15 20  1  0
 16 15  2  0
 17 18  1  0
 19 18  1  1
 19 21  1  0
 20 19  1  0
 21 22  2  0
 21 23  1  0
M  END
$$$$
