HSS.pdb
     RDKit          3D

 23 23  0  0  1  0  0  0  0  0999 V2000
   11.0289  -13.0695   18.5420 N   0  0  0  0  0  0  0  0  0  0  0  0
    9.8240  -13.7308   18.9706 C   0  0  1  0  0  0  0  0  0  0  0  0
    9.5007  -14.8525   18.0361 C   0  0  0  0  0  0  0  0  0  0  0  0
    9.1503  -14.2529   16.7162 C   0  0  0  0  0  0  0  0  0  0  0  0
    8.5591  -13.0378   16.4413 C   0  0  0  0  0  0  0  0  0  0  0  0
    8.4134  -12.8700   15.1103 N   0  0  0  0  0  0  0  0  0  0  0  0
    8.9135  -13.9798   14.5538 C   0  0  0  0  0  0  0  0  0  0  0  0
    9.3609  -14.8233   15.4933 N   0  0  0  0  0  0  0  0  0  0  0  0
    9.8680  -14.1336   20.3917 C   0  0  0  0  0  0  0  0  0  0  0  0
   10.9747  -14.5252   20.8452 O   0  0  0  0  0  0  0  0  0  0  0  0
    6.6319  -15.1324   22.9382 O   0  0  0  0  0  0  0  0  0  0  0  0
    7.6155  -14.2738   23.4348 C   0  0  0  0  0  0  0  0  0  0  0  0
    8.8723  -14.5398   22.6328 C   0  0  2  0  0  0  0  0  0  0  0  0
    8.7687  -14.1107   21.2676 N   0  0  0  0  0  0  0  0  0  0  0  0
    9.2951  -15.9657   22.7428 C   0  0  0  0  0  0  0  0  0  0  0  0
    9.2925  -16.6837   21.7270 O   0  0  0  0  0  0  0  0  0  0  0  0
   13.0874  -17.7075   23.6622 O   0  0  0  0  0  0  0  0  0  0  0  0
   12.0330  -16.7940   23.6013 C   0  0  0  0  0  0  0  0  0  0  0  0
   10.7682  -17.4748   24.1229 C   0  0  2  0  0  0  0  0  0  0  0  0
    9.6975  -16.5057   23.9895 N   0  0  0  0  0  0  0  0  0  0  0  0
   10.9770  -17.8812   25.5210 C   0  0  0  0  0  0  0  0  0  0  0  0
   10.4405  -17.2852   26.4833 O   0  0  0  0  0  0  0  0  0  0  0  0
   11.7959  -18.9618   25.7862 O   0  0  0  0  0  0  0  0  0  0  0  0
  2  1  1  6
  3  2  1  0
  3  4  1  0
  4  8  1  0
  5  4  2  0
  5  6  1  0
  6  7  1  0
  8  7  2  0
  9  2  1  0
  9 14  1  0
 10  9  2  0
 11 12  1  0
 13 15  1  0
 13 14  1  0
 13 12  1  6
 15 20  1  0
 16 15  2  0
 17 18  1  0
 19 18  1  1
 19 21  1  0
 20 19  1  0
 21 22  2  0
 21 23  1  0
M  END
$$$$
