HSS.pdb
     RDKit          3D

 23 23  0  0  1  0  0  0  0  0999 V2000
   14.1172  -14.4722   12.3720 N   0  0  0  0  0  0  0  0  0  0  0  0
   14.0377  -15.8276   12.8508 C   0  0  1  0  0  0  0  0  0  0  0  0
   15.2515  -16.5890   12.4232 C   0  0  0  0  0  0  0  0  0  0  0  0
   15.2159  -16.6960   10.9360 C   0  0  0  0  0  0  0  0  0  0  0  0
   16.0478  -16.1166   10.0013 C   0  0  0  0  0  0  0  0  0  0  0  0
   15.6756  -16.4656    8.7520 N   0  0  0  0  0  0  0  0  0  0  0  0
   14.6115  -17.2628    8.9062 C   0  0  0  0  0  0  0  0  0  0  0  0
   14.3161  -17.4166   10.2037 N   0  0  0  0  0  0  0  0  0  0  0  0
   13.7659  -15.9059   14.3012 C   0  0  0  0  0  0  0  0  0  0  0  0
   14.5486  -15.2868   15.0680 O   0  0  0  0  0  0  0  0  0  0  0  0
   10.4644  -17.7829   16.0258 O   0  0  0  0  0  0  0  0  0  0  0  0
   11.0265  -16.6854   16.6822 C   0  0  0  0  0  0  0  0  0  0  0  0
   12.4917  -16.6524   16.3008 C   0  0  2  0  0  0  0  0  0  0  0  0
   12.7022  -16.6182   14.8819 N   0  0  0  0  0  0  0  0  0  0  0  0
   13.2480  -17.7591   16.9543 C   0  0  0  0  0  0  0  0  0  0  0  0
   13.4644  -18.8080   16.3215 O   0  0  0  0  0  0  0  0  0  0  0  0
   16.3602  -17.2275   19.0916 O   0  0  0  0  0  0  0  0  0  0  0  0
   15.4604  -17.9454   19.8822 C   0  0  0  0  0  0  0  0  0  0  0  0
   14.4707  -18.6622   18.9647 C   0  0  2  0  0  0  0  0  0  0  0  0
   13.7195  -17.6252   18.2838 N   0  0  0  0  0  0  0  0  0  0  0  0
   13.6045  -19.5347   19.7722 C   0  0  0  0  0  0  0  0  0  0  0  0
   12.3905  -19.2908   19.9608 O   0  0  0  0  0  0  0  0  0  0  0  0
   14.1482  -20.6677   20.3461 O   0  0  0  0  0  0  0  0  0  0  0  0
  2  1  1  1
  3  2  1  0
  3  4  1  0
  4  8  1  0
  5  4  2  0
  5  6  1  0
  6  7  1  0
  8  7  2  0
  9  2  1  0
  9 14  1  0
 10  9  2  0
 11 12  1  0
 13 15  1  0
 13 14  1  0
 13 12  1  6
 15 20  1  0
 16 15  2  0
 17 18  1  0
 19 18  1  1
 19 21  1  0
 20 19  1  0
 21 22  2  0
 21 23  1  0
M  END
$$$$
