HSS.pdb
     RDKit          3D

 23 23  0  0  1  0  0  0  0  0999 V2000
    6.5422  -16.3093   20.3873 N   0  0  0  0  0  0  0  0  0  0  0  0
    7.8102  -15.9164   20.9445 C   0  0  1  0  0  0  0  0  0  0  0  0
    7.9953  -14.4402   20.7938 C   0  0  0  0  0  0  0  0  0  0  0  0
    8.0595  -14.1405   19.3342 C   0  0  0  0  0  0  0  0  0  0  0  0
    8.0052  -15.0084   18.2640 C   0  0  0  0  0  0  0  0  0  0  0  0
    8.0969  -14.3335   17.0991 N   0  0  0  0  0  0  0  0  0  0  0  0
    8.2085  -13.0443   17.4414 C   0  0  0  0  0  0  0  0  0  0  0  0
    8.1888  -12.9020   18.7732 N   0  0  0  0  0  0  0  0  0  0  0  0
    8.0021  -16.4026   22.3267 C   0  0  0  0  0  0  0  0  0  0  0  0
    7.1900  -15.9962   23.1980 O   0  0  0  0  0  0  0  0  0  0  0  0
   10.6384  -19.4438   23.5285 O   0  0  0  0  0  0  0  0  0  0  0  0
    9.4190  -19.2345   24.1771 C   0  0  0  0  0  0  0  0  0  0  0  0
    9.1255  -17.7515   24.0866 C   0  0  2  0  0  0  0  0  0  0  0  0
    9.0206  -17.2812   22.7351 N   0  0  0  0  0  0  0  0  0  0  0  0
   10.1019  -16.9551   24.8843 C   0  0  0  0  0  0  0  0  0  0  0  0
   11.0425  -16.3837   24.3043 O   0  0  0  0  0  0  0  0  0  0  0  0
   11.1944  -14.4069   28.6547 O   0  0  0  0  0  0  0  0  0  0  0  0
   10.2861  -15.0145   27.7854 C   0  0  0  0  0  0  0  0  0  0  0  0
   10.9659  -16.2184   27.1344 C   0  0  2  0  0  0  0  0  0  0  0  0
    9.9668  -16.8452   26.2904 N   0  0  0  0  0  0  0  0  0  0  0  0
   11.4540  -17.1263   28.1835 C   0  0  0  0  0  0  0  0  0  0  0  0
   12.4263  -16.8432   28.9208 O   0  0  0  0  0  0  0  0  0  0  0  0
   10.8176  -18.3390   28.3652 O   0  0  0  0  0  0  0  0  0  0  0  0
  2  1  1  1
  3  2  1  0
  3  4  1  0
  4  8  1  0
  5  4  2  0
  5  6  1  0
  6  7  1  0
  8  7  2  0
  9  2  1  0
  9 14  1  0
 10  9  2  0
 11 12  1  0
 13 15  1  0
 13 14  1  0
 13 12  1  6
 15 20  1  0
 16 15  2  0
 17 18  1  0
 19 18  1  1
 19 21  1  0
 20 19  1  0
 21 22  2  0
 21 23  1  0
M  END
$$$$
