HSS.pdb
     RDKit          3D

 23 23  0  0  1  0  0  0  0  0999 V2000
    9.5393  -16.6023   19.6207 N   0  0  0  0  0  0  0  0  0  0  0  0
   10.1194  -15.8571   20.7074 C   0  0  1  0  0  0  0  0  0  0  0  0
    9.0780  -14.9919   21.3424 C   0  0  0  0  0  0  0  0  0  0  0  0
    8.5373  -14.0883   20.2862 C   0  0  0  0  0  0  0  0  0  0  0  0
    8.9031  -12.7956   19.9755 C   0  0  0  0  0  0  0  0  0  0  0  0
    8.1662  -12.3269   18.9468 N   0  0  0  0  0  0  0  0  0  0  0  0
    7.3402  -13.3265   18.6149 C   0  0  0  0  0  0  0  0  0  0  0  0
    7.5422  -14.3919   19.4014 N   0  0  0  0  0  0  0  0  0  0  0  0
   10.8451  -16.7163   21.6660 C   0  0  0  0  0  0  0  0  0  0  0  0
   10.3197  -17.8211   21.9612 O   0  0  0  0  0  0  0  0  0  0  0  0
   14.1928  -15.6150   23.8637 O   0  0  0  0  0  0  0  0  0  0  0  0
   14.2243  -16.9103   23.3416 C   0  0  0  0  0  0  0  0  0  0  0  0
   12.7862  -17.3175   23.0976 C   0  0  2  0  0  0  0  0  0  0  0  0
   12.0727  -16.3895   22.2678 N   0  0  0  0  0  0  0  0  0  0  0  0
   12.0735  -17.5878   24.3794 C   0  0  0  0  0  0  0  0  0  0  0  0
   11.3899  -16.6880   24.8996 O   0  0  0  0  0  0  0  0  0  0  0  0
   10.4237  -20.8907   27.4256 O   0  0  0  0  0  0  0  0  0  0  0  0
   11.0052  -20.5606   26.1998 C   0  0  0  0  0  0  0  0  0  0  0  0
   11.5755  -19.1462   26.2965 C   0  0  2  0  0  0  0  0  0  0  0  0
   12.1687  -18.8553   25.0055 N   0  0  0  0  0  0  0  0  0  0  0  0
   12.5635  -19.0945   27.3849 C   0  0  0  0  0  0  0  0  0  0  0  0
   13.7661  -19.4028   27.2184 O   0  0  0  0  0  0  0  0  0  0  0  0
   12.1522  -18.6906   28.6404 O   0  0  0  0  0  0  0  0  0  0  0  0
  2  1  1  6
  3  2  1  0
  3  4  1  0
  4  8  1  0
  5  4  2  0
  5  6  1  0
  6  7  1  0
  8  7  2  0
  9  2  1  0
  9 14  1  0
 10  9  2  0
 11 12  1  0
 13 15  1  0
 13 14  1  0
 13 12  1  1
 15 20  1  0
 16 15  2  0
 17 18  1  0
 19 18  1  6
 19 21  1  0
 20 19  1  0
 21 22  2  0
 21 23  1  0
M  END
$$$$
