HSS.pdb
     RDKit          3D

 23 23  0  0  1  0  0  0  0  0999 V2000
   10.9001  -15.4003   17.5744 N   0  0  0  0  0  0  0  0  0  0  0  0
   11.6224  -15.1683   18.7979 C   0  0  1  0  0  0  0  0  0  0  0  0
   11.4317  -13.7523   19.2392 C   0  0  0  0  0  0  0  0  0  0  0  0
   12.0955  -12.8733   18.2336 C   0  0  0  0  0  0  0  0  0  0  0  0
   11.5408  -11.9079   17.4201 C   0  0  0  0  0  0  0  0  0  0  0  0
   12.4877  -11.3350   16.6480 N   0  0  0  0  0  0  0  0  0  0  0  0
   13.6337  -11.9424   16.9790 C   0  0  0  0  0  0  0  0  0  0  0  0
   13.4260  -12.8671   17.9257 N   0  0  0  0  0  0  0  0  0  0  0  0
   11.3102  -16.1649   19.8433 C   0  0  0  0  0  0  0  0  0  0  0  0
   10.0961  -16.4285   20.0434 O   0  0  0  0  0  0  0  0  0  0  0  0
   13.9666  -18.8871   21.3622 O   0  0  0  0  0  0  0  0  0  0  0  0
   12.5950  -19.1509   21.3897 C   0  0  0  0  0  0  0  0  0  0  0  0
   11.8993  -17.8223   21.5998 C   0  0  2  0  0  0  0  0  0  0  0  0
   12.2669  -16.8354   20.6252 N   0  0  0  0  0  0  0  0  0  0  0  0
   12.0814  -17.3286   22.9952 C   0  0  0  0  0  0  0  0  0  0  0  0
   12.9676  -16.4893   23.2354 O   0  0  0  0  0  0  0  0  0  0  0  0
    9.7398  -15.7695   25.2411 O   0  0  0  0  0  0  0  0  0  0  0  0
   10.0740  -16.9402   25.9251 C   0  0  0  0  0  0  0  0  0  0  0  0
   11.4375  -17.4208   25.4302 C   0  0  2  0  0  0  0  0  0  0  0  0
   11.2567  -17.8062   24.0438 N   0  0  0  0  0  0  0  0  0  0  0  0
   11.8878  -18.5457   26.2640 C   0  0  0  0  0  0  0  0  0  0  0  0
   12.0091  -19.7095   25.8170 O   0  0  0  0  0  0  0  0  0  0  0  0
   12.1893  -18.3127   27.5920 O   0  0  0  0  0  0  0  0  0  0  0  0
  2  1  1  6
  3  2  1  0
  3  4  1  0
  4  8  1  0
  5  4  2  0
  5  6  1  0
  6  7  1  0
  8  7  2  0
  9  2  1  0
  9 14  1  0
 10  9  2  0
 11 12  1  0
 13 15  1  0
 13 14  1  0
 13 12  1  1
 15 20  1  0
 16 15  2  0
 17 18  1  0
 19 18  1  1
 19 21  1  0
 20 19  1  0
 21 22  2  0
 21 23  1  0
M  END
$$$$
