HSS.pdb
     RDKit          3D

 23 23  0  0  1  0  0  0  0  0999 V2000
    7.5360  -17.3883   17.8415 N   0  0  0  0  0  0  0  0  0  0  0  0
    8.2286  -16.4052   18.6329 C   0  0  1  0  0  0  0  0  0  0  0  0
    7.5235  -15.0898   18.5393 C   0  0  0  0  0  0  0  0  0  0  0  0
    7.7306  -14.5646   17.1588 C   0  0  0  0  0  0  0  0  0  0  0  0
    8.4571  -15.1081   16.1204 C   0  0  0  0  0  0  0  0  0  0  0  0
    8.3921  -14.3169   15.0291 N   0  0  0  0  0  0  0  0  0  0  0  0
    7.6253  -13.2793   15.3857 C   0  0  0  0  0  0  0  0  0  0  0  0
    7.2167  -13.4036   16.6553 N   0  0  0  0  0  0  0  0  0  0  0  0
    8.4688  -16.8545   20.0200 C   0  0  0  0  0  0  0  0  0  0  0  0
    7.4694  -16.9349   20.7805 O   0  0  0  0  0  0  0  0  0  0  0  0
   12.1629  -18.1131   21.6216 O   0  0  0  0  0  0  0  0  0  0  0  0
   10.9685  -18.6982   22.0490 C   0  0  0  0  0  0  0  0  0  0  0  0
    9.8895  -17.6461   21.9000 C   0  0  2  0  0  0  0  0  0  0  0  0
    9.7263  -17.1964   20.5473 N   0  0  0  0  0  0  0  0  0  0  0  0
   10.1010  -16.5135   22.8467 C   0  0  0  0  0  0  0  0  0  0  0  0
   10.9101  -15.6153   22.5535 O   0  0  0  0  0  0  0  0  0  0  0  0
    7.3861  -15.5200   25.5103 O   0  0  0  0  0  0  0  0  0  0  0  0
    8.4920  -14.6766   25.3843 C   0  0  0  0  0  0  0  0  0  0  0  0
    9.7329  -15.5342   25.1397 C   0  0  2  0  0  0  0  0  0  0  0  0
    9.3907  -16.4533   24.0713 N   0  0  0  0  0  0  0  0  0  0  0  0
   10.0903  -16.2363   26.3817 C   0  0  0  0  0  0  0  0  0  0  0  0
   10.4041  -15.6302   27.4320 O   0  0  0  0  0  0  0  0  0  0  0  0
   10.0805  -17.6178   26.3934 O   0  0  0  0  0  0  0  0  0  0  0  0
  2  1  1  6
  3  2  1  0
  3  4  1  0
  4  8  1  0
  5  4  2  0
  5  6  1  0
  6  7  1  0
  8  7  2  0
  9  2  1  0
  9 14  1  0
 10  9  2  0
 11 12  1  0
 13 15  1  0
 13 14  1  0
 13 12  1  6
 15 20  1  0
 16 15  2  0
 17 18  1  0
 19 18  1  1
 19 21  1  0
 20 19  1  0
 21 22  2  0
 21 23  1  0
M  END
$$$$
