HSS.pdb
     RDKit          3D

 23 23  0  0  1  0  0  0  0  0999 V2000
   13.1574  -15.2212   13.5920 N   0  0  0  0  0  0  0  0  0  0  0  0
   14.2450  -15.4521   14.5065 C   0  0  1  0  0  0  0  0  0  0  0  0
   15.5210  -14.9420   13.9168 C   0  0  0  0  0  0  0  0  0  0  0  0
   16.2626  -16.1127   13.3654 C   0  0  0  0  0  0  0  0  0  0  0  0
   17.4756  -16.6382   13.7576 C   0  0  0  0  0  0  0  0  0  0  0  0
   17.7993  -17.7059   12.9984 N   0  0  0  0  0  0  0  0  0  0  0  0
   16.7887  -17.8474   12.1322 C   0  0  0  0  0  0  0  0  0  0  0  0
   15.8562  -16.9064   12.3309 N   0  0  0  0  0  0  0  0  0  0  0  0
   13.9689  -14.9377   15.8640 C   0  0  0  0  0  0  0  0  0  0  0  0
   14.0240  -13.6914   16.0297 O   0  0  0  0  0  0  0  0  0  0  0  0
   11.3549  -14.1539   19.0522 O   0  0  0  0  0  0  0  0  0  0  0  0
   11.8462  -15.3850   18.6113 C   0  0  0  0  0  0  0  0  0  0  0  0
   13.3002  -15.1692   18.2469 C   0  0  2  0  0  0  0  0  0  0  0  0
   13.6510  -15.7362   16.9764 N   0  0  0  0  0  0  0  0  0  0  0  0
   14.2074  -15.6298   19.3372 C   0  0  0  0  0  0  0  0  0  0  0  0
   14.5022  -16.8357   19.4179 O   0  0  0  0  0  0  0  0  0  0  0  0
   17.1220  -13.3621   20.9647 O   0  0  0  0  0  0  0  0  0  0  0  0
   16.2200  -13.8308   21.9221 C   0  0  0  0  0  0  0  0  0  0  0  0
   15.5685  -15.1080   21.3932 C   0  0  2  0  0  0  0  0  0  0  0  0
   14.7331  -14.7089   20.2769 N   0  0  0  0  0  0  0  0  0  0  0  0
   14.7903  -15.7381   22.4706 C   0  0  0  0  0  0  0  0  0  0  0  0
   13.5385  -15.7812   22.4610 O   0  0  0  0  0  0  0  0  0  0  0  0
   15.4633  -16.3050   23.5356 O   0  0  0  0  0  0  0  0  0  0  0  0
  2  1  1  6
  3  2  1  0
  3  4  1  0
  4  8  1  0
  5  4  2  0
  5  6  1  0
  6  7  1  0
  8  7  2  0
  9  2  1  0
  9 14  1  0
 10  9  2  0
 11 12  1  0
 13 15  1  0
 13 14  1  0
 13 12  1  1
 15 20  1  0
 16 15  2  0
 17 18  1  0
 19 18  1  1
 19 21  1  0
 20 19  1  0
 21 22  2  0
 21 23  1  0
M  END
$$$$
