EPL.pdb
     RDKit          3D

 25 25  0  0  1  0  0  0  0  0999 V2000
   14.3662  -10.4857  -11.3205 N   0  0  0  0  0  0  0  0  0  0  0  0
   15.1221   -9.4877  -10.6137 C   0  0  1  0  0  0  0  0  0  0  0  0
   16.5726   -9.6454  -11.1064 C   0  0  0  0  0  0  0  0  0  0  0  0
   16.5946   -9.2682  -12.5595 C   0  0  0  0  0  0  0  0  0  0  0  0
   17.9429   -9.3873  -13.1561 C   0  0  0  0  0  0  0  0  0  0  0  0
   18.8819   -9.8202  -12.4748 O   0  0  0  0  0  0  0  0  0  0  0  0
   14.7247   -8.1069  -10.8018 C   0  0  0  0  0  0  0  0  0  0  0  0
   13.9835   -7.8426  -11.8127 O   0  0  0  0  0  0  0  0  0  0  0  0
   18.1753   -9.0217  -14.4695 O   0  0  0  0  0  0  0  0  0  0  0  0
   15.0816   -7.0292   -9.9719 N   0  0  0  0  0  0  0  0  0  0  0  0
   16.0130   -6.9314   -8.8727 C   0  0  0  0  0  0  0  0  0  0  0  0
   15.2165   -6.1593   -7.8313 C   0  0  0  0  0  0  0  0  0  0  0  0
   14.2493   -5.3455   -8.6207 C   0  0  0  0  0  0  0  0  0  0  0  0
   14.5205   -5.6605  -10.0641 C   0  0  1  0  0  0  0  0  0  0  0  0
   15.4979   -4.7486  -10.6923 C   0  0  0  0  0  0  0  0  0  0  0  0
   16.7445   -4.9125  -10.5169 O   0  0  0  0  0  0  0  0  0  0  0  0
   16.5386   -4.2257  -14.8044 C   0  0  0  0  0  0  0  0  0  0  0  0
   15.2122   -3.5128  -14.4884 C   0  0  2  0  0  0  0  0  0  0  0  0
   14.6683   -3.0577  -15.8235 C   0  0  0  0  0  0  0  0  0  0  0  0
   15.5611   -2.3965  -13.5578 C   0  0  0  0  0  0  0  0  0  0  0  0
   16.0435   -2.8159  -12.2075 C   0  0  2  0  0  0  0  0  0  0  0  0
   15.0954   -3.6587  -11.5118 N   0  0  0  0  0  0  0  0  0  0  0  0
   16.4769   -1.7004  -11.3444 C   0  0  0  0  0  0  0  0  0  0  0  0
   17.6386   -0.9816  -11.5766 O   0  0  0  0  0  0  0  0  0  0  0  0
   15.7657   -1.3784  -10.3468 O   0  0  0  0  0  0  0  0  0  0  0  0
  2  1  1  6
  3  2  1  0
  4  3  1  0
  5  4  1  0
  6  5  2  0
  7 10  1  0
  7  2  1  0
  8  7  2  0
  9  5  1  0
 10 14  1  0
 11 10  1  0
 11 12  1  0
 12 13  1  0
 14 13  1  0
 14 15  1  1
 15 22  1  0
 16 15  2  0
 18 19  1  6
 18 17  1  0
 20 18  1  0
 21 22  1  0
 21 20  1  6
 23 21  1  0
 23 24  1  0
 25 23  2  0
M  END
$$$$
