EPL.pdb
     RDKit          3D

 25 25  0  0  1  0  0  0  0  0999 V2000
   20.9767  -20.2850  -12.4111 N   0  0  0  0  0  0  0  0  0  0  0  0
   22.2279  -20.9903  -12.4733 C   0  0  1  0  0  0  0  0  0  0  0  0
   22.0776  -21.9919  -13.6335 C   0  0  0  0  0  0  0  0  0  0  0  0
   21.3496  -21.2868  -14.7413 C   0  0  0  0  0  0  0  0  0  0  0  0
   20.4413  -22.1862  -15.4856 C   0  0  0  0  0  0  0  0  0  0  0  0
   19.2929  -22.3854  -15.0675 O   0  0  0  0  0  0  0  0  0  0  0  0
   23.4182  -20.1975  -12.7073 C   0  0  0  0  0  0  0  0  0  0  0  0
   23.2758  -18.9252  -12.7520 O   0  0  0  0  0  0  0  0  0  0  0  0
   20.8540  -22.8128  -16.6473 O   0  0  0  0  0  0  0  0  0  0  0  0
   24.7180  -20.7019  -12.8904 N   0  0  0  0  0  0  0  0  0  0  0  0
   25.2367  -22.0495  -12.8690 C   0  0  0  0  0  0  0  0  0  0  0  0
   26.4972  -21.9058  -12.0289 C   0  0  0  0  0  0  0  0  0  0  0  0
   26.9237  -20.4912  -12.2243 C   0  0  0  0  0  0  0  0  0  0  0  0
   25.9210  -19.8794  -13.1604 C   0  0  1  0  0  0  0  0  0  0  0  0
   26.3032  -19.9842  -14.5831 C   0  0  0  0  0  0  0  0  0  0  0  0
   25.8118  -20.8920  -15.3222 O   0  0  0  0  0  0  0  0  0  0  0  0
   25.0158  -16.1002  -16.9518 C   0  0  0  0  0  0  0  0  0  0  0  0
   25.5544  -15.6928  -15.5693 C   0  0  2  0  0  0  0  0  0  0  0  0
   26.6343  -14.6701  -15.8399 C   0  0  0  0  0  0  0  0  0  0  0  0
   26.0505  -16.9532  -14.9375 C   0  0  0  0  0  0  0  0  0  0  0  0
   26.8114  -17.8664  -15.8424 C   0  0  2  0  0  0  0  0  0  0  0  0
   27.2269  -19.0864  -15.1851 N   0  0  0  0  0  0  0  0  0  0  0  0
   27.9541  -17.2303  -16.5258 C   0  0  0  0  0  0  0  0  0  0  0  0
   29.1055  -16.8446  -15.8582 O   0  0  0  0  0  0  0  0  0  0  0  0
   27.8904  -17.0230  -17.7738 O   0  0  0  0  0  0  0  0  0  0  0  0
  2  1  1  6
  3  2  1  0
  4  3  1  0
  5  4  1  0
  6  5  2  0
  7 10  1  0
  7  2  1  0
  8  7  2  0
  9  5  1  0
 10 14  1  0
 11 10  1  0
 11 12  1  0
 12 13  1  0
 14 13  1  0
 14 15  1  6
 15 22  1  0
 16 15  2  0
 18 19  1  6
 18 17  1  0
 20 18  1  0
 21 22  1  0
 21 20  1  1
 23 21  1  0
 23 24  1  0
 25 23  2  0
M  END
$$$$
