EPL.pdb
     RDKit          3D

 25 25  0  0  1  0  0  0  0  0999 V2000
   25.3813  -22.1504  -12.3784 N   0  0  0  0  0  0  0  0  0  0  0  0
   26.4208  -21.2701  -11.9186 C   0  0  1  0  0  0  0  0  0  0  0  0
   25.7219  -19.9314  -11.6170 C   0  0  0  0  0  0  0  0  0  0  0  0
   25.1847  -19.4049  -12.9164 C   0  0  0  0  0  0  0  0  0  0  0  0
   23.7610  -19.7493  -13.1228 C   0  0  0  0  0  0  0  0  0  0  0  0
   23.3940  -20.2304  -14.2031 O   0  0  0  0  0  0  0  0  0  0  0  0
   27.1525  -21.6785  -10.7363 C   0  0  0  0  0  0  0  0  0  0  0  0
   26.5740  -22.5027   -9.9444 O   0  0  0  0  0  0  0  0  0  0  0  0
   22.8263  -19.5422  -12.1248 O   0  0  0  0  0  0  0  0  0  0  0  0
   28.4434  -21.2492  -10.3803 N   0  0  0  0  0  0  0  0  0  0  0  0
   29.3672  -20.3466  -11.0263 C   0  0  0  0  0  0  0  0  0  0  0  0
   30.6859  -21.1000  -10.9332 C   0  0  0  0  0  0  0  0  0  0  0  0
   30.5448  -21.9635   -9.7268 C   0  0  0  0  0  0  0  0  0  0  0  0
   29.1800  -21.6786   -9.1680 C   0  0  1  0  0  0  0  0  0  0  0  0
   29.1708  -20.6026   -8.1563 C   0  0  0  0  0  0  0  0  0  0  0  0
   29.1301  -19.3829   -8.5062 O   0  0  0  0  0  0  0  0  0  0  0  0
   25.8964  -19.5894   -6.0728 C   0  0  0  0  0  0  0  0  0  0  0  0
   26.6103  -20.8042   -5.4548 C   0  0  2  0  0  0  0  0  0  0  0  0
   25.6221  -21.4024   -4.4796 C   0  0  0  0  0  0  0  0  0  0  0  0
   27.8503  -20.2670   -4.8164 C   0  0  0  0  0  0  0  0  0  0  0  0
   28.9354  -19.8669   -5.7620 C   0  0  2  0  0  0  0  0  0  0  0  0
   29.2067  -20.8770   -6.7617 N   0  0  0  0  0  0  0  0  0  0  0  0
   30.1853  -19.4381   -5.1054 C   0  0  0  0  0  0  0  0  0  0  0  0
   31.3497  -20.1880   -5.1495 O   0  0  0  0  0  0  0  0  0  0  0  0
   30.2058  -18.3412   -4.4721 O   0  0  0  0  0  0  0  0  0  0  0  0
  2  1  1  1
  3  2  1  0
  4  3  1  0
  5  4  1  0
  6  5  2  0
  7 10  1  0
  7  2  1  0
  8  7  2  0
  9  5  1  0
 10 14  1  0
 11 10  1  0
 11 12  1  0
 12 13  1  0
 14 13  1  0
 14 15  1  1
 15 22  1  0
 16 15  2  0
 18 19  1  1
 18 17  1  0
 20 18  1  0
 21 22  1  0
 21 20  1  1
 23 21  1  0
 23 24  1  0
 25 23  2  0
M  END
$$$$
