EPL.pdb
     RDKit          3D

 25 25  0  0  1  0  0  0  0  0999 V2000
   26.5107  -18.6753  -16.4843 N   0  0  0  0  0  0  0  0  0  0  0  0
   25.6590  -19.6241  -15.8200 C   0  0  1  0  0  0  0  0  0  0  0  0
   26.2459  -21.0079  -16.1549 C   0  0  0  0  0  0  0  0  0  0  0  0
   27.5382  -21.1394  -15.4020 C   0  0  0  0  0  0  0  0  0  0  0  0
   28.2568  -22.3919  -15.7231 C   0  0  0  0  0  0  0  0  0  0  0  0
   29.3349  -22.3452  -16.3304 O   0  0  0  0  0  0  0  0  0  0  0  0
   25.5489  -19.5124  -14.3794 C   0  0  0  0  0  0  0  0  0  0  0  0
   26.3557  -18.7104  -13.7902 O   0  0  0  0  0  0  0  0  0  0  0  0
   27.7431  -23.6220  -15.3550 O   0  0  0  0  0  0  0  0  0  0  0  0
   24.6338  -20.2078  -13.5693 N   0  0  0  0  0  0  0  0  0  0  0  0
   23.9514  -21.4670  -13.7546 C   0  0  0  0  0  0  0  0  0  0  0  0
   22.5261  -21.1358  -13.3373 C   0  0  0  0  0  0  0  0  0  0  0  0
   22.6664  -20.0130  -12.3673 C   0  0  0  0  0  0  0  0  0  0  0  0
   24.1397  -19.7448  -12.2509 C   0  0  1  0  0  0  0  0  0  0  0  0
   24.7924  -20.5038  -11.1650 C   0  0  0  0  0  0  0  0  0  0  0  0
   25.0385  -21.7424  -11.2957 O   0  0  0  0  0  0  0  0  0  0  0  0
   28.5836  -19.1725   -6.8795 C   0  0  0  0  0  0  0  0  0  0  0  0
   27.8804  -20.2929   -7.6655 C   0  0  2  0  0  0  0  0  0  0  0  0
   28.6692  -20.4465   -8.9460 C   0  0  0  0  0  0  0  0  0  0  0  0
   26.4738  -19.8293   -7.8659 C   0  0  0  0  0  0  0  0  0  0  0  0
   25.6562  -20.6527   -8.8068 C   0  0  2  0  0  0  0  0  0  0  0  0
   25.1712  -19.8927   -9.9384 N   0  0  0  0  0  0  0  0  0  0  0  0
   24.5509  -21.3900   -8.1650 C   0  0  0  0  0  0  0  0  0  0  0  0
   24.7275  -22.6209   -7.5536 O   0  0  0  0  0  0  0  0  0  0  0  0
   23.3885  -20.8866   -8.1677 O   0  0  0  0  0  0  0  0  0  0  0  0
  2  1  1  1
  3  2  1  0
  4  3  1  0
  5  4  1  0
  6  5  2  0
  7 10  1  0
  7  2  1  0
  8  7  2  0
  9  5  1  0
 10 14  1  0
 11 10  1  0
 11 12  1  0
 12 13  1  0
 14 13  1  0
 14 15  1  1
 15 22  1  0
 16 15  2  0
 18 19  1  6
 18 17  1  0
 20 18  1  0
 21 22  1  0
 21 20  1  1
 23 21  1  0
 23 24  1  0
 25 23  2  0
M  END
$$$$
