EPL.pdb
     RDKit          3D

 25 25  0  0  1  0  0  0  0  0999 V2000
   20.6724  -11.8448  -20.5376 N   0  0  0  0  0  0  0  0  0  0  0  0
   20.2524  -10.4743  -20.4267 C   0  0  1  0  0  0  0  0  0  0  0  0
   18.9130  -10.5152  -19.6677 C   0  0  0  0  0  0  0  0  0  0  0  0
   18.0919  -11.6190  -20.2691 C   0  0  0  0  0  0  0  0  0  0  0  0
   16.8195  -11.8374  -19.5471 C   0  0  0  0  0  0  0  0  0  0  0  0
   16.8106  -11.8649  -18.3092 O   0  0  0  0  0  0  0  0  0  0  0  0
   21.1433   -9.5683  -19.7300 C   0  0  0  0  0  0  0  0  0  0  0  0
   22.1844  -10.0755  -19.1823 O   0  0  0  0  0  0  0  0  0  0  0  0
   15.6320  -12.0126  -20.2339 O   0  0  0  0  0  0  0  0  0  0  0  0
   20.9659   -8.1793  -19.6011 N   0  0  0  0  0  0  0  0  0  0  0  0
   19.9253   -7.2965  -20.0735 C   0  0  0  0  0  0  0  0  0  0  0  0
   20.7157   -6.1263  -20.6402 C   0  0  0  0  0  0  0  0  0  0  0  0
   21.9923   -6.1234  -19.8712 C   0  0  0  0  0  0  0  0  0  0  0  0
   21.8948   -7.2633  -18.8979 C   0  0  1  0  0  0  0  0  0  0  0  0
   21.3343   -6.8731  -17.5883 C   0  0  0  0  0  0  0  0  0  0  0  0
   20.0800   -6.8757  -17.3922 O   0  0  0  0  0  0  0  0  0  0  0  0
   22.9973   -9.8642  -13.1200 C   0  0  0  0  0  0  0  0  0  0  0  0
   22.2449   -8.5344  -13.3022 C   0  0  2  0  0  0  0  0  0  0  0  0
   20.8172   -8.8169  -12.8933 C   0  0  0  0  0  0  0  0  0  0  0  0
   22.4074   -8.1682  -14.7421 C   0  0  0  0  0  0  0  0  0  0  0  0
   21.8610   -6.8326  -15.1286 C   0  0  2  0  0  0  0  0  0  0  0  0
   22.1607   -6.4812  -16.4997 N   0  0  0  0  0  0  0  0  0  0  0  0
   22.2389   -5.7353  -14.2173 C   0  0  0  0  0  0  0  0  0  0  0  0
   21.5104   -5.4209  -13.0813 O   0  0  0  0  0  0  0  0  0  0  0  0
   23.2696   -5.0454  -14.4748 O   0  0  0  0  0  0  0  0  0  0  0  0
  2  1  1  1
  3  2  1  0
  4  3  1  0
  5  4  1  0
  6  5  2  0
  7 10  1  0
  7  2  1  0
  8  7  2  0
  9  5  1  0
 10 14  1  0
 11 10  1  0
 11 12  1  0
 12 13  1  0
 14 13  1  0
 14 15  1  1
 15 22  1  0
 16 15  2  0
 18 19  1  6
 18 17  1  0
 20 18  1  0
 21 22  1  0
 21 20  1  1
 23 21  1  0
 23 24  1  0
 25 23  2  0
M  END
$$$$
