EPL.pdb
     RDKit          3D

 25 25  0  0  1  0  0  0  0  0999 V2000
   22.1968  -14.7943  -20.2664 N   0  0  0  0  0  0  0  0  0  0  0  0
   21.1574  -13.9358  -19.7667 C   0  0  1  0  0  0  0  0  0  0  0  0
   20.6866  -14.5835  -18.4513 C   0  0  0  0  0  0  0  0  0  0  0  0
   20.3088  -16.0030  -18.7621 C   0  0  0  0  0  0  0  0  0  0  0  0
   19.7655  -16.7161  -17.5855 C   0  0  0  0  0  0  0  0  0  0  0  0
   18.7402  -16.2980  -17.0312 O   0  0  0  0  0  0  0  0  0  0  0  0
   21.5173  -12.5590  -19.4932 C   0  0  0  0  0  0  0  0  0  0  0  0
   22.7560  -12.2465  -19.5893 O   0  0  0  0  0  0  0  0  0  0  0  0
   20.3860  -17.8484  -17.0899 O   0  0  0  0  0  0  0  0  0  0  0  0
   20.6259  -11.5336  -19.1306 N   0  0  0  0  0  0  0  0  0  0  0  0
   19.2089  -11.5473  -18.8522 C   0  0  0  0  0  0  0  0  0  0  0  0
   18.7086  -10.3333  -19.6209 C   0  0  0  0  0  0  0  0  0  0  0  0
   19.8799   -9.4138  -19.6815 C   0  0  0  0  0  0  0  0  0  0  0  0
   20.9933  -10.1090  -18.9513 C   0  0  1  0  0  0  0  0  0  0  0  0
   21.0544   -9.7739  -17.5142 C   0  0  0  0  0  0  0  0  0  0  0  0
   20.4846  -10.5102  -16.6511 O   0  0  0  0  0  0  0  0  0  0  0  0
   25.1488  -10.8309  -15.5818 C   0  0  0  0  0  0  0  0  0  0  0  0
   24.3194   -9.6701  -16.1581 C   0  0  2  0  0  0  0  0  0  0  0  0
   25.2541   -8.4826  -16.1943 C   0  0  0  0  0  0  0  0  0  0  0  0
   23.1551   -9.5038  -15.2358 C   0  0  0  0  0  0  0  0  0  0  0  0
   22.1485   -8.4819  -15.6533 C   0  0  2  0  0  0  0  0  0  0  0  0
   21.7444   -8.6268  -17.0349 N   0  0  0  0  0  0  0  0  0  0  0  0
   22.5454   -7.0888  -15.3722 C   0  0  0  0  0  0  0  0  0  0  0  0
   22.6933   -6.1369  -16.3683 O   0  0  0  0  0  0  0  0  0  0  0  0
   22.7628   -6.7377  -14.1747 O   0  0  0  0  0  0  0  0  0  0  0  0
  2  1  1  1
  3  2  1  0
  4  3  1  0
  5  4  1  0
  6  5  2  0
  7 10  1  0
  7  2  1  0
  8  7  2  0
  9  5  1  0
 10 14  1  0
 11 10  1  0
 11 12  1  0
 12 13  1  0
 14 13  1  0
 14 15  1  1
 15 22  1  0
 16 15  2  0
 18 19  1  1
 18 17  1  0
 20 18  1  0
 21 22  1  0
 21 20  1  6
 23 21  1  0
 23 24  1  0
 25 23  2  0
M  END
$$$$
