EPL.pdb
     RDKit          3D

 25 25  0  0  1  0  0  0  0  0999 V2000
   27.2073  -21.8356  -15.5431 N   0  0  0  0  0  0  0  0  0  0  0  0
   26.7873  -20.9280  -14.5102 C   0  0  1  0  0  0  0  0  0  0  0  0
   26.4790  -19.6015  -15.2293 C   0  0  0  0  0  0  0  0  0  0  0  0
   27.7884  -19.0250  -15.6846 C   0  0  0  0  0  0  0  0  0  0  0  0
   27.8976  -18.9597  -17.1583 C   0  0  0  0  0  0  0  0  0  0  0  0
   27.1225  -18.2400  -17.8022 O   0  0  0  0  0  0  0  0  0  0  0  0
   25.6230  -21.3075  -13.7354 C   0  0  0  0  0  0  0  0  0  0  0  0
   24.8033  -22.1314  -14.2743 O   0  0  0  0  0  0  0  0  0  0  0  0
   28.8559  -19.6926  -17.8345 O   0  0  0  0  0  0  0  0  0  0  0  0
   25.3122  -20.8504  -12.4424 N   0  0  0  0  0  0  0  0  0  0  0  0
   25.9821  -19.9173  -11.5672 C   0  0  0  0  0  0  0  0  0  0  0  0
   25.9507  -20.6385  -10.2278 C   0  0  0  0  0  0  0  0  0  0  0  0
   24.7510  -21.5198  -10.2999 C   0  0  0  0  0  0  0  0  0  0  0  0
   24.1355  -21.2759  -11.6481 C   0  0  1  0  0  0  0  0  0  0  0  0
   23.1102  -20.2128  -11.6437 C   0  0  0  0  0  0  0  0  0  0  0  0
   23.3850  -19.0442  -12.0567 O   0  0  0  0  0  0  0  0  0  0  0  0
   20.4913  -19.1350  -14.3204 C   0  0  0  0  0  0  0  0  0  0  0  0
   21.1267  -20.5171  -14.5521 C   0  0  2  0  0  0  0  0  0  0  0  0
   20.4338  -21.0829  -15.7707 C   0  0  0  0  0  0  0  0  0  0  0  0
   20.8860  -21.2920  -13.2970 C   0  0  0  0  0  0  0  0  0  0  0  0
   20.6447  -20.4697  -12.0733 C   0  0  2  0  0  0  0  0  0  0  0  0
   21.7850  -20.4436  -11.1832 N   0  0  0  0  0  0  0  0  0  0  0  0
   19.4181  -20.8261  -11.3346 C   0  0  0  0  0  0  0  0  0  0  0  0
   18.3489  -19.9558  -11.1945 O   0  0  0  0  0  0  0  0  0  0  0  0
   19.3282  -21.9719  -10.8021 O   0  0  0  0  0  0  0  0  0  0  0  0
  2  1  1  6
  3  2  1  0
  4  3  1  0
  5  4  1  0
  6  5  2  0
  7 10  1  0
  7  2  1  0
  8  7  2  0
  9  5  1  0
 10 14  1  0
 11 10  1  0
 11 12  1  0
 12 13  1  0
 14 13  1  0
 14 15  1  1
 15 22  1  0
 16 15  2  0
 18 19  1  6
 18 17  1  0
 20 18  1  0
 21 22  1  0
 21 20  1  6
 23 21  1  0
 23 24  1  0
 25 23  2  0
M  END
$$$$
