TAH.pdb
     RDKit          3D

 23 23  0  0  1  0  0  0  0  0999 V2000
   25.9624  -19.3431  -17.6000 C   0  0  0  0  0  0  0  0  0  0  0  0
   27.2508  -19.4945  -16.8029 C   0  0  1  0  0  0  0  0  0  0  0  0
   28.2876  -18.7741  -17.3587 O   0  0  0  0  0  0  0  0  0  0  0  0
   26.9840  -19.0709  -15.3612 C   0  0  2  0  0  0  0  0  0  0  0  0
   28.2247  -19.0058  -14.6084 N   0  0  0  0  0  0  0  0  0  0  0  0
   26.0318  -20.0362  -14.7746 C   0  0  0  0  0  0  0  0  0  0  0  0
   24.9708  -20.3887  -15.3425 O   0  0  0  0  0  0  0  0  0  0  0  0
   25.9959  -22.0263  -11.5540 C   0  0  0  0  0  0  0  0  0  0  0  0
   25.4281  -21.5062  -12.8620 C   0  0  2  0  0  0  0  0  0  0  0  0
   26.3500  -20.5848  -13.4991 N   0  0  0  0  0  0  0  0  0  0  0  0
   24.1632  -20.7271  -12.6041 C   0  0  0  0  0  0  0  0  0  0  0  0
   24.1723  -19.6593  -11.9136 O   0  0  0  0  0  0  0  0  0  0  0  0
   22.9192  -21.1473  -13.1157 N   0  0  0  0  0  0  0  0  0  0  0  0
   21.7063  -20.3918  -12.7614 C   0  0  1  0  0  0  0  0  0  0  0  0
   21.8159  -18.9736  -13.2641 C   0  0  0  0  0  0  0  0  0  0  0  0
   21.7903  -18.9122  -14.7420 C   0  0  0  0  0  0  0  0  0  0  0  0
   21.7219  -19.9395  -15.6571 C   0  0  0  0  0  0  0  0  0  0  0  0
   21.7396  -19.4288  -16.8974 N   0  0  0  0  0  0  0  0  0  0  0  0
   21.8184  -18.1011  -16.7592 C   0  0  0  0  0  0  0  0  0  0  0  0
   21.8507  -17.7615  -15.4636 N   0  0  0  0  0  0  0  0  0  0  0  0
   20.5657  -21.1040  -13.3545 C   0  0  0  0  0  0  0  0  0  0  0  0
   19.2840  -20.6796  -13.1420 O   0  0  0  0  0  0  0  0  0  0  0  0
   20.7728  -22.1143  -14.0644 O   0  0  0  0  0  0  0  0  0  0  0  0
  2  4  1  0
  2  1  1  6
  3  2  1  0
  4  5  1  1
  6  4  1  0
  7  6  2  0
  9  8  1  1
  9 11  1  0
  9 10  1  0
 10  6  1  0
 11 13  1  0
 12 11  2  0
 13 14  1  0
 14 21  1  0
 14 15  1  6
 16 15  1  0
 17 16  2  0
 18 17  1  0
 19 18  1  0
 19 20  2  0
 20 16  1  0
 21 22  1  0
 23 21  2  0
M  END
$$$$
