TAH.pdb
     RDKit          3D

 23 23  0  0  1  0  0  0  0  0999 V2000
   17.3892  -13.0698  -15.1723 C   0  0  0  0  0  0  0  0  0  0  0  0
   17.2684  -12.2712  -16.4630 C   0  0  1  0  0  0  0  0  0  0  0  0
   16.2951  -11.2975  -16.3766 O   0  0  0  0  0  0  0  0  0  0  0  0
   18.6325  -11.6719  -16.7941 C   0  0  2  0  0  0  0  0  0  0  0  0
   19.6488  -12.7086  -16.8453 N   0  0  0  0  0  0  0  0  0  0  0  0
   18.9375  -10.6491  -15.7726 C   0  0  0  0  0  0  0  0  0  0  0  0
   19.2239  -10.9270  -14.5839 O   0  0  0  0  0  0  0  0  0  0  0  0
   19.4657   -6.9170  -15.9132 C   0  0  0  0  0  0  0  0  0  0  0  0
   19.2162   -8.2417  -15.2156 C   0  0  2  0  0  0  0  0  0  0  0  0
   18.8999   -9.2831  -16.1749 N   0  0  0  0  0  0  0  0  0  0  0  0
   18.0203   -8.1298  -14.3041 C   0  0  0  0  0  0  0  0  0  0  0  0
   16.8414   -8.3457  -14.7290 O   0  0  0  0  0  0  0  0  0  0  0  0
   18.1568   -7.7822  -12.9453 N   0  0  0  0  0  0  0  0  0  0  0  0
   16.9488   -7.6521  -12.1139 C   0  0  1  0  0  0  0  0  0  0  0  0
   17.3273   -7.6231  -10.6539 C   0  0  0  0  0  0  0  0  0  0  0  0
   16.1381   -7.5082   -9.7813 C   0  0  0  0  0  0  0  0  0  0  0  0
   14.8027   -7.5425  -10.1172 C   0  0  0  0  0  0  0  0  0  0  0  0
   14.0637   -7.3841   -9.0089 N   0  0  0  0  0  0  0  0  0  0  0  0
   14.9254   -7.2523   -7.9949 C   0  0  0  0  0  0  0  0  0  0  0  0
   16.1886   -7.3237   -8.4353 N   0  0  0  0  0  0  0  0  0  0  0  0
   16.2660   -6.4205  -12.5346 C   0  0  0  0  0  0  0  0  0  0  0  0
   14.9119   -6.3948  -12.7183 O   0  0  0  0  0  0  0  0  0  0  0  0
   16.9360   -5.3806  -12.7272 O   0  0  0  0  0  0  0  0  0  0  0  0
  2  4  1  0
  2  1  1  1
  3  2  1  0
  4  5  1  1
  6  4  1  0
  7  6  2  0
  9  8  1  6
  9 11  1  0
  9 10  1  0
 10  6  1  0
 11 13  1  0
 12 11  2  0
 13 14  1  0
 14 21  1  0
 14 15  1  1
 16 15  1  0
 17 16  2  0
 18 17  1  0
 19 18  1  0
 19 20  2  0
 20 16  1  0
 21 22  1  0
 23 21  2  0
M  END
$$$$
