TAH.pdb
     RDKit          3D

 23 23  0  0  1  0  0  0  0  0999 V2000
   24.6814  -15.9912  -16.7222 C   0  0  0  0  0  0  0  0  0  0  0  0
   24.9650  -17.4173  -16.2706 C   0  0  1  0  0  0  0  0  0  0  0  0
   25.7041  -18.1151  -17.2033 O   0  0  0  0  0  0  0  0  0  0  0  0
   25.6716  -17.3686  -14.9187 C   0  0  2  0  0  0  0  0  0  0  0  0
   26.9931  -16.7801  -15.0523 N   0  0  0  0  0  0  0  0  0  0  0  0
   25.7314  -18.7465  -14.3893 C   0  0  0  0  0  0  0  0  0  0  0  0
   24.7206  -19.4757  -14.2514 O   0  0  0  0  0  0  0  0  0  0  0  0
   28.5460  -21.0786  -13.4665 C   0  0  0  0  0  0  0  0  0  0  0  0
   27.1134  -20.5784  -13.4313 C   0  0  2  0  0  0  0  0  0  0  0  0
   27.0093  -19.2572  -14.0217 N   0  0  0  0  0  0  0  0  0  0  0  0
   26.6478  -20.4407  -12.0038 C   0  0  0  0  0  0  0  0  0  0  0  0
   27.1311  -19.5530  -11.2322 O   0  0  0  0  0  0  0  0  0  0  0  0
   25.6593  -21.2878  -11.4640 N   0  0  0  0  0  0  0  0  0  0  0  0
   25.2175  -21.0797  -10.0752 C   0  0  1  0  0  0  0  0  0  0  0  0
   25.7029  -19.7423   -9.5736 C   0  0  0  0  0  0  0  0  0  0  0  0
   26.5806  -19.8858   -8.3914 C   0  0  0  0  0  0  0  0  0  0  0  0
   27.0682  -21.0304   -7.8002 C   0  0  0  0  0  0  0  0  0  0  0  0
   27.8155  -20.6954   -6.7377 N   0  0  0  0  0  0  0  0  0  0  0  0
   27.7948  -19.3603   -6.6659 C   0  0  0  0  0  0  0  0  0  0  0  0
   27.0538  -18.8448   -7.6558 N   0  0  0  0  0  0  0  0  0  0  0  0
   23.7508  -21.1751  -10.0701 C   0  0  0  0  0  0  0  0  0  0  0  0
   23.0652  -21.4065   -8.9107 O   0  0  0  0  0  0  0  0  0  0  0  0
   23.1219  -21.0423  -11.1445 O   0  0  0  0  0  0  0  0  0  0  0  0
  2  4  1  0
  2  1  1  6
  3  2  1  0
  4  5  1  6
  6  4  1  0
  7  6  2  0
  9  8  1  1
  9 11  1  0
  9 10  1  0
 10  6  1  0
 11 13  1  0
 12 11  2  0
 13 14  1  0
 14 21  1  0
 14 15  1  6
 16 15  1  0
 17 16  2  0
 18 17  1  0
 19 18  1  0
 19 20  2  0
 20 16  1  0
 21 22  1  0
 23 21  2  0
M  END
$$$$
