TAH.pdb
     RDKit          3D

 23 23  0  0  1  0  0  0  0  0999 V2000
   25.4929  -32.1384   -8.7601 C   0  0  0  0  0  0  0  0  0  0  0  0
   24.6374  -32.7119   -7.6387 C   0  0  1  0  0  0  0  0  0  0  0  0
   24.0213  -33.8884   -8.0116 O   0  0  0  0  0  0  0  0  0  0  0  0
   25.5166  -32.9061   -6.4063 C   0  0  2  0  0  0  0  0  0  0  0  0
   26.4367  -34.0130   -6.6027 N   0  0  0  0  0  0  0  0  0  0  0  0
   24.6280  -33.1253   -5.2466 C   0  0  0  0  0  0  0  0  0  0  0  0
   23.7884  -32.2811   -4.8530 O   0  0  0  0  0  0  0  0  0  0  0  0
   23.8330  -36.1348   -3.1304 C   0  0  0  0  0  0  0  0  0  0  0  0
   23.8582  -34.6487   -3.4383 C   0  0  2  0  0  0  0  0  0  0  0  0
   24.7436  -34.3633   -4.5515 N   0  0  0  0  0  0  0  0  0  0  0  0
   24.4034  -33.8846   -2.2584 C   0  0  0  0  0  0  0  0  0  0  0  0
   25.6401  -33.6038   -2.1654 O   0  0  0  0  0  0  0  0  0  0  0  0
   23.5683  -33.4494   -1.2100 N   0  0  0  0  0  0  0  0  0  0  0  0
   24.1724  -32.8012   -0.0343 C   0  0  1  0  0  0  0  0  0  0  0  0
   23.0982  -32.1723    0.8178 C   0  0  0  0  0  0  0  0  0  0  0  0
   23.6458  -31.6365    2.0834 C   0  0  0  0  0  0  0  0  0  0  0  0
   24.6998  -30.7721    2.2815 C   0  0  0  0  0  0  0  0  0  0  0  0
   24.8608  -30.5654    3.5972 N   0  0  0  0  0  0  0  0  0  0  0  0
   23.9209  -31.2907    4.2123 C   0  0  0  0  0  0  0  0  0  0  0  0
   23.1712  -31.9493    3.3185 N   0  0  0  0  0  0  0  0  0  0  0  0
   24.9215  -33.8365    0.6918 C   0  0  0  0  0  0  0  0  0  0  0  0
   26.1738  -33.5869    1.1791 O   0  0  0  0  0  0  0  0  0  0  0  0
   24.4035  -34.9630    0.8656 O   0  0  0  0  0  0  0  0  0  0  0  0
  2  4  1  0
  2  1  1  6
  3  2  1  0
  4  5  1  6
  6  4  1  0
  7  6  2  0
  9  8  1  1
  9 11  1  0
  9 10  1  0
 10  6  1  0
 11 13  1  0
 12 11  2  0
 13 14  1  0
 14 21  1  0
 14 15  1  1
 16 15  1  0
 17 16  2  0
 18 17  1  0
 19 18  1  0
 19 20  2  0
 20 16  1  0
 21 22  1  0
 23 21  2  0
M  END
$$$$
