TAH.pdb
     RDKit          3D

 23 23  0  0  1  0  0  0  0  0999 V2000
   16.3553   -7.8515  -16.7755 C   0  0  0  0  0  0  0  0  0  0  0  0
   17.5931   -7.6491  -15.9124 C   0  0  1  0  0  0  0  0  0  0  0  0
   17.5450   -6.4603  -15.2142 O   0  0  0  0  0  0  0  0  0  0  0  0
   17.7331   -8.8446  -14.9740 C   0  0  2  0  0  0  0  0  0  0  0  0
   16.5728   -8.9536  -14.1067 N   0  0  0  0  0  0  0  0  0  0  0  0
   18.9831   -8.6728  -14.2055 C   0  0  0  0  0  0  0  0  0  0  0  0
   19.0075   -8.3721  -12.9884 O   0  0  0  0  0  0  0  0  0  0  0  0
   22.4828   -9.7675  -14.7576 C   0  0  0  0  0  0  0  0  0  0  0  0
   21.4657   -8.8090  -14.1656 C   0  0  2  0  0  0  0  0  0  0  0  0
   20.2139   -8.8620  -14.8971 N   0  0  0  0  0  0  0  0  0  0  0  0
   21.9626   -7.3901  -14.2815 C   0  0  0  0  0  0  0  0  0  0  0  0
   23.1205   -7.0586  -13.8737 O   0  0  0  0  0  0  0  0  0  0  0  0
   21.1675   -6.3724  -14.8454 N   0  0  0  0  0  0  0  0  0  0  0  0
   21.7022   -5.0027  -14.9187 C   0  0  1  0  0  0  0  0  0  0  0  0
   21.1337   -4.2900  -16.1206 C   0  0  0  0  0  0  0  0  0  0  0  0
   21.7015   -4.8081  -17.3846 C   0  0  0  0  0  0  0  0  0  0  0  0
   22.7481   -5.6826  -17.5774 C   0  0  0  0  0  0  0  0  0  0  0  0
   22.9349   -5.8655  -18.8932 N   0  0  0  0  0  0  0  0  0  0  0  0
   22.0180   -5.1156  -19.5137 C   0  0  0  0  0  0  0  0  0  0  0  0
   21.2579   -4.4646  -18.6230 N   0  0  0  0  0  0  0  0  0  0  0  0
   21.3492   -4.3337  -13.6585 C   0  0  0  0  0  0  0  0  0  0  0  0
   21.8743   -3.1129  -13.3394 O   0  0  0  0  0  0  0  0  0  0  0  0
   20.5558   -4.8917  -12.8669 O   0  0  0  0  0  0  0  0  0  0  0  0
  2  4  1  0
  2  1  1  1
  3  2  1  0
  4  5  1  1
  6  4  1  0
  7  6  2  0
  9  8  1  6
  9 11  1  0
  9 10  1  0
 10  6  1  0
 11 13  1  0
 12 11  2  0
 13 14  1  0
 14 21  1  0
 14 15  1  6
 16 15  1  0
 17 16  2  0
 18 17  1  0
 19 18  1  0
 19 20  2  0
 20 16  1  0
 21 22  1  0
 23 21  2  0
M  END
$$$$
