TAH.pdb
     RDKit          3D

 23 23  0  0  1  0  0  0  0  0999 V2000
   20.6349  -12.6490  -20.1221 C   0  0  0  0  0  0  0  0  0  0  0  0
   19.7920  -13.7915  -19.5721 C   0  0  1  0  0  0  0  0  0  0  0  0
   19.3775  -14.6511  -20.5682 O   0  0  0  0  0  0  0  0  0  0  0  0
   20.5997  -14.5214  -18.5025 C   0  0  2  0  0  0  0  0  0  0  0  0
   19.9295  -15.7462  -18.1012 N   0  0  0  0  0  0  0  0  0  0  0  0
   20.7865  -13.5959  -17.3662 C   0  0  0  0  0  0  0  0  0  0  0  0
   19.8344  -13.1015  -16.7170 O   0  0  0  0  0  0  0  0  0  0  0  0
   23.8346  -12.2038  -15.6096 C   0  0  0  0  0  0  0  0  0  0  0  0
   22.3576  -12.2905  -15.9482 C   0  0  2  0  0  0  0  0  0  0  0  0
   22.1219  -13.2586  -17.0027 N   0  0  0  0  0  0  0  0  0  0  0  0
   21.8684  -10.9650  -16.4748 C   0  0  0  0  0  0  0  0  0  0  0  0
   22.0435  -10.6294  -17.6887 O   0  0  0  0  0  0  0  0  0  0  0  0
   21.1975  -10.0430  -15.6467 N   0  0  0  0  0  0  0  0  0  0  0  0
   20.7995   -8.7387  -16.2015 C   0  0  1  0  0  0  0  0  0  0  0  0
   19.3141   -8.7206  -16.4639 C   0  0  0  0  0  0  0  0  0  0  0  0
   18.8560   -7.3938  -16.9315 C   0  0  0  0  0  0  0  0  0  0  0  0
   18.2670   -6.3729  -16.2186 C   0  0  0  0  0  0  0  0  0  0  0  0
   17.9996   -5.3522  -17.0470 N   0  0  0  0  0  0  0  0  0  0  0  0
   18.4155   -5.7302  -18.2603 C   0  0  0  0  0  0  0  0  0  0  0  0
   18.9383   -6.9630  -18.2183 N   0  0  0  0  0  0  0  0  0  0  0  0
   21.2036   -7.7143  -15.2281 C   0  0  0  0  0  0  0  0  0  0  0  0
   21.3037   -6.4003  -15.5907 O   0  0  0  0  0  0  0  0  0  0  0  0
   21.4595   -8.0520  -14.0500 O   0  0  0  0  0  0  0  0  0  0  0  0
  2  4  1  0
  2  1  1  6
  3  2  1  0
  4  5  1  1
  6  4  1  0
  7  6  2  0
  9  8  1  6
  9 11  1  0
  9 10  1  0
 10  6  1  0
 11 13  1  0
 12 11  2  0
 13 14  1  0
 14 21  1  0
 14 15  1  1
 16 15  1  0
 17 16  2  0
 18 17  1  0
 19 18  1  0
 19 20  2  0
 20 16  1  0
 21 22  1  0
 23 21  2  0
M  END
$$$$
