TAH.pdb
     RDKit          3D

 23 23  0  0  1  0  0  0  0  0999 V2000
   22.1058  -11.1177  -21.2179 C   0  0  0  0  0  0  0  0  0  0  0  0
   21.7070  -10.4219  -19.9237 C   0  0  1  0  0  0  0  0  0  0  0  0
   20.5943   -9.6238  -20.0902 O   0  0  0  0  0  0  0  0  0  0  0  0
   21.4798  -11.4830  -18.8505 C   0  0  2  0  0  0  0  0  0  0  0  0
   20.3675  -12.3454  -19.2101 N   0  0  0  0  0  0  0  0  0  0  0  0
   21.2473  -10.7871  -17.5681 C   0  0  0  0  0  0  0  0  0  0  0  0
   20.1111  -10.4342  -17.1722 O   0  0  0  0  0  0  0  0  0  0  0  0
   23.2346  -10.3993  -14.4616 C   0  0  0  0  0  0  0  0  0  0  0  0
   22.1996   -9.8958  -15.4510 C   0  0  2  0  0  0  0  0  0  0  0  0
   22.3819  -10.5108  -16.7524 N   0  0  0  0  0  0  0  0  0  0  0  0
   22.3614   -8.4112  -15.6593 C   0  0  0  0  0  0  0  0  0  0  0  0
   23.2102   -7.9469  -16.4844 O   0  0  0  0  0  0  0  0  0  0  0  0
   21.5811   -7.4762  -14.9503 N   0  0  0  0  0  0  0  0  0  0  0  0
   21.8559   -6.0396  -15.1177 C   0  0  1  0  0  0  0  0  0  0  0  0
   20.5853   -5.3086  -15.4738 C   0  0  0  0  0  0  0  0  0  0  0  0
   20.2077   -5.5225  -16.8882 C   0  0  0  0  0  0  0  0  0  0  0  0
   20.9088   -6.1519  -17.8930 C   0  0  0  0  0  0  0  0  0  0  0  0
   20.1953   -6.1024  -19.0279 N   0  0  0  0  0  0  0  0  0  0  0  0
   19.0645   -5.4510  -18.7363 C   0  0  0  0  0  0  0  0  0  0  0  0
   19.0466   -5.0886  -17.4467 N   0  0  0  0  0  0  0  0  0  0  0  0
   22.4358   -5.5612  -13.8547 C   0  0  0  0  0  0  0  0  0  0  0  0
   22.4801   -6.3668  -12.7515 O   0  0  0  0  0  0  0  0  0  0  0  0
   22.8955   -4.3984  -13.7901 O   0  0  0  0  0  0  0  0  0  0  0  0
  2  4  1  0
  2  1  1  6
  3  2  1  0
  4  5  1  6
  6  4  1  0
  7  6  2  0
  9  8  1  1
  9 11  1  0
  9 10  1  0
 10  6  1  0
 11 13  1  0
 12 11  2  0
 13 14  1  0
 14 21  1  0
 14 15  1  1
 16 15  1  0
 17 16  2  0
 18 17  1  0
 19 18  1  0
 19 20  2  0
 20 16  1  0
 21 22  1  0
 23 21  2  0
M  END
$$$$
