TAH.pdb
     RDKit          3D

 23 23  0  0  1  0  0  0  0  0999 V2000
   27.8310  -18.4848  -17.1058 C   0  0  0  0  0  0  0  0  0  0  0  0
   27.3565  -19.4909  -16.0662 C   0  0  1  0  0  0  0  0  0  0  0  0
   28.2688  -20.5091  -15.8815 O   0  0  0  0  0  0  0  0  0  0  0  0
   27.0745  -18.7483  -14.7630 C   0  0  2  0  0  0  0  0  0  0  0  0
   26.7594  -19.6844  -13.6978 N   0  0  0  0  0  0  0  0  0  0  0  0
   25.9678  -17.8017  -15.0120 C   0  0  0  0  0  0  0  0  0  0  0  0
   24.7662  -18.1519  -15.0888 O   0  0  0  0  0  0  0  0  0  0  0  0
   25.7609  -14.0468  -14.9747 C   0  0  0  0  0  0  0  0  0  0  0  0
   25.2422  -15.4390  -15.2854 C   0  0  2  0  0  0  0  0  0  0  0  0
   26.2998  -16.4256  -15.1704 N   0  0  0  0  0  0  0  0  0  0  0  0
   24.7569  -15.5047  -16.7114 C   0  0  0  0  0  0  0  0  0  0  0  0
   25.5682  -15.6357  -17.6817 O   0  0  0  0  0  0  0  0  0  0  0  0
   23.3865  -15.4238  -17.0300 N   0  0  0  0  0  0  0  0  0  0  0  0
   22.9703  -15.5332  -18.4379 C   0  0  1  0  0  0  0  0  0  0  0  0
   23.3000  -16.9062  -18.9689 C   0  0  0  0  0  0  0  0  0  0  0  0
   22.5142  -17.9599  -18.2900 C   0  0  0  0  0  0  0  0  0  0  0  0
   22.1594  -18.0657  -16.9632 C   0  0  0  0  0  0  0  0  0  0  0  0
   21.4571  -19.1942  -16.7820 N   0  0  0  0  0  0  0  0  0  0  0  0
   21.3745  -19.7852  -17.9786 C   0  0  0  0  0  0  0  0  0  0  0  0
   22.0066  -19.0584  -18.9098 N   0  0  0  0  0  0  0  0  0  0  0  0
   21.5286  -15.2517  -18.4848 C   0  0  0  0  0  0  0  0  0  0  0  0
   20.8378  -15.3138  -19.6625 O   0  0  0  0  0  0  0  0  0  0  0  0
   20.9258  -14.9505  -17.4295 O   0  0  0  0  0  0  0  0  0  0  0  0
  2  4  1  0
  2  1  1  6
  3  2  1  0
  4  5  1  1
  6  4  1  0
  7  6  2  0
  9  8  1  6
  9 11  1  0
  9 10  1  0
 10  6  1  0
 11 13  1  0
 12 11  2  0
 13 14  1  0
 14 21  1  0
 14 15  1  1
 16 15  1  0
 17 16  2  0
 18 17  1  0
 19 18  1  0
 19 20  2  0
 20 16  1  0
 21 22  1  0
 23 21  2  0
M  END
$$$$
