TAH.pdb
     RDKit          3D

 23 23  0  0  1  0  0  0  0  0999 V2000
   26.3861  -29.4936    5.1220 C   0  0  0  0  0  0  0  0  0  0  0  0
   26.8180  -30.9519    5.0518 C   0  0  1  0  0  0  0  0  0  0  0  0
   26.1697  -31.6328    4.0424 O   0  0  0  0  0  0  0  0  0  0  0  0
   28.3335  -31.0030    4.8783 C   0  0  2  0  0  0  0  0  0  0  0  0
   28.7748  -32.3641    4.6274 N   0  0  0  0  0  0  0  0  0  0  0  0
   28.9479  -30.4389    6.0977 C   0  0  0  0  0  0  0  0  0  0  0  0
   28.8083  -30.9448    7.2365 O   0  0  0  0  0  0  0  0  0  0  0  0
   31.3621  -27.6043    6.7284 C   0  0  0  0  0  0  0  0  0  0  0  0
   30.3388  -28.6524    7.1260 C   0  0  2  0  0  0  0  0  0  0  0  0
   29.7354  -29.2605    5.9551 N   0  0  0  0  0  0  0  0  0  0  0  0
   29.2125  -28.0106    7.8961 C   0  0  0  0  0  0  0  0  0  0  0  0
   28.2316  -27.4622    7.3011 O   0  0  0  0  0  0  0  0  0  0  0  0
   29.1981  -27.9906    9.3051 N   0  0  0  0  0  0  0  0  0  0  0  0
   28.0893  -27.3171   10.0011 C   0  0  1  0  0  0  0  0  0  0  0  0
   27.4651  -28.2536   11.0056 C   0  0  0  0  0  0  0  0  0  0  0  0
   26.6801  -29.3205   10.3467 C   0  0  0  0  0  0  0  0  0  0  0  0
   25.5888  -29.2127    9.5131 C   0  0  0  0  0  0  0  0  0  0  0  0
   25.1814  -30.4402    9.1571 N   0  0  0  0  0  0  0  0  0  0  0  0
   26.0063  -31.3027    9.7601 C   0  0  0  0  0  0  0  0  0  0  0  0
   26.9234  -30.6507   10.4871 N   0  0  0  0  0  0  0  0  0  0  0  0
   28.6455  -26.1136   10.6355 C   0  0  0  0  0  0  0  0  0  0  0  0
   27.8424  -25.2432   11.3175 O   0  0  0  0  0  0  0  0  0  0  0  0
   29.8732  -25.8840   10.5488 O   0  0  0  0  0  0  0  0  0  0  0  0
  2  4  1  0
  2  1  1  6
  3  2  1  0
  4  5  1  1
  6  4  1  0
  7  6  2  0
  9  8  1  6
  9 11  1  0
  9 10  1  0
 10  6  1  0
 11 13  1  0
 12 11  2  0
 13 14  1  0
 14 21  1  0
 14 15  1  1
 16 15  1  0
 17 16  2  0
 18 17  1  0
 19 18  1  0
 19 20  2  0
 20 16  1  0
 21 22  1  0
 23 21  2  0
M  END
$$$$
