TAH.pdb
     RDKit          3D

 23 23  0  0  1  0  0  0  0  0999 V2000
   17.6213  -11.2340  -18.0737 C   0  0  0  0  0  0  0  0  0  0  0  0
   18.5757  -10.1609  -17.5681 C   0  0  1  0  0  0  0  0  0  0  0  0
   18.4949  -10.0034  -16.2000 O   0  0  0  0  0  0  0  0  0  0  0  0
   19.9918  -10.5224  -18.0077 C   0  0  2  0  0  0  0  0  0  0  0  0
   20.3849  -11.8098  -17.4614 N   0  0  0  0  0  0  0  0  0  0  0  0
   20.8930   -9.4373  -17.5683 C   0  0  0  0  0  0  0  0  0  0  0  0
   21.3988   -9.3839  -16.4221 O   0  0  0  0  0  0  0  0  0  0  0  0
   22.5250   -6.5586  -19.3956 C   0  0  0  0  0  0  0  0  0  0  0  0
   22.1932   -7.4087  -18.1827 C   0  0  2  0  0  0  0  0  0  0  0  0
   21.1920   -8.4076  -18.5061 N   0  0  0  0  0  0  0  0  0  0  0  0
   21.5974   -6.5501  -17.0959 C   0  0  0  0  0  0  0  0  0  0  0  0
   20.3491   -6.3122  -17.0494 O   0  0  0  0  0  0  0  0  0  0  0  0
   22.3959   -5.9756  -16.0868 N   0  0  0  0  0  0  0  0  0  0  0  0
   21.7543   -5.1609  -15.0418 C   0  0  1  0  0  0  0  0  0  0  0  0
   22.1392   -5.6751  -13.6769 C   0  0  0  0  0  0  0  0  0  0  0  0
   21.2627   -6.7846  -13.2417 C   0  0  0  0  0  0  0  0  0  0  0  0
   20.1451   -7.3060  -13.8552 C   0  0  0  0  0  0  0  0  0  0  0  0
   19.6485   -8.2977  -13.1006 N   0  0  0  0  0  0  0  0  0  0  0  0
   20.4445   -8.3942  -12.0304 C   0  0  0  0  0  0  0  0  0  0  0  0
   21.4302   -7.4890  -12.0909 N   0  0  0  0  0  0  0  0  0  0  0  0
   22.1845   -3.7714  -15.2530 C   0  0  0  0  0  0  0  0  0  0  0  0
   23.0813   -3.4544  -16.2344 O   0  0  0  0  0  0  0  0  0  0  0  0
   21.7217   -2.8663  -14.5223 O   0  0  0  0  0  0  0  0  0  0  0  0
  2  4  1  0
  2  1  1  1
  3  2  1  0
  4  5  1  1
  6  4  1  0
  7  6  2  0
  9  8  1  6
  9 11  1  0
  9 10  1  0
 10  6  1  0
 11 13  1  0
 12 11  2  0
 13 14  1  0
 14 21  1  0
 14 15  1  1
 16 15  1  0
 17 16  2  0
 18 17  1  0
 19 18  1  0
 19 20  2  0
 20 16  1  0
 21 22  1  0
 23 21  2  0
M  END
$$$$
