TAH.pdb
     RDKit          3D

 23 23  0  0  1  0  0  0  0  0999 V2000
   18.2661  -10.8983  -16.7013 C   0  0  0  0  0  0  0  0  0  0  0  0
   19.0153  -12.2112  -16.5192 C   0  0  1  0  0  0  0  0  0  0  0  0
   18.2540  -13.2957  -16.9029 O   0  0  0  0  0  0  0  0  0  0  0  0
   20.3224  -12.1388  -17.3037 C   0  0  2  0  0  0  0  0  0  0  0  0
   21.0080  -13.4192  -17.2764 N   0  0  0  0  0  0  0  0  0  0  0  0
   21.1434  -11.0598  -16.7167 C   0  0  0  0  0  0  0  0  0  0  0  0
   21.5982  -11.0983  -15.5488 O   0  0  0  0  0  0  0  0  0  0  0  0
   22.5699   -7.8306  -18.0636 C   0  0  0  0  0  0  0  0  0  0  0  0
   22.1494   -8.8004  -16.9743 C   0  0  2  0  0  0  0  0  0  0  0  0
   21.4231   -9.9258  -17.5320 N   0  0  0  0  0  0  0  0  0  0  0  0
   21.2051   -8.1226  -16.0139 C   0  0  0  0  0  0  0  0  0  0  0  0
   19.9472   -8.2915  -16.0919 O   0  0  0  0  0  0  0  0  0  0  0  0
   21.6743   -7.2748  -14.9907 N   0  0  0  0  0  0  0  0  0  0  0  0
   20.7131   -6.7157  -14.0259 C   0  0  1  0  0  0  0  0  0  0  0  0
   20.0369   -7.8296  -13.2658 C   0  0  0  0  0  0  0  0  0  0  0  0
   19.0731   -7.3087  -12.2716 C   0  0  0  0  0  0  0  0  0  0  0  0
   18.0808   -6.3663  -12.4288 C   0  0  0  0  0  0  0  0  0  0  0  0
   17.4536   -6.1851  -11.2569 N   0  0  0  0  0  0  0  0  0  0  0  0
   18.0459   -7.0024  -10.3799 C   0  0  0  0  0  0  0  0  0  0  0  0
   19.0304   -7.6945  -10.9687 N   0  0  0  0  0  0  0  0  0  0  0  0
   21.4650   -5.8160  -13.1397 C   0  0  0  0  0  0  0  0  0  0  0  0
   20.8234   -4.8743  -12.3851 O   0  0  0  0  0  0  0  0  0  0  0  0
   22.7115   -5.9150  -13.0764 O   0  0  0  0  0  0  0  0  0  0  0  0
  2  4  1  0
  2  1  1  6
  3  2  1  0
  4  5  1  1
  6  4  1  0
  7  6  2  0
  9  8  1  6
  9 11  1  0
  9 10  1  0
 10  6  1  0
 11 13  1  0
 12 11  2  0
 13 14  1  0
 14 21  1  0
 14 15  1  1
 16 15  1  0
 17 16  2  0
 18 17  1  0
 19 18  1  0
 19 20  2  0
 20 16  1  0
 21 22  1  0
 23 21  2  0
M  END
$$$$
