GRH.pdb
     RDKit          3D

 26 26  0  0  1  0  0  0  0  0999 V2000
   12.3911  -18.9593   17.3187 N   0  0  0  0  0  0  0  0  0  0  0  0
   11.3236  -18.2321   17.9502 C   0  0  0  0  0  0  0  0  0  0  0  0
   11.8680  -17.2948   18.9922 C   0  0  0  0  0  0  0  0  0  0  0  0
   13.0687  -17.3795   19.2522 O   0  0  0  0  0  0  0  0  0  0  0  0
    7.4326  -14.6141   17.1304 N   0  0  0  0  0  0  0  0  0  0  0  0
    7.8197  -13.4511   17.8525 C   0  0  0  0  0  0  0  0  0  0  0  0
    8.5822  -12.5531   17.3057 N   0  0  0  0  0  0  0  0  0  0  0  0
    7.3958  -13.2215   19.1870 N   0  0  0  0  0  0  0  0  0  0  0  0
    8.1450  -13.6818   20.3155 C   0  0  0  0  0  0  0  0  0  0  0  0
    9.6158  -13.8285   19.9051 C   0  0  0  0  0  0  0  0  0  0  0  0
   10.3537  -14.4120   21.0592 C   0  0  0  0  0  0  0  0  0  0  0  0
   11.3599  -15.4805   20.7033 C   0  0  2  0  0  0  0  0  0  0  0  0
   11.0318  -16.3546   19.6456 N   0  0  0  0  0  0  0  0  0  0  0  0
   12.0069  -16.0537   21.8858 C   0  0  0  0  0  0  0  0  0  0  0  0
   11.2400  -16.6644   22.6996 O   0  0  0  0  0  0  0  0  0  0  0  0
    8.9313  -11.7284   17.8244 N   0  0  0  0  0  0  0  0  0  0  0  0
   13.3876  -15.9690   22.1630 C   0  0  1  0  0  0  0  0  0  0  0  0
   14.0143  -16.6496   23.3072 C   0  0  0  0  0  0  0  0  0  0  0  0
   14.7262  -17.8787   22.8758 C   0  0  0  0  0  0  0  0  0  0  0  0
   13.8800  -19.0473   22.5715 C   0  0  0  0  0  0  0  0  0  0  0  0
   12.9873  -19.7377   23.3207 N   0  0  0  0  0  0  0  0  0  0  0  0
   12.4112  -20.7002   22.5527 C   0  0  0  0  0  0  0  0  0  0  0  0
   12.9474  -20.6036   21.3276 N   0  0  0  0  0  0  0  0  0  0  0  0
   13.8378  -19.6072   21.3243 C   0  0  0  0  0  0  0  0  0  0  0  0
   15.0970  -15.6752   23.7368 O   0  0  0  0  0  0  0  0  0  0  0  0
   15.8514  -15.9618   24.8353 O   0  0  0  0  0  0  0  0  0  0  0  0
  2  1  1  0
  3  2  1  0
  3 13  1  0
  4  3  2  0
  5  6  1  0
  6  8  1  0
  7  6  2  0
  8  9  1  0
  9 10  1  0
 10 11  1  0
 12 11  1  1
 12 13  1  0
 14 12  1  0
 15 14  2  0
 16 14  1  0
 17 16  1  0
 17 18  1  1
 19 23  1  0
 19 18  1  0
 20 19  2  0
 21 20  1  0
 21 22  1  0
 22 23  2  0
 24 17  1  0
 25 24  1  0
 26 24  2  0
M  END
$$$$
