GRH.pdb
     RDKit          3D

 26 26  0  0  1  0  0  0  0  0999 V2000
    6.6769  -19.5782   18.8895 N   0  0  0  0  0  0  0  0  0  0  0  0
    6.4563  -18.8102   20.0848 C   0  0  0  0  0  0  0  0  0  0  0  0
    7.5610  -17.8091   20.2800 C   0  0  0  0  0  0  0  0  0  0  0  0
    8.6925  -18.2523   20.4788 O   0  0  0  0  0  0  0  0  0  0  0  0
    8.1261  -12.6350   15.3316 N   0  0  0  0  0  0  0  0  0  0  0  0
    8.1843  -13.9964   15.7400 C   0  0  0  0  0  0  0  0  0  0  0  0
    8.6866  -14.9035   14.9578 N   0  0  0  0  0  0  0  0  0  0  0  0
    7.7022  -14.4210   17.0052 N   0  0  0  0  0  0  0  0  0  0  0  0
    7.1849  -13.5024   17.9722 C   0  0  0  0  0  0  0  0  0  0  0  0
    8.2271  -13.3148   19.0819 C   0  0  0  0  0  0  0  0  0  0  0  0
    7.6939  -13.9500   20.3185 C   0  0  0  0  0  0  0  0  0  0  0  0
    8.1771  -15.3575   20.5762 C   0  0  2  0  0  0  0  0  0  0  0  0
    7.3072  -16.4149   20.2363 N   0  0  0  0  0  0  0  0  0  0  0  0
    8.9289  -15.4688   21.8285 C   0  0  0  0  0  0  0  0  0  0  0  0
    8.2451  -15.3727   22.8993 O   0  0  0  0  0  0  0  0  0  0  0  0
    8.7275  -15.9039   15.2196 N   0  0  0  0  0  0  0  0  0  0  0  0
   10.3228  -15.6699   21.9101 C   0  0  2  0  0  0  0  0  0  0  0  0
   10.9953  -16.0994   23.1464 C   0  0  0  0  0  0  0  0  0  0  0  0
   10.6280  -17.4934   23.5003 C   0  0  0  0  0  0  0  0  0  0  0  0
   11.3325  -18.0780   24.6563 C   0  0  0  0  0  0  0  0  0  0  0  0
   12.1866  -17.5423   25.5609 N   0  0  0  0  0  0  0  0  0  0  0  0
   12.5098  -18.4878   26.4827 C   0  0  0  0  0  0  0  0  0  0  0  0
   11.8537  -19.6083   26.1482 N   0  0  0  0  0  0  0  0  0  0  0  0
   11.1369  -19.3748   25.0449 C   0  0  0  0  0  0  0  0  0  0  0  0
   12.4587  -16.1481   22.7434 O   0  0  0  0  0  0  0  0  0  0  0  0
   12.7983  -15.9167   21.4437 O   0  0  0  0  0  0  0  0  0  0  0  0
  2  1  1  0
  3  2  1  0
  3 13  1  0
  4  3  2  0
  5  6  1  0
  6  8  1  0
  7  6  2  0
  8  9  1  0
  9 10  1  0
 10 11  1  0
 12 11  1  1
 12 13  1  0
 14 12  1  0
 15 14  2  0
 16 14  1  0
 17 16  1  0
 17 18  1  1
 19 23  1  0
 19 18  1  0
 20 19  2  0
 21 20  1  0
 21 22  1  0
 22 23  2  0
 24 17  1  0
 25 24  1  0
 26 24  2  0
M  END
$$$$
