GRH.pdb
     RDKit          3D

 26 26  0  0  1  0  0  0  0  0999 V2000
    6.6132  -21.9137   23.2861 N   0  0  0  0  0  0  0  0  0  0  0  0
    6.6782  -20.4836   23.4187 C   0  0  0  0  0  0  0  0  0  0  0  0
    7.8508  -19.9356   22.6535 C   0  0  0  0  0  0  0  0  0  0  0  0
    8.9629  -20.3861   22.9306 O   0  0  0  0  0  0  0  0  0  0  0  0
    7.9537  -12.7165   17.2282 N   0  0  0  0  0  0  0  0  0  0  0  0
    7.8263  -12.6631   18.6441 C   0  0  0  0  0  0  0  0  0  0  0  0
    7.9360  -11.5352   19.2787 N   0  0  0  0  0  0  0  0  0  0  0  0
    7.5767  -13.8254   19.4189 N   0  0  0  0  0  0  0  0  0  0  0  0
    8.1130  -15.1048   19.0698 C   0  0  0  0  0  0  0  0  0  0  0  0
    7.5982  -16.1460   20.0718 C   0  0  0  0  0  0  0  0  0  0  0  0
    8.2143  -17.4559   19.7233 C   0  0  0  0  0  0  0  0  0  0  0  0
    8.6724  -18.2830   20.9009 C   0  0  2  0  0  0  0  0  0  0  0  0
    7.6799  -18.9426   21.6561 N   0  0  0  0  0  0  0  0  0  0  0  0
    9.7772  -17.6539   21.6285 C   0  0  0  0  0  0  0  0  0  0  0  0
   10.7194  -17.1823   20.9120 O   0  0  0  0  0  0  0  0  0  0  0  0
    7.9254  -11.4742   20.3117 N   0  0  0  0  0  0  0  0  0  0  0  0
    9.8518  -17.5457   23.0331 C   0  0  1  0  0  0  0  0  0  0  0  0
   10.8576  -16.7173   23.7167 C   0  0  0  0  0  0  0  0  0  0  0  0
   10.4008  -16.3309   25.0751 C   0  0  0  0  0  0  0  0  0  0  0  0
    9.1675  -15.5253   25.1417 C   0  0  0  0  0  0  0  0  0  0  0  0
    8.6818  -14.5464   24.3413 N   0  0  0  0  0  0  0  0  0  0  0  0
    7.4593  -14.1641   24.7969 C   0  0  0  0  0  0  0  0  0  0  0  0
    7.1887  -14.9084   25.8788 N   0  0  0  0  0  0  0  0  0  0  0  0
    8.2138  -15.7369   26.0991 C   0  0  0  0  0  0  0  0  0  0  0  0
   12.0117  -17.6814   23.9284 O   0  0  0  0  0  0  0  0  0  0  0  0
   13.1605  -17.2268   24.5044 O   0  0  0  0  0  0  0  0  0  0  0  0
  2  1  1  0
  3  2  1  0
  3 13  1  0
  4  3  2  0
  5  6  1  0
  6  8  1  0
  7  6  2  0
  8  9  1  0
  9 10  1  0
 10 11  1  0
 12 11  1  1
 12 13  1  0
 14 12  1  0
 15 14  2  0
 16 14  1  0
 17 16  1  0
 17 18  1  1
 19 23  1  0
 19 18  1  0
 20 19  2  0
 21 20  1  0
 21 22  1  0
 22 23  2  0
 24 17  1  0
 25 24  1  0
 26 24  2  0
M  END
$$$$
