GRH.pdb
     RDKit          3D

 26 26  0  0  1  0  0  0  0  0999 V2000
   11.9105  -17.9365   19.9541 N   0  0  0  0  0  0  0  0  0  0  0  0
   10.7914  -18.5967   20.5695 C   0  0  0  0  0  0  0  0  0  0  0  0
    9.8094  -17.5882   21.0982 C   0  0  0  0  0  0  0  0  0  0  0  0
   10.1386  -16.4027   21.0466 O   0  0  0  0  0  0  0  0  0  0  0  0
    6.1505  -22.6941   22.5564 N   0  0  0  0  0  0  0  0  0  0  0  0
    5.2219  -22.3156   23.5656 C   0  0  0  0  0  0  0  0  0  0  0  0
    4.6231  -23.2139   24.2877 N   0  0  0  0  0  0  0  0  0  0  0  0
    4.9110  -20.9560   23.8265 N   0  0  0  0  0  0  0  0  0  0  0  0
    5.1146  -19.9265   22.8542 C   0  0  0  0  0  0  0  0  0  0  0  0
    6.1196  -18.9114   23.4131 C   0  0  0  0  0  0  0  0  0  0  0  0
    6.2085  -17.7811   22.4480 C   0  0  0  0  0  0  0  0  0  0  0  0
    7.5882  -17.1916   22.2756 C   0  0  2  0  0  0  0  0  0  0  0  0
    8.5588  -17.9884   21.6327 N   0  0  0  0  0  0  0  0  0  0  0  0
    8.0104  -16.4098   23.4402 C   0  0  0  0  0  0  0  0  0  0  0  0
    7.1336  -15.6287   23.9346 O   0  0  0  0  0  0  0  0  0  0  0  0
    4.0374  -22.9710   25.1056 N   0  0  0  0  0  0  0  0  0  0  0  0
    9.2929  -16.4730   24.0244 C   0  0  1  0  0  0  0  0  0  0  0  0
    9.6648  -15.6960   25.2173 C   0  0  0  0  0  0  0  0  0  0  0  0
    8.8484  -16.0928   26.3919 C   0  0  0  0  0  0  0  0  0  0  0  0
    9.1231  -15.3716   27.6483 C   0  0  0  0  0  0  0  0  0  0  0  0
    9.1129  -14.0522   27.9551 N   0  0  0  0  0  0  0  0  0  0  0  0
    9.3702  -13.9014   29.2815 C   0  0  0  0  0  0  0  0  0  0  0  0
    9.5381  -15.1285   29.7950 N   0  0  0  0  0  0  0  0  0  0  0  0
    9.3910  -16.0282   28.8179 C   0  0  0  0  0  0  0  0  0  0  0  0
   11.0750  -16.1747   25.5145 O   0  0  0  0  0  0  0  0  0  0  0  0
   11.8183  -15.5149   26.4475 O   0  0  0  0  0  0  0  0  0  0  0  0
  2  1  1  0
  3  2  1  0
  3 13  1  0
  4  3  2  0
  5  6  1  0
  6  8  1  0
  7  6  2  0
  8  9  1  0
  9 10  1  0
 10 11  1  0
 12 11  1  1
 12 13  1  0
 14 12  1  0
 15 14  2  0
 16 14  1  0
 17 16  1  0
 17 18  1  6
 19 23  1  0
 19 18  1  0
 20 19  2  0
 21 20  1  0
 21 22  1  0
 22 23  2  0
 24 17  1  0
 25 24  1  0
 26 24  2  0
M  END
$$$$
