GRH.pdb
     RDKit          3D

 26 26  0  0  1  0  0  0  0  0999 V2000
    6.3180  -20.0002   20.3212 N   0  0  0  0  0  0  0  0  0  0  0  0
    6.0631  -19.3840   21.5949 C   0  0  0  0  0  0  0  0  0  0  0  0
    7.0597  -18.2899   21.8604 C   0  0  0  0  0  0  0  0  0  0  0  0
    8.2526  -18.5903   21.8039 O   0  0  0  0  0  0  0  0  0  0  0  0
    9.0988  -14.5335   18.5412 N   0  0  0  0  0  0  0  0  0  0  0  0
    8.7570  -13.1746   18.7865 C   0  0  0  0  0  0  0  0  0  0  0  0
    9.5482  -12.2135   18.4163 N   0  0  0  0  0  0  0  0  0  0  0  0
    7.5506  -12.8109   19.4390 N   0  0  0  0  0  0  0  0  0  0  0  0
    6.8692  -13.6965   20.3323 C   0  0  0  0  0  0  0  0  0  0  0  0
    7.4721  -13.5436   21.7345 C   0  0  0  0  0  0  0  0  0  0  0  0
    6.7953  -14.5223   22.6295 C   0  0  0  0  0  0  0  0  0  0  0  0
    7.4143  -15.8994   22.6590 C   0  0  2  0  0  0  0  0  0  0  0  0
    6.6405  -16.9697   22.1627 N   0  0  0  0  0  0  0  0  0  0  0  0
    8.2004  -16.1320   23.8730 C   0  0  0  0  0  0  0  0  0  0  0  0
    7.5987  -15.9191   24.9758 O   0  0  0  0  0  0  0  0  0  0  0  0
    9.3852  -11.2258   18.6784 N   0  0  0  0  0  0  0  0  0  0  0  0
    9.5431  -16.5645   23.8865 C   0  0  2  0  0  0  0  0  0  0  0  0
   10.2857  -16.8209   25.1307 C   0  0  0  0  0  0  0  0  0  0  0  0
   10.3844  -18.2762   25.4061 C   0  0  0  0  0  0  0  0  0  0  0  0
    9.1449  -18.9393   25.8514 C   0  0  0  0  0  0  0  0  0  0  0  0
    7.9068  -18.4584   26.1176 N   0  0  0  0  0  0  0  0  0  0  0  0
    7.0844  -19.4945   26.4311 C   0  0  0  0  0  0  0  0  0  0  0  0
    7.8146  -20.6166   26.3573 N   0  0  0  0  0  0  0  0  0  0  0  0
    9.0636  -20.2957   26.0071 C   0  0  0  0  0  0  0  0  0  0  0  0
   11.6950  -16.3691   24.7902 O   0  0  0  0  0  0  0  0  0  0  0  0
   12.6343  -16.3209   25.7769 O   0  0  0  0  0  0  0  0  0  0  0  0
  2  1  1  0
  3  2  1  0
  3 13  1  0
  4  3  2  0
  5  6  1  0
  6  8  1  0
  7  6  2  0
  8  9  1  0
  9 10  1  0
 10 11  1  0
 12 11  1  1
 12 13  1  0
 14 12  1  0
 15 14  2  0
 16 14  1  0
 17 16  1  0
 17 18  1  1
 19 23  1  0
 19 18  1  0
 20 19  2  0
 21 20  1  0
 21 22  1  0
 22 23  2  0
 24 17  1  0
 25 24  1  0
 26 24  2  0
M  END
$$$$
