GRH.pdb
     RDKit          3D

 26 26  0  0  1  0  0  0  0  0999 V2000
   13.6744  -14.2738   19.7828 N   0  0  0  0  0  0  0  0  0  0  0  0
   12.9253  -15.4028   20.2635 C   0  0  0  0  0  0  0  0  0  0  0  0
   11.9776  -14.9822   21.3525 C   0  0  0  0  0  0  0  0  0  0  0  0
   12.4018  -14.1851   22.1898 O   0  0  0  0  0  0  0  0  0  0  0  0
    9.1999  -14.8162   17.5886 N   0  0  0  0  0  0  0  0  0  0  0  0
    7.8760  -14.3213   17.7502 C   0  0  0  0  0  0  0  0  0  0  0  0
    7.5075  -13.2126   17.1828 N   0  0  0  0  0  0  0  0  0  0  0  0
    6.9089  -15.0077   18.5293 N   0  0  0  0  0  0  0  0  0  0  0  0
    7.2491  -15.6916   19.7389 C   0  0  0  0  0  0  0  0  0  0  0  0
    7.8010  -14.6724   20.7438 C   0  0  0  0  0  0  0  0  0  0  0  0
    8.2195  -15.4172   21.9632 C   0  0  0  0  0  0  0  0  0  0  0  0
    9.6587  -15.2171   22.3748 C   0  0  2  0  0  0  0  0  0  0  0  0
   10.6528  -15.4839   21.4099 N   0  0  0  0  0  0  0  0  0  0  0  0
    9.9108  -15.6502   23.7512 C   0  0  0  0  0  0  0  0  0  0  0  0
   11.0036  -16.2755   23.9473 O   0  0  0  0  0  0  0  0  0  0  0  0
    6.5901  -12.7708   17.3673 N   0  0  0  0  0  0  0  0  0  0  0  0
    9.0380  -15.4200   24.8353 C   0  0  2  0  0  0  0  0  0  0  0  0
    9.3602  -15.8142   26.2159 C   0  0  0  0  0  0  0  0  0  0  0  0
    8.3825  -15.2465   27.1778 C   0  0  0  0  0  0  0  0  0  0  0  0
    8.0506  -13.8205   27.0023 C   0  0  0  0  0  0  0  0  0  0  0  0
    8.7982  -12.6968   27.1166 N   0  0  0  0  0  0  0  0  0  0  0  0
    8.0381  -11.6202   26.7826 C   0  0  0  0  0  0  0  0  0  0  0  0
    6.8203  -12.0793   26.4604 N   0  0  0  0  0  0  0  0  0  0  0  0
    6.8134  -13.4094   26.5885 C   0  0  0  0  0  0  0  0  0  0  0  0
    9.1133  -17.3126   26.2129 O   0  0  0  0  0  0  0  0  0  0  0  0
    9.3740  -18.0316   27.3413 O   0  0  0  0  0  0  0  0  0  0  0  0
  2  1  1  0
  3  2  1  0
  3 13  1  0
  4  3  2  0
  5  6  1  0
  6  8  1  0
  7  6  2  0
  8  9  1  0
  9 10  1  0
 10 11  1  0
 12 11  1  6
 12 13  1  0
 14 12  1  0
 15 14  2  0
 16 14  1  0
 17 16  1  0
 17 18  1  1
 19 23  1  0
 19 18  1  0
 20 19  2  0
 21 20  1  0
 21 22  1  0
 22 23  2  0
 24 17  1  0
 25 24  1  0
 26 24  2  0
M  END
$$$$
