GRH.pdb
     RDKit          3D

 26 26  0  0  1  0  0  0  0  0999 V2000
   14.3418  -18.2688   19.7572 N   0  0  0  0  0  0  0  0  0  0  0  0
   13.1672  -18.7634   20.4226 C   0  0  0  0  0  0  0  0  0  0  0  0
   12.5343  -17.6797   21.2507 C   0  0  0  0  0  0  0  0  0  0  0  0
   13.2629  -17.0772   22.0396 O   0  0  0  0  0  0  0  0  0  0  0  0
    8.0306  -12.1271   19.9852 N   0  0  0  0  0  0  0  0  0  0  0  0
    7.8025  -13.3297   19.2602 C   0  0  0  0  0  0  0  0  0  0  0  0
    7.9693  -13.3708   17.9728 N   0  0  0  0  0  0  0  0  0  0  0  0
    7.3872  -14.5250   19.9022 N   0  0  0  0  0  0  0  0  0  0  0  0
    7.0877  -14.5759   21.3001 C   0  0  0  0  0  0  0  0  0  0  0  0
    8.3654  -14.9424   22.0658 C   0  0  0  0  0  0  0  0  0  0  0  0
    9.1166  -15.9345   21.2482 C   0  0  0  0  0  0  0  0  0  0  0  0
   10.4034  -16.4303   21.8638 C   0  0  2  0  0  0  0  0  0  0  0  0
   11.1569  -17.3675   21.1261 N   0  0  0  0  0  0  0  0  0  0  0  0
   10.2877  -16.6350   23.3096 C   0  0  0  0  0  0  0  0  0  0  0  0
    9.9050  -17.7927   23.6796 O   0  0  0  0  0  0  0  0  0  0  0  0
    7.8990  -14.2491   17.4300 N   0  0  0  0  0  0  0  0  0  0  0  0
   10.5678  -15.6523   24.2821 C   0  0  2  0  0  0  0  0  0  0  0  0
   10.5714  -15.9373   25.7257 C   0  0  0  0  0  0  0  0  0  0  0  0
   10.4901  -14.6857   26.5198 C   0  0  0  0  0  0  0  0  0  0  0  0
   10.5224  -14.8423   27.9856 C   0  0  0  0  0  0  0  0  0  0  0  0
   10.6412  -15.9357   28.7764 N   0  0  0  0  0  0  0  0  0  0  0  0
   10.6882  -15.5419   30.0768 C   0  0  0  0  0  0  0  0  0  0  0  0
   10.5997  -14.2041   30.0894 N   0  0  0  0  0  0  0  0  0  0  0  0
   10.4992  -13.7671   28.8306 C   0  0  0  0  0  0  0  0  0  0  0  0
    9.2466  -16.6482   25.9398 O   0  0  0  0  0  0  0  0  0  0  0  0
    9.1649  -17.6335   26.8782 O   0  0  0  0  0  0  0  0  0  0  0  0
  2  1  1  0
  3  2  1  0
  3 13  1  0
  4  3  2  0
  5  6  1  0
  6  8  1  0
  7  6  2  0
  8  9  1  0
  9 10  1  0
 10 11  1  0
 12 11  1  6
 12 13  1  0
 14 12  1  0
 15 14  2  0
 16 14  1  0
 17 16  1  0
 17 18  1  6
 19 23  1  0
 19 18  1  0
 20 19  2  0
 21 20  1  0
 21 22  1  0
 22 23  2  0
 24 17  1  0
 25 24  1  0
 26 24  2  0
M  END
$$$$
