VIF.pdb
     RDKit          3D

 27 27  0  0  1  0  0  0  0  0999 V2000
    7.9731  -12.3094   26.7544 C   0  0  0  0  0  0  0  0  0  0  0  0
    6.9785  -12.0266   25.6448 C   0  0  2  0  0  0  0  0  0  0  0  0
    6.1519  -10.8065   25.9896 C   0  0  0  0  0  0  0  0  0  0  0  0
    6.1108  -13.2346   25.3642 C   0  0  2  0  0  0  0  0  0  0  0  0
    5.3357  -13.6430   26.4851 N   0  0  0  0  0  0  0  0  0  0  0  0
    6.9977  -14.3054   24.8380 C   0  0  0  0  0  0  0  0  0  0  0  0
    7.1119  -15.3976   25.4527 O   0  0  0  0  0  0  0  0  0  0  0  0
    7.4981  -13.9516   19.4911 C   0  0  0  0  0  0  0  0  0  0  0  0
    7.3310  -14.3471   20.9220 C   0  0  0  0  0  0  0  0  0  0  0  0
    8.5687  -14.9496   21.5343 C   0  0  2  0  0  0  0  0  0  0  0  0
    9.0494  -16.0730   20.6763 C   0  0  0  0  0  0  0  0  0  0  0  0
    8.3772  -15.2936   22.9708 C   0  0  2  0  0  0  0  0  0  0  0  0
    7.7552  -14.1663   23.6358 N   0  0  0  0  0  0  0  0  0  0  0  0
    9.7477  -15.4681   23.5738 C   0  0  0  0  0  0  0  0  0  0  0  0
   10.6484  -14.6111   23.3957 O   0  0  0  0  0  0  0  0  0  0  0  0
   10.0773  -16.5963   24.3610 N   0  0  0  0  0  0  0  0  0  0  0  0
   11.4090  -16.7159   24.9403 C   0  0  1  0  0  0  0  0  0  0  0  0
   11.3650  -17.1102   26.3698 C   0  0  0  0  0  0  0  0  0  0  0  0
   10.5677  -16.1475   27.1552 C   0  0  0  0  0  0  0  0  0  0  0  0
    9.2881  -16.4152   27.6200 C   0  0  0  0  0  0  0  0  0  0  0  0
    8.5408  -15.5304   28.3545 C   0  0  0  0  0  0  0  0  0  0  0  0
    9.0633  -14.2920   28.6667 C   0  0  0  0  0  0  0  0  0  0  0  0
   10.3259  -13.9998   28.2204 C   0  0  0  0  0  0  0  0  0  0  0  0
   11.0786  -14.8856   27.4831 C   0  0  0  0  0  0  0  0  0  0  0  0
   12.1983  -17.6376   24.1172 C   0  0  0  0  0  0  0  0  0  0  0  0
   11.6082  -18.3266   23.0786 O   0  0  0  0  0  0  0  0  0  0  0  0
   13.4075  -17.8170   24.3357 O   0  0  0  0  0  0  0  0  0  0  0  0
  2  1  1  1
  3  2  1  0
  4  2  1  0
  4  6  1  0
  4  5  1  1
  6  7  2  0
  6 13  1  0
  8  9  1  0
  9 10  1  0
 10 12  1  0
 10 11  1  6
 12 14  1  0
 12 13  1  1
 14 15  2  0
 14 16  1  0
 16 17  1  0
 17 25  1  0
 17 18  1  1
 19 18  1  0
 19 20  2  0
 21 20  1  0
 22 21  2  0
 23 24  2  0
 23 22  1  0
 24 19  1  0
 25 26  1  0
 27 25  2  0
M  END
$$$$
