VIF.pdb
     RDKit          3D

 27 27  0  0  1  0  0  0  0  0999 V2000
    7.2045  -17.1744   18.8797 C   0  0  0  0  0  0  0  0  0  0  0  0
    7.8317  -16.6811   20.1694 C   0  0  2  0  0  0  0  0  0  0  0  0
    7.4258  -17.5787   21.3185 C   0  0  0  0  0  0  0  0  0  0  0  0
    7.4783  -15.2331   20.4330 C   0  0  2  0  0  0  0  0  0  0  0  0
    7.7988  -14.3695   19.3488 N   0  0  0  0  0  0  0  0  0  0  0  0
    8.1299  -14.8429   21.7110 C   0  0  0  0  0  0  0  0  0  0  0  0
    9.3716  -14.6432   21.7583 O   0  0  0  0  0  0  0  0  0  0  0  0
    5.4032  -11.9661   25.6057 C   0  0  0  0  0  0  0  0  0  0  0  0
    6.5117  -12.4639   24.7365 C   0  0  0  0  0  0  0  0  0  0  0  0
    7.0259  -13.8249   25.1276 C   0  0  2  0  0  0  0  0  0  0  0  0
    7.4426  -13.8038   26.5612 C   0  0  0  0  0  0  0  0  0  0  0  0
    8.0580  -14.3314   24.1807 C   0  0  2  0  0  0  0  0  0  0  0  0
    7.4086  -14.6751   22.9316 N   0  0  0  0  0  0  0  0  0  0  0  0
    8.6100  -15.6072   24.7637 C   0  0  0  0  0  0  0  0  0  0  0  0
    7.9760  -16.6877   24.6759 O   0  0  0  0  0  0  0  0  0  0  0  0
    9.8572  -15.6434   25.4305 N   0  0  0  0  0  0  0  0  0  0  0  0
   10.4209  -16.9195   25.8513 C   0  0  1  0  0  0  0  0  0  0  0  0
   11.6921  -16.7518   26.5974 C   0  0  0  0  0  0  0  0  0  0  0  0
   11.4839  -15.9402   27.8128 C   0  0  0  0  0  0  0  0  0  0  0  0
   11.2886  -14.5666   27.7899 C   0  0  0  0  0  0  0  0  0  0  0  0
   11.0894  -13.8040   28.9121 C   0  0  0  0  0  0  0  0  0  0  0  0
   11.0769  -14.4076   30.1530 C   0  0  0  0  0  0  0  0  0  0  0  0
   11.2675  -15.7639   30.2060 C   0  0  0  0  0  0  0  0  0  0  0  0
   11.4677  -16.5322   29.0817 C   0  0  0  0  0  0  0  0  0  0  0  0
    9.4047  -17.6541   26.6113 C   0  0  0  0  0  0  0  0  0  0  0  0
    9.6184  -18.9667   26.9761 O   0  0  0  0  0  0  0  0  0  0  0  0
    8.3362  -17.1140   26.9412 O   0  0  0  0  0  0  0  0  0  0  0  0
  2  1  1  6
  3  2  1  0
  4  2  1  0
  4  6  1  0
  4  5  1  6
  6  7  2  0
  6 13  1  0
  8  9  1  0
  9 10  1  0
 10 12  1  0
 10 11  1  1
 12 14  1  0
 12 13  1  6
 14 15  2  0
 14 16  1  0
 16 17  1  0
 17 25  1  0
 17 18  1  1
 19 18  1  0
 19 20  2  0
 21 20  1  0
 22 21  2  0
 23 24  2  0
 23 22  1  0
 24 19  1  0
 25 26  1  0
 27 25  2  0
M  END
$$$$
