VIF.pdb
     RDKit          3D

 27 27  0  0  1  0  0  0  0  0999 V2000
    7.0025  -19.6108   23.0696 C   0  0  0  0  0  0  0  0  0  0  0  0
    5.8811  -18.8968   22.3396 C   0  0  2  0  0  0  0  0  0  0  0  0
    4.6937  -19.8223   22.1835 C   0  0  0  0  0  0  0  0  0  0  0  0
    6.3516  -18.3535   21.0075 C   0  0  2  0  0  0  0  0  0  0  0  0
    6.7214  -19.3707   20.0842 N   0  0  0  0  0  0  0  0  0  0  0  0
    7.4427  -17.3826   21.2846 C   0  0  0  0  0  0  0  0  0  0  0  0
    8.6301  -17.7787   21.4157 O   0  0  0  0  0  0  0  0  0  0  0  0
    6.9967  -12.4029   19.2600 C   0  0  0  0  0  0  0  0  0  0  0  0
    7.5727  -13.6910   19.7510 C   0  0  0  0  0  0  0  0  0  0  0  0
    7.8823  -13.6950   21.2254 C   0  0  2  0  0  0  0  0  0  0  0  0
    8.8494  -12.5994   21.5316 C   0  0  0  0  0  0  0  0  0  0  0  0
    8.2853  -15.0433   21.7134 C   0  0  2  0  0  0  0  0  0  0  0  0
    7.2190  -15.9788   21.4164 N   0  0  0  0  0  0  0  0  0  0  0  0
    8.4004  -14.9581   23.2141 C   0  0  0  0  0  0  0  0  0  0  0  0
    7.7854  -14.0757   23.8625 O   0  0  0  0  0  0  0  0  0  0  0  0
    9.2002  -15.8616   23.9526 N   0  0  0  0  0  0  0  0  0  0  0  0
    9.2502  -15.7692   25.4060 C   0  0  1  0  0  0  0  0  0  0  0  0
    7.9001  -15.8269   26.0179 C   0  0  0  0  0  0  0  0  0  0  0  0
    7.4274  -14.4746   26.3745 C   0  0  0  0  0  0  0  0  0  0  0  0
    8.2797  -13.4259   26.6895 C   0  0  0  0  0  0  0  0  0  0  0  0
    7.8517  -12.1649   27.0172 C   0  0  0  0  0  0  0  0  0  0  0  0
    6.4997  -11.8898   27.0447 C   0  0  0  0  0  0  0  0  0  0  0  0
    5.6339  -12.9071   26.7380 C   0  0  0  0  0  0  0  0  0  0  0  0
    6.0602  -14.1738   26.4086 C   0  0  0  0  0  0  0  0  0  0  0  0
   10.1520  -16.8088   25.9119 C   0  0  0  0  0  0  0  0  0  0  0  0
   10.7168  -17.7241   25.0489 O   0  0  0  0  0  0  0  0  0  0  0  0
   10.4253  -16.8874   27.1208 O   0  0  0  0  0  0  0  0  0  0  0  0
  2  1  1  6
  3  2  1  0
  4  2  1  0
  4  6  1  0
  4  5  1  6
  6  7  2  0
  6 13  1  0
  8  9  1  0
  9 10  1  0
 10 12  1  0
 10 11  1  6
 12 14  1  0
 12 13  1  1
 14 15  2  0
 14 16  1  0
 16 17  1  0
 17 25  1  0
 17 18  1  1
 19 18  1  0
 19 20  2  0
 21 20  1  0
 22 21  2  0
 23 24  2  0
 23 22  1  0
 24 19  1  0
 25 26  1  0
 27 25  2  0
M  END
$$$$
