VIF.pdb
     RDKit          3D

 27 27  0  0  1  0  0  0  0  0999 V2000
    6.5765  -20.1392   23.3358 C   0  0  0  0  0  0  0  0  0  0  0  0
    5.8610  -18.8864   22.8681 C   0  0  2  0  0  0  0  0  0  0  0  0
    4.3761  -19.0088   23.1343 C   0  0  0  0  0  0  0  0  0  0  0  0
    6.1508  -18.6005   21.4102 C   0  0  2  0  0  0  0  0  0  0  0  0
    6.3708  -19.7758   20.6394 N   0  0  0  0  0  0  0  0  0  0  0  0
    7.2865  -17.6423   21.3632 C   0  0  0  0  0  0  0  0  0  0  0  0
    8.4696  -18.0607   21.2666 O   0  0  0  0  0  0  0  0  0  0  0  0
    6.4804  -12.8824   18.9900 C   0  0  0  0  0  0  0  0  0  0  0  0
    7.1361  -14.1309   19.4833 C   0  0  0  0  0  0  0  0  0  0  0  0
    7.7427  -13.9969   20.8558 C   0  0  2  0  0  0  0  0  0  0  0  0
    8.7611  -12.9051   20.8429 C   0  0  0  0  0  0  0  0  0  0  0  0
    8.2266  -15.3010   21.3883 C   0  0  2  0  0  0  0  0  0  0  0  0
    7.1120  -16.2267   21.4235 N   0  0  0  0  0  0  0  0  0  0  0  0
    8.6592  -15.0676   22.8134 C   0  0  0  0  0  0  0  0  0  0  0  0
    7.9618  -14.3781   23.5980 O   0  0  0  0  0  0  0  0  0  0  0  0
    9.8606  -15.6109   23.3259 N   0  0  0  0  0  0  0  0  0  0  0  0
   10.2610  -15.3268   24.6979 C   0  0  1  0  0  0  0  0  0  0  0  0
    9.1979  -15.6692   25.6742 C   0  0  0  0  0  0  0  0  0  0  0  0
    9.5484  -15.1834   27.0234 C   0  0  0  0  0  0  0  0  0  0  0  0
   10.0653  -16.0001   28.0189 C   0  0  0  0  0  0  0  0  0  0  0  0
   10.3989  -15.5584   29.2736 C   0  0  0  0  0  0  0  0  0  0  0  0
   10.2220  -14.2287   29.5975 C   0  0  0  0  0  0  0  0  0  0  0  0
    9.7126  -13.3982   28.6333 C   0  0  0  0  0  0  0  0  0  0  0  0
    9.3769  -13.8383   27.3731 C   0  0  0  0  0  0  0  0  0  0  0  0
   11.5283  -16.0126   24.9689 C   0  0  0  0  0  0  0  0  0  0  0  0
   12.6217  -15.3060   25.4238 O   0  0  0  0  0  0  0  0  0  0  0  0
   11.6443  -17.2369   24.7959 O   0  0  0  0  0  0  0  0  0  0  0  0
  2  1  1  6
  3  2  1  0
  4  2  1  0
  4  6  1  0
  4  5  1  6
  6  7  2  0
  6 13  1  0
  8  9  1  0
  9 10  1  0
 10 12  1  0
 10 11  1  6
 12 14  1  0
 12 13  1  1
 14 15  2  0
 14 16  1  0
 16 17  1  0
 17 25  1  0
 17 18  1  1
 19 18  1  0
 19 20  2  0
 21 20  1  0
 22 21  2  0
 23 24  2  0
 23 22  1  0
 24 19  1  0
 25 26  1  0
 27 25  2  0
M  END
$$$$
