VIF.pdb
     RDKit          3D

 27 27  0  0  1  0  0  0  0  0999 V2000
    9.5954  -20.9967   19.7395 C   0  0  0  0  0  0  0  0  0  0  0  0
    9.7701  -19.6927   20.4939 C   0  0  2  0  0  0  0  0  0  0  0  0
    8.9705  -19.7271   21.7786 C   0  0  0  0  0  0  0  0  0  0  0  0
    9.4002  -18.5054   19.6311 C   0  0  2  0  0  0  0  0  0  0  0  0
   10.0560  -18.5015   18.3686 N   0  0  0  0  0  0  0  0  0  0  0  0
    9.6538  -17.2788   20.4320 C   0  0  0  0  0  0  0  0  0  0  0  0
   10.8029  -17.0410   20.8868 O   0  0  0  0  0  0  0  0  0  0  0  0
    7.1141  -12.7138   19.1363 C   0  0  0  0  0  0  0  0  0  0  0  0
    8.0791  -13.7478   19.6175 C   0  0  0  0  0  0  0  0  0  0  0  0
    7.9492  -14.0640   21.0847 C   0  0  2  0  0  0  0  0  0  0  0  0
    8.0260  -12.7983   21.8730 C   0  0  0  0  0  0  0  0  0  0  0  0
    8.8932  -15.1318   21.5173 C   0  0  2  0  0  0  0  0  0  0  0  0
    8.6382  -16.3201   20.7279 N   0  0  0  0  0  0  0  0  0  0  0  0
    8.5616  -15.4665   22.9492 C   0  0  0  0  0  0  0  0  0  0  0  0
    7.3805  -15.7070   23.3021 O   0  0  0  0  0  0  0  0  0  0  0  0
    9.5587  -15.5241   23.9511 N   0  0  0  0  0  0  0  0  0  0  0  0
    9.1778  -15.6782   25.3492 C   0  0  1  0  0  0  0  0  0  0  0  0
    7.7197  -15.4997   25.5557 C   0  0  0  0  0  0  0  0  0  0  0  0
    7.4099  -14.1064   25.9325 C   0  0  0  0  0  0  0  0  0  0  0  0
    6.1178  -13.6088   26.0226 C   0  0  0  0  0  0  0  0  0  0  0  0
    5.8185  -12.3181   26.3764 C   0  0  0  0  0  0  0  0  0  0  0  0
    6.8399  -11.4366   26.6661 C   0  0  0  0  0  0  0  0  0  0  0  0
    8.1271  -11.9007   26.5851 C   0  0  0  0  0  0  0  0  0  0  0  0
    8.4308  -13.1955   26.2304 C   0  0  0  0  0  0  0  0  0  0  0  0
    9.6689  -16.9735   25.8297 C   0  0  0  0  0  0  0  0  0  0  0  0
    9.5642  -17.3094   27.1631 O   0  0  0  0  0  0  0  0  0  0  0  0
   10.1864  -17.7914   25.0516 O   0  0  0  0  0  0  0  0  0  0  0  0
  2  1  1  6
  3  2  1  0
  4  2  1  0
  4  6  1  0
  4  5  1  6
  6  7  2  0
  6 13  1  0
  8  9  1  0
  9 10  1  0
 10 12  1  0
 10 11  1  1
 12 14  1  0
 12 13  1  6
 14 15  2  0
 14 16  1  0
 16 17  1  0
 17 25  1  0
 17 18  1  6
 19 18  1  0
 19 20  2  0
 21 20  1  0
 22 21  2  0
 23 24  2  0
 23 22  1  0
 24 19  1  0
 25 26  1  0
 27 25  2  0
M  END
$$$$
