VIF.pdb
     RDKit          3D

 27 27  0  0  1  0  0  0  0  0999 V2000
    5.5203  -18.9882   22.9742 C   0  0  0  0  0  0  0  0  0  0  0  0
    4.6192  -18.0159   22.2374 C   0  0  2  0  0  0  0  0  0  0  0  0
    3.2095  -18.5632   22.1743 C   0  0  0  0  0  0  0  0  0  0  0  0
    5.1630  -17.6985   20.8609 C   0  0  2  0  0  0  0  0  0  0  0  0
    5.1713  -18.8210   19.9869 N   0  0  0  0  0  0  0  0  0  0  0  0
    6.5038  -17.0832   21.0446 C   0  0  0  0  0  0  0  0  0  0  0  0
    7.5461  -17.7774   20.9193 O   0  0  0  0  0  0  0  0  0  0  0  0
    7.4460  -12.3011   19.0274 C   0  0  0  0  0  0  0  0  0  0  0  0
    7.5798  -13.6853   19.5733 C   0  0  0  0  0  0  0  0  0  0  0  0
    7.9831  -13.7298   21.0242 C   0  0  2  0  0  0  0  0  0  0  0  0
    9.2537  -12.9677   21.2088 C   0  0  0  0  0  0  0  0  0  0  0  0
    7.9995  -15.1184   21.5627 C   0  0  2  0  0  0  0  0  0  0  0  0
    6.6888  -15.7046   21.3661 N   0  0  0  0  0  0  0  0  0  0  0  0
    8.2257  -15.0172   23.0496 C   0  0  0  0  0  0  0  0  0  0  0  0
    7.7778  -14.0466   23.7090 O   0  0  0  0  0  0  0  0  0  0  0  0
    8.9469  -16.0034   23.7625 N   0  0  0  0  0  0  0  0  0  0  0  0
    8.9794  -15.9710   25.2190 C   0  0  1  0  0  0  0  0  0  0  0  0
    7.6191  -15.9262   25.8091 C   0  0  0  0  0  0  0  0  0  0  0  0
    7.2884  -14.5607   26.2620 C   0  0  0  0  0  0  0  0  0  0  0  0
    8.2455  -13.6202   26.6152 C   0  0  0  0  0  0  0  0  0  0  0  0
    7.9496  -12.3478   27.0323 C   0  0  0  0  0  0  0  0  0  0  0  0
    6.6317  -11.9475   27.1169 C   0  0  0  0  0  0  0  0  0  0  0  0
    5.6643  -12.8561   26.7743 C   0  0  0  0  0  0  0  0  0  0  0  0
    5.9580  -14.1339   26.3552 C   0  0  0  0  0  0  0  0  0  0  0  0
    9.7725  -17.1081   25.6965 C   0  0  0  0  0  0  0  0  0  0  0  0
   10.7280  -16.9316   26.6750 O   0  0  0  0  0  0  0  0  0  0  0  0
    9.6023  -18.2477   25.2334 O   0  0  0  0  0  0  0  0  0  0  0  0
  2  1  1  6
  3  2  1  0
  4  2  1  0
  4  6  1  0
  4  5  1  6
  6  7  2  0
  6 13  1  0
  8  9  1  0
  9 10  1  0
 10 12  1  0
 10 11  1  6
 12 14  1  0
 12 13  1  1
 14 15  2  0
 14 16  1  0
 16 17  1  0
 17 25  1  0
 17 18  1  1
 19 18  1  0
 19 20  2  0
 21 20  1  0
 22 21  2  0
 23 24  2  0
 23 22  1  0
 24 19  1  0
 25 26  1  0
 27 25  2  0
M  END
$$$$
