VIF.pdb
     RDKit          3D

 27 27  0  0  1  0  0  0  0  0999 V2000
    7.9558  -18.7801   18.7532 C   0  0  0  0  0  0  0  0  0  0  0  0
    8.5605  -17.8851   19.8178 C   0  0  2  0  0  0  0  0  0  0  0  0
    8.6969  -18.6475   21.1183 C   0  0  0  0  0  0  0  0  0  0  0  0
    7.7547  -16.6155   19.9904 C   0  0  2  0  0  0  0  0  0  0  0  0
    7.6040  -15.8766   18.7840 N   0  0  0  0  0  0  0  0  0  0  0  0
    8.3867  -15.8344   21.0861 C   0  0  0  0  0  0  0  0  0  0  0  0
    9.5228  -15.3168   20.9265 O   0  0  0  0  0  0  0  0  0  0  0  0
    6.6281  -12.5469   25.9800 C   0  0  0  0  0  0  0  0  0  0  0  0
    7.7198  -13.1834   25.1831 C   0  0  0  0  0  0  0  0  0  0  0  0
    7.2329  -14.2228   24.2073 C   0  0  2  0  0  0  0  0  0  0  0  0
    6.4176  -15.2410   24.9339 C   0  0  0  0  0  0  0  0  0  0  0  0
    8.3377  -14.7786   23.3772 C   0  0  2  0  0  0  0  0  0  0  0  0
    7.7626  -15.6280   22.3534 N   0  0  0  0  0  0  0  0  0  0  0  0
    9.1693  -15.6596   24.2741 C   0  0  0  0  0  0  0  0  0  0  0  0
    8.7910  -16.8185   24.5763 O   0  0  0  0  0  0  0  0  0  0  0  0
   10.4032  -15.2233   24.8110 N   0  0  0  0  0  0  0  0  0  0  0  0
   11.0711  -16.0139   25.8369 C   0  0  1  0  0  0  0  0  0  0  0  0
   11.9869  -15.1946   26.6679 C   0  0  0  0  0  0  0  0  0  0  0  0
   11.5016  -15.1141   28.0598 C   0  0  0  0  0  0  0  0  0  0  0  0
   11.5680  -16.1727   28.9543 C   0  0  0  0  0  0  0  0  0  0  0  0
   11.1249  -16.1073   30.2505 C   0  0  0  0  0  0  0  0  0  0  0  0
   10.5751  -14.9337   30.7244 C   0  0  0  0  0  0  0  0  0  0  0  0
   10.4965  -13.8708   29.8625 C   0  0  0  0  0  0  0  0  0  0  0  0
   10.9404  -13.9332   28.5610 C   0  0  0  0  0  0  0  0  0  0  0  0
   10.0533  -16.7132   26.6275 C   0  0  0  0  0  0  0  0  0  0  0  0
   10.2500  -18.0205   27.0198 O   0  0  0  0  0  0  0  0  0  0  0  0
    8.9988  -16.1475   26.9592 O   0  0  0  0  0  0  0  0  0  0  0  0
  2  1  1  6
  3  2  1  0
  4  2  1  0
  4  6  1  0
  4  5  1  6
  6  7  2  0
  6 13  1  0
  8  9  1  0
  9 10  1  0
 10 12  1  0
 10 11  1  1
 12 14  1  0
 12 13  1  6
 14 15  2  0
 14 16  1  0
 16 17  1  0
 17 25  1  0
 17 18  1  1
 19 18  1  0
 19 20  2  0
 21 20  1  0
 22 21  2  0
 23 24  2  0
 23 22  1  0
 24 19  1  0
 25 26  1  0
 27 25  2  0
M  END
$$$$
