VIF.pdb
     RDKit          3D

 27 27  0  0  1  0  0  0  0  0999 V2000
    5.8258  -20.8131   21.5407 C   0  0  0  0  0  0  0  0  0  0  0  0
    6.7622  -19.6465   21.7905 C   0  0  2  0  0  0  0  0  0  0  0  0
    6.5469  -19.0997   23.1854 C   0  0  0  0  0  0  0  0  0  0  0  0
    6.5990  -18.5754   20.7336 C   0  0  2  0  0  0  0  0  0  0  0  0
    6.6745  -19.0796   19.4054 N   0  0  0  0  0  0  0  0  0  0  0  0
    7.5994  -17.5136   21.0198 C   0  0  0  0  0  0  0  0  0  0  0  0
    8.8289  -17.7410   20.8760 O   0  0  0  0  0  0  0  0  0  0  0  0
    7.0258  -12.6153   19.2379 C   0  0  0  0  0  0  0  0  0  0  0  0
    7.5911  -13.8854   19.7850 C   0  0  0  0  0  0  0  0  0  0  0  0
    7.7529  -13.8828   21.2828 C   0  0  2  0  0  0  0  0  0  0  0  0
    8.5842  -12.7111   21.6893 C   0  0  0  0  0  0  0  0  0  0  0  0
    8.2237  -15.1973   21.8015 C   0  0  2  0  0  0  0  0  0  0  0  0
    7.2390  -16.2055   21.4639 N   0  0  0  0  0  0  0  0  0  0  0  0
    8.2620  -15.0953   23.3050 C   0  0  0  0  0  0  0  0  0  0  0  0
    7.8474  -14.0676   23.8959 O   0  0  0  0  0  0  0  0  0  0  0  0
    8.7629  -16.1448   24.1105 N   0  0  0  0  0  0  0  0  0  0  0  0
    8.7860  -16.0021   25.5605 C   0  0  1  0  0  0  0  0  0  0  0  0
    7.4528  -15.6549   26.1107 C   0  0  0  0  0  0  0  0  0  0  0  0
    7.3449  -14.2016   26.3467 C   0  0  0  0  0  0  0  0  0  0  0  0
    8.4125  -13.4116   26.7481 C   0  0  0  0  0  0  0  0  0  0  0  0
    8.3246  -12.0604   26.9653 C   0  0  0  0  0  0  0  0  0  0  0  0
    7.1170  -11.4180   26.7827 C   0  0  0  0  0  0  0  0  0  0  0  0
    6.0444  -12.1737   26.3863 C   0  0  0  0  0  0  0  0  0  0  0  0
    6.1293  -13.5300   26.1675 C   0  0  0  0  0  0  0  0  0  0  0  0
    9.3441  -17.2260   26.1440 C   0  0  0  0  0  0  0  0  0  0  0  0
    9.7204  -18.2772   25.3347 O   0  0  0  0  0  0  0  0  0  0  0  0
    9.4894  -17.3422   27.3719 O   0  0  0  0  0  0  0  0  0  0  0  0
  2  1  1  6
  3  2  1  0
  4  2  1  0
  4  6  1  0
  4  5  1  6
  6  7  2  0
  6 13  1  0
  8  9  1  0
  9 10  1  0
 10 12  1  0
 10 11  1  6
 12 14  1  0
 12 13  1  1
 14 15  2  0
 14 16  1  0
 16 17  1  0
 17 25  1  0
 17 18  1  1
 19 18  1  0
 19 20  2  0
 21 20  1  0
 22 21  2  0
 23 24  2  0
 23 22  1  0
 24 19  1  0
 25 26  1  0
 27 25  2  0
M  END
$$$$
