VIF.pdb
     RDKit          3D

 27 27  0  0  1  0  0  0  0  0999 V2000
    2.8184  -18.8708   22.0894 C   0  0  0  0  0  0  0  0  0  0  0  0
    4.2669  -18.4313   22.1826 C   0  0  2  0  0  0  0  0  0  0  0  0
    4.4051  -17.3167   23.1972 C   0  0  0  0  0  0  0  0  0  0  0  0
    4.8072  -18.0299   20.8268 C   0  0  2  0  0  0  0  0  0  0  0  0
    4.6081  -19.0211   19.8260 N   0  0  0  0  0  0  0  0  0  0  0  0
    6.2339  -17.6551   21.0110 C   0  0  0  0  0  0  0  0  0  0  0  0
    7.0937  -18.5334   21.2818 O   0  0  0  0  0  0  0  0  0  0  0  0
    7.7266  -12.2208   20.3249 C   0  0  0  0  0  0  0  0  0  0  0  0
    7.4740  -13.5424   20.9742 C   0  0  0  0  0  0  0  0  0  0  0  0
    8.3605  -14.6488   20.4648 C   0  0  2  0  0  0  0  0  0  0  0  0
    8.2953  -14.6892   18.9737 C   0  0  0  0  0  0  0  0  0  0  0  0
    8.0869  -15.9474   21.1409 C   0  0  2  0  0  0  0  0  0  0  0  0
    6.7059  -16.3126   20.8961 N   0  0  0  0  0  0  0  0  0  0  0  0
    8.2325  -15.7173   22.6236 C   0  0  0  0  0  0  0  0  0  0  0  0
    7.3618  -15.0838   23.2700 O   0  0  0  0  0  0  0  0  0  0  0  0
    9.3479  -16.2012   23.3467 N   0  0  0  0  0  0  0  0  0  0  0  0
    9.6784  -15.6277   24.6449 C   0  0  1  0  0  0  0  0  0  0  0  0
    8.5776  -15.7903   25.6259 C   0  0  0  0  0  0  0  0  0  0  0  0
    8.9700  -15.2616   26.9473 C   0  0  0  0  0  0  0  0  0  0  0  0
    9.7794  -15.9533   27.8370 C   0  0  0  0  0  0  0  0  0  0  0  0
   10.1540  -15.4697   29.0644 C   0  0  0  0  0  0  0  0  0  0  0  0
    9.7170  -14.2247   29.4687 C   0  0  0  0  0  0  0  0  0  0  0  0
    8.9155  -13.5185   28.6098 C   0  0  0  0  0  0  0  0  0  0  0  0
    8.5378  -14.0010   27.3773 C   0  0  0  0  0  0  0  0  0  0  0  0
   10.9445  -16.2063   25.1054 C   0  0  0  0  0  0  0  0  0  0  0  0
   11.9292  -15.3997   25.6358 O   0  0  0  0  0  0  0  0  0  0  0  0
   11.1567  -17.4275   25.0286 O   0  0  0  0  0  0  0  0  0  0  0  0
  2  1  1  6
  3  2  1  0
  4  2  1  0
  4  6  1  0
  4  5  1  6
  6  7  2  0
  6 13  1  0
  8  9  1  0
  9 10  1  0
 10 12  1  0
 10 11  1  6
 12 14  1  0
 12 13  1  1
 14 15  2  0
 14 16  1  0
 16 17  1  0
 17 25  1  0
 17 18  1  1
 19 18  1  0
 19 20  2  0
 21 20  1  0
 22 21  2  0
 23 24  2  0
 23 22  1  0
 24 19  1  0
 25 26  1  0
 27 25  2  0
M  END
$$$$
