VIF.pdb
     RDKit          3D

 27 27  0  0  1  0  0  0  0  0999 V2000
    8.2299  -19.9370   23.5296 C   0  0  0  0  0  0  0  0  0  0  0  0
    6.9216  -19.5958   22.8426 C   0  0  2  0  0  0  0  0  0  0  0  0
    5.9818  -20.7808   22.9018 C   0  0  0  0  0  0  0  0  0  0  0  0
    7.1529  -19.1300   21.4212 C   0  0  2  0  0  0  0  0  0  0  0  0
    7.7073  -20.1367   20.5826 N   0  0  0  0  0  0  0  0  0  0  0  0
    7.9792  -17.8959   21.4876 C   0  0  0  0  0  0  0  0  0  0  0  0
    9.2356  -17.9687   21.4736 O   0  0  0  0  0  0  0  0  0  0  0  0
    7.5364  -11.8472   20.3518 C   0  0  0  0  0  0  0  0  0  0  0  0
    8.2489  -12.9797   21.0164 C   0  0  0  0  0  0  0  0  0  0  0  0
    7.4473  -14.2542   21.0695 C   0  0  2  0  0  0  0  0  0  0  0  0
    6.1427  -13.9911   21.7463 C   0  0  0  0  0  0  0  0  0  0  0  0
    8.2297  -15.3895   21.6329 C   0  0  2  0  0  0  0  0  0  0  0  0
    7.4156  -16.5868   21.5695 N   0  0  0  0  0  0  0  0  0  0  0  0
    8.4674  -15.0870   23.0905 C   0  0  0  0  0  0  0  0  0  0  0  0
    8.0882  -14.0026   23.5978 O   0  0  0  0  0  0  0  0  0  0  0  0
    9.1231  -16.0045   23.9446 N   0  0  0  0  0  0  0  0  0  0  0  0
    9.1255  -15.7842   25.3850 C   0  0  1  0  0  0  0  0  0  0  0  0
    7.7659  -15.5132   25.9127 C   0  0  0  0  0  0  0  0  0  0  0  0
    7.5859  -14.0733   26.1843 C   0  0  0  0  0  0  0  0  0  0  0  0
    6.3673  -13.4204   26.0671 C   0  0  0  0  0  0  0  0  0  0  0  0
    6.1879  -12.0848   26.3216 C   0  0  0  0  0  0  0  0  0  0  0  0
    7.2629  -11.3165   26.7196 C   0  0  0  0  0  0  0  0  0  0  0  0
    8.4797  -11.9351   26.8437 C   0  0  0  0  0  0  0  0  0  0  0  0
    8.6630  -13.2754   26.5891 C   0  0  0  0  0  0  0  0  0  0  0  0
    9.7728  -16.9287   26.0340 C   0  0  0  0  0  0  0  0  0  0  0  0
   10.1691  -18.0209   25.2912 O   0  0  0  0  0  0  0  0  0  0  0  0
    9.9773  -16.9397   27.2589 O   0  0  0  0  0  0  0  0  0  0  0  0
  2  1  1  6
  3  2  1  0
  4  2  1  0
  4  6  1  0
  4  5  1  6
  6  7  2  0
  6 13  1  0
  8  9  1  0
  9 10  1  0
 10 12  1  0
 10 11  1  1
 12 14  1  0
 12 13  1  1
 14 15  2  0
 14 16  1  0
 16 17  1  0
 17 25  1  0
 17 18  1  1
 19 18  1  0
 19 20  2  0
 21 20  1  0
 22 21  2  0
 23 24  2  0
 23 22  1  0
 24 19  1  0
 25 26  1  0
 27 25  2  0
M  END
$$$$
