VIF.pdb
     RDKit          3D

 27 27  0  0  1  0  0  0  0  0999 V2000
   13.1891  -17.8668   19.1960 C   0  0  0  0  0  0  0  0  0  0  0  0
   11.8928  -18.6367   19.0310 C   0  0  2  0  0  0  0  0  0  0  0  0
   12.0322  -19.6518   17.9170 C   0  0  0  0  0  0  0  0  0  0  0  0
   10.7249  -17.7022   18.7995 C   0  0  2  0  0  0  0  0  0  0  0  0
   10.8059  -16.9951   17.5676 N   0  0  0  0  0  0  0  0  0  0  0  0
   10.6270  -16.8119   19.9859 C   0  0  0  0  0  0  0  0  0  0  0  0
   11.6660  -16.3340   20.5115 O   0  0  0  0  0  0  0  0  0  0  0  0
    6.7739  -13.1320   20.0687 C   0  0  0  0  0  0  0  0  0  0  0  0
    8.0627  -13.8433   20.3234 C   0  0  0  0  0  0  0  0  0  0  0  0
    8.0370  -14.7294   21.5415 C   0  0  2  0  0  0  0  0  0  0  0  0
    7.6562  -13.9186   22.7360 C   0  0  0  0  0  0  0  0  0  0  0  0
    9.2915  -15.5183   21.6916 C   0  0  2  0  0  0  0  0  0  0  0  0
    9.3832  -16.4529   20.5878 N   0  0  0  0  0  0  0  0  0  0  0  0
    9.1591  -16.3299   22.9550 C   0  0  0  0  0  0  0  0  0  0  0  0
    8.4613  -17.3737   22.9850 O   0  0  0  0  0  0  0  0  0  0  0  0
    9.8102  -15.9545   24.1535 N   0  0  0  0  0  0  0  0  0  0  0  0
    9.9785  -16.9267   25.2259 C   0  0  1  0  0  0  0  0  0  0  0  0
   10.9968  -16.4982   26.2159 C   0  0  0  0  0  0  0  0  0  0  0  0
   10.4817  -15.3993   27.0563 C   0  0  0  0  0  0  0  0  0  0  0  0
   10.5709  -15.3903   28.4409 C   0  0  0  0  0  0  0  0  0  0  0  0
   10.1004  -14.3728   29.2308 C   0  0  0  0  0  0  0  0  0  0  0  0
    9.4970  -13.2787   28.6450 C   0  0  0  0  0  0  0  0  0  0  0  0
    9.3948  -13.2604   27.2783 C   0  0  0  0  0  0  0  0  0  0  0  0
    9.8660  -14.2800   26.4827 C   0  0  0  0  0  0  0  0  0  0  0  0
    8.6690  -17.1904   25.8305 C   0  0  0  0  0  0  0  0  0  0  0  0
    8.5291  -18.1642   26.7968 O   0  0  0  0  0  0  0  0  0  0  0  0
    7.6636  -16.5469   25.4880 O   0  0  0  0  0  0  0  0  0  0  0  0
  2  1  1  6
  3  2  1  0
  4  2  1  0
  4  6  1  0
  4  5  1  6
  6  7  2  0
  6 13  1  0
  8  9  1  0
  9 10  1  0
 10 12  1  0
 10 11  1  1
 12 14  1  0
 12 13  1  6
 14 15  2  0
 14 16  1  0
 16 17  1  0
 17 25  1  0
 17 18  1  1
 19 18  1  0
 19 20  2  0
 21 20  1  0
 22 21  2  0
 23 24  2  0
 23 22  1  0
 24 19  1  0
 25 26  1  0
 27 25  2  0
M  END
$$$$
