VIF.pdb
     RDKit          3D

 27 27  0  0  1  0  0  0  0  0999 V2000
    6.2728  -21.1088   24.5940 C   0  0  0  0  0  0  0  0  0  0  0  0
    6.9981  -19.8188   24.2619 C   0  0  2  0  0  0  0  0  0  0  0  0
    8.0659  -19.5441   25.2988 C   0  0  0  0  0  0  0  0  0  0  0  0
    6.0298  -18.6630   24.1298 C   0  0  2  0  0  0  0  0  0  0  0  0
    4.9505  -18.9319   23.2429 N   0  0  0  0  0  0  0  0  0  0  0  0
    6.8208  -17.4628   23.7503 C   0  0  0  0  0  0  0  0  0  0  0  0
    7.4338  -17.4248   22.6517 O   0  0  0  0  0  0  0  0  0  0  0  0
    5.6635  -12.7663   26.4066 C   0  0  0  0  0  0  0  0  0  0  0  0
    5.9811  -13.7199   25.3013 C   0  0  0  0  0  0  0  0  0  0  0  0
    7.4447  -14.0610   25.1951 C   0  0  2  0  0  0  0  0  0  0  0  0
    8.2307  -12.8099   24.9806 C   0  0  0  0  0  0  0  0  0  0  0  0
    7.7013  -15.1421   24.2032 C   0  0  2  0  0  0  0  0  0  0  0  0
    6.9324  -16.3097   24.5847 N   0  0  0  0  0  0  0  0  0  0  0  0
    9.1588  -15.5109   24.3130 C   0  0  0  0  0  0  0  0  0  0  0  0
   10.0174  -14.9931   23.5566 O   0  0  0  0  0  0  0  0  0  0  0  0
    9.6203  -16.4494   25.2655 N   0  0  0  0  0  0  0  0  0  0  0  0
   11.0450  -16.7352   25.3749 C   0  0  1  0  0  0  0  0  0  0  0  0
   11.8158  -15.5642   25.8599 C   0  0  0  0  0  0  0  0  0  0  0  0
   11.3390  -15.1366   27.1900 C   0  0  0  0  0  0  0  0  0  0  0  0
   10.7339  -13.9107   27.4268 C   0  0  0  0  0  0  0  0  0  0  0  0
   10.2829  -13.5055   28.6569 C   0  0  0  0  0  0  0  0  0  0  0  0
   10.4244  -14.3432   29.7444 C   0  0  0  0  0  0  0  0  0  0  0  0
   11.0190  -15.5611   29.5401 C   0  0  0  0  0  0  0  0  0  0  0  0
   11.4726  -15.9708   28.3068 C   0  0  0  0  0  0  0  0  0  0  0  0
   11.2224  -17.9239   26.2147 C   0  0  0  0  0  0  0  0  0  0  0  0
   10.1279  -18.5770   26.7412 O   0  0  0  0  0  0  0  0  0  0  0  0
   12.3548  -18.3660   26.4687 O   0  0  0  0  0  0  0  0  0  0  0  0
  2  1  1  1
  3  2  1  0
  4  2  1  0
  4  6  1  0
  4  5  1  6
  6  7  2  0
  6 13  1  0
  8  9  1  0
  9 10  1  0
 10 12  1  0
 10 11  1  6
 12 14  1  0
 12 13  1  1
 14 15  2  0
 14 16  1  0
 16 17  1  0
 17 25  1  0
 17 18  1  1
 19 18  1  0
 19 20  2  0
 21 20  1  0
 22 21  2  0
 23 24  2  0
 23 22  1  0
 24 19  1  0
 25 26  1  0
 27 25  2  0
M  END
$$$$
