CEF.pdb
     RDKit          3D

 27 27  0  0  1  0  0  0  0  0999 V2000
   16.6399  -13.1928  -19.0814 N   0  0  0  0  0  0  0  0  0  0  0  0
   15.8597  -12.0662  -18.6343 C   0  0  1  0  0  0  0  0  0  0  0  0
   15.0305  -12.3668  -17.4221 C   0  0  0  0  0  0  0  0  0  0  0  0
   13.7420  -13.5839  -17.6542 S   0  0  0  0  0  0  0  0  0  0  0  0
   16.7464  -10.8998  -18.4555 C   0  0  0  0  0  0  0  0  0  0  0  0
   17.9920  -10.9983  -18.2810 O   0  0  0  0  0  0  0  0  0  0  0  0
   16.2207   -9.5836  -18.4716 N   0  0  0  0  0  0  0  0  0  0  0  0
   16.9909   -8.3818  -18.2738 C   0  0  1  0  0  0  0  0  0  0  0  0
   16.3997   -7.1369  -18.8111 C   0  0  0  0  0  0  0  0  0  0  0  0
   17.2567   -5.9269  -18.7431 C   0  0  0  0  0  0  0  0  0  0  0  0
   16.5557   -4.8670  -17.9568 C   0  0  0  0  0  0  0  0  0  0  0  0
   17.1218   -3.7492  -17.6754 O   0  0  0  0  0  0  0  0  0  0  0  0
   17.5295   -8.2795  -16.8793 C   0  0  0  0  0  0  0  0  0  0  0  0
   16.8818   -8.6651  -15.8793 O   0  0  0  0  0  0  0  0  0  0  0  0
   15.2590   -5.0104  -17.4813 O   0  0  0  0  0  0  0  0  0  0  0  0
   18.8166   -7.7305  -16.6194 N   0  0  0  0  0  0  0  0  0  0  0  0
   19.4305   -7.6544  -15.3109 C   0  0  1  0  0  0  0  0  0  0  0  0
   20.8953   -8.0230  -15.3743 C   0  0  0  0  0  0  0  0  0  0  0  0
   21.5719   -7.9391  -14.0805 C   0  0  0  0  0  0  0  0  0  0  0  0
   22.0212   -6.7109  -13.6304 C   0  0  0  0  0  0  0  0  0  0  0  0
   22.6441   -6.6686  -12.4023 C   0  0  0  0  0  0  0  0  0  0  0  0
   22.8419   -7.7763  -11.6024 C   0  0  0  0  0  0  0  0  0  0  0  0
   22.3877   -9.0100  -12.0596 C   0  0  0  0  0  0  0  0  0  0  0  0
   21.7644   -9.0626  -13.2858 C   0  0  0  0  0  0  0  0  0  0  0  0
   19.1842   -6.3040  -14.7569 C   0  0  0  0  0  0  0  0  0  0  0  0
   19.2477   -5.3098  -15.5534 O   0  0  0  0  0  0  0  0  0  0  0  0
   18.8886   -6.0379  -13.4307 O   0  0  0  0  0  0  0  0  0  0  0  0
  2  1  1  1
  3  2  1  0
  4  3  1  0
  5  6  2  0
  5  2  1  0
  7  5  1  0
  8  7  1  0
  8  9  1  1
 10  9  1  0
 11 10  1  0
 12 11  2  0
 13  8  1  0
 14 13  2  0
 15 11  1  0
 16 13  1  0
 17 18  1  6
 17 16  1  0
 18 19  1  0
 19 24  2  0
 19 20  1  0
 20 21  2  0
 21 22  1  0
 23 22  2  0
 24 23  1  0
 25 17  1  0
 26 25  2  0
 27 25  1  0
M  END
$$$$
