CEF.pdb
     RDKit          3D

 27 27  0  0  1  0  0  0  0  0999 V2000
   25.6016  -21.4066  -18.7888 N   0  0  0  0  0  0  0  0  0  0  0  0
   25.0828  -22.0779  -17.6235 C   0  0  1  0  0  0  0  0  0  0  0  0
   26.1127  -22.2829  -16.5536 C   0  0  0  0  0  0  0  0  0  0  0  0
   25.4918  -22.9074  -14.9979 S   0  0  0  0  0  0  0  0  0  0  0  0
   23.8830  -21.3644  -17.1441 C   0  0  0  0  0  0  0  0  0  0  0  0
   23.8132  -20.1076  -17.0596 O   0  0  0  0  0  0  0  0  0  0  0  0
   22.7269  -22.0816  -16.7463 N   0  0  0  0  0  0  0  0  0  0  0  0
   21.5037  -21.4842  -16.2734 C   0  0  1  0  0  0  0  0  0  0  0  0
   20.4730  -21.2174  -17.3003 C   0  0  0  0  0  0  0  0  0  0  0  0
   19.2441  -20.5327  -16.8268 C   0  0  0  0  0  0  0  0  0  0  0  0
   18.2552  -20.4607  -17.9448 C   0  0  0  0  0  0  0  0  0  0  0  0
   17.0563  -20.0391  -17.7599 O   0  0  0  0  0  0  0  0  0  0  0  0
   21.0011  -22.1405  -15.0237 C   0  0  0  0  0  0  0  0  0  0  0  0
   21.0012  -23.3834  -14.8713 O   0  0  0  0  0  0  0  0  0  0  0  0
   18.5563  -20.8373  -19.2469 O   0  0  0  0  0  0  0  0  0  0  0  0
   20.4907  -21.3754  -13.9375 N   0  0  0  0  0  0  0  0  0  0  0  0
   20.0595  -21.9286  -12.6715 C   0  0  1  0  0  0  0  0  0  0  0  0
   20.4114  -21.0068  -11.5262 C   0  0  0  0  0  0  0  0  0  0  0  0
   19.8076  -19.6798  -11.6419 C   0  0  0  0  0  0  0  0  0  0  0  0
   20.4929  -18.6805  -12.3089 C   0  0  0  0  0  0  0  0  0  0  0  0
   19.8881  -17.4466  -12.4077 C   0  0  0  0  0  0  0  0  0  0  0  0
   18.6452  -17.1557  -11.8821 C   0  0  0  0  0  0  0  0  0  0  0  0
   17.9595  -18.1646  -11.2120 C   0  0  0  0  0  0  0  0  0  0  0  0
   18.5555  -19.4010  -11.1076 C   0  0  0  0  0  0  0  0  0  0  0  0
   18.6137  -22.2329  -12.7627 C   0  0  0  0  0  0  0  0  0  0  0  0
   18.1006  -22.9752  -11.8612 O   0  0  0  0  0  0  0  0  0  0  0  0
   17.7719  -21.7695  -13.7594 O   0  0  0  0  0  0  0  0  0  0  0  0
  2  1  1  6
  3  2  1  0
  4  3  1  0
  5  6  2  0
  5  2  1  0
  7  5  1  0
  8  7  1  0
  8  9  1  6
 10  9  1  0
 11 10  1  0
 12 11  2  0
 13  8  1  0
 14 13  2  0
 15 11  1  0
 16 13  1  0
 17 18  1  1
 17 16  1  0
 18 19  1  0
 19 24  2  0
 19 20  1  0
 20 21  2  0
 21 22  1  0
 23 22  2  0
 24 23  1  0
 25 17  1  0
 26 25  2  0
 27 25  1  0
M  END
$$$$
