CEF.pdb
     RDKit          3D

 27 27  0  0  1  0  0  0  0  0999 V2000
   19.5022  -33.1046   -4.2807 N   0  0  0  0  0  0  0  0  0  0  0  0
   19.3278  -33.4298   -5.6741 C   0  0  1  0  0  0  0  0  0  0  0  0
   17.9048  -33.3186   -6.1322 C   0  0  0  0  0  0  0  0  0  0  0  0
   17.1796  -31.6900   -6.0009 S   0  0  0  0  0  0  0  0  0  0  0  0
   20.2621  -32.6229   -6.4832 C   0  0  0  0  0  0  0  0  0  0  0  0
   20.6003  -31.4458   -6.1805 O   0  0  0  0  0  0  0  0  0  0  0  0
   20.8334  -33.1511   -7.6679 N   0  0  0  0  0  0  0  0  0  0  0  0
   21.7816  -32.4638   -8.5078 C   0  0  1  0  0  0  0  0  0  0  0  0
   22.8589  -33.2967   -9.0856 C   0  0  0  0  0  0  0  0  0  0  0  0
   23.9117  -32.5693   -9.8378 C   0  0  0  0  0  0  0  0  0  0  0  0
   24.9613  -33.5362  -10.2811 C   0  0  0  0  0  0  0  0  0  0  0  0
   25.2181  -33.7313  -11.5242 O   0  0  0  0  0  0  0  0  0  0  0  0
   21.1112  -31.5331   -9.4719 C   0  0  0  0  0  0  0  0  0  0  0  0
   20.0108  -31.7990  -10.0071 O   0  0  0  0  0  0  0  0  0  0  0  0
   25.7260  -34.2823   -9.3943 O   0  0  0  0  0  0  0  0  0  0  0  0
   21.6998  -30.2885   -9.8328 N   0  0  0  0  0  0  0  0  0  0  0  0
   21.0958  -29.3190  -10.7216 C   0  0  1  0  0  0  0  0  0  0  0  0
   21.6692  -27.9391  -10.4929 C   0  0  0  0  0  0  0  0  0  0  0  0
   21.1053  -26.9215  -11.3790 C   0  0  0  0  0  0  0  0  0  0  0  0
   21.7899  -26.5706  -12.5285 C   0  0  0  0  0  0  0  0  0  0  0  0
   21.2227  -25.6166  -13.3446 C   0  0  0  0  0  0  0  0  0  0  0  0
   20.0175  -24.9972  -13.0802 C   0  0  0  0  0  0  0  0  0  0  0  0
   19.3323  -25.3538  -11.9225 C   0  0  0  0  0  0  0  0  0  0  0  0
   19.8911  -26.3059  -11.1003 C   0  0  0  0  0  0  0  0  0  0  0  0
   21.2506  -29.8004  -12.1129 C   0  0  0  0  0  0  0  0  0  0  0  0
   20.5223  -29.2682  -13.0146 O   0  0  0  0  0  0  0  0  0  0  0  0
   22.1320  -30.7913  -12.5108 O   0  0  0  0  0  0  0  0  0  0  0  0
  2  1  1  1
  3  2  1  0
  4  3  1  0
  5  6  2  0
  5  2  1  0
  7  5  1  0
  8  7  1  0
  8  9  1  6
 10  9  1  0
 11 10  1  0
 12 11  2  0
 13  8  1  0
 14 13  2  0
 15 11  1  0
 16 13  1  0
 17 18  1  6
 17 16  1  0
 18 19  1  0
 19 24  2  0
 19 20  1  0
 20 21  2  0
 21 22  1  0
 23 22  2  0
 24 23  1  0
 25 17  1  0
 26 25  2  0
 27 25  1  0
M  END
$$$$
