CEF.pdb
     RDKit          3D

 27 27  0  0  1  0  0  0  0  0999 V2000
   22.1196  -11.0102  -19.5462 N   0  0  0  0  0  0  0  0  0  0  0  0
   22.3483   -9.6286  -19.8879 C   0  0  1  0  0  0  0  0  0  0  0  0
   22.0567   -9.3206  -21.3258 C   0  0  0  0  0  0  0  0  0  0  0  0
   22.3562   -7.6309  -21.8264 S   0  0  0  0  0  0  0  0  0  0  0  0
   21.6067   -8.7653  -18.9481 C   0  0  0  0  0  0  0  0  0  0  0  0
   20.3543   -8.8153  -18.8041 O   0  0  0  0  0  0  0  0  0  0  0  0
   22.2895   -7.8164  -18.1466 N   0  0  0  0  0  0  0  0  0  0  0  0
   21.6558   -6.8596  -17.2750 C   0  0  1  0  0  0  0  0  0  0  0  0
   21.9054   -7.0361  -15.8277 C   0  0  0  0  0  0  0  0  0  0  0  0
   21.2007   -6.0912  -14.9255 C   0  0  0  0  0  0  0  0  0  0  0  0
   21.5625   -6.3966  -13.5082 C   0  0  0  0  0  0  0  0  0  0  0  0
   22.3601   -5.6458  -12.8379 O   0  0  0  0  0  0  0  0  0  0  0  0
   21.7992   -5.4556  -17.7783 C   0  0  0  0  0  0  0  0  0  0  0  0
   22.8996   -4.9822  -18.1429 O   0  0  0  0  0  0  0  0  0  0  0  0
   21.0685   -7.4977  -12.8214 O   0  0  0  0  0  0  0  0  0  0  0  0
   20.6801   -4.5806  -17.8651 N   0  0  0  0  0  0  0  0  0  0  0  0
   20.7474   -3.1967  -18.2836 C   0  0  1  0  0  0  0  0  0  0  0  0
   20.3076   -3.0405  -19.7215 C   0  0  0  0  0  0  0  0  0  0  0  0
   20.2913   -1.6507  -20.1762 C   0  0  0  0  0  0  0  0  0  0  0  0
   21.4852   -1.0284  -20.4930 C   0  0  0  0  0  0  0  0  0  0  0  0
   21.4299    0.2775  -20.9284 C   0  0  0  0  0  0  0  0  0  0  0  0
   20.2571    0.9929  -21.0655 C   0  0  0  0  0  0  0  0  0  0  0  0
   19.0583    0.3623  -20.7458 C   0  0  0  0  0  0  0  0  0  0  0  0
   19.1031   -0.9425  -20.3094 C   0  0  0  0  0  0  0  0  0  0  0  0
   19.9586   -2.3819  -17.3322 C   0  0  0  0  0  0  0  0  0  0  0  0
   18.9343   -2.9169  -16.7924 O   0  0  0  0  0  0  0  0  0  0  0  0
   20.2512   -1.0745  -16.9828 O   0  0  0  0  0  0  0  0  0  0  0  0
  2  1  1  1
  3  2  1  0
  4  3  1  0
  5  6  2  0
  5  2  1  0
  7  5  1  0
  8  7  1  0
  8  9  1  1
 10  9  1  0
 11 10  1  0
 12 11  2  0
 13  8  1  0
 14 13  2  0
 15 11  1  0
 16 13  1  0
 17 18  1  6
 17 16  1  0
 18 19  1  0
 19 24  2  0
 19 20  1  0
 20 21  2  0
 21 22  1  0
 23 22  2  0
 24 23  1  0
 25 17  1  0
 26 25  2  0
 27 25  1  0
M  END
$$$$
