CEF.pdb
     RDKit          3D

 27 27  0  0  1  0  0  0  0  0999 V2000
   21.0188  -22.7373  -14.5114 N   0  0  0  0  0  0  0  0  0  0  0  0
   21.5253  -21.6279  -13.7430 C   0  0  1  0  0  0  0  0  0  0  0  0
   20.5105  -21.0486  -12.8039 C   0  0  0  0  0  0  0  0  0  0  0  0
   18.9280  -20.6488  -13.5329 S   0  0  0  0  0  0  0  0  0  0  0  0
   22.7747  -22.0322  -13.0690 C   0  0  0  0  0  0  0  0  0  0  0  0
   22.9481  -23.1738  -12.5606 O   0  0  0  0  0  0  0  0  0  0  0  0
   23.8618  -21.1292  -12.9607 N   0  0  0  0  0  0  0  0  0  0  0  0
   25.1084  -21.4102  -12.2946 C   0  0  1  0  0  0  0  0  0  0  0  0
   26.3253  -21.3186  -13.1306 C   0  0  0  0  0  0  0  0  0  0  0  0
   26.1051  -21.0527  -14.5742 C   0  0  0  0  0  0  0  0  0  0  0  0
   27.3861  -20.5989  -15.1954 C   0  0  0  0  0  0  0  0  0  0  0  0
   28.4543  -21.3095  -15.1363 O   0  0  0  0  0  0  0  0  0  0  0  0
   25.2010  -20.7335  -10.9609 C   0  0  0  0  0  0  0  0  0  0  0  0
   24.6624  -19.6268  -10.7306 O   0  0  0  0  0  0  0  0  0  0  0  0
   27.5131  -19.3941  -15.8738 O   0  0  0  0  0  0  0  0  0  0  0  0
   25.9158  -21.3205   -9.8792 N   0  0  0  0  0  0  0  0  0  0  0  0
   26.1904  -20.6619   -8.6199 C   0  0  1  0  0  0  0  0  0  0  0  0
   27.2223  -21.4242   -7.8202 C   0  0  0  0  0  0  0  0  0  0  0  0
   27.5876  -20.7663   -6.5663 C   0  0  0  0  0  0  0  0  0  0  0  0
   28.5795  -19.8024   -6.5721 C   0  0  0  0  0  0  0  0  0  0  0  0
   28.8891  -19.1962   -5.3743 C   0  0  0  0  0  0  0  0  0  0  0  0
   28.2679  -19.4956   -4.1783 C   0  0  0  0  0  0  0  0  0  0  0  0
   27.2703  -20.4660   -4.1777 C   0  0  0  0  0  0  0  0  0  0  0  0
   26.9539  -21.0778   -5.3695 C   0  0  0  0  0  0  0  0  0  0  0  0
   26.5766  -19.2606   -8.8999 C   0  0  0  0  0  0  0  0  0  0  0  0
   27.3886  -19.0440   -9.8593 O   0  0  0  0  0  0  0  0  0  0  0  0
   26.1196  -18.1608   -8.1936 O   0  0  0  0  0  0  0  0  0  0  0  0
  2  1  1  1
  3  2  1  0
  4  3  1  0
  5  6  2  0
  5  2  1  0
  7  5  1  0
  8  7  1  0
  8  9  1  6
 10  9  1  0
 11 10  1  0
 12 11  2  0
 13  8  1  0
 14 13  2  0
 15 11  1  0
 16 13  1  0
 17 18  1  6
 17 16  1  0
 18 19  1  0
 19 24  2  0
 19 20  1  0
 20 21  2  0
 21 22  1  0
 23 22  2  0
 24 23  1  0
 25 17  1  0
 26 25  2  0
 27 25  1  0
M  END
$$$$
