CEF.pdb
     RDKit          3D

 27 27  0  0  1  0  0  0  0  0999 V2000
   17.2162  -13.7210  -15.8514 N   0  0  0  0  0  0  0  0  0  0  0  0
   16.5689  -12.5100  -15.4128 C   0  0  1  0  0  0  0  0  0  0  0  0
   16.1089  -12.5702  -13.9873 C   0  0  0  0  0  0  0  0  0  0  0  0
   15.2016  -14.0421  -13.5334 S   0  0  0  0  0  0  0  0  0  0  0  0
   17.4502  -11.3588  -15.6895 C   0  0  0  0  0  0  0  0  0  0  0  0
   18.7048  -11.4022  -15.5636 O   0  0  0  0  0  0  0  0  0  0  0  0
   16.9087  -10.1214  -16.1192 N   0  0  0  0  0  0  0  0  0  0  0  0
   17.6689   -8.9176  -16.3422 C   0  0  1  0  0  0  0  0  0  0  0  0
   17.1985   -8.0482  -17.4426 C   0  0  0  0  0  0  0  0  0  0  0  0
   17.9918   -6.8172  -17.6843 C   0  0  0  0  0  0  0  0  0  0  0  0
   18.9232   -7.0451  -18.8304 C   0  0  0  0  0  0  0  0  0  0  0  0
   18.5767   -7.7377  -19.8548 O   0  0  0  0  0  0  0  0  0  0  0  0
   17.9887   -8.2066  -15.0626 C   0  0  0  0  0  0  0  0  0  0  0  0
   17.2266   -8.2362  -14.0695 O   0  0  0  0  0  0  0  0  0  0  0  0
   20.2122   -6.5307  -18.8719 O   0  0  0  0  0  0  0  0  0  0  0  0
   19.1862   -7.4522  -14.9123 N   0  0  0  0  0  0  0  0  0  0  0  0
   19.5598   -6.7305  -13.7147 C   0  0  1  0  0  0  0  0  0  0  0  0
   20.8699   -7.2398  -13.1583 C   0  0  0  0  0  0  0  0  0  0  0  0
   22.0010   -7.0448  -14.0646 C   0  0  0  0  0  0  0  0  0  0  0  0
   22.5356   -8.1367  -14.7240 C   0  0  0  0  0  0  0  0  0  0  0  0
   23.5931   -7.9131  -15.5782 C   0  0  0  0  0  0  0  0  0  0  0  0
   24.1434   -6.6685  -15.8106 C   0  0  0  0  0  0  0  0  0  0  0  0
   23.6018   -5.5728  -15.1449 C   0  0  0  0  0  0  0  0  0  0  0  0
   22.5451   -5.7860  -14.2889 C   0  0  0  0  0  0  0  0  0  0  0  0
   19.5724   -5.2833  -14.0259 C   0  0  0  0  0  0  0  0  0  0  0  0
   19.4854   -4.9337  -15.2494 O   0  0  0  0  0  0  0  0  0  0  0  0
   19.6723   -4.2750  -13.0824 O   0  0  0  0  0  0  0  0  0  0  0  0
  2  1  1  1
  3  2  1  0
  4  3  1  0
  5  6  2  0
  5  2  1  0
  7  5  1  0
  8  7  1  0
  8  9  1  6
 10  9  1  0
 11 10  1  0
 12 11  2  0
 13  8  1  0
 14 13  2  0
 15 11  1  0
 16 13  1  0
 17 18  1  6
 17 16  1  0
 18 19  1  0
 19 24  2  0
 19 20  1  0
 20 21  2  0
 21 22  1  0
 23 22  2  0
 24 23  1  0
 25 17  1  0
 26 25  2  0
 27 25  1  0
M  END
$$$$
