CEF.pdb
     RDKit          3D

 27 27  0  0  1  0  0  0  0  0999 V2000
   22.7183  -11.1944  -18.4771 N   0  0  0  0  0  0  0  0  0  0  0  0
   22.4854  -10.9082  -17.0837 C   0  0  1  0  0  0  0  0  0  0  0  0
   23.7502  -10.7452  -16.2956 C   0  0  0  0  0  0  0  0  0  0  0  0
   24.7345  -12.2253  -16.1061 S   0  0  0  0  0  0  0  0  0  0  0  0
   21.5778   -9.7499  -16.9694 C   0  0  0  0  0  0  0  0  0  0  0  0
   21.7060   -8.7002  -17.6574 O   0  0  0  0  0  0  0  0  0  0  0  0
   20.4944   -9.7685  -16.0556 N   0  0  0  0  0  0  0  0  0  0  0  0
   19.5767   -8.6791  -15.8370 C   0  0  1  0  0  0  0  0  0  0  0  0
   18.1648   -9.0567  -15.6085 C   0  0  0  0  0  0  0  0  0  0  0  0
   17.6798  -10.2450  -16.3540 C   0  0  0  0  0  0  0  0  0  0  0  0
   17.0903  -11.2259  -15.3932 C   0  0  0  0  0  0  0  0  0  0  0  0
   15.9407  -11.0353  -14.8535 O   0  0  0  0  0  0  0  0  0  0  0  0
   20.1250   -7.6616  -14.8835 C   0  0  0  0  0  0  0  0  0  0  0  0
   20.1422   -7.8429  -13.6447 O   0  0  0  0  0  0  0  0  0  0  0  0
   17.7323  -12.3993  -15.0203 O   0  0  0  0  0  0  0  0  0  0  0  0
   20.6565   -6.4241  -15.3438 N   0  0  0  0  0  0  0  0  0  0  0  0
   21.2168   -5.3997  -14.4887 C   0  0  1  0  0  0  0  0  0  0  0  0
   22.4532   -5.9002  -13.7773 C   0  0  0  0  0  0  0  0  0  0  0  0
   23.5498   -6.2357  -14.6849 C   0  0  0  0  0  0  0  0  0  0  0  0
   23.9950   -7.5435  -14.7538 C   0  0  0  0  0  0  0  0  0  0  0  0
   25.0221   -7.8241  -15.6279 C   0  0  0  0  0  0  0  0  0  0  0  0
   25.6260   -6.8790  -16.4329 C   0  0  0  0  0  0  0  0  0  0  0  0
   25.1745   -5.5646  -16.3601 C   0  0  0  0  0  0  0  0  0  0  0  0
   24.1487   -5.2739  -15.4894 C   0  0  0  0  0  0  0  0  0  0  0  0
   21.4543   -4.1879  -15.3051 C   0  0  0  0  0  0  0  0  0  0  0  0
   21.8826   -3.1423  -14.7134 O   0  0  0  0  0  0  0  0  0  0  0  0
   21.2447   -4.1041  -16.6711 O   0  0  0  0  0  0  0  0  0  0  0  0
  2  1  1  6
  3  2  1  0
  4  3  1  0
  5  6  2  0
  5  2  1  0
  7  5  1  0
  8  7  1  0
  8  9  1  1
 10  9  1  0
 11 10  1  0
 12 11  2  0
 13  8  1  0
 14 13  2  0
 15 11  1  0
 16 13  1  0
 17 18  1  6
 17 16  1  0
 18 19  1  0
 19 24  2  0
 19 20  1  0
 20 21  2  0
 21 22  1  0
 23 22  2  0
 24 23  1  0
 25 17  1  0
 26 25  2  0
 27 25  1  0
M  END
$$$$
