CEF.pdb
     RDKit          3D

 27 27  0  0  1  0  0  0  0  0999 V2000
   26.1517  -18.5754  -15.9772 N   0  0  0  0  0  0  0  0  0  0  0  0
   26.9817  -18.8935  -14.8424 C   0  0  1  0  0  0  0  0  0  0  0  0
   28.0636  -17.8842  -14.6016 C   0  0  0  0  0  0  0  0  0  0  0  0
   29.1709  -17.6010  -15.9761 S   0  0  0  0  0  0  0  0  0  0  0  0
   26.1260  -19.1192  -13.6611 C   0  0  0  0  0  0  0  0  0  0  0  0
   25.2804  -18.2787  -13.2488 O   0  0  0  0  0  0  0  0  0  0  0  0
   26.2221  -20.3230  -12.9190 N   0  0  0  0  0  0  0  0  0  0  0  0
   25.4342  -20.6439  -11.7558 C   0  0  1  0  0  0  0  0  0  0  0  0
   24.3267  -21.6015  -11.9668 C   0  0  0  0  0  0  0  0  0  0  0  0
   23.2912  -21.1933  -12.9488 C   0  0  0  0  0  0  0  0  0  0  0  0
   22.1610  -20.5306  -12.2302 C   0  0  0  0  0  0  0  0  0  0  0  0
   21.5812  -21.0843  -11.2270 O   0  0  0  0  0  0  0  0  0  0  0  0
   26.2865  -20.9126  -10.5531 C   0  0  0  0  0  0  0  0  0  0  0  0
   27.2430  -21.7204  -10.5748 O   0  0  0  0  0  0  0  0  0  0  0  0
   21.6633  -19.2847  -12.5883 O   0  0  0  0  0  0  0  0  0  0  0  0
   26.0465  -20.2577   -9.3124 N   0  0  0  0  0  0  0  0  0  0  0  0
   26.8176  -20.4707   -8.1062 C   0  0  1  0  0  0  0  0  0  0  0  0
   27.3180  -19.1609   -7.5412 C   0  0  0  0  0  0  0  0  0  0  0  0
   27.9750  -19.3017   -6.2423 C   0  0  0  0  0  0  0  0  0  0  0  0
   28.1004  -18.1938   -5.4239 C   0  0  0  0  0  0  0  0  0  0  0  0
   28.7149  -18.3668   -4.2031 C   0  0  0  0  0  0  0  0  0  0  0  0
   29.2077  -19.5762   -3.7553 C   0  0  0  0  0  0  0  0  0  0  0  0
   29.0790  -20.6881   -4.5823 C   0  0  0  0  0  0  0  0  0  0  0  0
   28.4667  -20.5254   -5.8044 C   0  0  0  0  0  0  0  0  0  0  0  0
   25.9917  -21.2479   -7.1548 C   0  0  0  0  0  0  0  0  0  0  0  0
   26.5408  -21.6506   -6.0763 O   0  0  0  0  0  0  0  0  0  0  0  0
   24.6599  -21.5724   -7.3494 O   0  0  0  0  0  0  0  0  0  0  0  0
  2  1  1  6
  3  2  1  0
  4  3  1  0
  5  6  2  0
  5  2  1  0
  7  5  1  0
  8  7  1  0
  8  9  1  6
 10  9  1  0
 11 10  1  0
 12 11  2  0
 13  8  1  0
 14 13  2  0
 15 11  1  0
 16 13  1  0
 17 18  1  1
 17 16  1  0
 18 19  1  0
 19 24  2  0
 19 20  1  0
 20 21  2  0
 21 22  1  0
 23 22  2  0
 24 23  1  0
 25 17  1  0
 26 25  2  0
 27 25  1  0
M  END
$$$$
