PCI.pdb
     RDKit          3D

 22 22  0  0  1  0  0  0  0  0999 V2000
    8.3470  -15.2492   19.2002 N   0  0  0  0  0  0  0  0  0  0  0  0
    8.1040  -14.7894   17.8635 C   0  0  0  0  0  0  0  0  0  0  0  0
    7.7855  -13.3184   17.9390 C   0  0  0  0  0  0  0  0  0  0  0  0
    7.3959  -13.1541   19.3942 C   0  0  0  0  0  0  0  0  0  0  0  0
    8.3627  -14.1001   20.0639 C   0  0  1  0  0  0  0  0  0  0  0  0
    7.9120  -14.5148   21.4093 C   0  0  0  0  0  0  0  0  0  0  0  0
    7.7538  -13.6469   22.2992 O   0  0  0  0  0  0  0  0  0  0  0  0
    7.6437  -15.8722   21.7526 N   0  0  0  0  0  0  0  0  0  0  0  0
    7.1611  -16.2813   23.0494 C   0  0  1  0  0  0  0  0  0  0  0  0
    7.1538  -17.8161   23.0376 C   0  0  0  0  0  0  0  0  0  0  0  0
    5.4463  -18.4230   23.0437 S   0  0  0  0  0  0  0  0  0  0  0  0
    8.1135  -15.8956   24.1328 C   0  0  0  0  0  0  0  0  0  0  0  0
    9.3501  -16.0534   23.9743 O   0  0  0  0  0  0  0  0  0  0  0  0
    6.4497  -11.7016   26.8371 C   0  0  0  0  0  0  0  0  0  0  0  0
    7.3649  -12.6282   26.0961 C   0  0  0  0  0  0  0  0  0  0  0  0
    7.9503  -13.6218   27.0757 C   0  0  2  0  0  0  0  0  0  0  0  0
    8.9761  -12.9995   27.9746 C   0  0  0  0  0  0  0  0  0  0  0  0
    8.5736  -14.8026   26.3588 C   0  0  2  0  0  0  0  0  0  0  0  0
    7.6690  -15.3453   25.3624 N   0  0  0  0  0  0  0  0  0  0  0  0
    8.8998  -15.8727   27.3168 C   0  0  0  0  0  0  0  0  0  0  0  0
    8.0565  -16.7553   27.5798 O   0  0  0  0  0  0  0  0  0  0  0  0
   10.1266  -15.9011   27.9191 O   0  0  0  0  0  0  0  0  0  0  0  0
  2  1  1  0
  3  2  1  0
  4  3  1  0
  4  5  1  0
  5  1  1  0
  5  6  1  1
  6  8  1  0
  7  6  2  0
  9  8  1  0
  9 12  1  0
  9 10  1  6
 11 10  1  0
 12 19  1  0
 13 12  2  0
 15 14  1  0
 16 17  1  6
 16 15  1  0
 18 16  1  0
 18 19  1  6
 20 18  1  0
 20 22  1  0
 21 20  2  0
M  END
$$$$
