PCI.pdb
     RDKit          3D

 22 22  0  0  1  0  0  0  0  0999 V2000
    7.4901  -15.0501   20.3302 N   0  0  0  0  0  0  0  0  0  0  0  0
    6.9790  -14.9006   18.9984 C   0  0  0  0  0  0  0  0  0  0  0  0
    6.1820  -16.1380   18.6751 C   0  0  0  0  0  0  0  0  0  0  0  0
    6.7084  -17.1278   19.6947 C   0  0  0  0  0  0  0  0  0  0  0  0
    6.9030  -16.2344   20.8956 C   0  0  1  0  0  0  0  0  0  0  0  0
    7.8462  -16.8044   21.8809 C   0  0  0  0  0  0  0  0  0  0  0  0
    7.4710  -17.7463   22.6171 O   0  0  0  0  0  0  0  0  0  0  0  0
    9.1813  -16.3307   22.0396 N   0  0  0  0  0  0  0  0  0  0  0  0
   10.1196  -16.9030   22.9747 C   0  0  1  0  0  0  0  0  0  0  0  0
   11.5169  -16.6050   22.4140 C   0  0  0  0  0  0  0  0  0  0  0  0
   11.7733  -14.8135   22.3220 S   0  0  0  0  0  0  0  0  0  0  0  0
   10.0643  -16.2104   24.2963 C   0  0  0  0  0  0  0  0  0  0  0  0
   11.0151  -16.3232   25.1103 O   0  0  0  0  0  0  0  0  0  0  0  0
    6.8024  -11.7284   27.0748 C   0  0  0  0  0  0  0  0  0  0  0  0
    7.7998  -12.8391   27.2053 C   0  0  0  0  0  0  0  0  0  0  0  0
    7.8369  -13.6160   25.9073 C   0  0  2  0  0  0  0  0  0  0  0  0
    6.5120  -14.2337   25.5744 C   0  0  0  0  0  0  0  0  0  0  0  0
    8.8927  -14.7026   25.9440 C   0  0  2  0  0  0  0  0  0  0  0  0
    8.9565  -15.4116   24.6796 N   0  0  0  0  0  0  0  0  0  0  0  0
    8.5903  -15.6785   27.0050 C   0  0  0  0  0  0  0  0  0  0  0  0
    7.9515  -16.7172   26.7360 O   0  0  0  0  0  0  0  0  0  0  0  0
    9.0090  -15.4483   28.2857 O   0  0  0  0  0  0  0  0  0  0  0  0
  2  1  1  0
  3  2  1  0
  4  3  1  0
  4  5  1  0
  5  1  1  0
  5  6  1  1
  6  8  1  0
  7  6  2  0
  9  8  1  0
  9 12  1  0
  9 10  1  6
 11 10  1  0
 12 19  1  0
 13 12  2  0
 15 14  1  0
 16 17  1  1
 16 15  1  0
 18 16  1  0
 18 19  1  6
 20 18  1  0
 20 22  1  0
 21 20  2  0
M  END
$$$$
