PCI.pdb
     RDKit          3D

 22 22  0  0  1  0  0  0  0  0999 V2000
    8.4156  -15.2887   19.6145 N   0  0  0  0  0  0  0  0  0  0  0  0
    8.2275  -14.8940   18.2484 C   0  0  0  0  0  0  0  0  0  0  0  0
    7.8904  -13.4252   18.2413 C   0  0  0  0  0  0  0  0  0  0  0  0
    7.4347  -13.1990   19.6688 C   0  0  0  0  0  0  0  0  0  0  0  0
    8.3806  -14.1009   20.4237 C   0  0  1  0  0  0  0  0  0  0  0  0
    7.8747  -14.4589   21.7658 C   0  0  0  0  0  0  0  0  0  0  0  0
    7.6483  -13.5513   22.5995 O   0  0  0  0  0  0  0  0  0  0  0  0
    7.6272  -15.8042   22.1672 N   0  0  0  0  0  0  0  0  0  0  0  0
    7.2452  -16.1736   23.5088 C   0  0  1  0  0  0  0  0  0  0  0  0
    7.0585  -17.6969   23.4955 C   0  0  0  0  0  0  0  0  0  0  0  0
    5.7365  -18.1444   22.3397 S   0  0  0  0  0  0  0  0  0  0  0  0
    8.3487  -15.9156   24.4810 C   0  0  0  0  0  0  0  0  0  0  0  0
    9.5473  -16.0530   24.1292 O   0  0  0  0  0  0  0  0  0  0  0  0
    7.0861  -12.1513   28.0592 C   0  0  0  0  0  0  0  0  0  0  0  0
    7.8054  -12.9589   27.0220 C   0  0  0  0  0  0  0  0  0  0  0  0
    8.5929  -14.0503   27.7136 C   0  0  2  0  0  0  0  0  0  0  0  0
    9.7294  -13.5061   28.5260 C   0  0  0  0  0  0  0  0  0  0  0  0
    9.1352  -15.0558   26.7178 C   0  0  2  0  0  0  0  0  0  0  0  0
    8.0935  -15.5124   25.8169 N   0  0  0  0  0  0  0  0  0  0  0  0
    9.6855  -16.2286   27.4184 C   0  0  0  0  0  0  0  0  0  0  0  0
    8.9373  -17.1778   27.7322 O   0  0  0  0  0  0  0  0  0  0  0  0
   11.0165  -16.2795   27.7259 O   0  0  0  0  0  0  0  0  0  0  0  0
  2  1  1  0
  3  2  1  0
  4  3  1  0
  4  5  1  0
  5  1  1  0
  5  6  1  1
  6  8  1  0
  7  6  2  0
  9  8  1  0
  9 12  1  0
  9 10  1  6
 11 10  1  0
 12 19  1  0
 13 12  2  0
 15 14  1  0
 16 17  1  6
 16 15  1  0
 18 16  1  0
 18 19  1  6
 20 18  1  0
 20 22  1  0
 21 20  2  0
M  END
$$$$
