PCI.pdb
     RDKit          3D

 22 22  0  0  1  0  0  0  0  0999 V2000
    8.3511  -17.0924   20.0343 N   0  0  0  0  0  0  0  0  0  0  0  0
    8.0308  -17.1478   18.6373 C   0  0  0  0  0  0  0  0  0  0  0  0
    7.8298  -15.7327   18.1599 C   0  0  0  0  0  0  0  0  0  0  0  0
    7.5778  -14.9942   19.4590 C   0  0  0  0  0  0  0  0  0  0  0  0
    8.5248  -15.7105   20.3906 C   0  0  1  0  0  0  0  0  0  0  0  0
    8.1598  -15.5404   21.8130 C   0  0  0  0  0  0  0  0  0  0  0  0
    8.2379  -14.4044   22.3358 O   0  0  0  0  0  0  0  0  0  0  0  0
    7.7166  -16.6185   22.6337 N   0  0  0  0  0  0  0  0  0  0  0  0
    7.3106  -16.4532   24.0084 C   0  0  1  0  0  0  0  0  0  0  0  0
    6.5806  -17.7463   24.3965 C   0  0  0  0  0  0  0  0  0  0  0  0
    7.7865  -19.0219   24.8463 S   0  0  0  0  0  0  0  0  0  0  0  0
    8.4904  -16.3724   24.9200 C   0  0  0  0  0  0  0  0  0  0  0  0
    9.6238  -16.7422   24.5227 O   0  0  0  0  0  0  0  0  0  0  0  0
    8.2011  -12.2777   28.4070 C   0  0  0  0  0  0  0  0  0  0  0  0
    8.6750  -13.2502   27.3701 C   0  0  0  0  0  0  0  0  0  0  0  0
    9.2190  -14.4787   28.0664 C   0  0  2  0  0  0  0  0  0  0  0  0
   10.4478  -14.1804   28.8718 C   0  0  0  0  0  0  0  0  0  0  0  0
    9.5340  -15.5812   27.0755 C   0  0  2  0  0  0  0  0  0  0  0  0
    8.3816  -15.8839   26.2473 N   0  0  0  0  0  0  0  0  0  0  0  0
    9.9294  -16.8112   27.7825 C   0  0  0  0  0  0  0  0  0  0  0  0
    9.0600  -17.6301   28.1473 O   0  0  0  0  0  0  0  0  0  0  0  0
   11.2490  -17.0580   28.0402 O   0  0  0  0  0  0  0  0  0  0  0  0
  2  1  1  0
  3  2  1  0
  4  3  1  0
  4  5  1  0
  5  1  1  0
  5  6  1  1
  6  8  1  0
  7  6  2  0
  9  8  1  0
  9 12  1  0
  9 10  1  1
 11 10  1  0
 12 19  1  0
 13 12  2  0
 15 14  1  0
 16 17  1  6
 16 15  1  0
 18 16  1  0
 18 19  1  1
 20 18  1  0
 20 22  1  0
 21 20  2  0
M  END
$$$$
