PCI.pdb
     RDKit          3D

 22 22  0  0  1  0  0  0  0  0999 V2000
    8.9503  -13.8427   19.3201 N   0  0  0  0  0  0  0  0  0  0  0  0
    9.4798  -13.6767   17.9975 C   0  0  0  0  0  0  0  0  0  0  0  0
    8.3641  -13.9521   17.0227 C   0  0  0  0  0  0  0  0  0  0  0  0
    7.3866  -14.7361   17.8750 C   0  0  0  0  0  0  0  0  0  0  0  0
    7.5303  -14.0351   19.2039 C   0  0  1  0  0  0  0  0  0  0  0  0
    7.0723  -14.8663   20.3373 C   0  0  0  0  0  0  0  0  0  0  0  0
    6.0488  -15.5768   20.2042 O   0  0  0  0  0  0  0  0  0  0  0  0
    7.7450  -14.9021   21.5936 N   0  0  0  0  0  0  0  0  0  0  0  0
    7.3037  -15.7080   22.7063 C   0  0  1  0  0  0  0  0  0  0  0  0
    7.5800  -17.1658   22.3138 C   0  0  0  0  0  0  0  0  0  0  0  0
    7.3101  -18.2488   23.7415 S   0  0  0  0  0  0  0  0  0  0  0  0
    8.1324  -15.4588   23.9232 C   0  0  0  0  0  0  0  0  0  0  0  0
    9.3868  -15.4811   23.8502 O   0  0  0  0  0  0  0  0  0  0  0  0
    5.7322  -11.7060   26.6184 C   0  0  0  0  0  0  0  0  0  0  0  0
    6.7372  -12.5696   25.9187 C   0  0  0  0  0  0  0  0  0  0  0  0
    7.3831  -13.4866   26.9344 C   0  0  2  0  0  0  0  0  0  0  0  0
    8.2012  -12.7357   27.9416 C   0  0  0  0  0  0  0  0  0  0  0  0
    8.2590  -14.5250   26.2627 C   0  0  2  0  0  0  0  0  0  0  0  0
    7.5479  -15.1917   25.1878 N   0  0  0  0  0  0  0  0  0  0  0  0
    8.6859  -15.5453   27.2353 C   0  0  0  0  0  0  0  0  0  0  0  0
    8.0291  -16.5994   27.3652 O   0  0  0  0  0  0  0  0  0  0  0  0
    9.8022  -15.3396   27.9971 O   0  0  0  0  0  0  0  0  0  0  0  0
  2  1  1  0
  3  2  1  0
  4  3  1  0
  4  5  1  0
  5  1  1  0
  5  6  1  1
  6  8  1  0
  7  6  2  0
  9  8  1  0
  9 12  1  0
  9 10  1  6
 11 10  1  0
 12 19  1  0
 13 12  2  0
 15 14  1  0
 16 17  1  1
 16 15  1  0
 18 16  1  0
 18 19  1  6
 20 18  1  0
 20 22  1  0
 21 20  2  0
M  END
$$$$
