PCI.pdb
     RDKit          3D

 22 22  0  0  1  0  0  0  0  0999 V2000
    7.7503  -14.8576   18.1768 N   0  0  0  0  0  0  0  0  0  0  0  0
    7.6705  -13.8137   17.1964 C   0  0  0  0  0  0  0  0  0  0  0  0
    8.1804  -12.5483   17.8363 C   0  0  0  0  0  0  0  0  0  0  0  0
    8.0630  -12.8714   19.3122 C   0  0  0  0  0  0  0  0  0  0  0  0
    8.4422  -14.3323   19.3223 C   0  0  1  0  0  0  0  0  0  0  0  0
    7.9592  -15.0364   20.5291 C   0  0  0  0  0  0  0  0  0  0  0  0
    6.7269  -15.1190   20.7405 O   0  0  0  0  0  0  0  0  0  0  0  0
    8.8362  -15.6357   21.4798 N   0  0  0  0  0  0  0  0  0  0  0  0
    8.3845  -16.2042   22.7268 C   0  0  1  0  0  0  0  0  0  0  0  0
    9.0202  -17.5983   22.8156 C   0  0  0  0  0  0  0  0  0  0  0  0
    8.7406  -18.2978   24.4638 S   0  0  0  0  0  0  0  0  0  0  0  0
    8.9192  -15.4469   23.8973 C   0  0  0  0  0  0  0  0  0  0  0  0
   10.1056  -15.0324   23.8946 O   0  0  0  0  0  0  0  0  0  0  0  0
    5.7608  -12.0826   26.6928 C   0  0  0  0  0  0  0  0  0  0  0  0
    6.9095  -12.7351   25.9855 C   0  0  0  0  0  0  0  0  0  0  0  0
    7.5672  -13.7190   26.9284 C   0  0  2  0  0  0  0  0  0  0  0  0
    8.1614  -13.0473   28.1298 C   0  0  0  0  0  0  0  0  0  0  0  0
    8.6456  -14.5199   26.2269 C   0  0  2  0  0  0  0  0  0  0  0  0
    8.1241  -15.1696   25.0388 N   0  0  0  0  0  0  0  0  0  0  0  0
    9.1805  -15.5589   27.1233 C   0  0  0  0  0  0  0  0  0  0  0  0
    8.5797  -16.6465   27.2490 O   0  0  0  0  0  0  0  0  0  0  0  0
   10.3355  -15.3339   27.8189 O   0  0  0  0  0  0  0  0  0  0  0  0
  2  1  1  0
  3  2  1  0
  4  3  1  0
  4  5  1  0
  5  1  1  0
  5  6  1  1
  6  8  1  0
  7  6  2  0
  9  8  1  0
  9 12  1  0
  9 10  1  1
 11 10  1  0
 12 19  1  0
 13 12  2  0
 15 14  1  0
 16 17  1  1
 16 15  1  0
 18 16  1  0
 18 19  1  6
 20 18  1  0
 20 22  1  0
 21 20  2  0
M  END
$$$$
