PCI.pdb
     RDKit          3D

 22 22  0  0  1  0  0  0  0  0999 V2000
    8.5681  -15.0487   18.9096 N   0  0  0  0  0  0  0  0  0  0  0  0
    8.3819  -14.6749   17.5374 C   0  0  0  0  0  0  0  0  0  0  0  0
    7.9006  -13.2471   17.5159 C   0  0  0  0  0  0  0  0  0  0  0  0
    7.3828  -13.0672   18.9287 C   0  0  0  0  0  0  0  0  0  0  0  0
    8.3912  -13.8703   19.7137 C   0  0  1  0  0  0  0  0  0  0  0  0
    7.8843  -14.2767   21.0416 C   0  0  0  0  0  0  0  0  0  0  0  0
    7.6508  -13.3994   21.9052 O   0  0  0  0  0  0  0  0  0  0  0  0
    7.6435  -15.6363   21.3963 N   0  0  0  0  0  0  0  0  0  0  0  0
    7.1739  -16.0446   22.6982 C   0  0  1  0  0  0  0  0  0  0  0  0
    7.2203  -17.5786   22.7070 C   0  0  0  0  0  0  0  0  0  0  0  0
    8.9279  -18.1435   22.4862 S   0  0  0  0  0  0  0  0  0  0  0  0
    8.1107  -15.6111   23.7770 C   0  0  0  0  0  0  0  0  0  0  0  0
    9.3261  -15.4203   23.5209 O   0  0  0  0  0  0  0  0  0  0  0  0
    6.1341  -11.7421   26.5318 C   0  0  0  0  0  0  0  0  0  0  0  0
    7.0900  -12.6446   25.8128 C   0  0  0  0  0  0  0  0  0  0  0  0
    7.6642  -13.6345   26.8027 C   0  0  2  0  0  0  0  0  0  0  0  0
    8.5225  -12.9725   27.8385 C   0  0  0  0  0  0  0  0  0  0  0  0
    8.4738  -14.7082   26.1038 C   0  0  2  0  0  0  0  0  0  0  0  0
    7.6747  -15.4011   25.1104 N   0  0  0  0  0  0  0  0  0  0  0  0
    8.9615  -15.7005   27.0769 C   0  0  0  0  0  0  0  0  0  0  0  0
    8.3126  -16.7477   27.2811 O   0  0  0  0  0  0  0  0  0  0  0  0
   10.1254  -15.4761   27.7578 O   0  0  0  0  0  0  0  0  0  0  0  0
  2  1  1  0
  3  2  1  0
  4  3  1  0
  4  5  1  0
  5  1  1  0
  5  6  1  1
  6  8  1  0
  7  6  2  0
  9  8  1  0
  9 12  1  0
  9 10  1  6
 11 10  1  0
 12 19  1  0
 13 12  2  0
 15 14  1  0
 16 17  1  1
 16 15  1  0
 18 16  1  0
 18 19  1  6
 20 18  1  0
 20 22  1  0
 21 20  2  0
M  END
$$$$
