PCI.pdb
     RDKit          3D

 22 22  0  0  1  0  0  0  0  0999 V2000
    7.3421  -15.0169   20.2733 N   0  0  0  0  0  0  0  0  0  0  0  0
    6.8517  -14.6274   18.9829 C   0  0  0  0  0  0  0  0  0  0  0  0
    7.6602  -13.4399   18.5281 C   0  0  0  0  0  0  0  0  0  0  0  0
    8.2452  -12.9380   19.8328 C   0  0  0  0  0  0  0  0  0  0  0  0
    8.5183  -14.2378   20.5496 C   0  0  1  0  0  0  0  0  0  0  0  0
    8.6372  -14.0656   22.0130 C   0  0  0  0  0  0  0  0  0  0  0  0
    9.7287  -13.6905   22.5010 O   0  0  0  0  0  0  0  0  0  0  0  0
    7.5579  -14.3079   22.9122 N   0  0  0  0  0  0  0  0  0  0  0  0
    7.6363  -14.0562   24.3308 C   0  0  1  0  0  0  0  0  0  0  0  0
    6.1916  -14.0763   24.8485 C   0  0  0  0  0  0  0  0  0  0  0  0
    6.1502  -13.5347   26.5773 S   0  0  0  0  0  0  0  0  0  0  0  0
    8.3312  -15.1682   25.0449 C   0  0  0  0  0  0  0  0  0  0  0  0
    8.1373  -16.3609   24.6996 O   0  0  0  0  0  0  0  0  0  0  0  0
   10.9623  -14.2434   30.0050 C   0  0  0  0  0  0  0  0  0  0  0  0
   10.0429  -14.8136   28.9681 C   0  0  0  0  0  0  0  0  0  0  0  0
   10.8749  -15.4178   27.8580 C   0  0  2  0  0  0  0  0  0  0  0  0
   11.8379  -14.4327   27.2664 C   0  0  0  0  0  0  0  0  0  0  0  0
   10.0003  -15.9770   26.7540 C   0  0  2  0  0  0  0  0  0  0  0  0
    9.2221  -14.9279   26.1222 N   0  0  0  0  0  0  0  0  0  0  0  0
    9.0677  -16.9807   27.2946 C   0  0  0  0  0  0  0  0  0  0  0  0
    7.8460  -16.7301   27.3566 O   0  0  0  0  0  0  0  0  0  0  0  0
    9.5388  -18.1882   27.7291 O   0  0  0  0  0  0  0  0  0  0  0  0
  2  1  1  0
  3  2  1  0
  4  3  1  0
  4  5  1  0
  5  1  1  0
  5  6  1  1
  6  8  1  0
  7  6  2  0
  9  8  1  0
  9 12  1  0
  9 10  1  1
 11 10  1  0
 12 19  1  0
 13 12  2  0
 15 14  1  0
 16 17  1  6
 16 15  1  0
 18 16  1  0
 18 19  1  1
 20 18  1  0
 20 22  1  0
 21 20  2  0
M  END
$$$$
