YTV.pdb
     RDKit          3D

 27 27  0  0  1  0  0  0  0  0999 V2000
   22.0793  -20.9753   -7.6669 O   0  0  0  0  0  0  0  0  0  0  0  0
   22.9871  -20.7593   -8.6915 C   0  0  0  0  0  0  0  0  0  0  0  0
   24.3299  -20.6716   -8.3939 C   0  0  0  0  0  0  0  0  0  0  0  0
   25.2606  -20.4548   -9.4084 C   0  0  0  0  0  0  0  0  0  0  0  0
   24.8098  -20.3306  -10.7115 C   0  0  0  0  0  0  0  0  0  0  0  0
   25.7616  -20.1023  -11.8009 C   0  0  0  0  0  0  0  0  0  0  0  0
   25.6958  -21.1988  -12.8399 C   0  0  2  0  0  0  0  0  0  0  0  0
   26.2031  -22.4060  -12.2107 N   0  0  0  0  0  0  0  0  0  0  0  0
   26.5593  -20.8897  -13.9974 C   0  0  0  0  0  0  0  0  0  0  0  0
   27.7877  -20.7439  -13.8168 O   0  0  0  0  0  0  0  0  0  0  0  0
   23.4617  -20.4221  -10.9838 C   0  0  0  0  0  0  0  0  0  0  0  0
   22.5142  -20.6381   -9.9879 C   0  0  0  0  0  0  0  0  0  0  0  0
   28.0293  -22.7238  -16.1189 C   0  0  0  0  0  0  0  0  0  0  0  0
   27.2022  -21.8490  -17.0661 C   0  0  1  0  0  0  0  0  0  0  0  0
   26.0306  -22.5324  -17.3219 O   0  0  0  0  0  0  0  0  0  0  0  0
   26.9260  -20.4997  -16.3911 C   0  0  2  0  0  0  0  0  0  0  0  0
   26.0385  -20.7537  -15.3034 N   0  0  0  0  0  0  0  0  0  0  0  0
   26.3255  -19.6372  -17.4395 C   0  0  0  0  0  0  0  0  0  0  0  0
   25.0776  -19.4938  -17.4391 O   0  0  0  0  0  0  0  0  0  0  0  0
   26.7773  -16.0727  -20.7849 C   0  0  0  0  0  0  0  0  0  0  0  0
   27.3886  -16.9409  -19.7283 C   0  0  2  0  0  0  0  0  0  0  0  0
   28.8225  -17.3027  -20.0035 C   0  0  0  0  0  0  0  0  0  0  0  0
   26.5212  -18.1342  -19.4614 C   0  0  2  0  0  0  0  0  0  0  0  0
   27.0933  -18.9769  -18.4291 N   0  0  0  0  0  0  0  0  0  0  0  0
   26.4673  -18.9235  -20.7429 C   0  0  0  0  0  0  0  0  0  0  0  0
   25.5679  -18.5756  -21.7451 O   0  0  0  0  0  0  0  0  0  0  0  0
   27.2123  -19.8987  -20.9488 O   0  0  0  0  0  0  0  0  0  0  0  0
  2 12  2  0
  2  1  1  0
  3  2  1  0
  4  5  1  0
  4  3  2  0
  5 11  2  0
  6  5  1  0
  7  6  1  0
  7  8  1  1
  9  7  1  0
  9 10  2  0
 11 12  1  0
 14 13  1  1
 14 15  1  0
 14 16  1  0
 16 17  1  1
 17  9  1  0
 18 16  1  0
 19 18  2  0
 21 20  1  6
 22 21  1  0
 23 24  1  1
 23 21  1  0
 24 18  1  0
 25 23  1  0
 26 25  1  0
 27 25  2  0
M  END
$$$$
