YTV.pdb
     RDKit          3D

 27 27  0  0  1  0  0  0  0  0999 V2000
   19.5747  -18.3690  -15.2111 O   0  0  0  0  0  0  0  0  0  0  0  0
   19.9428  -17.0755  -15.5462 C   0  0  0  0  0  0  0  0  0  0  0  0
   21.0052  -16.8780  -16.4015 C   0  0  0  0  0  0  0  0  0  0  0  0
   21.3928  -15.5860  -16.7521 C   0  0  0  0  0  0  0  0  0  0  0  0
   20.6923  -14.5138  -16.2262 C   0  0  0  0  0  0  0  0  0  0  0  0
   21.0738  -13.1435  -16.5744 C   0  0  0  0  0  0  0  0  0  0  0  0
   20.1263  -12.5393  -17.5861 C   0  0  2  0  0  0  0  0  0  0  0  0
   20.3885  -13.1977  -18.8543 N   0  0  0  0  0  0  0  0  0  0  0  0
   20.3814  -11.0950  -17.7600 C   0  0  0  0  0  0  0  0  0  0  0  0
   21.1065  -10.7161  -18.7053 O   0  0  0  0  0  0  0  0  0  0  0  0
   19.6332  -14.7373  -15.3727 C   0  0  0  0  0  0  0  0  0  0  0  0
   19.2281  -16.0176  -15.0085 C   0  0  0  0  0  0  0  0  0  0  0  0
   18.9171   -8.7656  -19.3386 C   0  0  0  0  0  0  0  0  0  0  0  0
   18.8790   -8.2033  -17.9142 C   0  0  1  0  0  0  0  0  0  0  0  0
   17.6859   -8.6125  -17.3538 O   0  0  0  0  0  0  0  0  0  0  0  0
   20.0800   -8.7442  -17.1284 C   0  0  2  0  0  0  0  0  0  0  0  0
   19.8304  -10.1285  -16.8898 N   0  0  0  0  0  0  0  0  0  0  0  0
   20.1420   -7.9431  -15.8802 C   0  0  0  0  0  0  0  0  0  0  0  0
   19.5231   -8.3724  -14.8748 O   0  0  0  0  0  0  0  0  0  0  0  0
   22.1796   -4.1638  -13.3760 C   0  0  0  0  0  0  0  0  0  0  0  0
   22.1176   -4.9944  -14.6210 C   0  0  2  0  0  0  0  0  0  0  0  0
   22.1291   -4.1815  -15.8867 C   0  0  0  0  0  0  0  0  0  0  0  0
   20.9733   -5.9605  -14.5522 C   0  0  2  0  0  0  0  0  0  0  0  0
   20.8620   -6.7284  -15.7774 N   0  0  0  0  0  0  0  0  0  0  0  0
   19.7225   -5.1369  -14.3929 C   0  0  0  0  0  0  0  0  0  0  0  0
   19.3066   -4.7278  -13.1303 O   0  0  0  0  0  0  0  0  0  0  0  0
   19.0272   -4.7979  -15.3676 O   0  0  0  0  0  0  0  0  0  0  0  0
  2 12  2  0
  2  1  1  0
  3  2  1  0
  4  5  1  0
  4  3  2  0
  5 11  2  0
  6  5  1  0
  7  6  1  0
  7  8  1  6
  9  7  1  0
  9 10  2  0
 11 12  1  0
 14 13  1  6
 14 15  1  0
 14 16  1  0
 16 17  1  1
 17  9  1  0
 18 16  1  0
 19 18  2  0
 21 20  1  1
 22 21  1  0
 23 24  1  6
 23 21  1  0
 24 18  1  0
 25 23  1  0
 26 25  1  0
 27 25  2  0
M  END
$$$$
