YTV.pdb
     RDKit          3D

 27 27  0  0  1  0  0  0  0  0999 V2000
   27.8701  -20.2031   -6.2552 O   0  0  0  0  0  0  0  0  0  0  0  0
   27.4704  -20.1769   -7.5820 C   0  0  0  0  0  0  0  0  0  0  0  0
   28.4270  -20.1989   -8.5738 C   0  0  0  0  0  0  0  0  0  0  0  0
   28.0479  -20.1731   -9.9148 C   0  0  0  0  0  0  0  0  0  0  0  0
   26.6997  -20.1253  -10.2258 C   0  0  0  0  0  0  0  0  0  0  0  0
   26.2677  -20.0973  -11.6248 C   0  0  0  0  0  0  0  0  0  0  0  0
   25.9590  -21.4839  -12.1426 C   0  0  2  0  0  0  0  0  0  0  0  0
   27.2282  -22.0894  -12.5075 N   0  0  0  0  0  0  0  0  0  0  0  0
   25.1158  -21.4258  -13.3538 C   0  0  0  0  0  0  0  0  0  0  0  0
   25.6625  -21.2701  -14.4672 O   0  0  0  0  0  0  0  0  0  0  0  0
   25.7619  -20.1041   -9.2157 C   0  0  0  0  0  0  0  0  0  0  0  0
   26.1164  -20.1291   -7.8704 C   0  0  0  0  0  0  0  0  0  0  0  0
   21.7081  -23.2700  -15.9185 C   0  0  0  0  0  0  0  0  0  0  0  0
   22.6364  -23.1225  -14.7090 C   0  0  1  0  0  0  0  0  0  0  0  0
   23.7762  -23.8494  -14.9878 O   0  0  0  0  0  0  0  0  0  0  0  0
   22.9580  -21.6374  -14.5006 C   0  0  2  0  0  0  0  0  0  0  0  0
   23.7094  -21.5410  -13.2917 N   0  0  0  0  0  0  0  0  0  0  0  0
   21.6469  -20.9453  -14.4246 C   0  0  0  0  0  0  0  0  0  0  0  0
   20.9943  -21.0383  -13.3553 O   0  0  0  0  0  0  0  0  0  0  0  0
   18.1095  -18.3286  -16.7508 C   0  0  0  0  0  0  0  0  0  0  0  0
   19.5248  -18.8191  -16.7317 C   0  0  2  0  0  0  0  0  0  0  0  0
   19.9019  -19.6134  -17.9522 C   0  0  0  0  0  0  0  0  0  0  0  0
   19.8148  -19.5381  -15.4486 C   0  0  2  0  0  0  0  0  0  0  0  0
   21.1078  -20.1931  -15.4961 N   0  0  0  0  0  0  0  0  0  0  0  0
   18.7525  -20.5949  -15.2967 C   0  0  0  0  0  0  0  0  0  0  0  0
   18.8239  -21.7736  -16.0314 O   0  0  0  0  0  0  0  0  0  0  0  0
   17.7888  -20.4549  -14.5221 O   0  0  0  0  0  0  0  0  0  0  0  0
  2 12  2  0
  2  1  1  0
  3  2  1  0
  4  5  1  0
  4  3  2  0
  5 11  2  0
  6  5  1  0
  7  6  1  0
  7  8  1  6
  9  7  1  0
  9 10  2  0
 11 12  1  0
 14 13  1  6
 14 15  1  0
 14 16  1  0
 16 17  1  1
 17  9  1  0
 18 16  1  0
 19 18  2  0
 21 20  1  6
 22 21  1  0
 23 24  1  6
 23 21  1  0
 24 18  1  0
 25 23  1  0
 26 25  1  0
 27 25  2  0
M  END
$$$$
