YTV.pdb
     RDKit          3D

 27 27  0  0  1  0  0  0  0  0999 V2000
   13.9755  -14.5729  -20.3804 O   0  0  0  0  0  0  0  0  0  0  0  0
   14.9975  -13.8842  -19.7464 C   0  0  0  0  0  0  0  0  0  0  0  0
   15.4595  -12.7083  -20.2968 C   0  0  0  0  0  0  0  0  0  0  0  0
   16.4865  -11.9992  -19.6764 C   0  0  0  0  0  0  0  0  0  0  0  0
   17.0280  -12.4985  -18.5041 C   0  0  0  0  0  0  0  0  0  0  0  0
   18.1082  -11.7779  -17.8270 C   0  0  0  0  0  0  0  0  0  0  0  0
   19.3632  -11.7316  -18.6690 C   0  0  2  0  0  0  0  0  0  0  0  0
   19.9959  -13.0343  -18.5536 N   0  0  0  0  0  0  0  0  0  0  0  0
   20.3095  -10.7178  -18.1612 C   0  0  0  0  0  0  0  0  0  0  0  0
   21.2800  -11.0877  -17.4654 O   0  0  0  0  0  0  0  0  0  0  0  0
   16.5487  -13.6768  -17.9732 C   0  0  0  0  0  0  0  0  0  0  0  0
   15.5246  -14.4019  -18.5746 C   0  0  0  0  0  0  0  0  0  0  0  0
   22.0866   -6.1540  -18.4163 C   0  0  0  0  0  0  0  0  0  0  0  0
   21.0998   -7.2132  -18.9170 C   0  0  1  0  0  0  0  0  0  0  0  0
   21.5090   -7.5744  -20.1848 O   0  0  0  0  0  0  0  0  0  0  0  0
   21.1214   -8.4119  -17.9604 C   0  0  2  0  0  0  0  0  0  0  0  0
   20.1507   -9.3418  -18.4384 N   0  0  0  0  0  0  0  0  0  0  0  0
   20.7907   -7.8669  -16.6198 C   0  0  0  0  0  0  0  0  0  0  0  0
   19.6928   -7.2724  -16.4815 O   0  0  0  0  0  0  0  0  0  0  0  0
   23.2102   -8.6801  -13.1306 C   0  0  0  0  0  0  0  0  0  0  0  0
   21.7292   -8.4561  -13.1165 C   0  0  2  0  0  0  0  0  0  0  0  0
   20.9288   -9.7291  -13.1565 C   0  0  0  0  0  0  0  0  0  0  0  0
   21.3350   -7.4790  -14.1829 C   0  0  2  0  0  0  0  0  0  0  0  0
   21.6525   -7.9884  -15.5031 N   0  0  0  0  0  0  0  0  0  0  0  0
   22.1466   -6.2324  -13.9471 C   0  0  0  0  0  0  0  0  0  0  0  0
   21.8138   -5.3622  -12.9145 O   0  0  0  0  0  0  0  0  0  0  0  0
   23.1274   -5.9401  -14.6549 O   0  0  0  0  0  0  0  0  0  0  0  0
  2 12  2  0
  2  1  1  0
  3  2  1  0
  4  5  1  0
  4  3  2  0
  5 11  2  0
  6  5  1  0
  7  6  1  0
  7  8  1  1
  9  7  1  0
  9 10  2  0
 11 12  1  0
 14 13  1  1
 14 15  1  0
 14 16  1  0
 16 17  1  6
 17  9  1  0
 18 16  1  0
 19 18  2  0
 21 20  1  6
 22 21  1  0
 23 24  1  6
 23 21  1  0
 24 18  1  0
 25 23  1  0
 26 25  1  0
 27 25  2  0
M  END
$$$$
