WAL.pdb
     RDKit          3D

 28 29  0  0  1  0  0  0  0  0999 V2000
   26.5427  -18.9948  -13.8850 N   0  0  0  0  0  0  0  0  0  0  0  0
   27.3305  -20.1993  -14.1203 C   0  0  1  0  0  0  0  0  0  0  0  0
   26.8493  -21.3545  -13.3098 C   0  0  0  0  0  0  0  0  0  0  0  0
   26.7566  -21.1177  -11.8688 C   0  0  0  0  0  0  0  0  0  0  0  0
   25.6754  -20.9958  -11.0243 C   0  0  0  0  0  0  0  0  0  0  0  0
   26.1144  -20.7801   -9.7797 N   0  0  0  0  0  0  0  0  0  0  0  0
   27.4535  -20.7558   -9.7768 C   0  0  0  0  0  0  0  0  0  0  0  0
   28.3726  -20.5698   -8.7604 C   0  0  0  0  0  0  0  0  0  0  0  0
   29.7083  -20.5915   -9.0313 C   0  0  0  0  0  0  0  0  0  0  0  0
   30.1659  -20.8004  -10.3306 C   0  0  0  0  0  0  0  0  0  0  0  0
   29.2293  -20.9799  -11.3058 C   0  0  0  0  0  0  0  0  0  0  0  0
   27.8640  -20.9628  -11.0593 C   0  0  0  0  0  0  0  0  0  0  0  0
   27.4119  -20.4422  -15.5626 C   0  0  0  0  0  0  0  0  0  0  0  0
   26.4705  -20.1138  -16.3262 O   0  0  0  0  0  0  0  0  0  0  0  0
   30.2600  -21.3738  -17.8570 C   0  0  0  0  0  0  0  0  0  0  0  0
   28.7845  -21.2568  -17.5224 C   0  0  2  0  0  0  0  0  0  0  0  0
   28.5691  -21.0575  -16.1130 N   0  0  0  0  0  0  0  0  0  0  0  0
   28.0250  -22.4448  -17.9719 C   0  0  0  0  0  0  0  0  0  0  0  0
   27.9686  -22.7141  -19.2020 O   0  0  0  0  0  0  0  0  0  0  0  0
   28.5743  -27.4982  -16.3815 C   0  0  0  0  0  0  0  0  0  0  0  0
   28.2316  -26.3107  -17.2690 C   0  0  1  0  0  0  0  0  0  0  0  0
   27.9497  -26.7931  -18.6805 C   0  0  0  0  0  0  0  0  0  0  0  0
   26.9851  -25.6772  -16.7282 C   0  0  0  0  0  0  0  0  0  0  0  0
   26.5528  -24.4366  -17.4372 C   0  0  2  0  0  0  0  0  0  0  0  0
   27.3589  -23.2882  -17.0539 N   0  0  0  0  0  0  0  0  0  0  0  0
   25.1167  -24.1321  -17.3529 C   0  0  0  0  0  0  0  0  0  0  0  0
   24.1491  -24.6524  -18.1937 O   0  0  0  0  0  0  0  0  0  0  0  0
   24.6629  -23.3341  -16.4593 O   0  0  0  0  0  0  0  0  0  0  0  0
  2  1  1  6
  2 13  1  0
  2  3  1  0
  4  3  1  0
  4  5  2  0
  6  5  1  0
  7  6  1  0
  8  7  2  0
  9  8  1  0
 10  9  2  0
 10 11  1  0
 11 12  2  0
 12  7  1  0
 12  4  1  0
 13 17  1  0
 14 13  2  0
 16 15  1  1
 17 16  1  0
 18 19  2  0
 18 16  1  0
 21 20  1  1
 21 23  1  0
 21 22  1  0
 24 25  1  0
 24 23  1  1
 25 18  1  0
 26 24  1  0
 27 26  1  0
 28 26  2  0
M  END
$$$$
