WAL.pdb
     RDKit          3D

 28 29  0  0  1  0  0  0  0  0999 V2000
   25.7902  -20.6959  -16.0595 N   0  0  0  0  0  0  0  0  0  0  0  0
   25.0304  -21.0157  -14.8564 C   0  0  1  0  0  0  0  0  0  0  0  0
   25.1379  -19.9477  -13.8216 C   0  0  0  0  0  0  0  0  0  0  0  0
   26.4990  -19.5190  -13.4981 C   0  0  0  0  0  0  0  0  0  0  0  0
   27.2465  -18.4392  -13.9132 C   0  0  0  0  0  0  0  0  0  0  0  0
   28.4488  -18.4891  -13.3299 N   0  0  0  0  0  0  0  0  0  0  0  0
   28.5179  -19.5697  -12.5418 C   0  0  0  0  0  0  0  0  0  0  0  0
   29.5275  -20.0630  -11.7357 C   0  0  0  0  0  0  0  0  0  0  0  0
   29.3367  -21.2078  -11.0209 C   0  0  0  0  0  0  0  0  0  0  0  0
   28.1269  -21.8954  -11.0912 C   0  0  0  0  0  0  0  0  0  0  0  0
   27.1555  -21.3778  -11.8969 C   0  0  0  0  0  0  0  0  0  0  0  0
   27.3217  -20.2151  -12.6354 C   0  0  0  0  0  0  0  0  0  0  0  0
   23.6631  -21.3774  -15.2376 C   0  0  0  0  0  0  0  0  0  0  0  0
   22.9375  -20.5748  -15.8752 O   0  0  0  0  0  0  0  0  0  0  0  0
   21.7067  -24.6193  -15.1467 C   0  0  0  0  0  0  0  0  0  0  0  0
   21.8212  -23.1083  -15.2270 C   0  0  2  0  0  0  0  0  0  0  0  0
   23.1431  -22.6525  -14.8846 N   0  0  0  0  0  0  0  0  0  0  0  0
   20.8298  -22.4369  -14.3571 C   0  0  0  0  0  0  0  0  0  0  0  0
   21.0825  -22.2882  -13.1312 O   0  0  0  0  0  0  0  0  0  0  0  0
   17.3184  -17.7322  -14.0271 C   0  0  0  0  0  0  0  0  0  0  0  0
   17.2569  -19.2130  -13.6827 C   0  0  1  0  0  0  0  0  0  0  0  0
   15.9283  -19.7881  -14.1394 C   0  0  0  0  0  0  0  0  0  0  0  0
   18.3546  -19.9055  -14.4329 C   0  0  0  0  0  0  0  0  0  0  0  0
   18.5685  -21.3341  -14.0559 C   0  0  2  0  0  0  0  0  0  0  0  0
   19.6024  -21.9565  -14.8677 N   0  0  0  0  0  0  0  0  0  0  0  0
   17.3540  -22.1618  -14.0127 C   0  0  0  0  0  0  0  0  0  0  0  0
   16.5859  -22.3775  -12.8824 O   0  0  0  0  0  0  0  0  0  0  0  0
   16.9218  -22.7545  -15.0630 O   0  0  0  0  0  0  0  0  0  0  0  0
  2  1  1  6
  2 13  1  0
  2  3  1  0
  4  3  1  0
  4  5  2  0
  6  5  1  0
  7  6  1  0
  8  7  2  0
  9  8  1  0
 10  9  2  0
 10 11  1  0
 11 12  2  0
 12  7  1  0
 12  4  1  0
 13 17  1  0
 14 13  2  0
 16 15  1  1
 17 16  1  0
 18 19  2  0
 18 16  1  0
 21 20  1  6
 21 23  1  0
 21 22  1  0
 24 25  1  0
 24 23  1  6
 25 18  1  0
 26 24  1  0
 27 26  1  0
 28 26  2  0
M  END
$$$$
