WAL.pdb
     RDKit          3D

 28 29  0  0  1  0  0  0  0  0999 V2000
   26.6339  -22.8224  -15.7222 N   0  0  0  0  0  0  0  0  0  0  0  0
   25.5304  -22.8808  -14.7705 C   0  0  1  0  0  0  0  0  0  0  0  0
   25.2459  -24.2741  -14.3225 C   0  0  0  0  0  0  0  0  0  0  0  0
   24.7317  -25.1749  -15.3546 C   0  0  0  0  0  0  0  0  0  0  0  0
   25.2487  -26.3217  -15.9155 C   0  0  0  0  0  0  0  0  0  0  0  0
   24.3918  -26.7857  -16.8313 N   0  0  0  0  0  0  0  0  0  0  0  0
   23.3241  -25.9795  -16.8922 C   0  0  0  0  0  0  0  0  0  0  0  0
   22.1778  -26.0202  -17.6647 C   0  0  0  0  0  0  0  0  0  0  0  0
   21.2242  -25.0558  -17.5282 C   0  0  0  0  0  0  0  0  0  0  0  0
   21.3892  -24.0189  -16.6124 C   0  0  0  0  0  0  0  0  0  0  0  0
   22.5327  -24.0128  -15.8687 C   0  0  0  0  0  0  0  0  0  0  0  0
   23.5197  -24.9808  -15.9864 C   0  0  0  0  0  0  0  0  0  0  0  0
   25.7777  -21.9192  -13.6935 C   0  0  0  0  0  0  0  0  0  0  0  0
   26.9474  -21.5793  -13.3882 O   0  0  0  0  0  0  0  0  0  0  0  0
   23.4908  -19.6881  -11.6428 C   0  0  0  0  0  0  0  0  0  0  0  0
   24.8170  -20.3564  -11.9547 C   0  0  2  0  0  0  0  0  0  0  0  0
   24.6837  -21.3587  -12.9794 N   0  0  0  0  0  0  0  0  0  0  0  0
   25.4207  -20.9651  -10.7483 C   0  0  0  0  0  0  0  0  0  0  0  0
   25.3558  -22.2135  -10.5866 O   0  0  0  0  0  0  0  0  0  0  0  0
   28.9870  -20.3619   -8.3179 C   0  0  0  0  0  0  0  0  0  0  0  0
   28.1902  -19.9285   -7.0962 C   0  0  1  0  0  0  0  0  0  0  0  0
   28.8843  -18.7580   -6.4234 C   0  0  0  0  0  0  0  0  0  0  0  0
   26.8414  -19.4721   -7.5651 C   0  0  0  0  0  0  0  0  0  0  0  0
   26.0727  -20.4850   -8.3473 C   0  0  2  0  0  0  0  0  0  0  0  0
   26.0706  -20.1796   -9.7693 N   0  0  0  0  0  0  0  0  0  0  0  0
   24.7129  -20.7573   -7.8584 C   0  0  0  0  0  0  0  0  0  0  0  0
   23.5598  -20.2008   -8.3826 O   0  0  0  0  0  0  0  0  0  0  0  0
   24.5120  -21.5578   -6.8786 O   0  0  0  0  0  0  0  0  0  0  0  0
  2  1  1  6
  2 13  1  0
  2  3  1  0
  4  3  1  0
  4  5  2  0
  6  5  1  0
  7  6  1  0
  8  7  2  0
  9  8  1  0
 10  9  2  0
 10 11  1  0
 11 12  2  0
 12  7  1  0
 12  4  1  0
 13 17  1  0
 14 13  2  0
 16 15  1  1
 17 16  1  0
 18 19  2  0
 18 16  1  0
 21 20  1  6
 21 23  1  0
 21 22  1  0
 24 25  1  0
 24 23  1  1
 25 18  1  0
 26 24  1  0
 27 26  1  0
 28 26  2  0
M  END
$$$$
