WAL.pdb
     RDKit          3D

 28 29  0  0  1  0  0  0  0  0999 V2000
   25.9472  -19.0912   -9.2999 N   0  0  0  0  0  0  0  0  0  0  0  0
   27.1163  -19.9381   -9.5074 C   0  0  1  0  0  0  0  0  0  0  0  0
   27.5448  -20.6238   -8.2548 C   0  0  0  0  0  0  0  0  0  0  0  0
   27.6275  -19.7726   -7.0675 C   0  0  0  0  0  0  0  0  0  0  0  0
   26.9880  -18.6004   -6.7297 C   0  0  0  0  0  0  0  0  0  0  0  0
   27.4092  -18.2039   -5.5240 N   0  0  0  0  0  0  0  0  0  0  0  0
   28.3080  -19.0792   -5.0553 C   0  0  0  0  0  0  0  0  0  0  0  0
   29.0281  -19.1225   -3.8754 C   0  0  0  0  0  0  0  0  0  0  0  0
   29.8967  -20.1461   -3.6394 C   0  0  0  0  0  0  0  0  0  0  0  0
   30.0715  -21.1599   -4.5790 C   0  0  0  0  0  0  0  0  0  0  0  0
   29.3438  -21.0824   -5.7302 C   0  0  0  0  0  0  0  0  0  0  0  0
   28.4529  -20.0528   -5.9971 C   0  0  0  0  0  0  0  0  0  0  0  0
   26.8678  -20.8235  -10.6476 C   0  0  0  0  0  0  0  0  0  0  0  0
   27.4939  -21.9048  -10.7732 O   0  0  0  0  0  0  0  0  0  0  0  0
   25.3161  -22.6697  -12.5088 C   0  0  0  0  0  0  0  0  0  0  0  0
   25.6445  -21.2219  -12.8233 C   0  0  2  0  0  0  0  0  0  0  0  0
   25.9061  -20.4608  -11.6297 N   0  0  0  0  0  0  0  0  0  0  0  0
   24.5624  -20.5698  -13.5941 C   0  0  0  0  0  0  0  0  0  0  0  0
   24.8558  -19.8626  -14.5955 O   0  0  0  0  0  0  0  0  0  0  0  0
   21.9334  -21.9110  -17.3332 C   0  0  0  0  0  0  0  0  0  0  0  0
   21.4897  -22.6031  -16.0529 C   0  0  1  0  0  0  0  0  0  0  0  0
   21.4997  -24.1074  -16.2562 C   0  0  0  0  0  0  0  0  0  0  0  0
   22.4807  -22.2645  -14.9801 C   0  0  0  0  0  0  0  0  0  0  0  0
   22.1438  -21.0545  -14.1732 C   0  0  2  0  0  0  0  0  0  0  0  0
   23.2037  -20.7203  -13.2350 N   0  0  0  0  0  0  0  0  0  0  0  0
   20.8331  -21.0875  -13.5075 C   0  0  0  0  0  0  0  0  0  0  0  0
   20.4158  -20.1890  -12.5418 O   0  0  0  0  0  0  0  0  0  0  0  0
   19.9690  -21.9881  -13.7961 O   0  0  0  0  0  0  0  0  0  0  0  0
  2  1  1  1
  2 13  1  0
  2  3  1  0
  4  3  1  0
  4  5  2  0
  6  5  1  0
  7  6  1  0
  8  7  2  0
  9  8  1  0
 10  9  2  0
 10 11  1  0
 11 12  2  0
 12  7  1  0
 12  4  1  0
 13 17  1  0
 14 13  2  0
 16 15  1  1
 17 16  1  0
 18 19  2  0
 18 16  1  0
 21 20  1  6
 21 23  1  0
 21 22  1  0
 24 25  1  0
 24 23  1  1
 25 18  1  0
 26 24  1  0
 27 26  1  0
 28 26  2  0
M  END
$$$$
