WAL.pdb
     RDKit          3D

 28 29  0  0  1  0  0  0  0  0999 V2000
   27.3286  -22.0231  -11.3108 N   0  0  0  0  0  0  0  0  0  0  0  0
   26.1957  -21.2176  -10.8695 C   0  0  1  0  0  0  0  0  0  0  0  0
   26.5921  -20.1914   -9.8631 C   0  0  0  0  0  0  0  0  0  0  0  0
   27.7241  -20.5516   -9.0087 C   0  0  0  0  0  0  0  0  0  0  0  0
   28.8319  -21.3387   -9.2329 C   0  0  0  0  0  0  0  0  0  0  0  0
   29.5840  -21.3608   -8.1274 N   0  0  0  0  0  0  0  0  0  0  0  0
   29.0060  -20.6118   -7.1795 C   0  0  0  0  0  0  0  0  0  0  0  0
   29.3773  -20.3160   -5.8806 C   0  0  0  0  0  0  0  0  0  0  0  0
   28.5936  -19.5098   -5.1100 C   0  0  0  0  0  0  0  0  0  0  0  0
   27.4116  -18.9739   -5.6170 C   0  0  0  0  0  0  0  0  0  0  0  0
   27.0790  -19.2885   -6.9020 C   0  0  0  0  0  0  0  0  0  0  0  0
   27.8572  -20.1060   -7.7090 C   0  0  0  0  0  0  0  0  0  0  0  0
   25.4934  -20.6973  -12.0450 C   0  0  0  0  0  0  0  0  0  0  0  0
   25.9894  -19.7738  -12.7365 O   0  0  0  0  0  0  0  0  0  0  0  0
   23.6807  -21.7413  -14.7479 C   0  0  0  0  0  0  0  0  0  0  0  0
   23.4761  -20.8152  -13.5633 C   0  0  2  0  0  0  0  0  0  0  0  0
   24.2325  -21.2401  -12.4145 N   0  0  0  0  0  0  0  0  0  0  0  0
   22.0468  -20.7033  -13.1960 C   0  0  0  0  0  0  0  0  0  0  0  0
   21.1936  -20.4702  -14.0941 O   0  0  0  0  0  0  0  0  0  0  0  0
   19.8528  -23.5683   -8.9305 C   0  0  0  0  0  0  0  0  0  0  0  0
   20.2241  -22.9438  -10.2674 C   0  0  1  0  0  0  0  0  0  0  0  0
   19.3463  -23.5229  -11.3623 C   0  0  0  0  0  0  0  0  0  0  0  0
   19.9574  -21.4714  -10.1770 C   0  0  0  0  0  0  0  0  0  0  0  0
   20.2307  -20.7057  -11.4291 C   0  0  2  0  0  0  0  0  0  0  0  0
   21.6124  -20.8517  -11.8592 N   0  0  0  0  0  0  0  0  0  0  0  0
   19.8271  -19.2920  -11.4025 C   0  0  0  0  0  0  0  0  0  0  0  0
   18.5232  -18.8417  -11.5079 O   0  0  0  0  0  0  0  0  0  0  0  0
   20.6967  -18.3599  -11.2756 O   0  0  0  0  0  0  0  0  0  0  0  0
  2  1  1  6
  2 13  1  0
  2  3  1  0
  4  3  1  0
  4  5  2  0
  6  5  1  0
  7  6  1  0
  8  7  2  0
  9  8  1  0
 10  9  2  0
 10 11  1  0
 11 12  2  0
 12  7  1  0
 12  4  1  0
 13 17  1  0
 14 13  2  0
 16 15  1  6
 17 16  1  0
 18 19  2  0
 18 16  1  0
 21 20  1  1
 21 23  1  0
 21 22  1  0
 24 25  1  0
 24 23  1  1
 25 18  1  0
 26 24  1  0
 27 26  1  0
 28 26  2  0
M  END
$$$$
