WAL.pdb
     RDKit          3D

 28 29  0  0  1  0  0  0  0  0999 V2000
   27.5856  -21.0541  -12.8214 N   0  0  0  0  0  0  0  0  0  0  0  0
   26.4222  -21.5640  -12.1049 C   0  0  1  0  0  0  0  0  0  0  0  0
   26.3036  -20.9827  -10.7371 C   0  0  0  0  0  0  0  0  0  0  0  0
   27.5090  -21.0641   -9.9115 C   0  0  0  0  0  0  0  0  0  0  0  0
   28.7294  -21.6665  -10.1225 C   0  0  0  0  0  0  0  0  0  0  0  0
   29.5102  -21.4586   -9.0569 N   0  0  0  0  0  0  0  0  0  0  0  0
   28.8418  -20.7368   -8.1481 C   0  0  0  0  0  0  0  0  0  0  0  0
   29.1986  -20.2647   -6.8982 C   0  0  0  0  0  0  0  0  0  0  0  0
   28.3118  -19.5382   -6.1608 C   0  0  0  0  0  0  0  0  0  0  0  0
   27.0380  -19.2615   -6.6528 C   0  0  0  0  0  0  0  0  0  0  0  0
   26.7231  -19.7440   -7.8892 C   0  0  0  0  0  0  0  0  0  0  0  0
   27.6051  -20.4858   -8.6617 C   0  0  0  0  0  0  0  0  0  0  0  0
   25.2360  -21.4112  -12.9508 C   0  0  0  0  0  0  0  0  0  0  0  0
   24.7384  -20.2784  -13.1655 O   0  0  0  0  0  0  0  0  0  0  0  0
   23.2868  -23.7959  -15.1677 C   0  0  0  0  0  0  0  0  0  0  0  0
   23.4641  -22.5124  -14.3777 C   0  0  2  0  0  0  0  0  0  0  0  0
   24.6343  -22.5563  -13.5404 N   0  0  0  0  0  0  0  0  0  0  0  0
   22.2768  -22.2123  -13.5468 C   0  0  0  0  0  0  0  0  0  0  0  0
   22.1758  -22.7301  -12.4020 O   0  0  0  0  0  0  0  0  0  0  0  0
   20.1802  -17.2500  -12.8651 C   0  0  0  0  0  0  0  0  0  0  0  0
   20.6840  -18.6740  -12.6818 C   0  0  1  0  0  0  0  0  0  0  0  0
   20.7468  -19.0065  -11.2019 C   0  0  0  0  0  0  0  0  0  0  0  0
   19.6986  -19.5976  -13.3324 C   0  0  0  0  0  0  0  0  0  0  0  0
   20.0467  -21.0470  -13.2489 C   0  0  2  0  0  0  0  0  0  0  0  0
   21.2495  -21.3567  -14.0056 N   0  0  0  0  0  0  0  0  0  0  0  0
   18.9554  -21.9757  -13.5786 C   0  0  0  0  0  0  0  0  0  0  0  0
   17.8987  -22.2812  -12.7394 O   0  0  0  0  0  0  0  0  0  0  0  0
   18.9214  -22.5794  -14.7080 O   0  0  0  0  0  0  0  0  0  0  0  0
  2  1  1  6
  2 13  1  0
  2  3  1  0
  4  3  1  0
  4  5  2  0
  6  5  1  0
  7  6  1  0
  8  7  2  0
  9  8  1  0
 10  9  2  0
 10 11  1  0
 11 12  2  0
 12  7  1  0
 12  4  1  0
 13 17  1  0
 14 13  2  0
 16 15  1  1
 17 16  1  0
 18 19  2  0
 18 16  1  0
 21 20  1  1
 21 23  1  0
 21 22  1  0
 24 25  1  0
 24 23  1  6
 25 18  1  0
 26 24  1  0
 27 26  1  0
 28 26  2  0
M  END
$$$$
