PFN.pdb
     RDKit          3D

 27 28  0  0  1  0  0  0  0  0999 V2000
   26.8924  -18.6105  -15.1028 N   0  0  0  0  0  0  0  0  0  0  0  0
   28.0735  -17.9673  -15.7021 C   0  0  0  0  0  0  0  0  0  0  0  0
   29.2288  -18.8815  -15.4553 C   0  0  0  0  0  0  0  0  0  0  0  0
   28.6594  -19.9036  -14.4923 C   0  0  0  0  0  0  0  0  0  0  0  0
   27.2189  -19.9974  -15.0184 C   0  0  1  0  0  0  0  0  0  0  0  0
   26.4462  -20.7953  -14.0756 C   0  0  0  0  0  0  0  0  0  0  0  0
   26.5243  -22.0521  -14.1791 O   0  0  0  0  0  0  0  0  0  0  0  0
   25.6196  -20.2584  -13.0586 N   0  0  0  0  0  0  0  0  0  0  0  0
   24.9122  -21.1411  -12.1504 C   0  0  1  0  0  0  0  0  0  0  0  0
   25.2546  -20.8351  -10.7080 C   0  0  0  0  0  0  0  0  0  0  0  0
   26.6979  -20.8694  -10.4442 C   0  0  0  0  0  0  0  0  0  0  0  0
   27.3049  -19.9866   -9.5807 C   0  0  0  0  0  0  0  0  0  0  0  0
   28.6775  -20.0296   -9.3378 C   0  0  0  0  0  0  0  0  0  0  0  0
   29.4297  -20.9734   -9.9762 C   0  0  0  0  0  0  0  0  0  0  0  0
   28.8603  -21.8741  -10.8470 C   0  0  0  0  0  0  0  0  0  0  0  0
   27.4930  -21.8050  -11.0670 C   0  0  0  0  0  0  0  0  0  0  0  0
   23.4547  -21.1596  -12.3895 C   0  0  0  0  0  0  0  0  0  0  0  0
   22.7116  -21.2036  -11.3763 O   0  0  0  0  0  0  0  0  0  0  0  0
   22.7757  -17.8349  -15.5693 N   0  0  0  0  0  0  0  0  0  0  0  0
   21.8466  -18.4777  -14.6899 C   0  0  0  0  0  0  0  0  0  0  0  0
   21.5011  -17.8850  -13.6426 O   0  0  0  0  0  0  0  0  0  0  0  0
   21.3188  -19.8075  -15.0253 C   0  0  0  0  0  0  0  0  0  0  0  0
   21.4369  -20.7414  -13.8717 C   0  0  2  0  0  0  0  0  0  0  0  0
   22.8430  -21.1315  -13.6629 N   0  0  0  0  0  0  0  0  0  0  0  0
   20.7394  -22.0270  -14.1520 C   0  0  0  0  0  0  0  0  0  0  0  0
   21.2025  -22.9413  -15.0598 O   0  0  0  0  0  0  0  0  0  0  0  0
   19.6551  -22.3550  -13.5547 O   0  0  0  0  0  0  0  0  0  0  0  0
  1  5  1  0
  1  2  1  0
  2  3  1  0
  4  3  1  0
  5  4  1  0
  6  8  1  0
  5  6  1  1
  7  6  2  0
  9  8  1  0
 10 11  1  0
  9 10  1  1
 11 12  2  0
 11 16  1  0
 12 13  1  0
 13 14  2  0
 15 14  1  0
 16 15  2  0
 17 18  2  0
 17  9  1  0
 20 19  1  0
 20 22  1  0
 21 20  2  0
 23 22  1  6
 23 24  1  0
 24 17  1  0
 25 23  1  0
 26 25  1  0
 27 25  2  0
M  END
$$$$
