PFN.pdb
     RDKit          3D

 27 28  0  0  1  0  0  0  0  0999 V2000
   26.7037  -19.6065  -14.9318 N   0  0  0  0  0  0  0  0  0  0  0  0
   28.1363  -19.4001  -15.2016 C   0  0  0  0  0  0  0  0  0  0  0  0
   28.8647  -20.5051  -14.5089 C   0  0  0  0  0  0  0  0  0  0  0  0
   27.7859  -21.1520  -13.6640 C   0  0  0  0  0  0  0  0  0  0  0  0
   26.5769  -20.9884  -14.5979 C   0  0  1  0  0  0  0  0  0  0  0  0
   25.3820  -21.3762  -13.8599 C   0  0  0  0  0  0  0  0  0  0  0  0
   25.2157  -22.6078  -13.6316 O   0  0  0  0  0  0  0  0  0  0  0  0
   24.4025  -20.4701  -13.3854 N   0  0  0  0  0  0  0  0  0  0  0  0
   23.2790  -20.9521  -12.6044 C   0  0  1  0  0  0  0  0  0  0  0  0
   23.0351  -20.0765  -11.3938 C   0  0  0  0  0  0  0  0  0  0  0  0
   24.0250  -20.2840  -10.3304 C   0  0  0  0  0  0  0  0  0  0  0  0
   25.3553  -19.9752  -10.4989 C   0  0  0  0  0  0  0  0  0  0  0  0
   26.2864  -20.1765   -9.4804 C   0  0  0  0  0  0  0  0  0  0  0  0
   25.8595  -20.6926   -8.2908 C   0  0  0  0  0  0  0  0  0  0  0  0
   24.5377  -21.0142   -8.0828 C   0  0  0  0  0  0  0  0  0  0  0  0
   23.6368  -20.8022   -9.1154 C   0  0  0  0  0  0  0  0  0  0  0  0
   22.0586  -21.1425  -13.4144 C   0  0  0  0  0  0  0  0  0  0  0  0
   21.7365  -20.2055  -14.1884 O   0  0  0  0  0  0  0  0  0  0  0  0
   21.4234  -25.5668  -15.3436 N   0  0  0  0  0  0  0  0  0  0  0  0
   20.6731  -24.3661  -15.5565 C   0  0  0  0  0  0  0  0  0  0  0  0
   20.8078  -23.7573  -16.6421 O   0  0  0  0  0  0  0  0  0  0  0  0
   19.7672  -23.8720  -14.5102 C   0  0  0  0  0  0  0  0  0  0  0  0
   20.0243  -22.4370  -14.2076 C   0  0  2  0  0  0  0  0  0  0  0  0
   21.2363  -22.2910  -13.3813 N   0  0  0  0  0  0  0  0  0  0  0  0
   18.9372  -21.8659  -13.3650 C   0  0  0  0  0  0  0  0  0  0  0  0
   17.8443  -21.2314  -13.8915 O   0  0  0  0  0  0  0  0  0  0  0  0
   18.9621  -21.9355  -12.0865 O   0  0  0  0  0  0  0  0  0  0  0  0
  1  5  1  0
  1  2  1  0
  2  3  1  0
  4  3  1  0
  5  4  1  0
  6  8  1  0
  5  6  1  1
  7  6  2  0
  9  8  1  0
 10 11  1  0
  9 10  1  1
 11 12  2  0
 11 16  1  0
 12 13  1  0
 13 14  2  0
 15 14  1  0
 16 15  2  0
 17 18  2  0
 17  9  1  0
 20 19  1  0
 20 22  1  0
 21 20  2  0
 23 22  1  1
 23 24  1  0
 24 17  1  0
 25 23  1  0
 26 25  1  0
 27 25  2  0
M  END
$$$$
