PFN.pdb
     RDKit          3D

 27 28  0  0  1  0  0  0  0  0999 V2000
   28.2030  -20.9237  -17.6591 N   0  0  0  0  0  0  0  0  0  0  0  0
   29.2920  -21.1894  -18.6137 C   0  0  0  0  0  0  0  0  0  0  0  0
   29.9296  -22.4714  -18.1878 C   0  0  0  0  0  0  0  0  0  0  0  0
   29.2983  -22.7377  -16.8363 C   0  0  0  0  0  0  0  0  0  0  0  0
   27.8841  -22.1916  -17.0864 C   0  0  1  0  0  0  0  0  0  0  0  0
   27.1760  -22.1750  -15.8133 C   0  0  0  0  0  0  0  0  0  0  0  0
   26.7946  -23.2859  -15.3474 O   0  0  0  0  0  0  0  0  0  0  0  0
   26.8895  -21.0043  -15.0695 N   0  0  0  0  0  0  0  0  0  0  0  0
   26.1967  -21.0978  -13.7984 C   0  0  1  0  0  0  0  0  0  0  0  0
   26.9367  -20.3464  -12.7124 C   0  0  0  0  0  0  0  0  0  0  0  0
   26.2497  -20.3930  -11.4163 C   0  0  0  0  0  0  0  0  0  0  0  0
   25.4722  -19.3524  -10.9626 C   0  0  0  0  0  0  0  0  0  0  0  0
   24.8240  -19.4089   -9.7291 C   0  0  0  0  0  0  0  0  0  0  0  0
   24.9696  -20.5272   -8.9596 C   0  0  0  0  0  0  0  0  0  0  0  0
   25.7384  -21.5891   -9.3778 C   0  0  0  0  0  0  0  0  0  0  0  0
   26.3699  -21.5019  -10.6092 C   0  0  0  0  0  0  0  0  0  0  0  0
   24.7774  -20.6992  -13.8895 C   0  0  0  0  0  0  0  0  0  0  0  0
   24.5375  -19.5368  -14.3044 O   0  0  0  0  0  0  0  0  0  0  0  0
   21.9676  -21.6102  -16.2979 N   0  0  0  0  0  0  0  0  0  0  0  0
   21.3153  -22.4924  -15.3782 C   0  0  0  0  0  0  0  0  0  0  0  0
   20.6948  -23.4812  -15.8307 O   0  0  0  0  0  0  0  0  0  0  0  0
   21.3826  -22.2274  -13.9344 C   0  0  0  0  0  0  0  0  0  0  0  0
   22.2799  -21.0766  -13.6384 C   0  0  2  0  0  0  0  0  0  0  0  0
   23.6817  -21.5230  -13.5471 N   0  0  0  0  0  0  0  0  0  0  0  0
   21.9903  -20.5060  -12.2936 C   0  0  0  0  0  0  0  0  0  0  0  0
   22.0804  -21.2384  -11.1403 O   0  0  0  0  0  0  0  0  0  0  0  0
   21.6365  -19.2854  -12.1363 O   0  0  0  0  0  0  0  0  0  0  0  0
  1  5  1  0
  1  2  1  0
  2  3  1  0
  4  3  1  0
  5  4  1  0
  6  8  1  0
  5  6  1  1
  7  6  2  0
  9  8  1  0
 10 11  1  0
  9 10  1  1
 11 12  2  0
 11 16  1  0
 12 13  1  0
 13 14  2  0
 15 14  1  0
 16 15  2  0
 17 18  2  0
 17  9  1  0
 20 19  1  0
 20 22  1  0
 21 20  2  0
 23 22  1  1
 23 24  1  0
 24 17  1  0
 25 23  1  0
 26 25  1  0
 27 25  2  0
M  END
$$$$
