PFN.pdb
     RDKit          3D

 27 28  0  0  1  0  0  0  0  0999 V2000
   27.5471  -18.8614  -14.1669 N   0  0  0  0  0  0  0  0  0  0  0  0
   28.8587  -18.5971  -14.7817 C   0  0  0  0  0  0  0  0  0  0  0  0
   29.6013  -19.8932  -14.7768 C   0  0  0  0  0  0  0  0  0  0  0  0
   28.7310  -20.7856  -13.9152 C   0  0  0  0  0  0  0  0  0  0  0  0
   27.3393  -20.2664  -14.3081 C   0  0  1  0  0  0  0  0  0  0  0  0
   26.3626  -20.8763  -13.4157 C   0  0  0  0  0  0  0  0  0  0  0  0
   26.0259  -22.0707  -13.6538 O   0  0  0  0  0  0  0  0  0  0  0  0
   25.7704  -20.2231  -12.3073 N   0  0  0  0  0  0  0  0  0  0  0  0
   24.6570  -20.8358  -11.6078 C   0  0  1  0  0  0  0  0  0  0  0  0
   24.7559  -20.6117  -10.1139 C   0  0  0  0  0  0  0  0  0  0  0  0
   26.1342  -20.6873   -9.6153 C   0  0  0  0  0  0  0  0  0  0  0  0
   27.0964  -21.4492  -10.2373 C   0  0  0  0  0  0  0  0  0  0  0  0
   28.4030  -21.5126   -9.7541 C   0  0  0  0  0  0  0  0  0  0  0  0
   28.7269  -20.7983   -8.6365 C   0  0  0  0  0  0  0  0  0  0  0  0
   27.7934  -20.0245   -7.9858 C   0  0  0  0  0  0  0  0  0  0  0  0
   26.5029  -19.9827   -8.4914 C   0  0  0  0  0  0  0  0  0  0  0  0
   23.3455  -20.4277  -12.1509 C   0  0  0  0  0  0  0  0  0  0  0  0
   23.3236  -19.4008  -12.8759 O   0  0  0  0  0  0  0  0  0  0  0  0
   18.7733  -20.4230  -14.3526 N   0  0  0  0  0  0  0  0  0  0  0  0
   20.0735  -20.2606  -14.9296 C   0  0  0  0  0  0  0  0  0  0  0  0
   20.1602  -19.9590  -16.1416 O   0  0  0  0  0  0  0  0  0  0  0  0
   21.2724  -20.4483  -14.1009 C   0  0  0  0  0  0  0  0  0  0  0  0
   20.9127  -20.8751  -12.7205 C   0  0  2  0  0  0  0  0  0  0  0  0
   22.1266  -21.1026  -11.9158 N   0  0  0  0  0  0  0  0  0  0  0  0
   20.2291  -22.1982  -12.7318 C   0  0  0  0  0  0  0  0  0  0  0  0
   18.8684  -22.3324  -12.6630 O   0  0  0  0  0  0  0  0  0  0  0  0
   20.8809  -23.2980  -12.8067 O   0  0  0  0  0  0  0  0  0  0  0  0
  1  5  1  0
  1  2  1  0
  2  3  1  0
  4  3  1  0
  5  4  1  0
  6  8  1  0
  5  6  1  1
  7  6  2  0
  9  8  1  0
 10 11  1  0
  9 10  1  1
 11 12  2  0
 11 16  1  0
 12 13  1  0
 13 14  2  0
 15 14  1  0
 16 15  2  0
 17 18  2  0
 17  9  1  0
 20 19  1  0
 20 22  1  0
 21 20  2  0
 23 22  1  6
 23 24  1  0
 24 17  1  0
 25 23  1  0
 26 25  1  0
 27 25  2  0
M  END
$$$$
