PFN.pdb
     RDKit          3D

 27 28  0  0  1  0  0  0  0  0999 V2000
   27.5434  -18.8001  -14.4581 N   0  0  0  0  0  0  0  0  0  0  0  0
   28.7341  -18.2531  -15.1297 C   0  0  0  0  0  0  0  0  0  0  0  0
   29.6391  -19.4098  -15.4030 C   0  0  0  0  0  0  0  0  0  0  0  0
   28.9934  -20.5422  -14.6305 C   0  0  0  0  0  0  0  0  0  0  0  0
   27.5108  -20.1824  -14.8122 C   0  0  1  0  0  0  0  0  0  0  0  0
   26.7260  -21.0594  -13.9534 C   0  0  0  0  0  0  0  0  0  0  0  0
   26.3900  -22.1829  -14.4241 O   0  0  0  0  0  0  0  0  0  0  0  0
   26.3182  -20.7376  -12.6359 N   0  0  0  0  0  0  0  0  0  0  0  0
   25.2938  -21.5243  -11.9756 C   0  0  1  0  0  0  0  0  0  0  0  0
   25.8323  -22.1926  -10.7286 C   0  0  0  0  0  0  0  0  0  0  0  0
   26.4024  -21.2384   -9.7703 C   0  0  0  0  0  0  0  0  0  0  0  0
   27.7604  -21.0866   -9.6090 C   0  0  0  0  0  0  0  0  0  0  0  0
   28.2900  -20.1759   -8.6953 C   0  0  0  0  0  0  0  0  0  0  0  0
   27.4336  -19.4207   -7.9468 C   0  0  0  0  0  0  0  0  0  0  0  0
   26.0692  -19.5428   -8.0786 C   0  0  0  0  0  0  0  0  0  0  0  0
   25.5742  -20.4574   -8.9959 C   0  0  0  0  0  0  0  0  0  0  0  0
   24.0616  -20.7538  -11.7119 C   0  0  0  0  0  0  0  0  0  0  0  0
   24.2040  -19.5823  -11.2784 O   0  0  0  0  0  0  0  0  0  0  0  0
   20.9419  -20.1337  -16.1965 N   0  0  0  0  0  0  0  0  0  0  0  0
   21.3888  -19.5549  -14.9656 C   0  0  0  0  0  0  0  0  0  0  0  0
   20.9539  -18.4274  -14.6385 O   0  0  0  0  0  0  0  0  0  0  0  0
   22.3397  -20.2839  -14.1150 C   0  0  0  0  0  0  0  0  0  0  0  0
   21.7626  -20.5539  -12.7692 C   0  0  2  0  0  0  0  0  0  0  0  0
   22.7480  -21.2351  -11.9103 N   0  0  0  0  0  0  0  0  0  0  0  0
   20.6290  -21.5157  -12.8576 C   0  0  0  0  0  0  0  0  0  0  0  0
   19.3668  -21.2192  -12.4179 O   0  0  0  0  0  0  0  0  0  0  0  0
   20.7705  -22.6874  -13.3545 O   0  0  0  0  0  0  0  0  0  0  0  0
  1  5  1  0
  1  2  1  0
  2  3  1  0
  4  3  1  0
  5  4  1  0
  6  8  1  0
  5  6  1  1
  7  6  2  0
  9  8  1  0
 10 11  1  0
  9 10  1  1
 11 12  2  0
 11 16  1  0
 12 13  1  0
 13 14  2  0
 15 14  1  0
 16 15  2  0
 17 18  2  0
 17  9  1  0
 20 19  1  0
 20 22  1  0
 21 20  2  0
 23 22  1  6
 23 24  1  0
 24 17  1  0
 25 23  1  0
 26 25  1  0
 27 25  2  0
M  END
$$$$
