PFN.pdb
     RDKit          3D

 27 28  0  0  1  0  0  0  0  0999 V2000
   22.4728  -16.7352  -19.3100 N   0  0  0  0  0  0  0  0  0  0  0  0
   22.3472  -18.1750  -19.5913 C   0  0  0  0  0  0  0  0  0  0  0  0
   22.1319  -18.8497  -18.2761 C   0  0  0  0  0  0  0  0  0  0  0  0
   22.3968  -17.7441  -17.2744 C   0  0  0  0  0  0  0  0  0  0  0  0
   21.8373  -16.5397  -18.0470 C   0  0  1  0  0  0  0  0  0  0  0  0
   22.1929  -15.3308  -17.3158 C   0  0  0  0  0  0  0  0  0  0  0  0
   21.6760  -15.1705  -16.1740 O   0  0  0  0  0  0  0  0  0  0  0  0
   23.0732  -14.3314  -17.7973 N   0  0  0  0  0  0  0  0  0  0  0  0
   23.3511  -13.1548  -16.9954 C   0  0  1  0  0  0  0  0  0  0  0  0
   24.8407  -12.9349  -16.8398 C   0  0  0  0  0  0  0  0  0  0  0  0
   25.5529  -14.1403  -16.3995 C   0  0  0  0  0  0  0  0  0  0  0  0
   26.2160  -14.9616  -17.2821 C   0  0  0  0  0  0  0  0  0  0  0  0
   26.8897  -16.1042  -16.8514 C   0  0  0  0  0  0  0  0  0  0  0  0
   26.8862  -16.4079  -15.5203 C   0  0  0  0  0  0  0  0  0  0  0  0
   26.2347  -15.6120  -14.6059 C   0  0  0  0  0  0  0  0  0  0  0  0
   25.5743  -14.4830  -15.0662 C   0  0  0  0  0  0  0  0  0  0  0  0
   22.6542  -11.9491  -17.4876 C   0  0  0  0  0  0  0  0  0  0  0  0
   22.5716  -11.8077  -18.7341 O   0  0  0  0  0  0  0  0  0  0  0  0
   19.3608   -8.1204  -18.1673 N   0  0  0  0  0  0  0  0  0  0  0  0
   18.9772   -9.4998  -18.1684 C   0  0  0  0  0  0  0  0  0  0  0  0
   17.8210   -9.8021  -18.5414 O   0  0  0  0  0  0  0  0  0  0  0  0
   19.9345  -10.5277  -17.7367 C   0  0  0  0  0  0  0  0  0  0  0  0
   21.1701   -9.9133  -17.1774 C   0  0  2  0  0  0  0  0  0  0  0  0
   22.0799  -10.9539  -16.6653 N   0  0  0  0  0  0  0  0  0  0  0  0
   20.8587   -9.0806  -15.9826 C   0  0  0  0  0  0  0  0  0  0  0  0
   21.3014   -9.3908  -14.7247 O   0  0  0  0  0  0  0  0  0  0  0  0
   20.1516   -8.0160  -16.0631 O   0  0  0  0  0  0  0  0  0  0  0  0
  1  5  1  0
  1  2  1  0
  2  3  1  0
  4  3  1  0
  5  4  1  0
  6  8  1  0
  5  6  1  1
  7  6  2  0
  9  8  1  0
 10 11  1  0
  9 10  1  6
 11 12  2  0
 11 16  1  0
 12 13  1  0
 13 14  2  0
 15 14  1  0
 16 15  2  0
 17 18  2  0
 17  9  1  0
 20 19  1  0
 20 22  1  0
 21 20  2  0
 23 22  1  1
 23 24  1  0
 24 17  1  0
 25 23  1  0
 26 25  1  0
 27 25  2  0
M  END
$$$$
