PFN.pdb
     RDKit          3D

 27 28  0  0  1  0  0  0  0  0999 V2000
   19.7181  -11.6888  -19.3036 N   0  0  0  0  0  0  0  0  0  0  0  0
   19.7458  -13.0502  -19.8637 C   0  0  0  0  0  0  0  0  0  0  0  0
   19.6883  -13.9901  -18.7041 C   0  0  0  0  0  0  0  0  0  0  0  0
   19.8801  -13.0765  -17.5105 C   0  0  0  0  0  0  0  0  0  0  0  0
   19.1391  -11.8252  -18.0062 C   0  0  1  0  0  0  0  0  0  0  0  0
   19.3929  -10.7470  -17.0598 C   0  0  0  0  0  0  0  0  0  0  0  0
   18.7662  -10.7784  -15.9631 O   0  0  0  0  0  0  0  0  0  0  0  0
   20.2893   -9.6742  -17.2870 N   0  0  0  0  0  0  0  0  0  0  0  0
   20.4887   -8.6609  -16.2683 C   0  0  1  0  0  0  0  0  0  0  0  0
   21.9005   -8.6994  -15.7234 C   0  0  0  0  0  0  0  0  0  0  0  0
   21.9930   -8.2118  -14.3422 C   0  0  0  0  0  0  0  0  0  0  0  0
   22.0149   -9.0669  -13.2645 C   0  0  0  0  0  0  0  0  0  0  0  0
   22.1036   -8.5914  -11.9566 C   0  0  0  0  0  0  0  0  0  0  0  0
   22.1699   -7.2436  -11.7493 C   0  0  0  0  0  0  0  0  0  0  0  0
   22.1508   -6.3556  -12.8004 C   0  0  0  0  0  0  0  0  0  0  0  0
   22.0619   -6.8603  -14.0889 C   0  0  0  0  0  0  0  0  0  0  0  0
   20.0984   -7.3101  -16.7206 C   0  0  0  0  0  0  0  0  0  0  0  0
   20.5771   -6.9148  -17.8139 O   0  0  0  0  0  0  0  0  0  0  0  0
   18.1431   -2.5568  -17.1882 N   0  0  0  0  0  0  0  0  0  0  0  0
   17.2205   -3.3070  -16.3908 C   0  0  0  0  0  0  0  0  0  0  0  0
   16.1242   -2.7840  -16.0875 O   0  0  0  0  0  0  0  0  0  0  0  0
   17.5698   -4.6631  -15.9454 C   0  0  0  0  0  0  0  0  0  0  0  0
   18.8819   -5.0928  -16.5030 C   0  0  2  0  0  0  0  0  0  0  0  0
   19.2341   -6.4399  -16.0189 N   0  0  0  0  0  0  0  0  0  0  0  0
   19.9844   -4.2255  -16.0029 C   0  0  0  0  0  0  0  0  0  0  0  0
   20.8823   -4.6374  -15.0549 O   0  0  0  0  0  0  0  0  0  0  0  0
   20.1581   -3.0324  -16.4345 O   0  0  0  0  0  0  0  0  0  0  0  0
  1  5  1  0
  1  2  1  0
  2  3  1  0
  4  3  1  0
  5  4  1  0
  6  8  1  0
  5  6  1  1
  7  6  2  0
  9  8  1  0
 10 11  1  0
  9 10  1  6
 11 12  2  0
 11 16  1  0
 12 13  1  0
 13 14  2  0
 15 14  1  0
 16 15  2  0
 17 18  2  0
 17  9  1  0
 20 19  1  0
 20 22  1  0
 21 20  2  0
 23 22  1  1
 23 24  1  0
 24 17  1  0
 25 23  1  0
 26 25  1  0
 27 25  2  0
M  END
$$$$
