PFN.pdb
     RDKit          3D

 27 28  0  0  1  0  0  0  0  0999 V2000
   27.7480  -19.3959  -13.5185 N   0  0  0  0  0  0  0  0  0  0  0  0
   28.1890  -19.4493  -14.9223 C   0  0  0  0  0  0  0  0  0  0  0  0
   28.7057  -20.8314  -15.1552 C   0  0  0  0  0  0  0  0  0  0  0  0
   28.7494  -21.4222  -13.7605 C   0  0  0  0  0  0  0  0  0  0  0  0
   27.5112  -20.7529  -13.1446 C   0  0  1  0  0  0  0  0  0  0  0  0
   27.5035  -21.0466  -11.7176 C   0  0  0  0  0  0  0  0  0  0  0  0
   27.0328  -22.1625  -11.3577 O   0  0  0  0  0  0  0  0  0  0  0  0
   27.9855  -20.1697  -10.7152 N   0  0  0  0  0  0  0  0  0  0  0  0
   27.7319  -20.4514   -9.3149 C   0  0  1  0  0  0  0  0  0  0  0  0
   28.8011  -19.8469   -8.4302 C   0  0  0  0  0  0  0  0  0  0  0  0
   28.4837  -19.9477   -7.0008 C   0  0  0  0  0  0  0  0  0  0  0  0
   28.7619  -21.0784   -6.2677 C   0  0  0  0  0  0  0  0  0  0  0  0
   28.4558  -21.1619   -4.9097 C   0  0  0  0  0  0  0  0  0  0  0  0
   27.8662  -20.0916   -4.3008 C   0  0  0  0  0  0  0  0  0  0  0  0
   27.5720  -18.9429   -4.9991 C   0  0  0  0  0  0  0  0  0  0  0  0
   27.8889  -18.8915   -6.3481 C   0  0  0  0  0  0  0  0  0  0  0  0
   26.3699  -20.0675   -8.8915 C   0  0  0  0  0  0  0  0  0  0  0  0
   25.9925  -18.9021   -9.1744 O   0  0  0  0  0  0  0  0  0  0  0  0
   20.8699  -21.3526   -9.9090 N   0  0  0  0  0  0  0  0  0  0  0  0
   21.8416  -20.6952   -9.0883 C   0  0  0  0  0  0  0  0  0  0  0  0
   21.4512  -19.8383   -8.2633 O   0  0  0  0  0  0  0  0  0  0  0  0
   23.2655  -21.0318   -9.2250 C   0  0  0  0  0  0  0  0  0  0  0  0
   24.0404  -20.5936   -8.0314 C   0  0  2  0  0  0  0  0  0  0  0  0
   25.4707  -20.9085   -8.1983 N   0  0  0  0  0  0  0  0  0  0  0  0
   23.6364  -21.3616   -6.8211 C   0  0  0  0  0  0  0  0  0  0  0  0
   24.4779  -22.2267   -6.1747 O   0  0  0  0  0  0  0  0  0  0  0  0
   22.4669  -21.2567   -6.3100 O   0  0  0  0  0  0  0  0  0  0  0  0
  1  5  1  0
  1  2  1  0
  2  3  1  0
  4  3  1  0
  5  4  1  0
  6  8  1  0
  5  6  1  1
  7  6  2  0
  9  8  1  0
 10 11  1  0
  9 10  1  1
 11 12  2  0
 11 16  1  0
 12 13  1  0
 13 14  2  0
 15 14  1  0
 16 15  2  0
 17 18  2  0
 17  9  1  0
 20 19  1  0
 20 22  1  0
 21 20  2  0
 23 22  1  6
 23 24  1  0
 24 17  1  0
 25 23  1  0
 26 25  1  0
 27 25  2  0
M  END
$$$$
