PFN.pdb
     RDKit          3D

 27 28  0  0  1  0  0  0  0  0999 V2000
   27.4120  -21.2037  -17.2812 N   0  0  0  0  0  0  0  0  0  0  0  0
   28.7092  -21.3497  -17.9622 C   0  0  0  0  0  0  0  0  0  0  0  0
   29.4994  -22.3379  -17.1682 C   0  0  0  0  0  0  0  0  0  0  0  0
   28.6676  -22.5158  -15.9141 C   0  0  0  0  0  0  0  0  0  0  0  0
   27.2555  -22.3924  -16.5067 C   0  0  1  0  0  0  0  0  0  0  0  0
   26.3072  -22.3336  -15.4022 C   0  0  0  0  0  0  0  0  0  0  0  0
   25.7525  -23.4148  -15.0560 O   0  0  0  0  0  0  0  0  0  0  0  0
   25.9691  -21.1530  -14.6968 N   0  0  0  0  0  0  0  0  0  0  0  0
   25.0449  -21.2087  -13.5801 C   0  0  1  0  0  0  0  0  0  0  0  0
   25.4319  -20.2250  -12.4965 C   0  0  0  0  0  0  0  0  0  0  0  0
   24.5409  -20.2792  -11.3315 C   0  0  0  0  0  0  0  0  0  0  0  0
   24.9077  -20.8974  -10.1582 C   0  0  0  0  0  0  0  0  0  0  0  0
   24.0522  -20.9418   -9.0577 C   0  0  0  0  0  0  0  0  0  0  0  0
   22.8232  -20.3552   -9.1553 C   0  0  0  0  0  0  0  0  0  0  0  0
   22.4192  -19.7271  -10.3111 C   0  0  0  0  0  0  0  0  0  0  0  0
   23.2930  -19.7003  -11.3874 C   0  0  0  0  0  0  0  0  0  0  0  0
   23.6353  -21.0600  -13.9957 C   0  0  0  0  0  0  0  0  0  0  0  0
   23.3677  -20.1083  -14.7726 O   0  0  0  0  0  0  0  0  0  0  0  0
   21.9931  -24.1388  -16.8287 N   0  0  0  0  0  0  0  0  0  0  0  0
   21.3006  -23.0214  -16.2616 C   0  0  0  0  0  0  0  0  0  0  0  0
   21.0849  -22.0195  -16.9807 O   0  0  0  0  0  0  0  0  0  0  0  0
   20.8588  -23.0663  -14.8608 C   0  0  0  0  0  0  0  0  0  0  0  0
   21.2153  -21.8119  -14.1422 C   0  0  2  0  0  0  0  0  0  0  0  0
   22.5776  -21.9027  -13.5864 N   0  0  0  0  0  0  0  0  0  0  0  0
   20.3467  -21.6150  -12.9486 C   0  0  0  0  0  0  0  0  0  0  0  0
   19.2271  -20.8272  -12.9660 O   0  0  0  0  0  0  0  0  0  0  0  0
   20.5992  -22.1764  -11.8257 O   0  0  0  0  0  0  0  0  0  0  0  0
  1  5  1  0
  1  2  1  0
  2  3  1  0
  4  3  1  0
  5  4  1  0
  6  8  1  0
  5  6  1  1
  7  6  2  0
  9  8  1  0
 10 11  1  0
  9 10  1  1
 11 12  2  0
 11 16  1  0
 12 13  1  0
 13 14  2  0
 15 14  1  0
 16 15  2  0
 17 18  2  0
 17  9  1  0
 20 19  1  0
 20 22  1  0
 21 20  2  0
 23 22  1  1
 23 24  1  0
 24 17  1  0
 25 23  1  0
 26 25  1  0
 27 25  2  0
M  END
$$$$
