DFW.pdb
     RDKit          3D

 34 36  0  0  1  0  0  0  0  0999 V2000
   28.7047  -21.4155  -15.5980 N   0  0  0  0  0  0  0  0  0  0  0  0
   27.8997  -20.4348  -14.8547 C   0  0  1  0  0  0  0  0  0  0  0  0
   27.2299  -19.5346  -15.8828 C   0  0  0  0  0  0  0  0  0  0  0  0
   28.3167  -18.7366  -16.4826 C   0  0  0  0  0  0  0  0  0  0  0  0
   28.4910  -17.5520  -16.1190 O   0  0  0  0  0  0  0  0  0  0  0  0
   26.9220  -21.1703  -14.0371 C   0  0  0  0  0  0  0  0  0  0  0  0
   26.0016  -21.8679  -14.5781 O   0  0  0  0  0  0  0  0  0  0  0  0
   29.1752  -19.2613  -17.4503 O   0  0  0  0  0  0  0  0  0  0  0  0
   26.9697  -21.1371  -12.6232 N   0  0  0  0  0  0  0  0  0  0  0  0
   25.9830  -21.7897  -11.7563 C   0  0  1  0  0  0  0  0  0  0  0  0
   26.7695  -22.2480  -10.5167 C   0  0  0  0  0  0  0  0  0  0  0  0
   27.0703  -21.1252   -9.6281 C   0  0  0  0  0  0  0  0  0  0  0  0
   26.0726  -20.4419   -8.9825 C   0  0  0  0  0  0  0  0  0  0  0  0
   26.3570  -19.3567   -8.1447 C   0  0  0  0  0  0  0  0  0  0  0  0
   27.6539  -18.9406   -7.9422 C   0  0  0  0  0  0  0  0  0  0  0  0
   28.6578  -19.6240   -8.5894 C   0  0  0  0  0  0  0  0  0  0  0  0
   28.3741  -20.7000   -9.4200 C   0  0  0  0  0  0  0  0  0  0  0  0
   24.8328  -20.9676  -11.4284 C   0  0  0  0  0  0  0  0  0  0  0  0
   24.9806  -19.8253  -10.9403 O   0  0  0  0  0  0  0  0  0  0  0  0
   23.5225  -21.4459  -11.6560 N   0  0  0  0  0  0  0  0  0  0  0  0
   22.5213  -20.6854  -12.4023 C   0  0  1  0  0  0  0  0  0  0  0  0
   23.1608  -20.3008  -13.6951 C   0  0  0  0  0  0  0  0  0  0  0  0
   22.3778  -19.4976  -14.6289 C   0  0  0  0  0  0  0  0  0  0  0  0
   21.9824  -18.1855  -14.4025 C   0  0  0  0  0  0  0  0  0  0  0  0
   21.2565  -17.7562  -15.4183 N   0  0  0  0  0  0  0  0  0  0  0  0
   21.1393  -18.7310  -16.3377 C   0  0  0  0  0  0  0  0  0  0  0  0
   20.4969  -18.7273  -17.5452 C   0  0  0  0  0  0  0  0  0  0  0  0
   20.5311  -19.8470  -18.3338 C   0  0  0  0  0  0  0  0  0  0  0  0
   21.2276  -20.9570  -17.8640 C   0  0  0  0  0  0  0  0  0  0  0  0
   21.8767  -20.9671  -16.6512 C   0  0  0  0  0  0  0  0  0  0  0  0
   21.8373  -19.8157  -15.8490 C   0  0  0  0  0  0  0  0  0  0  0  0
   21.2719  -21.4183  -12.6165 C   0  0  0  0  0  0  0  0  0  0  0  0
   21.2362  -22.6568  -12.8921 O   0  0  0  0  0  0  0  0  0  0  0  0
   20.0742  -20.7027  -12.5020 O   0  0  0  0  0  0  0  0  0  0  0  0
  2  1  1  6
  2  3  1  0
  3  4  1  0
  4  5  2  0
  6  2  1  0
  6  7  2  0
  8  4  1  0
  9  6  1  0
 10 11  1  1
 10  9  1  0
 11 12  1  0
 12 13  2  0
 12 17  1  0
 13 14  1  0
 14 15  2  0
 16 15  1  0
 17 16  2  0
 18 10  1  0
 19 18  2  0
 20 18  1  0
 21 20  1  0
 21 22  1  6
 22 23  1  0
 23 31  1  0
 24 23  2  0
 24 25  1  0
 25 26  1  0
 26 27  1  0
 27 28  2  0
 29 28  1  0
 30 29  2  0
 31 26  2  0
 31 30  1  0
 32 34  1  0
 32 21  1  0
 33 32  2  0
M  END
$$$$
