DFW.pdb
     RDKit          3D

 34 36  0  0  1  0  0  0  0  0999 V2000
   27.5604  -21.4223  -17.9929 N   0  0  0  0  0  0  0  0  0  0  0  0
   27.0429  -20.5958  -16.8922 C   0  0  1  0  0  0  0  0  0  0  0  0
   26.6456  -19.2535  -17.4894 C   0  0  0  0  0  0  0  0  0  0  0  0
   27.9116  -18.5881  -17.8527 C   0  0  0  0  0  0  0  0  0  0  0  0
   28.9716  -18.9091  -17.2703 O   0  0  0  0  0  0  0  0  0  0  0  0
   25.8986  -21.2986  -16.2907 C   0  0  0  0  0  0  0  0  0  0  0  0
   24.8737  -21.6052  -16.9849 O   0  0  0  0  0  0  0  0  0  0  0  0
   27.9753  -17.6035  -18.8402 O   0  0  0  0  0  0  0  0  0  0  0  0
   25.8945  -21.6659  -14.9241 N   0  0  0  0  0  0  0  0  0  0  0  0
   24.7528  -22.2919  -14.2492 C   0  0  1  0  0  0  0  0  0  0  0  0
   25.2985  -22.7861  -12.8989 C   0  0  0  0  0  0  0  0  0  0  0  0
   25.4678  -21.6824  -11.9535 C   0  0  0  0  0  0  0  0  0  0  0  0
   26.5635  -20.8603  -12.0085 C   0  0  0  0  0  0  0  0  0  0  0  0
   26.7357  -19.8137  -11.0944 C   0  0  0  0  0  0  0  0  0  0  0  0
   25.8051  -19.5766  -10.1075 C   0  0  0  0  0  0  0  0  0  0  0  0
   24.7045  -20.4005  -10.0491 C   0  0  0  0  0  0  0  0  0  0  0  0
   24.5352  -21.4380  -10.9563 C   0  0  0  0  0  0  0  0  0  0  0  0
   23.5899  -21.4343  -14.1132 C   0  0  0  0  0  0  0  0  0  0  0  0
   23.7147  -20.2334  -13.7858 O   0  0  0  0  0  0  0  0  0  0  0  0
   22.2928  -21.9438  -14.3492 N   0  0  0  0  0  0  0  0  0  0  0  0
   21.1059  -21.0918  -14.4022 C   0  0  1  0  0  0  0  0  0  0  0  0
   21.2428  -20.2531  -15.6295 C   0  0  0  0  0  0  0  0  0  0  0  0
   20.1122  -19.4109  -16.0075 C   0  0  0  0  0  0  0  0  0  0  0  0
   19.7780  -18.2136  -15.3879 C   0  0  0  0  0  0  0  0  0  0  0  0
   18.6848  -17.7167  -15.9368 N   0  0  0  0  0  0  0  0  0  0  0  0
   18.2554  -18.5337  -16.9152 C   0  0  0  0  0  0  0  0  0  0  0  0
   17.1822  -18.4112  -17.7543 C   0  0  0  0  0  0  0  0  0  0  0  0
   16.9508  -19.3727  -18.7024 C   0  0  0  0  0  0  0  0  0  0  0  0
   17.8306  -20.4495  -18.7704 C   0  0  0  0  0  0  0  0  0  0  0  0
   18.9123  -20.5782  -17.9304 C   0  0  0  0  0  0  0  0  0  0  0  0
   19.1429  -19.5886  -16.9617 C   0  0  0  0  0  0  0  0  0  0  0  0
   19.8484  -21.8419  -14.4001 C   0  0  0  0  0  0  0  0  0  0  0  0
   19.7105  -22.9607  -14.9837 O   0  0  0  0  0  0  0  0  0  0  0  0
   18.7636  -21.2845  -13.7129 O   0  0  0  0  0  0  0  0  0  0  0  0
  2  1  1  6
  2  3  1  0
  3  4  1  0
  4  5  2  0
  6  2  1  0
  6  7  2  0
  8  4  1  0
  9  6  1  0
 10 11  1  1
 10  9  1  0
 11 12  1  0
 12 13  2  0
 12 17  1  0
 13 14  1  0
 14 15  2  0
 16 15  1  0
 17 16  2  0
 18 10  1  0
 19 18  2  0
 20 18  1  0
 21 20  1  0
 21 22  1  6
 22 23  1  0
 23 31  1  0
 24 23  2  0
 24 25  1  0
 25 26  1  0
 26 27  1  0
 27 28  2  0
 29 28  1  0
 30 29  2  0
 31 26  2  0
 31 30  1  0
 32 34  1  0
 32 21  1  0
 33 32  2  0
M  END
$$$$
