DFW.pdb
     RDKit          3D

 34 36  0  0  1  0  0  0  0  0999 V2000
   28.6369  -21.7152  -17.0985 N   0  0  0  0  0  0  0  0  0  0  0  0
   28.4428  -20.2608  -17.1957 C   0  0  1  0  0  0  0  0  0  0  0  0
   28.3807  -19.9158  -18.6766 C   0  0  0  0  0  0  0  0  0  0  0  0
   29.7513  -20.1080  -19.1888 C   0  0  0  0  0  0  0  0  0  0  0  0
   30.0900  -21.2185  -19.6555 O   0  0  0  0  0  0  0  0  0  0  0  0
   27.1977  -19.9169  -16.4908 C   0  0  0  0  0  0  0  0  0  0  0  0
   26.7457  -18.7244  -16.4940 O   0  0  0  0  0  0  0  0  0  0  0  0
   30.6976  -19.0818  -19.1785 O   0  0  0  0  0  0  0  0  0  0  0  0
   26.4530  -20.8950  -15.7900 N   0  0  0  0  0  0  0  0  0  0  0  0
   25.1942  -20.6180  -15.0902 C   0  0  1  0  0  0  0  0  0  0  0  0
   24.0944  -21.2365  -15.9697 C   0  0  0  0  0  0  0  0  0  0  0  0
   22.7675  -21.0391  -15.3856 C   0  0  0  0  0  0  0  0  0  0  0  0
   22.1256  -22.0511  -14.7199 C   0  0  0  0  0  0  0  0  0  0  0  0
   20.8489  -21.8694  -14.1746 C   0  0  0  0  0  0  0  0  0  0  0  0
   20.1957  -20.6627  -14.2903 C   0  0  0  0  0  0  0  0  0  0  0  0
   20.8371  -19.6449  -14.9585 C   0  0  0  0  0  0  0  0  0  0  0  0
   22.1033  -19.8268  -15.4989 C   0  0  0  0  0  0  0  0  0  0  0  0
   25.1538  -21.0847  -13.7167 C   0  0  0  0  0  0  0  0  0  0  0  0
   25.5305  -22.2406  -13.4219 O   0  0  0  0  0  0  0  0  0  0  0  0
   24.6866  -20.2379  -12.6860 N   0  0  0  0  0  0  0  0  0  0  0  0
   24.4938  -20.6971  -11.3114 C   0  0  1  0  0  0  0  0  0  0  0  0
   25.3466  -19.8245  -10.4514 C   0  0  0  0  0  0  0  0  0  0  0  0
   26.6831  -20.3023  -10.1113 C   0  0  0  0  0  0  0  0  0  0  0  0
   27.4268  -21.1840  -10.8851 C   0  0  0  0  0  0  0  0  0  0  0  0
   28.5729  -21.4476  -10.2850 N   0  0  0  0  0  0  0  0  0  0  0  0
   28.6426  -20.7750   -9.1221 C   0  0  0  0  0  0  0  0  0  0  0  0
   29.6424  -20.7336   -8.1897 C   0  0  0  0  0  0  0  0  0  0  0  0
   29.4975  -19.9490   -7.0760 C   0  0  0  0  0  0  0  0  0  0  0  0
   28.3206  -19.2182   -6.9392 C   0  0  0  0  0  0  0  0  0  0  0  0
   27.3117  -19.2545   -7.8736 C   0  0  0  0  0  0  0  0  0  0  0  0
   27.4678  -20.0607   -9.0124 C   0  0  0  0  0  0  0  0  0  0  0  0
   23.0947  -20.6763  -10.8798 C   0  0  0  0  0  0  0  0  0  0  0  0
   22.1976  -20.0058  -11.4772 O   0  0  0  0  0  0  0  0  0  0  0  0
   22.7519  -21.4418   -9.7591 O   0  0  0  0  0  0  0  0  0  0  0  0
  2  1  1  6
  2  3  1  0
  3  4  1  0
  4  5  2  0
  6  2  1  0
  6  7  2  0
  8  4  1  0
  9  6  1  0
 10 11  1  6
 10  9  1  0
 11 12  1  0
 12 13  2  0
 12 17  1  0
 13 14  1  0
 14 15  2  0
 16 15  1  0
 17 16  2  0
 18 10  1  0
 19 18  2  0
 20 18  1  0
 21 20  1  0
 21 22  1  1
 22 23  1  0
 23 31  1  0
 24 23  2  0
 24 25  1  0
 25 26  1  0
 26 27  1  0
 27 28  2  0
 29 28  1  0
 30 29  2  0
 31 26  2  0
 31 30  1  0
 32 34  1  0
 32 21  1  0
 33 32  2  0
M  END
$$$$
