DFW.pdb
     RDKit          3D

 34 36  0  0  1  0  0  0  0  0999 V2000
   28.7791  -20.7850  -15.2069 N   0  0  0  0  0  0  0  0  0  0  0  0
   28.0856  -20.0069  -14.1697 C   0  0  1  0  0  0  0  0  0  0  0  0
   27.2239  -18.9763  -14.8847 C   0  0  0  0  0  0  0  0  0  0  0  0
   28.1679  -18.0835  -15.5844 C   0  0  0  0  0  0  0  0  0  0  0  0
   28.7984  -17.2170  -14.9383 O   0  0  0  0  0  0  0  0  0  0  0  0
   27.2841  -20.9370  -13.3586 C   0  0  0  0  0  0  0  0  0  0  0  0
   26.7451  -21.9693  -13.8784 O   0  0  0  0  0  0  0  0  0  0  0  0
   28.3931  -18.1729  -16.9592 O   0  0  0  0  0  0  0  0  0  0  0  0
   27.0868  -20.7255  -11.9734 N   0  0  0  0  0  0  0  0  0  0  0  0
   26.0623  -21.4118  -11.1794 C   0  0  1  0  0  0  0  0  0  0  0  0
   26.8193  -22.0523  -10.0037 C   0  0  0  0  0  0  0  0  0  0  0  0
   27.0244  -21.0968   -8.9148 C   0  0  0  0  0  0  0  0  0  0  0  0
   26.2171  -19.9983   -8.7708 C   0  0  0  0  0  0  0  0  0  0  0  0
   26.4219  -19.0739   -7.7392 C   0  0  0  0  0  0  0  0  0  0  0  0
   27.4452  -19.2408   -6.8331 C   0  0  0  0  0  0  0  0  0  0  0  0
   28.2579  -20.3421   -6.9753 C   0  0  0  0  0  0  0  0  0  0  0  0
   28.0535  -21.2580   -7.9989 C   0  0  0  0  0  0  0  0  0  0  0  0
   24.9629  -20.5651  -10.7544 C   0  0  0  0  0  0  0  0  0  0  0  0
   25.1788  -19.4433  -10.2447 O   0  0  0  0  0  0  0  0  0  0  0  0
   23.6258  -20.9957  -10.9100 N   0  0  0  0  0  0  0  0  0  0  0  0
   22.6908  -20.3551  -11.8335 C   0  0  1  0  0  0  0  0  0  0  0  0
   23.2706  -20.5153  -13.1997 C   0  0  0  0  0  0  0  0  0  0  0  0
   22.5195  -19.9693  -14.3258 C   0  0  0  0  0  0  0  0  0  0  0  0
   22.5115  -18.6301  -14.6941 C   0  0  0  0  0  0  0  0  0  0  0  0
   21.7063  -18.4554  -15.7257 N   0  0  0  0  0  0  0  0  0  0  0  0
   21.1593  -19.6321  -16.0801 C   0  0  0  0  0  0  0  0  0  0  0  0
   20.2886  -19.9267  -17.0929 C   0  0  0  0  0  0  0  0  0  0  0  0
   19.8785  -21.2206  -17.2784 C   0  0  0  0  0  0  0  0  0  0  0  0
   20.3723  -22.1937  -16.4138 C   0  0  0  0  0  0  0  0  0  0  0  0
   21.2490  -21.9044  -15.3941 C   0  0  0  0  0  0  0  0  0  0  0  0
   21.6648  -20.5761  -15.2107 C   0  0  0  0  0  0  0  0  0  0  0  0
   21.3325  -20.8966  -11.7581 C   0  0  0  0  0  0  0  0  0  0  0  0
   21.0891  -22.1356  -11.6286 O   0  0  0  0  0  0  0  0  0  0  0  0
   20.2692  -19.9888  -11.8283 O   0  0  0  0  0  0  0  0  0  0  0  0
  2  1  1  6
  2  3  1  0
  3  4  1  0
  4  5  2  0
  6  2  1  0
  6  7  2  0
  8  4  1  0
  9  6  1  0
 10 11  1  1
 10  9  1  0
 11 12  1  0
 12 13  2  0
 12 17  1  0
 13 14  1  0
 14 15  2  0
 16 15  1  0
 17 16  2  0
 18 10  1  0
 19 18  2  0
 20 18  1  0
 21 20  1  0
 21 22  1  6
 22 23  1  0
 23 31  1  0
 24 23  2  0
 24 25  1  0
 25 26  1  0
 26 27  1  0
 27 28  2  0
 29 28  1  0
 30 29  2  0
 31 26  2  0
 31 30  1  0
 32 34  1  0
 32 21  1  0
 33 32  2  0
M  END
$$$$
