DFW.pdb
     RDKit          3D

 34 36  0  0  1  0  0  0  0  0999 V2000
   20.6532  -20.8179  -20.0437 N   0  0  0  0  0  0  0  0  0  0  0  0
   21.4842  -21.1551  -18.8783 C   0  0  1  0  0  0  0  0  0  0  0  0
   22.7909  -20.3888  -19.0239 C   0  0  0  0  0  0  0  0  0  0  0  0
   23.4970  -21.0159  -20.1579 C   0  0  0  0  0  0  0  0  0  0  0  0
   23.6280  -20.3877  -21.2321 O   0  0  0  0  0  0  0  0  0  0  0  0
   20.7465  -20.7729  -17.6639 C   0  0  0  0  0  0  0  0  0  0  0  0
   21.3173  -20.7545  -16.5236 O   0  0  0  0  0  0  0  0  0  0  0  0
   24.0382  -22.3001  -20.0760 O   0  0  0  0  0  0  0  0  0  0  0  0
   19.3809  -20.4057  -17.7157 N   0  0  0  0  0  0  0  0  0  0  0  0
   18.5858  -20.0455  -16.5370 C   0  0  1  0  0  0  0  0  0  0  0  0
   18.3955  -18.5218  -16.6240 C   0  0  0  0  0  0  0  0  0  0  0  0
   19.6794  -17.8203  -16.6117 C   0  0  0  0  0  0  0  0  0  0  0  0
   20.3493  -17.5833  -15.4393 C   0  0  0  0  0  0  0  0  0  0  0  0
   21.5700  -16.8976  -15.4236 C   0  0  0  0  0  0  0  0  0  0  0  0
   22.1381  -16.4383  -16.5908 C   0  0  0  0  0  0  0  0  0  0  0  0
   21.4678  -16.6739  -17.7693 C   0  0  0  0  0  0  0  0  0  0  0  0
   20.2572  -17.3541  -17.7832 C   0  0  0  0  0  0  0  0  0  0  0  0
   17.3340  -20.7689  -16.4115 C   0  0  0  0  0  0  0  0  0  0  0  0
   16.4842  -20.7420  -17.3291 O   0  0  0  0  0  0  0  0  0  0  0  0
   17.0536  -21.5182  -15.2464 N   0  0  0  0  0  0  0  0  0  0  0  0
   15.7963  -22.2388  -15.0528 C   0  0  1  0  0  0  0  0  0  0  0  0
   16.1641  -23.6359  -14.6773 C   0  0  0  0  0  0  0  0  0  0  0  0
   17.0300  -24.3793  -15.5871 C   0  0  0  0  0  0  0  0  0  0  0  0
   18.4124  -24.2547  -15.6395 C   0  0  0  0  0  0  0  0  0  0  0  0
   18.8951  -25.0316  -16.5916 N   0  0  0  0  0  0  0  0  0  0  0  0
   17.8890  -25.6879  -17.1969 C   0  0  0  0  0  0  0  0  0  0  0  0
   17.9222  -26.6005  -18.2151 C   0  0  0  0  0  0  0  0  0  0  0  0
   16.7541  -27.1610  -18.6604 C   0  0  0  0  0  0  0  0  0  0  0  0
   15.5662  -26.7703  -18.0487 C   0  0  0  0  0  0  0  0  0  0  0  0
   15.5258  -25.8539  -17.0236 C   0  0  0  0  0  0  0  0  0  0  0  0
   16.7271  -25.2842  -16.5727 C   0  0  0  0  0  0  0  0  0  0  0  0
   14.9198  -21.6254  -14.0530 C   0  0  0  0  0  0  0  0  0  0  0  0
   15.2682  -20.6298  -13.3470 O   0  0  0  0  0  0  0  0  0  0  0  0
   13.6424  -22.1740  -13.8886 O   0  0  0  0  0  0  0  0  0  0  0  0
  2  1  1  6
  2  3  1  0
  3  4  1  0
  4  5  2  0
  6  2  1  0
  6  7  2  0
  8  4  1  0
  9  6  1  0
 10 11  1  6
 10  9  1  0
 11 12  1  0
 12 13  2  0
 12 17  1  0
 13 14  1  0
 14 15  2  0
 16 15  1  0
 17 16  2  0
 18 10  1  0
 19 18  2  0
 20 18  1  0
 21 20  1  0
 21 22  1  1
 22 23  1  0
 23 31  1  0
 24 23  2  0
 24 25  1  0
 25 26  1  0
 26 27  1  0
 27 28  2  0
 29 28  1  0
 30 29  2  0
 31 26  2  0
 31 30  1  0
 32 34  1  0
 32 21  1  0
 33 32  2  0
M  END
$$$$
