DFW.pdb
     RDKit          3D

 34 36  0  0  1  0  0  0  0  0999 V2000
   29.6861  -24.0413  -17.4930 N   0  0  0  0  0  0  0  0  0  0  0  0
   28.5393  -24.1429  -16.5782 C   0  0  1  0  0  0  0  0  0  0  0  0
   28.7309  -25.4117  -15.7600 C   0  0  0  0  0  0  0  0  0  0  0  0
   28.4270  -26.5274  -16.6769 C   0  0  0  0  0  0  0  0  0  0  0  0
   27.7906  -26.3086  -17.7319 O   0  0  0  0  0  0  0  0  0  0  0  0
   28.5162  -22.9358  -15.7370 C   0  0  0  0  0  0  0  0  0  0  0  0
   29.5916  -22.4436  -15.2598 O   0  0  0  0  0  0  0  0  0  0  0  0
   28.8331  -27.8365  -16.4124 O   0  0  0  0  0  0  0  0  0  0  0  0
   27.3039  -22.2729  -15.4317 N   0  0  0  0  0  0  0  0  0  0  0  0
   27.2199  -21.0560  -14.6174 C   0  0  1  0  0  0  0  0  0  0  0  0
   26.5124  -20.0191  -15.5061 C   0  0  0  0  0  0  0  0  0  0  0  0
   26.3189  -18.7521  -14.8004 C   0  0  0  0  0  0  0  0  0  0  0  0
   25.1915  -18.5169  -14.0568 C   0  0  0  0  0  0  0  0  0  0  0  0
   24.9968  -17.2989  -13.3942 C   0  0  0  0  0  0  0  0  0  0  0  0
   25.9364  -16.2951  -13.4690 C   0  0  0  0  0  0  0  0  0  0  0  0
   27.0690  -16.5278  -14.2151 C   0  0  0  0  0  0  0  0  0  0  0  0
   27.2606  -17.7363  -14.8718 C   0  0  0  0  0  0  0  0  0  0  0  0
   26.5750  -21.2365  -13.3300 C   0  0  0  0  0  0  0  0  0  0  0  0
   25.4939  -21.8591  -13.2372 O   0  0  0  0  0  0  0  0  0  0  0  0
   27.1597  -20.7101  -12.1559 N   0  0  0  0  0  0  0  0  0  0  0  0
   26.5283  -20.8163  -10.8415 C   0  0  1  0  0  0  0  0  0  0  0  0
   27.6122  -20.6151   -9.8351 C   0  0  0  0  0  0  0  0  0  0  0  0
   27.2284  -20.5320   -8.4294 C   0  0  0  0  0  0  0  0  0  0  0  0
   25.9659  -20.8359   -7.9366 C   0  0  0  0  0  0  0  0  0  0  0  0
   25.9316  -20.6227   -6.6341 N   0  0  0  0  0  0  0  0  0  0  0  0
   27.1308  -20.1815   -6.2137 C   0  0  0  0  0  0  0  0  0  0  0  0
   27.5542  -19.8526   -4.9555 C   0  0  0  0  0  0  0  0  0  0  0  0
   28.8466  -19.4415   -4.7618 C   0  0  0  0  0  0  0  0  0  0  0  0
   29.6849  -19.3742   -5.8713 C   0  0  0  0  0  0  0  0  0  0  0  0
   29.2658  -19.7046   -7.1391 C   0  0  0  0  0  0  0  0  0  0  0  0
   27.9400  -20.1253   -7.3294 C   0  0  0  0  0  0  0  0  0  0  0  0
   25.4280  -19.8706  -10.6444 C   0  0  0  0  0  0  0  0  0  0  0  0
   24.3139  -20.2037  -10.1354 O   0  0  0  0  0  0  0  0  0  0  0  0
   25.6374  -18.5433  -11.0368 O   0  0  0  0  0  0  0  0  0  0  0  0
  2  1  1  6
  2  3  1  0
  3  4  1  0
  4  5  2  0
  6  2  1  0
  6  7  2  0
  8  4  1  0
  9  6  1  0
 10 11  1  6
 10  9  1  0
 11 12  1  0
 12 13  2  0
 12 17  1  0
 13 14  1  0
 14 15  2  0
 16 15  1  0
 17 16  2  0
 18 10  1  0
 19 18  2  0
 20 18  1  0
 21 20  1  0
 21 22  1  1
 22 23  1  0
 23 31  1  0
 24 23  2  0
 24 25  1  0
 25 26  1  0
 26 27  1  0
 27 28  2  0
 29 28  1  0
 30 29  2  0
 31 26  2  0
 31 30  1  0
 32 34  1  0
 32 21  1  0
 33 32  2  0
M  END
$$$$
