DFW.pdb
     RDKit          3D

 34 36  0  0  1  0  0  0  0  0999 V2000
   25.8681  -34.4098   -4.6649 N   0  0  0  0  0  0  0  0  0  0  0  0
   26.3956  -34.4437   -3.2927 C   0  0  1  0  0  0  0  0  0  0  0  0
   27.2858  -33.2209   -3.1253 C   0  0  0  0  0  0  0  0  0  0  0  0
   28.6033  -33.6097   -3.6645 C   0  0  0  0  0  0  0  0  0  0  0  0
   28.9826  -33.1539   -4.7664 O   0  0  0  0  0  0  0  0  0  0  0  0
   25.2548  -34.4338   -2.3632 C   0  0  0  0  0  0  0  0  0  0  0  0
   24.1905  -33.7848   -2.6321 O   0  0  0  0  0  0  0  0  0  0  0  0
   29.4589  -34.4747   -2.9802 O   0  0  0  0  0  0  0  0  0  0  0  0
   25.2927  -35.1476   -1.1420 N   0  0  0  0  0  0  0  0  0  0  0  0
   24.2189  -35.1168   -0.1434 C   0  0  1  0  0  0  0  0  0  0  0  0
   24.3759  -36.4164    0.6639 C   0  0  0  0  0  0  0  0  0  0  0  0
   23.3470  -36.5322    1.6977 C   0  0  0  0  0  0  0  0  0  0  0  0
   23.5800  -36.1161    2.9830 C   0  0  0  0  0  0  0  0  0  0  0  0
   22.6025  -36.2412    3.9777 C   0  0  0  0  0  0  0  0  0  0  0  0
   21.3711  -36.7882    3.6941 C   0  0  0  0  0  0  0  0  0  0  0  0
   21.1342  -37.2075    2.4050 C   0  0  0  0  0  0  0  0  0  0  0  0
   22.1047  -37.0829    1.4197 C   0  0  0  0  0  0  0  0  0  0  0  0
   24.2051  -33.9282    0.6891 C   0  0  0  0  0  0  0  0  0  0  0  0
   25.2687  -33.4551    1.1475 O   0  0  0  0  0  0  0  0  0  0  0  0
   22.9856  -33.2834    0.9967 N   0  0  0  0  0  0  0  0  0  0  0  0
   22.9222  -32.0146    1.7204 C   0  0  1  0  0  0  0  0  0  0  0  0
   22.9926  -30.9369    0.6899 C   0  0  0  0  0  0  0  0  0  0  0  0
   22.5488  -29.6001    1.0722 C   0  0  0  0  0  0  0  0  0  0  0  0
   22.7437  -29.0317    2.3245 C   0  0  0  0  0  0  0  0  0  0  0  0
   22.1927  -27.8325    2.3614 N   0  0  0  0  0  0  0  0  0  0  0  0
   21.6244  -27.5564    1.1739 C   0  0  0  0  0  0  0  0  0  0  0  0
   20.9617  -26.4351    0.7566 C   0  0  0  0  0  0  0  0  0  0  0  0
   20.4802  -26.3705   -0.5244 C   0  0  0  0  0  0  0  0  0  0  0  0
   20.6884  -27.4662   -1.3576 C   0  0  0  0  0  0  0  0  0  0  0  0
   21.3550  -28.5964   -0.9446 C   0  0  0  0  0  0  0  0  0  0  0  0
   21.8457  -28.6548    0.3695 C   0  0  0  0  0  0  0  0  0  0  0  0
   21.7299  -31.8802    2.5596 C   0  0  0  0  0  0  0  0  0  0  0  0
   20.5825  -32.2865    2.1995 O   0  0  0  0  0  0  0  0  0  0  0  0
   21.8859  -31.2787    3.8140 O   0  0  0  0  0  0  0  0  0  0  0  0
  2  1  1  6
  2  3  1  0
  3  4  1  0
  4  5  2  0
  6  2  1  0
  6  7  2  0
  8  4  1  0
  9  6  1  0
 10 11  1  1
 10  9  1  0
 11 12  1  0
 12 13  2  0
 12 17  1  0
 13 14  1  0
 14 15  2  0
 16 15  1  0
 17 16  2  0
 18 10  1  0
 19 18  2  0
 20 18  1  0
 21 20  1  0
 21 22  1  6
 22 23  1  0
 23 31  1  0
 24 23  2  0
 24 25  1  0
 25 26  1  0
 26 27  1  0
 27 28  2  0
 29 28  1  0
 30 29  2  0
 31 26  2  0
 31 30  1  0
 32 34  1  0
 32 21  1  0
 33 32  2  0
M  END
$$$$
