DFW.pdb
     RDKit          3D

 34 36  0  0  1  0  0  0  0  0999 V2000
   24.0876  -17.8106  -14.8729 N   0  0  0  0  0  0  0  0  0  0  0  0
   23.7169  -19.2299  -14.7698 C   0  0  1  0  0  0  0  0  0  0  0  0
   23.1138  -19.6330  -16.1076 C   0  0  0  0  0  0  0  0  0  0  0  0
   21.9001  -18.8082  -16.2628 C   0  0  0  0  0  0  0  0  0  0  0  0
   21.0591  -18.7602  -15.3375 O   0  0  0  0  0  0  0  0  0  0  0  0
   24.9308  -19.9983  -14.4517 C   0  0  0  0  0  0  0  0  0  0  0  0
   25.1526  -21.1336  -14.9888 O   0  0  0  0  0  0  0  0  0  0  0  0
   21.6522  -18.0630  -17.4169 O   0  0  0  0  0  0  0  0  0  0  0  0
   25.8991  -19.5053  -13.5452 N   0  0  0  0  0  0  0  0  0  0  0  0
   27.0546  -20.2804  -13.0816 C   0  0  1  0  0  0  0  0  0  0  0  0
   28.2680  -19.3538  -13.2676 C   0  0  0  0  0  0  0  0  0  0  0  0
   28.3972  -18.9132  -14.6568 C   0  0  0  0  0  0  0  0  0  0  0  0
   29.0479  -19.6797  -15.5886 C   0  0  0  0  0  0  0  0  0  0  0  0
   29.1871  -19.2523  -16.9147 C   0  0  0  0  0  0  0  0  0  0  0  0
   28.6720  -18.0433  -17.3258 C   0  0  0  0  0  0  0  0  0  0  0  0
   28.0188  -17.2711  -16.3926 C   0  0  0  0  0  0  0  0  0  0  0  0
   27.8816  -17.6963  -15.0778 C   0  0  0  0  0  0  0  0  0  0  0  0
   26.9322  -20.7929  -11.7294 C   0  0  0  0  0  0  0  0  0  0  0  0
   27.8791  -21.4066  -11.1891 O   0  0  0  0  0  0  0  0  0  0  0  0
   25.7371  -20.6065  -10.9983 N   0  0  0  0  0  0  0  0  0  0  0  0
   25.5968  -21.0015   -9.5976 C   0  0  1  0  0  0  0  0  0  0  0  0
   26.7458  -20.3874   -8.8688 C   0  0  0  0  0  0  0  0  0  0  0  0
   26.7215  -20.4199   -7.4099 C   0  0  0  0  0  0  0  0  0  0  0  0
   25.6369  -20.8341   -6.6475 C   0  0  0  0  0  0  0  0  0  0  0  0
   25.9190  -20.7081   -5.3639 N   0  0  0  0  0  0  0  0  0  0  0  0
   27.1640  -20.2202   -5.2177 C   0  0  0  0  0  0  0  0  0  0  0  0
   27.8727  -19.9473   -4.0801 C   0  0  0  0  0  0  0  0  0  0  0  0
   29.1526  -19.4688   -4.1782 C   0  0  0  0  0  0  0  0  0  0  0  0
   29.6837  -19.2771   -5.4507 C   0  0  0  0  0  0  0  0  0  0  0  0
   28.9768  -19.5507   -6.5987 C   0  0  0  0  0  0  0  0  0  0  0  0
   27.6658  -20.0410   -6.4898 C   0  0  0  0  0  0  0  0  0  0  0  0
   24.3146  -20.6126   -9.0070 C   0  0  0  0  0  0  0  0  0  0  0  0
   23.9502  -20.9759   -7.8467 O   0  0  0  0  0  0  0  0  0  0  0  0
   23.4704  -19.7987   -9.7716 O   0  0  0  0  0  0  0  0  0  0  0  0
  2  1  1  6
  2  3  1  0
  3  4  1  0
  4  5  2  0
  6  2  1  0
  6  7  2  0
  8  4  1  0
  9  6  1  0
 10 11  1  1
 10  9  1  0
 11 12  1  0
 12 13  2  0
 12 17  1  0
 13 14  1  0
 14 15  2  0
 16 15  1  0
 17 16  2  0
 18 10  1  0
 19 18  2  0
 20 18  1  0
 21 20  1  0
 21 22  1  1
 22 23  1  0
 23 31  1  0
 24 23  2  0
 24 25  1  0
 25 26  1  0
 26 27  1  0
 27 28  2  0
 29 28  1  0
 30 29  2  0
 31 26  2  0
 31 30  1  0
 32 34  1  0
 32 21  1  0
 33 32  2  0
M  END
$$$$
