IMD.pdb
     RDKit          3D

 25 24  0  0  1  0  0  0  0  0999 V2000
    7.7498  -15.6018   16.5052 C   0  0  0  0  0  0  0  0  0  0  0  0
    7.4918  -14.4683   17.4288 C   0  0  0  0  0  0  0  0  0  0  0  0
    8.0401  -14.6526   18.8092 C   0  0  2  0  0  0  0  0  0  0  0  0
    7.5404  -15.9869   19.3750 C   0  0  0  0  0  0  0  0  0  0  0  0
    7.7657  -13.5457   19.7837 C   0  0  2  0  0  0  0  0  0  0  0  0
    8.4409  -12.3487   19.2054 N   0  0  0  0  0  0  0  0  0  0  0  0
    8.2096  -13.7453   21.1556 C   0  0  0  0  0  0  0  0  0  0  0  0
    9.4624  -13.8660   21.4437 O   0  0  0  0  0  0  0  0  0  0  0  0
    6.0086  -11.3810   26.8073 C   0  0  0  0  0  0  0  0  0  0  0  0
    7.4872  -12.4229   26.9436 S   0  0  0  0  0  0  0  0  0  0  0  0
    7.1494  -13.9670   25.9985 C   0  0  0  0  0  0  0  0  0  0  0  0
    6.8406  -13.5866   24.5874 C   0  0  0  0  0  0  0  0  0  0  0  0
    7.9149  -14.0884   23.6294 C   0  0  2  0  0  0  0  0  0  0  0  0
    7.3574  -13.8216   22.2810 N   0  0  0  0  0  0  0  0  0  0  0  0
    8.3165  -15.4659   23.8297 C   0  0  0  0  0  0  0  0  0  0  0  0
    7.5313  -16.4280   23.6413 O   0  0  0  0  0  0  0  0  0  0  0  0
    9.6280  -15.8133   24.2516 N   0  0  0  0  0  0  0  0  0  0  0  0
    9.9943  -17.2158   24.5024 C   0  0  1  0  0  0  0  0  0  0  0  0
   11.1437  -17.5861   23.6071 C   0  0  0  0  0  0  0  0  0  0  0  0
   12.3227  -16.7280   23.7272 C   0  0  0  0  0  0  0  0  0  0  0  0
   12.3346  -15.7830   24.5551 O   0  0  0  0  0  0  0  0  0  0  0  0
   10.2678  -17.4480   25.9261 C   0  0  0  0  0  0  0  0  0  0  0  0
   10.1472  -16.3898   26.8133 O   0  0  0  0  0  0  0  0  0  0  0  0
   13.4515  -16.9190   22.9485 O   0  0  0  0  0  0  0  0  0  0  0  0
   10.6060  -18.5575   26.3815 O   0  0  0  0  0  0  0  0  0  0  0  0
  1  2  1  0
  2  3  1  0
  3  4  1  1
  3  5  1  0
  5  7  1  0
  5  6  1  6
  7  8  2  0
  9 10  1  0
 10 11  1  0
 11 12  1  0
 13 12  1  1
 14 13  1  0
 14  7  1  0
 15 13  1  0
 16 15  2  0
 17 15  1  0
 18 19  1  6
 18 17  1  0
 19 20  1  0
 20 21  2  0
 20 24  1  0
 22 23  1  0
 22 18  1  0
 25 22  2  0
M  END
$$$$
