IMD.pdb
     RDKit          3D

 25 24  0  0  1  0  0  0  0  0999 V2000
    6.8207  -12.8477   17.5510 C   0  0  0  0  0  0  0  0  0  0  0  0
    7.6183  -13.9147   18.2068 C   0  0  0  0  0  0  0  0  0  0  0  0
    7.8743  -13.6937   19.6647 C   0  0  2  0  0  0  0  0  0  0  0  0
    8.7299  -12.4338   19.8400 C   0  0  0  0  0  0  0  0  0  0  0  0
    8.4895  -14.8410   20.4101 C   0  0  2  0  0  0  0  0  0  0  0  0
    7.4932  -15.9452   20.3057 N   0  0  0  0  0  0  0  0  0  0  0  0
    8.8300  -14.6170   21.8076 C   0  0  0  0  0  0  0  0  0  0  0  0
    9.8994  -13.9753   22.1423 O   0  0  0  0  0  0  0  0  0  0  0  0
    7.2603  -11.6105   28.3467 C   0  0  0  0  0  0  0  0  0  0  0  0
    6.4807  -12.5844   27.0298 S   0  0  0  0  0  0  0  0  0  0  0  0
    7.7552  -13.7522   26.3946 C   0  0  0  0  0  0  0  0  0  0  0  0
    7.4091  -14.0897   24.9813 C   0  0  0  0  0  0  0  0  0  0  0  0
    8.5444  -14.8415   24.2960 C   0  0  2  0  0  0  0  0  0  0  0  0
    8.0601  -15.0532   22.9101 N   0  0  0  0  0  0  0  0  0  0  0  0
    8.9570  -16.0614   24.9597 C   0  0  0  0  0  0  0  0  0  0  0  0
    8.1551  -16.9968   25.2037 O   0  0  0  0  0  0  0  0  0  0  0  0
   10.2989  -16.2748   25.3751 N   0  0  0  0  0  0  0  0  0  0  0  0
   10.7167  -17.5642   25.9468 C   0  0  1  0  0  0  0  0  0  0  0  0
   12.1980  -17.7272   25.7487 C   0  0  0  0  0  0  0  0  0  0  0  0
   12.6539  -17.6048   24.3637 C   0  0  0  0  0  0  0  0  0  0  0  0
   13.6312  -16.8668   24.0831 O   0  0  0  0  0  0  0  0  0  0  0  0
   10.3010  -17.6840   27.3498 C   0  0  0  0  0  0  0  0  0  0  0  0
   10.4010  -18.9167   27.9758 O   0  0  0  0  0  0  0  0  0  0  0  0
   12.0385  -18.2844   23.3261 O   0  0  0  0  0  0  0  0  0  0  0  0
    9.8588  -16.7257   28.0123 O   0  0  0  0  0  0  0  0  0  0  0  0
  1  2  1  0
  2  3  1  0
  3  4  1  6
  3  5  1  0
  5  7  1  0
  5  6  1  1
  7  8  2  0
  9 10  1  0
 10 11  1  0
 11 12  1  0
 13 12  1  1
 14 13  1  0
 14  7  1  0
 15 13  1  0
 16 15  2  0
 17 15  1  0
 18 19  1  1
 18 17  1  0
 19 20  1  0
 20 21  2  0
 20 24  1  0
 22 23  1  0
 22 18  1  0
 25 22  2  0
M  END
$$$$
