IMD.pdb
     RDKit          3D

 25 24  0  0  1  0  0  0  0  0999 V2000
    7.8706  -15.3622   16.6641 C   0  0  0  0  0  0  0  0  0  0  0  0
    7.4833  -14.3475   17.6764 C   0  0  0  0  0  0  0  0  0  0  0  0
    7.9797  -14.6275   19.0603 C   0  0  2  0  0  0  0  0  0  0  0  0
    7.4957  -16.0150   19.4973 C   0  0  0  0  0  0  0  0  0  0  0  0
    7.6340  -13.6093   20.1063 C   0  0  2  0  0  0  0  0  0  0  0  0
    8.1172  -12.3117   19.5535 N   0  0  0  0  0  0  0  0  0  0  0  0
    8.1869  -13.8126   21.4374 C   0  0  0  0  0  0  0  0  0  0  0  0
    9.4603  -13.7716   21.6476 O   0  0  0  0  0  0  0  0  0  0  0  0
    7.0127  -11.2581   27.5947 C   0  0  0  0  0  0  0  0  0  0  0  0
    5.9289  -11.9109   26.2948 S   0  0  0  0  0  0  0  0  0  0  0  0
    7.0121  -12.4341   24.9003 C   0  0  0  0  0  0  0  0  0  0  0  0
    7.1539  -13.9199   24.9577 C   0  0  0  0  0  0  0  0  0  0  0  0
    8.0963  -14.4300   23.8736 C   0  0  2  0  0  0  0  0  0  0  0  0
    7.4261  -14.0625   22.6024 N   0  0  0  0  0  0  0  0  0  0  0  0
    8.4314  -15.8363   23.9680 C   0  0  0  0  0  0  0  0  0  0  0  0
    8.0123  -16.6830   23.1404 O   0  0  0  0  0  0  0  0  0  0  0  0
    9.2585  -16.3444   25.0055 N   0  0  0  0  0  0  0  0  0  0  0  0
   10.2165  -17.4299   24.7447 C   0  0  1  0  0  0  0  0  0  0  0  0
   11.0721  -17.0516   23.5680 C   0  0  0  0  0  0  0  0  0  0  0  0
   12.1675  -17.9769   23.2768 C   0  0  0  0  0  0  0  0  0  0  0  0
   11.9998  -19.2153   23.4063 O   0  0  0  0  0  0  0  0  0  0  0  0
   10.9929  -17.7549   25.9477 C   0  0  0  0  0  0  0  0  0  0  0  0
   10.7651  -17.0321   27.1083 O   0  0  0  0  0  0  0  0  0  0  0  0
   13.4095  -17.5337   22.8546 O   0  0  0  0  0  0  0  0  0  0  0  0
   11.8539  -18.6552   25.9788 O   0  0  0  0  0  0  0  0  0  0  0  0
  1  2  1  0
  2  3  1  0
  3  4  1  1
  3  5  1  0
  5  7  1  0
  5  6  1  6
  7  8  2  0
  9 10  1  0
 10 11  1  0
 11 12  1  0
 13 12  1  1
 14 13  1  0
 14  7  1  0
 15 13  1  0
 16 15  2  0
 17 15  1  0
 18 19  1  6
 18 17  1  0
 19 20  1  0
 20 21  2  0
 20 24  1  0
 22 23  1  0
 22 18  1  0
 25 22  2  0
M  END
$$$$
