IMD.pdb
     RDKit          3D

 25 24  0  0  1  0  0  0  0  0999 V2000
    7.9253  -16.3978   16.9328 C   0  0  0  0  0  0  0  0  0  0  0  0
    7.4862  -15.2417   17.7546 C   0  0  0  0  0  0  0  0  0  0  0  0
    8.1057  -15.1740   19.1154 C   0  0  2  0  0  0  0  0  0  0  0  0
    7.8925  -16.5122   19.8324 C   0  0  0  0  0  0  0  0  0  0  0  0
    7.6554  -14.0432   19.9922 C   0  0  2  0  0  0  0  0  0  0  0  0
    8.0013  -12.8075   19.2332 N   0  0  0  0  0  0  0  0  0  0  0  0
    8.2256  -13.9741   21.3298 C   0  0  0  0  0  0  0  0  0  0  0  0
    9.4019  -13.4815   21.5321 O   0  0  0  0  0  0  0  0  0  0  0  0
    6.5910  -10.7862   27.0463 C   0  0  0  0  0  0  0  0  0  0  0  0
    5.9660  -12.4824   26.8959 S   0  0  0  0  0  0  0  0  0  0  0  0
    7.2975  -13.4811   26.1078 C   0  0  0  0  0  0  0  0  0  0  0  0
    6.9281  -13.6959   24.6765 C   0  0  0  0  0  0  0  0  0  0  0  0
    8.1440  -14.0797   23.8410 C   0  0  2  0  0  0  0  0  0  0  0  0
    7.5830  -14.4146   22.5093 N   0  0  0  0  0  0  0  0  0  0  0  0
    8.9661  -15.1305   24.4058 C   0  0  0  0  0  0  0  0  0  0  0  0
    9.4851  -15.0370   25.5457 O   0  0  0  0  0  0  0  0  0  0  0  0
    9.2349  -16.3353   23.7023 N   0  0  0  0  0  0  0  0  0  0  0  0
   10.1408  -17.3506   24.2615 C   0  0  1  0  0  0  0  0  0  0  0  0
   11.5429  -16.8084   24.2544 C   0  0  0  0  0  0  0  0  0  0  0  0
   12.3639  -17.2315   23.1195 C   0  0  0  0  0  0  0  0  0  0  0  0
   11.8406  -17.8412   22.1537 O   0  0  0  0  0  0  0  0  0  0  0  0
    9.6937  -17.7893   25.5894 C   0  0  0  0  0  0  0  0  0  0  0  0
    9.4627  -16.8354   26.5681 O   0  0  0  0  0  0  0  0  0  0  0  0
   13.7248  -16.9818   23.0651 O   0  0  0  0  0  0  0  0  0  0  0  0
    9.5098  -18.9861   25.8839 O   0  0  0  0  0  0  0  0  0  0  0  0
  1  2  1  0
  2  3  1  0
  3  4  1  1
  3  5  1  0
  5  7  1  0
  5  6  1  6
  7  8  2  0
  9 10  1  0
 10 11  1  0
 11 12  1  0
 13 12  1  1
 14 13  1  0
 14  7  1  0
 15 13  1  0
 16 15  2  0
 17 15  1  0
 18 19  1  1
 18 17  1  0
 19 20  1  0
 20 21  2  0
 20 24  1  0
 22 23  1  0
 22 18  1  0
 25 22  2  0
M  END
$$$$
