IMD.pdb
     RDKit          3D

 25 24  0  0  1  0  0  0  0  0999 V2000
    7.5449  -11.6887   20.0248 C   0  0  0  0  0  0  0  0  0  0  0  0
    7.5689  -13.0180   20.6859 C   0  0  0  0  0  0  0  0  0  0  0  0
    8.6057  -13.9584   20.1560 C   0  0  2  0  0  0  0  0  0  0  0  0
    8.3543  -14.1944   18.6622 C   0  0  0  0  0  0  0  0  0  0  0  0
    8.7350  -15.2715   20.8696 C   0  0  2  0  0  0  0  0  0  0  0  0
    7.4658  -15.9959   20.5739 N   0  0  0  0  0  0  0  0  0  0  0  0
    8.9507  -15.2255   22.3084 C   0  0  0  0  0  0  0  0  0  0  0  0
   10.0975  -14.8992   22.8041 O   0  0  0  0  0  0  0  0  0  0  0  0
    6.6400  -11.2461   26.6568 C   0  0  0  0  0  0  0  0  0  0  0  0
    7.0655  -12.9943   26.8871 S   0  0  0  0  0  0  0  0  0  0  0  0
    6.6653  -13.8600   25.3116 C   0  0  0  0  0  0  0  0  0  0  0  0
    7.0486  -15.2957   25.4632 C   0  0  0  0  0  0  0  0  0  0  0  0
    8.3419  -15.6065   24.7185 C   0  0  2  0  0  0  0  0  0  0  0  0
    7.9707  -15.5154   23.2852 N   0  0  0  0  0  0  0  0  0  0  0  0
    8.9664  -16.8634   25.0778 C   0  0  0  0  0  0  0  0  0  0  0  0
    9.0123  -17.8397   24.2889 O   0  0  0  0  0  0  0  0  0  0  0  0
    9.5680  -17.0681   26.3486 N   0  0  0  0  0  0  0  0  0  0  0  0
   10.6468  -18.0528   26.5239 C   0  0  1  0  0  0  0  0  0  0  0  0
   11.7924  -17.6852   25.6226 C   0  0  0  0  0  0  0  0  0  0  0  0
   12.0679  -18.6424   24.5507 C   0  0  0  0  0  0  0  0  0  0  0  0
   11.3831  -19.6908   24.4485 O   0  0  0  0  0  0  0  0  0  0  0  0
   11.0328  -18.1737   27.9353 C   0  0  0  0  0  0  0  0  0  0  0  0
   10.8782  -17.0771   28.7689 O   0  0  0  0  0  0  0  0  0  0  0  0
   13.0750  -18.4354   23.6234 O   0  0  0  0  0  0  0  0  0  0  0  0
   11.4965  -19.2210   28.4262 O   0  0  0  0  0  0  0  0  0  0  0  0
  1  2  1  0
  2  3  1  0
  3  4  1  6
  3  5  1  0
  5  7  1  0
  5  6  1  1
  7  8  2  0
  9 10  1  0
 10 11  1  0
 11 12  1  0
 13 12  1  1
 14 13  1  0
 14  7  1  0
 15 13  1  0
 16 15  2  0
 17 15  1  0
 18 19  1  6
 18 17  1  0
 19 20  1  0
 20 21  2  0
 20 24  1  0
 22 23  1  0
 22 18  1  0
 25 22  2  0
M  END
$$$$
