IMD.pdb
     RDKit          3D

 25 24  0  0  1  0  0  0  0  0999 V2000
    8.2784  -18.8610   18.3386 C   0  0  0  0  0  0  0  0  0  0  0  0
    7.9349  -17.4781   18.7560 C   0  0  0  0  0  0  0  0  0  0  0  0
    8.4380  -17.0939   20.1122 C   0  0  2  0  0  0  0  0  0  0  0  0
    7.9794  -18.1408   21.1341 C   0  0  0  0  0  0  0  0  0  0  0  0
    8.0755  -15.7181   20.5875 C   0  0  2  0  0  0  0  0  0  0  0  0
    8.6573  -14.7951   19.5713 N   0  0  0  0  0  0  0  0  0  0  0  0
    8.5295  -15.3349   21.9164 C   0  0  0  0  0  0  0  0  0  0  0  0
    9.7859  -15.2009   22.1826 O   0  0  0  0  0  0  0  0  0  0  0  0
    5.6716  -11.8271   27.2052 C   0  0  0  0  0  0  0  0  0  0  0  0
    7.2118  -11.7837   26.2481 S   0  0  0  0  0  0  0  0  0  0  0  0
    6.9591  -12.8510   24.7687 C   0  0  0  0  0  0  0  0  0  0  0  0
    7.1418  -14.2729   25.1884 C   0  0  0  0  0  0  0  0  0  0  0  0
    8.2460  -14.9512   24.3855 C   0  0  2  0  0  0  0  0  0  0  0  0
    7.6837  -15.0722   23.0182 N   0  0  0  0  0  0  0  0  0  0  0  0
    8.7158  -16.2073   24.9335 C   0  0  0  0  0  0  0  0  0  0  0  0
    7.9838  -17.2257   25.0011 O   0  0  0  0  0  0  0  0  0  0  0  0
   10.0384  -16.3641   25.4284 N   0  0  0  0  0  0  0  0  0  0  0  0
   10.4948  -17.6541   25.9687 C   0  0  1  0  0  0  0  0  0  0  0  0
   11.8480  -17.9704   25.3953 C   0  0  0  0  0  0  0  0  0  0  0  0
   12.0233  -19.3531   24.9502 C   0  0  0  0  0  0  0  0  0  0  0  0
   11.1097  -20.1961   25.1324 O   0  0  0  0  0  0  0  0  0  0  0  0
   10.4707  -17.6546   27.4367 C   0  0  0  0  0  0  0  0  0  0  0  0
   10.1456  -16.4830   28.1024 O   0  0  0  0  0  0  0  0  0  0  0  0
   13.1809  -19.7805   24.3222 O   0  0  0  0  0  0  0  0  0  0  0  0
   10.7298  -18.6634   28.1208 O   0  0  0  0  0  0  0  0  0  0  0  0
  1  2  1  0
  2  3  1  0
  3  4  1  1
  3  5  1  0
  5  7  1  0
  5  6  1  6
  7  8  2  0
  9 10  1  0
 10 11  1  0
 11 12  1  0
 13 12  1  1
 14 13  1  0
 14  7  1  0
 15 13  1  0
 16 15  2  0
 17 15  1  0
 18 19  1  1
 18 17  1  0
 19 20  1  0
 20 21  2  0
 20 24  1  0
 22 23  1  0
 22 18  1  0
 25 22  2  0
M  END
$$$$
