IMD.pdb
     RDKit          3D

 25 24  0  0  1  0  0  0  0  0999 V2000
    9.3513  -16.3269   18.0470 C   0  0  0  0  0  0  0  0  0  0  0  0
    9.2358  -15.1313   18.9200 C   0  0  0  0  0  0  0  0  0  0  0  0
    7.8313  -14.6881   19.1861 C   0  0  2  0  0  0  0  0  0  0  0  0
    7.1590  -14.3221   17.8579 C   0  0  0  0  0  0  0  0  0  0  0  0
    7.6658  -13.5694   20.1718 C   0  0  2  0  0  0  0  0  0  0  0  0
    8.3667  -12.4071   19.5548 N   0  0  0  0  0  0  0  0  0  0  0  0
    8.1737  -13.7914   21.5178 C   0  0  0  0  0  0  0  0  0  0  0  0
    9.3690  -13.4338   21.8505 O   0  0  0  0  0  0  0  0  0  0  0  0
    6.2093  -10.7258   26.8554 C   0  0  0  0  0  0  0  0  0  0  0  0
    6.6503  -12.4832   26.7690 S   0  0  0  0  0  0  0  0  0  0  0  0
    6.5960  -12.9674   24.9930 C   0  0  0  0  0  0  0  0  0  0  0  0
    6.9661  -14.4113   24.8963 C   0  0  0  0  0  0  0  0  0  0  0  0
    8.0872  -14.6305   23.8868 C   0  0  2  0  0  0  0  0  0  0  0  0
    7.4466  -14.3933   22.5702 N   0  0  0  0  0  0  0  0  0  0  0  0
    8.7552  -15.9123   23.9851 C   0  0  0  0  0  0  0  0  0  0  0  0
    8.1346  -17.0009   23.8991 O   0  0  0  0  0  0  0  0  0  0  0  0
   10.1582  -16.0159   24.1843 N   0  0  0  0  0  0  0  0  0  0  0  0
   10.7953  -17.3234   24.4052 C   0  0  1  0  0  0  0  0  0  0  0  0
   12.2550  -17.2177   24.0612 C   0  0  0  0  0  0  0  0  0  0  0  0
   12.5388  -16.7124   22.7178 C   0  0  0  0  0  0  0  0  0  0  0  0
   11.9511  -17.2022   21.7213 O   0  0  0  0  0  0  0  0  0  0  0  0
   10.5530  -17.8098   25.7691 C   0  0  0  0  0  0  0  0  0  0  0  0
    9.9249  -16.9725   26.6778 O   0  0  0  0  0  0  0  0  0  0  0  0
   13.4492  -15.6932   22.4945 O   0  0  0  0  0  0  0  0  0  0  0  0
   10.8861  -18.9469   26.1549 O   0  0  0  0  0  0  0  0  0  0  0  0
  1  2  1  0
  2  3  1  0
  3  4  1  6
  3  5  1  0
  5  7  1  0
  5  6  1  6
  7  8  2  0
  9 10  1  0
 10 11  1  0
 11 12  1  0
 13 12  1  1
 14 13  1  0
 14  7  1  0
 15 13  1  0
 16 15  2  0
 17 15  1  0
 18 19  1  1
 18 17  1  0
 19 20  1  0
 20 21  2  0
 20 24  1  0
 22 23  1  0
 22 18  1  0
 25 22  2  0
M  END
$$$$
