IMD.pdb
     RDKit          3D

 25 24  0  0  1  0  0  0  0  0999 V2000
    7.3375  -19.0738   20.3669 C   0  0  0  0  0  0  0  0  0  0  0  0
    7.9455  -17.7200   20.4129 C   0  0  0  0  0  0  0  0  0  0  0  0
    6.9637  -16.5934   20.3304 C   0  0  2  0  0  0  0  0  0  0  0  0
    6.1522  -16.7269   19.0367 C   0  0  0  0  0  0  0  0  0  0  0  0
    7.5330  -15.2098   20.4399 C   0  0  2  0  0  0  0  0  0  0  0  0
    8.4726  -15.0890   19.2885 N   0  0  0  0  0  0  0  0  0  0  0  0
    8.2248  -14.8736   21.6758 C   0  0  0  0  0  0  0  0  0  0  0  0
    9.5085  -14.9728   21.7736 O   0  0  0  0  0  0  0  0  0  0  0  0
    5.3449  -12.2518   26.8519 C   0  0  0  0  0  0  0  0  0  0  0  0
    7.0733  -11.7988   27.1645 S   0  0  0  0  0  0  0  0  0  0  0  0
    8.1224  -13.0265   26.2793 C   0  0  0  0  0  0  0  0  0  0  0  0
    7.5179  -13.2664   24.9346 C   0  0  0  0  0  0  0  0  0  0  0  0
    8.3925  -14.1845   24.0885 C   0  0  2  0  0  0  0  0  0  0  0  0
    7.5982  -14.4154   22.8573 N   0  0  0  0  0  0  0  0  0  0  0  0
    8.8120  -15.4051   24.7465 C   0  0  0  0  0  0  0  0  0  0  0  0
    8.0376  -16.3806   24.9081 O   0  0  0  0  0  0  0  0  0  0  0  0
   10.1301  -15.5737   25.2494 N   0  0  0  0  0  0  0  0  0  0  0  0
   10.5415  -16.8364   25.8823 C   0  0  1  0  0  0  0  0  0  0  0  0
   11.9445  -17.1620   25.4517 C   0  0  0  0  0  0  0  0  0  0  0  0
   12.1565  -18.5472   25.0308 C   0  0  0  0  0  0  0  0  0  0  0  0
   11.2331  -19.3912   25.1468 O   0  0  0  0  0  0  0  0  0  0  0  0
   10.3793  -16.7785   27.3404 C   0  0  0  0  0  0  0  0  0  0  0  0
   10.5222  -17.9434   28.0777 O   0  0  0  0  0  0  0  0  0  0  0  0
   13.3603  -18.9758   24.4975 O   0  0  0  0  0  0  0  0  0  0  0  0
   10.1173  -15.7261   27.9542 O   0  0  0  0  0  0  0  0  0  0  0  0
  1  2  1  0
  2  3  1  0
  3  4  1  6
  3  5  1  0
  5  7  1  0
  5  6  1  6
  7  8  2  0
  9 10  1  0
 10 11  1  0
 11 12  1  0
 13 12  1  1
 14 13  1  0
 14  7  1  0
 15 13  1  0
 16 15  2  0
 17 15  1  0
 18 19  1  1
 18 17  1  0
 19 20  1  0
 20 21  2  0
 20 24  1  0
 22 23  1  0
 22 18  1  0
 25 22  2  0
M  END
$$$$
