IMD.pdb
     RDKit          3D

 25 24  0  0  1  0  0  0  0  0999 V2000
    7.3354  -11.7779   19.4367 C   0  0  0  0  0  0  0  0  0  0  0  0
    7.5068  -12.9775   20.2948 C   0  0  0  0  0  0  0  0  0  0  0  0
    8.4028  -14.0303   19.7214 C   0  0  2  0  0  0  0  0  0  0  0  0
    7.9110  -14.3994   18.3171 C   0  0  0  0  0  0  0  0  0  0  0  0
    8.5796  -15.2703   20.5469 C   0  0  2  0  0  0  0  0  0  0  0  0
    7.2919  -16.0093   20.4104 N   0  0  0  0  0  0  0  0  0  0  0  0
    8.8951  -15.0889   21.9563 C   0  0  0  0  0  0  0  0  0  0  0  0
   10.1073  -14.8835   22.3507 O   0  0  0  0  0  0  0  0  0  0  0  0
    7.1338  -11.2866   26.6508 C   0  0  0  0  0  0  0  0  0  0  0  0
    6.4122  -12.8403   27.2472 S   0  0  0  0  0  0  0  0  0  0  0  0
    7.4582  -14.2079   26.5937 C   0  0  0  0  0  0  0  0  0  0  0  0
    7.2258  -14.3042   25.1214 C   0  0  0  0  0  0  0  0  0  0  0  0
    8.3936  -14.9868   24.4185 C   0  0  2  0  0  0  0  0  0  0  0  0
    7.9509  -15.1110   23.0083 N   0  0  0  0  0  0  0  0  0  0  0  0
    8.8120  -16.2421   25.0085 C   0  0  0  0  0  0  0  0  0  0  0  0
    8.0317  -17.2184   25.1326 O   0  0  0  0  0  0  0  0  0  0  0  0
   10.1356  -16.4459   25.4832 N   0  0  0  0  0  0  0  0  0  0  0  0
   10.5844  -17.7764   25.9219 C   0  0  1  0  0  0  0  0  0  0  0  0
   11.9315  -18.0593   25.3175 C   0  0  0  0  0  0  0  0  0  0  0  0
   12.5853  -19.2741   25.8050 C   0  0  0  0  0  0  0  0  0  0  0  0
   11.9065  -20.1853   26.3410 O   0  0  0  0  0  0  0  0  0  0  0  0
   10.5688  -17.8874   27.3858 C   0  0  0  0  0  0  0  0  0  0  0  0
   10.5047  -16.7297   28.1453 O   0  0  0  0  0  0  0  0  0  0  0  0
   13.9525  -19.4650   25.6974 O   0  0  0  0  0  0  0  0  0  0  0  0
   10.6107  -18.9790   27.9855 O   0  0  0  0  0  0  0  0  0  0  0  0
  1  2  1  0
  2  3  1  0
  3  4  1  6
  3  5  1  0
  5  7  1  0
  5  6  1  1
  7  8  2  0
  9 10  1  0
 10 11  1  0
 11 12  1  0
 13 12  1  1
 14 13  1  0
 14  7  1  0
 15 13  1  0
 16 15  2  0
 17 15  1  0
 18 19  1  1
 18 17  1  0
 19 20  1  0
 20 21  2  0
 20 24  1  0
 22 23  1  0
 22 18  1  0
 25 22  2  0
M  END
$$$$
