CTI.pdb
     RDKit          3D

 22 21  0  0  1  0  0  0  0  0999 V2000
   17.9982  -11.5532  -15.5665 N   0  0  0  0  0  0  0  0  0  0  0  0
   16.9548  -10.7287  -15.0533 C   0  0  1  0  0  0  0  0  0  0  0  0
   15.7162  -11.5720  -14.8664 C   0  0  0  0  0  0  0  0  0  0  0  0
   15.1580  -12.3447  -16.3964 S   0  0  0  0  0  0  0  0  0  0  0  0
   17.3399   -9.9604  -13.8425 C   0  0  0  0  0  0  0  0  0  0  0  0
   18.1710  -10.4175  -13.0029 O   0  0  0  0  0  0  0  0  0  0  0  0
   19.5013   -7.5337  -13.4780 C   0  0  0  0  0  0  0  0  0  0  0  0
   18.2472   -6.8711  -12.9528 C   0  0  1  0  0  0  0  0  0  0  0  0
   17.8319   -5.8366  -13.7450 O   0  0  0  0  0  0  0  0  0  0  0  0
   17.1734   -7.7796  -12.5269 C   0  0  2  0  0  0  0  0  0  0  0  0
   16.7776   -8.6867  -13.6057 N   0  0  0  0  0  0  0  0  0  0  0  0
   16.0293   -7.2520  -11.7959 C   0  0  0  0  0  0  0  0  0  0  0  0
   14.9195   -7.1619  -12.4078 O   0  0  0  0  0  0  0  0  0  0  0  0
   12.4338   -7.4363   -7.2430 C   0  0  0  0  0  0  0  0  0  0  0  0
   13.2019   -6.4005   -8.0321 C   0  0  0  0  0  0  0  0  0  0  0  0
   14.2952   -7.0867   -8.7930 C   0  0  2  0  0  0  0  0  0  0  0  0
   15.2636   -7.6785   -7.7920 C   0  0  0  0  0  0  0  0  0  0  0  0
   15.0016   -6.1674   -9.7647 C   0  0  2  0  0  0  0  0  0  0  0  0
   16.0898   -6.8401  -10.4509 N   0  0  0  0  0  0  0  0  0  0  0  0
   15.4763   -4.9455   -9.0647 C   0  0  0  0  0  0  0  0  0  0  0  0
   14.6703   -4.0583   -8.6552 O   0  0  0  0  0  0  0  0  0  0  0  0
   16.8191   -4.7029   -8.8185 O   0  0  0  0  0  0  0  0  0  0  0  0
  2  1  1  1
  2  5  1  0
  3  2  1  0
  4  3  1  0
  5 11  1  0
  5  6  2  0
  8  7  1  6
  8 10  1  0
  8  9  1  0
 10 12  1  0
 10 11  1  6
 12 13  2  0
 14 15  1  0
 16 18  1  0
 16 15  1  0
 16 17  1  1
 18 20  1  0
 19 12  1  0
 18 19  1  1
 20 22  1  0
 21 20  2  0
M  END
$$$$
