CTI.pdb
     RDKit          3D

 22 21  0  0  1  0  0  0  0  0999 V2000
   29.0847  -21.9186  -18.0944 N   0  0  0  0  0  0  0  0  0  0  0  0
   28.4208  -22.4093  -16.9324 C   0  0  1  0  0  0  0  0  0  0  0  0
   29.1449  -23.6405  -16.4423 C   0  0  0  0  0  0  0  0  0  0  0  0
   28.7415  -25.1160  -17.3960 S   0  0  0  0  0  0  0  0  0  0  0  0
   28.2163  -21.3811  -15.8810 C   0  0  0  0  0  0  0  0  0  0  0  0
   29.0851  -20.4898  -15.6464 O   0  0  0  0  0  0  0  0  0  0  0  0
   26.8023  -18.4483  -15.7343 C   0  0  0  0  0  0  0  0  0  0  0  0
   26.0015  -19.2213  -14.7101 C   0  0  1  0  0  0  0  0  0  0  0  0
   24.7222  -19.4686  -15.1254 O   0  0  0  0  0  0  0  0  0  0  0  0
   26.6792  -20.3778  -14.1075 C   0  0  2  0  0  0  0  0  0  0  0  0
   27.0296  -21.3803  -15.1151 N   0  0  0  0  0  0  0  0  0  0  0  0
   26.1441  -20.9747  -12.8914 C   0  0  0  0  0  0  0  0  0  0  0  0
   25.5884  -22.1139  -12.9798 O   0  0  0  0  0  0  0  0  0  0  0  0
   26.3769  -20.3359   -6.7313 C   0  0  0  0  0  0  0  0  0  0  0  0
   25.6580  -20.9307   -7.9208 C   0  0  0  0  0  0  0  0  0  0  0  0
   26.2067  -20.3168   -9.1726 C   0  0  2  0  0  0  0  0  0  0  0  0
   25.9785  -18.8225   -9.1015 C   0  0  0  0  0  0  0  0  0  0  0  0
   25.6049  -20.9062  -10.4291 C   0  0  2  0  0  0  0  0  0  0  0  0
   26.2124  -20.3572  -11.6279 N   0  0  0  0  0  0  0  0  0  0  0  0
   24.1312  -20.7145  -10.4327 C   0  0  0  0  0  0  0  0  0  0  0  0
   23.3772  -21.3413   -9.6309 O   0  0  0  0  0  0  0  0  0  0  0  0
   23.4958  -19.8452  -11.3063 O   0  0  0  0  0  0  0  0  0  0  0  0
  2  1  1  6
  2  5  1  0
  3  2  1  0
  4  3  1  0
  5 11  1  0
  5  6  2  0
  8  7  1  6
  8 10  1  0
  8  9  1  0
 10 12  1  0
 10 11  1  6
 12 13  2  0
 14 15  1  0
 16 18  1  0
 16 15  1  0
 16 17  1  1
 18 20  1  0
 19 12  1  0
 18 19  1  6
 20 22  1  0
 21 20  2  0
M  END
$$$$
