CTI.pdb
     RDKit          3D

 22 21  0  0  1  0  0  0  0  0999 V2000
   39.3563   -4.7743   -8.7321 N   0  0  0  0  0  0  0  0  0  0  0  0
   37.9789   -4.6000   -8.4094 C   0  0  1  0  0  0  0  0  0  0  0  0
   37.6848   -5.3324   -7.1220 C   0  0  0  0  0  0  0  0  0  0  0  0
   37.8512   -7.1204   -7.2801 S   0  0  0  0  0  0  0  0  0  0  0  0
   37.5412   -3.1813   -8.4004 C   0  0  0  0  0  0  0  0  0  0  0  0
   38.2881   -2.2592   -7.9573 O   0  0  0  0  0  0  0  0  0  0  0  0
   36.0218   -1.4354  -11.5126 C   0  0  0  0  0  0  0  0  0  0  0  0
   35.1276   -1.2250  -10.3109 C   0  0  1  0  0  0  0  0  0  0  0  0
   33.8967   -1.7997  -10.4686 O   0  0  0  0  0  0  0  0  0  0  0  0
   35.7481   -1.4671   -9.0009 C   0  0  2  0  0  0  0  0  0  0  0  0
   36.2652   -2.8325   -8.8954 N   0  0  0  0  0  0  0  0  0  0  0  0
   35.0660   -1.0353   -7.7885 C   0  0  0  0  0  0  0  0  0  0  0  0
   34.3449   -1.8826   -7.1749 O   0  0  0  0  0  0  0  0  0  0  0  0
   35.3358    1.2858   -2.8369 C   0  0  0  0  0  0  0  0  0  0  0  0
   34.7008    2.0727   -3.9608 C   0  0  0  0  0  0  0  0  0  0  0  0
   35.3404    1.6685   -5.2542 C   0  0  2  0  0  0  0  0  0  0  0  0
   35.6329    2.9246   -6.0457 C   0  0  0  0  0  0  0  0  0  0  0  0
   34.4942    0.7005   -6.0511 C   0  0  2  0  0  0  0  0  0  0  0  0
   35.1658    0.2671   -7.2630 N   0  0  0  0  0  0  0  0  0  0  0  0
   33.1692    1.3023   -6.3521 C   0  0  0  0  0  0  0  0  0  0  0  0
   32.3216    1.5345   -5.4399 O   0  0  0  0  0  0  0  0  0  0  0  0
   32.7819    1.6439   -7.6389 O   0  0  0  0  0  0  0  0  0  0  0  0
  2  1  1  1
  2  5  1  0
  3  2  1  0
  4  3  1  0
  5 11  1  0
  5  6  2  0
  8  7  1  6
  8 10  1  0
  8  9  1  0
 10 12  1  0
 10 11  1  1
 12 13  2  0
 14 15  1  0
 16 18  1  0
 16 15  1  0
 16 17  1  6
 18 20  1  0
 19 12  1  0
 18 19  1  6
 20 22  1  0
 21 20  2  0
M  END
$$$$
