CTI.pdb
     RDKit          3D

 22 21  0  0  1  0  0  0  0  0999 V2000
   22.3167  -16.3694  -17.3743 N   0  0  0  0  0  0  0  0  0  0  0  0
   22.0205  -15.0639  -17.8641 C   0  0  1  0  0  0  0  0  0  0  0  0
   20.6741  -15.0949  -18.5472 C   0  0  0  0  0  0  0  0  0  0  0  0
   20.5879  -16.3172  -19.8694 S   0  0  0  0  0  0  0  0  0  0  0  0
   22.1429  -13.9978  -16.8381 C   0  0  0  0  0  0  0  0  0  0  0  0
   21.6993  -14.1544  -15.6620 O   0  0  0  0  0  0  0  0  0  0  0  0
   25.3149  -12.5194  -15.5964 C   0  0  0  0  0  0  0  0  0  0  0  0
   24.4502  -11.3858  -16.1016 C   0  0  1  0  0  0  0  0  0  0  0  0
   24.9925  -10.7602  -17.1900 O   0  0  0  0  0  0  0  0  0  0  0  0
   23.0153  -11.6797  -16.2216 C   0  0  2  0  0  0  0  0  0  0  0  0
   22.7676  -12.7734  -17.1627 N   0  0  0  0  0  0  0  0  0  0  0  0
   22.0654  -10.5864  -16.3769 C   0  0  0  0  0  0  0  0  0  0  0  0
   21.6745  -10.2971  -17.5507 O   0  0  0  0  0  0  0  0  0  0  0  0
   16.9244   -8.3138  -14.8395 C   0  0  0  0  0  0  0  0  0  0  0  0
   18.3105   -7.8831  -15.2625 C   0  0  0  0  0  0  0  0  0  0  0  0
   19.2625   -9.0143  -15.0194 C   0  0  2  0  0  0  0  0  0  0  0  0
   19.2033   -9.3698  -13.5497 C   0  0  0  0  0  0  0  0  0  0  0  0
   20.6766   -8.6959  -15.4520 C   0  0  2  0  0  0  0  0  0  0  0  0
   21.5590   -9.8381  -15.2970 N   0  0  0  0  0  0  0  0  0  0  0  0
   21.1873   -7.5129  -14.7114 C   0  0  0  0  0  0  0  0  0  0  0  0
   20.7576   -6.3448  -14.9465 O   0  0  0  0  0  0  0  0  0  0  0  0
   22.1573   -7.6137  -13.7257 O   0  0  0  0  0  0  0  0  0  0  0  0
  2  1  1  1
  2  5  1  0
  3  2  1  0
  4  3  1  0
  5 11  1  0
  5  6  2  0
  8  7  1  6
  8 10  1  0
  8  9  1  0
 10 12  1  0
 10 11  1  6
 12 13  2  0
 14 15  1  0
 16 18  1  0
 16 15  1  0
 16 17  1  1
 18 20  1  0
 19 12  1  0
 18 19  1  1
 20 22  1  0
 21 20  2  0
M  END
$$$$
