CTI.pdb
     RDKit          3D

 22 21  0  0  1  0  0  0  0  0999 V2000
   13.9883  -10.6268  -16.7917 N   0  0  0  0  0  0  0  0  0  0  0  0
   14.7051  -10.0362  -15.7104 C   0  0  1  0  0  0  0  0  0  0  0  0
   14.9321  -11.0846  -14.6475 C   0  0  0  0  0  0  0  0  0  0  0  0
   13.4507  -11.4348  -13.6819 S   0  0  0  0  0  0  0  0  0  0  0  0
   15.9445   -9.3330  -16.1271 C   0  0  0  0  0  0  0  0  0  0  0  0
   16.6707   -9.7696  -17.0687 O   0  0  0  0  0  0  0  0  0  0  0  0
   16.3566   -6.1047  -17.7379 C   0  0  0  0  0  0  0  0  0  0  0  0
   17.0760   -6.0353  -16.4092 C   0  0  1  0  0  0  0  0  0  0  0  0
   16.4569   -5.1977  -15.5230 O   0  0  0  0  0  0  0  0  0  0  0  0
   17.4922   -7.3240  -15.8384 C   0  0  2  0  0  0  0  0  0  0  0  0
   16.3383   -8.1463  -15.4702 N   0  0  0  0  0  0  0  0  0  0  0  0
   18.5454   -7.3615  -14.8329 C   0  0  0  0  0  0  0  0  0  0  0  0
   18.2101   -7.5625  -13.6240 O   0  0  0  0  0  0  0  0  0  0  0  0
   23.4605  -10.1222  -13.4583 C   0  0  0  0  0  0  0  0  0  0  0  0
   22.8086   -8.7717  -13.2665 C   0  0  0  0  0  0  0  0  0  0  0  0
   21.7498   -8.5943  -14.3117 C   0  0  2  0  0  0  0  0  0  0  0  0
   22.4140   -8.6663  -15.6695 C   0  0  0  0  0  0  0  0  0  0  0  0
   20.9714   -7.3077  -14.1475 C   0  0  2  0  0  0  0  0  0  0  0  0
   19.9105   -7.1889  -15.1313 N   0  0  0  0  0  0  0  0  0  0  0  0
   21.8899   -6.1405  -14.1982 C   0  0  0  0  0  0  0  0  0  0  0  0
   21.9934   -5.4204  -15.2351 O   0  0  0  0  0  0  0  0  0  0  0  0
   22.6835   -5.7705  -13.1231 O   0  0  0  0  0  0  0  0  0  0  0  0
  2  1  1  6
  2  5  1  0
  3  2  1  0
  4  3  1  0
  5 11  1  0
  5  6  2  0
  8  7  1  6
  8 10  1  0
  8  9  1  0
 10 12  1  0
 10 11  1  1
 12 13  2  0
 14 15  1  0
 16 18  1  0
 16 15  1  0
 16 17  1  6
 18 20  1  0
 19 12  1  0
 18 19  1  6
 20 22  1  0
 21 20  2  0
M  END
$$$$
