CTI.pdb
     RDKit          3D

 22 21  0  0  1  0  0  0  0  0999 V2000
   15.8163  -12.7060  -15.1199 N   0  0  0  0  0  0  0  0  0  0  0  0
   15.4378  -11.3492  -14.9010 C   0  0  1  0  0  0  0  0  0  0  0  0
   13.9313  -11.2525  -14.9404 C   0  0  0  0  0  0  0  0  0  0  0  0
   13.2513  -11.5804  -16.5773 S   0  0  0  0  0  0  0  0  0  0  0  0
   16.0411  -10.7483  -13.6848 C   0  0  0  0  0  0  0  0  0  0  0  0
   16.0756  -11.3727  -12.5832 O   0  0  0  0  0  0  0  0  0  0  0  0
   19.5443   -9.7415  -13.3400 C   0  0  0  0  0  0  0  0  0  0  0  0
   18.7111   -8.5283  -12.9909 C   0  0  1  0  0  0  0  0  0  0  0  0
   18.8888   -7.5005  -13.8754 O   0  0  0  0  0  0  0  0  0  0  0  0
   17.3085   -8.7939  -12.6415 C   0  0  2  0  0  0  0  0  0  0  0  0
   16.5964   -9.4508  -13.7390 N   0  0  0  0  0  0  0  0  0  0  0  0
   16.5130   -7.7514  -12.0074 C   0  0  0  0  0  0  0  0  0  0  0  0
   15.8724   -6.9500  -12.7567 O   0  0  0  0  0  0  0  0  0  0  0  0
   13.1257   -8.3050   -7.8340 C   0  0  0  0  0  0  0  0  0  0  0  0
   14.5049   -7.9729   -8.3568 C   0  0  0  0  0  0  0  0  0  0  0  0
   14.3789   -6.9205   -9.4158 C   0  0  2  0  0  0  0  0  0  0  0  0
   13.4731   -7.4555  -10.5036 C   0  0  0  0  0  0  0  0  0  0  0  0
   15.7156   -6.4876   -9.9763 C   0  0  2  0  0  0  0  0  0  0  0  0
   16.4167   -7.5883  -10.6122 N   0  0  0  0  0  0  0  0  0  0  0  0
   16.5422   -5.8625   -8.9112 C   0  0  0  0  0  0  0  0  0  0  0  0
   16.1904   -4.7873   -8.3414 O   0  0  0  0  0  0  0  0  0  0  0  0
   17.7392   -6.4127   -8.4788 O   0  0  0  0  0  0  0  0  0  0  0  0
  2  1  1  1
  2  5  1  0
  3  2  1  0
  4  3  1  0
  5 11  1  0
  5  6  2  0
  8  7  1  6
  8 10  1  0
  8  9  1  0
 10 12  1  0
 10 11  1  6
 12 13  2  0
 14 15  1  0
 16 18  1  0
 16 15  1  0
 16 17  1  6
 18 20  1  0
 19 12  1  0
 18 19  1  1
 20 22  1  0
 21 20  2  0
M  END
$$$$
