ADM.pdb
     RDKit          3D

 22 21  0  0  1  0  0  0  0  0999 V2000
   19.2485  -24.0270   -7.7888 C   0  0  0  0  0  0  0  0  0  0  0  0
   18.3568  -25.1122   -8.3833 C   0  0  2  0  0  0  0  0  0  0  0  0
   17.3707  -24.5674   -9.2609 N   0  0  0  0  0  0  0  0  0  0  0  0
   17.7255  -25.8190   -7.2112 C   0  0  0  0  0  0  0  0  0  0  0  0
   16.5202  -25.6180   -6.9238 O   0  0  0  0  0  0  0  0  0  0  0  0
   18.4803  -26.7301   -6.4033 N   0  0  0  0  0  0  0  0  0  0  0  0
   17.9987  -27.3925   -5.2437 C   0  0  1  0  0  0  0  0  0  0  0  0
   18.6616  -28.6469   -4.8373 C   0  0  0  0  0  0  0  0  0  0  0  0
   18.0367  -29.4208   -3.7715 C   0  0  0  0  0  0  0  0  0  0  0  0
   16.7645  -29.5514   -3.7745 O   0  0  0  0  0  0  0  0  0  0  0  0
   17.7187  -26.5142   -4.0706 C   0  0  0  0  0  0  0  0  0  0  0  0
   18.1441  -25.3380   -4.1977 O   0  0  0  0  0  0  0  0  0  0  0  0
   18.7015  -30.0385   -2.7382 O   0  0  0  0  0  0  0  0  0  0  0  0
   13.9702  -22.8762   -4.3299 C   0  0  0  0  0  0  0  0  0  0  0  0
   13.8286  -22.7996   -2.5084 S   0  0  0  0  0  0  0  0  0  0  0  0
   14.9159  -23.9769   -1.7285 C   0  0  0  0  0  0  0  0  0  0  0  0
   15.5554  -24.9775   -2.6159 C   0  0  0  0  0  0  0  0  0  0  0  0
   16.4051  -26.0073   -1.9533 C   0  0  2  0  0  0  0  0  0  0  0  0
   17.0584  -26.8790   -2.9010 N   0  0  0  0  0  0  0  0  0  0  0  0
   15.7764  -26.6956   -0.8070 C   0  0  0  0  0  0  0  0  0  0  0  0
   15.0359  -27.6796   -0.9031 O   0  0  0  0  0  0  0  0  0  0  0  0
   16.0431  -26.1999    0.4551 O   0  0  0  0  0  0  0  0  0  0  0  0
  2  1  1  1
  3  2  1  0
  4  6  1  0
  4  2  1  0
  5  4  2  0
  7  6  1  0
  7 11  1  0
  7  8  1  1
  9  8  1  0
 10  9  2  0
 11 19  1  0
 12 11  2  0
 13  9  1  0
 15 14  1  0
 16 15  1  0
 17 16  1  0
 18 20  1  0
 18 17  1  6
 19 18  1  0
 20 22  1  0
 21 20  2  0
M  END
$$$$
