ADM.pdb
     RDKit          3D

 22 21  0  0  1  0  0  0  0  0999 V2000
   23.5643  -20.6541  -16.1089 C   0  0  0  0  0  0  0  0  0  0  0  0
   24.8908  -20.1514  -15.5486 C   0  0  2  0  0  0  0  0  0  0  0  0
   24.9011  -18.7308  -15.4023 N   0  0  0  0  0  0  0  0  0  0  0  0
   25.9517  -20.6167  -16.5130 C   0  0  0  0  0  0  0  0  0  0  0  0
   26.1431  -21.8429  -16.7019 O   0  0  0  0  0  0  0  0  0  0  0  0
   26.7607  -19.6778  -17.2316 N   0  0  0  0  0  0  0  0  0  0  0  0
   27.8028  -20.0139  -18.1352 C   0  0  1  0  0  0  0  0  0  0  0  0
   28.1097  -19.0641  -19.2224 C   0  0  0  0  0  0  0  0  0  0  0  0
   27.0563  -18.7926  -20.1929 C   0  0  0  0  0  0  0  0  0  0  0  0
   26.0612  -19.5935  -20.2570 O   0  0  0  0  0  0  0  0  0  0  0  0
   29.0455  -20.5552  -17.5117 C   0  0  0  0  0  0  0  0  0  0  0  0
   29.7664  -19.6825  -16.9645 O   0  0  0  0  0  0  0  0  0  0  0  0
   27.0304  -17.7315  -21.0672 O   0  0  0  0  0  0  0  0  0  0  0  0
   28.8196  -21.3562  -12.2824 C   0  0  0  0  0  0  0  0  0  0  0  0
   30.4143  -22.2459  -12.3780 S   0  0  0  0  0  0  0  0  0  0  0  0
   30.7526  -22.7830  -14.0433 C   0  0  0  0  0  0  0  0  0  0  0  0
   29.9468  -22.1564  -15.1184 C   0  0  0  0  0  0  0  0  0  0  0  0
   30.2977  -22.5322  -16.5174 C   0  0  2  0  0  0  0  0  0  0  0  0
   29.4513  -21.8863  -17.4927 N   0  0  0  0  0  0  0  0  0  0  0  0
   30.5152  -23.9761  -16.7427 C   0  0  0  0  0  0  0  0  0  0  0  0
   29.7646  -24.7014  -17.4033 O   0  0  0  0  0  0  0  0  0  0  0  0
   31.6393  -24.5450  -16.1745 O   0  0  0  0  0  0  0  0  0  0  0  0
  2  1  1  6
  3  2  1  0
  4  6  1  0
  4  2  1  0
  5  4  2  0
  7  6  1  0
  7 11  1  0
  7  8  1  1
  9  8  1  0
 10  9  2  0
 11 19  1  0
 12 11  2  0
 13  9  1  0
 15 14  1  0
 16 15  1  0
 17 16  1  0
 18 20  1  0
 18 17  1  1
 19 18  1  0
 20 22  1  0
 21 20  2  0
M  END
$$$$
