ADM.pdb
     RDKit          3D

 22 21  0  0  1  0  0  0  0  0999 V2000
   16.9477   -8.1453  -16.5651 C   0  0  0  0  0  0  0  0  0  0  0  0
   17.7624   -6.8755  -16.7888 C   0  0  2  0  0  0  0  0  0  0  0  0
   18.5985   -6.9773  -17.9421 N   0  0  0  0  0  0  0  0  0  0  0  0
   18.5721   -6.6753  -15.5334 C   0  0  0  0  0  0  0  0  0  0  0  0
   17.9990   -6.5121  -14.4284 O   0  0  0  0  0  0  0  0  0  0  0  0
   20.0042   -6.6667  -15.5708 N   0  0  0  0  0  0  0  0  0  0  0  0
   20.8544   -6.5057  -14.4454 C   0  0  1  0  0  0  0  0  0  0  0  0
   22.0526   -7.3627  -14.3544 C   0  0  0  0  0  0  0  0  0  0  0  0
   21.8765   -8.7894  -14.5970 C   0  0  0  0  0  0  0  0  0  0  0  0
   20.8140   -9.3572  -14.1676 O   0  0  0  0  0  0  0  0  0  0  0  0
   21.1579   -5.0953  -14.0647 C   0  0  0  0  0  0  0  0  0  0  0  0
   22.3768   -4.8730  -13.8512 O   0  0  0  0  0  0  0  0  0  0  0  0
   22.7660   -9.6024  -15.2596 O   0  0  0  0  0  0  0  0  0  0  0  0
   22.1559   -1.8526  -18.4149 C   0  0  0  0  0  0  0  0  0  0  0  0
   22.5450   -0.6265  -17.1152 S   0  0  0  0  0  0  0  0  0  0  0  0
   21.6310   -0.9599  -15.6220 C   0  0  0  0  0  0  0  0  0  0  0  0
   21.2712   -2.3752  -15.3671 C   0  0  0  0  0  0  0  0  0  0  0  0
   20.4734   -2.6475  -14.1379 C   0  0  2  0  0  0  0  0  0  0  0  0
   20.2405   -4.0574  -13.9304 N   0  0  0  0  0  0  0  0  0  0  0  0
   19.2846   -1.7886  -13.9592 C   0  0  0  0  0  0  0  0  0  0  0  0
   18.1419   -2.0934  -14.3159 O   0  0  0  0  0  0  0  0  0  0  0  0
   19.4726   -0.5637  -13.3475 O   0  0  0  0  0  0  0  0  0  0  0  0
  2  1  1  1
  3  2  1  0
  4  6  1  0
  4  2  1  0
  5  4  2  0
  7  6  1  0
  7 11  1  0
  7  8  1  6
  9  8  1  0
 10  9  2  0
 11 19  1  0
 12 11  2  0
 13  9  1  0
 15 14  1  0
 16 15  1  0
 17 16  1  0
 18 20  1  0
 18 17  1  6
 19 18  1  0
 20 22  1  0
 21 20  2  0
M  END
$$$$
