ADM.pdb
     RDKit          3D

 22 21  0  0  1  0  0  0  0  0999 V2000
   23.4244  -22.8866  -16.5549 C   0  0  0  0  0  0  0  0  0  0  0  0
   22.9688  -22.0189  -15.3862 C   0  0  2  0  0  0  0  0  0  0  0  0
   22.6846  -20.6810  -15.7974 N   0  0  0  0  0  0  0  0  0  0  0  0
   24.0869  -22.0624  -14.3764 C   0  0  0  0  0  0  0  0  0  0  0  0
   24.4423  -23.1550  -13.8705 O   0  0  0  0  0  0  0  0  0  0  0  0
   24.7658  -20.8671  -13.9729 N   0  0  0  0  0  0  0  0  0  0  0  0
   25.8579  -20.8083  -13.0678 C   0  0  1  0  0  0  0  0  0  0  0  0
   26.9111  -19.8049  -13.3178 C   0  0  0  0  0  0  0  0  0  0  0  0
   27.5767  -19.8402  -14.6144 C   0  0  0  0  0  0  0  0  0  0  0  0
   27.8091  -20.9767  -15.1528 O   0  0  0  0  0  0  0  0  0  0  0  0
   25.4994  -20.8795  -11.6213 C   0  0  0  0  0  0  0  0  0  0  0  0
   24.3029  -20.5822  -11.3745 O   0  0  0  0  0  0  0  0  0  0  0  0
   27.9884  -18.7408  -15.3306 O   0  0  0  0  0  0  0  0  0  0  0  0
   28.4200  -20.0188   -4.3456 C   0  0  0  0  0  0  0  0  0  0  0  0
   28.4083  -19.5066   -6.1009 S   0  0  0  0  0  0  0  0  0  0  0  0
   27.0413  -20.2421   -6.9766 C   0  0  0  0  0  0  0  0  0  0  0  0
   27.2148  -20.4326   -8.4365 C   0  0  0  0  0  0  0  0  0  0  0  0
   26.0928  -21.0970   -9.1583 C   0  0  2  0  0  0  0  0  0  0  0  0
   26.3464  -21.2288  -10.5737 N   0  0  0  0  0  0  0  0  0  0  0  0
   24.7444  -20.6020   -8.8122 C   0  0  0  0  0  0  0  0  0  0  0  0
   24.2005  -19.6273   -9.3413 O   0  0  0  0  0  0  0  0  0  0  0  0
   24.0504  -21.2839   -7.8308 O   0  0  0  0  0  0  0  0  0  0  0  0
  2  1  1  6
  3  2  1  0
  4  6  1  0
  4  2  1  0
  5  4  2  0
  7  6  1  0
  7 11  1  0
  7  8  1  1
  9  8  1  0
 10  9  2  0
 11 19  1  0
 12 11  2  0
 13  9  1  0
 15 14  1  0
 16 15  1  0
 17 16  1  0
 18 20  1  0
 18 17  1  6
 19 18  1  0
 20 22  1  0
 21 20  2  0
M  END
$$$$
