ADM.pdb
     RDKit          3D

 22 21  0  0  1  0  0  0  0  0999 V2000
   23.0517  -20.9490  -17.1401 C   0  0  0  0  0  0  0  0  0  0  0  0
   22.7982  -20.4812  -15.7107 C   0  0  2  0  0  0  0  0  0  0  0  0
   22.4592  -19.0949  -15.6580 N   0  0  0  0  0  0  0  0  0  0  0  0
   24.0656  -20.7711  -14.9482 C   0  0  0  0  0  0  0  0  0  0  0  0
   24.4824  -21.9499  -14.8357 O   0  0  0  0  0  0  0  0  0  0  0  0
   24.8192  -19.7163  -14.3384 N   0  0  0  0  0  0  0  0  0  0  0  0
   25.9887  -19.8904  -13.5527 C   0  0  1  0  0  0  0  0  0  0  0  0
   27.1010  -18.9399  -13.7466 C   0  0  0  0  0  0  0  0  0  0  0  0
   27.5958  -18.7549  -15.1055 C   0  0  0  0  0  0  0  0  0  0  0  0
   27.8268  -19.7904  -15.8195 O   0  0  0  0  0  0  0  0  0  0  0  0
   25.7559  -20.1757  -12.1068 C   0  0  0  0  0  0  0  0  0  0  0  0
   24.7826  -19.5526  -11.6117 O   0  0  0  0  0  0  0  0  0  0  0  0
   27.8437  -17.5432  -15.7068 O   0  0  0  0  0  0  0  0  0  0  0  0
   28.0377  -18.3158   -6.1652 C   0  0  0  0  0  0  0  0  0  0  0  0
   28.5059  -20.0297   -6.5981 S   0  0  0  0  0  0  0  0  0  0  0  0
   27.2480  -20.8087   -7.5916 C   0  0  0  0  0  0  0  0  0  0  0  0
   27.4186  -20.7256   -9.0619 C   0  0  0  0  0  0  0  0  0  0  0  0
   26.3177  -21.2915   -9.8921 C   0  0  2  0  0  0  0  0  0  0  0  0
   26.4988  -21.0336  -11.3013 N   0  0  0  0  0  0  0  0  0  0  0  0
   24.9542  -21.0354   -9.3839 C   0  0  0  0  0  0  0  0  0  0  0  0
   24.2823  -20.0358   -9.6579 O   0  0  0  0  0  0  0  0  0  0  0  0
   24.3995  -21.9860   -8.5481 O   0  0  0  0  0  0  0  0  0  0  0  0
  2  1  1  6
  3  2  1  0
  4  6  1  0
  4  2  1  0
  5  4  2  0
  7  6  1  0
  7 11  1  0
  7  8  1  1
  9  8  1  0
 10  9  2  0
 11 19  1  0
 12 11  2  0
 13  9  1  0
 15 14  1  0
 16 15  1  0
 17 16  1  0
 18 20  1  0
 18 17  1  1
 19 18  1  0
 20 22  1  0
 21 20  2  0
M  END
$$$$
