ADM.pdb
     RDKit          3D

 22 21  0  0  1  0  0  0  0  0999 V2000
   16.5304  -13.5651  -14.1837 C   0  0  0  0  0  0  0  0  0  0  0  0
   15.7208  -12.2754  -14.0975 C   0  0  2  0  0  0  0  0  0  0  0  0
   15.4256  -11.7463  -15.3907 N   0  0  0  0  0  0  0  0  0  0  0  0
   16.5521  -11.3172  -13.2834 C   0  0  0  0  0  0  0  0  0  0  0  0
   16.7783  -11.5466  -12.0701 O   0  0  0  0  0  0  0  0  0  0  0  0
   17.1000  -10.1307  -13.8705 N   0  0  0  0  0  0  0  0  0  0  0  0
   17.7446   -9.0847  -13.1595 C   0  0  1  0  0  0  0  0  0  0  0  0
   18.7238   -8.2539  -13.8870 C   0  0  0  0  0  0  0  0  0  0  0  0
   19.4610   -7.2584  -13.1184 C   0  0  0  0  0  0  0  0  0  0  0  0
   19.3265   -7.2438  -11.8466 O   0  0  0  0  0  0  0  0  0  0  0  0
   16.8587   -8.2557  -12.2911 C   0  0  0  0  0  0  0  0  0  0  0  0
   15.9996   -7.5897  -12.9228 O   0  0  0  0  0  0  0  0  0  0  0  0
   20.3077   -6.3105  -13.6437 O   0  0  0  0  0  0  0  0  0  0  0  0
   11.4011   -7.3992   -7.1080 C   0  0  0  0  0  0  0  0  0  0  0  0
   12.6802   -8.4561   -7.8768 S   0  0  0  0  0  0  0  0  0  0  0  0
   13.9644   -7.4716   -8.6238 C   0  0  0  0  0  0  0  0  0  0  0  0
   15.0228   -8.2076   -9.3557 C   0  0  0  0  0  0  0  0  0  0  0  0
   16.0539   -7.3800  -10.0437 C   0  0  2  0  0  0  0  0  0  0  0  0
   16.9092   -8.1638  -10.9034 N   0  0  0  0  0  0  0  0  0  0  0  0
   16.7606   -6.4127   -9.1789 C   0  0  0  0  0  0  0  0  0  0  0  0
   17.9661   -6.4624   -8.9143 O   0  0  0  0  0  0  0  0  0  0  0  0
   16.0148   -5.3837   -8.6360 O   0  0  0  0  0  0  0  0  0  0  0  0
  2  1  1  6
  3  2  1  0
  4  6  1  0
  4  2  1  0
  5  4  2  0
  7  6  1  0
  7 11  1  0
  7  8  1  6
  9  8  1  0
 10  9  2  0
 11 19  1  0
 12 11  2  0
 13  9  1  0
 15 14  1  0
 16 15  1  0
 17 16  1  0
 18 20  1  0
 18 17  1  1
 19 18  1  0
 20 22  1  0
 21 20  2  0
M  END
$$$$
