ADM.pdb
     RDKit          3D

 22 21  0  0  1  0  0  0  0  0999 V2000
   21.7333  -13.3057  -19.9654 C   0  0  0  0  0  0  0  0  0  0  0  0
   20.5117  -12.8018  -19.2037 C   0  0  2  0  0  0  0  0  0  0  0  0
   19.3604  -12.7152  -20.0443 N   0  0  0  0  0  0  0  0  0  0  0  0
   20.8954  -11.4539  -18.6491 C   0  0  0  0  0  0  0  0  0  0  0  0
   21.8188  -11.3552  -17.8044 O   0  0  0  0  0  0  0  0  0  0  0  0
   20.2207  -10.2621  -19.0695 N   0  0  0  0  0  0  0  0  0  0  0  0
   20.4017   -8.9726  -18.5040 C   0  0  1  0  0  0  0  0  0  0  0  0
   20.7082   -7.8533  -19.4160 C   0  0  0  0  0  0  0  0  0  0  0  0
   20.1332   -6.5521  -19.0974 C   0  0  0  0  0  0  0  0  0  0  0  0
   19.0524   -6.2000  -19.6834 O   0  0  0  0  0  0  0  0  0  0  0  0
   19.4037   -8.5788  -17.4672 C   0  0  0  0  0  0  0  0  0  0  0  0
   18.2120   -8.6041  -17.8671 O   0  0  0  0  0  0  0  0  0  0  0  0
   20.6555   -5.6454  -18.2050 O   0  0  0  0  0  0  0  0  0  0  0  0
   16.2647   -9.4364  -10.4710 C   0  0  0  0  0  0  0  0  0  0  0  0
   17.6126   -9.8177  -11.6465 S   0  0  0  0  0  0  0  0  0  0  0  0
   17.7040   -8.5943  -12.9392 C   0  0  0  0  0  0  0  0  0  0  0  0
   18.6897   -8.8425  -14.0182 C   0  0  0  0  0  0  0  0  0  0  0  0
   18.7252   -7.8482  -15.1281 C   0  0  2  0  0  0  0  0  0  0  0  0
   19.6762   -8.2002  -16.1560 N   0  0  0  0  0  0  0  0  0  0  0  0
   18.7659   -6.4342  -14.7018 C   0  0  0  0  0  0  0  0  0  0  0  0
   19.7798   -5.7287  -14.7161 O   0  0  0  0  0  0  0  0  0  0  0  0
   17.5838   -5.8697  -14.2616 O   0  0  0  0  0  0  0  0  0  0  0  0
  2  1  1  6
  3  2  1  0
  4  6  1  0
  4  2  1  0
  5  4  2  0
  7  6  1  0
  7 11  1  0
  7  8  1  6
  9  8  1  0
 10  9  2  0
 11 19  1  0
 12 11  2  0
 13  9  1  0
 15 14  1  0
 16 15  1  0
 17 16  1  0
 18 20  1  0
 18 17  1  1
 19 18  1  0
 20 22  1  0
 21 20  2  0
M  END
$$$$
