DER.pdb
     RDKit          3D

 29 28  0  0  1  0  0  0  0  0999 V2000
   10.3225  -16.4922   16.0466 N   0  0  0  0  0  0  0  0  0  0  0  0
   10.8327  -15.3246   16.6954 C   0  0  1  0  0  0  0  0  0  0  0  0
    9.6525  -14.5601   17.3071 C   0  0  0  0  0  0  0  0  0  0  0  0
    8.7601  -14.2028   16.1876 C   0  0  0  0  0  0  0  0  0  0  0  0
    9.0279  -14.6036   15.0378 O   0  0  0  0  0  0  0  0  0  0  0  0
   11.8261  -15.6123   17.7538 C   0  0  0  0  0  0  0  0  0  0  0  0
   11.6417  -16.6753   18.4260 O   0  0  0  0  0  0  0  0  0  0  0  0
    7.6448  -13.4313   16.4317 O   0  0  0  0  0  0  0  0  0  0  0  0
   12.9306  -14.7855   18.0388 N   0  0  0  0  0  0  0  0  0  0  0  0
   13.9648  -15.1469   18.9924 C   0  0  1  0  0  0  0  0  0  0  0  0
   15.3212  -14.7518   18.5334 C   0  0  0  0  0  0  0  0  0  0  0  0
   15.5209  -13.4000   17.9912 C   0  0  0  0  0  0  0  0  0  0  0  0
   16.8460  -13.0265   17.5013 C   0  0  0  0  0  0  0  0  0  0  0  0
   17.7978  -12.6765   18.2213 O   0  0  0  0  0  0  0  0  0  0  0  0
   13.6089  -14.9105   20.3852 C   0  0  0  0  0  0  0  0  0  0  0  0
   12.5831  -14.1977   20.6624 O   0  0  0  0  0  0  0  0  0  0  0  0
   17.1268  -13.0441   16.1204 O   0  0  0  0  0  0  0  0  0  0  0  0
   12.3101  -21.9603   25.4006 N   0  0  0  0  0  0  0  0  0  0  0  0
   11.3283  -21.3011   24.5890 C   0  0  0  0  0  0  0  0  0  0  0  0
   10.3484  -21.9712   24.0671 N   0  0  0  0  0  0  0  0  0  0  0  0
   11.3852  -19.9058   24.3228 N   0  0  0  0  0  0  0  0  0  0  0  0
   12.6061  -19.2373   23.9273 C   0  0  0  0  0  0  0  0  0  0  0  0
   12.2210  -17.8198   23.5164 C   0  0  0  0  0  0  0  0  0  0  0  0
   13.0662  -17.3305   22.3756 C   0  0  0  0  0  0  0  0  0  0  0  0
   13.6375  -15.9946   22.6743 C   0  0  2  0  0  0  0  0  0  0  0  0
   14.3208  -15.4231   21.5078 N   0  0  0  0  0  0  0  0  0  0  0  0
   14.5084  -15.9844   23.8612 C   0  0  0  0  0  0  0  0  0  0  0  0
   13.8578  -16.2373   25.0992 O   0  0  0  0  0  0  0  0  0  0  0  0
   15.7296  -15.7822   23.9028 O   0  0  0  0  0  0  0  0  0  0  0  0
  2  3  1  0
  2  1  1  1
  3  4  1  0
  4  5  2  0
  6  2  1  0
  6  7  2  0
  8  4  1  0
  9  6  1  0
 10  9  1  0
 10 15  1  0
 10 11  1  6
 12 11  1  0
 12 13  1  0
 13 14  2  0
 15 26  1  0
 16 15  2  0
 17 13  1  0
 18 19  1  0
 19 21  1  0
 20 19  2  0
 21 22  1  0
 22 23  1  0
 23 24  1  0
 25 24  1  6
 25 27  1  0
 26 25  1  0
 27 29  2  0
 27 28  1  0
M  END
$$$$
