DER.pdb
     RDKit          3D

 29 28  0  0  1  0  0  0  0  0999 V2000
   10.8913  -20.3112   18.4682 N   0  0  0  0  0  0  0  0  0  0  0  0
   11.4645  -19.0014   18.4871 C   0  0  1  0  0  0  0  0  0  0  0  0
   10.3602  -17.9984   18.8419 C   0  0  0  0  0  0  0  0  0  0  0  0
    9.3865  -18.0391   17.7340 C   0  0  0  0  0  0  0  0  0  0  0  0
    9.4809  -18.9297   16.8667 O   0  0  0  0  0  0  0  0  0  0  0  0
   12.5836  -18.8503   19.4436 C   0  0  0  0  0  0  0  0  0  0  0  0
   12.5376  -19.5783   20.4845 O   0  0  0  0  0  0  0  0  0  0  0  0
    8.3881  -17.0912   17.6762 O   0  0  0  0  0  0  0  0  0  0  0  0
   13.6618  -17.9632   19.2558 N   0  0  0  0  0  0  0  0  0  0  0  0
   14.7752  -17.8631   20.1829 C   0  0  1  0  0  0  0  0  0  0  0  0
   16.0762  -17.6853   19.4882 C   0  0  0  0  0  0  0  0  0  0  0  0
   17.2949  -17.5248   20.2944 C   0  0  0  0  0  0  0  0  0  0  0  0
   18.5609  -17.2637   19.6128 C   0  0  0  0  0  0  0  0  0  0  0  0
   19.3318  -18.1405   19.1841 O   0  0  0  0  0  0  0  0  0  0  0  0
   14.5047  -17.0541   21.3638 C   0  0  0  0  0  0  0  0  0  0  0  0
   14.2869  -15.8000   21.2336 O   0  0  0  0  0  0  0  0  0  0  0  0
   18.9942  -15.9404   19.3960 O   0  0  0  0  0  0  0  0  0  0  0  0
    9.5961  -15.2294   26.8374 N   0  0  0  0  0  0  0  0  0  0  0  0
   10.7976  -15.0579   27.6017 C   0  0  0  0  0  0  0  0  0  0  0  0
   11.1575  -13.8797   28.0066 N   0  0  0  0  0  0  0  0  0  0  0  0
   11.6359  -16.1542   27.9429 N   0  0  0  0  0  0  0  0  0  0  0  0
   12.0400  -17.1554   26.9794 C   0  0  0  0  0  0  0  0  0  0  0  0
   12.8305  -16.4312   25.8944 C   0  0  0  0  0  0  0  0  0  0  0  0
   13.4140  -17.3971   24.9036 C   0  0  0  0  0  0  0  0  0  0  0  0
   14.1688  -16.6807   23.8465 C   0  0  2  0  0  0  0  0  0  0  0  0
   14.4532  -17.5499   22.6985 N   0  0  0  0  0  0  0  0  0  0  0  0
   15.3943  -16.0326   24.3419 C   0  0  0  0  0  0  0  0  0  0  0  0
   15.2278  -14.7144   24.8465 O   0  0  0  0  0  0  0  0  0  0  0  0
   16.5409  -16.5002   24.3681 O   0  0  0  0  0  0  0  0  0  0  0  0
  2  3  1  0
  2  1  1  1
  3  4  1  0
  4  5  2  0
  6  2  1  0
  6  7  2  0
  8  4  1  0
  9  6  1  0
 10  9  1  0
 10 15  1  0
 10 11  1  6
 12 11  1  0
 12 13  1  0
 13 14  2  0
 15 26  1  0
 16 15  2  0
 17 13  1  0
 18 19  1  0
 19 21  1  0
 20 19  2  0
 21 22  1  0
 22 23  1  0
 23 24  1  0
 25 24  1  1
 25 27  1  0
 26 25  1  0
 27 29  2  0
 27 28  1  0
M  END
$$$$
