DER.pdb
     RDKit          3D

 29 28  0  0  1  0  0  0  0  0999 V2000
    9.1921  -12.6414   18.4984 N   0  0  0  0  0  0  0  0  0  0  0  0
    8.1180  -13.3519   19.1198 C   0  0  1  0  0  0  0  0  0  0  0  0
    7.1219  -13.7665   18.0301 C   0  0  0  0  0  0  0  0  0  0  0  0
    7.8904  -14.5333   17.0307 C   0  0  0  0  0  0  0  0  0  0  0  0
    9.1045  -14.7440   17.2202 O   0  0  0  0  0  0  0  0  0  0  0  0
    8.5477  -14.5542   19.8680 C   0  0  0  0  0  0  0  0  0  0  0  0
    7.6299  -15.2146   20.4487 O   0  0  0  0  0  0  0  0  0  0  0  0
    7.2529  -15.0041   15.9035 O   0  0  0  0  0  0  0  0  0  0  0  0
    9.8863  -14.9834   19.9611 N   0  0  0  0  0  0  0  0  0  0  0  0
   10.2988  -16.1206   20.7649 C   0  0  1  0  0  0  0  0  0  0  0  0
   11.3872  -16.9021   20.1235 C   0  0  0  0  0  0  0  0  0  0  0  0
   11.9292  -18.0734   20.8273 C   0  0  0  0  0  0  0  0  0  0  0  0
   13.0371  -18.8087   20.2213 C   0  0  0  0  0  0  0  0  0  0  0  0
   13.6227  -19.7723   20.7461 O   0  0  0  0  0  0  0  0  0  0  0  0
   10.3918  -15.8468   22.1927 C   0  0  0  0  0  0  0  0  0  0  0  0
   11.2491  -14.9976   22.6181 O   0  0  0  0  0  0  0  0  0  0  0  0
   13.5225  -18.4458   18.9491 O   0  0  0  0  0  0  0  0  0  0  0  0
    6.6846  -10.7227   25.6056 N   0  0  0  0  0  0  0  0  0  0  0  0
    6.2225  -11.7901   26.4449 C   0  0  0  0  0  0  0  0  0  0  0  0
    5.2826  -11.5839   27.3142 N   0  0  0  0  0  0  0  0  0  0  0  0
    6.7666  -13.1009   26.3642 N   0  0  0  0  0  0  0  0  0  0  0  0
    8.1711  -13.3760   26.5778 C   0  0  0  0  0  0  0  0  0  0  0  0
    8.3605  -14.8782   26.3935 C   0  0  0  0  0  0  0  0  0  0  0  0
    8.3658  -15.2563   24.9401 C   0  0  0  0  0  0  0  0  0  0  0  0
    9.5969  -16.0072   24.5923 C   0  0  2  0  0  0  0  0  0  0  0  0
    9.5828  -16.4558   23.1949 N   0  0  0  0  0  0  0  0  0  0  0  0
    9.8775  -17.1246   25.5089 C   0  0  0  0  0  0  0  0  0  0  0  0
   10.0851  -18.3866   24.8891 O   0  0  0  0  0  0  0  0  0  0  0  0
    9.9517  -17.0900   26.7447 O   0  0  0  0  0  0  0  0  0  0  0  0
  2  3  1  0
  2  1  1  6
  3  4  1  0
  4  5  2  0
  6  2  1  0
  6  7  2  0
  8  4  1  0
  9  6  1  0
 10  9  1  0
 10 15  1  0
 10 11  1  6
 12 11  1  0
 12 13  1  0
 13 14  2  0
 15 26  1  0
 16 15  2  0
 17 13  1  0
 18 19  1  0
 19 21  1  0
 20 19  2  0
 21 22  1  0
 22 23  1  0
 23 24  1  0
 25 24  1  1
 25 27  1  0
 26 25  1  0
 27 29  2  0
 27 28  1  0
M  END
$$$$
