DER.pdb
     RDKit          3D

 29 28  0  0  1  0  0  0  0  0999 V2000
   12.1973  -17.4248   15.9655 N   0  0  0  0  0  0  0  0  0  0  0  0
   12.4671  -18.0915   17.2014 C   0  0  1  0  0  0  0  0  0  0  0  0
   13.9147  -17.7873   17.6056 C   0  0  0  0  0  0  0  0  0  0  0  0
   14.7763  -18.4841   16.6312 C   0  0  0  0  0  0  0  0  0  0  0  0
   14.7891  -18.1061   15.4432 O   0  0  0  0  0  0  0  0  0  0  0  0
   11.5620  -17.6992   18.3045 C   0  0  0  0  0  0  0  0  0  0  0  0
   11.2751  -16.4635   18.3857 O   0  0  0  0  0  0  0  0  0  0  0  0
   15.5530  -19.5421   17.0507 O   0  0  0  0  0  0  0  0  0  0  0  0
   11.0230  -18.6067   19.2375 N   0  0  0  0  0  0  0  0  0  0  0  0
   10.0661  -18.2177   20.2584 C   0  0  1  0  0  0  0  0  0  0  0  0
    8.8330  -19.0452   20.2233 C   0  0  0  0  0  0  0  0  0  0  0  0
    8.3090  -19.4829   18.9214 C   0  0  0  0  0  0  0  0  0  0  0  0
    7.1645  -20.3909   18.8920 C   0  0  0  0  0  0  0  0  0  0  0  0
    7.2417  -21.6322   18.8794 O   0  0  0  0  0  0  0  0  0  0  0  0
   10.6584  -17.9123   21.5539 C   0  0  0  0  0  0  0  0  0  0  0  0
   11.8297  -18.3464   21.8307 O   0  0  0  0  0  0  0  0  0  0  0  0
    5.8506  -19.8818   18.8754 O   0  0  0  0  0  0  0  0  0  0  0  0
    9.9136  -14.6186   30.7778 N   0  0  0  0  0  0  0  0  0  0  0  0
    9.7519  -14.2363   29.4048 C   0  0  0  0  0  0  0  0  0  0  0  0
    9.1777  -13.1151   29.0971 N   0  0  0  0  0  0  0  0  0  0  0  0
   10.2051  -15.0572   28.3363 N   0  0  0  0  0  0  0  0  0  0  0  0
    9.6298  -14.9974   27.0098 C   0  0  0  0  0  0  0  0  0  0  0  0
   10.3907  -16.0031   26.1520 C   0  0  0  0  0  0  0  0  0  0  0  0
    9.8702  -16.0278   24.7435 C   0  0  0  0  0  0  0  0  0  0  0  0
   10.5881  -17.0400   23.9309 C   0  0  2  0  0  0  0  0  0  0  0  0
   10.0327  -17.1420   22.5762 N   0  0  0  0  0  0  0  0  0  0  0  0
   10.6643  -18.3604   24.5775 C   0  0  0  0  0  0  0  0  0  0  0  0
   11.8546  -18.6140   25.3116 O   0  0  0  0  0  0  0  0  0  0  0  0
    9.8187  -19.2650   24.5541 O   0  0  0  0  0  0  0  0  0  0  0  0
  2  3  1  0
  2  1  1  6
  3  4  1  0
  4  5  2  0
  6  2  1  0
  6  7  2  0
  8  4  1  0
  9  6  1  0
 10  9  1  0
 10 15  1  0
 10 11  1  1
 12 11  1  0
 12 13  1  0
 13 14  2  0
 15 26  1  0
 16 15  2  0
 17 13  1  0
 18 19  1  0
 19 21  1  0
 20 19  2  0
 21 22  1  0
 22 23  1  0
 23 24  1  0
 25 24  1  1
 25 27  1  0
 26 25  1  0
 27 29  2  0
 27 28  1  0
M  END
$$$$
