DER.pdb
     RDKit          3D

 29 28  0  0  1  0  0  0  0  0999 V2000
   10.5288  -15.7778   15.2473 N   0  0  0  0  0  0  0  0  0  0  0  0
   10.5926  -15.1399   16.5254 C   0  0  1  0  0  0  0  0  0  0  0  0
    9.2613  -15.3775   17.2483 C   0  0  0  0  0  0  0  0  0  0  0  0
    8.5249  -14.0997   17.1995 C   0  0  0  0  0  0  0  0  0  0  0  0
    8.6411  -13.3626   16.2007 O   0  0  0  0  0  0  0  0  0  0  0  0
   11.7017  -15.6190   17.3800 C   0  0  0  0  0  0  0  0  0  0  0  0
   12.5761  -16.3468   16.8132 O   0  0  0  0  0  0  0  0  0  0  0  0
    7.7205  -13.7419   18.2595 O   0  0  0  0  0  0  0  0  0  0  0  0
   11.8253  -15.3130   18.7496 N   0  0  0  0  0  0  0  0  0  0  0  0
   12.9720  -15.7081   19.5486 C   0  0  1  0  0  0  0  0  0  0  0  0
   14.2556  -15.5344   18.8213 C   0  0  0  0  0  0  0  0  0  0  0  0
   14.3977  -14.4035   17.8928 C   0  0  0  0  0  0  0  0  0  0  0  0
   15.6918  -14.1753   17.2538 C   0  0  0  0  0  0  0  0  0  0  0  0
   16.7903  -14.2227   17.8352 O   0  0  0  0  0  0  0  0  0  0  0  0
   12.9053  -15.2942   20.9438 C   0  0  0  0  0  0  0  0  0  0  0  0
   12.9344  -14.0485   21.2349 O   0  0  0  0  0  0  0  0  0  0  0  0
   15.7651  -13.8748   15.8790 O   0  0  0  0  0  0  0  0  0  0  0  0
    7.6335  -12.9884   21.7580 N   0  0  0  0  0  0  0  0  0  0  0  0
    7.1026  -13.4335   23.0139 C   0  0  0  0  0  0  0  0  0  0  0  0
    6.5927  -12.5844   23.8509 N   0  0  0  0  0  0  0  0  0  0  0  0
    7.1131  -14.8037   23.3926 N   0  0  0  0  0  0  0  0  0  0  0  0
    7.9287  -15.7917   22.7199 C   0  0  0  0  0  0  0  0  0  0  0  0
    9.3071  -15.7448   23.3712 C   0  0  0  0  0  0  0  0  0  0  0  0
   10.3846  -16.1453   22.4047 C   0  0  0  0  0  0  0  0  0  0  0  0
   11.7218  -16.0750   23.0427 C   0  0  2  0  0  0  0  0  0  0  0  0
   12.8014  -16.1809   22.0541 N   0  0  0  0  0  0  0  0  0  0  0  0
   11.8997  -17.0472   24.1338 C   0  0  0  0  0  0  0  0  0  0  0  0
   11.1311  -16.8011   25.3036 O   0  0  0  0  0  0  0  0  0  0  0  0
   12.6352  -18.0436   24.1478 O   0  0  0  0  0  0  0  0  0  0  0  0
  2  3  1  0
  2  1  1  6
  3  4  1  0
  4  5  2  0
  6  2  1  0
  6  7  2  0
  8  4  1  0
  9  6  1  0
 10  9  1  0
 10 15  1  0
 10 11  1  6
 12 11  1  0
 12 13  1  0
 13 14  2  0
 15 26  1  0
 16 15  2  0
 17 13  1  0
 18 19  1  0
 19 21  1  0
 20 19  2  0
 21 22  1  0
 22 23  1  0
 23 24  1  0
 25 24  1  6
 25 27  1  0
 26 25  1  0
 27 29  2  0
 27 28  1  0
M  END
$$$$
