DER.pdb
     RDKit          3D

 29 28  0  0  1  0  0  0  0  0999 V2000
    9.5200  -16.7679   18.0925 N   0  0  0  0  0  0  0  0  0  0  0  0
    8.7486  -17.2089   19.2129 C   0  0  1  0  0  0  0  0  0  0  0  0
    8.1030  -18.5524   18.8530 C   0  0  0  0  0  0  0  0  0  0  0  0
    7.9218  -18.5506   17.3886 C   0  0  0  0  0  0  0  0  0  0  0  0
    8.8331  -18.1140   16.6583 O   0  0  0  0  0  0  0  0  0  0  0  0
    9.5338  -17.3651   20.4574 C   0  0  0  0  0  0  0  0  0  0  0  0
    8.8948  -17.7664   21.4803 O   0  0  0  0  0  0  0  0  0  0  0  0
    6.7473  -19.0316   16.8520 O   0  0  0  0  0  0  0  0  0  0  0  0
   10.9134  -17.0966   20.5535 N   0  0  0  0  0  0  0  0  0  0  0  0
   11.6611  -17.2282   21.7917 C   0  0  1  0  0  0  0  0  0  0  0  0
   13.1298  -17.1812   21.5738 C   0  0  0  0  0  0  0  0  0  0  0  0
   14.0240  -17.3430   22.7294 C   0  0  0  0  0  0  0  0  0  0  0  0
   15.4667  -17.2340   22.5242 C   0  0  0  0  0  0  0  0  0  0  0  0
   16.1539  -18.0349   21.8659 O   0  0  0  0  0  0  0  0  0  0  0  0
   11.1035  -16.4853   22.9139 C   0  0  0  0  0  0  0  0  0  0  0  0
   11.4465  -15.2662   23.0968 O   0  0  0  0  0  0  0  0  0  0  0  0
   16.1885  -16.1638   23.0895 O   0  0  0  0  0  0  0  0  0  0  0  0
    4.9363  -13.3650   26.0835 N   0  0  0  0  0  0  0  0  0  0  0  0
    5.8712  -12.2991   25.8658 C   0  0  0  0  0  0  0  0  0  0  0  0
    5.6987  -11.1462   26.4338 N   0  0  0  0  0  0  0  0  0  0  0  0
    7.0098  -12.4553   25.0292 N   0  0  0  0  0  0  0  0  0  0  0  0
    7.3253  -13.7031   24.3677 C   0  0  0  0  0  0  0  0  0  0  0  0
    7.7976  -14.6697   25.4490 C   0  0  0  0  0  0  0  0  0  0  0  0
    8.1922  -15.9959   24.8651 C   0  0  0  0  0  0  0  0  0  0  0  0
    9.6562  -16.2085   24.9741 C   0  0  2  0  0  0  0  0  0  0  0  0
   10.1733  -17.0086   23.8577 N   0  0  0  0  0  0  0  0  0  0  0  0
   10.0693  -16.7708   26.2704 C   0  0  0  0  0  0  0  0  0  0  0  0
   10.7337  -18.0258   26.2088 O   0  0  0  0  0  0  0  0  0  0  0  0
    9.9049  -16.2803   27.3957 O   0  0  0  0  0  0  0  0  0  0  0  0
  2  3  1  0
  2  1  1  6
  3  4  1  0
  4  5  2  0
  6  2  1  0
  6  7  2  0
  8  4  1  0
  9  6  1  0
 10  9  1  0
 10 15  1  0
 10 11  1  6
 12 11  1  0
 12 13  1  0
 13 14  2  0
 15 26  1  0
 16 15  2  0
 17 13  1  0
 18 19  1  0
 19 21  1  0
 20 19  2  0
 21 22  1  0
 22 23  1  0
 23 24  1  0
 25 24  1  1
 25 27  1  0
 26 25  1  0
 27 29  2  0
 27 28  1  0
M  END
$$$$
