DER.pdb
     RDKit          3D

 29 28  0  0  1  0  0  0  0  0999 V2000
   12.4065  -18.2778   15.3447 N   0  0  0  0  0  0  0  0  0  0  0  0
   11.2866  -17.7841   16.0841 C   0  0  1  0  0  0  0  0  0  0  0  0
   10.0070  -18.3357   15.4441 C   0  0  0  0  0  0  0  0  0  0  0  0
    9.9887  -17.8426   14.0535 C   0  0  0  0  0  0  0  0  0  0  0  0
   11.0443  -17.4282   13.5356 O   0  0  0  0  0  0  0  0  0  0  0  0
   11.3079  -18.1472   17.5185 C   0  0  0  0  0  0  0  0  0  0  0  0
   10.3578  -17.6916   18.2294 O   0  0  0  0  0  0  0  0  0  0  0  0
    8.8040  -17.8480   13.3497 O   0  0  0  0  0  0  0  0  0  0  0  0
   12.3034  -18.9495   18.1100 N   0  0  0  0  0  0  0  0  0  0  0  0
   12.3603  -19.2175   19.5363 C   0  0  1  0  0  0  0  0  0  0  0  0
   13.4916  -20.1087   19.9003 C   0  0  0  0  0  0  0  0  0  0  0  0
   13.6443  -20.5252   21.3018 C   0  0  0  0  0  0  0  0  0  0  0  0
   14.7519  -21.4096   21.6570 C   0  0  0  0  0  0  0  0  0  0  0  0
   15.0114  -21.7967   22.8102 O   0  0  0  0  0  0  0  0  0  0  0  0
   12.0933  -18.0587   20.3779 C   0  0  0  0  0  0  0  0  0  0  0  0
   12.8537  -17.0326   20.2992 O   0  0  0  0  0  0  0  0  0  0  0  0
   15.6257  -21.8928   20.6625 O   0  0  0  0  0  0  0  0  0  0  0  0
    8.3168  -11.4469   20.3725 N   0  0  0  0  0  0  0  0  0  0  0  0
    7.4764  -12.6014   20.2374 C   0  0  0  0  0  0  0  0  0  0  0  0
    6.3119  -12.5056   19.6750 N   0  0  0  0  0  0  0  0  0  0  0  0
    7.8751  -13.8822   20.7081 N   0  0  0  0  0  0  0  0  0  0  0  0
    7.8719  -14.2319   22.1123 C   0  0  0  0  0  0  0  0  0  0  0  0
    9.2422  -14.8251   22.4233 C   0  0  0  0  0  0  0  0  0  0  0  0
    9.4519  -16.1277   21.7059 C   0  0  0  0  0  0  0  0  0  0  0  0
   10.7578  -16.7293   22.0706 C   0  0  2  0  0  0  0  0  0  0  0  0
   11.0212  -17.9571   21.3106 N   0  0  0  0  0  0  0  0  0  0  0  0
   10.9136  -16.9532   23.5173 C   0  0  0  0  0  0  0  0  0  0  0  0
   11.4792  -15.8719   24.2460 O   0  0  0  0  0  0  0  0  0  0  0  0
   10.6117  -17.9654   24.1639 O   0  0  0  0  0  0  0  0  0  0  0  0
  2  3  1  0
  2  1  1  6
  3  4  1  0
  4  5  2  0
  6  2  1  0
  6  7  2  0
  8  4  1  0
  9  6  1  0
 10  9  1  0
 10 15  1  0
 10 11  1  1
 12 11  1  0
 12 13  1  0
 13 14  2  0
 15 26  1  0
 16 15  2  0
 17 13  1  0
 18 19  1  0
 19 21  1  0
 20 19  2  0
 21 22  1  0
 22 23  1  0
 23 24  1  0
 25 24  1  1
 25 27  1  0
 26 25  1  0
 27 29  2  0
 27 28  1  0
M  END
$$$$
