DER.pdb
     RDKit          3D

 29 28  0  0  1  0  0  0  0  0999 V2000
   10.7680  -17.4078   17.1173 N   0  0  0  0  0  0  0  0  0  0  0  0
   11.9630  -18.1480   17.3799 C   0  0  1  0  0  0  0  0  0  0  0  0
   13.1426  -17.3943   16.7540 C   0  0  0  0  0  0  0  0  0  0  0  0
   12.8785  -17.3344   15.3035 C   0  0  0  0  0  0  0  0  0  0  0  0
   11.7260  -17.0831   14.8998 O   0  0  0  0  0  0  0  0  0  0  0  0
   12.2318  -18.3618   18.8193 C   0  0  0  0  0  0  0  0  0  0  0  0
   12.5798  -19.5361   19.1594 O   0  0  0  0  0  0  0  0  0  0  0  0
   13.9108  -17.5574   14.4185 O   0  0  0  0  0  0  0  0  0  0  0  0
   12.1219  -17.3528   19.7963 N   0  0  0  0  0  0  0  0  0  0  0  0
   12.4613  -17.5627   21.1928 C   0  0  1  0  0  0  0  0  0  0  0  0
   13.8330  -18.1058   21.3665 C   0  0  0  0  0  0  0  0  0  0  0  0
   14.0349  -19.5601   21.2934 C   0  0  0  0  0  0  0  0  0  0  0  0
   15.3564  -20.1038   21.5989 C   0  0  0  0  0  0  0  0  0  0  0  0
   15.6451  -20.7328   22.6323 O   0  0  0  0  0  0  0  0  0  0  0  0
   12.0188  -16.5007   22.0864 C   0  0  0  0  0  0  0  0  0  0  0  0
   12.1257  -15.2800   21.7178 O   0  0  0  0  0  0  0  0  0  0  0  0
   16.4235  -19.9349   20.6941 O   0  0  0  0  0  0  0  0  0  0  0  0
    8.3129  -11.7339   19.4990 N   0  0  0  0  0  0  0  0  0  0  0  0
    8.2727  -13.1677   19.5140 C   0  0  0  0  0  0  0  0  0  0  0  0
    8.9969  -13.8549   18.6865 N   0  0  0  0  0  0  0  0  0  0  0  0
    7.4490  -13.8884   20.4211 N   0  0  0  0  0  0  0  0  0  0  0  0
    7.7830  -15.2159   20.8906 C   0  0  0  0  0  0  0  0  0  0  0  0
    8.7524  -15.0421   22.0552 C   0  0  0  0  0  0  0  0  0  0  0  0
    9.1477  -16.3666   22.6424 C   0  0  0  0  0  0  0  0  0  0  0  0
   10.1273  -16.1878   23.7418 C   0  0  2  0  0  0  0  0  0  0  0  0
   11.4523  -16.7037   23.3777 N   0  0  0  0  0  0  0  0  0  0  0  0
    9.6717  -16.7452   25.0260 C   0  0  0  0  0  0  0  0  0  0  0  0
    9.1989  -15.7954   25.9716 O   0  0  0  0  0  0  0  0  0  0  0  0
    9.6544  -17.9343   25.3719 O   0  0  0  0  0  0  0  0  0  0  0  0
  2  3  1  0
  2  1  1  1
  3  4  1  0
  4  5  2  0
  6  2  1  0
  6  7  2  0
  8  4  1  0
  9  6  1  0
 10  9  1  0
 10 15  1  0
 10 11  1  6
 12 11  1  0
 12 13  1  0
 13 14  2  0
 15 26  1  0
 16 15  2  0
 17 13  1  0
 18 19  1  0
 19 21  1  0
 20 19  2  0
 21 22  1  0
 22 23  1  0
 23 24  1  0
 25 24  1  6
 25 27  1  0
 26 25  1  0
 27 29  2  0
 27 28  1  0
M  END
$$$$
