GFN.pdb
     RDKit          3D

 24 24  0  0  1  0  0  0  0  0999 V2000
    9.8422  -17.0984   19.5671 N   0  0  0  0  0  0  0  0  0  0  0  0
    8.8062  -17.3991   20.5368 C   0  0  0  0  0  0  0  0  0  0  0  0
    8.9790  -16.4636   21.6838 C   0  0  0  0  0  0  0  0  0  0  0  0
   10.0777  -15.8664   21.8585 O   0  0  0  0  0  0  0  0  0  0  0  0
    7.9551  -16.1983   22.6156 N   0  0  0  0  0  0  0  0  0  0  0  0
    8.2066  -15.3285   23.7753 C   0  0  1  0  0  0  0  0  0  0  0  0
    6.8733  -14.7443   24.2069 C   0  0  0  0  0  0  0  0  0  0  0  0
    6.9783  -13.7964   25.3203 C   0  0  0  0  0  0  0  0  0  0  0  0
    7.1495  -12.4498   25.0944 C   0  0  0  0  0  0  0  0  0  0  0  0
    7.2333  -11.5709   26.1347 C   0  0  0  0  0  0  0  0  0  0  0  0
    7.1423  -12.0624   27.4188 C   0  0  0  0  0  0  0  0  0  0  0  0
    6.9708  -13.4033   27.6784 C   0  0  0  0  0  0  0  0  0  0  0  0
    6.8869  -14.2901   26.6147 C   0  0  0  0  0  0  0  0  0  0  0  0
    8.8541  -16.0857   24.8611 C   0  0  0  0  0  0  0  0  0  0  0  0
    8.4551  -17.2640   25.0965 O   0  0  0  0  0  0  0  0  0  0  0  0
   13.3560  -16.6962   23.9059 N   0  0  0  0  0  0  0  0  0  0  0  0
   12.6140  -17.0777   25.0727 C   0  0  0  0  0  0  0  0  0  0  0  0
   12.3222  -18.3201   25.1714 O   0  0  0  0  0  0  0  0  0  0  0  0
   12.1957  -16.1195   26.1158 C   0  0  0  0  0  0  0  0  0  0  0  0
   10.7484  -16.3539   26.4493 C   0  0  2  0  0  0  0  0  0  0  0  0
    9.8848  -15.5138   25.6126 N   0  0  0  0  0  0  0  0  0  0  0  0
   10.5182  -16.0594   27.8752 C   0  0  0  0  0  0  0  0  0  0  0  0
    9.7823  -15.0768   28.1829 O   0  0  0  0  0  0  0  0  0  0  0  0
   11.0613  -16.7999   28.9169 O   0  0  0  0  0  0  0  0  0  0  0  0
  1  2  1  0
  3  2  1  0
  3  4  2  0
  5  3  1  0
  6 14  1  0
  6  5  1  0
  6  7  1  1
  8  7  1  0
  9  8  2  0
 10  9  1  0
 11 12  1  0
 11 10  2  0
 12 13  2  0
 13  8  1  0
 14 21  1  0
 15 14  2  0
 16 17  1  0
 17 18  2  0
 20 19  1  6
 19 17  1  0
 21 20  1  0
 22 24  1  0
 22 20  1  0
 23 22  2  0
M  END
$$$$
