GFN.pdb
     RDKit          3D

 24 24  0  0  1  0  0  0  0  0999 V2000
    5.7915  -19.6368   24.4598 N   0  0  0  0  0  0  0  0  0  0  0  0
    5.8150  -18.2655   24.9320 C   0  0  0  0  0  0  0  0  0  0  0  0
    6.8144  -17.5247   24.1117 C   0  0  0  0  0  0  0  0  0  0  0  0
    7.4894  -18.1286   23.2320 O   0  0  0  0  0  0  0  0  0  0  0  0
    7.0589  -16.1451   24.2657 N   0  0  0  0  0  0  0  0  0  0  0  0
    7.9663  -15.4394   23.3473 C   0  0  1  0  0  0  0  0  0  0  0  0
    7.6438  -13.9583   23.4334 C   0  0  0  0  0  0  0  0  0  0  0  0
    7.4678  -13.4726   24.8054 C   0  0  0  0  0  0  0  0  0  0  0  0
    6.2681  -13.6188   25.4635 C   0  0  0  0  0  0  0  0  0  0  0  0
    6.1145  -13.1767   26.7451 C   0  0  0  0  0  0  0  0  0  0  0  0
    7.1894  -12.5796   27.3671 C   0  0  0  0  0  0  0  0  0  0  0  0
    8.4025  -12.4184   26.7368 C   0  0  0  0  0  0  0  0  0  0  0  0
    8.5498  -12.8706   25.4335 C   0  0  0  0  0  0  0  0  0  0  0  0
    9.3719  -15.7185   23.6903 C   0  0  0  0  0  0  0  0  0  0  0  0
   10.2492  -15.5993   22.7852 O   0  0  0  0  0  0  0  0  0  0  0  0
   13.6645  -17.2722   23.8182 N   0  0  0  0  0  0  0  0  0  0  0  0
   12.9943  -16.0852   24.2648 C   0  0  0  0  0  0  0  0  0  0  0  0
   13.1931  -15.0313   23.5661 O   0  0  0  0  0  0  0  0  0  0  0  0
   12.1211  -16.0473   25.4554 C   0  0  0  0  0  0  0  0  0  0  0  0
   10.9224  -16.9230   25.2161 C   0  0  2  0  0  0  0  0  0  0  0  0
    9.7260  -16.1061   24.9859 N   0  0  0  0  0  0  0  0  0  0  0  0
   10.7193  -17.8073   26.3779 C   0  0  0  0  0  0  0  0  0  0  0  0
    9.6025  -17.7843   26.9727 O   0  0  0  0  0  0  0  0  0  0  0  0
   11.6849  -18.6765   26.8682 O   0  0  0  0  0  0  0  0  0  0  0  0
  1  2  1  0
  3  2  1  0
  3  4  2  0
  5  3  1  0
  6 14  1  0
  6  5  1  0
  6  7  1  1
  8  7  1  0
  9  8  2  0
 10  9  1  0
 11 12  1  0
 11 10  2  0
 12 13  2  0
 13  8  1  0
 14 21  1  0
 15 14  2  0
 16 17  1  0
 17 18  2  0
 20 19  1  1
 19 17  1  0
 21 20  1  0
 22 24  1  0
 22 20  1  0
 23 22  2  0
M  END
$$$$
