GFN.pdb
     RDKit          3D

 24 24  0  0  1  0  0  0  0  0999 V2000
    5.9230  -19.4932   21.0383 N   0  0  0  0  0  0  0  0  0  0  0  0
    5.7644  -19.3947   22.4768 C   0  0  0  0  0  0  0  0  0  0  0  0
    6.4716  -18.1614   22.9236 C   0  0  0  0  0  0  0  0  0  0  0  0
    7.4203  -17.6877   22.2381 O   0  0  0  0  0  0  0  0  0  0  0  0
    6.1331  -17.4709   24.1048 N   0  0  0  0  0  0  0  0  0  0  0  0
    7.0017  -16.4011   24.6205 C   0  0  1  0  0  0  0  0  0  0  0  0
    6.1837  -15.5803   25.6016 C   0  0  0  0  0  0  0  0  0  0  0  0
    6.8266  -14.3238   25.9979 C   0  0  0  0  0  0  0  0  0  0  0  0
    6.5300  -13.1409   25.3603 C   0  0  0  0  0  0  0  0  0  0  0  0
    7.1218  -11.9724   25.7426 C   0  0  0  0  0  0  0  0  0  0  0  0
    8.0244  -12.0032   26.7833 C   0  0  0  0  0  0  0  0  0  0  0  0
    8.3426  -13.1694   27.4416 C   0  0  0  0  0  0  0  0  0  0  0  0
    7.7364  -14.3531   27.0463 C   0  0  0  0  0  0  0  0  0  0  0  0
    8.2078  -16.9692   25.2481 C   0  0  0  0  0  0  0  0  0  0  0  0
    8.0981  -18.0510   25.8967 O   0  0  0  0  0  0  0  0  0  0  0  0
   14.1004  -16.9151   24.4028 N   0  0  0  0  0  0  0  0  0  0  0  0
   12.8459  -17.5993   24.2777 C   0  0  0  0  0  0  0  0  0  0  0  0
   12.8912  -18.8756   24.3645 O   0  0  0  0  0  0  0  0  0  0  0  0
   11.5616  -16.9032   24.0606 C   0  0  0  0  0  0  0  0  0  0  0  0
   10.6916  -17.0833   25.2737 C   0  0  2  0  0  0  0  0  0  0  0  0
    9.4435  -16.3264   25.1289 N   0  0  0  0  0  0  0  0  0  0  0  0
   11.4219  -16.6364   26.4736 C   0  0  0  0  0  0  0  0  0  0  0  0
   11.2460  -15.4535   26.8880 O   0  0  0  0  0  0  0  0  0  0  0  0
   12.3005  -17.4387   27.1897 O   0  0  0  0  0  0  0  0  0  0  0  0
  1  2  1  0
  3  2  1  0
  3  4  2  0
  5  3  1  0
  6 14  1  0
  6  5  1  0
  6  7  1  1
  8  7  1  0
  9  8  2  0
 10  9  1  0
 11 12  1  0
 11 10  2  0
 12 13  2  0
 13  8  1  0
 14 21  1  0
 15 14  2  0
 16 17  1  0
 17 18  2  0
 20 19  1  6
 19 17  1  0
 21 20  1  0
 22 24  1  0
 22 20  1  0
 23 22  2  0
M  END
$$$$
