GFN.pdb
     RDKit          3D

 24 24  0  0  1  0  0  0  0  0999 V2000
   10.2245  -16.5787   19.5268 N   0  0  0  0  0  0  0  0  0  0  0  0
    9.0538  -16.7877   20.3574 C   0  0  0  0  0  0  0  0  0  0  0  0
    9.1457  -15.8465   21.5089 C   0  0  0  0  0  0  0  0  0  0  0  0
   10.2634  -15.3728   21.8565 O   0  0  0  0  0  0  0  0  0  0  0  0
    8.0222  -15.4413   22.2574 N   0  0  0  0  0  0  0  0  0  0  0  0
    8.1809  -14.5687   23.4314 C   0  0  1  0  0  0  0  0  0  0  0  0
    6.7986  -14.0859   23.8331 C   0  0  0  0  0  0  0  0  0  0  0  0
    6.7990  -13.2117   25.0099 C   0  0  0  0  0  0  0  0  0  0  0  0
    7.5600  -12.0657   25.0446 C   0  0  0  0  0  0  0  0  0  0  0  0
    7.5458  -11.2492   26.1377 C   0  0  0  0  0  0  0  0  0  0  0  0
    6.7510  -11.5981   27.2079 C   0  0  0  0  0  0  0  0  0  0  0  0
    5.9782  -12.7371   27.2045 C   0  0  0  0  0  0  0  0  0  0  0  0
    5.9987  -13.5619   26.0891 C   0  0  0  0  0  0  0  0  0  0  0  0
    8.8529  -15.2898   24.5268 C   0  0  0  0  0  0  0  0  0  0  0  0
    9.1437  -14.6513   25.5807 O   0  0  0  0  0  0  0  0  0  0  0  0
   10.9379  -18.8374   27.5639 N   0  0  0  0  0  0  0  0  0  0  0  0
   10.2967  -19.5301   26.4838 C   0  0  0  0  0  0  0  0  0  0  0  0
   10.3683  -20.8078   26.5149 O   0  0  0  0  0  0  0  0  0  0  0  0
    9.5888  -18.8408   25.3861 C   0  0  0  0  0  0  0  0  0  0  0  0
    9.8294  -17.3607   25.4966 C   0  0  2  0  0  0  0  0  0  0  0  0
    9.1614  -16.6476   24.4026 N   0  0  0  0  0  0  0  0  0  0  0  0
   11.2790  -17.0944   25.4678 C   0  0  0  0  0  0  0  0  0  0  0  0
   11.9136  -17.2954   24.3915 O   0  0  0  0  0  0  0  0  0  0  0  0
   12.0033  -16.6299   26.5577 O   0  0  0  0  0  0  0  0  0  0  0  0
  1  2  1  0
  3  2  1  0
  3  4  2  0
  5  3  1  0
  6 14  1  0
  6  5  1  0
  6  7  1  1
  8  7  1  0
  9  8  2  0
 10  9  1  0
 11 12  1  0
 11 10  2  0
 12 13  2  0
 13  8  1  0
 14 21  1  0
 15 14  2  0
 16 17  1  0
 17 18  2  0
 20 19  1  6
 19 17  1  0
 21 20  1  0
 22 24  1  0
 22 20  1  0
 23 22  2  0
M  END
$$$$
