GFN.pdb
     RDKit          3D

 24 24  0  0  1  0  0  0  0  0999 V2000
    7.4434  -17.9023   19.6446 N   0  0  0  0  0  0  0  0  0  0  0  0
    6.7421  -17.9368   20.9139 C   0  0  0  0  0  0  0  0  0  0  0  0
    7.2636  -16.8160   21.7461 C   0  0  0  0  0  0  0  0  0  0  0  0
    8.0109  -15.9367   21.2337 O   0  0  0  0  0  0  0  0  0  0  0  0
    6.9622  -16.6757   23.1159 N   0  0  0  0  0  0  0  0  0  0  0  0
    7.4037  -15.4859   23.8605 C   0  0  1  0  0  0  0  0  0  0  0  0
    6.5016  -15.3444   25.0735 C   0  0  0  0  0  0  0  0  0  0  0  0
    6.7065  -14.0980   25.8177 C   0  0  0  0  0  0  0  0  0  0  0  0
    7.5087  -14.0602   26.9351 C   0  0  0  0  0  0  0  0  0  0  0  0
    7.7061  -12.8943   27.6157 C   0  0  0  0  0  0  0  0  0  0  0  0
    7.0833  -11.7533   27.1584 C   0  0  0  0  0  0  0  0  0  0  0  0
    6.2750  -11.7575   26.0443 C   0  0  0  0  0  0  0  0  0  0  0  0
    6.0795  -12.9475   25.3583 C   0  0  0  0  0  0  0  0  0  0  0  0
    8.8224  -15.6080   24.2398 C   0  0  0  0  0  0  0  0  0  0  0  0
    9.3868  -14.6184   24.7921 O   0  0  0  0  0  0  0  0  0  0  0  0
   13.9996  -15.8918   22.7979 N   0  0  0  0  0  0  0  0  0  0  0  0
   13.1015  -15.7253   23.9040 C   0  0  0  0  0  0  0  0  0  0  0  0
   13.6396  -15.6979   25.0651 O   0  0  0  0  0  0  0  0  0  0  0  0
   11.6391  -15.5915   23.7470 C   0  0  0  0  0  0  0  0  0  0  0  0
   10.9743  -16.8537   24.2222 C   0  0  2  0  0  0  0  0  0  0  0  0
    9.5267  -16.7903   23.9940 N   0  0  0  0  0  0  0  0  0  0  0  0
   11.2558  -17.0481   25.6561 C   0  0  0  0  0  0  0  0  0  0  0  0
   10.3567  -16.7569   26.4979 O   0  0  0  0  0  0  0  0  0  0  0  0
   12.4575  -17.5376   26.1504 O   0  0  0  0  0  0  0  0  0  0  0  0
  1  2  1  0
  3  2  1  0
  3  4  2  0
  5  3  1  0
  6 14  1  0
  6  5  1  0
  6  7  1  1
  8  7  1  0
  9  8  2  0
 10  9  1  0
 11 12  1  0
 11 10  2  0
 12 13  2  0
 13  8  1  0
 14 21  1  0
 15 14  2  0
 16 17  1  0
 17 18  2  0
 20 19  1  1
 19 17  1  0
 21 20  1  0
 22 24  1  0
 22 20  1  0
 23 22  2  0
M  END
$$$$
