GFN.pdb
     RDKit          3D

 24 24  0  0  1  0  0  0  0  0999 V2000
    9.0836  -16.1400   18.6809 N   0  0  0  0  0  0  0  0  0  0  0  0
    7.9642  -16.1700   19.6029 C   0  0  0  0  0  0  0  0  0  0  0  0
    8.3844  -15.4596   20.8436 C   0  0  0  0  0  0  0  0  0  0  0  0
    9.5853  -15.5099   21.2304 O   0  0  0  0  0  0  0  0  0  0  0  0
    7.4912  -14.7113   21.6365 N   0  0  0  0  0  0  0  0  0  0  0  0
    7.8703  -14.2889   22.9940 C   0  0  1  0  0  0  0  0  0  0  0  0
    6.7558  -13.4060   23.5266 C   0  0  0  0  0  0  0  0  0  0  0  0
    6.9888  -12.9218   24.8906 C   0  0  0  0  0  0  0  0  0  0  0  0
    7.8704  -11.8952   25.1403 C   0  0  0  0  0  0  0  0  0  0  0  0
    8.0730  -11.4401   26.4105 C   0  0  0  0  0  0  0  0  0  0  0  0
    7.3737  -12.0324   27.4397 C   0  0  0  0  0  0  0  0  0  0  0  0
    6.4849  -13.0609   27.2234 C   0  0  0  0  0  0  0  0  0  0  0  0
    6.2851  -13.5176   25.9287 C   0  0  0  0  0  0  0  0  0  0  0  0
    8.1046  -15.4610   23.8557 C   0  0  0  0  0  0  0  0  0  0  0  0
    7.3957  -16.4944   23.6750 O   0  0  0  0  0  0  0  0  0  0  0  0
   12.0657  -18.8270   23.7597 N   0  0  0  0  0  0  0  0  0  0  0  0
   12.0391  -17.7057   24.6538 C   0  0  0  0  0  0  0  0  0  0  0  0
   12.7569  -17.8111   25.7084 O   0  0  0  0  0  0  0  0  0  0  0  0
   11.2418  -16.4881   24.4026 C   0  0  0  0  0  0  0  0  0  0  0  0
    9.9195  -16.6101   25.1081 C   0  0  2  0  0  0  0  0  0  0  0  0
    9.0874  -15.4302   24.8493 N   0  0  0  0  0  0  0  0  0  0  0  0
   10.1470  -16.7652   26.5563 C   0  0  0  0  0  0  0  0  0  0  0  0
   10.1940  -17.9322   27.0436 O   0  0  0  0  0  0  0  0  0  0  0  0
   10.3171  -15.7012   27.4322 O   0  0  0  0  0  0  0  0  0  0  0  0
  1  2  1  0
  3  2  1  0
  3  4  2  0
  5  3  1  0
  6 14  1  0
  6  5  1  0
  6  7  1  1
  8  7  1  0
  9  8  2  0
 10  9  1  0
 11 12  1  0
 11 10  2  0
 12 13  2  0
 13  8  1  0
 14 21  1  0
 15 14  2  0
 16 17  1  0
 17 18  2  0
 20 19  1  6
 19 17  1  0
 21 20  1  0
 22 24  1  0
 22 20  1  0
 23 22  2  0
M  END
$$$$
