TFA.pdb
     RDKit          3D

 24 24  0  0  1  0  0  0  0  0999 V2000
    7.6651  -18.7433   20.8238 C   0  0  0  0  0  0  0  0  0  0  0  0
    8.7110  -18.2544   19.8453 C   0  0  1  0  0  0  0  0  0  0  0  0
    8.3935  -18.7841   18.5833 O   0  0  0  0  0  0  0  0  0  0  0  0
    8.5818  -16.7513   19.7545 C   0  0  2  0  0  0  0  0  0  0  0  0
    9.3066  -16.2278   18.6229 N   0  0  0  0  0  0  0  0  0  0  0  0
    8.9939  -16.0601   20.9755 C   0  0  0  0  0  0  0  0  0  0  0  0
   10.1918  -15.7890   21.2636 O   0  0  0  0  0  0  0  0  0  0  0  0
    7.9930  -15.6627   21.9052 N   0  0  0  0  0  0  0  0  0  0  0  0
    8.2688  -15.0961   23.1893 C   0  0  1  0  0  0  0  0  0  0  0  0
    7.0033  -14.4191   23.6841 C   0  0  0  0  0  0  0  0  0  0  0  0
    7.1859  -13.6945   24.9413 C   0  0  0  0  0  0  0  0  0  0  0  0
    7.0126  -12.3311   25.0038 C   0  0  0  0  0  0  0  0  0  0  0  0
    7.1945  -11.6818   26.2056 C   0  0  0  0  0  0  0  0  0  0  0  0
    7.5465  -12.3579   27.3540 C   0  0  0  0  0  0  0  0  0  0  0  0
    7.7213  -13.7306   27.2922 C   0  0  0  0  0  0  0  0  0  0  0  0
    7.5372  -14.3797   26.0810 C   0  0  0  0  0  0  0  0  0  0  0  0
    8.7396  -16.0556   24.1883 C   0  0  0  0  0  0  0  0  0  0  0  0
    7.9365  -16.9745   24.5299 O   0  0  0  0  0  0  0  0  0  0  0  0
   11.9497  -17.5116   25.0391 C   0  0  0  0  0  0  0  0  0  0  0  0
   10.5272  -17.1765   25.4477 C   0  0  2  0  0  0  0  0  0  0  0  0
   10.0291  -16.0124   24.7862 N   0  0  0  0  0  0  0  0  0  0  0  0
   10.4544  -16.9750   26.9021 C   0  0  0  0  0  0  0  0  0  0  0  0
   10.8195  -17.8856   27.6807 O   0  0  0  0  0  0  0  0  0  0  0  0
    9.9777  -15.7671   27.4166 O   0  0  0  0  0  0  0  0  0  0  0  0
  2  1  1  1
  3  2  1  0
  4  6  1  0
  4  2  1  0
  4  5  1  6
  6  8  1  0
  7  6  2  0
  8  9  1  0
  9 10  1  1
 10 11  1  0
 11 16  2  0
 11 12  1  0
 12 13  2  0
 13 14  1  0
 15 14  2  0
 16 15  1  0
 17  9  1  0
 18 17  2  0
 20 19  1  6
 20 21  1  0
 21 17  1  0
 22 24  1  0
 22 20  1  0
 23 22  2  0
M  END
$$$$
