TFA.pdb
     RDKit          3D

 24 24  0  0  1  0  0  0  0  0999 V2000
   10.4047  -19.3742   20.4071 C   0  0  0  0  0  0  0  0  0  0  0  0
   10.3858  -18.4442   21.6009 C   0  0  1  0  0  0  0  0  0  0  0  0
   11.6211  -18.5704   22.2581 O   0  0  0  0  0  0  0  0  0  0  0  0
   10.2915  -17.0305   21.0747 C   0  0  2  0  0  0  0  0  0  0  0  0
   11.3647  -16.7375   20.1568 N   0  0  0  0  0  0  0  0  0  0  0  0
   10.2481  -16.0211   22.1318 C   0  0  0  0  0  0  0  0  0  0  0  0
   11.2336  -15.3101   22.4703 O   0  0  0  0  0  0  0  0  0  0  0  0
    9.0256  -15.8172   22.8304 N   0  0  0  0  0  0  0  0  0  0  0  0
    8.8803  -14.9513   23.9597 C   0  0  1  0  0  0  0  0  0  0  0  0
    7.4347  -14.4910   24.0140 C   0  0  0  0  0  0  0  0  0  0  0  0
    7.1747  -13.5177   25.0743 C   0  0  0  0  0  0  0  0  0  0  0  0
    7.6749  -12.2383   24.9984 C   0  0  0  0  0  0  0  0  0  0  0  0
    7.4105  -11.3486   26.0171 C   0  0  0  0  0  0  0  0  0  0  0  0
    6.6568  -11.7009   27.1160 C   0  0  0  0  0  0  0  0  0  0  0  0
    6.1529  -12.9888   27.1934 C   0  0  0  0  0  0  0  0  0  0  0  0
    6.4213  -13.8806   26.1663 C   0  0  0  0  0  0  0  0  0  0  0  0
    9.2564  -15.5531   25.2390 C   0  0  0  0  0  0  0  0  0  0  0  0
    9.0597  -16.7980   25.3716 O   0  0  0  0  0  0  0  0  0  0  0  0
   11.3803  -14.6152   28.2010 C   0  0  0  0  0  0  0  0  0  0  0  0
   10.5433  -15.5357   27.3322 C   0  0  2  0  0  0  0  0  0  0  0  0
    9.8215  -14.8272   26.3234 N   0  0  0  0  0  0  0  0  0  0  0  0
    9.5959  -16.2913   28.1646 C   0  0  0  0  0  0  0  0  0  0  0  0
   10.0126  -16.9673   29.1332 O   0  0  0  0  0  0  0  0  0  0  0  0
    8.2299  -16.2555   27.8754 O   0  0  0  0  0  0  0  0  0  0  0  0
  2  1  1  6
  3  2  1  0
  4  6  1  0
  4  2  1  0
  4  5  1  6
  6  8  1  0
  7  6  2  0
  8  9  1  0
  9 10  1  1
 10 11  1  0
 11 16  2  0
 11 12  1  0
 12 13  2  0
 13 14  1  0
 15 14  2  0
 16 15  1  0
 17  9  1  0
 18 17  2  0
 20 19  1  1
 20 21  1  0
 21 17  1  0
 22 24  1  0
 22 20  1  0
 23 22  2  0
M  END
$$$$
