TFA.pdb
     RDKit          3D

 24 24  0  0  1  0  0  0  0  0999 V2000
    8.5374  -19.2992   21.4284 C   0  0  0  0  0  0  0  0  0  0  0  0
    9.4217  -18.7491   20.3302 C   0  0  1  0  0  0  0  0  0  0  0  0
    9.1143  -19.4438   19.1483 O   0  0  0  0  0  0  0  0  0  0  0  0
    9.0398  -17.3018   20.1207 C   0  0  2  0  0  0  0  0  0  0  0  0
    9.6601  -16.7595   18.9370 N   0  0  0  0  0  0  0  0  0  0  0  0
    9.3353  -16.4525   21.2738 C   0  0  0  0  0  0  0  0  0  0  0  0
   10.4861  -16.0194   21.5557 O   0  0  0  0  0  0  0  0  0  0  0  0
    8.2688  -16.0836   22.1403 N   0  0  0  0  0  0  0  0  0  0  0  0
    8.4354  -15.3256   23.3419 C   0  0  1  0  0  0  0  0  0  0  0  0
    7.1300  -14.6046   23.6257 C   0  0  0  0  0  0  0  0  0  0  0  0
    7.1635  -13.8026   24.8483 C   0  0  0  0  0  0  0  0  0  0  0  0
    6.4066  -14.1501   25.9433 C   0  0  0  0  0  0  0  0  0  0  0  0
    6.4626  -13.3699   27.0779 C   0  0  0  0  0  0  0  0  0  0  0  0
    7.2571  -12.2460   27.1517 C   0  0  0  0  0  0  0  0  0  0  0  0
    8.0195  -11.8952   26.0498 C   0  0  0  0  0  0  0  0  0  0  0  0
    7.9601  -12.6831   24.9104 C   0  0  0  0  0  0  0  0  0  0  0  0
    8.8283  -16.1156   24.5089 C   0  0  0  0  0  0  0  0  0  0  0  0
    7.9865  -16.9550   24.9479 O   0  0  0  0  0  0  0  0  0  0  0  0
   12.0009  -17.2045   26.0916 C   0  0  0  0  0  0  0  0  0  0  0  0
   10.4952  -17.0170   26.0731 C   0  0  2  0  0  0  0  0  0  0  0  0
   10.0836  -15.9934   25.1656 N   0  0  0  0  0  0  0  0  0  0  0  0
   10.0109  -16.6909   27.4224 C   0  0  0  0  0  0  0  0  0  0  0  0
    9.9691  -17.5781   28.3054 O   0  0  0  0  0  0  0  0  0  0  0  0
    9.5970  -15.3905   27.7201 O   0  0  0  0  0  0  0  0  0  0  0  0
  2  1  1  1
  3  2  1  0
  4  6  1  0
  4  2  1  0
  4  5  1  6
  6  8  1  0
  7  6  2  0
  8  9  1  0
  9 10  1  1
 10 11  1  0
 11 16  2  0
 11 12  1  0
 12 13  2  0
 13 14  1  0
 15 14  2  0
 16 15  1  0
 17  9  1  0
 18 17  2  0
 20 19  1  1
 20 21  1  0
 21 17  1  0
 22 24  1  0
 22 20  1  0
 23 22  2  0
M  END
$$$$
