TFA.pdb
     RDKit          3D

 24 24  0  0  1  0  0  0  0  0999 V2000
    8.6798  -18.5604   19.4917 C   0  0  0  0  0  0  0  0  0  0  0  0
    8.6350  -17.9490   20.8754 C   0  0  1  0  0  0  0  0  0  0  0  0
    9.2114  -18.8699   21.7663 O   0  0  0  0  0  0  0  0  0  0  0  0
    9.5141  -16.7197   20.8583 C   0  0  2  0  0  0  0  0  0  0  0  0
   10.8405  -17.0274   20.3828 N   0  0  0  0  0  0  0  0  0  0  0  0
    9.5912  -16.0451   22.1534 C   0  0  0  0  0  0  0  0  0  0  0  0
   10.6197  -16.0339   22.8838 O   0  0  0  0  0  0  0  0  0  0  0  0
    8.4431  -15.3546   22.6321 N   0  0  0  0  0  0  0  0  0  0  0  0
    8.3771  -14.6836   23.8937 C   0  0  1  0  0  0  0  0  0  0  0  0
    7.1985  -13.7276   23.8547 C   0  0  0  0  0  0  0  0  0  0  0  0
    7.0203  -12.9747   25.0958 C   0  0  0  0  0  0  0  0  0  0  0  0
    7.9293  -12.0153   25.4780 C   0  0  0  0  0  0  0  0  0  0  0  0
    7.7294  -11.3266   26.6548 C   0  0  0  0  0  0  0  0  0  0  0  0
    6.6419  -11.5692   27.4662 C   0  0  0  0  0  0  0  0  0  0  0  0
    5.7262  -12.5349   27.0824 C   0  0  0  0  0  0  0  0  0  0  0  0
    5.9313  -13.2254   25.8977 C   0  0  0  0  0  0  0  0  0  0  0  0
    8.2551  -15.5728   25.0490 C   0  0  0  0  0  0  0  0  0  0  0  0
    8.3749  -15.0484   26.1965 O   0  0  0  0  0  0  0  0  0  0  0  0
    7.0914  -18.9986   25.9734 C   0  0  0  0  0  0  0  0  0  0  0  0
    7.9248  -17.7433   26.1526 C   0  0  2  0  0  0  0  0  0  0  0  0
    8.0132  -16.9709   24.9542 N   0  0  0  0  0  0  0  0  0  0  0  0
    9.2794  -18.0971   26.6013 C   0  0  0  0  0  0  0  0  0  0  0  0
    9.4403  -18.7407   27.6637 O   0  0  0  0  0  0  0  0  0  0  0  0
   10.3882  -17.7153   25.8424 O   0  0  0  0  0  0  0  0  0  0  0  0
  2  1  1  6
  3  2  1  0
  4  6  1  0
  4  2  1  0
  4  5  1  1
  6  8  1  0
  7  6  2  0
  8  9  1  0
  9 10  1  6
 10 11  1  0
 11 16  2  0
 11 12  1  0
 12 13  2  0
 13 14  1  0
 15 14  2  0
 16 15  1  0
 17  9  1  0
 18 17  2  0
 20 19  1  6
 20 21  1  0
 21 17  1  0
 22 24  1  0
 22 20  1  0
 23 22  2  0
M  END
$$$$
