TFA.pdb
     RDKit          3D

 24 24  0  0  1  0  0  0  0  0999 V2000
    7.6413  -15.1314   17.0983 C   0  0  0  0  0  0  0  0  0  0  0  0
    8.0992  -15.1008   18.5404 C   0  0  1  0  0  0  0  0  0  0  0  0
    9.4981  -15.2319   18.5455 O   0  0  0  0  0  0  0  0  0  0  0  0
    7.7674  -13.7342   19.0941 C   0  0  2  0  0  0  0  0  0  0  0  0
    8.2746  -12.6845   18.2450 N   0  0  0  0  0  0  0  0  0  0  0  0
    8.2335  -13.5366   20.4660 C   0  0  0  0  0  0  0  0  0  0  0  0
    9.3269  -12.9845   20.7679 O   0  0  0  0  0  0  0  0  0  0  0  0
    7.4137  -13.9899   21.5368 N   0  0  0  0  0  0  0  0  0  0  0  0
    7.8128  -13.9884   22.9104 C   0  0  1  0  0  0  0  0  0  0  0  0
    6.6189  -13.5601   23.7446 C   0  0  0  0  0  0  0  0  0  0  0  0
    6.9690  -13.2035   25.1191 C   0  0  0  0  0  0  0  0  0  0  0  0
    7.6628  -12.0480   25.3954 C   0  0  0  0  0  0  0  0  0  0  0  0
    7.9764  -11.7451   26.7027 C   0  0  0  0  0  0  0  0  0  0  0  0
    7.6153  -12.5670   27.7487 C   0  0  0  0  0  0  0  0  0  0  0  0
    6.9168  -13.7305   27.4716 C   0  0  0  0  0  0  0  0  0  0  0  0
    6.6034  -14.0313   26.1549 C   0  0  0  0  0  0  0  0  0  0  0  0
    8.3216  -15.2710   23.3966 C   0  0  0  0  0  0  0  0  0  0  0  0
    7.5978  -16.2921   23.1978 O   0  0  0  0  0  0  0  0  0  0  0  0
   11.2837  -17.1632   23.8700 C   0  0  0  0  0  0  0  0  0  0  0  0
    9.9655  -16.7354   24.4880 C   0  0  2  0  0  0  0  0  0  0  0  0
    9.5644  -15.4298   24.0692 N   0  0  0  0  0  0  0  0  0  0  0  0
   10.0632  -16.7643   25.9547 C   0  0  0  0  0  0  0  0  0  0  0  0
    9.9112  -15.7106   26.6144 O   0  0  0  0  0  0  0  0  0  0  0  0
   10.3257  -17.9678   26.6132 O   0  0  0  0  0  0  0  0  0  0  0  0
  2  1  1  6
  3  2  1  0
  4  6  1  0
  4  2  1  0
  4  5  1  6
  6  8  1  0
  7  6  2  0
  8  9  1  0
  9 10  1  1
 10 11  1  0
 11 16  2  0
 11 12  1  0
 12 13  2  0
 13 14  1  0
 15 14  2  0
 16 15  1  0
 17  9  1  0
 18 17  2  0
 20 19  1  6
 20 21  1  0
 21 17  1  0
 22 24  1  0
 22 20  1  0
 23 22  2  0
M  END
$$$$
