TFA.pdb
     RDKit          3D

 24 24  0  0  1  0  0  0  0  0999 V2000
    8.9285  -18.7410   19.5971 C   0  0  0  0  0  0  0  0  0  0  0  0
    8.9368  -18.0633   20.9503 C   0  0  1  0  0  0  0  0  0  0  0  0
    9.7507  -18.8271   21.8036 O   0  0  0  0  0  0  0  0  0  0  0  0
    9.5955  -16.7139   20.7792 C   0  0  2  0  0  0  0  0  0  0  0  0
   10.8959  -16.8363   20.1676 N   0  0  0  0  0  0  0  0  0  0  0  0
    9.6988  -15.9578   22.0266 C   0  0  0  0  0  0  0  0  0  0  0  0
   10.7748  -15.7892   22.6633 O   0  0  0  0  0  0  0  0  0  0  0  0
    8.5214  -15.3703   22.5676 N   0  0  0  0  0  0  0  0  0  0  0  0
    8.4745  -14.6626   23.8098 C   0  0  1  0  0  0  0  0  0  0  0  0
    7.1767  -13.8762   23.8521 C   0  0  0  0  0  0  0  0  0  0  0  0
    7.0089  -13.0982   25.0791 C   0  0  0  0  0  0  0  0  0  0  0  0
    7.8569  -12.0568   25.3780 C   0  0  0  0  0  0  0  0  0  0  0  0
    7.6691  -11.3467   26.5441 C   0  0  0  0  0  0  0  0  0  0  0  0
    6.6534  -11.6477   27.4258 C   0  0  0  0  0  0  0  0  0  0  0  0
    5.7992  -12.6959   27.1259 C   0  0  0  0  0  0  0  0  0  0  0  0
    5.9918  -13.4076   25.9517 C   0  0  0  0  0  0  0  0  0  0  0  0
    8.5776  -15.5115   24.9968 C   0  0  0  0  0  0  0  0  0  0  0  0
    8.6368  -14.9283   26.1204 O   0  0  0  0  0  0  0  0  0  0  0  0
    8.2316  -19.0850   26.0619 C   0  0  0  0  0  0  0  0  0  0  0  0
    8.7350  -17.6584   26.1816 C   0  0  2  0  0  0  0  0  0  0  0  0
    8.6144  -16.9324   24.9572 N   0  0  0  0  0  0  0  0  0  0  0  0
   10.1412  -17.6541   26.6103 C   0  0  0  0  0  0  0  0  0  0  0  0
   10.4685  -18.1907   27.6937 O   0  0  0  0  0  0  0  0  0  0  0  0
   11.1135  -17.0512   25.8089 O   0  0  0  0  0  0  0  0  0  0  0  0
  2  1  1  6
  3  2  1  0
  4  6  1  0
  4  2  1  0
  4  5  1  1
  6  8  1  0
  7  6  2  0
  8  9  1  0
  9 10  1  1
 10 11  1  0
 11 16  2  0
 11 12  1  0
 12 13  2  0
 13 14  1  0
 15 14  2  0
 16 15  1  0
 17  9  1  0
 18 17  2  0
 20 19  1  6
 20 21  1  0
 21 17  1  0
 22 24  1  0
 22 20  1  0
 23 22  2  0
M  END
$$$$
