FSS.pdb
     RDKit          3D

 24 24  0  0  1  0  0  0  0  0999 V2000
   25.6037  -19.0997   -7.5956 N   0  0  0  0  0  0  0  0  0  0  0  0
   26.5291  -19.8430   -8.3928 C   0  0  1  0  0  0  0  0  0  0  0  0
   27.0581  -21.0235   -7.6183 C   0  0  0  0  0  0  0  0  0  0  0  0
   27.7139  -20.4774   -6.3820 C   0  0  0  0  0  0  0  0  0  0  0  0
   27.1550  -20.7302   -5.1316 C   0  0  0  0  0  0  0  0  0  0  0  0
   27.7485  -20.2290   -3.9994 C   0  0  0  0  0  0  0  0  0  0  0  0
   28.8944  -19.4724   -4.0454 C   0  0  0  0  0  0  0  0  0  0  0  0
   29.4643  -19.2116   -5.2884 C   0  0  0  0  0  0  0  0  0  0  0  0
   28.8607  -19.7197   -6.4201 C   0  0  0  0  0  0  0  0  0  0  0  0
   26.0059  -20.2324   -9.7187 C   0  0  0  0  0  0  0  0  0  0  0  0
   24.7836  -20.5541   -9.8789 O   0  0  0  0  0  0  0  0  0  0  0  0
   28.1010  -21.1116  -13.3020 O   0  0  0  0  0  0  0  0  0  0  0  0
   27.3079  -19.9829  -13.2885 C   0  0  0  0  0  0  0  0  0  0  0  0
   26.2234  -20.0668  -12.2206 C   0  0  2  0  0  0  0  0  0  0  0  0
   26.7988  -20.2827  -10.9109 N   0  0  0  0  0  0  0  0  0  0  0  0
   25.3142  -21.1588  -12.6208 C   0  0  0  0  0  0  0  0  0  0  0  0
   25.1918  -22.2033  -11.8901 O   0  0  0  0  0  0  0  0  0  0  0  0
   21.7106  -20.6701  -13.1785 O   0  0  0  0  0  0  0  0  0  0  0  0
   22.3616  -21.8839  -12.8901 C   0  0  0  0  0  0  0  0  0  0  0  0
   23.3997  -22.0426  -14.0022 C   0  0  2  0  0  0  0  0  0  0  0  0
   24.5212  -21.1596  -13.8003 N   0  0  0  0  0  0  0  0  0  0  0  0
   22.7448  -21.8660  -15.2983 C   0  0  0  0  0  0  0  0  0  0  0  0
   23.1002  -20.9442  -16.0612 O   0  0  0  0  0  0  0  0  0  0  0  0
   21.7278  -22.7057  -15.7063 O   0  0  0  0  0  0  0  0  0  0  0  0
  2  1  1  1
  2  3  1  0
  4  3  1  0
  5  4  2  0
  6  5  1  0
  7  6  2  0
  7  8  1  0
  8  9  2  0
  9  4  1  0
 10  2  1  0
 10 11  2  0
 12 13  1  0
 14 13  1  6
 14 15  1  0
 15 10  1  0
 16 14  1  0
 17 16  2  0
 18 19  1  0
 20 19  1  1
 20 21  1  0
 20 22  1  0
 21 16  1  0
 22 23  2  0
 22 24  1  0
M  END
$$$$
