FSS.pdb
     RDKit          3D

 24 24  0  0  1  0  0  0  0  0999 V2000
   25.1624  -19.5821   -7.8525 N   0  0  0  0  0  0  0  0  0  0  0  0
   26.2848  -19.9340   -8.6654 C   0  0  1  0  0  0  0  0  0  0  0  0
   27.1239  -20.9800   -7.9761 C   0  0  0  0  0  0  0  0  0  0  0  0
   27.6580  -20.3540   -6.7192 C   0  0  0  0  0  0  0  0  0  0  0  0
   28.7315  -19.4694   -6.7875 C   0  0  0  0  0  0  0  0  0  0  0  0
   29.2259  -18.8986   -5.6407 C   0  0  0  0  0  0  0  0  0  0  0  0
   28.6975  -19.1670   -4.4012 C   0  0  0  0  0  0  0  0  0  0  0  0
   27.6242  -20.0494   -4.3175 C   0  0  0  0  0  0  0  0  0  0  0  0
   27.1345  -20.6176   -5.4754 C   0  0  0  0  0  0  0  0  0  0  0  0
   25.9312  -20.3212  -10.0468 C   0  0  0  0  0  0  0  0  0  0  0  0
   24.7392  -20.6458  -10.3581 O   0  0  0  0  0  0  0  0  0  0  0  0
   28.4633  -21.2229  -13.2907 O   0  0  0  0  0  0  0  0  0  0  0  0
   27.6600  -20.1107  -13.4352 C   0  0  0  0  0  0  0  0  0  0  0  0
   26.4548  -20.1588  -12.5032 C   0  0  2  0  0  0  0  0  0  0  0  0
   26.8659  -20.3659  -11.1317 N   0  0  0  0  0  0  0  0  0  0  0  0
   25.5778  -21.2395  -12.9953 C   0  0  0  0  0  0  0  0  0  0  0  0
   25.7129  -22.4357  -12.5586 O   0  0  0  0  0  0  0  0  0  0  0  0
   21.9038  -21.0745  -13.2088 O   0  0  0  0  0  0  0  0  0  0  0  0
   22.5418  -22.3251  -13.3044 C   0  0  0  0  0  0  0  0  0  0  0  0
   23.6420  -22.1222  -14.3474 C   0  0  2  0  0  0  0  0  0  0  0  0
   24.5449  -21.0684  -13.9565 N   0  0  0  0  0  0  0  0  0  0  0  0
   23.0272  -21.9067  -15.6572 C   0  0  0  0  0  0  0  0  0  0  0  0
   23.2844  -20.8741  -16.3096 O   0  0  0  0  0  0  0  0  0  0  0  0
   22.1561  -22.8304  -16.1993 O   0  0  0  0  0  0  0  0  0  0  0  0
  2  1  1  1
  2  3  1  0
  4  3  1  0
  5  4  2  0
  6  5  1  0
  7  6  2  0
  7  8  1  0
  8  9  2  0
  9  4  1  0
 10  2  1  0
 10 11  2  0
 12 13  1  0
 14 13  1  6
 14 15  1  0
 15 10  1  0
 16 14  1  0
 17 16  2  0
 18 19  1  0
 20 19  1  1
 20 21  1  0
 20 22  1  0
 21 16  1  0
 22 23  2  0
 22 24  1  0
M  END
$$$$
