FSS.pdb
     RDKit          3D

 24 24  0  0  1  0  0  0  0  0999 V2000
   28.6934  -21.5757   -9.2211 N   0  0  0  0  0  0  0  0  0  0  0  0
   27.4691  -20.8419   -9.3044 C   0  0  1  0  0  0  0  0  0  0  0  0
   27.6220  -19.4911   -8.6523 C   0  0  0  0  0  0  0  0  0  0  0  0
   27.7011  -19.7268   -7.1709 C   0  0  0  0  0  0  0  0  0  0  0  0
   28.8092  -19.2787   -6.4559 C   0  0  0  0  0  0  0  0  0  0  0  0
   28.8878  -19.4961   -5.1024 C   0  0  0  0  0  0  0  0  0  0  0  0
   27.9007  -20.1505   -4.4061 C   0  0  0  0  0  0  0  0  0  0  0  0
   26.7871  -20.6041   -5.1075 C   0  0  0  0  0  0  0  0  0  0  0  0
   26.7172  -20.3807   -6.4672 C   0  0  0  0  0  0  0  0  0  0  0  0
   26.9163  -20.7443  -10.6712 C   0  0  0  0  0  0  0  0  0  0  0  0
   27.6656  -20.4968  -11.6715 O   0  0  0  0  0  0  0  0  0  0  0  0
   24.5376  -23.1205  -12.5887 O   0  0  0  0  0  0  0  0  0  0  0  0
   25.2430  -22.0669  -13.1325 C   0  0  0  0  0  0  0  0  0  0  0  0
   25.0352  -20.7798  -12.3429 C   0  0  2  0  0  0  0  0  0  0  0  0
   25.5299  -20.9141  -10.9901 N   0  0  0  0  0  0  0  0  0  0  0  0
   23.5899  -20.4822  -12.3848 C   0  0  0  0  0  0  0  0  0  0  0  0
   22.8443  -20.7374  -11.3755 O   0  0  0  0  0  0  0  0  0  0  0  0
   21.9137  -19.3879  -15.7849 O   0  0  0  0  0  0  0  0  0  0  0  0
   21.0951  -18.8639  -14.7672 C   0  0  0  0  0  0  0  0  0  0  0  0
   21.4992  -19.6327  -13.5081 C   0  0  2  0  0  0  0  0  0  0  0  0
   22.9139  -19.9096  -13.4962 N   0  0  0  0  0  0  0  0  0  0  0  0
   20.6696  -20.8320  -13.3914 C   0  0  0  0  0  0  0  0  0  0  0  0
   21.1226  -21.9445  -13.7305 O   0  0  0  0  0  0  0  0  0  0  0  0
   19.3781  -20.7642  -12.9083 O   0  0  0  0  0  0  0  0  0  0  0  0
  2  1  1  6
  2  3  1  0
  4  3  1  0
  5  4  2  0
  6  5  1  0
  7  6  2  0
  7  8  1  0
  8  9  2  0
  9  4  1  0
 10  2  1  0
 10 11  2  0
 12 13  1  0
 14 13  1  6
 14 15  1  0
 15 10  1  0
 16 14  1  0
 17 16  2  0
 18 19  1  0
 20 19  1  6
 20 21  1  0
 20 22  1  0
 21 16  1  0
 22 23  2  0
 22 24  1  0
M  END
$$$$
