FSS.pdb
     RDKit          3D

 24 24  0  0  1  0  0  0  0  0999 V2000
   22.2292   -5.8156  -16.0026 N   0  0  0  0  0  0  0  0  0  0  0  0
   21.2749   -6.7488  -16.5154 C   0  0  1  0  0  0  0  0  0  0  0  0
   21.8055   -7.4094  -17.7625 C   0  0  0  0  0  0  0  0  0  0  0  0
   21.7859   -6.3724  -18.8492 C   0  0  0  0  0  0  0  0  0  0  0  0
   22.9679   -5.7372  -19.2225 C   0  0  0  0  0  0  0  0  0  0  0  0
   22.9537   -4.7853  -20.2120 C   0  0  0  0  0  0  0  0  0  0  0  0
   21.8004   -4.4232  -20.8650 C   0  0  0  0  0  0  0  0  0  0  0  0
   20.6114   -5.0497  -20.5024 C   0  0  0  0  0  0  0  0  0  0  0  0
   20.6359   -6.0049  -19.5072 C   0  0  0  0  0  0  0  0  0  0  0  0
   20.7982   -7.7320  -15.5207 C   0  0  0  0  0  0  0  0  0  0  0  0
   21.3297   -7.8152  -14.3658 O   0  0  0  0  0  0  0  0  0  0  0  0
   17.6086   -8.0041  -13.8256 O   0  0  0  0  0  0  0  0  0  0  0  0
   18.7338   -8.7399  -13.5161 C   0  0  0  0  0  0  0  0  0  0  0  0
   19.2372   -9.5346  -14.7155 C   0  0  2  0  0  0  0  0  0  0  0  0
   19.7271   -8.6544  -15.7540 N   0  0  0  0  0  0  0  0  0  0  0  0
   18.1119  -10.3724  -15.1749 C   0  0  0  0  0  0  0  0  0  0  0  0
   17.1357   -9.8525  -15.8203 O   0  0  0  0  0  0  0  0  0  0  0  0
   16.0466  -14.6930  -15.8132 O   0  0  0  0  0  0  0  0  0  0  0  0
   17.1349  -14.0546  -15.1900 C   0  0  0  0  0  0  0  0  0  0  0  0
   16.8801  -12.5606  -15.3965 C   0  0  2  0  0  0  0  0  0  0  0  0
   18.0050  -11.7729  -14.9577 N   0  0  0  0  0  0  0  0  0  0  0  0
   15.6225  -12.1940  -14.7452 C   0  0  0  0  0  0  0  0  0  0  0  0
   15.6074  -11.8895  -13.5349 O   0  0  0  0  0  0  0  0  0  0  0  0
   14.4329  -12.1757  -15.4456 O   0  0  0  0  0  0  0  0  0  0  0  0
  2  1  1  1
  2  3  1  0
  4  3  1  0
  5  4  2  0
  6  5  1  0
  7  6  2  0
  7  8  1  0
  8  9  2  0
  9  4  1  0
 10  2  1  0
 10 11  2  0
 12 13  1  0
 14 13  1  1
 14 15  1  0
 15 10  1  0
 16 14  1  0
 17 16  2  0
 18 19  1  0
 20 19  1  1
 20 21  1  0
 20 22  1  0
 21 16  1  0
 22 23  2  0
 22 24  1  0
M  END
$$$$
