FSS.pdb
     RDKit          3D

 24 24  0  0  1  0  0  0  0  0999 V2000
   17.3691   -8.4172  -12.5216 N   0  0  0  0  0  0  0  0  0  0  0  0
   18.0816   -8.0417  -13.7030 C   0  0  1  0  0  0  0  0  0  0  0  0
   17.1275   -7.5176  -14.7463 C   0  0  0  0  0  0  0  0  0  0  0  0
   16.4433   -8.7098  -15.3520 C   0  0  0  0  0  0  0  0  0  0  0  0
   17.1248   -9.5100  -16.2659 C   0  0  0  0  0  0  0  0  0  0  0  0
   16.5015  -10.5980  -16.8256 C   0  0  0  0  0  0  0  0  0  0  0  0
   15.2071  -10.9405  -16.5179 C   0  0  0  0  0  0  0  0  0  0  0  0
   14.5134  -10.1499  -15.6060 C   0  0  0  0  0  0  0  0  0  0  0  0
   15.1483   -9.0589  -15.0490 C   0  0  0  0  0  0  0  0  0  0  0  0
   19.2081   -7.1170  -13.4597 C   0  0  0  0  0  0  0  0  0  0  0  0
   19.1092   -6.1595  -12.6251 O   0  0  0  0  0  0  0  0  0  0  0  0
   22.8004   -7.1607  -15.7157 O   0  0  0  0  0  0  0  0  0  0  0  0
   22.8657   -6.7428  -14.4025 C   0  0  0  0  0  0  0  0  0  0  0  0
   21.5199   -6.2276  -13.9056 C   0  0  2  0  0  0  0  0  0  0  0  0
   20.4773   -7.2078  -14.1182 N   0  0  0  0  0  0  0  0  0  0  0  0
   21.2562   -4.9638  -14.6214 C   0  0  0  0  0  0  0  0  0  0  0  0
   20.7461   -4.9762  -15.7959 O   0  0  0  0  0  0  0  0  0  0  0  0
   20.4705   -1.5402  -12.8434 O   0  0  0  0  0  0  0  0  0  0  0  0
   20.1184   -1.6638  -14.2002 C   0  0  0  0  0  0  0  0  0  0  0  0
   21.2680   -2.4516  -14.8305 C   0  0  2  0  0  0  0  0  0  0  0  0
   21.5284   -3.6687  -14.1030 N   0  0  0  0  0  0  0  0  0  0  0  0
   22.4380   -1.5814  -14.9482 C   0  0  0  0  0  0  0  0  0  0  0  0
   23.5038   -1.8804  -14.3715 O   0  0  0  0  0  0  0  0  0  0  0  0
   22.3933   -0.4194  -15.6923 O   0  0  0  0  0  0  0  0  0  0  0  0
  2  1  1  1
  2  3  1  0
  4  3  1  0
  5  4  2  0
  6  5  1  0
  7  6  2  0
  7  8  1  0
  8  9  2  0
  9  4  1  0
 10  2  1  0
 10 11  2  0
 12 13  1  0
 14 13  1  6
 14 15  1  0
 15 10  1  0
 16 14  1  0
 17 16  2  0
 18 19  1  0
 20 19  1  1
 20 21  1  0
 20 22  1  0
 21 16  1  0
 22 23  2  0
 22 24  1  0
M  END
$$$$
