FSS.pdb
     RDKit          3D

 24 24  0  0  1  0  0  0  0  0999 V2000
   23.1502  -10.2108  -17.3086 N   0  0  0  0  0  0  0  0  0  0  0  0
   23.0568   -9.3262  -16.1891 C   0  0  1  0  0  0  0  0  0  0  0  0
   24.1803   -8.3211  -16.2200 C   0  0  0  0  0  0  0  0  0  0  0  0
   25.4647   -9.0991  -16.1793 C   0  0  0  0  0  0  0  0  0  0  0  0
   26.2884   -9.1362  -17.3019 C   0  0  0  0  0  0  0  0  0  0  0  0
   27.4610   -9.8501  -17.2706 C   0  0  0  0  0  0  0  0  0  0  0  0
   27.8673  -10.5448  -16.1572 C   0  0  0  0  0  0  0  0  0  0  0  0
   27.0541  -10.5168  -15.0277 C   0  0  0  0  0  0  0  0  0  0  0  0
   25.8780   -9.7967  -15.0688 C   0  0  0  0  0  0  0  0  0  0  0  0
   21.7350   -8.6836  -16.0368 C   0  0  0  0  0  0  0  0  0  0  0  0
   21.0694   -8.2920  -17.0501 O   0  0  0  0  0  0  0  0  0  0  0  0
   19.8326   -7.8946  -12.2774 O   0  0  0  0  0  0  0  0  0  0  0  0
   19.0885   -8.2226  -13.3919 C   0  0  0  0  0  0  0  0  0  0  0  0
   19.7963   -7.8238  -14.6817 C   0  0  2  0  0  0  0  0  0  0  0  0
   21.0977   -8.4486  -14.7753 N   0  0  0  0  0  0  0  0  0  0  0  0
   19.8801   -6.3499  -14.6841 C   0  0  0  0  0  0  0  0  0  0  0  0
   21.0138   -5.7636  -14.7882 O   0  0  0  0  0  0  0  0  0  0  0  0
   19.5336   -2.4762  -16.4516 O   0  0  0  0  0  0  0  0  0  0  0  0
   19.4262   -3.8723  -16.3108 C   0  0  0  0  0  0  0  0  0  0  0  0
   18.8150   -4.0778  -14.9238 C   0  0  2  0  0  0  0  0  0  0  0  0
   18.7643   -5.4762  -14.5768 N   0  0  0  0  0  0  0  0  0  0  0  0
   17.5110   -3.4168  -14.8716 C   0  0  0  0  0  0  0  0  0  0  0  0
   16.4898   -4.0092  -15.2769 O   0  0  0  0  0  0  0  0  0  0  0  0
   17.3782   -2.1344  -14.3778 O   0  0  0  0  0  0  0  0  0  0  0  0
  2  1  1  6
  2  3  1  0
  4  3  1  0
  5  4  2  0
  6  5  1  0
  7  6  2  0
  7  8  1  0
  8  9  2  0
  9  4  1  0
 10  2  1  0
 10 11  2  0
 12 13  1  0
 14 13  1  1
 14 15  1  0
 15 10  1  0
 16 14  1  0
 17 16  2  0
 18 19  1  0
 20 19  1  6
 20 21  1  0
 20 22  1  0
 21 16  1  0
 22 23  2  0
 22 24  1  0
M  END
$$$$
