FSS.pdb
     RDKit          3D

 24 24  0  0  1  0  0  0  0  0999 V2000
   23.3707  -11.9343  -17.1673 N   0  0  0  0  0  0  0  0  0  0  0  0
   23.8417  -10.8029  -16.4307 C   0  0  1  0  0  0  0  0  0  0  0  0
   25.1286  -10.2891  -17.0251 C   0  0  0  0  0  0  0  0  0  0  0  0
   26.1428  -11.3890  -16.8900 C   0  0  0  0  0  0  0  0  0  0  0  0
   26.4562  -12.1819  -17.9914 C   0  0  0  0  0  0  0  0  0  0  0  0
   27.3792  -13.1914  -17.8711 C   0  0  0  0  0  0  0  0  0  0  0  0
   28.0218  -13.4606  -16.6870 C   0  0  0  0  0  0  0  0  0  0  0  0
   27.7186  -12.6762  -15.5776 C   0  0  0  0  0  0  0  0  0  0  0  0
   26.7900  -11.6642  -15.7085 C   0  0  0  0  0  0  0  0  0  0  0  0
   22.8370   -9.7328  -16.2611 C   0  0  0  0  0  0  0  0  0  0  0  0
   22.0981   -9.3600  -17.2296 O   0  0  0  0  0  0  0  0  0  0  0  0
   21.9311   -7.8705  -12.5382 O   0  0  0  0  0  0  0  0  0  0  0  0
   20.9822   -7.9761  -13.5340 C   0  0  0  0  0  0  0  0  0  0  0  0
   21.6161   -7.9876  -14.9202 C   0  0  2  0  0  0  0  0  0  0  0  0
   22.6064   -9.0365  -15.0304 N   0  0  0  0  0  0  0  0  0  0  0  0
   22.1933   -6.6462  -15.1365 C   0  0  0  0  0  0  0  0  0  0  0  0
   23.4045   -6.5158  -15.5313 O   0  0  0  0  0  0  0  0  0  0  0  0
   21.2124   -4.1845  -17.4205 O   0  0  0  0  0  0  0  0  0  0  0  0
   22.4296   -4.0338  -16.7306 C   0  0  0  0  0  0  0  0  0  0  0  0
   22.0533   -4.1319  -15.2513 C   0  0  2  0  0  0  0  0  0  0  0  0
   21.4956   -5.4240  -14.9383 N   0  0  0  0  0  0  0  0  0  0  0  0
   21.1711   -3.0172  -14.9059 C   0  0  0  0  0  0  0  0  0  0  0  0
   19.9641   -3.2232  -14.6637 O   0  0  0  0  0  0  0  0  0  0  0  0
   21.6463   -1.7228  -14.8397 O   0  0  0  0  0  0  0  0  0  0  0  0
  2  1  1  6
  2  3  1  0
  4  3  1  0
  5  4  2  0
  6  5  1  0
  7  6  2  0
  7  8  1  0
  8  9  2  0
  9  4  1  0
 10  2  1  0
 10 11  2  0
 12 13  1  0
 14 13  1  1
 14 15  1  0
 15 10  1  0
 16 14  1  0
 17 16  2  0
 18 19  1  0
 20 19  1  6
 20 21  1  0
 20 22  1  0
 21 16  1  0
 22 23  2  0
 22 24  1  0
M  END
$$$$
