FSS.pdb
     RDKit          3D

 24 24  0  0  1  0  0  0  0  0999 V2000
   15.4468  -13.5717    7.0084 N   0  0  0  0  0  0  0  0  0  0  0  0
   16.7160  -14.2271    7.0715 C   0  0  1  0  0  0  0  0  0  0  0  0
   17.6569  -13.4624    7.9679 C   0  0  0  0  0  0  0  0  0  0  0  0
   18.7380  -12.9002    7.0895 C   0  0  0  0  0  0  0  0  0  0  0  0
   18.4062  -12.3169    5.8690 C   0  0  0  0  0  0  0  0  0  0  0  0
   19.3917  -11.8060    5.0608 C   0  0  0  0  0  0  0  0  0  0  0  0
   20.7200  -11.8453    5.4096 C   0  0  0  0  0  0  0  0  0  0  0  0
   21.0667  -12.4254    6.6265 C   0  0  0  0  0  0  0  0  0  0  0  0
   20.0693  -12.9358    7.4317 C   0  0  0  0  0  0  0  0  0  0  0  0
   16.6385  -15.6580    7.4319 C   0  0  0  0  0  0  0  0  0  0  0  0
   16.1822  -16.0317    8.5612 O   0  0  0  0  0  0  0  0  0  0  0  0
   17.8504  -18.9563    4.9057 O   0  0  0  0  0  0  0  0  0  0  0  0
   16.7779  -19.0239    5.7709 C   0  0  0  0  0  0  0  0  0  0  0  0
   16.9665  -18.1116    6.9774 C   0  0  2  0  0  0  0  0  0  0  0  0
   17.0557  -16.7256    6.5723 N   0  0  0  0  0  0  0  0  0  0  0  0
   18.1838  -18.5718    7.6742 C   0  0  0  0  0  0  0  0  0  0  0  0
   19.3342  -18.1186    7.3408 O   0  0  0  0  0  0  0  0  0  0  0  0
   18.1889  -21.2231   10.9170 O   0  0  0  0  0  0  0  0  0  0  0  0
   19.1526  -20.1979   10.8902 C   0  0  0  0  0  0  0  0  0  0  0  0
   19.4051  -19.9397    9.4039 C   0  0  2  0  0  0  0  0  0  0  0  0
   18.1999  -19.5182    8.7344 N   0  0  0  0  0  0  0  0  0  0  0  0
   20.0178  -21.1271    8.8082 C   0  0  0  0  0  0  0  0  0  0  0  0
   19.4268  -21.7523    7.9040 O   0  0  0  0  0  0  0  0  0  0  0  0
   21.2525  -21.5813    9.2268 O   0  0  0  0  0  0  0  0  0  0  0  0
  2  1  1  1
  2  3  1  0
  4  3  1  0
  5  4  2  0
  6  5  1  0
  7  6  2  0
  7  8  1  0
  8  9  2  0
  9  4  1  0
 10  2  1  0
 10 11  2  0
 12 13  1  0
 14 13  1  6
 14 15  1  0
 15 10  1  0
 16 14  1  0
 17 16  2  0
 18 19  1  0
 20 19  1  1
 20 21  1  0
 20 22  1  0
 21 16  1  0
 22 23  2  0
 22 24  1  0
M  END
$$$$
