QES.pdb
     RDKit          3D

 25 24  0  0  1  0  0  0  0  0999 V2000
   12.9843   -7.0156  -15.0382 N   0  0  0  0  0  0  0  0  0  0  0  0
   13.2067   -8.2236  -15.7424 C   0  0  0  0  0  0  0  0  0  0  0  0
   12.2552   -8.7230  -16.3875 O   0  0  0  0  0  0  0  0  0  0  0  0
   14.5058   -8.8995  -15.7381 C   0  0  0  0  0  0  0  0  0  0  0  0
   15.5410   -8.0443  -15.0059 C   0  0  0  0  0  0  0  0  0  0  0  0
   16.8329   -8.7859  -15.0553 C   0  0  2  0  0  0  0  0  0  0  0  0
   16.6809  -10.0228  -14.3320 N   0  0  0  0  0  0  0  0  0  0  0  0
   18.0065   -8.0018  -14.6229 C   0  0  0  0  0  0  0  0  0  0  0  0
   18.2121   -7.8517  -13.3897 O   0  0  0  0  0  0  0  0  0  0  0  0
   18.9305   -7.3978  -15.4989 N   0  0  0  0  0  0  0  0  0  0  0  0
   20.1097   -6.6387  -15.0499 C   0  0  1  0  0  0  0  0  0  0  0  0
   21.3038   -7.3852  -15.5276 C   0  0  0  0  0  0  0  0  0  0  0  0
   21.6880   -8.5861  -14.7109 C   0  0  0  0  0  0  0  0  0  0  0  0
   22.8952   -9.2869  -15.1747 C   0  0  0  0  0  0  0  0  0  0  0  0
   23.9934   -8.7169  -15.2404 O   0  0  0  0  0  0  0  0  0  0  0  0
   20.0233   -5.2333  -15.4401 C   0  0  0  0  0  0  0  0  0  0  0  0
   19.7160   -4.9000  -16.6076 O   0  0  0  0  0  0  0  0  0  0  0  0
   22.8147  -10.6302  -15.5539 O   0  0  0  0  0  0  0  0  0  0  0  0
   17.9659   -2.5106  -14.2141 O   0  0  0  0  0  0  0  0  0  0  0  0
   19.2349   -1.9738  -14.0570 C   0  0  0  0  0  0  0  0  0  0  0  0
   20.1979   -2.7673  -14.8925 C   0  0  2  0  0  0  0  0  0  0  0  0
   20.2806   -4.1495  -14.5266 N   0  0  0  0  0  0  0  0  0  0  0  0
   21.5329   -2.1021  -14.8918 C   0  0  0  0  0  0  0  0  0  0  0  0
   21.5951   -0.9056  -15.2563 O   0  0  0  0  0  0  0  0  0  0  0  0
   22.6725   -2.7664  -14.5057 O   0  0  0  0  0  0  0  0  0  0  0  0
  2  4  1  0
  2  1  1  0
  3  2  2  0
  5  4  1  0
  6  5  1  0
  6  8  1  0
  6  7  1  1
  8 10  1  0
  9  8  2  0
 10 11  1  0
 11 16  1  0
 11 12  1  6
 12 13  1  0
 13 14  1  0
 14 18  1  0
 14 15  2  0
 16 17  2  0
 19 20  1  0
 21 20  1  1
 21 22  1  0
 21 23  1  0
 22 16  1  0
 23 24  2  0
 23 25  1  0
M  END
$$$$
