QES.pdb
     RDKit          3D

 25 24  0  0  1  0  0  0  0  0999 V2000
   17.0152   -5.9608   -8.6056 N   0  0  0  0  0  0  0  0  0  0  0  0
   15.6819   -5.5989   -8.2962 C   0  0  0  0  0  0  0  0  0  0  0  0
   15.4321   -4.3967   -8.0444 O   0  0  0  0  0  0  0  0  0  0  0  0
   14.5962   -6.5812   -8.2625 C   0  0  0  0  0  0  0  0  0  0  0  0
   15.1322   -7.9692   -8.6163 C   0  0  0  0  0  0  0  0  0  0  0  0
   14.5722   -8.3257   -9.9509 C   0  0  2  0  0  0  0  0  0  0  0  0
   13.9250   -9.6090   -9.8500 N   0  0  0  0  0  0  0  0  0  0  0  0
   15.5414   -8.2509  -11.0619 C   0  0  0  0  0  0  0  0  0  0  0  0
   16.0848   -9.3137  -11.4625 O   0  0  0  0  0  0  0  0  0  0  0  0
   15.9117   -7.0610  -11.7199 N   0  0  0  0  0  0  0  0  0  0  0  0
   16.8653   -7.0073  -12.8407 C   0  0  1  0  0  0  0  0  0  0  0  0
   16.2492   -6.1437  -13.8829 C   0  0  0  0  0  0  0  0  0  0  0  0
   15.0788   -6.7404  -14.6115 C   0  0  0  0  0  0  0  0  0  0  0  0
   14.0242   -5.7814  -14.9747 C   0  0  0  0  0  0  0  0  0  0  0  0
   12.9654   -6.1484  -15.5034 O   0  0  0  0  0  0  0  0  0  0  0  0
   18.2023   -6.6277  -12.3898 C   0  0  0  0  0  0  0  0  0  0  0  0
   18.3685   -5.7396  -11.5225 O   0  0  0  0  0  0  0  0  0  0  0  0
   14.2091   -4.4188  -14.7222 O   0  0  0  0  0  0  0  0  0  0  0  0
   21.6992   -8.3308  -14.0274 O   0  0  0  0  0  0  0  0  0  0  0  0
   21.7419   -7.9684  -12.6894 C   0  0  0  0  0  0  0  0  0  0  0  0
   20.7195   -6.8946  -12.4507 C   0  0  2  0  0  0  0  0  0  0  0  0
   19.4036   -7.2365  -12.9011 N   0  0  0  0  0  0  0  0  0  0  0  0
   21.1974   -5.6059  -13.0298 C   0  0  0  0  0  0  0  0  0  0  0  0
   20.6019   -5.1549  -14.0351 O   0  0  0  0  0  0  0  0  0  0  0  0
   22.2584   -4.9188  -12.4900 O   0  0  0  0  0  0  0  0  0  0  0  0
  2  4  1  0
  2  1  1  0
  3  2  2  0
  5  4  1  0
  6  5  1  0
  6  8  1  0
  6  7  1  1
  8 10  1  0
  9  8  2  0
 10 11  1  0
 11 16  1  0
 11 12  1  6
 12 13  1  0
 13 14  1  0
 14 18  1  0
 14 15  2  0
 16 17  2  0
 19 20  1  0
 21 20  1  6
 21 22  1  0
 21 23  1  0
 22 16  1  0
 23 24  2  0
 23 25  1  0
M  END
$$$$
