QES.pdb
     RDKit          3D

 25 24  0  0  1  0  0  0  0  0999 V2000
   12.6330  -22.0829   -0.1190 N   0  0  0  0  0  0  0  0  0  0  0  0
   12.2265  -21.2000    0.9104 C   0  0  0  0  0  0  0  0  0  0  0  0
   11.1744  -20.5381    0.7492 O   0  0  0  0  0  0  0  0  0  0  0  0
   12.9943  -21.0400    2.1472 C   0  0  0  0  0  0  0  0  0  0  0  0
   14.1640  -22.0251    2.1709 C   0  0  0  0  0  0  0  0  0  0  0  0
   15.3647  -21.2880    1.6845 C   0  0  2  0  0  0  0  0  0  0  0  0
   15.4622  -21.4590    0.2572 N   0  0  0  0  0  0  0  0  0  0  0  0
   16.6159  -21.6184    2.3948 C   0  0  0  0  0  0  0  0  0  0  0  0
   17.4291  -22.4104    1.8500 O   0  0  0  0  0  0  0  0  0  0  0  0
   16.9765  -21.1070    3.6575 N   0  0  0  0  0  0  0  0  0  0  0  0
   18.2219  -21.4600    4.3593 C   0  0  1  0  0  0  0  0  0  0  0  0
   18.8313  -20.1820    4.8141 C   0  0  0  0  0  0  0  0  0  0  0  0
   20.1029  -20.3139    5.6030 C   0  0  0  0  0  0  0  0  0  0  0  0
   20.7514  -19.0388    5.9455 C   0  0  0  0  0  0  0  0  0  0  0  0
   21.8161  -18.9999    6.5780 O   0  0  0  0  0  0  0  0  0  0  0  0
   17.9897  -22.4712    5.3881 C   0  0  0  0  0  0  0  0  0  0  0  0
   16.9998  -22.4062    6.1525 O   0  0  0  0  0  0  0  0  0  0  0  0
   20.1616  -17.8335    5.5531 O   0  0  0  0  0  0  0  0  0  0  0  0
   19.1143  -26.7382    7.4136 O   0  0  0  0  0  0  0  0  0  0  0  0
   19.4302  -25.8508    6.3958 C   0  0  0  0  0  0  0  0  0  0  0  0
   18.6763  -24.5721    6.6236 C   0  0  2  0  0  0  0  0  0  0  0  0
   18.8669  -23.5954    5.5936 N   0  0  0  0  0  0  0  0  0  0  0  0
   18.9941  -24.0339    7.9778 C   0  0  0  0  0  0  0  0  0  0  0  0
   19.8124  -23.0893    8.0593 O   0  0  0  0  0  0  0  0  0  0  0  0
   18.4159  -24.5464    9.1146 O   0  0  0  0  0  0  0  0  0  0  0  0
  2  4  1  0
  2  1  1  0
  3  2  2  0
  5  4  1  0
  6  5  1  0
  6  8  1  0
  6  7  1  6
  8 10  1  0
  9  8  2  0
 10 11  1  0
 11 16  1  0
 11 12  1  1
 12 13  1  0
 13 14  1  0
 14 18  1  0
 14 15  2  0
 16 17  2  0
 19 20  1  0
 21 20  1  6
 21 22  1  0
 21 23  1  0
 22 16  1  0
 23 24  2  0
 23 25  1  0
M  END
$$$$
