QES.pdb
     RDKit          3D

 25 24  0  0  1  0  0  0  0  0999 V2000
   21.7751  -15.6500  -20.3835 N   0  0  0  0  0  0  0  0  0  0  0  0
   21.4449  -14.2874  -20.1864 C   0  0  0  0  0  0  0  0  0  0  0  0
   21.7315  -13.4664  -21.0891 O   0  0  0  0  0  0  0  0  0  0  0  0
   20.7836  -13.8148  -18.9682 C   0  0  0  0  0  0  0  0  0  0  0  0
   20.4990  -12.3157  -19.0723 C   0  0  0  0  0  0  0  0  0  0  0  0
   21.4098  -11.6311  -18.1114 C   0  0  2  0  0  0  0  0  0  0  0  0
   21.5357  -12.4512  -16.9334 N   0  0  0  0  0  0  0  0  0  0  0  0
   21.0428  -10.2337  -17.8086 C   0  0  0  0  0  0  0  0  0  0  0  0
   20.8664   -9.4343  -18.7652 O   0  0  0  0  0  0  0  0  0  0  0  0
   20.8717   -9.7166  -16.5089 N   0  0  0  0  0  0  0  0  0  0  0  0
   20.4550   -8.3328  -16.2259 C   0  0  1  0  0  0  0  0  0  0  0  0
   19.1285   -8.4157  -15.5590 C   0  0  0  0  0  0  0  0  0  0  0  0
   18.5207   -7.1018  -15.1575 C   0  0  0  0  0  0  0  0  0  0  0  0
   17.1806   -7.1993  -14.5589 C   0  0  0  0  0  0  0  0  0  0  0  0
   16.1568   -6.9563  -15.2131 O   0  0  0  0  0  0  0  0  0  0  0  0
   21.4952   -7.5945  -15.5134 C   0  0  0  0  0  0  0  0  0  0  0  0
   21.8227   -7.8978  -14.3432 O   0  0  0  0  0  0  0  0  0  0  0  0
   17.0452   -7.5745  -13.2189 O   0  0  0  0  0  0  0  0  0  0  0  0
   22.9820   -4.1119  -17.2969 O   0  0  0  0  0  0  0  0  0  0  0  0
   22.4846   -4.0429  -16.0042 C   0  0  0  0  0  0  0  0  0  0  0  0
   22.6957   -5.3720  -15.3377 C   0  0  2  0  0  0  0  0  0  0  0  0
   22.2060   -6.4846  -16.0950 N   0  0  0  0  0  0  0  0  0  0  0  0
   22.1341   -5.3382  -13.9564 C   0  0  0  0  0  0  0  0  0  0  0  0
   21.3488   -6.2529  -13.6172 O   0  0  0  0  0  0  0  0  0  0  0  0
   22.4572   -4.3407  -13.0677 O   0  0  0  0  0  0  0  0  0  0  0  0
  2  4  1  0
  2  1  1  0
  3  2  2  0
  5  4  1  0
  6  5  1  0
  6  8  1  0
  6  7  1  1
  8 10  1  0
  9  8  2  0
 10 11  1  0
 11 16  1  0
 11 12  1  1
 12 13  1  0
 13 14  1  0
 14 18  1  0
 14 15  2  0
 16 17  2  0
 19 20  1  0
 21 20  1  6
 21 22  1  0
 21 23  1  0
 22 16  1  0
 23 24  2  0
 23 25  1  0
M  END
$$$$
