QES.pdb
     RDKit          3D

 25 24  0  0  1  0  0  0  0  0999 V2000
   12.5305  -11.4603  -16.5924 N   0  0  0  0  0  0  0  0  0  0  0  0
   13.3099  -11.2354  -15.4320 C   0  0  0  0  0  0  0  0  0  0  0  0
   12.7198  -11.0678  -14.3390 O   0  0  0  0  0  0  0  0  0  0  0  0
   14.7733  -11.1935  -15.4730 C   0  0  0  0  0  0  0  0  0  0  0  0
   15.3292  -10.8786  -14.0835 C   0  0  0  0  0  0  0  0  0  0  0  0
   16.8086  -10.7604  -14.2222 C   0  0  2  0  0  0  0  0  0  0  0  0
   17.3738  -12.0851  -14.2629 N   0  0  0  0  0  0  0  0  0  0  0  0
   17.4501   -9.8868  -13.2201 C   0  0  0  0  0  0  0  0  0  0  0  0
   17.9226  -10.4095  -12.1766 O   0  0  0  0  0  0  0  0  0  0  0  0
   17.5767   -8.4887  -13.3434 N   0  0  0  0  0  0  0  0  0  0  0  0
   18.1960   -7.6287  -12.3209 C   0  0  1  0  0  0  0  0  0  0  0  0
   19.4382   -7.0770  -12.9242 C   0  0  0  0  0  0  0  0  0  0  0  0
   20.2347   -6.1573  -12.0429 C   0  0  0  0  0  0  0  0  0  0  0  0
   21.4626   -5.6268  -12.6548 C   0  0  0  0  0  0  0  0  0  0  0  0
   22.5626   -5.7211  -12.0924 O   0  0  0  0  0  0  0  0  0  0  0  0
   17.2440   -6.6555  -11.7904 C   0  0  0  0  0  0  0  0  0  0  0  0
   16.4942   -5.9988  -12.5487 O   0  0  0  0  0  0  0  0  0  0  0  0
   21.4003   -4.9982  -13.9020 O   0  0  0  0  0  0  0  0  0  0  0  0
   15.4843   -6.7728   -8.0746 O   0  0  0  0  0  0  0  0  0  0  0  0
   15.9977   -5.5174   -8.3639 C   0  0  0  0  0  0  0  0  0  0  0  0
   16.1980   -5.4118   -9.8485 C   0  0  2  0  0  0  0  0  0  0  0  0
   17.1018   -6.3862  -10.3823 N   0  0  0  0  0  0  0  0  0  0  0  0
   16.5937   -4.0190  -10.2061 C   0  0  0  0  0  0  0  0  0  0  0  0
   17.6751   -3.8517  -10.8152 O   0  0  0  0  0  0  0  0  0  0  0  0
   15.8077   -2.9381   -9.8852 O   0  0  0  0  0  0  0  0  0  0  0  0
  2  4  1  0
  2  1  1  0
  3  2  2  0
  5  4  1  0
  6  5  1  0
  6  8  1  0
  6  7  1  1
  8 10  1  0
  9  8  2  0
 10 11  1  0
 11 16  1  0
 11 12  1  6
 12 13  1  0
 13 14  1  0
 14 18  1  0
 14 15  2  0
 16 17  2  0
 19 20  1  0
 21 20  1  1
 21 22  1  0
 21 23  1  0
 22 16  1  0
 23 24  2  0
 23 25  1  0
M  END
$$$$
