QES.pdb
     RDKit          3D

 25 24  0  0  1  0  0  0  0  0999 V2000
   15.4502  -13.9765  -15.2468 N   0  0  0  0  0  0  0  0  0  0  0  0
   16.8634  -14.0552  -15.2817 C   0  0  0  0  0  0  0  0  0  0  0  0
   17.4720  -14.3459  -14.2252 O   0  0  0  0  0  0  0  0  0  0  0  0
   17.6269  -13.8087  -16.5068 C   0  0  0  0  0  0  0  0  0  0  0  0
   18.7480  -12.8047  -16.2344 C   0  0  0  0  0  0  0  0  0  0  0  0
   18.3563  -11.5251  -16.8908 C   0  0  2  0  0  0  0  0  0  0  0  0
   17.9019  -11.8142  -18.2272 N   0  0  0  0  0  0  0  0  0  0  0  0
   19.3893  -10.4716  -16.8449 C   0  0  0  0  0  0  0  0  0  0  0  0
   20.5145  -10.7495  -16.3529 O   0  0  0  0  0  0  0  0  0  0  0  0
   19.2101   -9.1561  -17.3173 N   0  0  0  0  0  0  0  0  0  0  0  0
   20.2671   -8.1309  -17.3078 C   0  0  1  0  0  0  0  0  0  0  0  0
   20.1902   -7.4280  -18.6160 C   0  0  0  0  0  0  0  0  0  0  0  0
   21.2003   -6.3360  -18.8264 C   0  0  0  0  0  0  0  0  0  0  0  0
   21.0814   -5.6244  -20.1082 C   0  0  0  0  0  0  0  0  0  0  0  0
   20.2819   -4.6904  -20.2618 O   0  0  0  0  0  0  0  0  0  0  0  0
   20.1898   -7.2918  -16.1141 C   0  0  0  0  0  0  0  0  0  0  0  0
   19.1024   -6.8005  -15.7336 O   0  0  0  0  0  0  0  0  0  0  0  0
   21.8851   -6.0019  -21.1881 O   0  0  0  0  0  0  0  0  0  0  0  0
   20.7490   -7.8980  -12.5487 O   0  0  0  0  0  0  0  0  0  0  0  0
   21.7182   -6.9610  -12.8741 C   0  0  0  0  0  0  0  0  0  0  0  0
   21.2686   -6.2103  -14.0946 C   0  0  2  0  0  0  0  0  0  0  0  0
   21.3379   -6.9749  -15.3037 N   0  0  0  0  0  0  0  0  0  0  0  0
   22.0137   -4.9225  -14.1974 C   0  0  0  0  0  0  0  0  0  0  0  0
   22.6775   -4.7072  -15.2374 O   0  0  0  0  0  0  0  0  0  0  0  0
   21.9849   -3.9870  -13.1908 O   0  0  0  0  0  0  0  0  0  0  0  0
  2  4  1  0
  2  1  1  0
  3  2  2  0
  5  4  1  0
  6  5  1  0
  6  8  1  0
  6  7  1  6
  8 10  1  0
  9  8  2  0
 10 11  1  0
 11 16  1  0
 11 12  1  6
 12 13  1  0
 13 14  1  0
 14 18  1  0
 14 15  2  0
 16 17  2  0
 19 20  1  0
 21 20  1  1
 21 22  1  0
 21 23  1  0
 22 16  1  0
 23 24  2  0
 23 25  1  0
M  END
$$$$
