QES.pdb
     RDKit          3D

 25 24  0  0  1  0  0  0  0  0999 V2000
   17.2701  -14.1603  -13.7540 N   0  0  0  0  0  0  0  0  0  0  0  0
   16.3107  -14.5138  -12.7747 C   0  0  0  0  0  0  0  0  0  0  0  0
   16.0416  -15.7272  -12.6123 O   0  0  0  0  0  0  0  0  0  0  0  0
   15.6301  -13.5102  -11.9535 C   0  0  0  0  0  0  0  0  0  0  0  0
   16.1124  -12.1084  -12.3296 C   0  0  0  0  0  0  0  0  0  0  0  0
   15.3036  -11.1411  -11.5346 C   0  0  2  0  0  0  0  0  0  0  0  0
   13.9178  -11.2921  -11.8989 N   0  0  0  0  0  0  0  0  0  0  0  0
   15.7735   -9.7437  -11.6081 C   0  0  0  0  0  0  0  0  0  0  0  0
   15.3624   -9.0166  -12.5503 O   0  0  0  0  0  0  0  0  0  0  0  0
   16.6620   -9.1504  -10.6892 N   0  0  0  0  0  0  0  0  0  0  0  0
   17.1995   -7.7870  -10.8325 C   0  0  1  0  0  0  0  0  0  0  0  0
   16.8674   -7.0642   -9.5761 C   0  0  0  0  0  0  0  0  0  0  0  0
   15.4311   -6.6503   -9.4256 C   0  0  0  0  0  0  0  0  0  0  0  0
   15.1491   -5.8193   -8.2452 C   0  0  0  0  0  0  0  0  0  0  0  0
   13.9962   -5.4680   -7.9576 O   0  0  0  0  0  0  0  0  0  0  0  0
   18.6084   -7.8038  -11.2193 C   0  0  0  0  0  0  0  0  0  0  0  0
   19.4512   -8.4722  -10.5779 O   0  0  0  0  0  0  0  0  0  0  0  0
   16.1996   -5.4089   -7.4189 O   0  0  0  0  0  0  0  0  0  0  0  0
   19.9537   -7.8196  -14.8969 O   0  0  0  0  0  0  0  0  0  0  0  0
   20.8119   -8.0533  -13.8328 C   0  0  0  0  0  0  0  0  0  0  0  0
   20.4974   -7.0734  -12.7391 C   0  0  2  0  0  0  0  0  0  0  0  0
   19.1203   -7.0659  -12.3458 N   0  0  0  0  0  0  0  0  0  0  0  0
   20.9823   -5.7163  -13.1232 C   0  0  0  0  0  0  0  0  0  0  0  0
   22.2137   -5.5543  -13.2839 O   0  0  0  0  0  0  0  0  0  0  0  0
   20.1184   -4.6621  -13.3003 O   0  0  0  0  0  0  0  0  0  0  0  0
  2  4  1  0
  2  1  1  0
  3  2  2  0
  5  4  1  0
  6  5  1  0
  6  8  1  0
  6  7  1  6
  8 10  1  0
  9  8  2  0
 10 11  1  0
 11 16  1  0
 11 12  1  1
 12 13  1  0
 13 14  1  0
 14 18  1  0
 14 15  2  0
 16 17  2  0
 19 20  1  0
 21 20  1  6
 21 22  1  0
 21 23  1  0
 22 16  1  0
 23 24  2  0
 23 25  1  0
M  END
$$$$
