QES.pdb
     RDKit          3D

 25 24  0  0  1  0  0  0  0  0999 V2000
   20.6272  -22.7465   -8.3175 N   0  0  0  0  0  0  0  0  0  0  0  0
   20.1724  -22.0461   -9.4608 C   0  0  0  0  0  0  0  0  0  0  0  0
   19.2369  -22.5415  -10.1321 O   0  0  0  0  0  0  0  0  0  0  0  0
   20.7592  -20.7706   -9.8771 C   0  0  0  0  0  0  0  0  0  0  0  0
   21.8956  -20.3811   -8.9307 C   0  0  0  0  0  0  0  0  0  0  0  0
   23.1659  -20.8356   -9.5643 C   0  0  2  0  0  0  0  0  0  0  0  0
   24.2392  -20.6615   -8.6189 N   0  0  0  0  0  0  0  0  0  0  0  0
   23.4470  -20.2264  -10.8792 C   0  0  0  0  0  0  0  0  0  0  0  0
   23.5756  -18.9759  -10.9509 O   0  0  0  0  0  0  0  0  0  0  0  0
   23.5848  -20.9490  -12.0812 N   0  0  0  0  0  0  0  0  0  0  0  0
   23.9475  -20.3348  -13.3695 C   0  0  1  0  0  0  0  0  0  0  0  0
   25.1495  -21.0584  -13.8626 C   0  0  0  0  0  0  0  0  0  0  0  0
   25.6572  -20.6304  -15.2102 C   0  0  0  0  0  0  0  0  0  0  0  0
   26.8374  -21.3675  -15.6873 C   0  0  0  0  0  0  0  0  0  0  0  0
   27.3400  -22.2877  -15.0273 O   0  0  0  0  0  0  0  0  0  0  0  0
   22.8046  -20.2795  -14.2780 C   0  0  0  0  0  0  0  0  0  0  0  0
   22.0415  -21.2617  -14.4240 O   0  0  0  0  0  0  0  0  0  0  0  0
   27.4158  -21.0307  -16.9147 O   0  0  0  0  0  0  0  0  0  0  0  0
   21.8119  -16.7672  -16.3504 O   0  0  0  0  0  0  0  0  0  0  0  0
   20.7746  -17.6301  -16.0298 C   0  0  0  0  0  0  0  0  0  0  0  0
   21.3287  -19.0204  -15.9053 C   0  0  2  0  0  0  0  0  0  0  0  0
   22.4790  -19.1122  -15.0570 N   0  0  0  0  0  0  0  0  0  0  0  0
   21.5812  -19.5859  -17.2621 C   0  0  0  0  0  0  0  0  0  0  0  0
   22.7577  -19.8914  -17.5635 O   0  0  0  0  0  0  0  0  0  0  0  0
   20.5653  -19.7735  -18.1688 O   0  0  0  0  0  0  0  0  0  0  0  0
  2  4  1  0
  2  1  1  0
  3  2  2  0
  5  4  1  0
  6  5  1  0
  6  8  1  0
  6  7  1  1
  8 10  1  0
  9  8  2  0
 10 11  1  0
 11 16  1  0
 11 12  1  6
 12 13  1  0
 13 14  1  0
 14 18  1  0
 14 15  2  0
 16 17  2  0
 19 20  1  0
 21 20  1  6
 21 22  1  0
 21 23  1  0
 22 16  1  0
 23 24  2  0
 23 25  1  0
M  END
$$$$
