RTW.pdb
     RDKit          3D

 33 34  0  0  1  0  0  0  0  0999 V2000
   28.7848  -28.2289  -16.4404 N   0  0  0  0  0  0  0  0  0  0  0  0
   30.0495  -28.3257  -17.1081 C   0  0  0  0  0  0  0  0  0  0  0  0
   30.3503  -29.4319  -17.6713 N   0  0  0  0  0  0  0  0  0  0  0  0
   30.9240  -27.2154  -17.1306 N   0  0  0  0  0  0  0  0  0  0  0  0
   30.5203  -25.9723  -16.4595 C   0  0  0  0  0  0  0  0  0  0  0  0
   30.1242  -24.9579  -17.5011 C   0  0  0  0  0  0  0  0  0  0  0  0
   29.6719  -23.6594  -16.9492 C   0  0  0  0  0  0  0  0  0  0  0  0
   28.3447  -23.6697  -16.2858 C   0  0  2  0  0  0  0  0  0  0  0  0
   27.2212  -24.0253  -17.0776 N   0  0  0  0  0  0  0  0  0  0  0  0
   28.1276  -22.3880  -15.5322 C   0  0  0  0  0  0  0  0  0  0  0  0
   28.9903  -21.4776  -15.5236 O   0  0  0  0  0  0  0  0  0  0  0  0
   31.2335  -29.5835  -18.2043 C   0  0  0  0  0  0  0  0  0  0  0  0
   25.9855  -19.7405  -16.2810 C   0  0  2  0  0  0  0  0  0  0  0  0
   25.5979  -20.2083  -14.9129 O   0  0  0  0  0  0  0  0  0  0  0  0
   24.4909  -21.0500  -15.0395 C   0  0  2  0  0  0  0  0  0  0  0  0
   26.7105  -20.8761  -14.1413 N   0  0  0  0  0  0  0  0  0  0  0  0
   26.9279  -22.1820  -14.8072 C   0  0  0  0  0  0  0  0  0  0  0  0
   26.3686  -21.1958  -12.7398 O   0  0  0  0  0  0  0  0  0  0  0  0
   25.9652  -22.3723  -12.4253 N   0  0  0  0  0  0  0  0  0  0  0  0
   26.4353  -20.3176  -11.6340 C   0  0  1  0  0  0  0  0  0  0  0  0
   26.1611  -20.7241  -10.2744 C   0  0  0  0  0  0  0  0  0  0  0  0
   27.2587  -20.4115   -9.2949 C   0  0  0  0  0  0  0  0  0  0  0  0
   26.7605  -20.4163   -7.9158 C   0  0  0  0  0  0  0  0  0  0  0  0
   25.5564  -20.9869   -7.4868 N   0  0  0  0  0  0  0  0  0  0  0  0
   25.4769  -20.7434   -6.1805 C   0  0  0  0  0  0  0  0  0  0  0  0
   26.5471  -20.0529   -5.7245 C   0  0  0  0  0  0  0  0  0  0  0  0
   26.9006  -19.5942   -4.4769 C   0  0  0  0  0  0  0  0  0  0  0  0
   28.0819  -18.9199   -4.3180 C   0  0  0  0  0  0  0  0  0  0  0  0
   28.9072  -18.7066   -5.4101 C   0  0  0  0  0  0  0  0  0  0  0  0
   28.5703  -19.1578   -6.6674 C   0  0  0  0  0  0  0  0  0  0  0  0
   27.3731  -19.8411   -6.8330 C   0  0  0  0  0  0  0  0  0  0  0  0
   24.8783  -20.1235   -9.8681 O   0  0  0  0  0  0  0  0  0  0  0  0
   24.1150  -20.7242   -8.8920 O   0  0  0  0  0  0  0  0  0  0  0  0
  2  4  1  0
  2  1  1  0
  3  2  2  0
  5  4  1  0
  6  5  1  0
  7  6  1  0
  8  7  1  0
  8  9  1  6
 10  8  1  0
 11 10  2  0
 13 12  1  1
 13 14  1  0
 13 15  1  0
 15 17  1  0
 15 16  1  1
 16 10  1  0
 17 18  2  0
 19 20  1  0
 19 17  1  0
 20 21  1  1
 20 31  1  0
 21 22  1  0
 22 30  1  0
 23 22  2  0
 23 24  1  0
 24 25  1  0
 25 26  1  0
 26 27  2  0
 28 27  1  0
 29 28  2  0
 30 25  2  0
 30 29  1  0
 31 33  2  0
 31 32  1  0
M  END
$$$$
