RTW.pdb
     RDKit          3D

 33 34  0  0  1  0  0  0  0  0999 V2000
   28.6786  -17.5120  -20.6484 N   0  0  0  0  0  0  0  0  0  0  0  0
   28.4665  -18.9284  -20.7094 C   0  0  0  0  0  0  0  0  0  0  0  0
   27.7478  -19.3896  -21.6592 N   0  0  0  0  0  0  0  0  0  0  0  0
   29.0463  -19.7727  -19.7353 N   0  0  0  0  0  0  0  0  0  0  0  0
   29.4431  -19.2044  -18.4398 C   0  0  0  0  0  0  0  0  0  0  0  0
   28.6900  -17.9185  -18.2161 C   0  0  0  0  0  0  0  0  0  0  0  0
   27.9909  -17.8381  -16.9123 C   0  0  0  0  0  0  0  0  0  0  0  0
   28.4038  -18.8395  -15.8982 C   0  0  2  0  0  0  0  0  0  0  0  0
   28.5898  -20.1764  -16.3381 N   0  0  0  0  0  0  0  0  0  0  0  0
   27.5147  -18.7560  -14.6897 C   0  0  0  0  0  0  0  0  0  0  0  0
   27.1502  -17.6525  -14.2182 O   0  0  0  0  0  0  0  0  0  0  0  0
   27.5734  -20.4070  -21.8056 C   0  0  0  0  0  0  0  0  0  0  0  0
   24.1687  -19.7186  -14.6692 C   0  0  2  0  0  0  0  0  0  0  0  0
   24.8013  -20.4728  -13.5414 O   0  0  0  0  0  0  0  0  0  0  0  0
   25.0521  -21.7755  -13.9773 C   0  0  2  0  0  0  0  0  0  0  0  0
   26.0477  -19.8314  -12.9809 N   0  0  0  0  0  0  0  0  0  0  0  0
   27.0662  -19.9390  -14.0519 C   0  0  0  0  0  0  0  0  0  0  0  0
   26.6198  -20.5361  -11.8150 O   0  0  0  0  0  0  0  0  0  0  0  0
   27.4757  -21.4766  -11.9845 N   0  0  0  0  0  0  0  0  0  0  0  0
   26.3278  -20.2897  -10.4540 C   0  0  1  0  0  0  0  0  0  0  0  0
   26.2643  -21.3283   -9.4507 C   0  0  0  0  0  0  0  0  0  0  0  0
   27.4788  -21.4202   -8.5683 C   0  0  0  0  0  0  0  0  0  0  0  0
   27.5607  -20.2777   -7.6528 C   0  0  0  0  0  0  0  0  0  0  0  0
   26.9076  -19.0509   -7.8206 N   0  0  0  0  0  0  0  0  0  0  0  0
   27.2738  -18.2932   -6.7892 C   0  0  0  0  0  0  0  0  0  0  0  0
   28.1217  -18.9401   -5.9569 C   0  0  0  0  0  0  0  0  0  0  0  0
   28.7425  -18.5734   -4.7856 C   0  0  0  0  0  0  0  0  0  0  0  0
   29.5561  -19.4704   -4.1462 C   0  0  0  0  0  0  0  0  0  0  0  0
   29.7460  -20.7338   -4.6819 C   0  0  0  0  0  0  0  0  0  0  0  0
   29.1334  -21.1195   -5.8540 C   0  0  0  0  0  0  0  0  0  0  0  0
   28.3085  -20.2128   -6.5059 C   0  0  0  0  0  0  0  0  0  0  0  0
   25.0324  -21.1311   -8.6666 O   0  0  0  0  0  0  0  0  0  0  0  0
   24.7339  -21.9831   -7.6270 O   0  0  0  0  0  0  0  0  0  0  0  0
  2  4  1  0
  2  1  1  0
  3  2  2  0
  5  4  1  0
  6  5  1  0
  7  6  1  0
  8  7  1  0
  8  9  1  6
 10  8  1  0
 11 10  2  0
 13 12  1  1
 13 14  1  0
 13 15  1  0
 15 17  1  0
 15 16  1  1
 16 10  1  0
 17 18  2  0
 19 20  1  0
 19 17  1  0
 20 21  1  1
 20 31  1  0
 21 22  1  0
 22 30  1  0
 23 22  2  0
 23 24  1  0
 24 25  1  0
 25 26  1  0
 26 27  2  0
 28 27  1  0
 29 28  2  0
 30 25  2  0
 30 29  1  0
 31 33  2  0
 31 32  1  0
M  END
$$$$
