RTW.pdb
     RDKit          3D

 33 34  0  0  1  0  0  0  0  0999 V2000
   28.3875  -28.2329  -17.5645 N   0  0  0  0  0  0  0  0  0  0  0  0
   27.0882  -28.1255  -16.9685 C   0  0  0  0  0  0  0  0  0  0  0  0
   26.5444  -29.1880  -16.5136 N   0  0  0  0  0  0  0  0  0  0  0  0
   26.4450  -26.8690  -16.8964 N   0  0  0  0  0  0  0  0  0  0  0  0
   27.0298  -25.7234  -17.6067 C   0  0  0  0  0  0  0  0  0  0  0  0
   28.3114  -25.3234  -16.9226 C   0  0  0  0  0  0  0  0  0  0  0  0
   28.1708  -24.1964  -15.9711 C   0  0  0  0  0  0  0  0  0  0  0  0
   27.9900  -22.8567  -16.5829 C   0  0  2  0  0  0  0  0  0  0  0  0
   28.8959  -22.4794  -17.6088 N   0  0  0  0  0  0  0  0  0  0  0  0
   27.8697  -21.8068  -15.5147 C   0  0  0  0  0  0  0  0  0  0  0  0
   28.8094  -21.0147  -15.2643 O   0  0  0  0  0  0  0  0  0  0  0  0
   25.6128  -29.2013  -16.0458 C   0  0  0  0  0  0  0  0  0  0  0  0
   26.4175  -18.9277  -15.8727 C   0  0  2  0  0  0  0  0  0  0  0  0
   25.6799  -19.5276  -14.7164 O   0  0  0  0  0  0  0  0  0  0  0  0
   24.5143  -20.1206  -15.2059 C   0  0  2  0  0  0  0  0  0  0  0  0
   26.4893  -20.5024  -13.8955 N   0  0  0  0  0  0  0  0  0  0  0  0
   26.6760  -21.6913  -14.7603 C   0  0  0  0  0  0  0  0  0  0  0  0
   25.7992  -20.9946  -12.6854 O   0  0  0  0  0  0  0  0  0  0  0  0
   25.1659  -22.1100  -12.7112 N   0  0  0  0  0  0  0  0  0  0  0  0
   25.7461  -20.3551  -11.4257 C   0  0  1  0  0  0  0  0  0  0  0  0
   25.0572  -20.9046  -10.2801 C   0  0  0  0  0  0  0  0  0  0  0  0
   25.3743  -20.2267   -8.9755 C   0  0  0  0  0  0  0  0  0  0  0  0
   26.7708  -20.4460   -8.5860 C   0  0  0  0  0  0  0  0  0  0  0  0
   27.7040  -21.2108   -9.2958 N   0  0  0  0  0  0  0  0  0  0  0  0
   28.8295  -21.1727   -8.5859 C   0  0  0  0  0  0  0  0  0  0  0  0
   28.6974  -20.4346   -7.4600 C   0  0  0  0  0  0  0  0  0  0  0  0
   29.5702  -20.1102   -6.4476 C   0  0  0  0  0  0  0  0  0  0  0  0
   29.1414  -19.3143   -5.4191 C   0  0  0  0  0  0  0  0  0  0  0  0
   27.8382  -18.8445   -5.4069 C   0  0  0  0  0  0  0  0  0  0  0  0
   26.9492  -19.1587   -6.4113 C   0  0  0  0  0  0  0  0  0  0  0  0
   27.3796  -19.9661   -7.4555 C   0  0  0  0  0  0  0  0  0  0  0  0
   23.6118  -20.8908  -10.5664 O   0  0  0  0  0  0  0  0  0  0  0  0
   22.7641  -21.7245   -9.8719 O   0  0  0  0  0  0  0  0  0  0  0  0
  2  4  1  0
  2  1  1  0
  3  2  2  0
  5  4  1  0
  6  5  1  0
  7  6  1  0
  8  7  1  0
  8  9  1  6
 10  8  1  0
 11 10  2  0
 13 12  1  1
 13 14  1  0
 13 15  1  0
 15 17  1  0
 15 16  1  1
 16 10  1  0
 17 18  2  0
 19 20  1  0
 19 17  1  0
 20 21  1  1
 20 31  1  0
 21 22  1  0
 22 30  1  0
 23 22  2  0
 23 24  1  0
 24 25  1  0
 25 26  1  0
 26 27  2  0
 28 27  1  0
 29 28  2  0
 30 25  2  0
 30 29  1  0
 31 33  2  0
 31 32  1  0
M  END
$$$$
