RTW.pdb
     RDKit          3D

 33 34  0  0  1  0  0  0  0  0999 V2000
   17.8246  -21.4510  -18.2623 N   0  0  0  0  0  0  0  0  0  0  0  0
   18.1607  -20.0774  -18.0276 C   0  0  0  0  0  0  0  0  0  0  0  0
   17.6385  -19.1915  -18.7852 N   0  0  0  0  0  0  0  0  0  0  0  0
   19.0473  -19.7353  -16.9813 N   0  0  0  0  0  0  0  0  0  0  0  0
   20.4865  -19.9735  -17.1556 C   0  0  0  0  0  0  0  0  0  0  0  0
   20.7507  -21.4556  -17.0899 C   0  0  0  0  0  0  0  0  0  0  0  0
   21.9204  -21.8322  -16.2621 C   0  0  0  0  0  0  0  0  0  0  0  0
   22.1561  -20.9922  -15.0618 C   0  0  2  0  0  0  0  0  0  0  0  0
   22.1815  -19.5845  -15.2442 N   0  0  0  0  0  0  0  0  0  0  0  0
   23.3539  -21.4899  -14.3032 C   0  0  0  0  0  0  0  0  0  0  0  0
   23.5451  -22.7141  -14.1084 O   0  0  0  0  0  0  0  0  0  0  0  0
   17.8072  -18.1687  -18.6738 C   0  0  0  0  0  0  0  0  0  0  0  0
   26.9344  -20.7303  -15.1242 C   0  0  2  0  0  0  0  0  0  0  0  0
   26.6750  -20.3850  -13.6908 O   0  0  0  0  0  0  0  0  0  0  0  0
   26.5365  -18.9987  -13.5967 C   0  0  2  0  0  0  0  0  0  0  0  0
   25.4933  -21.0981  -13.0792 N   0  0  0  0  0  0  0  0  0  0  0  0
   24.3021  -20.5725  -13.7868 C   0  0  0  0  0  0  0  0  0  0  0  0
   25.2747  -20.7927  -11.6502 O   0  0  0  0  0  0  0  0  0  0  0  0
   24.5193  -19.8143  -11.3067 N   0  0  0  0  0  0  0  0  0  0  0  0
   25.8237  -21.4843  -10.5463 C   0  0  2  0  0  0  0  0  0  0  0  0
   25.9092  -20.9249   -9.2163 C   0  0  0  0  0  0  0  0  0  0  0  0
   26.6001  -21.8049   -8.2112 C   0  0  0  0  0  0  0  0  0  0  0  0
   26.7219  -21.1367   -6.9117 C   0  0  0  0  0  0  0  0  0  0  0  0
   25.6620  -20.8343   -6.0487 N   0  0  0  0  0  0  0  0  0  0  0  0
   26.2021  -20.2087   -5.0052 C   0  0  0  0  0  0  0  0  0  0  0  0
   27.5435  -20.0812   -5.1254 C   0  0  0  0  0  0  0  0  0  0  0  0
   28.5059  -19.5277   -4.3135 C   0  0  0  0  0  0  0  0  0  0  0  0
   29.8173  -19.5599   -4.7067 C   0  0  0  0  0  0  0  0  0  0  0  0
   30.1620  -20.1470   -5.9132 C   0  0  0  0  0  0  0  0  0  0  0  0
   29.2125  -20.7061   -6.7402 C   0  0  0  0  0  0  0  0  0  0  0  0
   27.8817  -20.6748   -6.3457 C   0  0  0  0  0  0  0  0  0  0  0  0
   26.5508  -19.6022   -9.3176 O   0  0  0  0  0  0  0  0  0  0  0  0
   26.0858  -18.5514   -8.5590 O   0  0  0  0  0  0  0  0  0  0  0  0
  2  4  1  0
  2  1  1  0
  3  2  2  0
  5  4  1  0
  6  5  1  0
  7  6  1  0
  8  7  1  0
  8  9  1  6
 10  8  1  0
 11 10  2  0
 13 12  1  1
 13 14  1  0
 13 15  1  0
 15 17  1  0
 15 16  1  1
 16 10  1  0
 17 18  2  0
 19 20  1  0
 19 17  1  0
 20 21  1  6
 20 31  1  0
 21 22  1  0
 22 30  1  0
 23 22  2  0
 23 24  1  0
 24 25  1  0
 25 26  1  0
 26 27  2  0
 28 27  1  0
 29 28  2  0
 30 25  2  0
 30 29  1  0
 31 33  2  0
 31 32  1  0
M  END
$$$$
