RTW.pdb
     RDKit          3D

 33 34  0  0  1  0  0  0  0  0999 V2000
   30.8511  -24.9695  -18.6914 N   0  0  0  0  0  0  0  0  0  0  0  0
   31.0149  -25.5080  -17.3730 C   0  0  0  0  0  0  0  0  0  0  0  0
   32.0285  -26.2517  -17.1476 N   0  0  0  0  0  0  0  0  0  0  0  0
   30.0690  -25.2111  -16.3655 N   0  0  0  0  0  0  0  0  0  0  0  0
   28.9789  -24.2714  -16.6613 C   0  0  0  0  0  0  0  0  0  0  0  0
   29.5493  -22.8830  -16.7934 C   0  0  0  0  0  0  0  0  0  0  0  0
   28.9662  -21.8909  -15.8603 C   0  0  0  0  0  0  0  0  0  0  0  0
   27.4954  -21.7138  -15.9464 C   0  0  2  0  0  0  0  0  0  0  0  0
   26.9516  -21.3718  -17.2125 N   0  0  0  0  0  0  0  0  0  0  0  0
   27.0145  -20.8005  -14.8544 C   0  0  0  0  0  0  0  0  0  0  0  0
   27.3121  -19.5822  -14.8393 O   0  0  0  0  0  0  0  0  0  0  0  0
   32.1644  -26.7843  -16.2617 C   0  0  0  0  0  0  0  0  0  0  0  0
   24.0829  -19.3255  -14.2968 C   0  0  2  0  0  0  0  0  0  0  0  0
   24.3156  -20.0832  -13.0269 O   0  0  0  0  0  0  0  0  0  0  0  0
   23.5539  -21.2526  -13.0736 C   0  0  2  0  0  0  0  0  0  0  0  0
   25.7658  -20.3836  -12.7341 N   0  0  0  0  0  0  0  0  0  0  0  0
   26.2052  -21.3063  -13.8072 C   0  0  0  0  0  0  0  0  0  0  0  0
   25.9903  -21.1102  -11.4674 O   0  0  0  0  0  0  0  0  0  0  0  0
   26.2416  -22.3683  -11.4798 N   0  0  0  0  0  0  0  0  0  0  0  0
   25.9635  -20.5623  -10.1645 C   0  0  1  0  0  0  0  0  0  0  0  0
   26.0535  -21.3587   -8.9617 C   0  0  0  0  0  0  0  0  0  0  0  0
   27.4006  -21.3319   -8.2935 C   0  0  0  0  0  0  0  0  0  0  0  0
   27.5837  -20.1052   -7.5112 C   0  0  0  0  0  0  0  0  0  0  0  0
   27.1218  -18.8335   -7.8704 N   0  0  0  0  0  0  0  0  0  0  0  0
   27.5242  -18.0083   -6.9065 C   0  0  0  0  0  0  0  0  0  0  0  0
   28.2174  -18.6528   -5.9400 C   0  0  0  0  0  0  0  0  0  0  0  0
   28.8073  -18.2284   -4.7722 C   0  0  0  0  0  0  0  0  0  0  0  0
   29.4439  -19.1383   -3.9708 C   0  0  0  0  0  0  0  0  0  0  0  0
   29.4881  -20.4725   -4.3413 C   0  0  0  0  0  0  0  0  0  0  0  0
   28.9037  -20.9168   -5.5070 C   0  0  0  0  0  0  0  0  0  0  0  0
   28.2580  -19.9974   -6.3228 C   0  0  0  0  0  0  0  0  0  0  0  0
   24.9809  -20.9282   -8.0476 O   0  0  0  0  0  0  0  0  0  0  0  0
   24.7676  -21.6064   -6.8683 O   0  0  0  0  0  0  0  0  0  0  0  0
  2  4  1  0
  2  1  1  0
  3  2  2  0
  5  4  1  0
  6  5  1  0
  7  6  1  0
  8  7  1  0
  8  9  1  6
 10  8  1  0
 11 10  2  0
 13 12  1  1
 13 14  1  0
 13 15  1  0
 15 17  1  0
 15 16  1  1
 16 10  1  0
 17 18  2  0
 19 20  1  0
 19 17  1  0
 20 21  1  1
 20 31  1  0
 21 22  1  0
 22 30  1  0
 23 22  2  0
 23 24  1  0
 24 25  1  0
 25 26  1  0
 26 27  2  0
 28 27  1  0
 29 28  2  0
 30 25  2  0
 30 29  1  0
 31 33  2  0
 31 32  1  0
M  END
$$$$
