RTW.pdb
     RDKit          3D

 33 34  0  0  1  0  0  0  0  0999 V2000
   30.1143  -22.0952  -18.2195 N   0  0  0  0  0  0  0  0  0  0  0  0
   29.4166  -22.9680  -17.3216 C   0  0  0  0  0  0  0  0  0  0  0  0
   30.1037  -23.7831  -16.6182 N   0  0  0  0  0  0  0  0  0  0  0  0
   28.0071  -22.9112  -17.2329 N   0  0  0  0  0  0  0  0  0  0  0  0
   27.2729  -21.9708  -18.0904 C   0  0  0  0  0  0  0  0  0  0  0  0
   26.7382  -20.8465  -17.2416 C   0  0  0  0  0  0  0  0  0  0  0  0
   26.0901  -21.2849  -15.9834 C   0  0  0  0  0  0  0  0  0  0  0  0
   24.6433  -20.9777  -15.8642 C   0  0  2  0  0  0  0  0  0  0  0  0
   24.0154  -20.3493  -16.9716 N   0  0  0  0  0  0  0  0  0  0  0  0
   24.3660  -20.2635  -14.5715 C   0  0  0  0  0  0  0  0  0  0  0  0
   24.2023  -19.0207  -14.5305 O   0  0  0  0  0  0  0  0  0  0  0  0
   29.6795  -24.5183  -16.0128 C   0  0  0  0  0  0  0  0  0  0  0  0
   21.4821  -20.2460  -12.7686 C   0  0  2  0  0  0  0  0  0  0  0  0
   22.5162  -20.7033  -11.7876 O   0  0  0  0  0  0  0  0  0  0  0  0
   22.4249  -22.0923  -11.6768 C   0  0  2  0  0  0  0  0  0  0  0  0
   23.9246  -20.2697  -12.1151 N   0  0  0  0  0  0  0  0  0  0  0  0
   24.2837  -20.9913  -13.3587 C   0  0  0  0  0  0  0  0  0  0  0  0
   24.9320  -20.6763  -11.1137 O   0  0  0  0  0  0  0  0  0  0  0  0
   25.6552  -21.7176  -11.3105 N   0  0  0  0  0  0  0  0  0  0  0  0
   25.2192  -20.0235   -9.8931 C   0  0  1  0  0  0  0  0  0  0  0  0
   26.2347  -20.4724   -8.9677 C   0  0  0  0  0  0  0  0  0  0  0  0
   27.3460  -19.4866   -8.7327 C   0  0  0  0  0  0  0  0  0  0  0  0
   28.3357  -20.0137   -7.7878 C   0  0  0  0  0  0  0  0  0  0  0  0
   29.1254  -21.1524   -7.9861 N   0  0  0  0  0  0  0  0  0  0  0  0
   29.8574  -21.2912   -6.8829 C   0  0  0  0  0  0  0  0  0  0  0  0
   29.6015  -20.3207   -5.9758 C   0  0  0  0  0  0  0  0  0  0  0  0
   30.1081  -20.0535   -4.7253 C   0  0  0  0  0  0  0  0  0  0  0  0
   29.6512  -18.9637   -4.0332 C   0  0  0  0  0  0  0  0  0  0  0  0
   28.6870  -18.1434   -4.5958 C   0  0  0  0  0  0  0  0  0  0  0  0
   28.1671  -18.3947   -5.8466 C   0  0  0  0  0  0  0  0  0  0  0  0
   28.6270  -19.4990   -6.5513 C   0  0  0  0  0  0  0  0  0  0  0  0
   25.5692  -20.8562   -7.7103 O   0  0  0  0  0  0  0  0  0  0  0  0
   26.1579  -21.7770   -6.8727 O   0  0  0  0  0  0  0  0  0  0  0  0
  2  4  1  0
  2  1  1  0
  3  2  2  0
  5  4  1  0
  6  5  1  0
  7  6  1  0
  8  7  1  0
  8  9  1  6
 10  8  1  0
 11 10  2  0
 13 12  1  1
 13 14  1  0
 13 15  1  0
 15 17  1  0
 15 16  1  1
 16 10  1  0
 17 18  2  0
 19 20  1  0
 19 17  1  0
 20 21  1  1
 20 31  1  0
 21 22  1  0
 22 30  1  0
 23 22  2  0
 23 24  1  0
 24 25  1  0
 25 26  1  0
 26 27  2  0
 28 27  1  0
 29 28  2  0
 30 25  2  0
 30 29  1  0
 31 33  2  0
 31 32  1  0
M  END
$$$$
