LWH.pdb
     RDKit          3D

 33 35  0  0  1  0  0  0  0  0999 V2000
   27.4805  -17.9486  -16.8563 C   0  0  0  0  0  0  0  0  0  0  0  0
   28.1995  -18.9957  -16.0379 C   0  0  1  0  0  0  0  0  0  0  0  0
   29.4320  -18.3767  -15.4477 C   0  0  0  0  0  0  0  0  0  0  0  0
   27.3272  -19.7006  -15.0658 C   0  0  0  0  0  0  0  0  0  0  0  0
   28.0449  -20.6287  -14.1087 C   0  0  2  0  0  0  0  0  0  0  0  0
   28.5763  -21.7504  -14.8171 N   0  0  0  0  0  0  0  0  0  0  0  0
   27.0428  -20.9827  -13.0674 C   0  0  0  0  0  0  0  0  0  0  0  0
   26.2791  -21.9574  -13.3757 O   0  0  0  0  0  0  0  0  0  0  0  0
   26.8710  -20.3661  -11.8282 N   0  0  0  0  0  0  0  0  0  0  0  0
   25.7582  -20.7083  -10.9718 C   0  0  1  0  0  0  0  0  0  0  0  0
   25.8976  -20.0492   -9.6081 C   0  0  0  0  0  0  0  0  0  0  0  0
   27.1215  -20.4986   -8.8987 C   0  0  0  0  0  0  0  0  0  0  0  0
   28.1509  -21.2706   -9.3983 C   0  0  0  0  0  0  0  0  0  0  0  0
   29.0911  -21.4741   -8.4586 N   0  0  0  0  0  0  0  0  0  0  0  0
   28.7009  -20.8441   -7.3302 C   0  0  0  0  0  0  0  0  0  0  0  0
   29.3072  -20.7509   -6.0958 C   0  0  0  0  0  0  0  0  0  0  0  0
   28.6704  -20.0307   -5.1070 C   0  0  0  0  0  0  0  0  0  0  0  0
   27.4538  -19.4225   -5.3629 C   0  0  0  0  0  0  0  0  0  0  0  0
   26.8477  -19.5131   -6.5903 C   0  0  0  0  0  0  0  0  0  0  0  0
   27.4754  -20.2277   -7.5778 C   0  0  0  0  0  0  0  0  0  0  0  0
   24.4455  -20.3590  -11.5576 C   0  0  0  0  0  0  0  0  0  0  0  0
   24.3398  -19.2255  -12.0907 O   0  0  0  0  0  0  0  0  0  0  0  0
   23.3223  -21.2036  -11.5579 N   0  0  0  0  0  0  0  0  0  0  0  0
   22.0011  -20.8141  -12.0654 C   0  0  1  0  0  0  0  0  0  0  0  0
   21.6272  -21.9091  -13.0521 C   0  0  0  0  0  0  0  0  0  0  0  0
   22.2385  -21.7325  -14.3842 C   0  0  0  0  0  0  0  0  0  0  0  0
   22.9491  -20.6132  -14.8275 C   0  0  0  0  0  0  0  0  0  0  0  0
   23.3392  -20.8188  -16.0976 N   0  0  0  0  0  0  0  0  0  0  0  0
   22.9016  -22.0356  -16.4848 C   0  0  0  0  0  0  0  0  0  0  0  0
   22.2440  -22.5644  -15.4400 N   0  0  0  0  0  0  0  0  0  0  0  0
   21.0041  -20.7488  -11.0036 C   0  0  0  0  0  0  0  0  0  0  0  0
   21.2703  -21.1911   -9.8604 O   0  0  0  0  0  0  0  0  0  0  0  0
   19.7304  -20.2074  -11.1848 O   0  0  0  0  0  0  0  0  0  0  0  0
  2  1  1  1
  2  3  1  0
  4  2  1  0
  5  4  1  0
  5  6  1  6
  7  5  1  0
  7  8  2  0
  9  7  1  0
 10  9  1  0
 10 11  1  1
 11 12  1  0
 12 13  2  0
 12 20  1  0
 13 14  1  0
 14 15  1  0
 15 16  2  0
 16 17  1  0
 18 17  2  0
 19 18  1  0
 20 19  2  0
 20 15  1  0
 21 10  1  0
 22 21  2  0
 23 21  1  0
 24 25  1  6
 24 23  1  0
 25 26  1  0
 26 27  2  0
 28 27  1  0
 29 28  1  0
 30 29  2  0
 30 26  1  0
 31 24  1  0
 32 31  2  0
 33 31  1  0
M  END
$$$$
