LWH.pdb
     RDKit          3D

 33 35  0  0  1  0  0  0  0  0999 V2000
   15.0814  -13.6423    9.2924 C   0  0  0  0  0  0  0  0  0  0  0  0
   14.9054  -13.2181    7.8528 C   0  0  1  0  0  0  0  0  0  0  0  0
   15.8472  -12.0850    7.5707 C   0  0  0  0  0  0  0  0  0  0  0  0
   14.9704  -14.3409    6.8844 C   0  0  0  0  0  0  0  0  0  0  0  0
   14.8763  -13.9427    5.4266 C   0  0  2  0  0  0  0  0  0  0  0  0
   13.5083  -13.7692    5.0516 N   0  0  0  0  0  0  0  0  0  0  0  0
   15.5855  -15.0119    4.6732 C   0  0  0  0  0  0  0  0  0  0  0  0
   15.0435  -16.1645    4.7511 O   0  0  0  0  0  0  0  0  0  0  0  0
   16.7481  -14.8708    3.9157 N   0  0  0  0  0  0  0  0  0  0  0  0
   17.3766  -16.0133    3.2926 C   0  0  1  0  0  0  0  0  0  0  0  0
   18.5901  -15.5909    2.4787 C   0  0  0  0  0  0  0  0  0  0  0  0
   19.1796  -16.7303    1.7320 C   0  0  0  0  0  0  0  0  0  0  0  0
   18.5807  -17.9338    1.4183 C   0  0  0  0  0  0  0  0  0  0  0  0
   19.4278  -18.7208    0.7316 N   0  0  0  0  0  0  0  0  0  0  0  0
   20.5923  -18.0548    0.5814 C   0  0  0  0  0  0  0  0  0  0  0  0
   21.7659  -18.4230   -0.0408 C   0  0  0  0  0  0  0  0  0  0  0  0
   22.8151  -17.5278   -0.0405 C   0  0  0  0  0  0  0  0  0  0  0  0
   22.6777  -16.2948    0.5729 C   0  0  0  0  0  0  0  0  0  0  0  0
   21.5111  -15.9251    1.1928 C   0  0  0  0  0  0  0  0  0  0  0  0
   20.4641  -16.8104    1.1963 C   0  0  0  0  0  0  0  0  0  0  0  0
   17.7712  -17.0595    4.2613 C   0  0  0  0  0  0  0  0  0  0  0  0
   18.4074  -16.6864    5.2794 O   0  0  0  0  0  0  0  0  0  0  0  0
   17.4826  -18.4275    4.1194 N   0  0  0  0  0  0  0  0  0  0  0  0
   17.7825  -19.4409    5.1382 C   0  0  1  0  0  0  0  0  0  0  0  0
   17.0006  -18.9993    6.3653 C   0  0  0  0  0  0  0  0  0  0  0  0
   17.0909  -19.9490    7.4919 C   0  0  0  0  0  0  0  0  0  0  0  0
   17.7516  -21.1810    7.4855 C   0  0  0  0  0  0  0  0  0  0  0  0
   17.6025  -21.7624    8.6886 N   0  0  0  0  0  0  0  0  0  0  0  0
   16.8665  -20.9425    9.4684 C   0  0  0  0  0  0  0  0  0  0  0  0
   16.5714  -19.8613    8.7285 N   0  0  0  0  0  0  0  0  0  0  0  0
   17.3473  -20.7717    4.7315 C   0  0  0  0  0  0  0  0  0  0  0  0
   16.8116  -20.9450    3.6105 O   0  0  0  0  0  0  0  0  0  0  0  0
   17.4938  -21.9019    5.5371 O   0  0  0  0  0  0  0  0  0  0  0  0
  2  1  1  1
  2  3  1  0
  4  2  1  0
  5  4  1  0
  5  6  1  6
  7  5  1  0
  7  8  2  0
  9  7  1  0
 10  9  1  0
 10 11  1  1
 11 12  1  0
 12 13  2  0
 12 20  1  0
 13 14  1  0
 14 15  1  0
 15 16  2  0
 16 17  1  0
 18 17  2  0
 19 18  1  0
 20 19  2  0
 20 15  1  0
 21 10  1  0
 22 21  2  0
 23 21  1  0
 24 25  1  1
 24 23  1  0
 25 26  1  0
 26 27  2  0
 28 27  1  0
 29 28  1  0
 30 29  2  0
 30 26  1  0
 31 24  1  0
 32 31  2  0
 33 31  1  0
M  END
$$$$
