LWH.pdb
     RDKit          3D

 33 35  0  0  1  0  0  0  0  0999 V2000
   26.8845  -18.1175  -17.3512 C   0  0  0  0  0  0  0  0  0  0  0  0
   27.6128  -19.0742  -16.4360 C   0  0  1  0  0  0  0  0  0  0  0  0
   28.8181  -18.3767  -15.8781 C   0  0  0  0  0  0  0  0  0  0  0  0
   26.7391  -19.7185  -15.4239 C   0  0  0  0  0  0  0  0  0  0  0  0
   27.4592  -20.5561  -14.3884 C   0  0  2  0  0  0  0  0  0  0  0  0
   28.1140  -21.6596  -15.0175 N   0  0  0  0  0  0  0  0  0  0  0  0
   26.4208  -20.9464  -13.3969 C   0  0  0  0  0  0  0  0  0  0  0  0
   25.6366  -21.8743  -13.7873 O   0  0  0  0  0  0  0  0  0  0  0  0
   26.2358  -20.4078  -12.1236 N   0  0  0  0  0  0  0  0  0  0  0  0
   25.1672  -20.8680  -11.2663 C   0  0  1  0  0  0  0  0  0  0  0  0
   25.4215  -20.4735   -9.8195 C   0  0  0  0  0  0  0  0  0  0  0  0
   26.7716  -20.8875   -9.3620 C   0  0  0  0  0  0  0  0  0  0  0  0
   27.6816  -21.6823  -10.0294 C   0  0  0  0  0  0  0  0  0  0  0  0
   28.7999  -21.8395   -9.2991 N   0  0  0  0  0  0  0  0  0  0  0  0
   28.6479  -21.1558   -8.1451 C   0  0  0  0  0  0  0  0  0  0  0  0
   29.4983  -21.0026   -7.0711 C   0  0  0  0  0  0  0  0  0  0  0  0
   29.0751  -20.2357   -6.0059 C   0  0  0  0  0  0  0  0  0  0  0  0
   27.8255  -19.6411   -6.0295 C   0  0  0  0  0  0  0  0  0  0  0  0
   26.9768  -19.7914   -7.0967 C   0  0  0  0  0  0  0  0  0  0  0  0
   27.3913  -20.5527   -8.1591 C   0  0  0  0  0  0  0  0  0  0  0  0
   23.8351  -20.3794  -11.6848 C   0  0  0  0  0  0  0  0  0  0  0  0
   23.7260  -19.1506  -11.9266 O   0  0  0  0  0  0  0  0  0  0  0  0
   22.6972  -21.1912  -11.8296 N   0  0  0  0  0  0  0  0  0  0  0  0
   21.4021  -20.7104  -12.3258 C   0  0  1  0  0  0  0  0  0  0  0  0
   21.6767  -20.2609  -13.7523 C   0  0  0  0  0  0  0  0  0  0  0  0
   20.4655  -19.8208  -14.4725 C   0  0  0  0  0  0  0  0  0  0  0  0
   19.4424  -19.0183  -13.9591 C   0  0  0  0  0  0  0  0  0  0  0  0
   18.5065  -18.8438  -14.9084 N   0  0  0  0  0  0  0  0  0  0  0  0
   18.8961  -19.5092  -16.0163 C   0  0  0  0  0  0  0  0  0  0  0  0
   20.0740  -20.0873  -15.7304 N   0  0  0  0  0  0  0  0  0  0  0  0
   20.3920  -21.7618  -12.3283 C   0  0  0  0  0  0  0  0  0  0  0  0
   20.7362  -22.9672  -12.2821 O   0  0  0  0  0  0  0  0  0  0  0  0
   19.0214  -21.5033  -12.3806 O   0  0  0  0  0  0  0  0  0  0  0  0
  2  1  1  1
  2  3  1  0
  4  2  1  0
  5  4  1  0
  5  6  1  6
  7  5  1  0
  7  8  2  0
  9  7  1  0
 10  9  1  0
 10 11  1  1
 11 12  1  0
 12 13  2  0
 12 20  1  0
 13 14  1  0
 14 15  1  0
 15 16  2  0
 16 17  1  0
 18 17  2  0
 19 18  1  0
 20 19  2  0
 20 15  1  0
 21 10  1  0
 22 21  2  0
 23 21  1  0
 24 25  1  6
 24 23  1  0
 25 26  1  0
 26 27  2  0
 28 27  1  0
 29 28  1  0
 30 29  2  0
 30 26  1  0
 31 24  1  0
 32 31  2  0
 33 31  1  0
M  END
$$$$
