LWH.pdb
     RDKit          3D

 33 35  0  0  1  0  0  0  0  0999 V2000
   29.9448  -23.4126  -16.4073 C   0  0  0  0  0  0  0  0  0  0  0  0
   29.1582  -22.1487  -16.1485 C   0  0  1  0  0  0  0  0  0  0  0  0
   28.6506  -21.6257  -17.4597 C   0  0  0  0  0  0  0  0  0  0  0  0
   28.1271  -22.2898  -15.0904 C   0  0  0  0  0  0  0  0  0  0  0  0
   27.2848  -21.0567  -14.8408 C   0  0  2  0  0  0  0  0  0  0  0  0
   28.1258  -19.9170  -14.6505 N   0  0  0  0  0  0  0  0  0  0  0  0
   26.4291  -21.3869  -13.6693 C   0  0  0  0  0  0  0  0  0  0  0  0
   25.9196  -22.5566  -13.6974 O   0  0  0  0  0  0  0  0  0  0  0  0
   26.1454  -20.5613  -12.5815 N   0  0  0  0  0  0  0  0  0  0  0  0
   25.1490  -20.9321  -11.6025 C   0  0  1  0  0  0  0  0  0  0  0  0
   25.4198  -20.2564  -10.2670 C   0  0  0  0  0  0  0  0  0  0  0  0
   26.7263  -20.6666   -9.6940 C   0  0  0  0  0  0  0  0  0  0  0  0
   27.7127  -21.4205  -10.2973 C   0  0  0  0  0  0  0  0  0  0  0  0
   28.7568  -21.5884   -9.4664 N   0  0  0  0  0  0  0  0  0  0  0  0
   28.4791  -20.9524   -8.3085 C   0  0  0  0  0  0  0  0  0  0  0  0
   29.2169  -20.8278   -7.1508 C   0  0  0  0  0  0  0  0  0  0  0  0
   28.6763  -20.1095   -6.1050 C   0  0  0  0  0  0  0  0  0  0  0  0
   27.4237  -19.5342   -6.2298 C   0  0  0  0  0  0  0  0  0  0  0  0
   26.6869  -19.6562   -7.3805 C   0  0  0  0  0  0  0  0  0  0  0  0
   27.2184  -20.3691   -8.4242 C   0  0  0  0  0  0  0  0  0  0  0  0
   23.7673  -20.6314  -12.0372 C   0  0  0  0  0  0  0  0  0  0  0  0
   23.5553  -19.4918  -12.5235 O   0  0  0  0  0  0  0  0  0  0  0  0
   22.6891  -21.5280  -11.9441 N   0  0  0  0  0  0  0  0  0  0  0  0
   21.3043  -21.1872  -12.2920 C   0  0  1  0  0  0  0  0  0  0  0  0
   20.9425  -22.1410  -13.4198 C   0  0  0  0  0  0  0  0  0  0  0  0
   21.5370  -21.7668  -14.7182 C   0  0  0  0  0  0  0  0  0  0  0  0
   21.3182  -20.5757  -15.4166 C   0  0  0  0  0  0  0  0  0  0  0  0
   22.0226  -20.6054  -16.5615 N   0  0  0  0  0  0  0  0  0  0  0  0
   22.6874  -21.7786  -16.6209 C   0  0  0  0  0  0  0  0  0  0  0  0
   22.3802  -22.4582  -15.5040 N   0  0  0  0  0  0  0  0  0  0  0  0
   20.3935  -21.3850  -11.1707 C   0  0  0  0  0  0  0  0  0  0  0  0
   20.8186  -21.8553  -10.0883 O   0  0  0  0  0  0  0  0  0  0  0  0
   19.0341  -21.0739  -11.2276 O   0  0  0  0  0  0  0  0  0  0  0  0
  2  1  1  6
  2  3  1  0
  4  2  1  0
  5  4  1  0
  5  6  1  1
  7  5  1  0
  7  8  2  0
  9  7  1  0
 10  9  1  0
 10 11  1  1
 11 12  1  0
 12 13  2  0
 12 20  1  0
 13 14  1  0
 14 15  1  0
 15 16  2  0
 16 17  1  0
 18 17  2  0
 19 18  1  0
 20 19  2  0
 20 15  1  0
 21 10  1  0
 22 21  2  0
 23 21  1  0
 24 25  1  6
 24 23  1  0
 25 26  1  0
 26 27  2  0
 28 27  1  0
 29 28  1  0
 30 29  2  0
 30 26  1  0
 31 24  1  0
 32 31  2  0
 33 31  1  0
M  END
$$$$
