LWH.pdb
     RDKit          3D

 33 35  0  0  1  0  0  0  0  0999 V2000
   27.4472  -20.5149  -20.4932 C   0  0  0  0  0  0  0  0  0  0  0  0
   28.1855  -21.3565  -19.4784 C   0  0  1  0  0  0  0  0  0  0  0  0
   29.4635  -20.6581  -19.1186 C   0  0  0  0  0  0  0  0  0  0  0  0
   27.3522  -21.7702  -18.3220 C   0  0  0  0  0  0  0  0  0  0  0  0
   28.0921  -22.5004  -17.2212 C   0  0  2  0  0  0  0  0  0  0  0  0
   28.3321  -23.8558  -17.6052 N   0  0  0  0  0  0  0  0  0  0  0  0
   27.2490  -22.3502  -16.0045 C   0  0  0  0  0  0  0  0  0  0  0  0
   26.2831  -23.1801  -15.9226 O   0  0  0  0  0  0  0  0  0  0  0  0
   27.4154  -21.4166  -14.9817 N   0  0  0  0  0  0  0  0  0  0  0  0
   26.5923  -21.4551  -13.7944 C   0  0  1  0  0  0  0  0  0  0  0  0
   27.3043  -20.8073  -12.6167 C   0  0  0  0  0  0  0  0  0  0  0  0
   26.5521  -20.9849  -11.3494 C   0  0  0  0  0  0  0  0  0  0  0  0
   25.8487  -22.0977  -10.9346 C   0  0  0  0  0  0  0  0  0  0  0  0
   25.2963  -21.8872   -9.7267 N   0  0  0  0  0  0  0  0  0  0  0  0
   25.6235  -20.6402   -9.3264 C   0  0  0  0  0  0  0  0  0  0  0  0
   25.3064  -19.9525   -8.1746 C   0  0  0  0  0  0  0  0  0  0  0  0
   25.7838  -18.6669   -8.0281 C   0  0  0  0  0  0  0  0  0  0  0  0
   26.5605  -18.0956   -9.0210 C   0  0  0  0  0  0  0  0  0  0  0  0
   26.8781  -18.7772  -10.1683 C   0  0  0  0  0  0  0  0  0  0  0  0
   26.4065  -20.0557  -10.3205 C   0  0  0  0  0  0  0  0  0  0  0  0
   25.2701  -20.8189  -13.9831 C   0  0  0  0  0  0  0  0  0  0  0  0
   25.2541  -19.6766  -14.5077 O   0  0  0  0  0  0  0  0  0  0  0  0
   24.0448  -21.4031  -13.6196 N   0  0  0  0  0  0  0  0  0  0  0  0
   22.7490  -20.7193  -13.7105 C   0  0  1  0  0  0  0  0  0  0  0  0
   21.8118  -21.7462  -14.3266 C   0  0  0  0  0  0  0  0  0  0  0  0
   21.8025  -21.7213  -15.8027 C   0  0  0  0  0  0  0  0  0  0  0  0
   22.4376  -20.7809  -16.6190 C   0  0  0  0  0  0  0  0  0  0  0  0
   22.1914  -21.0828  -17.9058 N   0  0  0  0  0  0  0  0  0  0  0  0
   21.4175  -22.1882  -17.9422 C   0  0  0  0  0  0  0  0  0  0  0  0
   21.1976  -22.5526  -16.6684 N   0  0  0  0  0  0  0  0  0  0  0  0
   22.2473  -20.3202  -12.4011 C   0  0  0  0  0  0  0  0  0  0  0  0
   21.1651  -19.6932  -12.3046 O   0  0  0  0  0  0  0  0  0  0  0  0
   22.9170  -20.6011  -11.2091 O   0  0  0  0  0  0  0  0  0  0  0  0
  2  1  1  6
  2  3  1  0
  4  2  1  0
  5  4  1  0
  5  6  1  6
  7  5  1  0
  7  8  2  0
  9  7  1  0
 10  9  1  0
 10 11  1  1
 11 12  1  0
 12 13  2  0
 12 20  1  0
 13 14  1  0
 14 15  1  0
 15 16  2  0
 16 17  1  0
 18 17  2  0
 19 18  1  0
 20 19  2  0
 20 15  1  0
 21 10  1  0
 22 21  2  0
 23 21  1  0
 24 25  1  1
 24 23  1  0
 25 26  1  0
 26 27  2  0
 28 27  1  0
 29 28  1  0
 30 29  2  0
 30 26  1  0
 31 24  1  0
 32 31  2  0
 33 31  1  0
M  END
$$$$
