LWH.pdb
     RDKit          3D

 33 35  0  0  1  0  0  0  0  0999 V2000
   19.4859  -12.3203    3.9246 C   0  0  0  0  0  0  0  0  0  0  0  0
   18.4374  -13.1412    4.6387 C   0  0  1  0  0  0  0  0  0  0  0  0
   17.3136  -12.2330    5.0423 C   0  0  0  0  0  0  0  0  0  0  0  0
   18.0222  -14.3589    3.8987 C   0  0  0  0  0  0  0  0  0  0  0  0
   17.0665  -15.2702    4.6393 C   0  0  2  0  0  0  0  0  0  0  0  0
   16.2353  -14.5046    5.5142 N   0  0  0  0  0  0  0  0  0  0  0  0
   17.9230  -16.2711    5.3310 C   0  0  0  0  0  0  0  0  0  0  0  0
   18.7152  -16.9124    4.5632 O   0  0  0  0  0  0  0  0  0  0  0  0
   17.9368  -16.5596    6.6956 N   0  0  0  0  0  0  0  0  0  0  0  0
   18.7930  -17.5932    7.2316 C   0  0  1  0  0  0  0  0  0  0  0  0
   18.9506  -17.4436    8.7370 C   0  0  0  0  0  0  0  0  0  0  0  0
   20.1857  -18.1012    9.2323 C   0  0  0  0  0  0  0  0  0  0  0  0
   20.3153  -19.3765    9.7442 C   0  0  0  0  0  0  0  0  0  0  0  0
   21.5915  -19.6216   10.0905 N   0  0  0  0  0  0  0  0  0  0  0  0
   22.3209  -18.5196    9.8150 C   0  0  0  0  0  0  0  0  0  0  0  0
   23.6647  -18.2641    9.9851 C   0  0  0  0  0  0  0  0  0  0  0  0
   24.1478  -17.0277    9.6110 C   0  0  0  0  0  0  0  0  0  0  0  0
   23.2927  -16.0780    9.0796 C   0  0  0  0  0  0  0  0  0  0  0  0
   21.9549  -16.3291    8.9088 C   0  0  0  0  0  0  0  0  0  0  0  0
   21.4679  -17.5563    9.2787 C   0  0  0  0  0  0  0  0  0  0  0  0
   18.3210  -18.9596    6.9175 C   0  0  0  0  0  0  0  0  0  0  0  0
   17.0896  -19.1818    7.0388 O   0  0  0  0  0  0  0  0  0  0  0  0
   19.1504  -20.0126    6.4956 N   0  0  0  0  0  0  0  0  0  0  0  0
   18.6648  -21.3548    6.1528 C   0  0  1  0  0  0  0  0  0  0  0  0
   19.0485  -21.5442    4.6936 C   0  0  0  0  0  0  0  0  0  0  0  0
   17.9456  -21.2580    3.7548 C   0  0  0  0  0  0  0  0  0  0  0  0
   16.6533  -20.8482    4.0957 C   0  0  0  0  0  0  0  0  0  0  0  0
   15.9316  -20.6997    2.9710 N   0  0  0  0  0  0  0  0  0  0  0  0
   16.7199  -21.0014    1.9176 C   0  0  0  0  0  0  0  0  0  0  0  0
   17.9231  -21.3333    2.4130 N   0  0  0  0  0  0  0  0  0  0  0  0
   19.2952  -22.3891    6.9643 C   0  0  0  0  0  0  0  0  0  0  0  0
   20.2790  -22.1089    7.6904 O   0  0  0  0  0  0  0  0  0  0  0  0
   18.8588  -23.7147    6.9850 O   0  0  0  0  0  0  0  0  0  0  0  0
  2  1  1  6
  2  3  1  0
  4  2  1  0
  5  4  1  0
  5  6  1  1
  7  5  1  0
  7  8  2  0
  9  7  1  0
 10  9  1  0
 10 11  1  1
 11 12  1  0
 12 13  2  0
 12 20  1  0
 13 14  1  0
 14 15  1  0
 15 16  2  0
 16 17  1  0
 18 17  2  0
 19 18  1  0
 20 19  2  0
 20 15  1  0
 21 10  1  0
 22 21  2  0
 23 21  1  0
 24 25  1  6
 24 23  1  0
 25 26  1  0
 26 27  2  0
 28 27  1  0
 29 28  1  0
 30 29  2  0
 30 26  1  0
 31 24  1  0
 32 31  2  0
 33 31  1  0
M  END
$$$$
