LWH.pdb
     RDKit          3D

 33 35  0  0  1  0  0  0  0  0999 V2000
   26.3043  -17.9658  -16.6251 C   0  0  0  0  0  0  0  0  0  0  0  0
   27.1041  -19.1432  -16.1182 C   0  0  1  0  0  0  0  0  0  0  0  0
   28.5457  -18.7378  -16.0287 C   0  0  0  0  0  0  0  0  0  0  0  0
   26.5504  -19.7589  -14.8865 C   0  0  0  0  0  0  0  0  0  0  0  0
   27.4097  -20.8371  -14.2608 C   0  0  2  0  0  0  0  0  0  0  0  0
   27.3847  -22.0161  -15.0681 N   0  0  0  0  0  0  0  0  0  0  0  0
   26.8751  -21.0270  -12.8854 C   0  0  0  0  0  0  0  0  0  0  0  0
   25.8506  -21.7844  -12.8143 O   0  0  0  0  0  0  0  0  0  0  0  0
   27.3772  -20.4711  -11.7088 N   0  0  0  0  0  0  0  0  0  0  0  0
   26.6934  -20.6488  -10.4479 C   0  0  1  0  0  0  0  0  0  0  0  0
   27.4658  -19.9947   -9.3126 C   0  0  0  0  0  0  0  0  0  0  0  0
   26.8699  -20.3025   -7.9884 C   0  0  0  0  0  0  0  0  0  0  0  0
   25.6765  -20.9459   -7.7292 C   0  0  0  0  0  0  0  0  0  0  0  0
   25.4680  -21.0439   -6.4043 N   0  0  0  0  0  0  0  0  0  0  0  0
   26.5132  -20.4708   -5.7707 C   0  0  0  0  0  0  0  0  0  0  0  0
   26.7741  -20.3131   -4.4264 C   0  0  0  0  0  0  0  0  0  0  0  0
   27.9402  -19.6760   -4.0569 C   0  0  0  0  0  0  0  0  0  0  0  0
   28.8162  -19.2124   -5.0230 C   0  0  0  0  0  0  0  0  0  0  0  0
   28.5596  -19.3679   -6.3616 C   0  0  0  0  0  0  0  0  0  0  0  0
   27.4021  -20.0003   -6.7359 C   0  0  0  0  0  0  0  0  0  0  0  0
   25.3061  -20.1355  -10.4619 C   0  0  0  0  0  0  0  0  0  0  0  0
   25.1465  -18.9251  -10.7617 O   0  0  0  0  0  0  0  0  0  0  0  0
   24.1679  -20.9051  -10.1667 N   0  0  0  0  0  0  0  0  0  0  0  0
   22.8052  -20.5498  -10.5809 C   0  0  1  0  0  0  0  0  0  0  0  0
   22.6288  -21.2102  -11.9392 C   0  0  0  0  0  0  0  0  0  0  0  0
   21.3145  -20.9423  -12.5558 C   0  0  0  0  0  0  0  0  0  0  0  0
   20.2558  -20.2375  -11.9756 C   0  0  0  0  0  0  0  0  0  0  0  0
   19.2239  -20.2126  -12.8372 N   0  0  0  0  0  0  0  0  0  0  0  0
   19.5864  -20.8795  -13.9534 C   0  0  0  0  0  0  0  0  0  0  0  0
   20.8445  -21.3079  -13.7608 N   0  0  0  0  0  0  0  0  0  0  0  0
   21.8011  -21.0579   -9.6539 C   0  0  0  0  0  0  0  0  0  0  0  0
   20.8537  -20.3230   -9.2853 O   0  0  0  0  0  0  0  0  0  0  0  0
   21.8283  -22.3529   -9.1338 O   0  0  0  0  0  0  0  0  0  0  0  0
  2  1  1  1
  2  3  1  0
  4  2  1  0
  5  4  1  0
  5  6  1  6
  7  5  1  0
  7  8  2  0
  9  7  1  0
 10  9  1  0
 10 11  1  1
 11 12  1  0
 12 13  2  0
 12 20  1  0
 13 14  1  0
 14 15  1  0
 15 16  2  0
 16 17  1  0
 18 17  2  0
 19 18  1  0
 20 19  2  0
 20 15  1  0
 21 10  1  0
 22 21  2  0
 23 21  1  0
 24 25  1  6
 24 23  1  0
 25 26  1  0
 26 27  2  0
 28 27  1  0
 29 28  1  0
 30 29  2  0
 30 26  1  0
 31 24  1  0
 32 31  2  0
 33 31  1  0
M  END
$$$$
