LWH.pdb
     RDKit          3D

 33 35  0  0  1  0  0  0  0  0999 V2000
   27.5027  -17.4193  -17.0532 C   0  0  0  0  0  0  0  0  0  0  0  0
   28.2236  -18.3874  -16.1442 C   0  0  1  0  0  0  0  0  0  0  0  0
   29.2168  -17.6206  -15.3220 C   0  0  0  0  0  0  0  0  0  0  0  0
   27.3172  -19.2693  -15.3674 C   0  0  0  0  0  0  0  0  0  0  0  0
   27.9837  -20.0803  -14.2763 C   0  0  2  0  0  0  0  0  0  0  0  0
   28.8524  -21.0584  -14.8516 N   0  0  0  0  0  0  0  0  0  0  0  0
   26.8734  -20.6502  -13.4663 C   0  0  0  0  0  0  0  0  0  0  0  0
   26.1957  -21.5554  -14.0577 O   0  0  0  0  0  0  0  0  0  0  0  0
   26.5208  -20.2960  -12.1641 N   0  0  0  0  0  0  0  0  0  0  0  0
   25.4157  -20.9376  -11.4891 C   0  0  1  0  0  0  0  0  0  0  0  0
   25.4770  -20.6921   -9.9893 C   0  0  0  0  0  0  0  0  0  0  0  0
   26.8441  -20.9000   -9.4498 C   0  0  0  0  0  0  0  0  0  0  0  0
   27.8818  -21.6022  -10.0289 C   0  0  0  0  0  0  0  0  0  0  0  0
   28.9725  -21.5722   -9.2426 N   0  0  0  0  0  0  0  0  0  0  0  0
   28.6751  -20.8545   -8.1386 C   0  0  0  0  0  0  0  0  0  0  0  0
   29.4428  -20.5345   -7.0394 C   0  0  0  0  0  0  0  0  0  0  0  0
   28.8705  -19.7749   -6.0407 C   0  0  0  0  0  0  0  0  0  0  0  0
   27.5575  -19.3521   -6.1537 C   0  0  0  0  0  0  0  0  0  0  0  0
   26.7907  -19.6687   -7.2462 C   0  0  0  0  0  0  0  0  0  0  0  0
   27.3535  -20.4237   -8.2428 C   0  0  0  0  0  0  0  0  0  0  0  0
   24.0953  -20.5152  -12.0053 C   0  0  0  0  0  0  0  0  0  0  0  0
   23.9054  -19.2810  -12.1504 O   0  0  0  0  0  0  0  0  0  0  0  0
   23.0520  -21.3946  -12.3417 N   0  0  0  0  0  0  0  0  0  0  0  0
   21.7514  -20.9637  -12.8685 C   0  0  1  0  0  0  0  0  0  0  0  0
   21.7642  -21.3904  -14.3279 C   0  0  0  0  0  0  0  0  0  0  0  0
   20.5532  -20.9850  -15.0686 C   0  0  0  0  0  0  0  0  0  0  0  0
   20.1840  -19.6780  -15.4001 C   0  0  0  0  0  0  0  0  0  0  0  0
   19.0151  -19.7096  -16.0635 N   0  0  0  0  0  0  0  0  0  0  0  0
   18.6212  -20.9964  -16.1690 C   0  0  0  0  0  0  0  0  0  0  0  0
   19.5600  -21.7426  -15.5647 N   0  0  0  0  0  0  0  0  0  0  0  0
   20.6404  -21.6081  -12.1784 C   0  0  0  0  0  0  0  0  0  0  0  0
   20.8114  -22.7055  -11.5952 O   0  0  0  0  0  0  0  0  0  0  0  0
   19.3566  -21.0631  -12.1238 O   0  0  0  0  0  0  0  0  0  0  0  0
  2  1  1  1
  2  3  1  0
  4  2  1  0
  5  4  1  0
  5  6  1  6
  7  5  1  0
  7  8  2  0
  9  7  1  0
 10  9  1  0
 10 11  1  1
 11 12  1  0
 12 13  2  0
 12 20  1  0
 13 14  1  0
 14 15  1  0
 15 16  2  0
 16 17  1  0
 18 17  2  0
 19 18  1  0
 20 19  2  0
 20 15  1  0
 21 10  1  0
 22 21  2  0
 23 21  1  0
 24 25  1  6
 24 23  1  0
 25 26  1  0
 26 27  2  0
 28 27  1  0
 29 28  1  0
 30 29  2  0
 30 26  1  0
 31 24  1  0
 32 31  2  0
 33 31  1  0
M  END
$$$$
