LWH.pdb
     RDKit          3D

 33 35  0  0  1  0  0  0  0  0999 V2000
   27.9084  -20.9516  -18.3232 C   0  0  0  0  0  0  0  0  0  0  0  0
   28.4758  -20.5880  -16.9708 C   0  0  1  0  0  0  0  0  0  0  0  0
   28.8064  -19.1247  -16.9698 C   0  0  0  0  0  0  0  0  0  0  0  0
   27.6427  -21.0413  -15.8292 C   0  0  0  0  0  0  0  0  0  0  0  0
   28.0837  -20.5421  -14.4695 C   0  0  2  0  0  0  0  0  0  0  0  0
   29.3815  -21.0516  -14.1558 N   0  0  0  0  0  0  0  0  0  0  0  0
   27.0164  -20.9643  -13.5227 C   0  0  0  0  0  0  0  0  0  0  0  0
   26.2500  -21.8846  -13.9634 O   0  0  0  0  0  0  0  0  0  0  0  0
   26.7880  -20.4619  -12.2418 N   0  0  0  0  0  0  0  0  0  0  0  0
   25.7078  -20.9651  -11.4240 C   0  0  1  0  0  0  0  0  0  0  0  0
   25.8364  -20.4749   -9.9899 C   0  0  0  0  0  0  0  0  0  0  0  0
   27.1536  -20.8245   -9.4015 C   0  0  0  0  0  0  0  0  0  0  0  0
   28.1127  -21.6694   -9.9223 C   0  0  0  0  0  0  0  0  0  0  0  0
   29.1781  -21.7397   -9.1046 N   0  0  0  0  0  0  0  0  0  0  0  0
   28.9417  -20.9477   -8.0373 C   0  0  0  0  0  0  0  0  0  0  0  0
   29.7139  -20.6787   -6.9276 C   0  0  0  0  0  0  0  0  0  0  0  0
   29.2126  -19.8161   -5.9755 C   0  0  0  0  0  0  0  0  0  0  0  0
   27.9643  -19.2427   -6.1441 C   0  0  0  0  0  0  0  0  0  0  0  0
   27.1932  -19.5081   -7.2473 C   0  0  0  0  0  0  0  0  0  0  0  0
   27.6856  -20.3650   -8.1977 C   0  0  0  0  0  0  0  0  0  0  0  0
   24.3698  -20.6136  -11.9482 C   0  0  0  0  0  0  0  0  0  0  0  0
   24.1685  -19.4078  -12.2413 O   0  0  0  0  0  0  0  0  0  0  0  0
   23.3220  -21.5303  -12.1390 N   0  0  0  0  0  0  0  0  0  0  0  0
   21.9921  -21.1656  -12.6422 C   0  0  1  0  0  0  0  0  0  0  0  0
   21.3256  -22.4922  -12.9715 C   0  0  0  0  0  0  0  0  0  0  0  0
   19.9677  -22.3438  -13.5313 C   0  0  0  0  0  0  0  0  0  0  0  0
   19.2675  -21.1455  -13.6990 C   0  0  0  0  0  0  0  0  0  0  0  0
   18.0608  -21.4154  -14.2269 N   0  0  0  0  0  0  0  0  0  0  0  0
   17.9634  -22.7500  -14.4038 C   0  0  0  0  0  0  0  0  0  0  0  0
   19.1195  -23.2853  -13.9792 N   0  0  0  0  0  0  0  0  0  0  0  0
   21.2040  -20.4552  -11.6422 C   0  0  0  0  0  0  0  0  0  0  0  0
   21.2881  -20.7720  -10.4313 O   0  0  0  0  0  0  0  0  0  0  0  0
   20.3335  -19.4108  -11.9574 O   0  0  0  0  0  0  0  0  0  0  0  0
  2  1  1  6
  2  3  1  0
  4  2  1  0
  5  4  1  0
  5  6  1  1
  7  5  1  0
  7  8  2  0
  9  7  1  0
 10  9  1  0
 10 11  1  1
 11 12  1  0
 12 13  2  0
 12 20  1  0
 13 14  1  0
 14 15  1  0
 15 16  2  0
 16 17  1  0
 18 17  2  0
 19 18  1  0
 20 19  2  0
 20 15  1  0
 21 10  1  0
 22 21  2  0
 23 21  1  0
 24 25  1  1
 24 23  1  0
 25 26  1  0
 26 27  2  0
 28 27  1  0
 29 28  1  0
 30 29  2  0
 30 26  1  0
 31 24  1  0
 32 31  2  0
 33 31  1  0
M  END
$$$$
