LWH.pdb
     RDKit          3D

 33 35  0  0  1  0  0  0  0  0999 V2000
   27.4500  -17.4778  -16.1171 C   0  0  0  0  0  0  0  0  0  0  0  0
   28.1807  -18.5590  -15.3553 C   0  0  1  0  0  0  0  0  0  0  0  0
   29.4123  -17.9613  -14.7419 C   0  0  0  0  0  0  0  0  0  0  0  0
   27.3186  -19.3170  -14.4145 C   0  0  0  0  0  0  0  0  0  0  0  0
   28.0444  -20.3076  -13.5289 C   0  0  2  0  0  0  0  0  0  0  0  0
   28.5874  -21.3676  -14.3187 N   0  0  0  0  0  0  0  0  0  0  0  0
   27.0447  -20.7486  -12.5189 C   0  0  0  0  0  0  0  0  0  0  0  0
   26.2402  -21.6508  -12.9276 O   0  0  0  0  0  0  0  0  0  0  0  0
   26.9144  -20.2806  -11.2114 N   0  0  0  0  0  0  0  0  0  0  0  0
   25.7855  -20.6588  -10.3920 C   0  0  1  0  0  0  0  0  0  0  0  0
   25.9792  -20.2027   -8.9540 C   0  0  0  0  0  0  0  0  0  0  0  0
   27.2949  -20.6251   -8.4118 C   0  0  0  0  0  0  0  0  0  0  0  0
   28.2295  -21.4461   -9.0098 C   0  0  0  0  0  0  0  0  0  0  0  0
   29.3021  -21.6030   -8.2137 N   0  0  0  0  0  0  0  0  0  0  0  0
   29.0949  -20.8930   -7.0845 C   0  0  0  0  0  0  0  0  0  0  0  0
   29.8850  -20.7287   -5.9670 C   0  0  0  0  0  0  0  0  0  0  0  0
   29.4132  -19.9337   -4.9435 C   0  0  0  0  0  0  0  0  0  0  0  0
   28.1759  -19.3229   -5.0506 C   0  0  0  0  0  0  0  0  0  0  0  0
   27.3871  -19.4842   -6.1613 C   0  0  0  0  0  0  0  0  0  0  0  0
   27.8501  -20.2733   -7.1825 C   0  0  0  0  0  0  0  0  0  0  0  0
   24.4970  -20.1434  -10.9046 C   0  0  0  0  0  0  0  0  0  0  0  0
   24.5411  -19.1346  -11.6533 O   0  0  0  0  0  0  0  0  0  0  0  0
   23.2415  -20.7034  -10.6131 N   0  0  0  0  0  0  0  0  0  0  0  0
   22.0344  -20.4786  -11.4175 C   0  0  1  0  0  0  0  0  0  0  0  0
   22.3070  -21.1921  -12.7324 C   0  0  0  0  0  0  0  0  0  0  0  0
   21.2008  -21.0765  -13.7032 C   0  0  0  0  0  0  0  0  0  0  0  0
   20.2295  -20.0717  -13.7361 C   0  0  0  0  0  0  0  0  0  0  0  0
   19.3863  -20.3129  -14.7551 N   0  0  0  0  0  0  0  0  0  0  0  0
   19.7853  -21.4417  -15.3785 C   0  0  0  0  0  0  0  0  0  0  0  0
   20.8756  -21.8814  -14.7293 N   0  0  0  0  0  0  0  0  0  0  0  0
   20.8453  -21.0428  -10.7902 C   0  0  0  0  0  0  0  0  0  0  0  0
   20.9473  -22.0192  -10.0093 O   0  0  0  0  0  0  0  0  0  0  0  0
   19.5587  -20.5489  -11.0108 O   0  0  0  0  0  0  0  0  0  0  0  0
  2  1  1  1
  2  3  1  0
  4  2  1  0
  5  4  1  0
  5  6  1  6
  7  5  1  0
  7  8  2  0
  9  7  1  0
 10  9  1  0
 10 11  1  1
 11 12  1  0
 12 13  2  0
 12 20  1  0
 13 14  1  0
 14 15  1  0
 15 16  2  0
 16 17  1  0
 18 17  2  0
 19 18  1  0
 20 19  2  0
 20 15  1  0
 21 10  1  0
 22 21  2  0
 23 21  1  0
 24 25  1  6
 24 23  1  0
 25 26  1  0
 26 27  2  0
 28 27  1  0
 29 28  1  0
 30 29  2  0
 30 26  1  0
 31 24  1  0
 32 31  2  0
 33 31  1  0
M  END
$$$$
