GMS.pdb
     RDKit          3D

 19 18  0  0  1  0  0  0  0  0999 V2000
   20.2259  -12.6341  -15.9377 N   0  0  0  0  0  0  0  0  0  0  0  0
   20.7776  -11.6191  -16.7783 C   0  0  0  0  0  0  0  0  0  0  0  0
   21.6891  -10.7003  -16.0319 C   0  0  0  0  0  0  0  0  0  0  0  0
   21.2934  -10.1873  -14.9425 O   0  0  0  0  0  0  0  0  0  0  0  0
   28.0116  -12.5864  -14.8457 C   0  0  0  0  0  0  0  0  0  0  0  0
   27.4908  -11.1313  -15.8230 S   0  0  0  0  0  0  0  0  0  0  0  0
   25.7243  -10.8476  -15.3660 C   0  0  0  0  0  0  0  0  0  0  0  0
   25.2239   -9.6180  -16.0690 C   0  0  0  0  0  0  0  0  0  0  0  0
   23.7919   -9.3197  -15.8156 C   0  0  2  0  0  0  0  0  0  0  0  0
   22.9903  -10.3716  -16.4906 N   0  0  0  0  0  0  0  0  0  0  0  0
   23.2578   -8.0346  -16.1813 C   0  0  0  0  0  0  0  0  0  0  0  0
   22.9808   -7.8313  -17.4191 O   0  0  0  0  0  0  0  0  0  0  0  0
   20.4435   -4.6163  -16.5875 O   0  0  0  0  0  0  0  0  0  0  0  0
   20.9092   -5.8314  -16.1427 C   0  0  0  0  0  0  0  0  0  0  0  0
   22.3718   -5.7122  -15.8330 C   0  0  2  0  0  0  0  0  0  0  0  0
   22.9748   -6.9162  -15.3620 N   0  0  0  0  0  0  0  0  0  0  0  0
   22.5330   -4.5879  -14.8708 C   0  0  0  0  0  0  0  0  0  0  0  0
   23.0050   -4.8222  -13.5981 O   0  0  0  0  0  0  0  0  0  0  0  0
   22.2518   -3.3898  -15.1652 O   0  0  0  0  0  0  0  0  0  0  0  0
  1  2  1  0
  2  3  1  0
  3 10  1  0
  3  4  2  0
  6  5  1  0
  7  8  1  0
  7  6  1  0
  9  8  1  6
 10  9  1  0
 11  9  1  0
 11 16  1  0
 12 11  2  0
 14 13  1  0
 15 14  1  1
 15 16  1  0
 15 17  1  0
 17 18  1  0
 19 17  2  0
M  END
$$$$
