GMS.pdb
     RDKit          3D

 19 18  0  0  1  0  0  0  0  0999 V2000
   21.5450  -12.5286  -17.8798 N   0  0  0  0  0  0  0  0  0  0  0  0
   20.7001  -11.6727  -17.1086 C   0  0  0  0  0  0  0  0  0  0  0  0
   21.4804  -10.7513  -16.2287 C   0  0  0  0  0  0  0  0  0  0  0  0
   20.9776  -10.3741  -15.1280 O   0  0  0  0  0  0  0  0  0  0  0  0
   27.7150  -12.5808  -14.8138 C   0  0  0  0  0  0  0  0  0  0  0  0
   27.2240  -11.0276  -15.6446 S   0  0  0  0  0  0  0  0  0  0  0  0
   25.4163  -10.8504  -15.3117 C   0  0  0  0  0  0  0  0  0  0  0  0
   24.9385   -9.5387  -15.8662 C   0  0  0  0  0  0  0  0  0  0  0  0
   23.4819   -9.3074  -15.6963 C   0  0  2  0  0  0  0  0  0  0  0  0
   22.7711  -10.2736  -16.5713 N   0  0  0  0  0  0  0  0  0  0  0  0
   22.9383   -7.9957  -15.9298 C   0  0  0  0  0  0  0  0  0  0  0  0
   22.8765   -7.5803  -17.1437 O   0  0  0  0  0  0  0  0  0  0  0  0
   19.8752   -6.2364  -14.2317 O   0  0  0  0  0  0  0  0  0  0  0  0
   20.3819   -5.7724  -15.4229 C   0  0  0  0  0  0  0  0  0  0  0  0
   21.8802   -5.7924  -15.3593 C   0  0  2  0  0  0  0  0  0  0  0  0
   22.4383   -7.0547  -14.9987 N   0  0  0  0  0  0  0  0  0  0  0  0
   22.3010   -4.7055  -14.4333 C   0  0  0  0  0  0  0  0  0  0  0  0
   22.9946   -5.0018  -13.2806 O   0  0  0  0  0  0  0  0  0  0  0  0
   22.0496   -3.4848  -14.6520 O   0  0  0  0  0  0  0  0  0  0  0  0
  1  2  1  0
  2  3  1  0
  3 10  1  0
  3  4  2  0
  6  5  1  0
  7  8  1  0
  7  6  1  0
  9  8  1  6
 10  9  1  0
 11  9  1  0
 11 16  1  0
 12 11  2  0
 14 13  1  0
 15 14  1  1
 15 16  1  0
 15 17  1  0
 17 18  1  0
 19 17  2  0
M  END
$$$$
