GMS.pdb
     RDKit          3D

 19 18  0  0  1  0  0  0  0  0999 V2000
   17.9508  -12.2271  -18.0902 N   0  0  0  0  0  0  0  0  0  0  0  0
   18.5704  -12.8255  -16.9505 C   0  0  0  0  0  0  0  0  0  0  0  0
   19.4851  -11.8800  -16.2423 C   0  0  0  0  0  0  0  0  0  0  0  0
   19.1989  -11.5078  -15.0650 O   0  0  0  0  0  0  0  0  0  0  0  0
   26.8978  -10.2458  -14.8393 C   0  0  0  0  0  0  0  0  0  0  0  0
   25.6767  -11.2054  -15.8045 S   0  0  0  0  0  0  0  0  0  0  0  0
   24.0506  -10.3973  -15.4690 C   0  0  0  0  0  0  0  0  0  0  0  0
   22.9765  -11.1108  -16.2395 C   0  0  0  0  0  0  0  0  0  0  0  0
   21.6182  -10.5438  -16.0458 C   0  0  2  0  0  0  0  0  0  0  0  0
   20.6713  -11.3739  -16.8324 N   0  0  0  0  0  0  0  0  0  0  0  0
   21.3751   -9.1594  -16.3538 C   0  0  0  0  0  0  0  0  0  0  0  0
   21.3059   -8.8244  -17.5920 O   0  0  0  0  0  0  0  0  0  0  0  0
   18.7335   -6.6698  -15.2542 O   0  0  0  0  0  0  0  0  0  0  0  0
   19.9205   -5.9837  -15.1466 C   0  0  0  0  0  0  0  0  0  0  0  0
   20.9834   -6.7211  -15.9054 C   0  0  2  0  0  0  0  0  0  0  0  0
   21.1896   -8.0656  -15.4755 N   0  0  0  0  0  0  0  0  0  0  0  0
   22.2286   -5.9088  -15.8305 C   0  0  0  0  0  0  0  0  0  0  0  0
   22.2365   -4.6034  -16.2704 O   0  0  0  0  0  0  0  0  0  0  0  0
   23.3159   -6.3641  -15.3708 O   0  0  0  0  0  0  0  0  0  0  0  0
  1  2  1  0
  2  3  1  0
  3 10  1  0
  3  4  2  0
  6  5  1  0
  7  8  1  0
  7  6  1  0
  9  8  1  6
 10  9  1  0
 11  9  1  0
 11 16  1  0
 12 11  2  0
 14 13  1  0
 15 14  1  1
 15 16  1  0
 15 17  1  0
 17 18  1  0
 19 17  2  0
M  END
$$$$
