GMS.pdb
     RDKit          3D

 19 18  0  0  1  0  0  0  0  0999 V2000
   25.9420  -14.8567  -20.1863 N   0  0  0  0  0  0  0  0  0  0  0  0
   25.6723  -13.4548  -20.1314 C   0  0  0  0  0  0  0  0  0  0  0  0
   24.7993  -13.0916  -18.9748 C   0  0  0  0  0  0  0  0  0  0  0  0
   23.7087  -13.7146  -18.8036 O   0  0  0  0  0  0  0  0  0  0  0  0
   27.8516  -13.0265  -14.9065 C   0  0  0  0  0  0  0  0  0  0  0  0
   26.7492  -14.3237  -15.5739 S   0  0  0  0  0  0  0  0  0  0  0  0
   25.0389  -13.6567  -15.3730 C   0  0  0  0  0  0  0  0  0  0  0  0
   25.0474  -12.1821  -15.6592 C   0  0  0  0  0  0  0  0  0  0  0  0
   24.2781  -11.7988  -16.8696 C   0  0  2  0  0  0  0  0  0  0  0  0
   25.1372  -12.0711  -18.0497 N   0  0  0  0  0  0  0  0  0  0  0  0
   23.7541  -10.4637  -16.9858 C   0  0  0  0  0  0  0  0  0  0  0  0
   24.5370   -9.5499  -17.4350 O   0  0  0  0  0  0  0  0  0  0  0  0
   20.4250   -9.3181  -18.4400 O   0  0  0  0  0  0  0  0  0  0  0  0
   20.6227   -8.4936  -17.3573 C   0  0  0  0  0  0  0  0  0  0  0  0
   22.0403   -8.6325  -16.8878 C   0  0  2  0  0  0  0  0  0  0  0  0
   22.4617   -9.9787  -16.6748 N   0  0  0  0  0  0  0  0  0  0  0  0
   22.1885   -7.7960  -15.6654 C   0  0  0  0  0  0  0  0  0  0  0  0
   21.9200   -6.4456  -15.7085 O   0  0  0  0  0  0  0  0  0  0  0  0
   22.5593   -8.2704  -14.5525 O   0  0  0  0  0  0  0  0  0  0  0  0
  1  2  1  0
  2  3  1  0
  3 10  1  0
  3  4  2  0
  6  5  1  0
  7  8  1  0
  7  6  1  0
  9  8  1  1
 10  9  1  0
 11  9  1  0
 11 16  1  0
 12 11  2  0
 14 13  1  0
 15 14  1  1
 15 16  1  0
 15 17  1  0
 17 18  1  0
 19 17  2  0
M  END
$$$$
