GMS.pdb
     RDKit          3D

 19 18  0  0  1  0  0  0  0  0999 V2000
   19.5083  -14.1769  -20.0188 N   0  0  0  0  0  0  0  0  0  0  0  0
   20.2486  -12.9570  -20.0888 C   0  0  0  0  0  0  0  0  0  0  0  0
   20.8615  -12.5913  -18.7762 C   0  0  0  0  0  0  0  0  0  0  0  0
   20.2644  -12.9102  -17.7046 O   0  0  0  0  0  0  0  0  0  0  0  0
   27.0150  -12.5823  -14.7127 C   0  0  0  0  0  0  0  0  0  0  0  0
   26.5683  -11.6414  -16.2156 S   0  0  0  0  0  0  0  0  0  0  0  0
   24.7566  -11.3181  -16.0643 C   0  0  0  0  0  0  0  0  0  0  0  0
   24.0861  -11.6458  -17.3680 C   0  0  0  0  0  0  0  0  0  0  0  0
   22.6131  -11.4622  -17.3509 C   0  0  2  0  0  0  0  0  0  0  0  0
   22.0934  -11.8963  -18.6723 N   0  0  0  0  0  0  0  0  0  0  0  0
   22.0613  -10.1685  -17.0468 C   0  0  0  0  0  0  0  0  0  0  0  0
   22.1273   -9.2610  -17.9535 O   0  0  0  0  0  0  0  0  0  0  0  0
   19.1212   -7.0657  -14.9573 O   0  0  0  0  0  0  0  0  0  0  0  0
   19.5604   -8.3679  -15.0080 C   0  0  0  0  0  0  0  0  0  0  0  0
   20.8963   -8.4085  -15.6885 C   0  0  2  0  0  0  0  0  0  0  0  0
   21.4298   -9.7200  -15.8625 N   0  0  0  0  0  0  0  0  0  0  0  0
   21.8147   -7.5245  -14.9196 C   0  0  0  0  0  0  0  0  0  0  0  0
   22.9807   -8.0271  -14.3855 O   0  0  0  0  0  0  0  0  0  0  0  0
   21.5772   -6.2975  -14.7222 O   0  0  0  0  0  0  0  0  0  0  0  0
  1  2  1  0
  2  3  1  0
  3 10  1  0
  3  4  2  0
  6  5  1  0
  7  8  1  0
  7  6  1  0
  9  8  1  6
 10  9  1  0
 11  9  1  0
 11 16  1  0
 12 11  2  0
 14 13  1  0
 15 14  1  1
 15 16  1  0
 15 17  1  0
 17 18  1  0
 19 17  2  0
M  END
$$$$
