GMS.pdb
     RDKit          3D

 19 18  0  0  1  0  0  0  0  0999 V2000
   28.4598  -21.9463  -16.3742 N   0  0  0  0  0  0  0  0  0  0  0  0
   27.8684  -20.8752  -15.6366 C   0  0  0  0  0  0  0  0  0  0  0  0
   26.8657  -21.3601  -14.6409 C   0  0  0  0  0  0  0  0  0  0  0  0
   26.3318  -22.4979  -14.8048 O   0  0  0  0  0  0  0  0  0  0  0  0
   27.0773  -20.9165   -8.3683 C   0  0  0  0  0  0  0  0  0  0  0  0
   25.3454  -20.3526   -8.5293 S   0  0  0  0  0  0  0  0  0  0  0  0
   24.7771  -20.9934  -10.1653 C   0  0  0  0  0  0  0  0  0  0  0  0
   25.7762  -20.6104  -11.2196 C   0  0  0  0  0  0  0  0  0  0  0  0
   25.4313  -21.0933  -12.5803 C   0  0  2  0  0  0  0  0  0  0  0  0
   26.4789  -20.5983  -13.5089 N   0  0  0  0  0  0  0  0  0  0  0  0
   24.1426  -20.7821  -13.1398 C   0  0  0  0  0  0  0  0  0  0  0  0
   23.9369  -19.5779  -13.5369 O   0  0  0  0  0  0  0  0  0  0  0  0
   20.9395  -23.3893  -13.9096 O   0  0  0  0  0  0  0  0  0  0  0  0
   21.1228  -22.3077  -14.7390 C   0  0  0  0  0  0  0  0  0  0  0  0
   21.8171  -21.2181  -13.9774 C   0  0  2  0  0  0  0  0  0  0  0  0
   23.0227  -21.6253  -13.3327 N   0  0  0  0  0  0  0  0  0  0  0  0
   20.8314  -20.6469  -13.0192 C   0  0  0  0  0  0  0  0  0  0  0  0
   21.1061  -20.6208  -11.6696 O   0  0  0  0  0  0  0  0  0  0  0  0
   19.7189  -20.1685  -13.3860 O   0  0  0  0  0  0  0  0  0  0  0  0
  1  2  1  0
  2  3  1  0
  3 10  1  0
  3  4  2  0
  6  5  1  0
  7  8  1  0
  7  6  1  0
  9  8  1  1
 10  9  1  0
 11  9  1  0
 11 16  1  0
 12 11  2  0
 14 13  1  0
 15 14  1  1
 15 16  1  0
 15 17  1  0
 17 18  1  0
 19 17  2  0
M  END
$$$$
