YHL.pdb
     RDKit          3D

 31 32  0  0  1  0  0  0  0  0999 V2000
    8.9330  -12.5516   17.8180 O   0  0  0  0  0  0  0  0  0  0  0  0
    8.4266  -13.1669   18.9389 C   0  0  0  0  0  0  0  0  0  0  0  0
    9.2689  -13.8505   19.8010 C   0  0  0  0  0  0  0  0  0  0  0  0
    8.7747  -14.4746   20.9329 C   0  0  0  0  0  0  0  0  0  0  0  0
    7.4255  -14.4180   21.2109 C   0  0  0  0  0  0  0  0  0  0  0  0
    6.9007  -15.0987   22.4440 C   0  0  0  0  0  0  0  0  0  0  0  0
    7.2495  -16.5753   22.2645 C   0  0  2  0  0  0  0  0  0  0  0  0
    6.1140  -17.3947   21.9974 N   0  0  0  0  0  0  0  0  0  0  0  0
    8.1014  -17.0744   23.3692 C   0  0  0  0  0  0  0  0  0  0  0  0
    7.6302  -17.8166   24.2666 O   0  0  0  0  0  0  0  0  0  0  0  0
    6.5979  -13.7302   20.3382 C   0  0  0  0  0  0  0  0  0  0  0  0
    7.0849  -13.1134   19.2198 C   0  0  0  0  0  0  0  0  0  0  0  0
    9.4735  -16.7460   23.4712 N   0  0  0  0  0  0  0  0  0  0  0  0
   10.3807  -17.3816   24.4005 C   0  0  1  0  0  0  0  0  0  0  0  0
   11.7648  -17.5133   23.8749 C   0  0  0  0  0  0  0  0  0  0  0  0
   12.6705  -18.1980   24.8269 C   0  0  0  0  0  0  0  0  0  0  0  0
   13.4782  -17.6102   25.7986 C   0  0  0  0  0  0  0  0  0  0  0  0
   14.1588  -18.5532   26.4692 N   0  0  0  0  0  0  0  0  0  0  0  0
   13.7970  -19.7278   25.9400 C   0  0  0  0  0  0  0  0  0  0  0  0
   12.9070  -19.5238   24.9570 N   0  0  0  0  0  0  0  0  0  0  0  0
   10.3461  -16.6909   25.7359 C   0  0  0  0  0  0  0  0  0  0  0  0
   11.0402  -17.1018   26.6951 O   0  0  0  0  0  0  0  0  0  0  0  0
    8.5760  -12.2766   25.7699 C   0  0  0  0  0  0  0  0  0  0  0  0
    7.6846  -13.4331   26.0770 C   0  0  2  0  0  0  0  0  0  0  0  0
    6.2421  -12.9669   26.3120 C   0  0  0  0  0  0  0  0  0  0  0  0
    8.1402  -14.2170   27.2450 C   0  0  0  0  0  0  0  0  0  0  0  0
    9.4458  -14.9003   27.1904 C   0  0  2  0  0  0  0  0  0  0  0  0
    9.4979  -15.5664   25.8480 N   0  0  0  0  0  0  0  0  0  0  0  0
    9.9208  -15.8102   28.1842 C   0  0  0  0  0  0  0  0  0  0  0  0
   10.4667  -15.5494   29.4335 O   0  0  0  0  0  0  0  0  0  0  0  0
    9.8644  -17.0794   27.9272 O   0  0  0  0  0  0  0  0  0  0  0  0
  1  2  1  0
  2 12  2  0
  3  2  1  0
  3  4  2  0
  4  5  1  0
  5 11  2  0
  5  6  1  0
  7  6  1  0
  7  8  1  1
  9  7  1  0
 10  9  2  0
 12 11  1  0
 13  9  1  0
 14 13  1  0
 14 15  1  6
 16 15  1  0
 17 16  2  0
 18 17  1  0
 19 18  1  0
 19 20  2  0
 20 16  1  0
 21 14  1  0
 21 28  1  0
 22 21  2  0
 24 23  1  1
 24 26  1  0
 24 25  1  0
 27 26  1  1
 27 28  1  0
 27 29  1  0
 29 31  2  0
 29 30  1  0
M  END
$$$$
