YHL.pdb
     RDKit          3D

 31 32  0  0  1  0  0  0  0  0999 V2000
    9.8971  -12.2444   19.0509 O   0  0  0  0  0  0  0  0  0  0  0  0
    8.9194  -12.9678   19.6930 C   0  0  0  0  0  0  0  0  0  0  0  0
    8.2567  -13.9883   19.0301 C   0  0  0  0  0  0  0  0  0  0  0  0
    7.2708  -14.7252   19.6624 C   0  0  0  0  0  0  0  0  0  0  0  0
    6.9398  -14.4436   20.9708 C   0  0  0  0  0  0  0  0  0  0  0  0
    5.8681  -15.2517   21.6474 C   0  0  0  0  0  0  0  0  0  0  0  0
    6.4127  -16.6783   21.6942 C   0  0  2  0  0  0  0  0  0  0  0  0
    5.3964  -17.6735   21.5990 N   0  0  0  0  0  0  0  0  0  0  0  0
    7.3371  -16.8739   22.8354 C   0  0  0  0  0  0  0  0  0  0  0  0
    6.9020  -17.0082   24.0062 O   0  0  0  0  0  0  0  0  0  0  0  0
    7.6124  -13.4199   21.6184 C   0  0  0  0  0  0  0  0  0  0  0  0
    8.5865  -12.6913   20.9947 C   0  0  0  0  0  0  0  0  0  0  0  0
    8.7411  -16.9193   22.6697 N   0  0  0  0  0  0  0  0  0  0  0  0
    9.6649  -17.1923   23.7480 C   0  0  1  0  0  0  0  0  0  0  0  0
   11.0212  -17.5776   23.2776 C   0  0  0  0  0  0  0  0  0  0  0  0
   11.9062  -18.0052   24.3864 C   0  0  0  0  0  0  0  0  0  0  0  0
   11.6855  -17.8497   25.7536 C   0  0  0  0  0  0  0  0  0  0  0  0
   12.7117  -18.3625   26.4508 N   0  0  0  0  0  0  0  0  0  0  0  0
   13.5786  -18.8400   25.5501 C   0  0  0  0  0  0  0  0  0  0  0  0
   13.1041  -18.6301   24.3130 N   0  0  0  0  0  0  0  0  0  0  0  0
    9.7077  -16.0430   24.7169 C   0  0  0  0  0  0  0  0  0  0  0  0
   10.2957  -14.9746   24.4279 O   0  0  0  0  0  0  0  0  0  0  0  0
    7.9598  -12.6099   25.7282 C   0  0  0  0  0  0  0  0  0  0  0  0
    7.2293  -13.8484   26.1268 C   0  0  2  0  0  0  0  0  0  0  0  0
    5.7905  -13.5250   26.5493 C   0  0  0  0  0  0  0  0  0  0  0  0
    7.9025  -14.5888   27.2154 C   0  0  0  0  0  0  0  0  0  0  0  0
    9.2444  -15.1537   26.9811 C   0  0  2  0  0  0  0  0  0  0  0  0
    9.0561  -16.2320   25.9563 N   0  0  0  0  0  0  0  0  0  0  0  0
   10.1077  -15.6334   28.0135 C   0  0  0  0  0  0  0  0  0  0  0  0
   10.4863  -16.9340   28.3165 O   0  0  0  0  0  0  0  0  0  0  0  0
   10.6350  -14.7668   28.8204 O   0  0  0  0  0  0  0  0  0  0  0  0
  1  2  1  0
  2 12  2  0
  3  2  1  0
  3  4  2  0
  4  5  1  0
  5 11  2  0
  5  6  1  0
  7  6  1  0
  7  8  1  1
  9  7  1  0
 10  9  2  0
 12 11  1  0
 13  9  1  0
 14 13  1  0
 14 15  1  6
 16 15  1  0
 17 16  2  0
 18 17  1  0
 19 18  1  0
 19 20  2  0
 20 16  1  0
 21 14  1  0
 21 28  1  0
 22 21  2  0
 24 23  1  1
 24 26  1  0
 24 25  1  0
 27 26  1  1
 27 28  1  0
 27 29  1  0
 29 31  2  0
 29 30  1  0
M  END
$$$$
