YHL.pdb
     RDKit          3D

 31 32  0  0  1  0  0  0  0  0999 V2000
    8.4233  -12.5956   15.8971 O   0  0  0  0  0  0  0  0  0  0  0  0
    8.2257  -13.0013   17.1963 C   0  0  0  0  0  0  0  0  0  0  0  0
    9.2966  -13.4268   17.9656 C   0  0  0  0  0  0  0  0  0  0  0  0
    9.1141  -13.8379   19.2743 C   0  0  0  0  0  0  0  0  0  0  0  0
    7.8501  -13.8255   19.8248 C   0  0  0  0  0  0  0  0  0  0  0  0
    7.6645  -14.2732   21.2476 C   0  0  0  0  0  0  0  0  0  0  0  0
    7.8872  -15.7844   21.2235 C   0  0  2  0  0  0  0  0  0  0  0  0
    6.9310  -16.4829   20.4298 N   0  0  0  0  0  0  0  0  0  0  0  0
    8.0487  -16.3355   22.5893 C   0  0  0  0  0  0  0  0  0  0  0  0
    7.0803  -16.3819   23.3882 O   0  0  0  0  0  0  0  0  0  0  0  0
    6.7908  -13.3971   19.0413 C   0  0  0  0  0  0  0  0  0  0  0  0
    6.9700  -12.9908   17.7484 C   0  0  0  0  0  0  0  0  0  0  0  0
    9.2863  -16.8326   23.0607 N   0  0  0  0  0  0  0  0  0  0  0  0
    9.5204  -17.2229   24.4331 C   0  0  1  0  0  0  0  0  0  0  0  0
   10.5484  -18.2870   24.5751 C   0  0  0  0  0  0  0  0  0  0  0  0
   10.1261  -19.5691   23.9640 C   0  0  0  0  0  0  0  0  0  0  0  0
    8.9761  -19.8116   23.2151 C   0  0  0  0  0  0  0  0  0  0  0  0
    8.9356  -21.0969   22.8296 N   0  0  0  0  0  0  0  0  0  0  0  0
   10.0390  -21.6731   23.3208 C   0  0  0  0  0  0  0  0  0  0  0  0
   10.7563  -20.7659   24.0006 N   0  0  0  0  0  0  0  0  0  0  0  0
    9.8287  -16.0215   25.2837 C   0  0  0  0  0  0  0  0  0  0  0  0
   10.7616  -15.2397   24.9852 O   0  0  0  0  0  0  0  0  0  0  0  0
    8.4941  -12.3199   25.5613 C   0  0  0  0  0  0  0  0  0  0  0  0
    7.6300  -13.3040   26.2764 C   0  0  2  0  0  0  0  0  0  0  0  0
    6.2785  -12.6800   26.6469 C   0  0  0  0  0  0  0  0  0  0  0  0
    8.2656  -13.8497   27.4949 C   0  0  0  0  0  0  0  0  0  0  0  0
    9.4383  -14.7339   27.3625 C   0  0  2  0  0  0  0  0  0  0  0  0
    9.0181  -15.8255   26.4242 N   0  0  0  0  0  0  0  0  0  0  0  0
   10.1423  -15.3084   28.4651 C   0  0  0  0  0  0  0  0  0  0  0  0
   10.3253  -16.6433   28.7988 O   0  0  0  0  0  0  0  0  0  0  0  0
   10.7045  -14.5073   29.3149 O   0  0  0  0  0  0  0  0  0  0  0  0
  1  2  1  0
  2 12  2  0
  3  2  1  0
  3  4  2  0
  4  5  1  0
  5 11  2  0
  5  6  1  0
  7  6  1  0
  7  8  1  1
  9  7  1  0
 10  9  2  0
 12 11  1  0
 13  9  1  0
 14 13  1  0
 14 15  1  6
 16 15  1  0
 17 16  2  0
 18 17  1  0
 19 18  1  0
 19 20  2  0
 20 16  1  0
 21 14  1  0
 21 28  1  0
 22 21  2  0
 24 23  1  1
 24 26  1  0
 24 25  1  0
 27 26  1  1
 27 28  1  0
 27 29  1  0
 29 31  2  0
 29 30  1  0
M  END
$$$$
