YHL.pdb
     RDKit          3D

 31 32  0  0  1  0  0  0  0  0999 V2000
    9.0483  -12.2288   16.6105 O   0  0  0  0  0  0  0  0  0  0  0  0
    8.4962  -12.8393   17.7122 C   0  0  0  0  0  0  0  0  0  0  0  0
    9.1927  -12.8822   18.9093 C   0  0  0  0  0  0  0  0  0  0  0  0
    8.6506  -13.4926   20.0267 C   0  0  0  0  0  0  0  0  0  0  0  0
    7.3998  -14.0676   19.9525 C   0  0  0  0  0  0  0  0  0  0  0  0
    6.8210  -14.7266   21.1731 C   0  0  0  0  0  0  0  0  0  0  0  0
    7.3351  -16.1646   21.1328 C   0  0  2  0  0  0  0  0  0  0  0  0
    6.8117  -16.9206   20.0433 N   0  0  0  0  0  0  0  0  0  0  0  0
    7.1944  -16.8331   22.4475 C   0  0  0  0  0  0  0  0  0  0  0  0
    6.1915  -17.5426   22.7099 O   0  0  0  0  0  0  0  0  0  0  0  0
    6.7174  -14.0155   18.7478 C   0  0  0  0  0  0  0  0  0  0  0  0
    7.2519  -13.4129   17.6433 C   0  0  0  0  0  0  0  0  0  0  0  0
    8.1696  -16.7096   23.4648 N   0  0  0  0  0  0  0  0  0  0  0  0
    7.9113  -16.9947   24.8586 C   0  0  1  0  0  0  0  0  0  0  0  0
    7.8582  -18.4489   25.1616 C   0  0  0  0  0  0  0  0  0  0  0  0
    8.9147  -19.2140   24.4587 C   0  0  0  0  0  0  0  0  0  0  0  0
    9.8857  -18.7160   23.5918 C   0  0  0  0  0  0  0  0  0  0  0  0
   10.6683  -19.7130   23.1495 N   0  0  0  0  0  0  0  0  0  0  0  0
   10.2109  -20.8335   23.7203 C   0  0  0  0  0  0  0  0  0  0  0  0
    9.1620  -20.5434   24.5049 N   0  0  0  0  0  0  0  0  0  0  0  0
    8.8886  -16.2683   25.7411 C   0  0  0  0  0  0  0  0  0  0  0  0
   10.0641  -16.0522   25.3640 O   0  0  0  0  0  0  0  0  0  0  0  0
    8.2544  -12.4714   26.0207 C   0  0  0  0  0  0  0  0  0  0  0  0
    7.5061  -13.1700   27.1063 C   0  0  2  0  0  0  0  0  0  0  0  0
    6.5135  -12.2194   27.7880 C   0  0  0  0  0  0  0  0  0  0  0  0
    8.3947  -13.7625   28.1289 C   0  0  0  0  0  0  0  0  0  0  0  0
    9.2796  -14.8812   27.7548 C   0  0  2  0  0  0  0  0  0  0  0  0
    8.4139  -15.8481   27.0038 N   0  0  0  0  0  0  0  0  0  0  0  0
   10.0988  -15.6029   28.6763 C   0  0  0  0  0  0  0  0  0  0  0  0
    9.9978  -16.9188   29.1067 O   0  0  0  0  0  0  0  0  0  0  0  0
   11.0925  -14.9798   29.2279 O   0  0  0  0  0  0  0  0  0  0  0  0
  1  2  1  0
  2 12  2  0
  3  2  1  0
  3  4  2  0
  4  5  1  0
  5 11  2  0
  5  6  1  0
  7  6  1  0
  7  8  1  6
  9  7  1  0
 10  9  2  0
 12 11  1  0
 13  9  1  0
 14 13  1  0
 14 15  1  6
 16 15  1  0
 17 16  2  0
 18 17  1  0
 19 18  1  0
 19 20  2  0
 20 16  1  0
 21 14  1  0
 21 28  1  0
 22 21  2  0
 24 23  1  6
 24 26  1  0
 24 25  1  0
 27 26  1  1
 27 28  1  0
 27 29  1  0
 29 31  2  0
 29 30  1  0
M  END
$$$$
