VSL.pdb
     RDKit          3D

 22 21  0  0  1  0  0  0  0  0999 V2000
    8.3432  -12.7359   17.6246 C   0  0  0  0  0  0  0  0  0  0  0  0
    8.0256  -13.4058   18.9528 C   0  0  2  0  0  0  0  0  0  0  0  0
    8.5971  -12.6396   20.0984 C   0  0  0  0  0  0  0  0  0  0  0  0
    8.5175  -14.8379   18.9046 C   0  0  2  0  0  0  0  0  0  0  0  0
    7.9309  -15.5335   17.7733 N   0  0  0  0  0  0  0  0  0  0  0  0
    8.1859  -15.4744   20.1882 C   0  0  0  0  0  0  0  0  0  0  0  0
    6.9884  -15.7157   20.5530 O   0  0  0  0  0  0  0  0  0  0  0  0
    9.7467  -18.2378   23.7692 O   0  0  0  0  0  0  0  0  0  0  0  0
    9.9743  -17.6528   22.5317 C   0  0  0  0  0  0  0  0  0  0  0  0
    9.0471  -16.4777   22.3083 C   0  0  2  0  0  0  0  0  0  0  0  0
    9.2636  -15.8295   21.0473 N   0  0  0  0  0  0  0  0  0  0  0  0
    9.0997  -15.5170   23.4393 C   0  0  0  0  0  0  0  0  0  0  0  0
   10.1151  -14.7572   23.5205 O   0  0  0  0  0  0  0  0  0  0  0  0
    5.5796  -12.4945   27.2498 C   0  0  0  0  0  0  0  0  0  0  0  0
    7.0371  -12.9209   27.0326 C   0  0  2  0  0  0  0  0  0  0  0  0
    7.7864  -11.6582   26.6665 C   0  0  0  0  0  0  0  0  0  0  0  0
    7.0086  -13.8826   25.8737 C   0  0  0  0  0  0  0  0  0  0  0  0
    8.3294  -14.5534   25.5988 C   0  0  2  0  0  0  0  0  0  0  0  0
    8.1053  -15.3975   24.4159 N   0  0  0  0  0  0  0  0  0  0  0  0
    8.8656  -15.3341   26.7136 C   0  0  0  0  0  0  0  0  0  0  0  0
    9.6418  -14.8163   27.5655 O   0  0  0  0  0  0  0  0  0  0  0  0
    8.5544  -16.6691   26.8946 O   0  0  0  0  0  0  0  0  0  0  0  0
  2  3  1  1
  2  1  1  0
  4  2  1  0
  4  5  1  6
  6  4  1  0
  7  6  2  0
  8  9  1  0
 10  9  1  1
 10 12  1  0
 10 11  1  0
 11  6  1  0
 12 19  1  0
 13 12  2  0
 15 14  1  6
 16 15  1  0
 17 15  1  0
 18 17  1  1
 18 20  1  0
 19 18  1  0
 20 22  1  0
 21 20  2  0
M  END
$$$$
