VSL.pdb
     RDKit          3D

 22 21  0  0  1  0  0  0  0  0999 V2000
   14.9675  -15.6433   21.8606 C   0  0  0  0  0  0  0  0  0  0  0  0
   14.7095  -17.0947   21.4858 C   0  0  2  0  0  0  0  0  0  0  0  0
   15.8899  -17.6972   20.8005 C   0  0  0  0  0  0  0  0  0  0  0  0
   13.4494  -17.1635   20.6475 C   0  0  2  0  0  0  0  0  0  0  0  0
   13.6429  -16.4638   19.3902 N   0  0  0  0  0  0  0  0  0  0  0  0
   12.3465  -16.5993   21.4399 C   0  0  0  0  0  0  0  0  0  0  0  0
   12.0056  -15.3725   21.3776 O   0  0  0  0  0  0  0  0  0  0  0  0
    9.6798  -19.2624   23.4242 O   0  0  0  0  0  0  0  0  0  0  0  0
    9.3317  -18.0004   22.9641 C   0  0  0  0  0  0  0  0  0  0  0  0
   10.5010  -17.0448   23.0643 C   0  0  2  0  0  0  0  0  0  0  0  0
   11.6405  -17.4781   22.3087 N   0  0  0  0  0  0  0  0  0  0  0  0
   10.8526  -16.7574   24.4780 C   0  0  0  0  0  0  0  0  0  0  0  0
   11.8846  -17.3244   24.9557 O   0  0  0  0  0  0  0  0  0  0  0  0
    8.6374  -13.4678   29.1422 C   0  0  0  0  0  0  0  0  0  0  0  0
    9.7373  -14.4677   28.7632 C   0  0  2  0  0  0  0  0  0  0  0  0
   11.0480  -13.7651   29.0431 C   0  0  0  0  0  0  0  0  0  0  0  0
    9.5668  -14.7162   27.2874 C   0  0  0  0  0  0  0  0  0  0  0  0
   10.4600  -15.7984   26.7389 C   0  0  2  0  0  0  0  0  0  0  0  0
   10.1213  -15.9050   25.3121 N   0  0  0  0  0  0  0  0  0  0  0  0
   10.3407  -17.0925   27.4105 C   0  0  0  0  0  0  0  0  0  0  0  0
   11.2057  -17.4825   28.2448 O   0  0  0  0  0  0  0  0  0  0  0  0
    9.2838  -17.9514   27.1715 O   0  0  0  0  0  0  0  0  0  0  0  0
  2  3  1  6
  2  1  1  0
  4  2  1  0
  4  5  1  6
  6  4  1  0
  7  6  2  0
  8  9  1  0
 10  9  1  1
 10 12  1  0
 10 11  1  0
 11  6  1  0
 12 19  1  0
 13 12  2  0
 15 14  1  6
 16 15  1  0
 17 15  1  0
 18 17  1  1
 18 20  1  0
 19 18  1  0
 20 22  1  0
 21 20  2  0
M  END
$$$$
