VSL.pdb
     RDKit          3D

 22 21  0  0  1  0  0  0  0  0999 V2000
   13.0556  -18.1802   19.6997 C   0  0  0  0  0  0  0  0  0  0  0  0
   12.0605  -17.3508   20.4969 C   0  0  2  0  0  0  0  0  0  0  0  0
   11.8721  -17.9008   21.8710 C   0  0  0  0  0  0  0  0  0  0  0  0
   10.7635  -17.2673   19.7183 C   0  0  2  0  0  0  0  0  0  0  0  0
   11.0180  -16.8073   18.3651 N   0  0  0  0  0  0  0  0  0  0  0  0
    9.8513  -16.3768   20.4515 C   0  0  0  0  0  0  0  0  0  0  0  0
   10.0378  -15.1193   20.5460 O   0  0  0  0  0  0  0  0  0  0  0  0
    6.2888  -18.0725   22.0085 O   0  0  0  0  0  0  0  0  0  0  0  0
    6.3227  -16.7504   21.5885 C   0  0  0  0  0  0  0  0  0  0  0  0
    7.7140  -16.1719   21.7295 C   0  0  2  0  0  0  0  0  0  0  0  0
    8.7154  -16.9642   21.0764 N   0  0  0  0  0  0  0  0  0  0  0  0
    8.0563  -15.9113   23.1508 C   0  0  0  0  0  0  0  0  0  0  0  0
    8.9691  -16.6217   23.6771 O   0  0  0  0  0  0  0  0  0  0  0  0
    8.2746  -12.3238   26.9986 C   0  0  0  0  0  0  0  0  0  0  0  0
    7.1815  -12.4384   25.9285 C   0  0  2  0  0  0  0  0  0  0  0  0
    6.0602  -11.5306   26.3850 C   0  0  0  0  0  0  0  0  0  0  0  0
    6.7458  -13.8801   25.9484 C   0  0  0  0  0  0  0  0  0  0  0  0
    7.7582  -14.8364   25.3736 C   0  0  2  0  0  0  0  0  0  0  0  0
    7.4389  -14.9366   23.9419 N   0  0  0  0  0  0  0  0  0  0  0  0
    7.7843  -16.1559   26.0048 C   0  0  0  0  0  0  0  0  0  0  0  0
    6.9021  -17.0239   25.7505 O   0  0  0  0  0  0  0  0  0  0  0  0
    8.7674  -16.5220   26.9055 O   0  0  0  0  0  0  0  0  0  0  0  0
  2  3  1  1
  2  1  1  0
  4  2  1  0
  4  5  1  6
  6  4  1  0
  7  6  2  0
  8  9  1  0
 10  9  1  1
 10 12  1  0
 10 11  1  0
 11  6  1  0
 12 19  1  0
 13 12  2  0
 15 14  1  1
 16 15  1  0
 17 15  1  0
 18 17  1  1
 18 20  1  0
 19 18  1  0
 20 22  1  0
 21 20  2  0
M  END
$$$$
