VSL.pdb
     RDKit          3D

 22 21  0  0  1  0  0  0  0  0999 V2000
    8.2769  -12.4114   18.1319 C   0  0  0  0  0  0  0  0  0  0  0  0
    7.9523  -13.2451   19.3620 C   0  0  2  0  0  0  0  0  0  0  0  0
    8.4150  -12.5735   20.6114 C   0  0  0  0  0  0  0  0  0  0  0  0
    8.5505  -14.6257   19.1851 C   0  0  2  0  0  0  0  0  0  0  0  0
    8.1326  -15.1962   17.9172 N   0  0  0  0  0  0  0  0  0  0  0  0
    8.1401  -15.4480   20.3331 C   0  0  0  0  0  0  0  0  0  0  0  0
    6.9631  -15.9207   20.4613 O   0  0  0  0  0  0  0  0  0  0  0  0
    9.2298  -18.6189   23.5727 O   0  0  0  0  0  0  0  0  0  0  0  0
    9.5469  -17.8595   22.4555 C   0  0  0  0  0  0  0  0  0  0  0  0
    8.8223  -16.5310   22.4790 C   0  0  2  0  0  0  0  0  0  0  0  0
    9.1146  -15.7169   21.3349 N   0  0  0  0  0  0  0  0  0  0  0  0
    9.0587  -15.8017   23.7507 C   0  0  0  0  0  0  0  0  0  0  0  0
   10.1879  -15.2402   23.9069 O   0  0  0  0  0  0  0  0  0  0  0  0
    8.1773  -12.0752   26.3403 C   0  0  0  0  0  0  0  0  0  0  0  0
    7.0346  -12.9586   25.8236 C   0  0  2  0  0  0  0  0  0  0  0  0
    5.7576  -12.3051   26.3051 C   0  0  0  0  0  0  0  0  0  0  0  0
    7.2314  -14.2996   26.4807 C   0  0  0  0  0  0  0  0  0  0  0  0
    8.4770  -15.0235   26.0401 C   0  0  2  0  0  0  0  0  0  0  0  0
    8.1196  -15.6953   24.7820 N   0  0  0  0  0  0  0  0  0  0  0  0
    9.0128  -15.9735   27.0150 C   0  0  0  0  0  0  0  0  0  0  0  0
    8.7123  -17.1999   26.9716 O   0  0  0  0  0  0  0  0  0  0  0  0
    9.8703  -15.5846   28.0275 O   0  0  0  0  0  0  0  0  0  0  0  0
  2  3  1  1
  2  1  1  0
  4  2  1  0
  4  5  1  6
  6  4  1  0
  7  6  2  0
  8  9  1  0
 10  9  1  1
 10 12  1  0
 10 11  1  0
 11  6  1  0
 12 19  1  0
 13 12  2  0
 15 14  1  1
 16 15  1  0
 17 15  1  0
 18 17  1  1
 18 20  1  0
 19 18  1  0
 20 22  1  0
 21 20  2  0
M  END
$$$$
