VSL.pdb
     RDKit          3D

 22 21  0  0  1  0  0  0  0  0999 V2000
    7.1532  -12.9082   19.8362 C   0  0  0  0  0  0  0  0  0  0  0  0
    8.6065  -13.2511   19.5465 C   0  0  2  0  0  0  0  0  0  0  0  0
    9.1271  -12.4739   18.3842 C   0  0  0  0  0  0  0  0  0  0  0  0
    8.7221  -14.7485   19.3469 C   0  0  2  0  0  0  0  0  0  0  0  0
    8.0761  -15.1420   18.1077 N   0  0  0  0  0  0  0  0  0  0  0  0
    8.1331  -15.4091   20.5213 C   0  0  0  0  0  0  0  0  0  0  0  0
    6.9058  -15.7482   20.5826 O   0  0  0  0  0  0  0  0  0  0  0  0
   10.3061  -17.9313   22.7938 O   0  0  0  0  0  0  0  0  0  0  0  0
    8.9263  -17.7988   22.8575 C   0  0  0  0  0  0  0  0  0  0  0  0
    8.5182  -16.3423   22.8069 C   0  0  2  0  0  0  0  0  0  0  0  0
    8.9877  -15.6731   21.6284 N   0  0  0  0  0  0  0  0  0  0  0  0
    8.9103  -15.6214   24.0445 C   0  0  0  0  0  0  0  0  0  0  0  0
   10.0793  -15.1256   24.0926 O   0  0  0  0  0  0  0  0  0  0  0  0
    8.0359  -11.9016   26.0727 C   0  0  0  0  0  0  0  0  0  0  0  0
    6.9191  -12.9530   26.0934 C   0  0  2  0  0  0  0  0  0  0  0  0
    5.7254  -12.2748   26.7297 C   0  0  0  0  0  0  0  0  0  0  0  0
    7.4303  -14.0686   26.9669 C   0  0  0  0  0  0  0  0  0  0  0  0
    8.5926  -14.8262   26.3795 C   0  0  2  0  0  0  0  0  0  0  0  0
    8.0760  -15.4553   25.1551 N   0  0  0  0  0  0  0  0  0  0  0  0
    9.1939  -15.8173   27.2719 C   0  0  0  0  0  0  0  0  0  0  0  0
    8.9349  -17.0485   27.1568 O   0  0  0  0  0  0  0  0  0  0  0  0
   10.0712  -15.4637   28.2804 O   0  0  0  0  0  0  0  0  0  0  0  0
  2  3  1  6
  2  1  1  0
  4  2  1  0
  4  5  1  6
  6  4  1  0
  7  6  2  0
  8  9  1  0
 10  9  1  1
 10 12  1  0
 10 11  1  0
 11  6  1  0
 12 19  1  0
 13 12  2  0
 15 14  1  1
 16 15  1  0
 17 15  1  0
 18 17  1  1
 18 20  1  0
 19 18  1  0
 20 22  1  0
 21 20  2  0
M  END
$$$$
