VSL.pdb
     RDKit          3D

 22 21  0  0  1  0  0  0  0  0999 V2000
    8.3982  -12.6437   18.1915 C   0  0  0  0  0  0  0  0  0  0  0  0
    8.0098  -13.3616   19.4750 C   0  0  2  0  0  0  0  0  0  0  0  0
    8.4920  -12.6228   20.6783 C   0  0  0  0  0  0  0  0  0  0  0  0
    8.5318  -14.7826   19.4141 C   0  0  2  0  0  0  0  0  0  0  0  0
    8.1228  -15.4158   18.1734 N   0  0  0  0  0  0  0  0  0  0  0  0
    8.0367  -15.4984   20.5995 C   0  0  0  0  0  0  0  0  0  0  0  0
    6.8201  -15.8539   20.7363 O   0  0  0  0  0  0  0  0  0  0  0  0
   10.4771  -17.9087   22.8184 O   0  0  0  0  0  0  0  0  0  0  0  0
    9.0955  -17.8706   22.9421 C   0  0  0  0  0  0  0  0  0  0  0  0
    8.5810  -16.4507   22.8445 C   0  0  2  0  0  0  0  0  0  0  0  0
    8.9728  -15.7987   21.6285 N   0  0  0  0  0  0  0  0  0  0  0  0
    8.9477  -15.6528   24.0419 C   0  0  0  0  0  0  0  0  0  0  0  0
   10.1260  -15.1801   24.0970 O   0  0  0  0  0  0  0  0  0  0  0  0
    7.8118  -11.7637   25.7125 C   0  0  0  0  0  0  0  0  0  0  0  0
    6.7755  -12.8908   25.8060 C   0  0  2  0  0  0  0  0  0  0  0  0
    5.5194  -12.2519   26.3572 C   0  0  0  0  0  0  0  0  0  0  0  0
    7.3454  -13.8840   26.7847 C   0  0  0  0  0  0  0  0  0  0  0  0
    8.5513  -14.6284   26.2732 C   0  0  2  0  0  0  0  0  0  0  0  0
    8.0802  -15.3907   25.1076 N   0  0  0  0  0  0  0  0  0  0  0  0
    9.1950  -15.5026   27.2538 C   0  0  0  0  0  0  0  0  0  0  0  0
    9.0101  -16.7524   27.2418 O   0  0  0  0  0  0  0  0  0  0  0  0
   10.0339  -15.0132   28.2380 O   0  0  0  0  0  0  0  0  0  0  0  0
  2  3  1  1
  2  1  1  0
  4  2  1  0
  4  5  1  6
  6  4  1  0
  7  6  2  0
  8  9  1  0
 10  9  1  1
 10 12  1  0
 10 11  1  0
 11  6  1  0
 12 19  1  0
 13 12  2  0
 15 14  1  1
 16 15  1  0
 17 15  1  0
 18 17  1  1
 18 20  1  0
 19 18  1  0
 20 22  1  0
 21 20  2  0
M  END
$$$$
