VSL.pdb
     RDKit          3D

 22 21  0  0  1  0  0  0  0  0999 V2000
    8.1820  -12.7646   18.0545 C   0  0  0  0  0  0  0  0  0  0  0  0
    8.0343  -13.4572   19.4006 C   0  0  2  0  0  0  0  0  0  0  0  0
    8.6916  -12.6762   20.4888 C   0  0  0  0  0  0  0  0  0  0  0  0
    8.5768  -14.8669   19.2839 C   0  0  2  0  0  0  0  0  0  0  0  0
    7.9938  -15.5367   18.1354 N   0  0  0  0  0  0  0  0  0  0  0  0
    8.2938  -15.5674   20.5456 C   0  0  0  0  0  0  0  0  0  0  0  0
    7.1151  -15.8873   20.9112 O   0  0  0  0  0  0  0  0  0  0  0  0
   11.5050  -17.4052   22.5760 O   0  0  0  0  0  0  0  0  0  0  0  0
   10.1856  -17.8209   22.6858 C   0  0  0  0  0  0  0  0  0  0  0  0
    9.2370  -16.6454   22.5929 C   0  0  2  0  0  0  0  0  0  0  0  0
    9.3981  -15.8940   21.3818 N   0  0  0  0  0  0  0  0  0  0  0  0
    9.3209  -15.7787   23.7958 C   0  0  0  0  0  0  0  0  0  0  0  0
   10.2988  -14.9708   23.8730 O   0  0  0  0  0  0  0  0  0  0  0  0
    5.9101  -12.7881   27.6004 C   0  0  0  0  0  0  0  0  0  0  0  0
    7.3380  -13.3358   27.4802 C   0  0  2  0  0  0  0  0  0  0  0  0
    8.2244  -12.1307   27.2526 C   0  0  0  0  0  0  0  0  0  0  0  0
    7.3273  -14.2300   26.2682 C   0  0  0  0  0  0  0  0  0  0  0  0
    8.6178  -14.9737   26.0414 C   0  0  2  0  0  0  0  0  0  0  0  0
    8.3945  -15.7968   24.8438 N   0  0  0  0  0  0  0  0  0  0  0  0
    9.0629  -15.7901   27.1707 C   0  0  0  0  0  0  0  0  0  0  0  0
    9.8843  -15.3443   28.0210 O   0  0  0  0  0  0  0  0  0  0  0  0
    8.6125  -17.0825   27.3678 O   0  0  0  0  0  0  0  0  0  0  0  0
  2  3  1  1
  2  1  1  0
  4  2  1  0
  4  5  1  6
  6  4  1  0
  7  6  2  0
  8  9  1  0
 10  9  1  1
 10 12  1  0
 10 11  1  0
 11  6  1  0
 12 19  1  0
 13 12  2  0
 15 14  1  6
 16 15  1  0
 17 15  1  0
 18 17  1  1
 18 20  1  0
 19 18  1  0
 20 22  1  0
 21 20  2  0
M  END
$$$$
