VSL.pdb
     RDKit          3D

 22 21  0  0  1  0  0  0  0  0999 V2000
    8.0348  -12.5489   18.1734 C   0  0  0  0  0  0  0  0  0  0  0  0
    7.7027  -13.3160   19.4442 C   0  0  2  0  0  0  0  0  0  0  0  0
    8.1387  -12.5689   20.6598 C   0  0  0  0  0  0  0  0  0  0  0  0
    8.3204  -14.6964   19.3541 C   0  0  2  0  0  0  0  0  0  0  0  0
    7.9582  -15.3285   18.0984 N   0  0  0  0  0  0  0  0  0  0  0  0
    7.8728  -15.4703   20.5217 C   0  0  0  0  0  0  0  0  0  0  0  0
    6.6666  -15.8516   20.6793 O   0  0  0  0  0  0  0  0  0  0  0  0
   10.4072  -17.9105   22.5420 O   0  0  0  0  0  0  0  0  0  0  0  0
    9.0390  -17.8953   22.7729 C   0  0  0  0  0  0  0  0  0  0  0  0
    8.4953  -16.4840   22.7190 C   0  0  2  0  0  0  0  0  0  0  0  0
    8.8445  -15.7986   21.5085 N   0  0  0  0  0  0  0  0  0  0  0  0
    8.8763  -15.7049   23.9244 C   0  0  0  0  0  0  0  0  0  0  0  0
   10.0305  -15.1734   23.9421 O   0  0  0  0  0  0  0  0  0  0  0  0
    8.0232  -11.9503   26.0053 C   0  0  0  0  0  0  0  0  0  0  0  0
    6.9107  -13.0066   25.9960 C   0  0  2  0  0  0  0  0  0  0  0  0
    5.7079  -12.3447   26.6322 C   0  0  0  0  0  0  0  0  0  0  0  0
    7.4179  -14.1355   26.8545 C   0  0  0  0  0  0  0  0  0  0  0  0
    8.5751  -14.8917   26.2553 C   0  0  2  0  0  0  0  0  0  0  0  0
    8.0470  -15.5209   25.0359 N   0  0  0  0  0  0  0  0  0  0  0  0
    9.1863  -15.8824   27.1413 C   0  0  0  0  0  0  0  0  0  0  0  0
    9.8294  -15.5348   28.1718 O   0  0  0  0  0  0  0  0  0  0  0  0
    9.0936  -17.2410   26.9018 O   0  0  0  0  0  0  0  0  0  0  0  0
  2  3  1  1
  2  1  1  0
  4  2  1  0
  4  5  1  6
  6  4  1  0
  7  6  2  0
  8  9  1  0
 10  9  1  1
 10 12  1  0
 10 11  1  0
 11  6  1  0
 12 19  1  0
 13 12  2  0
 15 14  1  1
 16 15  1  0
 17 15  1  0
 18 17  1  1
 18 20  1  0
 19 18  1  0
 20 22  1  0
 21 20  2  0
M  END
$$$$
