VSL.pdb
     RDKit          3D

 22 21  0  0  1  0  0  0  0  0999 V2000
    8.1717  -12.7312   18.1767 C   0  0  0  0  0  0  0  0  0  0  0  0
    7.8963  -13.3504   19.5385 C   0  0  2  0  0  0  0  0  0  0  0  0
    8.5076  -12.5449   20.6355 C   0  0  0  0  0  0  0  0  0  0  0  0
    8.3821  -14.7854   19.5270 C   0  0  2  0  0  0  0  0  0  0  0  0
    7.8521  -15.4867   18.3716 N   0  0  0  0  0  0  0  0  0  0  0  0
    7.9798  -15.4102   20.7961 C   0  0  0  0  0  0  0  0  0  0  0  0
    6.7623  -15.6253   21.1071 O   0  0  0  0  0  0  0  0  0  0  0  0
   10.7868  -17.6604   22.9398 O   0  0  0  0  0  0  0  0  0  0  0  0
    9.4108  -17.7911   23.0623 C   0  0  0  0  0  0  0  0  0  0  0  0
    8.7255  -16.4470   22.9437 C   0  0  2  0  0  0  0  0  0  0  0  0
    9.0100  -15.7843   21.7039 N   0  0  0  0  0  0  0  0  0  0  0  0
    9.0169  -15.5795   24.1131 C   0  0  0  0  0  0  0  0  0  0  0  0
   10.1236  -14.9550   24.1224 O   0  0  0  0  0  0  0  0  0  0  0  0
    7.8130  -11.8344   25.8699 C   0  0  0  0  0  0  0  0  0  0  0  0
    6.7739  -12.9585   25.9695 C   0  0  2  0  0  0  0  0  0  0  0  0
    5.5358  -12.3245   26.5653 C   0  0  0  0  0  0  0  0  0  0  0  0
    7.3643  -13.9724   26.9140 C   0  0  0  0  0  0  0  0  0  0  0  0
    8.5958  -14.6609   26.3856 C   0  0  2  0  0  0  0  0  0  0  0  0
    8.1525  -15.4085   25.1997 N   0  0  0  0  0  0  0  0  0  0  0  0
    9.2686  -15.5375   27.3442 C   0  0  0  0  0  0  0  0  0  0  0  0
    9.8409  -15.0731   28.3705 O   0  0  0  0  0  0  0  0  0  0  0  0
    9.3138  -16.9099   27.1813 O   0  0  0  0  0  0  0  0  0  0  0  0
  2  3  1  1
  2  1  1  0
  4  2  1  0
  4  5  1  6
  6  4  1  0
  7  6  2  0
  8  9  1  0
 10  9  1  1
 10 12  1  0
 10 11  1  0
 11  6  1  0
 12 19  1  0
 13 12  2  0
 15 14  1  1
 16 15  1  0
 17 15  1  0
 18 17  1  1
 18 20  1  0
 19 18  1  0
 20 22  1  0
 21 20  2  0
M  END
$$$$
