VSL.pdb
     RDKit          3D

 22 21  0  0  1  0  0  0  0  0999 V2000
    8.3017  -12.6792   17.8783 C   0  0  0  0  0  0  0  0  0  0  0  0
    8.0139  -13.4171   19.1769 C   0  0  2  0  0  0  0  0  0  0  0  0
    8.6473  -12.7340   20.3423 C   0  0  0  0  0  0  0  0  0  0  0  0
    8.4639  -14.8561   19.0281 C   0  0  2  0  0  0  0  0  0  0  0  0
    7.8571  -15.4538   17.8524 N   0  0  0  0  0  0  0  0  0  0  0  0
    8.1139  -15.5705   20.2649 C   0  0  0  0  0  0  0  0  0  0  0  0
    6.9098  -15.7861   20.6236 O   0  0  0  0  0  0  0  0  0  0  0  0
   11.1556  -17.6131   22.4769 O   0  0  0  0  0  0  0  0  0  0  0  0
    9.8078  -17.9424   22.4982 C   0  0  0  0  0  0  0  0  0  0  0  0
    8.9456  -16.7105   22.3270 C   0  0  2  0  0  0  0  0  0  0  0  0
    9.1813  -16.0342   21.0843 N   0  0  0  0  0  0  0  0  0  0  0  0
    9.0676  -15.7921   23.4874 C   0  0  0  0  0  0  0  0  0  0  0  0
   10.0730  -15.0157   23.5214 O   0  0  0  0  0  0  0  0  0  0  0  0
    5.7690  -12.3750   26.9706 C   0  0  0  0  0  0  0  0  0  0  0  0
    7.1723  -12.9929   26.9240 C   0  0  2  0  0  0  0  0  0  0  0  0
    8.1149  -11.8528   26.6052 C   0  0  0  0  0  0  0  0  0  0  0  0
    7.1375  -13.9909   25.7964 C   0  0  0  0  0  0  0  0  0  0  0  0
    8.3860  -14.8254   25.6752 C   0  0  2  0  0  0  0  0  0  0  0  0
    8.1484  -15.7294   24.5402 N   0  0  0  0  0  0  0  0  0  0  0  0
    8.7457  -15.5714   26.8811 C   0  0  0  0  0  0  0  0  0  0  0  0
    8.2178  -16.6886   27.1450 O   0  0  0  0  0  0  0  0  0  0  0  0
    9.6752  -15.0991   27.7892 O   0  0  0  0  0  0  0  0  0  0  0  0
  2  3  1  1
  2  1  1  0
  4  2  1  0
  4  5  1  6
  6  4  1  0
  7  6  2  0
  8  9  1  0
 10  9  1  1
 10 12  1  0
 10 11  1  0
 11  6  1  0
 12 19  1  0
 13 12  2  0
 15 14  1  6
 16 15  1  0
 17 15  1  0
 18 17  1  1
 18 20  1  0
 19 18  1  0
 20 22  1  0
 21 20  2  0
M  END
$$$$
