VSL.pdb
     RDKit          3D

 22 21  0  0  1  0  0  0  0  0999 V2000
    8.4049  -12.4718   18.1063 C   0  0  0  0  0  0  0  0  0  0  0  0
    7.9625  -13.2376   19.3438 C   0  0  2  0  0  0  0  0  0  0  0  0
    8.3289  -12.5095   20.5935 C   0  0  0  0  0  0  0  0  0  0  0  0
    8.5495  -14.6331   19.2875 C   0  0  2  0  0  0  0  0  0  0  0  0
    8.2593  -15.2494   18.0054 N   0  0  0  0  0  0  0  0  0  0  0  0
    8.0023  -15.4009   20.4160 C   0  0  0  0  0  0  0  0  0  0  0  0
    6.7809  -15.7600   20.4823 O   0  0  0  0  0  0  0  0  0  0  0  0
   10.2644  -17.9910   22.6218 O   0  0  0  0  0  0  0  0  0  0  0  0
    8.8817  -17.8886   22.6774 C   0  0  0  0  0  0  0  0  0  0  0  0
    8.4432  -16.4405   22.6449 C   0  0  2  0  0  0  0  0  0  0  0  0
    8.8918  -15.7490   21.4711 N   0  0  0  0  0  0  0  0  0  0  0  0
    8.8273  -15.7248   23.8881 C   0  0  0  0  0  0  0  0  0  0  0  0
    9.9990  -15.2367   23.9491 O   0  0  0  0  0  0  0  0  0  0  0  0
    7.9054  -11.9769   26.1032 C   0  0  0  0  0  0  0  0  0  0  0  0
    6.8181  -13.0543   26.0018 C   0  0  2  0  0  0  0  0  0  0  0  0
    5.5772  -12.4478   26.6202 C   0  0  0  0  0  0  0  0  0  0  0  0
    7.3173  -14.2114   26.8268 C   0  0  0  0  0  0  0  0  0  0  0  0
    8.4921  -14.9357   26.2226 C   0  0  2  0  0  0  0  0  0  0  0  0
    7.9829  -15.5558   24.9905 N   0  0  0  0  0  0  0  0  0  0  0  0
    9.1174  -15.9283   27.0966 C   0  0  0  0  0  0  0  0  0  0  0  0
    9.7774  -15.5828   28.1171 O   0  0  0  0  0  0  0  0  0  0  0  0
    9.0206  -17.2864   26.8561 O   0  0  0  0  0  0  0  0  0  0  0  0
  2  3  1  1
  2  1  1  0
  4  2  1  0
  4  5  1  6
  6  4  1  0
  7  6  2  0
  8  9  1  0
 10  9  1  1
 10 12  1  0
 10 11  1  0
 11  6  1  0
 12 19  1  0
 13 12  2  0
 15 14  1  1
 16 15  1  0
 17 15  1  0
 18 17  1  1
 18 20  1  0
 19 18  1  0
 20 22  1  0
 21 20  2  0
M  END
$$$$
