VSL.pdb
     RDKit          3D

 22 21  0  0  1  0  0  0  0  0999 V2000
    7.2822  -13.0270   19.9095 C   0  0  0  0  0  0  0  0  0  0  0  0
    8.6225  -13.4336   19.3161 C   0  0  2  0  0  0  0  0  0  0  0  0
    8.9438  -12.6320   18.0994 C   0  0  0  0  0  0  0  0  0  0  0  0
    8.6019  -14.9240   19.0450 C   0  0  2  0  0  0  0  0  0  0  0  0
    7.7151  -15.2211   17.9346 N   0  0  0  0  0  0  0  0  0  0  0  0
    8.1969  -15.6045   20.2842 C   0  0  0  0  0  0  0  0  0  0  0  0
    6.9775  -15.7762   20.6136 O   0  0  0  0  0  0  0  0  0  0  0  0
   11.1088  -17.6935   22.6143 O   0  0  0  0  0  0  0  0  0  0  0  0
    9.7490  -17.9698   22.6272 C   0  0  0  0  0  0  0  0  0  0  0  0
    8.9379  -16.7129   22.3974 C   0  0  2  0  0  0  0  0  0  0  0  0
    9.2270  -16.0856   21.1404 N   0  0  0  0  0  0  0  0  0  0  0  0
    9.0680  -15.7632   23.5315 C   0  0  0  0  0  0  0  0  0  0  0  0
   10.1180  -15.0494   23.5850 O   0  0  0  0  0  0  0  0  0  0  0  0
    5.6258  -12.2738   26.8937 C   0  0  0  0  0  0  0  0  0  0  0  0
    7.0369  -12.8755   26.8860 C   0  0  2  0  0  0  0  0  0  0  0  0
    7.9741  -11.7263   26.5848 C   0  0  0  0  0  0  0  0  0  0  0  0
    7.0420  -13.8798   25.7634 C   0  0  0  0  0  0  0  0  0  0  0  0
    8.3339  -14.6429   25.6270 C   0  0  2  0  0  0  0  0  0  0  0  0
    8.1106  -15.6068   24.5394 N   0  0  0  0  0  0  0  0  0  0  0  0
    8.7826  -15.3141   26.8469 C   0  0  0  0  0  0  0  0  0  0  0  0
    9.5736  -14.7501   27.6547 O   0  0  0  0  0  0  0  0  0  0  0  0
    8.3687  -16.5908   27.1796 O   0  0  0  0  0  0  0  0  0  0  0  0
  2  3  1  6
  2  1  1  0
  4  2  1  0
  4  5  1  6
  6  4  1  0
  7  6  2  0
  8  9  1  0
 10  9  1  1
 10 12  1  0
 10 11  1  0
 11  6  1  0
 12 19  1  0
 13 12  2  0
 15 14  1  6
 16 15  1  0
 17 15  1  0
 18 17  1  1
 18 20  1  0
 19 18  1  0
 20 22  1  0
 21 20  2  0
M  END
$$$$
