VSL.pdb
     RDKit          3D

 22 21  0  0  1  0  0  0  0  0999 V2000
    7.4019  -13.1130   21.1348 C   0  0  0  0  0  0  0  0  0  0  0  0
    8.6240  -13.4184   20.2822 C   0  0  2  0  0  0  0  0  0  0  0  0
    8.7092  -12.5033   19.1069 C   0  0  0  0  0  0  0  0  0  0  0  0
    8.5856  -14.8794   19.8833 C   0  0  2  0  0  0  0  0  0  0  0  0
    7.5422  -15.1048   18.8992 N   0  0  0  0  0  0  0  0  0  0  0  0
    8.3886  -15.6772   21.1029 C   0  0  0  0  0  0  0  0  0  0  0  0
    7.2418  -15.8765   21.6228 O   0  0  0  0  0  0  0  0  0  0  0  0
   11.2607  -18.4987   22.1841 O   0  0  0  0  0  0  0  0  0  0  0  0
    9.9368  -18.5008   22.5996 C   0  0  0  0  0  0  0  0  0  0  0  0
    9.4499  -17.0930   22.8671 C   0  0  2  0  0  0  0  0  0  0  0  0
    9.5419  -16.2437   21.7150 N   0  0  0  0  0  0  0  0  0  0  0  0
   10.1239  -16.4965   24.0481 C   0  0  0  0  0  0  0  0  0  0  0  0
   11.1827  -15.8238   23.8452 O   0  0  0  0  0  0  0  0  0  0  0  0
    8.9240  -13.9895   29.2785 C   0  0  0  0  0  0  0  0  0  0  0  0
   10.0955  -14.5920   28.4925 C   0  0  2  0  0  0  0  0  0  0  0  0
   10.9332  -13.4177   28.0353 C   0  0  0  0  0  0  0  0  0  0  0  0
    9.4729  -15.2967   27.3158 C   0  0  0  0  0  0  0  0  0  0  0  0
   10.4523  -16.0762   26.4773 C   0  0  2  0  0  0  0  0  0  0  0  0
    9.6672  -16.6289   25.3638 N   0  0  0  0  0  0  0  0  0  0  0  0
   11.1717  -17.1297   27.1933 C   0  0  0  0  0  0  0  0  0  0  0  0
   10.6366  -18.2506   27.4249 O   0  0  0  0  0  0  0  0  0  0  0  0
   12.4652  -16.9580   27.6508 O   0  0  0  0  0  0  0  0  0  0  0  0
  2  3  1  6
  2  1  1  0
  4  2  1  0
  4  5  1  6
  6  4  1  0
  7  6  2  0
  8  9  1  0
 10  9  1  6
 10 12  1  0
 10 11  1  0
 11  6  1  0
 12 19  1  0
 13 12  2  0
 15 14  1  1
 16 15  1  0
 17 15  1  0
 18 17  1  1
 18 20  1  0
 19 18  1  0
 20 22  1  0
 21 20  2  0
M  END
$$$$
