VSL.pdb
     RDKit          3D

 22 21  0  0  1  0  0  0  0  0999 V2000
    7.9030  -12.6955   18.7027 C   0  0  0  0  0  0  0  0  0  0  0  0
    7.8697  -13.5217   19.9794 C   0  0  2  0  0  0  0  0  0  0  0  0
    8.5915  -12.8350   21.0901 C   0  0  0  0  0  0  0  0  0  0  0  0
    8.4289  -14.8980   19.6824 C   0  0  2  0  0  0  0  0  0  0  0  0
    7.7507  -15.4803   18.5384 N   0  0  0  0  0  0  0  0  0  0  0  0
    8.2865  -15.7166   20.8957 C   0  0  0  0  0  0  0  0  0  0  0  0
    7.1546  -16.0641   21.3682 O   0  0  0  0  0  0  0  0  0  0  0  0
   11.5060  -18.0895   22.1812 O   0  0  0  0  0  0  0  0  0  0  0  0
   10.1666  -18.3006   22.4758 C   0  0  0  0  0  0  0  0  0  0  0  0
    9.4483  -16.9885   22.7056 C   0  0  2  0  0  0  0  0  0  0  0  0
    9.4770  -16.1294   21.5575 N   0  0  0  0  0  0  0  0  0  0  0  0
    9.9449  -16.2993   23.9236 C   0  0  0  0  0  0  0  0  0  0  0  0
   10.9310  -15.5085   23.7926 O   0  0  0  0  0  0  0  0  0  0  0  0
    8.7200  -13.2889   28.7014 C   0  0  0  0  0  0  0  0  0  0  0  0
    9.7671  -14.3194   28.2601 C   0  0  2  0  0  0  0  0  0  0  0  0
   11.0457  -13.5405   28.0407 C   0  0  0  0  0  0  0  0  0  0  0  0
    9.2549  -14.8857   26.9617 C   0  0  0  0  0  0  0  0  0  0  0  0
   10.1185  -15.9764   26.3834 C   0  0  2  0  0  0  0  0  0  0  0  0
    9.3968  -16.4662   25.1998 N   0  0  0  0  0  0  0  0  0  0  0  0
   10.4279  -17.0689   27.3058 C   0  0  0  0  0  0  0  0  0  0  0  0
    9.6373  -18.0422   27.4608 O   0  0  0  0  0  0  0  0  0  0  0  0
   11.5923  -17.0961   28.0508 O   0  0  0  0  0  0  0  0  0  0  0  0
  2  3  1  1
  2  1  1  0
  4  2  1  0
  4  5  1  6
  6  4  1  0
  7  6  2  0
  8  9  1  0
 10  9  1  6
 10 12  1  0
 10 11  1  0
 11  6  1  0
 12 19  1  0
 13 12  2  0
 15 14  1  6
 16 15  1  0
 17 15  1  0
 18 17  1  1
 18 20  1  0
 19 18  1  0
 20 22  1  0
 21 20  2  0
M  END
$$$$
