VSL.pdb
     RDKit          3D

 22 21  0  0  1  0  0  0  0  0999 V2000
    8.3373  -12.7169   17.7419 C   0  0  0  0  0  0  0  0  0  0  0  0
    7.9797  -13.4151   19.0451 C   0  0  2  0  0  0  0  0  0  0  0  0
    8.4838  -12.6543   20.2255 C   0  0  0  0  0  0  0  0  0  0  0  0
    8.5069  -14.8345   18.9965 C   0  0  2  0  0  0  0  0  0  0  0  0
    8.0552  -15.4977   17.7867 N   0  0  0  0  0  0  0  0  0  0  0  0
    8.0607  -15.5257   20.2155 C   0  0  0  0  0  0  0  0  0  0  0  0
    6.8325  -15.7443   20.4779 O   0  0  0  0  0  0  0  0  0  0  0  0
   10.8384  -17.6911   22.6432 O   0  0  0  0  0  0  0  0  0  0  0  0
    9.4689  -17.9047   22.5771 C   0  0  0  0  0  0  0  0  0  0  0  0
    8.7261  -16.6025   22.3698 C   0  0  2  0  0  0  0  0  0  0  0  0
    9.0597  -15.9624   21.1303 N   0  0  0  0  0  0  0  0  0  0  0  0
    8.8941  -15.6870   23.5268 C   0  0  0  0  0  0  0  0  0  0  0  0
    9.9245  -14.9436   23.5455 O   0  0  0  0  0  0  0  0  0  0  0  0
    7.8418  -12.1380   27.2387 C   0  0  0  0  0  0  0  0  0  0  0  0
    6.9732  -12.5194   26.0332 C   0  0  2  0  0  0  0  0  0  0  0  0
    5.6009  -11.9478   26.3160 C   0  0  0  0  0  0  0  0  0  0  0  0
    6.9350  -14.0251   26.0226 C   0  0  0  0  0  0  0  0  0  0  0  0
    8.2586  -14.6715   25.7063 C   0  0  2  0  0  0  0  0  0  0  0  0
    7.9922  -15.5931   24.5921 N   0  0  0  0  0  0  0  0  0  0  0  0
    8.8873  -15.3658   26.8301 C   0  0  0  0  0  0  0  0  0  0  0  0
    9.6501  -14.7590   27.6340 O   0  0  0  0  0  0  0  0  0  0  0  0
    8.6821  -16.7116   27.0721 O   0  0  0  0  0  0  0  0  0  0  0  0
  2  3  1  1
  2  1  1  0
  4  2  1  0
  4  5  1  6
  6  4  1  0
  7  6  2  0
  8  9  1  0
 10  9  1  1
 10 12  1  0
 10 11  1  0
 11  6  1  0
 12 19  1  0
 13 12  2  0
 15 14  1  1
 16 15  1  0
 17 15  1  0
 18 17  1  1
 18 20  1  0
 19 18  1  0
 20 22  1  0
 21 20  2  0
M  END
$$$$
