KSW.pdb
     RDKit          3D

 30 31  0  0  1  0  0  0  0  0999 V2000
   29.0406  -21.3025  -18.6999 N   0  0  0  0  0  0  0  0  0  0  0  0
   28.8436  -22.2594  -17.6884 C   0  0  1  0  0  0  0  0  0  0  0  0
   29.9405  -23.2545  -17.5951 C   0  0  0  0  0  0  0  0  0  0  0  0
   30.1396  -24.2656  -18.6116 C   0  0  0  0  0  0  0  0  0  0  0  0
   29.2047  -25.2662  -19.0676 C   0  0  0  0  0  0  0  0  0  0  0  0
   29.4754  -26.2729  -20.0892 C   0  0  0  0  0  0  0  0  0  0  0  0
   28.3617  -27.2044  -20.2964 N   0  0  0  0  0  0  0  0  0  0  0  0
   28.5313  -21.6447  -16.3513 C   0  0  0  0  0  0  0  0  0  0  0  0
   29.4046  -21.7071  -15.4488 O   0  0  0  0  0  0  0  0  0  0  0  0
   25.1365  -19.1755  -15.6161 O   0  0  0  0  0  0  0  0  0  0  0  0
   26.3978  -19.0203  -15.0456 C   0  0  0  0  0  0  0  0  0  0  0  0
   27.0450  -20.3432  -14.7881 C   0  0  2  0  0  0  0  0  0  0  0  0
   27.3198  -21.0007  -16.0406 N   0  0  0  0  0  0  0  0  0  0  0  0
   26.3051  -21.1834  -13.8348 C   0  0  0  0  0  0  0  0  0  0  0  0
   25.5344  -22.0709  -14.2389 O   0  0  0  0  0  0  0  0  0  0  0  0
   26.4702  -20.9818  -12.4459 N   0  0  0  0  0  0  0  0  0  0  0  0
   25.6793  -21.6968  -11.4449 C   0  0  1  0  0  0  0  0  0  0  0  0
   26.6091  -21.9516  -10.2817 C   0  0  0  0  0  0  0  0  0  0  0  0
   26.7080  -20.8513   -9.3164 C   0  0  0  0  0  0  0  0  0  0  0  0
   25.8258  -19.7630   -9.2304 C   0  0  0  0  0  0  0  0  0  0  0  0
   26.1817  -18.9685   -8.2092 N   0  0  0  0  0  0  0  0  0  0  0  0
   27.2677  -19.4895   -7.6155 C   0  0  0  0  0  0  0  0  0  0  0  0
   28.0102  -19.0486   -6.5428 C   0  0  0  0  0  0  0  0  0  0  0  0
   29.1157  -19.7333   -6.0901 C   0  0  0  0  0  0  0  0  0  0  0  0
   29.4667  -20.9052   -6.7616 C   0  0  0  0  0  0  0  0  0  0  0  0
   28.7088  -21.3200   -7.8260 C   0  0  0  0  0  0  0  0  0  0  0  0
   27.6006  -20.6632   -8.3025 C   0  0  0  0  0  0  0  0  0  0  0  0
   24.4701  -20.9831  -11.0328 C   0  0  0  0  0  0  0  0  0  0  0  0
   23.4050  -21.6972  -10.4610 O   0  0  0  0  0  0  0  0  0  0  0  0
   24.4174  -19.7383  -11.2037 O   0  0  0  0  0  0  0  0  0  0  0  0
  2  1  1  6
  2  3  1  0
  2  8  1  0
  4  5  1  0
  4  3  1  0
  6  5  1  0
  7  6  1  0
  8  9  2  0
 10 11  1  0
 12 11  1  6
 12 14  1  0
 13 12  1  0
 13  8  1  0
 14 15  2  0
 16 17  1  0
 16 14  1  0
 17 28  1  0
 17 18  1  1
 19 27  1  0
 19 18  1  0
 20 19  2  0
 21 20  1  0
 21 22  1  0
 22 27  2  0
 23 22  1  0
 23 24  2  0
 24 25  1  0
 25 26  2  0
 27 26  1  0
 28 30  2  0
 28 29  1  0
M  END
$$$$
