KSW.pdb
     RDKit          3D

 30 31  0  0  1  0  0  0  0  0999 V2000
   14.7260  -19.4679    1.3540 N   0  0  0  0  0  0  0  0  0  0  0  0
   14.3468  -18.4649    2.2638 C   0  0  1  0  0  0  0  0  0  0  0  0
   12.9374  -18.5783    2.7142 C   0  0  0  0  0  0  0  0  0  0  0  0
   12.3353  -19.8596    3.0156 C   0  0  0  0  0  0  0  0  0  0  0  0
   10.9824  -20.1301    3.4398 C   0  0  0  0  0  0  0  0  0  0  0  0
   10.4666  -21.4361    3.8380 C   0  0  0  0  0  0  0  0  0  0  0  0
    9.0708  -21.3973    4.2866 N   0  0  0  0  0  0  0  0  0  0  0  0
   15.2957  -18.3353    3.4239 C   0  0  0  0  0  0  0  0  0  0  0  0
   16.1482  -19.2427    3.5999 O   0  0  0  0  0  0  0  0  0  0  0  0
   14.7492  -15.5915    6.4433 O   0  0  0  0  0  0  0  0  0  0  0  0
   16.0668  -15.7333    6.0142 C   0  0  0  0  0  0  0  0  0  0  0  0
   16.2853  -17.0582    5.3569 C   0  0  2  0  0  0  0  0  0  0  0  0
   15.2934  -17.2604    4.3313 N   0  0  0  0  0  0  0  0  0  0  0  0
   16.3825  -18.1762    6.3070 C   0  0  0  0  0  0  0  0  0  0  0  0
   15.4307  -18.9606    6.4611 O   0  0  0  0  0  0  0  0  0  0  0  0
   17.5682  -18.3627    7.0531 N   0  0  0  0  0  0  0  0  0  0  0  0
   17.8002  -19.5429    7.8848 C   0  0  1  0  0  0  0  0  0  0  0  0
   17.8183  -20.7224    6.9409 C   0  0  0  0  0  0  0  0  0  0  0  0
   17.9164  -22.0337    7.5914 C   0  0  0  0  0  0  0  0  0  0  0  0
   17.0141  -22.5407    8.5395 C   0  0  0  0  0  0  0  0  0  0  0  0
   17.3765  -23.7835    8.8932 N   0  0  0  0  0  0  0  0  0  0  0  0
   18.4861  -24.1187    8.2152 C   0  0  0  0  0  0  0  0  0  0  0  0
   19.2435  -25.2687    8.2332 C   0  0  0  0  0  0  0  0  0  0  0  0
   20.3728  -25.4107    7.4584 C   0  0  0  0  0  0  0  0  0  0  0  0
   20.7325  -24.3377    6.6420 C   0  0  0  0  0  0  0  0  0  0  0  0
   19.9595  -23.2055    6.6444 C   0  0  0  0  0  0  0  0  0  0  0  0
   18.8275  -23.0308    7.4026 C   0  0  0  0  0  0  0  0  0  0  0  0
   19.0218  -19.4649    8.6868 C   0  0  0  0  0  0  0  0  0  0  0  0
   19.0874  -20.1392    9.9166 O   0  0  0  0  0  0  0  0  0  0  0  0
   19.9881  -18.7900    8.2487 O   0  0  0  0  0  0  0  0  0  0  0  0
  2  1  1  1
  2  3  1  0
  2  8  1  0
  4  5  1  0
  4  3  1  0
  6  5  1  0
  7  6  1  0
  8  9  2  0
 10 11  1  0
 12 11  1  1
 12 14  1  0
 13 12  1  0
 13  8  1  0
 14 15  2  0
 16 17  1  0
 16 14  1  0
 17 28  1  0
 17 18  1  6
 19 27  1  0
 19 18  1  0
 20 19  2  0
 21 20  1  0
 21 22  1  0
 22 27  2  0
 23 22  1  0
 23 24  2  0
 24 25  1  0
 25 26  2  0
 27 26  1  0
 28 30  2  0
 28 29  1  0
M  END
$$$$
