KSW.pdb
     RDKit          3D

 30 31  0  0  1  0  0  0  0  0999 V2000
   23.8670  -20.0737  -19.7462 N   0  0  0  0  0  0  0  0  0  0  0  0
   23.8444  -19.2476  -18.6085 C   0  0  1  0  0  0  0  0  0  0  0  0
   22.4767  -18.9870  -18.0950 C   0  0  0  0  0  0  0  0  0  0  0  0
   21.5039  -18.2411  -18.8647 C   0  0  0  0  0  0  0  0  0  0  0  0
   21.6560  -16.9401  -19.4710 C   0  0  0  0  0  0  0  0  0  0  0  0
   20.6119  -16.2140  -20.1872 C   0  0  0  0  0  0  0  0  0  0  0  0
   19.7237  -15.4516  -19.3036 N   0  0  0  0  0  0  0  0  0  0  0  0
   24.7692  -19.7210  -17.5205 C   0  0  0  0  0  0  0  0  0  0  0  0
   24.5376  -20.8350  -16.9853 O   0  0  0  0  0  0  0  0  0  0  0  0
   27.9498  -17.3675  -15.9532 O   0  0  0  0  0  0  0  0  0  0  0  0
   28.0755  -18.7454  -16.1140 C   0  0  0  0  0  0  0  0  0  0  0  0
   26.7519  -19.4303  -15.9938 C   0  0  2  0  0  0  0  0  0  0  0  0
   25.8829  -18.9965  -17.0584 N   0  0  0  0  0  0  0  0  0  0  0  0
   26.1480  -19.3107  -14.6585 C   0  0  0  0  0  0  0  0  0  0  0  0
   25.0446  -18.7580  -14.5100 O   0  0  0  0  0  0  0  0  0  0  0  0
   26.8264  -19.8283  -13.5320 N   0  0  0  0  0  0  0  0  0  0  0  0
   26.2823  -19.7479  -12.1770 C   0  0  1  0  0  0  0  0  0  0  0  0
   25.0536  -20.6269  -12.1671 C   0  0  0  0  0  0  0  0  0  0  0  0
   24.3007  -20.6234  -10.9080 C   0  0  0  0  0  0  0  0  0  0  0  0
   24.8377  -20.8878   -9.6385 C   0  0  0  0  0  0  0  0  0  0  0  0
   23.8835  -20.7557   -8.7043 N   0  0  0  0  0  0  0  0  0  0  0  0
   22.7335  -20.4142   -9.3078 C   0  0  0  0  0  0  0  0  0  0  0  0
   21.4788  -20.1754   -8.7927 C   0  0  0  0  0  0  0  0  0  0  0  0
   20.4109  -19.8451   -9.5967 C   0  0  0  0  0  0  0  0  0  0  0  0
   20.6417  -19.7584  -10.9702 C   0  0  0  0  0  0  0  0  0  0  0  0
   21.9010  -20.0012  -11.4545 C   0  0  0  0  0  0  0  0  0  0  0  0
   22.9879  -20.3312  -10.6821 C   0  0  0  0  0  0  0  0  0  0  0  0
   27.2379  -20.1312  -11.1370 C   0  0  0  0  0  0  0  0  0  0  0  0
   27.1799  -19.5092   -9.8796 O   0  0  0  0  0  0  0  0  0  0  0  0
   28.0926  -21.0152  -11.4004 O   0  0  0  0  0  0  0  0  0  0  0  0
  2  1  1  6
  2  3  1  0
  2  8  1  0
  4  5  1  0
  4  3  1  0
  6  5  1  0
  7  6  1  0
  8  9  2  0
 10 11  1  0
 12 11  1  1
 12 14  1  0
 13 12  1  0
 13  8  1  0
 14 15  2  0
 16 17  1  0
 16 14  1  0
 17 28  1  0
 17 18  1  6
 19 27  1  0
 19 18  1  0
 20 19  2  0
 21 20  1  0
 21 22  1  0
 22 27  2  0
 23 22  1  0
 23 24  2  0
 24 25  1  0
 25 26  2  0
 27 26  1  0
 28 30  2  0
 28 29  1  0
M  END
$$$$
