KSW.pdb
     RDKit          3D

 30 31  0  0  1  0  0  0  0  0999 V2000
   29.4953  -21.6199  -18.7129 N   0  0  0  0  0  0  0  0  0  0  0  0
   28.4506  -22.2135  -17.9824 C   0  0  1  0  0  0  0  0  0  0  0  0
   28.3266  -23.6747  -18.2102 C   0  0  0  0  0  0  0  0  0  0  0  0
   27.5194  -24.2117  -19.2850 C   0  0  0  0  0  0  0  0  0  0  0  0
   27.3075  -23.6590  -20.6014 C   0  0  0  0  0  0  0  0  0  0  0  0
   26.3350  -24.1444  -21.5755 C   0  0  0  0  0  0  0  0  0  0  0  0
   26.4795  -25.5720  -21.8789 N   0  0  0  0  0  0  0  0  0  0  0  0
   28.4946  -21.8781  -16.5165 C   0  0  0  0  0  0  0  0  0  0  0  0
   29.1901  -22.6033  -15.7605 O   0  0  0  0  0  0  0  0  0  0  0  0
   27.1430  -18.2079  -14.9582 O   0  0  0  0  0  0  0  0  0  0  0  0
   28.1846  -18.9667  -14.4293 C   0  0  0  0  0  0  0  0  0  0  0  0
   27.9027  -20.4306  -14.5414 C   0  0  2  0  0  0  0  0  0  0  0  0
   27.8052  -20.8009  -15.9307 N   0  0  0  0  0  0  0  0  0  0  0  0
   26.7543  -20.8709  -13.7354 C   0  0  0  0  0  0  0  0  0  0  0  0
   25.6275  -20.9839  -14.2478 O   0  0  0  0  0  0  0  0  0  0  0  0
   26.9311  -21.1690  -12.3654 N   0  0  0  0  0  0  0  0  0  0  0  0
   25.8154  -21.4961  -11.4783 C   0  0  1  0  0  0  0  0  0  0  0  0
   26.4324  -21.8678  -10.1503 C   0  0  0  0  0  0  0  0  0  0  0  0
   26.5688  -20.7588   -9.1997 C   0  0  0  0  0  0  0  0  0  0  0  0
   25.6111  -19.7576   -8.9751 C   0  0  0  0  0  0  0  0  0  0  0  0
   26.0373  -18.9287   -8.0096 N   0  0  0  0  0  0  0  0  0  0  0  0
   27.2425  -19.3430   -7.5864 C   0  0  0  0  0  0  0  0  0  0  0  0
   28.0900  -18.8298   -6.6300 C   0  0  0  0  0  0  0  0  0  0  0  0
   29.3090  -19.4058   -6.3507 C   0  0  0  0  0  0  0  0  0  0  0  0
   29.6655  -20.5426   -7.0773 C   0  0  0  0  0  0  0  0  0  0  0  0
   28.8016  -21.0313   -8.0230 C   0  0  0  0  0  0  0  0  0  0  0  0
   27.5790  -20.4834   -8.3258 C   0  0  0  0  0  0  0  0  0  0  0  0
   24.8363  -20.4168  -11.3440 C   0  0  0  0  0  0  0  0  0  0  0  0
   23.5011  -20.7266  -11.0394 O   0  0  0  0  0  0  0  0  0  0  0  0
   25.2210  -19.2307  -11.5064 O   0  0  0  0  0  0  0  0  0  0  0  0
  2  1  1  6
  2  3  1  0
  2  8  1  0
  4  5  1  0
  4  3  1  0
  6  5  1  0
  7  6  1  0
  8  9  2  0
 10 11  1  0
 12 11  1  6
 12 14  1  0
 13 12  1  0
 13  8  1  0
 14 15  2  0
 16 17  1  0
 16 14  1  0
 17 28  1  0
 17 18  1  1
 19 27  1  0
 19 18  1  0
 20 19  2  0
 21 20  1  0
 21 22  1  0
 22 27  2  0
 23 22  1  0
 23 24  2  0
 24 25  1  0
 25 26  2  0
 27 26  1  0
 28 30  2  0
 28 29  1  0
M  END
$$$$
