KSW.pdb
     RDKit          3D

 30 31  0  0  1  0  0  0  0  0999 V2000
   25.3740  -17.7743  -16.2078 N   0  0  0  0  0  0  0  0  0  0  0  0
   26.6365  -17.7747  -15.5885 C   0  0  1  0  0  0  0  0  0  0  0  0
   27.4135  -16.5339  -15.8306 C   0  0  0  0  0  0  0  0  0  0  0  0
   27.9733  -16.2276  -17.1299 C   0  0  0  0  0  0  0  0  0  0  0  0
   28.3159  -17.1445  -18.1907 C   0  0  0  0  0  0  0  0  0  0  0  0
   28.9448  -16.7769  -19.4555 C   0  0  0  0  0  0  0  0  0  0  0  0
   29.2694  -17.9312  -20.3000 N   0  0  0  0  0  0  0  0  0  0  0  0
   26.5726  -18.1176  -14.1251 C   0  0  0  0  0  0  0  0  0  0  0  0
   27.4671  -17.6628  -13.3675 O   0  0  0  0  0  0  0  0  0  0  0  0
   23.8043  -20.9110  -12.4481 O   0  0  0  0  0  0  0  0  0  0  0  0
   24.1642  -19.7415  -11.7826 C   0  0  0  0  0  0  0  0  0  0  0  0
   25.5450  -19.3060  -12.1558 C   0  0  2  0  0  0  0  0  0  0  0  0
   25.5729  -18.9183  -13.5434 N   0  0  0  0  0  0  0  0  0  0  0  0
   26.5852  -20.2820  -11.7987 C   0  0  0  0  0  0  0  0  0  0  0  0
   26.9490  -21.1464  -12.6144 O   0  0  0  0  0  0  0  0  0  0  0  0
   27.1782  -20.2388  -10.5167 N   0  0  0  0  0  0  0  0  0  0  0  0
   28.2276  -21.1684  -10.1005 C   0  0  1  0  0  0  0  0  0  0  0  0
   28.9493  -20.4984   -8.9548 C   0  0  0  0  0  0  0  0  0  0  0  0
   28.1174  -20.2173   -7.7796 C   0  0  0  0  0  0  0  0  0  0  0  0
   26.7234  -20.0537   -7.7903 C   0  0  0  0  0  0  0  0  0  0  0  0
   26.2792  -19.8541   -6.5398 N   0  0  0  0  0  0  0  0  0  0  0  0
   27.3273  -19.8785   -5.7007 C   0  0  0  0  0  0  0  0  0  0  0  0
   27.3956  -19.7158   -4.3349 C   0  0  0  0  0  0  0  0  0  0  0  0
   28.5910  -19.7640   -3.6533 C   0  0  0  0  0  0  0  0  0  0  0  0
   29.7491  -19.9858   -4.3996 C   0  0  0  0  0  0  0  0  0  0  0  0
   29.6507  -20.1446   -5.7577 C   0  0  0  0  0  0  0  0  0  0  0  0
   28.4761  -20.1039   -6.4687 C   0  0  0  0  0  0  0  0  0  0  0  0
   27.7261  -22.4928   -9.7318 C   0  0  0  0  0  0  0  0  0  0  0  0
   28.6356  -23.5311   -9.4744 O   0  0  0  0  0  0  0  0  0  0  0  0
   26.4831  -22.6664   -9.6549 O   0  0  0  0  0  0  0  0  0  0  0  0
  2  1  1  1
  2  3  1  0
  2  8  1  0
  4  5  1  0
  4  3  1  0
  6  5  1  0
  7  6  1  0
  8  9  2  0
 10 11  1  0
 12 11  1  6
 12 14  1  0
 13 12  1  0
 13  8  1  0
 14 15  2  0
 16 17  1  0
 16 14  1  0
 17 28  1  0
 17 18  1  1
 19 27  1  0
 19 18  1  0
 20 19  2  0
 21 20  1  0
 21 22  1  0
 22 27  2  0
 23 22  1  0
 23 24  2  0
 24 25  1  0
 25 26  2  0
 27 26  1  0
 28 30  2  0
 28 29  1  0
M  END
$$$$
