KSW.pdb
     RDKit          3D

 30 31  0  0  1  0  0  0  0  0999 V2000
   19.5586  -17.6462  -15.1599 N   0  0  0  0  0  0  0  0  0  0  0  0
   20.7035  -17.6072  -15.9754 C   0  0  1  0  0  0  0  0  0  0  0  0
   21.2445  -16.2390  -16.1687 C   0  0  0  0  0  0  0  0  0  0  0  0
   20.8152  -15.3987  -17.2664 C   0  0  0  0  0  0  0  0  0  0  0  0
   19.7866  -15.6659  -18.2431 C   0  0  0  0  0  0  0  0  0  0  0  0
   19.4009  -14.7722  -19.3306 C   0  0  0  0  0  0  0  0  0  0  0  0
   18.2240  -15.2350  -20.0733 N   0  0  0  0  0  0  0  0  0  0  0  0
   21.7700  -18.5733  -15.5368 C   0  0  0  0  0  0  0  0  0  0  0  0
   22.3850  -18.3353  -14.4662 O   0  0  0  0  0  0  0  0  0  0  0  0
   23.3216  -21.9520  -17.8275 O   0  0  0  0  0  0  0  0  0  0  0  0
   22.9159  -21.9866  -16.4954 C   0  0  0  0  0  0  0  0  0  0  0  0
   23.1380  -20.6691  -15.8245 C   0  0  2  0  0  0  0  0  0  0  0  0
   22.1283  -19.7325  -16.2486 N   0  0  0  0  0  0  0  0  0  0  0  0
   24.5093  -20.1592  -15.9712 C   0  0  0  0  0  0  0  0  0  0  0  0
   24.7845  -19.3277  -16.8533 O   0  0  0  0  0  0  0  0  0  0  0  0
   25.5255  -20.6172  -15.1024 N   0  0  0  0  0  0  0  0  0  0  0  0
   26.9196  -20.1927  -15.2251 C   0  0  1  0  0  0  0  0  0  0  0  0
   27.2018  -19.3306  -14.0170 C   0  0  0  0  0  0  0  0  0  0  0  0
   27.0874  -20.0182  -12.7262 C   0  0  0  0  0  0  0  0  0  0  0  0
   28.1283  -20.6919  -12.0684 C   0  0  0  0  0  0  0  0  0  0  0  0
   27.6913  -21.1660  -10.8916 N   0  0  0  0  0  0  0  0  0  0  0  0
   26.3989  -20.8322  -10.7452 C   0  0  0  0  0  0  0  0  0  0  0  0
   25.5082  -21.0911   -9.7273 C   0  0  0  0  0  0  0  0  0  0  0  0
   24.2000  -20.6645   -9.7764 C   0  0  0  0  0  0  0  0  0  0  0  0
   23.7974  -19.9512  -10.9062 C   0  0  0  0  0  0  0  0  0  0  0  0
   24.7059  -19.7081  -11.9037 C   0  0  0  0  0  0  0  0  0  0  0  0
   26.0170  -20.1170  -11.8868 C   0  0  0  0  0  0  0  0  0  0  0  0
   27.8642  -21.3048  -15.3366 C   0  0  0  0  0  0  0  0  0  0  0  0
   29.1715  -21.0610  -15.7871 O   0  0  0  0  0  0  0  0  0  0  0  0
   27.4757  -22.4590  -15.0231 O   0  0  0  0  0  0  0  0  0  0  0  0
  2  1  1  1
  2  3  1  0
  2  8  1  0
  4  5  1  0
  4  3  1  0
  6  5  1  0
  7  6  1  0
  8  9  2  0
 10 11  1  0
 12 11  1  6
 12 14  1  0
 13 12  1  0
 13  8  1  0
 14 15  2  0
 16 17  1  0
 16 14  1  0
 17 28  1  0
 17 18  1  1
 19 27  1  0
 19 18  1  0
 20 19  2  0
 21 20  1  0
 21 22  1  0
 22 27  2  0
 23 22  1  0
 23 24  2  0
 24 25  1  0
 25 26  2  0
 27 26  1  0
 28 30  2  0
 28 29  1  0
M  END
$$$$
