GHQ.pdb
     RDKit          3D

 24 24  0  0  1  0  0  0  0  0999 V2000
   26.1123  -24.8302  -16.9060 N   0  0  0  0  0  0  0  0  0  0  0  0
   24.8967  -24.1244  -17.1862 C   0  0  0  0  0  0  0  0  0  0  0  0
   24.5397  -23.3034  -16.0021 C   0  0  0  0  0  0  0  0  0  0  0  0
   24.2288  -23.8540  -14.9289 O   0  0  0  0  0  0  0  0  0  0  0  0
   24.5403  -21.8702  -16.0515 N   0  0  0  0  0  0  0  0  0  0  0  0
   24.1637  -21.0823  -14.9087 C   0  0  1  0  0  0  0  0  0  0  0  0
   24.8813  -19.7513  -14.8693 C   0  0  0  0  0  0  0  0  0  0  0  0
   26.3200  -19.8630  -14.6698 C   0  0  0  0  0  0  0  0  0  0  0  0
   27.0306  -21.0328  -14.5505 C   0  0  0  0  0  0  0  0  0  0  0  0
   28.3246  -20.7048  -14.3791 N   0  0  0  0  0  0  0  0  0  0  0  0
   28.4482  -19.3692  -14.3872 C   0  0  0  0  0  0  0  0  0  0  0  0
   27.1958  -18.8612  -14.5685 N   0  0  0  0  0  0  0  0  0  0  0  0
   22.6924  -20.9113  -14.8169 C   0  0  0  0  0  0  0  0  0  0  0  0
   22.0562  -20.5772  -15.8363 O   0  0  0  0  0  0  0  0  0  0  0  0
   18.8903  -23.1485  -10.3093 N   0  0  0  0  0  0  0  0  0  0  0  0
   17.9478  -22.5182  -11.1329 C   0  0  0  0  0  0  0  0  0  0  0  0
   16.7045  -22.5523  -10.9424 O   0  0  0  0  0  0  0  0  0  0  0  0
   18.4687  -21.7535  -12.3198 C   0  0  0  0  0  0  0  0  0  0  0  0
   19.9672  -21.7523  -12.3384 C   0  0  0  0  0  0  0  0  0  0  0  0
   20.5000  -21.0975  -13.5414 C   0  0  2  0  0  0  0  0  0  0  0  0
   21.9485  -21.1047  -13.6307 N   0  0  0  0  0  0  0  0  0  0  0  0
   20.0858  -19.6813  -13.5745 C   0  0  0  0  0  0  0  0  0  0  0  0
   20.8965  -18.7419  -12.8969 O   0  0  0  0  0  0  0  0  0  0  0  0
   19.0961  -19.1920  -14.1313 O   0  0  0  0  0  0  0  0  0  0  0  0
  1  2  1  0
  3  2  1  0
  3  5  1  0
  4  3  2  0
  6  5  1  0
  6  7  1  6
  8 12  1  0
  8  7  1  0
  9  8  2  0
 10  9  1  0
 10 11  1  0
 11 12  2  0
 13  6  1  0
 13 21  1  0
 14 13  2  0
 16 18  1  0
 16 15  1  0
 17 16  2  0
 19 18  1  0
 20 21  1  0
 20 19  1  1
 22 20  1  0
 23 22  1  0
 24 22  2  0
M  END
$$$$
