GHQ.pdb
     RDKit          3D

 24 24  0  0  1  0  0  0  0  0999 V2000
   15.4720  -21.2799   -0.8874 N   0  0  0  0  0  0  0  0  0  0  0  0
   14.8417  -20.4140    0.0652 C   0  0  0  0  0  0  0  0  0  0  0  0
   15.7486  -20.2461    1.2283 C   0  0  0  0  0  0  0  0  0  0  0  0
   16.8202  -20.8788    1.2834 O   0  0  0  0  0  0  0  0  0  0  0  0
   15.4280  -19.3635    2.3121 N   0  0  0  0  0  0  0  0  0  0  0  0
   16.3148  -19.2024    3.4329 C   0  0  1  0  0  0  0  0  0  0  0  0
   16.3716  -17.7705    3.9169 C   0  0  0  0  0  0  0  0  0  0  0  0
   17.1279  -16.8828    3.0441 C   0  0  0  0  0  0  0  0  0  0  0  0
   16.6163  -16.1408    2.0071 C   0  0  0  0  0  0  0  0  0  0  0  0
   17.6368  -15.4590    1.4549 N   0  0  0  0  0  0  0  0  0  0  0  0
   18.7702  -15.7490    2.1110 C   0  0  0  0  0  0  0  0  0  0  0  0
   18.4380  -16.6336    3.0942 N   0  0  0  0  0  0  0  0  0  0  0  0
   15.9849  -20.1382    4.5365 C   0  0  0  0  0  0  0  0  0  0  0  0
   14.7883  -20.3279    4.8332 O   0  0  0  0  0  0  0  0  0  0  0  0
   17.7571  -25.6774    5.2781 N   0  0  0  0  0  0  0  0  0  0  0  0
   16.3760  -25.4400    5.2870 C   0  0  0  0  0  0  0  0  0  0  0  0
   15.5064  -26.3035    5.0018 O   0  0  0  0  0  0  0  0  0  0  0  0
   15.9147  -24.0580    5.6641 C   0  0  0  0  0  0  0  0  0  0  0  0
   17.0801  -23.1826    6.0123 C   0  0  0  0  0  0  0  0  0  0  0  0
   16.6597  -21.8107    6.3298 C   0  0  2  0  0  0  0  0  0  0  0  0
   16.9521  -20.8426    5.2889 N   0  0  0  0  0  0  0  0  0  0  0  0
   17.3478  -21.3373    7.5466 C   0  0  0  0  0  0  0  0  0  0  0  0
   17.1200  -22.0443    8.7495 O   0  0  0  0  0  0  0  0  0  0  0  0
   18.1191  -20.3772    7.6584 O   0  0  0  0  0  0  0  0  0  0  0  0
  1  2  1  0
  3  2  1  0
  3  5  1  0
  4  3  2  0
  6  5  1  0
  6  7  1  1
  8 12  1  0
  8  7  1  0
  9  8  2  0
 10  9  1  0
 10 11  1  0
 11 12  2  0
 13  6  1  0
 13 21  1  0
 14 13  2  0
 16 18  1  0
 16 15  1  0
 17 16  2  0
 19 18  1  0
 20 21  1  0
 20 19  1  6
 22 20  1  0
 23 22  1  0
 24 22  2  0
M  END
$$$$
