GHQ.pdb
     RDKit          3D

 24 24  0  0  1  0  0  0  0  0999 V2000
   18.4736  -11.0257  -20.5406 N   0  0  0  0  0  0  0  0  0  0  0  0
   19.2926   -9.8794  -20.2762 C   0  0  0  0  0  0  0  0  0  0  0  0
   19.3230   -9.6445  -18.8108 C   0  0  0  0  0  0  0  0  0  0  0  0
   18.3064   -9.2309  -18.2216 O   0  0  0  0  0  0  0  0  0  0  0  0
   20.5051   -9.8817  -18.0344 N   0  0  0  0  0  0  0  0  0  0  0  0
   20.5297   -9.6403  -16.6168 C   0  0  1  0  0  0  0  0  0  0  0  0
   21.0583  -10.8277  -15.8430 C   0  0  0  0  0  0  0  0  0  0  0  0
   20.1730  -11.9844  -15.8609 C   0  0  0  0  0  0  0  0  0  0  0  0
   18.9005  -12.0199  -16.3779 C   0  0  0  0  0  0  0  0  0  0  0  0
   18.4253  -13.2662  -16.1988 N   0  0  0  0  0  0  0  0  0  0  0  0
   19.3571  -14.0123  -15.5871 C   0  0  0  0  0  0  0  0  0  0  0  0
   20.4356  -13.2029  -15.3842 N   0  0  0  0  0  0  0  0  0  0  0  0
   21.2691   -8.3982  -16.2812 C   0  0  0  0  0  0  0  0  0  0  0  0
   22.3934   -8.2067  -16.7862 O   0  0  0  0  0  0  0  0  0  0  0  0
   18.9220   -2.8060  -15.6726 N   0  0  0  0  0  0  0  0  0  0  0  0
   20.2122   -2.5116  -15.2115 C   0  0  0  0  0  0  0  0  0  0  0  0
   20.6127   -1.3562  -14.9154 O   0  0  0  0  0  0  0  0  0  0  0  0
   21.1727   -3.6609  -15.0650 C   0  0  0  0  0  0  0  0  0  0  0  0
   20.5051   -4.9606  -15.3979 C   0  0  0  0  0  0  0  0  0  0  0  0
   21.3999   -6.1068  -15.1852 C   0  0  2  0  0  0  0  0  0  0  0  0
   20.7772   -7.3979  -15.4120 N   0  0  0  0  0  0  0  0  0  0  0  0
   21.8897   -6.1174  -13.7930 C   0  0  0  0  0  0  0  0  0  0  0  0
   22.8546   -5.1511  -13.4268 O   0  0  0  0  0  0  0  0  0  0  0  0
   21.5601   -6.8803  -12.8774 O   0  0  0  0  0  0  0  0  0  0  0  0
  1  2  1  0
  3  2  1  0
  3  5  1  0
  4  3  2  0
  6  5  1  0
  6  7  1  1
  8 12  1  0
  8  7  1  0
  9  8  2  0
 10  9  1  0
 10 11  1  0
 11 12  2  0
 13  6  1  0
 13 21  1  0
 14 13  2  0
 16 18  1  0
 16 15  1  0
 17 16  2  0
 19 18  1  0
 20 21  1  0
 20 19  1  1
 22 20  1  0
 23 22  1  0
 24 22  2  0
M  END
$$$$
