GHQ.pdb
     RDKit          3D

 24 24  0  0  1  0  0  0  0  0999 V2000
   19.4197  -12.9548  -19.5615 N   0  0  0  0  0  0  0  0  0  0  0  0
   18.5971  -11.9401  -20.1515 C   0  0  0  0  0  0  0  0  0  0  0  0
   17.8354  -11.2596  -19.0744 C   0  0  0  0  0  0  0  0  0  0  0  0
   16.6708  -10.8690  -19.2815 O   0  0  0  0  0  0  0  0  0  0  0  0
   18.4045  -11.0316  -17.7780 N   0  0  0  0  0  0  0  0  0  0  0  0
   17.6473  -10.4041  -16.7286 C   0  0  1  0  0  0  0  0  0  0  0  0
   17.8206  -11.1053  -15.3995 C   0  0  0  0  0  0  0  0  0  0  0  0
   17.2853  -12.4598  -15.3735 C   0  0  0  0  0  0  0  0  0  0  0  0
   17.9882  -13.6114  -15.6333 C   0  0  0  0  0  0  0  0  0  0  0  0
   17.1349  -14.6442  -15.5051 N   0  0  0  0  0  0  0  0  0  0  0  0
   15.9215  -14.1783  -15.1738 C   0  0  0  0  0  0  0  0  0  0  0  0
   16.0310  -12.8213  -15.0960 N   0  0  0  0  0  0  0  0  0  0  0  0
   17.9467   -8.9544  -16.6231 C   0  0  0  0  0  0  0  0  0  0  0  0
   19.1364   -8.5795  -16.6222 O   0  0  0  0  0  0  0  0  0  0  0  0
   15.7325   -2.0861  -18.0719 N   0  0  0  0  0  0  0  0  0  0  0  0
   15.6576   -3.4838  -18.1423 C   0  0  0  0  0  0  0  0  0  0  0  0
   14.8398   -4.1145  -18.8610 O   0  0  0  0  0  0  0  0  0  0  0  0
   16.6235   -4.2711  -17.2985 C   0  0  0  0  0  0  0  0  0  0  0  0
   16.3052   -5.7347  -17.3472 C   0  0  0  0  0  0  0  0  0  0  0  0
   17.2142   -6.5219  -16.5023 C   0  0  2  0  0  0  0  0  0  0  0  0
   16.9573   -7.9501  -16.5216 N   0  0  0  0  0  0  0  0  0  0  0  0
   17.0968   -6.0947  -15.0945 C   0  0  0  0  0  0  0  0  0  0  0  0
   16.5016   -6.9943  -14.1805 O   0  0  0  0  0  0  0  0  0  0  0  0
   17.4595   -5.0243  -14.5926 O   0  0  0  0  0  0  0  0  0  0  0  0
  1  2  1  0
  3  2  1  0
  3  5  1  0
  4  3  2  0
  6  5  1  0
  6  7  1  1
  8 12  1  0
  8  7  1  0
  9  8  2  0
 10  9  1  0
 10 11  1  0
 11 12  2  0
 13  6  1  0
 13 21  1  0
 14 13  2  0
 16 18  1  0
 16 15  1  0
 17 16  2  0
 19 18  1  0
 20 21  1  0
 20 19  1  6
 22 20  1  0
 23 22  1  0
 24 22  2  0
M  END
$$$$
