GHQ.pdb
     RDKit          3D

 24 24  0  0  1  0  0  0  0  0999 V2000
   26.6880  -13.2426  -19.3241 N   0  0  0  0  0  0  0  0  0  0  0  0
   26.1777  -13.4378  -17.9990 C   0  0  0  0  0  0  0  0  0  0  0  0
   25.8292  -14.8708  -17.8299 C   0  0  0  0  0  0  0  0  0  0  0  0
   25.6232  -15.5872  -18.8278 O   0  0  0  0  0  0  0  0  0  0  0  0
   25.7193  -15.4712  -16.5322 N   0  0  0  0  0  0  0  0  0  0  0  0
   25.3343  -16.8479  -16.3752 C   0  0  1  0  0  0  0  0  0  0  0  0
   26.3735  -17.6511  -15.6249 C   0  0  0  0  0  0  0  0  0  0  0  0
   27.5277  -18.0222  -16.4326 C   0  0  0  0  0  0  0  0  0  0  0  0
   27.7375  -19.2418  -17.0294 C   0  0  0  0  0  0  0  0  0  0  0  0
   28.9140  -19.1773  -17.6797 N   0  0  0  0  0  0  0  0  0  0  0  0
   29.4480  -17.9586  -17.5102 C   0  0  0  0  0  0  0  0  0  0  0  0
   28.5761  -17.2536  -16.7342 N   0  0  0  0  0  0  0  0  0  0  0  0
   23.9924  -16.9785  -15.7551 C   0  0  0  0  0  0  0  0  0  0  0  0
   23.7372  -16.3308  -14.7201 O   0  0  0  0  0  0  0  0  0  0  0  0
   18.2850  -14.3073  -16.5121 N   0  0  0  0  0  0  0  0  0  0  0  0
   18.9385  -15.4713  -16.9388 C   0  0  0  0  0  0  0  0  0  0  0  0
   18.7143  -16.0493  -18.0337 O   0  0  0  0  0  0  0  0  0  0  0  0
   19.9742  -16.0592  -16.0187 C   0  0  0  0  0  0  0  0  0  0  0  0
   20.5941  -17.2818  -16.6242 C   0  0  0  0  0  0  0  0  0  0  0  0
   21.6118  -17.8735  -15.7444 C   0  0  2  0  0  0  0  0  0  0  0  0
   22.9639  -17.8023  -16.2666 N   0  0  0  0  0  0  0  0  0  0  0  0
   21.3231  -19.3040  -15.5242 C   0  0  0  0  0  0  0  0  0  0  0  0
   20.9418  -19.7065  -14.2236 O   0  0  0  0  0  0  0  0  0  0  0  0
   21.3717  -20.2245  -16.3484 O   0  0  0  0  0  0  0  0  0  0  0  0
  1  2  1  0
  3  2  1  0
  3  5  1  0
  4  3  2  0
  6  5  1  0
  6  7  1  1
  8 12  1  0
  8  7  1  0
  9  8  2  0
 10  9  1  0
 10 11  1  0
 11 12  2  0
 13  6  1  0
 13 21  1  0
 14 13  2  0
 16 18  1  0
 16 15  1  0
 17 16  2  0
 19 18  1  0
 20 21  1  0
 20 19  1  6
 22 20  1  0
 23 22  1  0
 24 22  2  0
M  END
$$$$
