GHQ.pdb
     RDKit          3D

 24 24  0  0  1  0  0  0  0  0999 V2000
   19.0855  -11.8557  -18.2929 N   0  0  0  0  0  0  0  0  0  0  0  0
   20.4614  -12.0811  -17.9604 C   0  0  0  0  0  0  0  0  0  0  0  0
   20.7558  -11.4069  -16.6711 C   0  0  0  0  0  0  0  0  0  0  0  0
   20.3099  -11.8721  -15.6051 O   0  0  0  0  0  0  0  0  0  0  0  0
   21.5511  -10.2153  -16.6087 N   0  0  0  0  0  0  0  0  0  0  0  0
   21.7966   -9.5445  -15.3604 C   0  0  1  0  0  0  0  0  0  0  0  0
   23.1854   -8.9490  -15.2939 C   0  0  0  0  0  0  0  0  0  0  0  0
   24.2497   -9.9414  -15.2257 C   0  0  0  0  0  0  0  0  0  0  0  0
   24.0829  -11.3050  -15.2116 C   0  0  0  0  0  0  0  0  0  0  0  0
   25.3062  -11.8618  -15.1429 N   0  0  0  0  0  0  0  0  0  0  0  0
   26.2333  -10.8929  -15.1135 C   0  0  0  0  0  0  0  0  0  0  0  0
   25.5621   -9.7071  -15.1656 N   0  0  0  0  0  0  0  0  0  0  0  0
   20.7541   -8.5306  -15.0643 C   0  0  0  0  0  0  0  0  0  0  0  0
   20.3105   -7.8278  -15.9944 O   0  0  0  0  0  0  0  0  0  0  0  0
   17.0940   -8.0926   -9.9385 N   0  0  0  0  0  0  0  0  0  0  0  0
   16.7781   -6.8792  -10.5645 C   0  0  0  0  0  0  0  0  0  0  0  0
   15.9731   -6.0307  -10.1005 O   0  0  0  0  0  0  0  0  0  0  0  0
   17.4520   -6.5826  -11.8770 C   0  0  0  0  0  0  0  0  0  0  0  0
   18.4077   -7.6764  -12.2457 C   0  0  0  0  0  0  0  0  0  0  0  0
   19.1645   -7.3556  -13.4640 C   0  0  2  0  0  0  0  0  0  0  0  0
   20.2191   -8.3025  -13.7760 N   0  0  0  0  0  0  0  0  0  0  0  0
   19.8132   -6.0371  -13.3265 C   0  0  0  0  0  0  0  0  0  0  0  0
   19.0991   -4.9018  -13.7735 O   0  0  0  0  0  0  0  0  0  0  0  0
   20.9301   -5.7850  -12.8595 O   0  0  0  0  0  0  0  0  0  0  0  0
  1  2  1  0
  3  2  1  0
  3  5  1  0
  4  3  2  0
  6  5  1  0
  6  7  1  6
  8 12  1  0
  8  7  1  0
  9  8  2  0
 10  9  1  0
 10 11  1  0
 11 12  2  0
 13  6  1  0
 13 21  1  0
 14 13  2  0
 16 18  1  0
 16 15  1  0
 17 16  2  0
 19 18  1  0
 20 21  1  0
 20 19  1  1
 22 20  1  0
 23 22  1  0
 24 22  2  0
M  END
$$$$
