GHQ.pdb
     RDKit          3D

 24 24  0  0  1  0  0  0  0  0999 V2000
   18.5366  -14.1219  -19.5515 N   0  0  0  0  0  0  0  0  0  0  0  0
   17.1286  -13.8612  -19.6155 C   0  0  0  0  0  0  0  0  0  0  0  0
   16.7549  -12.9849  -18.4771 C   0  0  0  0  0  0  0  0  0  0  0  0
   15.5873  -12.5652  -18.3668 O   0  0  0  0  0  0  0  0  0  0  0  0
   17.7100  -12.5970  -17.4802 N   0  0  0  0  0  0  0  0  0  0  0  0
   17.3288  -11.7873  -16.3543 C   0  0  1  0  0  0  0  0  0  0  0  0
   17.6511  -12.4533  -15.0349 C   0  0  0  0  0  0  0  0  0  0  0  0
   16.7751  -13.5707  -14.7092 C   0  0  0  0  0  0  0  0  0  0  0  0
   15.7240  -14.0217  -15.4703 C   0  0  0  0  0  0  0  0  0  0  0  0
   15.1738  -15.0655  -14.8230 N   0  0  0  0  0  0  0  0  0  0  0  0
   15.8450  -15.2834  -13.6823 C   0  0  0  0  0  0  0  0  0  0  0  0
   16.8355  -14.3478  -13.6260 N   0  0  0  0  0  0  0  0  0  0  0  0
   17.9099  -10.4240  -16.4329 C   0  0  0  0  0  0  0  0  0  0  0  0
   19.1184  -10.2954  -16.7135 O   0  0  0  0  0  0  0  0  0  0  0  0
   14.8745   -4.8580  -16.5591 N   0  0  0  0  0  0  0  0  0  0  0  0
   16.2001   -4.4398  -16.7377 C   0  0  0  0  0  0  0  0  0  0  0  0
   16.5460   -3.2470  -16.9399 O   0  0  0  0  0  0  0  0  0  0  0  0
   17.2713   -5.4954  -16.6819 C   0  0  0  0  0  0  0  0  0  0  0  0
   16.6705   -6.8571  -16.5070 C   0  0  0  0  0  0  0  0  0  0  0  0
   17.6993   -7.8915  -16.3300 C   0  0  2  0  0  0  0  0  0  0  0  0
   17.1736   -9.2387  -16.2075 N   0  0  0  0  0  0  0  0  0  0  0  0
   18.4747   -7.6318  -15.1014 C   0  0  0  0  0  0  0  0  0  0  0  0
   19.7058   -6.9489  -15.2314 O   0  0  0  0  0  0  0  0  0  0  0  0
   18.1838   -7.9404  -13.9398 O   0  0  0  0  0  0  0  0  0  0  0  0
  1  2  1  0
  3  2  1  0
  3  5  1  0
  4  3  2  0
  6  5  1  0
  6  7  1  1
  8 12  1  0
  8  7  1  0
  9  8  2  0
 10  9  1  0
 10 11  1  0
 11 12  2  0
 13  6  1  0
 13 21  1  0
 14 13  2  0
 16 18  1  0
 16 15  1  0
 17 16  2  0
 19 18  1  0
 20 21  1  0
 20 19  1  1
 22 20  1  0
 23 22  1  0
 24 22  2  0
M  END
$$$$
