GHQ.pdb
     RDKit          3D

 24 24  0  0  1  0  0  0  0  0999 V2000
   13.6039  -10.6389  -10.0193 N   0  0  0  0  0  0  0  0  0  0  0  0
   14.9739  -10.3010  -10.2707 C   0  0  0  0  0  0  0  0  0  0  0  0
   15.0401   -8.8888  -10.7233 C   0  0  0  0  0  0  0  0  0  0  0  0
   14.0436   -8.3497  -11.2409 O   0  0  0  0  0  0  0  0  0  0  0  0
   16.2348   -8.1081  -10.5827 N   0  0  0  0  0  0  0  0  0  0  0  0
   16.2518   -6.7042  -10.8945 C   0  0  1  0  0  0  0  0  0  0  0  0
   16.7723   -5.8688   -9.7460 C   0  0  0  0  0  0  0  0  0  0  0  0
   15.8783   -5.8246   -8.5967 C   0  0  0  0  0  0  0  0  0  0  0  0
   14.6431   -5.2244   -8.5567 C   0  0  0  0  0  0  0  0  0  0  0  0
   14.1441   -5.4069   -7.3202 N   0  0  0  0  0  0  0  0  0  0  0  0
   15.0250   -6.1012   -6.5847 C   0  0  0  0  0  0  0  0  0  0  0  0
   16.0958   -6.3529   -7.3906 N   0  0  0  0  0  0  0  0  0  0  0  0
   16.9928   -6.4267  -12.1500 C   0  0  0  0  0  0  0  0  0  0  0  0
   18.1190   -6.9370  -12.3147 O   0  0  0  0  0  0  0  0  0  0  0  0
   15.3763   -9.0659  -15.8572 N   0  0  0  0  0  0  0  0  0  0  0  0
   15.2111   -7.7025  -16.1363 C   0  0  0  0  0  0  0  0  0  0  0  0
   14.0953   -7.1358  -16.2669 O   0  0  0  0  0  0  0  0  0  0  0  0
   16.4571   -6.8721  -16.2876 C   0  0  0  0  0  0  0  0  0  0  0  0
   16.2895   -5.5340  -15.6342 C   0  0  0  0  0  0  0  0  0  0  0  0
   17.1639   -5.3825  -14.4628 C   0  0  2  0  0  0  0  0  0  0  0  0
   16.5006   -5.6081  -13.1919 N   0  0  0  0  0  0  0  0  0  0  0  0
   17.7117   -4.0130  -14.4115 C   0  0  0  0  0  0  0  0  0  0  0  0
   18.9943   -3.7953  -14.9649 O   0  0  0  0  0  0  0  0  0  0  0  0
   17.1840   -3.0010  -13.9354 O   0  0  0  0  0  0  0  0  0  0  0  0
  1  2  1  0
  3  2  1  0
  3  5  1  0
  4  3  2  0
  6  5  1  0
  6  7  1  1
  8 12  1  0
  8  7  1  0
  9  8  2  0
 10  9  1  0
 10 11  1  0
 11 12  2  0
 13  6  1  0
 13 21  1  0
 14 13  2  0
 16 18  1  0
 16 15  1  0
 17 16  2  0
 19 18  1  0
 20 21  1  0
 20 19  1  6
 22 20  1  0
 23 22  1  0
 24 22  2  0
M  END
$$$$
