NDT.pdb
     RDKit          3D

 24 23  0  0  1  0  0  0  0  0999 V2000
    7.1963  -16.4583   12.9429 N   0  0  0  0  0  0  0  0  0  0  0  0
    8.4267  -17.0595   13.3476 C   0  0  0  0  0  0  0  0  0  0  0  0
    9.3925  -17.2100   12.5670 O   0  0  0  0  0  0  0  0  0  0  0  0
    8.5551  -17.5187   14.7477 C   0  0  0  0  0  0  0  0  0  0  0  0
    9.2573  -16.4461   15.5789 C   0  0  2  0  0  0  0  0  0  0  0  0
   10.5905  -16.3081   15.0593 N   0  0  0  0  0  0  0  0  0  0  0  0
    9.2294  -16.9004   16.9909 C   0  0  0  0  0  0  0  0  0  0  0  0
    8.1204  -17.1120   17.5463 O   0  0  0  0  0  0  0  0  0  0  0  0
   10.4203  -17.1127   17.7645 N   0  0  0  0  0  0  0  0  0  0  0  0
   10.3403  -17.4464   19.1768 C   0  0  1  0  0  0  0  0  0  0  0  0
   11.5460  -18.2125   19.6399 C   0  0  0  0  0  0  0  0  0  0  0  0
   11.4902  -18.5866   21.0569 C   0  0  0  0  0  0  0  0  0  0  0  0
   10.4475  -18.8252   21.7092 O   0  0  0  0  0  0  0  0  0  0  0  0
   10.1709  -16.2277   20.0105 C   0  0  0  0  0  0  0  0  0  0  0  0
   11.1851  -15.5496   20.2761 O   0  0  0  0  0  0  0  0  0  0  0  0
   12.7000  -18.6874   21.7440 O   0  0  0  0  0  0  0  0  0  0  0  0
    7.9158  -13.1031   19.7558 C   0  0  0  0  0  0  0  0  0  0  0  0
    7.5408  -13.8491   21.0253 C   0  0  1  0  0  0  0  0  0  0  0  0
    6.4412  -14.6413   20.7326 O   0  0  0  0  0  0  0  0  0  0  0  0
    8.6877  -14.7351   21.3968 C   0  0  2  0  0  0  0  0  0  0  0  0
    8.9139  -15.8245   20.5020 N   0  0  0  0  0  0  0  0  0  0  0  0
    8.6050  -15.2060   22.8070 C   0  0  0  0  0  0  0  0  0  0  0  0
    8.5244  -14.3668   23.8841 O   0  0  0  0  0  0  0  0  0  0  0  0
    8.6104  -16.4447   23.0030 O   0  0  0  0  0  0  0  0  0  0  0  0
  1  2  1  0
  2  3  2  0
  2  4  1  0
  4  5  1  0
  5  7  1  0
  5  6  1  6
  7  9  1  0
  7  8  2  0
  9 10  1  0
 10 14  1  0
 10 11  1  1
 12 11  1  0
 13 12  2  0
 14 21  1  0
 14 15  2  0
 16 12  1  0
 18 17  1  6
 18 20  1  0
 19 18  1  0
 20 22  1  0
 20 21  1  6
 22 23  1  0
 24 22  2  0
M  END
$$$$
