NDT.pdb
     RDKit          3D

 24 23  0  0  1  0  0  0  0  0999 V2000
    7.8631  -14.6375   16.0014 N   0  0  0  0  0  0  0  0  0  0  0  0
    8.3021  -14.2045   17.2894 C   0  0  0  0  0  0  0  0  0  0  0  0
    9.4738  -14.3718   17.6939 O   0  0  0  0  0  0  0  0  0  0  0  0
    7.3252  -13.5317   18.1729 C   0  0  0  0  0  0  0  0  0  0  0  0
    8.0086  -13.1188   19.4757 C   0  0  2  0  0  0  0  0  0  0  0  0
    9.2905  -12.5681   19.1295 N   0  0  0  0  0  0  0  0  0  0  0  0
    8.1086  -14.3344   20.3203 C   0  0  0  0  0  0  0  0  0  0  0  0
    7.0637  -14.9795   20.5946 O   0  0  0  0  0  0  0  0  0  0  0  0
    9.3543  -14.8166   20.8471 N   0  0  0  0  0  0  0  0  0  0  0  0
    9.3830  -15.9003   21.8150 C   0  0  1  0  0  0  0  0  0  0  0  0
   10.5677  -16.8006   21.6121 C   0  0  0  0  0  0  0  0  0  0  0  0
   10.6605  -17.8750   22.6060 C   0  0  0  0  0  0  0  0  0  0  0  0
    9.7307  -18.6469   22.9367 O   0  0  0  0  0  0  0  0  0  0  0  0
    9.3821  -15.3803   23.2074 C   0  0  0  0  0  0  0  0  0  0  0  0
   10.3023  -14.6088   23.5490 O   0  0  0  0  0  0  0  0  0  0  0  0
   11.8882  -18.0590   23.2422 O   0  0  0  0  0  0  0  0  0  0  0  0
    7.1010  -13.2432   25.0575 C   0  0  0  0  0  0  0  0  0  0  0  0
    7.1075  -14.5296   25.8660 C   0  0  1  0  0  0  0  0  0  0  0  0
    5.9916  -15.2620   25.4910 O   0  0  0  0  0  0  0  0  0  0  0  0
    8.3358  -15.3007   25.4983 C   0  0  2  0  0  0  0  0  0  0  0  0
    8.3846  -15.7313   24.1379 N   0  0  0  0  0  0  0  0  0  0  0  0
    8.5929  -16.4332   26.4302 C   0  0  0  0  0  0  0  0  0  0  0  0
    8.6553  -16.2983   27.7900 O   0  0  0  0  0  0  0  0  0  0  0  0
    8.7594  -17.5692   25.9257 O   0  0  0  0  0  0  0  0  0  0  0  0
  1  2  1  0
  2  3  2  0
  2  4  1  0
  4  5  1  0
  5  7  1  0
  5  6  1  6
  7  9  1  0
  7  8  2  0
  9 10  1  0
 10 14  1  0
 10 11  1  6
 12 11  1  0
 13 12  2  0
 14 21  1  0
 14 15  2  0
 16 12  1  0
 18 17  1  6
 18 20  1  0
 19 18  1  0
 20 22  1  0
 20 21  1  6
 22 23  1  0
 24 22  2  0
M  END
$$$$
