NDT.pdb
     RDKit          3D

 24 23  0  0  1  0  0  0  0  0999 V2000
    9.4782  -14.7408   16.9714 N   0  0  0  0  0  0  0  0  0  0  0  0
    8.0829  -14.5422   16.7413 C   0  0  0  0  0  0  0  0  0  0  0  0
    7.4710  -15.0872   15.7962 O   0  0  0  0  0  0  0  0  0  0  0  0
    7.3399  -13.6555   17.6630 C   0  0  0  0  0  0  0  0  0  0  0  0
    8.2706  -13.1723   18.7742 C   0  0  2  0  0  0  0  0  0  0  0  0
    9.5342  -12.8565   18.1657 N   0  0  0  0  0  0  0  0  0  0  0  0
    8.3646  -14.2667   19.7714 C   0  0  0  0  0  0  0  0  0  0  0  0
    7.3238  -14.6441   20.3692 O   0  0  0  0  0  0  0  0  0  0  0  0
    9.6002  -14.9240   20.0924 N   0  0  0  0  0  0  0  0  0  0  0  0
    9.6391  -15.9984   21.0704 C   0  0  1  0  0  0  0  0  0  0  0  0
   10.8067  -16.9161   20.8474 C   0  0  0  0  0  0  0  0  0  0  0  0
   10.8352  -18.0575   21.7679 C   0  0  0  0  0  0  0  0  0  0  0  0
    9.8322  -18.6276   22.2564 O   0  0  0  0  0  0  0  0  0  0  0  0
    9.6796  -15.4647   22.4570 C   0  0  0  0  0  0  0  0  0  0  0  0
   10.6111  -14.6923   22.7642 O   0  0  0  0  0  0  0  0  0  0  0  0
   12.0849  -18.5568   22.1354 O   0  0  0  0  0  0  0  0  0  0  0  0
    7.4950  -13.2757   24.3610 C   0  0  0  0  0  0  0  0  0  0  0  0
    7.4894  -14.5658   25.1637 C   0  0  1  0  0  0  0  0  0  0  0  0
    6.3553  -15.2762   24.8012 O   0  0  0  0  0  0  0  0  0  0  0  0
    8.6983  -15.3571   24.7753 C   0  0  2  0  0  0  0  0  0  0  0  0
    8.7084  -15.8037   23.4193 N   0  0  0  0  0  0  0  0  0  0  0  0
    8.9632  -16.4824   25.7139 C   0  0  0  0  0  0  0  0  0  0  0  0
    9.1141  -17.7826   25.3169 O   0  0  0  0  0  0  0  0  0  0  0  0
    9.0506  -16.2074   26.9343 O   0  0  0  0  0  0  0  0  0  0  0  0
  1  2  1  0
  2  3  2  0
  2  4  1  0
  4  5  1  0
  5  7  1  0
  5  6  1  6
  7  9  1  0
  7  8  2  0
  9 10  1  0
 10 14  1  0
 10 11  1  6
 12 11  1  0
 13 12  2  0
 14 21  1  0
 14 15  2  0
 16 12  1  0
 18 17  1  6
 18 20  1  0
 19 18  1  0
 20 22  1  0
 20 21  1  6
 22 23  1  0
 24 22  2  0
M  END
$$$$
