NDT.pdb
     RDKit          3D

 24 23  0  0  1  0  0  0  0  0999 V2000
    8.5976  -13.6590   15.5833 N   0  0  0  0  0  0  0  0  0  0  0  0
    8.0155  -14.7812   16.2474 C   0  0  0  0  0  0  0  0  0  0  0  0
    8.2682  -15.9624   15.9227 O   0  0  0  0  0  0  0  0  0  0  0  0
    7.0783  -14.5266   17.3629 C   0  0  0  0  0  0  0  0  0  0  0  0
    7.8093  -13.8065   18.4951 C   0  0  2  0  0  0  0  0  0  0  0  0
    8.8862  -13.0615   17.9022 N   0  0  0  0  0  0  0  0  0  0  0  0
    8.2772  -14.8469   19.4436 C   0  0  0  0  0  0  0  0  0  0  0  0
    7.4524  -15.6840   19.8931 O   0  0  0  0  0  0  0  0  0  0  0  0
    9.6416  -14.9464   19.8797 N   0  0  0  0  0  0  0  0  0  0  0  0
   10.0462  -15.9689   20.8300 C   0  0  1  0  0  0  0  0  0  0  0  0
   11.4293  -16.4804   20.5466 C   0  0  0  0  0  0  0  0  0  0  0  0
   11.8683  -17.5224   21.4807 C   0  0  0  0  0  0  0  0  0  0  0  0
   11.1297  -18.3784   22.0205 O   0  0  0  0  0  0  0  0  0  0  0  0
    9.9750  -15.4658   22.2268 C   0  0  0  0  0  0  0  0  0  0  0  0
   10.8551  -14.6682   22.6116 O   0  0  0  0  0  0  0  0  0  0  0  0
   13.2255  -17.5700   21.8001 O   0  0  0  0  0  0  0  0  0  0  0  0
    7.4561  -13.4286   23.9072 C   0  0  0  0  0  0  0  0  0  0  0  0
    7.4964  -14.7068   24.7276 C   0  0  1  0  0  0  0  0  0  0  0  0
    6.4636  -15.5184   24.2840 O   0  0  0  0  0  0  0  0  0  0  0  0
    8.7985  -15.3910   24.4538 C   0  0  2  0  0  0  0  0  0  0  0  0
    8.9553  -15.8608   23.1147 N   0  0  0  0  0  0  0  0  0  0  0  0
    9.0892  -16.4689   25.4392 C   0  0  0  0  0  0  0  0  0  0  0  0
    9.0879  -16.2797   26.7939 O   0  0  0  0  0  0  0  0  0  0  0  0
    9.3480  -17.6097   24.9869 O   0  0  0  0  0  0  0  0  0  0  0  0
  1  2  1  0
  2  3  2  0
  2  4  1  0
  4  5  1  0
  5  7  1  0
  5  6  1  6
  7  9  1  0
  7  8  2  0
  9 10  1  0
 10 14  1  0
 10 11  1  6
 12 11  1  0
 13 12  2  0
 14 21  1  0
 14 15  2  0
 16 12  1  0
 18 17  1  6
 18 20  1  0
 19 18  1  0
 20 22  1  0
 20 21  1  6
 22 23  1  0
 24 22  2  0
M  END
$$$$
