NDT.pdb
     RDKit          3D

 24 23  0  0  1  0  0  0  0  0999 V2000
    7.5098  -12.3844   16.8067 N   0  0  0  0  0  0  0  0  0  0  0  0
    7.8677  -13.7636   16.7123 C   0  0  0  0  0  0  0  0  0  0  0  0
    8.2799  -14.2823   15.6513 O   0  0  0  0  0  0  0  0  0  0  0  0
    7.7432  -14.6042   17.9229 C   0  0  0  0  0  0  0  0  0  0  0  0
    8.7004  -14.0987   19.0012 C   0  0  2  0  0  0  0  0  0  0  0  0
    9.9636  -13.8424   18.3648 N   0  0  0  0  0  0  0  0  0  0  0  0
    8.7791  -15.1516   20.0434 C   0  0  0  0  0  0  0  0  0  0  0  0
    7.7156  -15.6079   20.5372 O   0  0  0  0  0  0  0  0  0  0  0  0
   10.0246  -15.6817   20.5225 N   0  0  0  0  0  0  0  0  0  0  0  0
   10.0602  -16.5836   21.6616 C   0  0  1  0  0  0  0  0  0  0  0  0
   11.3229  -17.3958   21.6931 C   0  0  0  0  0  0  0  0  0  0  0  0
   11.4889  -18.2611   20.5208 C   0  0  0  0  0  0  0  0  0  0  0  0
   12.2791  -18.0595   19.5696 O   0  0  0  0  0  0  0  0  0  0  0  0
    9.9094  -15.8428   22.9413 C   0  0  0  0  0  0  0  0  0  0  0  0
   10.7524  -14.9638   23.2163 O   0  0  0  0  0  0  0  0  0  0  0  0
   10.7015  -19.4106   20.4526 O   0  0  0  0  0  0  0  0  0  0  0  0
    7.3102  -13.5838   24.1754 C   0  0  0  0  0  0  0  0  0  0  0  0
    7.3169  -14.7254   25.1781 C   0  0  1  0  0  0  0  0  0  0  0  0
    6.3140  -15.6087   24.8092 O   0  0  0  0  0  0  0  0  0  0  0  0
    8.6360  -15.4237   25.0749 C   0  0  2  0  0  0  0  0  0  0  0  0
    8.8557  -16.1038   23.8389 N   0  0  0  0  0  0  0  0  0  0  0  0
    8.8934  -16.3208   26.2352 C   0  0  0  0  0  0  0  0  0  0  0  0
    8.9079  -15.8955   27.5351 O   0  0  0  0  0  0  0  0  0  0  0  0
    9.1071  -17.5323   25.9916 O   0  0  0  0  0  0  0  0  0  0  0  0
  1  2  1  0
  2  3  2  0
  2  4  1  0
  4  5  1  0
  5  7  1  0
  5  6  1  6
  7  9  1  0
  7  8  2  0
  9 10  1  0
 10 14  1  0
 10 11  1  1
 12 11  1  0
 13 12  2  0
 14 21  1  0
 14 15  2  0
 16 12  1  0
 18 17  1  6
 18 20  1  0
 19 18  1  0
 20 22  1  0
 20 21  1  6
 22 23  1  0
 24 22  2  0
M  END
$$$$
