NDT.pdb
     RDKit          3D

 24 23  0  0  1  0  0  0  0  0999 V2000
    8.8628  -12.9894   17.4435 N   0  0  0  0  0  0  0  0  0  0  0  0
    7.7501  -13.8836   17.4824 C   0  0  0  0  0  0  0  0  0  0  0  0
    7.2021  -14.3234   16.4476 O   0  0  0  0  0  0  0  0  0  0  0  0
    7.2327  -14.3013   18.8035 C   0  0  0  0  0  0  0  0  0  0  0  0
    8.0021  -13.5802   19.9091 C   0  0  2  0  0  0  0  0  0  0  0  0
    9.2659  -13.1759   19.3560 N   0  0  0  0  0  0  0  0  0  0  0  0
    8.1412  -14.5335   21.0372 C   0  0  0  0  0  0  0  0  0  0  0  0
    7.1061  -14.9679   21.6055 O   0  0  0  0  0  0  0  0  0  0  0  0
    9.4146  -14.9901   21.5188 N   0  0  0  0  0  0  0  0  0  0  0  0
    9.5030  -15.8539   22.6842 C   0  0  1  0  0  0  0  0  0  0  0  0
   10.7334  -16.7143   22.6510 C   0  0  0  0  0  0  0  0  0  0  0  0
   10.7379  -17.6829   21.5498 C   0  0  0  0  0  0  0  0  0  0  0  0
    9.7367  -18.2944   21.1102 O   0  0  0  0  0  0  0  0  0  0  0  0
    9.4778  -15.0650   23.9437 C   0  0  0  0  0  0  0  0  0  0  0  0
   10.3891  -14.2338   24.1370 O   0  0  0  0  0  0  0  0  0  0  0  0
   11.9604  -17.9512   20.9338 O   0  0  0  0  0  0  0  0  0  0  0  0
    7.1145  -12.6136   25.2963 C   0  0  0  0  0  0  0  0  0  0  0  0
    7.1228  -13.7298   26.3272 C   0  0  1  0  0  0  0  0  0  0  0  0
    6.0392  -14.5519   26.0588 O   0  0  0  0  0  0  0  0  0  0  0  0
    8.3818  -14.5175   26.1456 C   0  0  2  0  0  0  0  0  0  0  0  0
    8.4670  -15.2293   24.9109 N   0  0  0  0  0  0  0  0  0  0  0  0
    8.6609  -15.4125   27.3025 C   0  0  0  0  0  0  0  0  0  0  0  0
    8.7531  -14.9756   28.5954 O   0  0  0  0  0  0  0  0  0  0  0  0
    8.8180  -16.6334   27.0628 O   0  0  0  0  0  0  0  0  0  0  0  0
  1  2  1  0
  2  3  2  0
  2  4  1  0
  4  5  1  0
  5  7  1  0
  5  6  1  6
  7  9  1  0
  7  8  2  0
  9 10  1  0
 10 14  1  0
 10 11  1  6
 12 11  1  0
 13 12  2  0
 14 21  1  0
 14 15  2  0
 16 12  1  0
 18 17  1  6
 18 20  1  0
 19 18  1  0
 20 22  1  0
 20 21  1  6
 22 23  1  0
 24 22  2  0
M  END
$$$$
