NDT.pdb
     RDKit          3D

 24 23  0  0  1  0  0  0  0  0999 V2000
    8.5530  -12.2618   17.7324 N   0  0  0  0  0  0  0  0  0  0  0  0
    8.2217  -13.6252   17.4665 C   0  0  0  0  0  0  0  0  0  0  0  0
    8.3590  -14.1446   16.3369 O   0  0  0  0  0  0  0  0  0  0  0  0
    7.6966  -14.4482   18.5776 C   0  0  0  0  0  0  0  0  0  0  0  0
    8.8294  -15.2719   19.1880 C   0  0  2  0  0  0  0  0  0  0  0  0
    9.1554  -16.3110   18.2495 N   0  0  0  0  0  0  0  0  0  0  0  0
    8.3376  -15.7961   20.4858 C   0  0  0  0  0  0  0  0  0  0  0  0
    7.5054  -16.7398   20.4915 O   0  0  0  0  0  0  0  0  0  0  0  0
    8.7694  -15.2727   21.7512 N   0  0  0  0  0  0  0  0  0  0  0  0
    8.5524  -16.0202   22.9786 C   0  0  1  0  0  0  0  0  0  0  0  0
    9.3253  -17.3076   22.9939 C   0  0  0  0  0  0  0  0  0  0  0  0
    9.1731  -18.0642   24.2410 C   0  0  0  0  0  0  0  0  0  0  0  0
    8.1752  -18.0324   24.9979 O   0  0  0  0  0  0  0  0  0  0  0  0
    8.9058  -15.2099   24.1735 C   0  0  0  0  0  0  0  0  0  0  0  0
   10.1027  -14.8962   24.3399 O   0  0  0  0  0  0  0  0  0  0  0  0
   10.2276  -18.8936   24.6233 O   0  0  0  0  0  0  0  0  0  0  0  0
    6.6821  -12.0078   25.2544 C   0  0  0  0  0  0  0  0  0  0  0  0
    6.9089  -12.9720   26.4065 C   0  0  1  0  0  0  0  0  0  0  0  0
    5.8129  -13.8193   26.4616 O   0  0  0  0  0  0  0  0  0  0  0  0
    8.1289  -13.7816   26.0985 C   0  0  2  0  0  0  0  0  0  0  0  0
    7.9389  -14.7936   25.1095 N   0  0  0  0  0  0  0  0  0  0  0  0
    8.7612  -14.3407   27.3252 C   0  0  0  0  0  0  0  0  0  0  0  0
    9.0926  -15.6594   27.4750 O   0  0  0  0  0  0  0  0  0  0  0  0
    8.9978  -13.5458   28.2660 O   0  0  0  0  0  0  0  0  0  0  0  0
  1  2  1  0
  2  3  2  0
  2  4  1  0
  4  5  1  0
  5  7  1  0
  5  6  1  6
  7  9  1  0
  7  8  2  0
  9 10  1  0
 10 14  1  0
 10 11  1  6
 12 11  1  0
 13 12  2  0
 14 21  1  0
 14 15  2  0
 16 12  1  0
 18 17  1  6
 18 20  1  0
 19 18  1  0
 20 22  1  0
 20 21  1  6
 22 23  1  0
 24 22  2  0
M  END
$$$$
