NDT.pdb
     RDKit          3D

 24 23  0  0  1  0  0  0  0  0999 V2000
   10.9779  -17.6782   14.8645 N   0  0  0  0  0  0  0  0  0  0  0  0
   11.8230  -16.6414   14.3644 C   0  0  0  0  0  0  0  0  0  0  0  0
   12.2470  -16.6258   13.1877 O   0  0  0  0  0  0  0  0  0  0  0  0
   12.2062  -15.5462   15.2817 C   0  0  0  0  0  0  0  0  0  0  0  0
   11.6395  -15.8191   16.6741 C   0  0  2  0  0  0  0  0  0  0  0  0
   10.8004  -14.7042   17.0197 N   0  0  0  0  0  0  0  0  0  0  0  0
   12.7944  -15.9819   17.5911 C   0  0  0  0  0  0  0  0  0  0  0  0
   13.2236  -17.1383   17.8390 O   0  0  0  0  0  0  0  0  0  0  0  0
   13.4541  -14.8710   18.2176 N   0  0  0  0  0  0  0  0  0  0  0  0
   14.4935  -15.0866   19.2103 C   0  0  1  0  0  0  0  0  0  0  0  0
   15.6368  -14.1279   19.0407 C   0  0  0  0  0  0  0  0  0  0  0  0
   16.7310  -14.3513   19.9914 C   0  0  0  0  0  0  0  0  0  0  0  0
   16.9170  -15.3948   20.6595 O   0  0  0  0  0  0  0  0  0  0  0  0
   13.9519  -14.9807   20.5904 C   0  0  0  0  0  0  0  0  0  0  0  0
   14.4203  -14.1001   21.3414 O   0  0  0  0  0  0  0  0  0  0  0  0
   17.6480  -13.3158   20.1721 O   0  0  0  0  0  0  0  0  0  0  0  0
   10.3833  -14.5803   21.8159 C   0  0  0  0  0  0  0  0  0  0  0  0
   10.9075  -15.8545   22.4565 C   0  0  1  0  0  0  0  0  0  0  0  0
   10.4470  -16.9206   21.6994 O   0  0  0  0  0  0  0  0  0  0  0  0
   12.4019  -15.8252   22.3886 C   0  0  2  0  0  0  0  0  0  0  0  0
   12.9390  -15.8364   21.0658 N   0  0  0  0  0  0  0  0  0  0  0  0
   13.0272  -16.8813   23.2317 C   0  0  0  0  0  0  0  0  0  0  0  0
   12.8303  -16.9913   24.5808 O   0  0  0  0  0  0  0  0  0  0  0  0
   13.7742  -17.7099   22.6587 O   0  0  0  0  0  0  0  0  0  0  0  0
  1  2  1  0
  2  3  2  0
  2  4  1  0
  4  5  1  0
  5  7  1  0
  5  6  1  1
  7  9  1  0
  7  8  2  0
  9 10  1  0
 10 14  1  0
 10 11  1  1
 12 11  1  0
 13 12  2  0
 14 21  1  0
 14 15  2  0
 16 12  1  0
 18 17  1  6
 18 20  1  0
 19 18  1  0
 20 22  1  0
 20 21  1  6
 22 23  1  0
 24 22  2  0
M  END
$$$$
