GGT.pdb
     RDKit          3D

 16 15  0  0  1  0  0  0  0  0999 V2000
   25.5519  -15.1443  -17.5704 N   0  0  0  0  0  0  0  0  0  0  0  0
   26.5881  -14.5178  -18.3785 C   0  0  0  0  0  0  0  0  0  0  0  0
   27.1479  -13.3776  -17.6061 C   0  0  0  0  0  0  0  0  0  0  0  0
   26.8539  -13.1991  -16.3879 O   0  0  0  0  0  0  0  0  0  0  0  0
   28.0223  -12.4723  -18.2291 N   0  0  0  0  0  0  0  0  0  0  0  0
   28.5990  -11.3608  -17.4917 C   0  0  0  0  0  0  0  0  0  0  0  0
   29.5455  -10.6045  -18.3456 C   0  0  0  0  0  0  0  0  0  0  0  0
   29.7596  -10.8824  -19.5517 O   0  0  0  0  0  0  0  0  0  0  0  0
   32.1598   -6.4117  -18.6923 C   0  0  0  0  0  0  0  0  0  0  0  0
   31.3108   -7.3827  -17.9325 C   0  0  1  0  0  0  0  0  0  0  0  0
   30.0136   -6.9083  -17.7448 O   0  0  0  0  0  0  0  0  0  0  0  0
   31.2155   -8.7368  -18.5729 C   0  0  2  0  0  0  0  0  0  0  0  0
   30.2515   -9.5099  -17.7859 N   0  0  0  0  0  0  0  0  0  0  0  0
   32.5065   -9.4519  -18.6052 C   0  0  0  0  0  0  0  0  0  0  0  0
   32.9547   -9.9777  -17.5539 O   0  0  0  0  0  0  0  0  0  0  0  0
   33.2882   -9.5920  -19.7456 O   0  0  0  0  0  0  0  0  0  0  0  0
  2  1  1  0
  3  5  1  0
  3  2  1  0
  4  3  2  0
  6  5  1  0
  7  6  1  0
  8  7  2  0
 10 12  1  0
 10  9  1  6
 11 10  1  0
 12 13  1  1
 13  7  1  0
 14 16  1  0
 14 12  1  0
 15 14  2  0
M  END
$$$$
