GGT.pdb
     RDKit          3D

 16 15  0  0  1  0  0  0  0  0999 V2000
   19.2910  -14.0876  -16.2986 N   0  0  0  0  0  0  0  0  0  0  0  0
   20.2840  -13.2798  -16.9918 C   0  0  0  0  0  0  0  0  0  0  0  0
   19.8857  -11.8530  -16.8666 C   0  0  0  0  0  0  0  0  0  0  0  0
   18.7448  -11.4519  -17.2406 O   0  0  0  0  0  0  0  0  0  0  0  0
   20.7845  -10.9205  -16.3236 N   0  0  0  0  0  0  0  0  0  0  0  0
   20.4661   -9.5029  -16.2953 C   0  0  0  0  0  0  0  0  0  0  0  0
   21.5428   -8.7407  -15.6194 C   0  0  0  0  0  0  0  0  0  0  0  0
   22.5677   -9.2792  -15.1322 O   0  0  0  0  0  0  0  0  0  0  0  0
   23.8390   -6.5518  -17.0360 C   0  0  0  0  0  0  0  0  0  0  0  0
   23.0947   -5.7213  -16.0374 C   0  0  1  0  0  0  0  0  0  0  0  0
   22.0782   -4.9749  -16.6313 O   0  0  0  0  0  0  0  0  0  0  0  0
   22.4864   -6.5163  -14.9191 C   0  0  2  0  0  0  0  0  0  0  0  0
   21.4229   -7.3324  -15.5102 N   0  0  0  0  0  0  0  0  0  0  0  0
   21.9177   -5.6694  -13.8521 C   0  0  0  0  0  0  0  0  0  0  0  0
   20.6842   -5.4227  -13.8425 O   0  0  0  0  0  0  0  0  0  0  0  0
   22.6664   -5.1069  -12.8254 O   0  0  0  0  0  0  0  0  0  0  0  0
  2  1  1  0
  3  5  1  0
  3  2  1  0
  4  3  2  0
  6  5  1  0
  7  6  1  0
  8  7  2  0
 10 12  1  0
 10  9  1  6
 11 10  1  0
 12 13  1  6
 13  7  1  0
 14 16  1  0
 14 12  1  0
 15 14  2  0
M  END
$$$$
