GGT.pdb
     RDKit          3D

 16 15  0  0  1  0  0  0  0  0999 V2000
   20.4228  -12.8510  -18.1562 N   0  0  0  0  0  0  0  0  0  0  0  0
   19.7762  -11.5783  -17.8706 C   0  0  0  0  0  0  0  0  0  0  0  0
   20.3680  -11.0314  -16.6214 C   0  0  0  0  0  0  0  0  0  0  0  0
   20.5543  -11.7627  -15.6051 O   0  0  0  0  0  0  0  0  0  0  0  0
   20.7324   -9.6768  -16.5541 N   0  0  0  0  0  0  0  0  0  0  0  0
   21.4413   -9.1487  -15.4006 C   0  0  0  0  0  0  0  0  0  0  0  0
   21.7381   -7.7084  -15.5863 C   0  0  0  0  0  0  0  0  0  0  0  0
   22.3144   -7.2484  -16.6031 O   0  0  0  0  0  0  0  0  0  0  0  0
   19.5384   -5.0548  -16.0694 C   0  0  0  0  0  0  0  0  0  0  0  0
   20.2888   -4.6808  -14.8293 C   0  0  1  0  0  0  0  0  0  0  0  0
   19.5586   -4.9533  -13.6736 O   0  0  0  0  0  0  0  0  0  0  0  0
   21.6223   -5.3572  -14.6991 C   0  0  2  0  0  0  0  0  0  0  0  0
   21.3579   -6.7927  -14.5731 N   0  0  0  0  0  0  0  0  0  0  0  0
   22.3910   -4.8962  -13.5262 C   0  0  0  0  0  0  0  0  0  0  0  0
   22.8945   -3.7434  -13.5244 O   0  0  0  0  0  0  0  0  0  0  0  0
   22.6067   -5.6645  -12.3885 O   0  0  0  0  0  0  0  0  0  0  0  0
  2  1  1  0
  3  5  1  0
  3  2  1  0
  4  3  2  0
  6  5  1  0
  7  6  1  0
  8  7  2  0
 10 12  1  0
 10  9  1  6
 11 10  1  0
 12 13  1  1
 13  7  1  0
 14 16  1  0
 14 12  1  0
 15 14  2  0
M  END
$$$$
