GGT.pdb
     RDKit          3D

 16 15  0  0  1  0  0  0  0  0999 V2000
   18.9691  -14.2457  -17.6484 N   0  0  0  0  0  0  0  0  0  0  0  0
   19.4692  -14.3713  -19.0097 C   0  0  0  0  0  0  0  0  0  0  0  0
   20.7542  -13.6289  -19.0984 C   0  0  0  0  0  0  0  0  0  0  0  0
   21.8028  -14.1777  -19.5475 O   0  0  0  0  0  0  0  0  0  0  0  0
   20.8196  -12.2903  -18.6787 N   0  0  0  0  0  0  0  0  0  0  0  0
   22.0525  -11.5295  -18.7928 C   0  0  0  0  0  0  0  0  0  0  0  0
   22.5165  -11.0864  -17.4567 C   0  0  0  0  0  0  0  0  0  0  0  0
   21.7831  -11.0861  -16.4369 O   0  0  0  0  0  0  0  0  0  0  0  0
   26.5383   -9.9427  -14.7815 C   0  0  0  0  0  0  0  0  0  0  0  0
   25.8387  -10.4364  -16.0094 C   0  0  1  0  0  0  0  0  0  0  0  0
   26.0194  -11.8053  -16.2001 O   0  0  0  0  0  0  0  0  0  0  0  0
   24.3629  -10.1631  -16.0188 C   0  0  2  0  0  0  0  0  0  0  0  0
   23.8530  -10.6378  -17.3077 N   0  0  0  0  0  0  0  0  0  0  0  0
   24.0402   -8.7312  -15.8621 C   0  0  0  0  0  0  0  0  0  0  0  0
   23.9048   -8.2449  -14.7099 O   0  0  0  0  0  0  0  0  0  0  0  0
   23.8695   -7.8529  -16.9255 O   0  0  0  0  0  0  0  0  0  0  0  0
  2  1  1  0
  3  5  1  0
  3  2  1  0
  4  3  2  0
  6  5  1  0
  7  6  1  0
  8  7  2  0
 10 12  1  0
 10  9  1  1
 11 10  1  0
 12 13  1  6
 13  7  1  0
 14 16  1  0
 14 12  1  0
 15 14  2  0
M  END
$$$$
