GGT.pdb
     RDKit          3D

 16 15  0  0  1  0  0  0  0  0999 V2000
   19.3268  -13.0049  -16.3734 N   0  0  0  0  0  0  0  0  0  0  0  0
   19.4390  -11.8096  -17.1968 C   0  0  0  0  0  0  0  0  0  0  0  0
   20.5254  -10.9642  -16.6355 C   0  0  0  0  0  0  0  0  0  0  0  0
   21.3851  -11.4399  -15.8373 O   0  0  0  0  0  0  0  0  0  0  0  0
   20.6111   -9.6081  -16.9902 N   0  0  0  0  0  0  0  0  0  0  0  0
   21.6615   -8.7591  -16.4539 C   0  0  0  0  0  0  0  0  0  0  0  0
   21.0862   -7.5229  -15.8728 C   0  0  0  0  0  0  0  0  0  0  0  0
   20.2617   -6.7946  -16.4790 O   0  0  0  0  0  0  0  0  0  0  0  0
   19.0340   -7.5934  -13.0753 C   0  0  0  0  0  0  0  0  0  0  0  0
   20.0977   -6.6097  -12.6986 C   0  0  1  0  0  0  0  0  0  0  0  0
   21.0498   -7.1687  -11.8477 O   0  0  0  0  0  0  0  0  0  0  0  0
   20.8225   -6.0196  -13.8729 C   0  0  2  0  0  0  0  0  0  0  0  0
   21.4773   -7.1308  -14.5678 N   0  0  0  0  0  0  0  0  0  0  0  0
   21.8369   -5.0208  -13.4823 C   0  0  0  0  0  0  0  0  0  0  0  0
   21.4718   -3.9075  -13.0242 O   0  0  0  0  0  0  0  0  0  0  0  0
   23.2076   -5.2247  -13.5860 O   0  0  0  0  0  0  0  0  0  0  0  0
  2  1  1  0
  3  5  1  0
  3  2  1  0
  4  3  2  0
  6  5  1  0
  7  6  1  0
  8  7  2  0
 10 12  1  0
 10  9  1  6
 11 10  1  0
 12 13  1  1
 13  7  1  0
 14 16  1  0
 14 12  1  0
 15 14  2  0
M  END
$$$$
