CVF.pdb
     RDKit          3D

 25 25  0  0  1  0  0  0  0  0999 V2000
   28.0678  -21.1138   -9.9194 N   0  0  0  0  0  0  0  0  0  0  0  0
   26.7064  -20.7121   -9.7377 C   0  0  1  0  0  0  0  0  0  0  0  0
   26.5289  -19.4527   -8.9272 C   0  0  0  0  0  0  0  0  0  0  0  0
   26.9600  -19.8459   -7.1965 S   0  0  0  0  0  0  0  0  0  0  0  0
   25.9948  -20.6356  -11.0287 C   0  0  0  0  0  0  0  0  0  0  0  0
   26.4940  -19.9404  -11.9581 O   0  0  0  0  0  0  0  0  0  0  0  0
   23.5519  -22.3408  -14.7100 C   0  0  0  0  0  0  0  0  0  0  0  0
   24.2614  -22.5579  -13.3640 C   0  0  1  0  0  0  0  0  0  0  0  0
   25.6462  -23.0156  -13.6692 C   0  0  0  0  0  0  0  0  0  0  0  0
   24.1613  -21.2761  -12.6148 C   0  0  2  0  0  0  0  0  0  0  0  0
   24.7811  -21.2908  -11.3070 N   0  0  0  0  0  0  0  0  0  0  0  0
   22.7953  -20.7021  -12.5740 C   0  0  0  0  0  0  0  0  0  0  0  0
   22.1474  -20.7861  -11.4873 O   0  0  0  0  0  0  0  0  0  0  0  0
   22.1632  -20.0709  -13.6505 N   0  0  0  0  0  0  0  0  0  0  0  0
   20.8339  -19.4466  -13.5575 C   0  0  1  0  0  0  0  0  0  0  0  0
   20.9577  -17.9581  -13.7389 C   0  0  0  0  0  0  0  0  0  0  0  0
   21.2876  -17.5404  -15.1129 C   0  0  0  0  0  0  0  0  0  0  0  0
   20.3804  -17.6140  -16.1574 C   0  0  0  0  0  0  0  0  0  0  0  0
   20.7282  -17.2070  -17.4129 C   0  0  0  0  0  0  0  0  0  0  0  0
   21.9974  -16.7101  -17.6736 C   0  0  0  0  0  0  0  0  0  0  0  0
   22.9133  -16.6304  -16.6419 C   0  0  0  0  0  0  0  0  0  0  0  0
   22.5425  -17.0464  -15.3807 C   0  0  0  0  0  0  0  0  0  0  0  0
   19.8925  -20.0629  -14.4953 C   0  0  0  0  0  0  0  0  0  0  0  0
   18.6264  -19.9253  -14.3905 O   0  0  0  0  0  0  0  0  0  0  0  0
   20.3145  -20.8351  -15.5577 O   0  0  0  0  0  0  0  0  0  0  0  0
  2  5  1  0
  2  1  1  6
  3  2  1  0
  4  3  1  0
  5  6  2  0
  8  7  1  6
  8  9  1  0
  8 10  1  0
 10 12  1  0
 10 11  1  1
 11  5  1  0
 12 13  2  0
 12 14  1  0
 14 15  1  0
 15 16  1  6
 15 23  1  0
 17 22  2  0
 17 16  1  0
 18 17  1  0
 19 20  1  0
 19 18  2  0
 20 21  2  0
 21 22  1  0
 23 25  1  0
 24 23  2  0
M  END
$$$$
