CVF.pdb
     RDKit          3D

 25 25  0  0  1  0  0  0  0  0999 V2000
   26.4204  -17.8337  -15.8606 N   0  0  0  0  0  0  0  0  0  0  0  0
   27.2237  -18.4595  -14.8553 C   0  0  1  0  0  0  0  0  0  0  0  0
   28.5280  -17.7579  -14.5706 C   0  0  0  0  0  0  0  0  0  0  0  0
   29.5766  -17.9198  -16.0572 S   0  0  0  0  0  0  0  0  0  0  0  0
   26.4487  -18.6936  -13.6209 C   0  0  0  0  0  0  0  0  0  0  0  0
   25.7981  -17.7334  -13.1199 O   0  0  0  0  0  0  0  0  0  0  0  0
   23.5459  -20.4308  -13.0532 C   0  0  0  0  0  0  0  0  0  0  0  0
   24.4153  -21.0410  -11.9423 C   0  0  1  0  0  0  0  0  0  0  0  0
   24.7480  -22.4314  -12.3622 C   0  0  0  0  0  0  0  0  0  0  0  0
   25.5789  -20.1315  -11.7600 C   0  0  2  0  0  0  0  0  0  0  0  0
   26.3786  -19.9278  -12.9488 N   0  0  0  0  0  0  0  0  0  0  0  0
   26.4150  -20.4455  -10.5770 C   0  0  0  0  0  0  0  0  0  0  0  0
   27.3527  -21.2872  -10.7184 O   0  0  0  0  0  0  0  0  0  0  0  0
   26.2465  -19.8798   -9.3086 N   0  0  0  0  0  0  0  0  0  0  0  0
   27.0149  -20.2987   -8.1256 C   0  0  1  0  0  0  0  0  0  0  0  0
   27.5764  -19.0885   -7.4298 C   0  0  0  0  0  0  0  0  0  0  0  0
   28.3183  -19.3903   -6.1929 C   0  0  0  0  0  0  0  0  0  0  0  0
   27.8160  -19.1158   -4.9313 C   0  0  0  0  0  0  0  0  0  0  0  0
   28.5360  -19.4213   -3.8127 C   0  0  0  0  0  0  0  0  0  0  0  0
   29.7869  -20.0137   -3.9116 C   0  0  0  0  0  0  0  0  0  0  0  0
   30.3012  -20.2937   -5.1633 C   0  0  0  0  0  0  0  0  0  0  0  0
   29.5583  -19.9776   -6.2810 C   0  0  0  0  0  0  0  0  0  0  0  0
   26.2091  -21.1458   -7.2433 C   0  0  0  0  0  0  0  0  0  0  0  0
   24.9362  -21.2164   -7.3303 O   0  0  0  0  0  0  0  0  0  0  0  0
   26.7757  -21.9263   -6.2569 O   0  0  0  0  0  0  0  0  0  0  0  0
  2  5  1  0
  2  1  1  6
  3  2  1  0
  4  3  1  0
  5  6  2  0
  8  7  1  6
  8  9  1  0
  8 10  1  0
 10 12  1  0
 10 11  1  6
 11  5  1  0
 12 13  2  0
 12 14  1  0
 14 15  1  0
 15 16  1  1
 15 23  1  0
 17 22  2  0
 17 16  1  0
 18 17  1  0
 19 20  1  0
 19 18  2  0
 20 21  2  0
 21 22  1  0
 23 25  1  0
 24 23  2  0
M  END
$$$$
