CVF.pdb
     RDKit          3D

 25 25  0  0  1  0  0  0  0  0999 V2000
   27.3753  -21.3389  -10.8890 N   0  0  0  0  0  0  0  0  0  0  0  0
   25.9594  -21.2622  -10.6969 C   0  0  1  0  0  0  0  0  0  0  0  0
   25.5277  -20.3329   -9.5904 C   0  0  0  0  0  0  0  0  0  0  0  0
   25.6861  -21.2418   -8.0142 S   0  0  0  0  0  0  0  0  0  0  0  0
   25.2635  -20.9632  -11.9640 C   0  0  0  0  0  0  0  0  0  0  0  0
   25.6176  -19.9480  -12.6275 O   0  0  0  0  0  0  0  0  0  0  0  0
   22.9986  -22.1247  -16.0405 C   0  0  0  0  0  0  0  0  0  0  0  0
   23.5737  -22.6337  -14.7092 C   0  0  1  0  0  0  0  0  0  0  0  0
   24.8914  -23.2593  -15.0135 C   0  0  0  0  0  0  0  0  0  0  0  0
   23.6167  -21.4671  -13.7865 C   0  0  2  0  0  0  0  0  0  0  0  0
   24.2172  -21.7378  -12.4978 N   0  0  0  0  0  0  0  0  0  0  0  0
   22.3269  -20.7483  -13.6566 C   0  0  0  0  0  0  0  0  0  0  0  0
   21.3889  -21.3200  -13.0234 O   0  0  0  0  0  0  0  0  0  0  0  0
   22.0649  -19.4790  -14.1831 N   0  0  0  0  0  0  0  0  0  0  0  0
   20.7645  -18.8016  -14.0572 C   0  0  1  0  0  0  0  0  0  0  0  0
   20.9712  -17.3126  -13.9941 C   0  0  0  0  0  0  0  0  0  0  0  0
   19.7243  -16.5277  -13.9804 C   0  0  0  0  0  0  0  0  0  0  0  0
   19.0606  -16.1948  -12.8107 C   0  0  0  0  0  0  0  0  0  0  0  0
   17.9123  -15.4578  -12.8463 C   0  0  0  0  0  0  0  0  0  0  0  0
   17.3823  -15.0243  -14.0532 C   0  0  0  0  0  0  0  0  0  0  0  0
   18.0331  -15.3484  -15.2285 C   0  0  0  0  0  0  0  0  0  0  0  0
   19.1918  -16.0935  -15.1713 C   0  0  0  0  0  0  0  0  0  0  0  0
   19.8493  -19.2094  -15.1256 C   0  0  0  0  0  0  0  0  0  0  0  0
   18.6052  -19.4197  -14.9238 O   0  0  0  0  0  0  0  0  0  0  0  0
   20.2739  -19.3929  -16.4253 O   0  0  0  0  0  0  0  0  0  0  0  0
  2  5  1  0
  2  1  1  6
  3  2  1  0
  4  3  1  0
  5  6  2  0
  8  7  1  6
  8  9  1  0
  8 10  1  0
 10 12  1  0
 10 11  1  1
 11  5  1  0
 12 13  2  0
 12 14  1  0
 14 15  1  0
 15 16  1  6
 15 23  1  0
 17 22  2  0
 17 16  1  0
 18 17  1  0
 19 20  1  0
 19 18  2  0
 20 21  2  0
 21 22  1  0
 23 25  1  0
 24 23  2  0
M  END
$$$$
