CVF.pdb
     RDKit          3D

 25 25  0  0  1  0  0  0  0  0999 V2000
   24.5518  -12.9389  -19.2099 N   0  0  0  0  0  0  0  0  0  0  0  0
   24.0961  -12.5040  -17.9251 C   0  0  1  0  0  0  0  0  0  0  0  0
   25.1961  -12.2413  -16.9273 C   0  0  0  0  0  0  0  0  0  0  0  0
   25.9382  -13.8515  -16.4887 S   0  0  0  0  0  0  0  0  0  0  0  0
   23.1805  -11.3522  -18.0444 C   0  0  0  0  0  0  0  0  0  0  0  0
   23.5025  -10.3954  -18.8040 O   0  0  0  0  0  0  0  0  0  0  0  0
   18.9240   -9.0899  -17.9645 C   0  0  0  0  0  0  0  0  0  0  0  0
   19.7570  -10.3750  -18.0947 C   0  0  1  0  0  0  0  0  0  0  0  0
   19.7723  -10.7409  -19.5390 C   0  0  0  0  0  0  0  0  0  0  0  0
   21.0872  -10.0867  -17.4931 C   0  0  2  0  0  0  0  0  0  0  0  0
   21.9542  -11.2383  -17.3640 N   0  0  0  0  0  0  0  0  0  0  0  0
   21.0284   -9.2944  -16.2417 C   0  0  0  0  0  0  0  0  0  0  0  0
   20.5753   -9.8595  -15.2011 O   0  0  0  0  0  0  0  0  0  0  0  0
   21.4377   -7.9620  -16.1216 N   0  0  0  0  0  0  0  0  0  0  0  0
   21.3986   -7.2130  -14.8556 C   0  0  1  0  0  0  0  0  0  0  0  0
   22.7798   -7.1453  -14.2624 C   0  0  0  0  0  0  0  0  0  0  0  0
   23.7773   -6.4853  -15.1230 C   0  0  0  0  0  0  0  0  0  0  0  0
   24.5855   -7.1834  -16.0055 C   0  0  0  0  0  0  0  0  0  0  0  0
   25.4901   -6.5280  -16.7899 C   0  0  0  0  0  0  0  0  0  0  0  0
   25.6221   -5.1483  -16.7227 C   0  0  0  0  0  0  0  0  0  0  0  0
   24.8228   -4.4381  -15.8473 C   0  0  0  0  0  0  0  0  0  0  0  0
   23.9150   -5.1186  -15.0636 C   0  0  0  0  0  0  0  0  0  0  0  0
   20.7875   -5.8945  -15.0389 C   0  0  0  0  0  0  0  0  0  0  0  0
   20.5786   -5.3866  -16.1927 O   0  0  0  0  0  0  0  0  0  0  0  0
   20.3955   -5.1126  -13.9720 O   0  0  0  0  0  0  0  0  0  0  0  0
  2  5  1  0
  2  1  1  6
  3  2  1  0
  4  3  1  0
  5  6  2  0
  8  7  1  6
  8  9  1  0
  8 10  1  0
 10 12  1  0
 10 11  1  1
 11  5  1  0
 12 13  2  0
 12 14  1  0
 14 15  1  0
 15 16  1  6
 15 23  1  0
 17 22  2  0
 17 16  1  0
 18 17  1  0
 19 20  1  0
 19 18  2  0
 20 21  2  0
 21 22  1  0
 23 25  1  0
 24 23  2  0
M  END
$$$$
