LTR.pdb
     RDKit          3D

 27 26  0  0  1  0  0  0  0  0999 V2000
    6.7423  -12.8679   19.6841 C   0  0  0  0  0  0  0  0  0  0  0  0
    7.9825  -13.6864   19.5214 C   0  0  1  0  0  0  0  0  0  0  0  0
    8.7674  -13.1416   18.3422 C   0  0  0  0  0  0  0  0  0  0  0  0
    8.8502  -13.7089   20.7492 C   0  0  0  0  0  0  0  0  0  0  0  0
    8.7948  -15.0883   21.3830 C   0  0  2  0  0  0  0  0  0  0  0  0
    7.4432  -15.5901   21.2439 N   0  0  0  0  0  0  0  0  0  0  0  0
    9.1187  -15.0353   22.8265 C   0  0  0  0  0  0  0  0  0  0  0  0
   10.2219  -14.6022   23.1946 O   0  0  0  0  0  0  0  0  0  0  0  0
    7.3528  -13.1907   25.4999 C   0  0  0  0  0  0  0  0  0  0  0  0
    7.4240  -14.6367   25.9436 C   0  0  1  0  0  0  0  0  0  0  0  0
    6.1924  -15.2789   25.8665 O   0  0  0  0  0  0  0  0  0  0  0  0
    8.5355  -15.3859   25.2472 C   0  0  2  0  0  0  0  0  0  0  0  0
    8.1947  -15.4719   23.8438 N   0  0  0  0  0  0  0  0  0  0  0  0
    8.8139  -16.7033   25.8404 C   0  0  0  0  0  0  0  0  0  0  0  0
    7.9519  -17.6171   25.6554 O   0  0  0  0  0  0  0  0  0  0  0  0
   13.1274  -18.6935   21.9987 N   0  0  0  0  0  0  0  0  0  0  0  0
   12.3635  -19.8901   22.0764 C   0  0  0  0  0  0  0  0  0  0  0  0
   11.7452  -20.2943   21.0301 N   0  0  0  0  0  0  0  0  0  0  0  0
   12.2475  -20.6629   23.2509 N   0  0  0  0  0  0  0  0  0  0  0  0
   12.3720  -20.1080   24.5574 C   0  0  0  0  0  0  0  0  0  0  0  0
   11.1592  -19.4755   25.1232 C   0  0  0  0  0  0  0  0  0  0  0  0
   11.3729  -18.9832   26.5040 C   0  0  0  0  0  0  0  0  0  0  0  0
   10.2377  -18.3381   27.1770 C   0  0  2  0  0  0  0  0  0  0  0  0
    9.9651  -17.0163   26.5944 N   0  0  0  0  0  0  0  0  0  0  0  0
   10.1174  -18.4220   28.5899 C   0  0  0  0  0  0  0  0  0  0  0  0
    9.8526  -17.4833   29.4104 O   0  0  0  0  0  0  0  0  0  0  0  0
   10.3016  -19.6678   29.2277 O   0  0  0  0  0  0  0  0  0  0  0  0
  2  1  1  1
  3  2  1  0
  4  2  1  0
  5  4  1  0
  5  6  1  1
  7  5  1  0
  8  7  2  0
 10  9  1  6
 10 12  1  0
 11 10  1  0
 12 13  1  6
 13  7  1  0
 14 12  1  0
 14 15  2  0
 16 17  1  0
 17 18  2  0
 17 19  1  0
 19 20  1  0
 20 21  1  0
 21 22  1  0
 23 24  1  0
 23 22  1  1
 24 14  1  0
 25 23  1  0
 26 25  2  0
 27 25  1  0
M  END
$$$$
