LTR.pdb
     RDKit          3D

 27 26  0  0  1  0  0  0  0  0999 V2000
    7.6026  -11.5501   27.5842 C   0  0  0  0  0  0  0  0  0  0  0  0
    6.6762  -12.1717   26.5892 C   0  0  1  0  0  0  0  0  0  0  0  0
    6.1982  -11.0916   25.6363 C   0  0  0  0  0  0  0  0  0  0  0  0
    7.2991  -13.3003   25.8151 C   0  0  0  0  0  0  0  0  0  0  0  0
    6.2425  -13.9632   24.9480 C   0  0  2  0  0  0  0  0  0  0  0  0
    5.1769  -14.4226   25.8149 N   0  0  0  0  0  0  0  0  0  0  0  0
    6.7885  -15.1368   24.2298 C   0  0  0  0  0  0  0  0  0  0  0  0
    6.0149  -15.9411   23.6868 O   0  0  0  0  0  0  0  0  0  0  0  0
    6.6695  -15.7706   21.7843 C   0  0  0  0  0  0  0  0  0  0  0  0
    8.1826  -15.8289   21.7824 C   0  0  1  0  0  0  0  0  0  0  0  0
    8.7605  -14.6518   21.3178 O   0  0  0  0  0  0  0  0  0  0  0  0
    8.7309  -16.2804   23.1154 C   0  0  2  0  0  0  0  0  0  0  0  0
    8.2038  -15.3939   24.1300 N   0  0  0  0  0  0  0  0  0  0  0  0
   10.1998  -16.3610   23.1466 C   0  0  0  0  0  0  0  0  0  0  0  0
   10.8454  -15.3119   22.8387 O   0  0  0  0  0  0  0  0  0  0  0  0
    8.9183  -21.8130   27.9197 N   0  0  0  0  0  0  0  0  0  0  0  0
    8.7787  -20.3985   27.9533 C   0  0  0  0  0  0  0  0  0  0  0  0
    7.6181  -19.8903   27.7658 N   0  0  0  0  0  0  0  0  0  0  0  0
    9.8555  -19.5167   28.1832 N   0  0  0  0  0  0  0  0  0  0  0  0
   10.9886  -19.4386   27.3225 C   0  0  0  0  0  0  0  0  0  0  0  0
   10.9221  -18.4369   26.2347 C   0  0  0  0  0  0  0  0  0  0  0  0
   12.1281  -18.4589   25.3747 C   0  0  0  0  0  0  0  0  0  0  0  0
   12.1850  -17.5013   24.2623 C   0  0  2  0  0  0  0  0  0  0  0  0
   10.9325  -17.5164   23.4929 N   0  0  0  0  0  0  0  0  0  0  0  0
   13.3746  -17.3846   23.4947 C   0  0  0  0  0  0  0  0  0  0  0  0
   13.4923  -17.3987   22.2257 O   0  0  0  0  0  0  0  0  0  0  0  0
   14.6126  -17.2316   24.1554 O   0  0  0  0  0  0  0  0  0  0  0  0
  2  1  1  1
  3  2  1  0
  4  2  1  0
  5  4  1  0
  5  6  1  1
  7  5  1  0
  8  7  2  0
 10  9  1  1
 10 12  1  0
 11 10  1  0
 12 13  1  1
 13  7  1  0
 14 12  1  0
 14 15  2  0
 16 17  1  0
 17 18  2  0
 17 19  1  0
 19 20  1  0
 20 21  1  0
 21 22  1  0
 23 24  1  0
 23 22  1  6
 24 14  1  0
 25 23  1  0
 26 25  2  0
 27 25  1  0
M  END
$$$$
