LTR.pdb
     RDKit          3D

 27 26  0  0  1  0  0  0  0  0999 V2000
    3.3086  -20.3267   20.9670 C   0  0  0  0  0  0  0  0  0  0  0  0
    3.6582  -19.1580   20.1031 C   0  0  1  0  0  0  0  0  0  0  0  0
    2.5674  -18.1122   20.2435 C   0  0  0  0  0  0  0  0  0  0  0  0
    4.9953  -18.5519   20.4284 C   0  0  0  0  0  0  0  0  0  0  0  0
    5.2616  -17.3829   19.4956 C   0  0  2  0  0  0  0  0  0  0  0  0
    5.2563  -17.8851   18.1370 N   0  0  0  0  0  0  0  0  0  0  0  0
    6.5854  -16.7730   19.7545 C   0  0  0  0  0  0  0  0  0  0  0  0
    7.5789  -17.1670   19.1237 O   0  0  0  0  0  0  0  0  0  0  0  0
    7.2284  -12.9037   20.3787 C   0  0  0  0  0  0  0  0  0  0  0  0
    7.9156  -13.7470   21.4321 C   0  0  1  0  0  0  0  0  0  0  0  0
    7.3150  -13.6322   22.6816 O   0  0  0  0  0  0  0  0  0  0  0  0
    8.0929  -15.1776   20.9813 C   0  0  2  0  0  0  0  0  0  0  0  0
    6.7778  -15.7230   20.7239 N   0  0  0  0  0  0  0  0  0  0  0  0
    8.8667  -15.9971   21.9271 C   0  0  0  0  0  0  0  0  0  0  0  0
    8.2194  -16.8157   22.6505 O   0  0  0  0  0  0  0  0  0  0  0  0
   15.1898  -19.9818   20.2211 N   0  0  0  0  0  0  0  0  0  0  0  0
   15.0340  -20.5732   21.5047 C   0  0  0  0  0  0  0  0  0  0  0  0
   15.2213  -21.8342   21.6278 N   0  0  0  0  0  0  0  0  0  0  0  0
   14.6818  -19.8429   22.6591 N   0  0  0  0  0  0  0  0  0  0  0  0
   14.4094  -18.4444   22.6365 C   0  0  0  0  0  0  0  0  0  0  0  0
   13.1888  -17.9991   23.3457 C   0  0  0  0  0  0  0  0  0  0  0  0
   12.3014  -17.1853   22.4827 C   0  0  0  0  0  0  0  0  0  0  0  0
   11.0281  -16.7309   23.0568 C   0  0  2  0  0  0  0  0  0  0  0  0
   10.2680  -15.9348   22.0826 N   0  0  0  0  0  0  0  0  0  0  0  0
   10.9886  -16.2608   24.3967 C   0  0  0  0  0  0  0  0  0  0  0  0
   11.4513  -16.8286   25.4398 O   0  0  0  0  0  0  0  0  0  0  0  0
   10.3767  -15.0200   24.6774 O   0  0  0  0  0  0  0  0  0  0  0  0
  2  1  1  1
  3  2  1  0
  4  2  1  0
  5  4  1  0
  5  6  1  6
  7  5  1  0
  8  7  2  0
 10  9  1  6
 10 12  1  0
 11 10  1  0
 12 13  1  1
 13  7  1  0
 14 12  1  0
 14 15  2  0
 16 17  1  0
 17 18  2  0
 17 19  1  0
 19 20  1  0
 20 21  1  0
 21 22  1  0
 23 24  1  0
 23 22  1  6
 24 14  1  0
 25 23  1  0
 26 25  2  0
 27 25  1  0
M  END
$$$$
