LTR.pdb
     RDKit          3D

 27 26  0  0  1  0  0  0  0  0999 V2000
    5.7009  -10.6968   25.6278 C   0  0  0  0  0  0  0  0  0  0  0  0
    6.4216  -11.7883   26.3515 C   0  0  1  0  0  0  0  0  0  0  0  0
    6.2637  -11.5622   27.8439 C   0  0  0  0  0  0  0  0  0  0  0  0
    5.9421  -13.1662   25.9875 C   0  0  0  0  0  0  0  0  0  0  0  0
    7.1105  -14.1362   26.0288 C   0  0  2  0  0  0  0  0  0  0  0  0
    8.3309  -13.3618   26.1238 N   0  0  0  0  0  0  0  0  0  0  0  0
    7.1802  -14.9540   24.7969 C   0  0  0  0  0  0  0  0  0  0  0  0
    6.2332  -15.6981   24.4973 O   0  0  0  0  0  0  0  0  0  0  0  0
    7.4517  -14.1698   21.3029 C   0  0  0  0  0  0  0  0  0  0  0  0
    8.6149  -15.1072   21.5502 C   0  0  1  0  0  0  0  0  0  0  0  0
    9.8460  -14.4678   21.4452 O   0  0  0  0  0  0  0  0  0  0  0  0
    8.4501  -15.8831   22.8356 C   0  0  2  0  0  0  0  0  0  0  0  0
    8.3187  -14.9260   23.9124 N   0  0  0  0  0  0  0  0  0  0  0  0
    9.5291  -16.8545   23.0747 C   0  0  0  0  0  0  0  0  0  0  0  0
   10.4865  -16.4862   23.8231 O   0  0  0  0  0  0  0  0  0  0  0  0
   12.7802  -24.8878   24.7813 N   0  0  0  0  0  0  0  0  0  0  0  0
   12.4161  -23.5195   24.6521 C   0  0  0  0  0  0  0  0  0  0  0  0
   13.2678  -22.6223   24.9837 N   0  0  0  0  0  0  0  0  0  0  0  0
   11.1592  -23.0916   24.1755 N   0  0  0  0  0  0  0  0  0  0  0  0
   10.9096  -22.8041   22.8023 C   0  0  0  0  0  0  0  0  0  0  0  0
   11.3678  -21.4849   22.3113 C   0  0  0  0  0  0  0  0  0  0  0  0
   10.3009  -20.4591   22.3741 C   0  0  0  0  0  0  0  0  0  0  0  0
   10.7025  -19.0816   22.6882 C   0  0  2  0  0  0  0  0  0  0  0  0
    9.5705  -18.1570   22.5327 N   0  0  0  0  0  0  0  0  0  0  0  0
   11.9583  -18.5947   22.2366 C   0  0  0  0  0  0  0  0  0  0  0  0
   12.1870  -17.7975   21.2688 O   0  0  0  0  0  0  0  0  0  0  0  0
   13.1374  -19.0043   22.8959 O   0  0  0  0  0  0  0  0  0  0  0  0
  2  1  1  6
  3  2  1  0
  4  2  1  0
  5  4  1  0
  5  6  1  6
  7  5  1  0
  8  7  2  0
 10  9  1  1
 10 12  1  0
 11 10  1  0
 12 13  1  1
 13  7  1  0
 14 12  1  0
 14 15  2  0
 16 17  1  0
 17 18  2  0
 17 19  1  0
 19 20  1  0
 20 21  1  0
 21 22  1  0
 23 24  1  0
 23 22  1  6
 24 14  1  0
 25 23  1  0
 26 25  2  0
 27 25  1  0
M  END
$$$$
