LTR.pdb
     RDKit          3D

 27 26  0  0  1  0  0  0  0  0999 V2000
    6.9748  -12.4844   18.4020 C   0  0  0  0  0  0  0  0  0  0  0  0
    8.0826  -13.0672   19.2191 C   0  0  1  0  0  0  0  0  0  0  0  0
    8.7601  -11.9439   19.9823 C   0  0  0  0  0  0  0  0  0  0  0  0
    7.6243  -14.1337   20.1749 C   0  0  0  0  0  0  0  0  0  0  0  0
    8.7810  -14.5411   21.0714 C   0  0  2  0  0  0  0  0  0  0  0  0
    9.9013  -14.8925   20.2232 N   0  0  0  0  0  0  0  0  0  0  0  0
    8.4392  -15.7234   21.8941 C   0  0  0  0  0  0  0  0  0  0  0  0
    7.4192  -15.7078   22.6008 O   0  0  0  0  0  0  0  0  0  0  0  0
    8.4394  -19.4535   20.6840 C   0  0  0  0  0  0  0  0  0  0  0  0
    9.2575  -19.3018   21.9492 C   0  0  1  0  0  0  0  0  0  0  0  0
   10.6244  -19.4140   21.7165 O   0  0  0  0  0  0  0  0  0  0  0  0
    8.8805  -18.0576   22.7183 C   0  0  2  0  0  0  0  0  0  0  0  0
    9.2518  -16.9145   21.9130 N   0  0  0  0  0  0  0  0  0  0  0  0
    9.4613  -18.0068   24.0692 C   0  0  0  0  0  0  0  0  0  0  0  0
   10.5244  -17.3287   24.2189 O   0  0  0  0  0  0  0  0  0  0  0  0
    5.0260  -22.6083   28.7711 N   0  0  0  0  0  0  0  0  0  0  0  0
    5.5987  -22.3322   27.4994 C   0  0  0  0  0  0  0  0  0  0  0  0
    5.3234  -23.1089   26.5189 N   0  0  0  0  0  0  0  0  0  0  0  0
    6.4602  -21.2421   27.2554 N   0  0  0  0  0  0  0  0  0  0  0  0
    6.4663  -20.0658   28.0598 C   0  0  0  0  0  0  0  0  0  0  0  0
    7.4149  -19.0010   27.6631 C   0  0  0  0  0  0  0  0  0  0  0  0
    8.7879  -19.5180   27.4575 C   0  0  0  0  0  0  0  0  0  0  0  0
    9.6324  -18.8268   26.4743 C   0  0  2  0  0  0  0  0  0  0  0  0
    8.9203  -18.6555   25.1998 N   0  0  0  0  0  0  0  0  0  0  0  0
   11.0080  -19.1646   26.3675 C   0  0  0  0  0  0  0  0  0  0  0  0
   11.5442  -20.0323   25.6032 O   0  0  0  0  0  0  0  0  0  0  0  0
   11.9503  -18.4955   27.1781 O   0  0  0  0  0  0  0  0  0  0  0  0
  2  1  1  1
  3  2  1  0
  4  2  1  0
  5  4  1  0
  5  6  1  6
  7  5  1  0
  8  7  2  0
 10  9  1  6
 10 12  1  0
 11 10  1  0
 12 13  1  6
 13  7  1  0
 14 12  1  0
 14 15  2  0
 16 17  1  0
 17 18  2  0
 17 19  1  0
 19 20  1  0
 20 21  1  0
 21 22  1  0
 23 24  1  0
 23 22  1  1
 24 14  1  0
 25 23  1  0
 26 25  2  0
 27 25  1  0
M  END
$$$$
