LTR.pdb
     RDKit          3D

 27 26  0  0  1  0  0  0  0  0999 V2000
    8.3521  -11.7342   19.1240 C   0  0  0  0  0  0  0  0  0  0  0  0
    7.8470  -13.1317   19.2866 C   0  0  1  0  0  0  0  0  0  0  0  0
    8.2276  -13.9278   18.0519 C   0  0  0  0  0  0  0  0  0  0  0  0
    8.3676  -13.8167   20.5198 C   0  0  0  0  0  0  0  0  0  0  0  0
    7.6455  -15.1400   20.7069 C   0  0  2  0  0  0  0  0  0  0  0  0
    6.2357  -14.8586   20.8839 N   0  0  0  0  0  0  0  0  0  0  0  0
    8.1259  -15.8545   21.9110 C   0  0  0  0  0  0  0  0  0  0  0  0
    7.5263  -15.7169   22.9889 O   0  0  0  0  0  0  0  0  0  0  0  0
    7.2585  -17.6263   23.7984 C   0  0  0  0  0  0  0  0  0  0  0  0
    8.4847  -18.4087   23.3774 C   0  0  1  0  0  0  0  0  0  0  0  0
    8.2082  -19.3350   22.3770 O   0  0  0  0  0  0  0  0  0  0  0  0
    9.6470  -17.5014   23.0497 C   0  0  2  0  0  0  0  0  0  0  0  0
    9.2797  -16.7191   21.8895 N   0  0  0  0  0  0  0  0  0  0  0  0
   10.9166  -18.2215   22.8639 C   0  0  0  0  0  0  0  0  0  0  0  0
   10.9806  -19.0462   21.9005 O   0  0  0  0  0  0  0  0  0  0  0  0
   16.6351  -13.3806   20.6634 N   0  0  0  0  0  0  0  0  0  0  0  0
   16.2713  -14.0675   19.4729 C   0  0  0  0  0  0  0  0  0  0  0  0
   16.4949  -13.5039   18.3447 N   0  0  0  0  0  0  0  0  0  0  0  0
   15.6728  -15.3449   19.4649 N   0  0  0  0  0  0  0  0  0  0  0  0
   14.4989  -15.6538   20.2113 C   0  0  0  0  0  0  0  0  0  0  0  0
   14.6613  -16.6106   21.3290 C   0  0  0  0  0  0  0  0  0  0  0  0
   13.3716  -16.9430   21.9776 C   0  0  0  0  0  0  0  0  0  0  0  0
   13.4123  -17.8104   23.1623 C   0  0  2  0  0  0  0  0  0  0  0  0
   12.0581  -18.0580   23.6776 N   0  0  0  0  0  0  0  0  0  0  0  0
   14.4158  -17.6092   24.1474 C   0  0  0  0  0  0  0  0  0  0  0  0
   15.6807  -17.6533   23.9971 O   0  0  0  0  0  0  0  0  0  0  0  0
   14.0343  -17.3214   25.4757 O   0  0  0  0  0  0  0  0  0  0  0  0
  2  1  1  6
  3  2  1  0
  4  2  1  0
  5  4  1  0
  5  6  1  1
  7  5  1  0
  8  7  2  0
 10  9  1  6
 10 12  1  0
 11 10  1  0
 12 13  1  6
 13  7  1  0
 14 12  1  0
 14 15  2  0
 16 17  1  0
 17 18  2  0
 17 19  1  0
 19 20  1  0
 20 21  1  0
 21 22  1  0
 23 24  1  0
 23 22  1  6
 24 14  1  0
 25 23  1  0
 26 25  2  0
 27 25  1  0
M  END
$$$$
