LTR.pdb
     RDKit          3D

 27 26  0  0  1  0  0  0  0  0999 V2000
    7.0615  -12.4913   19.2417 C   0  0  0  0  0  0  0  0  0  0  0  0
    8.4379  -12.9988   19.5288 C   0  0  1  0  0  0  0  0  0  0  0  0
    9.2493  -11.8707   20.1389 C   0  0  0  0  0  0  0  0  0  0  0  0
    8.4569  -14.1953   20.4393 C   0  0  0  0  0  0  0  0  0  0  0  0
    9.8943  -14.5504   20.7787 C   0  0  2  0  0  0  0  0  0  0  0  0
   10.6137  -14.7381   19.5356 N   0  0  0  0  0  0  0  0  0  0  0  0
    9.9739  -15.8112   21.5502 C   0  0  0  0  0  0  0  0  0  0  0  0
    9.2697  -15.9600   22.5613 O   0  0  0  0  0  0  0  0  0  0  0  0
   10.0375  -19.4555   19.9954 C   0  0  0  0  0  0  0  0  0  0  0  0
   11.1698  -19.2527   20.9801 C   0  0  1  0  0  0  0  0  0  0  0  0
   12.4078  -19.1479   20.3542 O   0  0  0  0  0  0  0  0  0  0  0  0
   10.8859  -18.1218   21.9403 C   0  0  2  0  0  0  0  0  0  0  0  0
   10.8479  -16.8949   21.1747 N   0  0  0  0  0  0  0  0  0  0  0  0
   11.8350  -18.0555   23.0627 C   0  0  0  0  0  0  0  0  0  0  0  0
   12.7256  -17.1516   23.0173 O   0  0  0  0  0  0  0  0  0  0  0  0
   13.6321  -21.4618   32.0414 N   0  0  0  0  0  0  0  0  0  0  0  0
   13.0649  -20.7816   30.9291 C   0  0  0  0  0  0  0  0  0  0  0  0
   11.9991  -20.0938   31.1068 N   0  0  0  0  0  0  0  0  0  0  0  0
   13.6144  -20.8227   29.6305 N   0  0  0  0  0  0  0  0  0  0  0  0
   12.8413  -20.5924   28.4558 C   0  0  0  0  0  0  0  0  0  0  0  0
   13.1384  -19.3525   27.7039 C   0  0  0  0  0  0  0  0  0  0  0  0
   12.2282  -19.1615   26.5508 C   0  0  0  0  0  0  0  0  0  0  0  0
   12.8396  -18.9211   25.2371 C   0  0  2  0  0  0  0  0  0  0  0  0
   11.8214  -18.9218   24.1768 N   0  0  0  0  0  0  0  0  0  0  0  0
   14.0687  -19.5522   24.9071 C   0  0  0  0  0  0  0  0  0  0  0  0
   15.2236  -19.3201   25.3938 O   0  0  0  0  0  0  0  0  0  0  0  0
   14.0839  -20.5695   23.9285 O   0  0  0  0  0  0  0  0  0  0  0  0
  2  1  1  1
  3  2  1  0
  4  2  1  0
  5  4  1  0
  5  6  1  6
  7  5  1  0
  8  7  2  0
 10  9  1  6
 10 12  1  0
 11 10  1  0
 12 13  1  6
 13  7  1  0
 14 12  1  0
 14 15  2  0
 16 17  1  0
 17 18  2  0
 17 19  1  0
 19 20  1  0
 20 21  1  0
 21 22  1  0
 23 24  1  0
 23 22  1  1
 24 14  1  0
 25 23  1  0
 26 25  2  0
 27 25  1  0
M  END
$$$$
