LTR.pdb
     RDKit          3D

 27 26  0  0  1  0  0  0  0  0999 V2000
    6.2318  -12.5156   19.1001 C   0  0  0  0  0  0  0  0  0  0  0  0
    7.2264  -13.5938   18.8125 C   0  0  1  0  0  0  0  0  0  0  0  0
    7.6387  -13.4922   17.3554 C   0  0  0  0  0  0  0  0  0  0  0  0
    8.4424  -13.5375   19.6951 C   0  0  0  0  0  0  0  0  0  0  0  0
    9.3461  -14.7193   19.3880 C   0  0  2  0  0  0  0  0  0  0  0  0
    8.5071  -15.8342   18.9993 N   0  0  0  0  0  0  0  0  0  0  0  0
   10.1293  -15.1264   20.5764 C   0  0  0  0  0  0  0  0  0  0  0  0
   10.7685  -14.2748   21.2140 O   0  0  0  0  0  0  0  0  0  0  0  0
    9.1838  -17.7204   23.4874 C   0  0  0  0  0  0  0  0  0  0  0  0
   10.4840  -18.0762   22.7973 C   0  0  1  0  0  0  0  0  0  0  0  0
   10.3657  -19.1987   21.9842 O   0  0  0  0  0  0  0  0  0  0  0  0
   11.0917  -16.8866   22.0924 C   0  0  2  0  0  0  0  0  0  0  0  0
   10.1853  -16.4920   21.0361 N   0  0  0  0  0  0  0  0  0  0  0  0
   12.4562  -17.1330   21.6000 C   0  0  0  0  0  0  0  0  0  0  0  0
   12.5914  -17.3758   20.3611 O   0  0  0  0  0  0  0  0  0  0  0  0
   16.5488  -12.8727   17.3549 N   0  0  0  0  0  0  0  0  0  0  0  0
   17.5993  -13.2319   18.2431 C   0  0  0  0  0  0  0  0  0  0  0  0
   18.7370  -13.5552   17.7516 N   0  0  0  0  0  0  0  0  0  0  0  0
   17.4573  -13.2525   19.6465 N   0  0  0  0  0  0  0  0  0  0  0  0
   16.2743  -13.7077   20.2976 C   0  0  0  0  0  0  0  0  0  0  0  0
   15.9935  -15.1588   20.2155 C   0  0  0  0  0  0  0  0  0  0  0  0
   14.7927  -15.5448   20.9925 C   0  0  0  0  0  0  0  0  0  0  0  0
   14.9318  -16.6486   21.9515 C   0  0  2  0  0  0  0  0  0  0  0  0
   13.6148  -17.1175   22.4059 N   0  0  0  0  0  0  0  0  0  0  0  0
   15.9398  -16.5896   22.9507 C   0  0  0  0  0  0  0  0  0  0  0  0
   17.1805  -16.8543   22.8280 O   0  0  0  0  0  0  0  0  0  0  0  0
   15.5931  -16.1971   24.2616 O   0  0  0  0  0  0  0  0  0  0  0  0
  2  1  1  1
  3  2  1  0
  4  2  1  0
  5  4  1  0
  5  6  1  1
  7  5  1  0
  8  7  2  0
 10  9  1  6
 10 12  1  0
 11 10  1  0
 12 13  1  6
 13  7  1  0
 14 12  1  0
 14 15  2  0
 16 17  1  0
 17 18  2  0
 17 19  1  0
 19 20  1  0
 20 21  1  0
 21 22  1  0
 23 24  1  0
 23 22  1  1
 24 14  1  0
 25 23  1  0
 26 25  2  0
 27 25  1  0
M  END
$$$$
