LTR.pdb
     RDKit          3D

 27 26  0  0  1  0  0  0  0  0999 V2000
    6.6657  -12.5519   18.8560 C   0  0  0  0  0  0  0  0  0  0  0  0
    7.9725  -13.1956   19.1910 C   0  0  1  0  0  0  0  0  0  0  0  0
    8.9753  -12.1054   19.5214 C   0  0  0  0  0  0  0  0  0  0  0  0
    7.8836  -14.1735   20.3297 C   0  0  0  0  0  0  0  0  0  0  0  0
    9.2614  -14.7472   20.6132 C   0  0  2  0  0  0  0  0  0  0  0  0
    9.7334  -15.3933   19.4057 N   0  0  0  0  0  0  0  0  0  0  0  0
    9.2153  -15.7625   21.6894 C   0  0  0  0  0  0  0  0  0  0  0  0
    8.5629  -15.5374   22.7209 O   0  0  0  0  0  0  0  0  0  0  0  0
    8.9076  -19.7388   21.1848 C   0  0  0  0  0  0  0  0  0  0  0  0
   10.0582  -19.3547   22.0912 C   0  0  1  0  0  0  0  0  0  0  0  0
   11.2972  -19.5349   21.4849 O   0  0  0  0  0  0  0  0  0  0  0  0
    9.8745  -17.9768   22.6820 C   0  0  2  0  0  0  0  0  0  0  0  0
    9.9061  -17.0246   21.5932 N   0  0  0  0  0  0  0  0  0  0  0  0
   10.8497  -17.6580   23.7367 C   0  0  0  0  0  0  0  0  0  0  0  0
   11.9424  -17.1224   23.3744 O   0  0  0  0  0  0  0  0  0  0  0  0
    6.9755  -14.2969   27.3073 N   0  0  0  0  0  0  0  0  0  0  0  0
    7.9480  -13.3017   27.0151 C   0  0  0  0  0  0  0  0  0  0  0  0
    7.5876  -12.2639   26.3567 N   0  0  0  0  0  0  0  0  0  0  0  0
    9.2983  -13.3944   27.4127 N   0  0  0  0  0  0  0  0  0  0  0  0
    9.9132  -14.6259   27.7817 C   0  0  0  0  0  0  0  0  0  0  0  0
   10.4991  -15.4254   26.6823 C   0  0  0  0  0  0  0  0  0  0  0  0
   11.0894  -16.6963   27.1630 C   0  0  0  0  0  0  0  0  0  0  0  0
   11.6452  -17.6093   26.1556 C   0  0  2  0  0  0  0  0  0  0  0  0
   10.6532  -17.9056   25.1122 N   0  0  0  0  0  0  0  0  0  0  0  0
   12.4482  -18.7064   26.5674 C   0  0  0  0  0  0  0  0  0  0  0  0
   12.2753  -19.9430   26.3113 O   0  0  0  0  0  0  0  0  0  0  0  0
   13.5925  -18.4684   27.3589 O   0  0  0  0  0  0  0  0  0  0  0  0
  2  1  1  1
  3  2  1  0
  4  2  1  0
  5  4  1  0
  5  6  1  6
  7  5  1  0
  8  7  2  0
 10  9  1  6
 10 12  1  0
 11 10  1  0
 12 13  1  6
 13  7  1  0
 14 12  1  0
 14 15  2  0
 16 17  1  0
 17 18  2  0
 17 19  1  0
 19 20  1  0
 20 21  1  0
 21 22  1  0
 23 24  1  0
 23 22  1  1
 24 14  1  0
 25 23  1  0
 26 25  2  0
 27 25  1  0
M  END
$$$$
