LTR.pdb
     RDKit          3D

 27 26  0  0  1  0  0  0  0  0999 V2000
    7.4372  -11.5821   19.6920 C   0  0  0  0  0  0  0  0  0  0  0  0
    7.4041  -13.0158   20.1136 C   0  0  1  0  0  0  0  0  0  0  0  0
    7.1216  -13.8704   18.8917 C   0  0  0  0  0  0  0  0  0  0  0  0
    8.6729  -13.4738   20.7780 C   0  0  0  0  0  0  0  0  0  0  0  0
    8.3926  -14.7206   21.5994 C   0  0  2  0  0  0  0  0  0  0  0  0
    6.9627  -14.9517   21.5870 N   0  0  0  0  0  0  0  0  0  0  0  0
    8.8180  -14.5497   23.0070 C   0  0  0  0  0  0  0  0  0  0  0  0
   10.0196  -14.3880   23.2719 O   0  0  0  0  0  0  0  0  0  0  0  0
    6.9764  -12.2899   25.7764 C   0  0  0  0  0  0  0  0  0  0  0  0
    7.2094  -13.7148   26.2329 C   0  0  1  0  0  0  0  0  0  0  0  0
    6.0386  -14.4659   26.2535 O   0  0  0  0  0  0  0  0  0  0  0  0
    8.3319  -14.3753   25.4679 C   0  0  2  0  0  0  0  0  0  0  0  0
    7.8836  -14.5628   24.1052 N   0  0  0  0  0  0  0  0  0  0  0  0
    8.8016  -15.6268   26.0829 C   0  0  0  0  0  0  0  0  0  0  0  0
    8.0758  -16.6572   25.9292 O   0  0  0  0  0  0  0  0  0  0  0  0
   11.7920  -22.0123   24.8745 N   0  0  0  0  0  0  0  0  0  0  0  0
   12.5512  -21.8552   26.0664 C   0  0  0  0  0  0  0  0  0  0  0  0
   12.4120  -22.7181   27.0027 N   0  0  0  0  0  0  0  0  0  0  0  0
   13.4561  -20.7937   26.2770 N   0  0  0  0  0  0  0  0  0  0  0  0
   13.0833  -19.4238   26.1550 C   0  0  0  0  0  0  0  0  0  0  0  0
   11.8809  -18.9985   26.9064 C   0  0  0  0  0  0  0  0  0  0  0  0
   11.6269  -17.5440   26.7858 C   0  0  0  0  0  0  0  0  0  0  0  0
   10.4399  -17.0048   27.4625 C   0  0  2  0  0  0  0  0  0  0  0  0
    9.9946  -15.7571   26.8255 N   0  0  0  0  0  0  0  0  0  0  0  0
   10.3671  -17.0289   28.8810 C   0  0  0  0  0  0  0  0  0  0  0  0
   10.1660  -16.0495   29.6715 O   0  0  0  0  0  0  0  0  0  0  0  0
   10.5285  -18.2549   29.5618 O   0  0  0  0  0  0  0  0  0  0  0  0
  2  1  1  6
  3  2  1  0
  4  2  1  0
  5  4  1  0
  5  6  1  1
  7  5  1  0
  8  7  2  0
 10  9  1  6
 10 12  1  0
 11 10  1  0
 12 13  1  6
 13  7  1  0
 14 12  1  0
 14 15  2  0
 16 17  1  0
 17 18  2  0
 17 19  1  0
 19 20  1  0
 20 21  1  0
 21 22  1  0
 23 24  1  0
 23 22  1  1
 24 14  1  0
 25 23  1  0
 26 25  2  0
 27 25  1  0
M  END
$$$$
