EWM.pdb
     RDKit          3D

 32 33  0  0  1  0  0  0  0  0999 V2000
   10.5983  -17.1290   19.2334 N   0  0  0  0  0  0  0  0  0  0  0  0
   11.5808  -17.5221   20.2142 C   0  0  1  0  0  0  0  0  0  0  0  0
   12.9471  -17.1076   19.7649 C   0  0  0  0  0  0  0  0  0  0  0  0
   13.6659  -18.2177   19.0662 C   0  0  0  0  0  0  0  0  0  0  0  0
   15.0331  -17.7731   18.6918 C   0  0  0  0  0  0  0  0  0  0  0  0
   15.7936  -18.5529   18.0579 O   0  0  0  0  0  0  0  0  0  0  0  0
   11.1954  -16.8841   21.5083 C   0  0  0  0  0  0  0  0  0  0  0  0
   11.7900  -15.8604   21.9578 O   0  0  0  0  0  0  0  0  0  0  0  0
   15.4563  -16.5176   19.0395 O   0  0  0  0  0  0  0  0  0  0  0  0
   10.1266  -17.3945   22.3200 N   0  0  0  0  0  0  0  0  0  0  0  0
    9.6978  -16.7152   23.5298 C   0  0  1  0  0  0  0  0  0  0  0  0
    8.2129  -16.7929   23.6115 C   0  0  0  0  0  0  0  0  0  0  0  0
    7.5416  -15.4823   23.4179 C   0  0  0  0  0  0  0  0  0  0  0  0
    7.0394  -14.9296   22.2542 C   0  0  0  0  0  0  0  0  0  0  0  0
    6.5098  -13.7199   22.5310 N   0  0  0  0  0  0  0  0  0  0  0  0
    6.6409  -13.4466   23.8365 C   0  0  0  0  0  0  0  0  0  0  0  0
    6.2618  -12.3524   24.5840 C   0  0  0  0  0  0  0  0  0  0  0  0
    6.5451  -12.3759   25.9329 C   0  0  0  0  0  0  0  0  0  0  0  0
    7.1925  -13.4723   26.5118 C   0  0  0  0  0  0  0  0  0  0  0  0
    7.5571  -14.5478   25.7376 C   0  0  0  0  0  0  0  0  0  0  0  0
    7.2802  -14.5340   24.3968 C   0  0  0  0  0  0  0  0  0  0  0  0
   10.2823  -17.3960   24.7194 C   0  0  0  0  0  0  0  0  0  0  0  0
   10.5946  -18.5986   24.6430 O   0  0  0  0  0  0  0  0  0  0  0  0
    9.4296  -13.3168   28.7502 C   0  0  0  0  0  0  0  0  0  0  0  0
   10.2400  -14.4425   29.9186 S   0  0  0  0  0  0  0  0  0  0  0  0
   10.4924  -16.0481   29.1984 C   0  0  0  0  0  0  0  0  0  0  0  0
   11.3710  -16.1415   28.0180 C   0  0  0  0  0  0  0  0  0  0  0  0
   11.2065  -17.2687   27.0716 C   0  0  2  0  0  0  0  0  0  0  0  0
   10.4746  -16.6776   25.9108 N   0  0  0  0  0  0  0  0  0  0  0  0
   10.3503  -18.3840   27.5087 C   0  0  0  0  0  0  0  0  0  0  0  0
    9.1334  -18.4525   27.2295 O   0  0  0  0  0  0  0  0  0  0  0  0
   10.8258  -19.4684   28.2771 O   0  0  0  0  0  0  0  0  0  0  0  0
  2  1  1  6
  3  2  1  0
  3  4  1  0
  4  5  1  0
  5  9  1  0
  6  5  2  0
  7  2  1  0
  8  7  2  0
 10  7  1  0
 11 10  1  0
 11 12  1  1
 12 13  1  0
 13 21  1  0
 13 14  2  0
 14 15  1  0
 16 17  2  0
 16 15  1  0
 18 17  1  0
 19 18  2  0
 20 19  1  0
 20 21  2  0
 21 16  1  0
 22 23  2  0
 22 11  1  0
 25 26  1  0
 25 24  1  0
 26 27  1  0
 28 27  1  1
 28 29  1  0
 29 22  1  0
 30 32  1  0
 30 28  1  0
 31 30  2  0
M  END
$$$$
