EWM.pdb
     RDKit          3D

 32 33  0  0  1  0  0  0  0  0999 V2000
   10.6961  -19.0740   19.8003 N   0  0  0  0  0  0  0  0  0  0  0  0
   11.6765  -18.0842   20.1753 C   0  0  1  0  0  0  0  0  0  0  0  0
   12.2535  -17.4454   18.9508 C   0  0  0  0  0  0  0  0  0  0  0  0
   11.2449  -17.3315   17.8522 C   0  0  0  0  0  0  0  0  0  0  0  0
   11.8560  -16.6580   16.6775 C   0  0  0  0  0  0  0  0  0  0  0  0
   13.0461  -16.2478   16.7399 O   0  0  0  0  0  0  0  0  0  0  0  0
   10.9913  -17.0936   21.0582 C   0  0  0  0  0  0  0  0  0  0  0  0
   11.5414  -16.0071   21.4051 O   0  0  0  0  0  0  0  0  0  0  0  0
   11.1199  -16.4879   15.5350 O   0  0  0  0  0  0  0  0  0  0  0  0
    9.6668  -17.3152   21.5663 N   0  0  0  0  0  0  0  0  0  0  0  0
    9.1337  -16.5351   22.6691 C   0  0  1  0  0  0  0  0  0  0  0  0
    7.6666  -16.7773   22.7505 C   0  0  0  0  0  0  0  0  0  0  0  0
    7.0115  -16.0624   23.8754 C   0  0  0  0  0  0  0  0  0  0  0  0
    6.2867  -16.5861   24.9301 C   0  0  0  0  0  0  0  0  0  0  0  0
    5.8721  -15.5786   25.7260 N   0  0  0  0  0  0  0  0  0  0  0  0
    6.2941  -14.4030   25.2400 C   0  0  0  0  0  0  0  0  0  0  0  0
    6.1254  -13.1125   25.6940 C   0  0  0  0  0  0  0  0  0  0  0  0
    6.6954  -12.0992   24.9533 C   0  0  0  0  0  0  0  0  0  0  0  0
    7.4155  -12.3796   23.7874 C   0  0  0  0  0  0  0  0  0  0  0  0
    7.5650  -13.6780   23.3624 C   0  0  0  0  0  0  0  0  0  0  0  0
    7.0025  -14.6916   24.0912 C   0  0  0  0  0  0  0  0  0  0  0  0
    9.7663  -16.9747   23.9445 C   0  0  0  0  0  0  0  0  0  0  0  0
   10.3305  -18.0832   23.9963 O   0  0  0  0  0  0  0  0  0  0  0  0
    9.8684  -12.5023   28.6123 C   0  0  0  0  0  0  0  0  0  0  0  0
   10.4841  -13.8922   29.6013 S   0  0  0  0  0  0  0  0  0  0  0  0
   10.7254  -15.3405   28.5993 C   0  0  0  0  0  0  0  0  0  0  0  0
   10.2407  -15.3020   27.2074 C   0  0  0  0  0  0  0  0  0  0  0  0
   10.4775  -16.4625   26.3183 C   0  0  2  0  0  0  0  0  0  0  0  0
    9.7205  -16.1381   25.0716 N   0  0  0  0  0  0  0  0  0  0  0  0
    9.9229  -17.7558   26.7516 C   0  0  0  0  0  0  0  0  0  0  0  0
    8.7570  -18.1170   26.4803 O   0  0  0  0  0  0  0  0  0  0  0  0
   10.6552  -18.6967   27.5072 O   0  0  0  0  0  0  0  0  0  0  0  0
  2  1  1  6
  3  2  1  0
  3  4  1  0
  4  5  1  0
  5  9  1  0
  6  5  2  0
  7  2  1  0
  8  7  2  0
 10  7  1  0
 11 10  1  0
 11 12  1  1
 12 13  1  0
 13 21  1  0
 13 14  2  0
 14 15  1  0
 16 17  2  0
 16 15  1  0
 18 17  1  0
 19 18  2  0
 20 19  1  0
 20 21  2  0
 21 16  1  0
 22 23  2  0
 22 11  1  0
 25 26  1  0
 25 24  1  0
 26 27  1  0
 28 27  1  1
 28 29  1  0
 29 22  1  0
 30 32  1  0
 30 28  1  0
 31 30  2  0
M  END
$$$$
