EWM.pdb
     RDKit          3D

 32 33  0  0  1  0  0  0  0  0999 V2000
    9.1635  -18.8753   19.7938 N   0  0  0  0  0  0  0  0  0  0  0  0
   10.1663  -17.8385   19.7600 C   0  0  1  0  0  0  0  0  0  0  0  0
    9.9572  -16.9625   18.5644 C   0  0  0  0  0  0  0  0  0  0  0  0
   10.5332  -17.5654   17.3227 C   0  0  0  0  0  0  0  0  0  0  0  0
   10.2932  -16.6618   16.1682 C   0  0  0  0  0  0  0  0  0  0  0  0
   11.1921  -15.8561   15.8061 O   0  0  0  0  0  0  0  0  0  0  0  0
   10.0613  -17.0782   21.0411 C   0  0  0  0  0  0  0  0  0  0  0  0
   10.6729  -15.9851   21.2274 O   0  0  0  0  0  0  0  0  0  0  0  0
    9.0951  -16.7119   15.5061 O   0  0  0  0  0  0  0  0  0  0  0  0
    9.2598  -17.5424   22.1382 N   0  0  0  0  0  0  0  0  0  0  0  0
    9.1826  -16.8087   23.3891 C   0  0  1  0  0  0  0  0  0  0  0  0
    8.0229  -17.3260   24.1669 C   0  0  0  0  0  0  0  0  0  0  0  0
    7.1410  -16.2542   24.6954 C   0  0  0  0  0  0  0  0  0  0  0  0
    5.9041  -16.3706   25.3024 C   0  0  0  0  0  0  0  0  0  0  0  0
    5.4545  -15.1416   25.6306 N   0  0  0  0  0  0  0  0  0  0  0  0
    6.3466  -14.2108   25.2645 C   0  0  0  0  0  0  0  0  0  0  0  0
    6.3373  -12.8378   25.3857 C   0  0  0  0  0  0  0  0  0  0  0  0
    7.4287  -12.1501   24.8998 C   0  0  0  0  0  0  0  0  0  0  0  0
    8.4997  -12.8281   24.3083 C   0  0  0  0  0  0  0  0  0  0  0  0
    8.4773  -14.1983   24.2032 C   0  0  0  0  0  0  0  0  0  0  0  0
    7.3976  -14.8905   24.6828 C   0  0  0  0  0  0  0  0  0  0  0  0
   10.4282  -17.0299   24.1763 C   0  0  0  0  0  0  0  0  0  0  0  0
   11.1646  -17.9938   23.8965 O   0  0  0  0  0  0  0  0  0  0  0  0
    9.4752  -13.5129   30.1060 C   0  0  0  0  0  0  0  0  0  0  0  0
   10.9420  -13.6111   29.0439 S   0  0  0  0  0  0  0  0  0  0  0  0
   10.9180  -15.0811   28.0446 C   0  0  0  0  0  0  0  0  0  0  0  0
   11.9657  -15.2316   27.0182 C   0  0  0  0  0  0  0  0  0  0  0  0
   11.9356  -16.4000   26.1086 C   0  0  2  0  0  0  0  0  0  0  0  0
   10.7586  -16.1527   25.2221 N   0  0  0  0  0  0  0  0  0  0  0  0
   11.6589  -17.7109   26.7195 C   0  0  0  0  0  0  0  0  0  0  0  0
   10.5010  -18.1625   26.8566 O   0  0  0  0  0  0  0  0  0  0  0  0
   12.6713  -18.5684   27.2013 O   0  0  0  0  0  0  0  0  0  0  0  0
  2  1  1  1
  3  2  1  0
  3  4  1  0
  4  5  1  0
  5  9  1  0
  6  5  2  0
  7  2  1  0
  8  7  2  0
 10  7  1  0
 11 10  1  0
 11 12  1  1
 12 13  1  0
 13 21  1  0
 13 14  2  0
 14 15  1  0
 16 17  2  0
 16 15  1  0
 18 17  1  0
 19 18  2  0
 20 19  1  0
 20 21  2  0
 21 16  1  0
 22 23  2  0
 22 11  1  0
 25 26  1  0
 25 24  1  0
 26 27  1  0
 28 27  1  1
 28 29  1  0
 29 22  1  0
 30 32  1  0
 30 28  1  0
 31 30  2  0
M  END
$$$$
