EWM.pdb
     RDKit          3D

 32 33  0  0  1  0  0  0  0  0999 V2000
    9.7414  -19.0132   20.3490 N   0  0  0  0  0  0  0  0  0  0  0  0
   10.8472  -18.0968   20.4871 C   0  0  1  0  0  0  0  0  0  0  0  0
   10.8889  -17.1645   19.3168 C   0  0  0  0  0  0  0  0  0  0  0  0
   11.7592  -17.6861   18.2179 C   0  0  0  0  0  0  0  0  0  0  0  0
   11.7438  -16.7393   17.0732 C   0  0  0  0  0  0  0  0  0  0  0  0
   12.3310  -15.6286   17.1713 O   0  0  0  0  0  0  0  0  0  0  0  0
   10.6632  -17.3713   21.7794 C   0  0  0  0  0  0  0  0  0  0  0  0
   11.5081  -16.5298   22.2055 O   0  0  0  0  0  0  0  0  0  0  0  0
   11.0902  -17.0820   15.9192 O   0  0  0  0  0  0  0  0  0  0  0  0
    9.5159  -17.5855   22.6158 N   0  0  0  0  0  0  0  0  0  0  0  0
    9.3708  -16.9153   23.8960 C   0  0  1  0  0  0  0  0  0  0  0  0
    7.9207  -16.6849   24.1444 C   0  0  0  0  0  0  0  0  0  0  0  0
    7.4600  -15.3321   23.7404 C   0  0  0  0  0  0  0  0  0  0  0  0
    7.1698  -14.8578   22.4744 C   0  0  0  0  0  0  0  0  0  0  0  0
    6.7829  -13.5683   22.5624 N   0  0  0  0  0  0  0  0  0  0  0  0
    6.8049  -13.1661   23.8407 C   0  0  0  0  0  0  0  0  0  0  0  0
    6.4984  -11.9553   24.4236 C   0  0  0  0  0  0  0  0  0  0  0  0
    6.6249  -11.8596   25.7930 C   0  0  0  0  0  0  0  0  0  0  0  0
    7.0487  -12.9545   26.5532 C   0  0  0  0  0  0  0  0  0  0  0  0
    7.3464  -14.1482   25.9404 C   0  0  0  0  0  0  0  0  0  0  0  0
    7.2239  -14.2532   24.5807 C   0  0  0  0  0  0  0  0  0  0  0  0
    9.9136  -17.7829   24.9790 C   0  0  0  0  0  0  0  0  0  0  0  0
    9.1726  -18.6284   25.5135 O   0  0  0  0  0  0  0  0  0  0  0  0
   10.1774  -13.5136   30.5091 C   0  0  0  0  0  0  0  0  0  0  0  0
   10.0211  -14.0304   28.7778 S   0  0  0  0  0  0  0  0  0  0  0  0
   10.8851  -15.5549   28.4788 C   0  0  0  0  0  0  0  0  0  0  0  0
   10.9463  -16.0496   27.0913 C   0  0  0  0  0  0  0  0  0  0  0  0
   11.6095  -17.3425   26.8046 C   0  0  2  0  0  0  0  0  0  0  0  0
   11.2503  -17.6394   25.3849 N   0  0  0  0  0  0  0  0  0  0  0  0
   11.1285  -18.5163   27.5521 C   0  0  0  0  0  0  0  0  0  0  0  0
   11.7206  -18.9680   28.5564 O   0  0  0  0  0  0  0  0  0  0  0  0
    9.9623  -19.2307   27.2025 O   0  0  0  0  0  0  0  0  0  0  0  0
  2  1  1  6
  3  2  1  0
  3  4  1  0
  4  5  1  0
  5  9  1  0
  6  5  2  0
  7  2  1  0
  8  7  2  0
 10  7  1  0
 11 10  1  0
 11 12  1  1
 12 13  1  0
 13 21  1  0
 13 14  2  0
 14 15  1  0
 16 17  2  0
 16 15  1  0
 18 17  1  0
 19 18  2  0
 20 19  1  0
 20 21  2  0
 21 16  1  0
 22 23  2  0
 22 11  1  0
 25 26  1  0
 25 24  1  0
 26 27  1  0
 28 27  1  1
 28 29  1  0
 29 22  1  0
 30 32  1  0
 30 28  1  0
 31 30  2  0
M  END
$$$$
