EWM.pdb
     RDKit          3D

 32 33  0  0  1  0  0  0  0  0999 V2000
    8.7032  -16.7134   18.2283 N   0  0  0  0  0  0  0  0  0  0  0  0
    9.6750  -17.2709   19.1373 C   0  0  1  0  0  0  0  0  0  0  0  0
   11.0549  -17.0881   18.5869 C   0  0  0  0  0  0  0  0  0  0  0  0
   12.0798  -17.8187   19.3950 C   0  0  0  0  0  0  0  0  0  0  0  0
   13.4134  -17.6841   18.7543 C   0  0  0  0  0  0  0  0  0  0  0  0
   13.5095  -17.7065   17.4979 O   0  0  0  0  0  0  0  0  0  0  0  0
    9.4972  -16.5850   20.4519 C   0  0  0  0  0  0  0  0  0  0  0  0
    9.6830  -15.3403   20.5927 O   0  0  0  0  0  0  0  0  0  0  0  0
   14.5288  -17.5370   19.5355 O   0  0  0  0  0  0  0  0  0  0  0  0
    9.1045  -17.2974   21.6352 N   0  0  0  0  0  0  0  0  0  0  0  0
    8.9359  -16.6224   22.9099 C   0  0  1  0  0  0  0  0  0  0  0  0
    7.7752  -17.2330   23.6154 C   0  0  0  0  0  0  0  0  0  0  0  0
    7.0512  -16.2803   24.4951 C   0  0  0  0  0  0  0  0  0  0  0  0
    5.9898  -16.5232   25.3473 C   0  0  0  0  0  0  0  0  0  0  0  0
    5.6405  -15.3723   25.9588 N   0  0  0  0  0  0  0  0  0  0  0  0
    6.4303  -14.3717   25.5451 C   0  0  0  0  0  0  0  0  0  0  0  0
    6.4619  -13.0345   25.8778 C   0  0  0  0  0  0  0  0  0  0  0  0
    7.4153  -12.2500   25.2648 C   0  0  0  0  0  0  0  0  0  0  0  0
    8.3119  -12.7987   24.3420 C   0  0  0  0  0  0  0  0  0  0  0  0
    8.2534  -14.1366   24.0326 C   0  0  0  0  0  0  0  0  0  0  0  0
    7.3099  -14.9242   24.6361 C   0  0  0  0  0  0  0  0  0  0  0  0
   10.1584  -16.8105   23.7408 C   0  0  0  0  0  0  0  0  0  0  0  0
   11.1362  -17.4134   23.2613 O   0  0  0  0  0  0  0  0  0  0  0  0
    9.1258  -12.1815   28.4691 C   0  0  0  0  0  0  0  0  0  0  0  0
    9.9627  -13.7695   28.7272 S   0  0  0  0  0  0  0  0  0  0  0  0
   10.4518  -14.5000   27.1821 C   0  0  0  0  0  0  0  0  0  0  0  0
   11.0105  -15.8640   27.2129 C   0  0  0  0  0  0  0  0  0  0  0  0
   11.3735  -16.5344   25.9431 C   0  0  2  0  0  0  0  0  0  0  0  0
   10.1960  -16.3079   25.0517 N   0  0  0  0  0  0  0  0  0  0  0  0
   11.5202  -17.9989   25.9831 C   0  0  0  0  0  0  0  0  0  0  0  0
   12.6327  -18.5660   26.0467 O   0  0  0  0  0  0  0  0  0  0  0  0
   10.4231  -18.8867   25.9536 O   0  0  0  0  0  0  0  0  0  0  0  0
  2  1  1  6
  3  2  1  0
  3  4  1  0
  4  5  1  0
  5  9  1  0
  6  5  2  0
  7  2  1  0
  8  7  2  0
 10  7  1  0
 11 10  1  0
 11 12  1  1
 12 13  1  0
 13 21  1  0
 13 14  2  0
 14 15  1  0
 16 17  2  0
 16 15  1  0
 18 17  1  0
 19 18  2  0
 20 19  1  0
 20 21  2  0
 21 16  1  0
 22 23  2  0
 22 11  1  0
 25 26  1  0
 25 24  1  0
 26 27  1  0
 28 27  1  1
 28 29  1  0
 29 22  1  0
 30 32  1  0
 30 28  1  0
 31 30  2  0
M  END
$$$$
