EWM.pdb
     RDKit          3D

 32 33  0  0  1  0  0  0  0  0999 V2000
    9.4651  -18.3804   18.7691 N   0  0  0  0  0  0  0  0  0  0  0  0
    9.8861  -17.0119   18.5912 C   0  0  1  0  0  0  0  0  0  0  0  0
    9.2258  -16.4260   17.3824 C   0  0  0  0  0  0  0  0  0  0  0  0
   10.2202  -16.0461   16.3317 C   0  0  0  0  0  0  0  0  0  0  0  0
   10.1148  -16.9788   15.1802 C   0  0  0  0  0  0  0  0  0  0  0  0
    9.5273  -16.6105   14.1277 O   0  0  0  0  0  0  0  0  0  0  0  0
    9.5328  -16.2732   19.8401 C   0  0  0  0  0  0  0  0  0  0  0  0
    9.7156  -15.0259   19.9593 O   0  0  0  0  0  0  0  0  0  0  0  0
   10.6574  -18.2331   15.2723 O   0  0  0  0  0  0  0  0  0  0  0  0
    8.9643  -16.9348   20.9806 N   0  0  0  0  0  0  0  0  0  0  0  0
    8.6430  -16.2120   22.1986 C   0  0  1  0  0  0  0  0  0  0  0  0
    7.2535  -16.5648   22.6019 C   0  0  0  0  0  0  0  0  0  0  0  0
    6.8215  -15.9123   23.8642 C   0  0  0  0  0  0  0  0  0  0  0  0
    6.3338  -16.4965   25.0187 C   0  0  0  0  0  0  0  0  0  0  0  0
    6.0651  -15.5324   25.9235 N   0  0  0  0  0  0  0  0  0  0  0  0
    6.3559  -14.3274   25.4139 C   0  0  0  0  0  0  0  0  0  0  0  0
    6.2537  -13.0605   25.9471 C   0  0  0  0  0  0  0  0  0  0  0  0
    6.6420  -12.0036   25.1518 C   0  0  0  0  0  0  0  0  0  0  0  0
    7.1202  -12.2185   23.8550 C   0  0  0  0  0  0  0  0  0  0  0  0
    7.2096  -13.4950   23.3537 C   0  0  0  0  0  0  0  0  0  0  0  0
    6.8262  -14.5515   24.1359 C   0  0  0  0  0  0  0  0  0  0  0  0
    9.5784  -16.6204   23.2841 C   0  0  0  0  0  0  0  0  0  0  0  0
   10.2202  -17.6810   23.1705 O   0  0  0  0  0  0  0  0  0  0  0  0
    9.2949  -13.1046   28.8143 C   0  0  0  0  0  0  0  0  0  0  0  0
   10.8875  -13.9432   29.0366 S   0  0  0  0  0  0  0  0  0  0  0  0
   11.0864  -15.2704   27.8708 C   0  0  0  0  0  0  0  0  0  0  0  0
   10.4757  -15.1121   26.5383 C   0  0  0  0  0  0  0  0  0  0  0  0
   10.6961  -16.1499   25.5050 C   0  0  2  0  0  0  0  0  0  0  0  0
    9.7268  -15.8085   24.4203 N   0  0  0  0  0  0  0  0  0  0  0  0
   10.3558  -17.5350   25.8709 C   0  0  0  0  0  0  0  0  0  0  0  0
   11.2061  -18.3548   26.2809 O   0  0  0  0  0  0  0  0  0  0  0  0
    9.0463  -18.0558   25.7918 O   0  0  0  0  0  0  0  0  0  0  0  0
  2  1  1  1
  3  2  1  0
  3  4  1  0
  4  5  1  0
  5  9  1  0
  6  5  2  0
  7  2  1  0
  8  7  2  0
 10  7  1  0
 11 10  1  0
 11 12  1  1
 12 13  1  0
 13 21  1  0
 13 14  2  0
 14 15  1  0
 16 17  2  0
 16 15  1  0
 18 17  1  0
 19 18  2  0
 20 19  1  0
 20 21  2  0
 21 16  1  0
 22 23  2  0
 22 11  1  0
 25 26  1  0
 25 24  1  0
 26 27  1  0
 28 27  1  1
 28 29  1  0
 29 22  1  0
 30 32  1  0
 30 28  1  0
 31 30  2  0
M  END
$$$$
