EWM.pdb
     RDKit          3D

 32 33  0  0  1  0  0  0  0  0999 V2000
    9.6697  -16.4830   19.4388 N   0  0  0  0  0  0  0  0  0  0  0  0
   10.4039  -17.3029   20.3717 C   0  0  1  0  0  0  0  0  0  0  0  0
   11.8409  -17.3848   19.9606 C   0  0  0  0  0  0  0  0  0  0  0  0
   12.0065  -18.0726   18.6428 C   0  0  0  0  0  0  0  0  0  0  0  0
   13.4499  -18.1673   18.3040 C   0  0  0  0  0  0  0  0  0  0  0  0
   14.3123  -17.7213   19.1075 O   0  0  0  0  0  0  0  0  0  0  0  0
   10.2387  -16.6922   21.7245 C   0  0  0  0  0  0  0  0  0  0  0  0
   10.5127  -15.4771   21.9528 O   0  0  0  0  0  0  0  0  0  0  0  0
   13.8317  -18.7391   17.1193 O   0  0  0  0  0  0  0  0  0  0  0  0
    9.7587  -17.4477   22.8472 N   0  0  0  0  0  0  0  0  0  0  0  0
    9.6118  -16.8484   24.1618 C   0  0  1  0  0  0  0  0  0  0  0  0
    8.2827  -17.2368   24.7098 C   0  0  0  0  0  0  0  0  0  0  0  0
    7.2606  -16.1655   24.5947 C   0  0  0  0  0  0  0  0  0  0  0  0
    6.0220  -16.2119   23.9818 C   0  0  0  0  0  0  0  0  0  0  0  0
    5.4170  -15.0133   24.1146 N   0  0  0  0  0  0  0  0  0  0  0  0
    6.2073  -14.1701   24.7934 C   0  0  0  0  0  0  0  0  0  0  0  0
    6.0304  -12.8570   25.1733 C   0  0  0  0  0  0  0  0  0  0  0  0
    7.0521  -12.2567   25.8777 C   0  0  0  0  0  0  0  0  0  0  0  0
    8.2193  -12.9610   26.1904 C   0  0  0  0  0  0  0  0  0  0  0  0
    8.3637  -14.2699   25.7966 C   0  0  0  0  0  0  0  0  0  0  0  0
    7.3545  -14.8750   25.0964 C   0  0  0  0  0  0  0  0  0  0  0  0
   10.6762  -17.3639   25.0682 C   0  0  0  0  0  0  0  0  0  0  0  0
   11.1255  -18.5114   24.8923 O   0  0  0  0  0  0  0  0  0  0  0  0
    9.7479  -13.4110   30.4982 C   0  0  0  0  0  0  0  0  0  0  0  0
   11.3120  -13.9358   29.7451 S   0  0  0  0  0  0  0  0  0  0  0  0
   11.1174  -15.4578   28.8475 C   0  0  0  0  0  0  0  0  0  0  0  0
   12.2780  -15.9632   28.0916 C   0  0  0  0  0  0  0  0  0  0  0  0
   12.0995  -17.0854   27.1417 C   0  0  2  0  0  0  0  0  0  0  0  0
   11.1608  -16.5538   26.1080 N   0  0  0  0  0  0  0  0  0  0  0  0
   11.4267  -18.2903   27.6554 C   0  0  0  0  0  0  0  0  0  0  0  0
   10.1900  -18.4583   27.5808 O   0  0  0  0  0  0  0  0  0  0  0  0
   12.1156  -19.3560   28.2735 O   0  0  0  0  0  0  0  0  0  0  0  0
  2  1  1  6
  3  2  1  0
  3  4  1  0
  4  5  1  0
  5  9  1  0
  6  5  2  0
  7  2  1  0
  8  7  2  0
 10  7  1  0
 11 10  1  0
 11 12  1  1
 12 13  1  0
 13 21  1  0
 13 14  2  0
 14 15  1  0
 16 17  2  0
 16 15  1  0
 18 17  1  0
 19 18  2  0
 20 19  1  0
 20 21  2  0
 21 16  1  0
 22 23  2  0
 22 11  1  0
 25 26  1  0
 25 24  1  0
 26 27  1  0
 28 27  1  1
 28 29  1  0
 29 22  1  0
 30 32  1  0
 30 28  1  0
 31 30  2  0
M  END
$$$$
