WKM.pdb
     RDKit          3D

 32 33  0  0  1  0  0  0  0  0999 V2000
   24.4065  -21.3408   -7.5321 N   0  0  0  0  0  0  0  0  0  0  0  0
   25.3641  -20.5804   -8.2852 C   0  0  1  0  0  0  0  0  0  0  0  0
   26.7671  -20.7077   -7.7445 C   0  0  0  0  0  0  0  0  0  0  0  0
   26.8731  -20.5451   -6.2971 C   0  0  0  0  0  0  0  0  0  0  0  0
   26.1078  -21.1699   -5.3370 C   0  0  0  0  0  0  0  0  0  0  0  0
   26.5445  -20.7294   -4.1447 N   0  0  0  0  0  0  0  0  0  0  0  0
   27.5573  -19.8497   -4.3211 C   0  0  0  0  0  0  0  0  0  0  0  0
   28.3363  -19.1247   -3.4421 C   0  0  0  0  0  0  0  0  0  0  0  0
   29.3349  -18.2695   -3.8580 C   0  0  0  0  0  0  0  0  0  0  0  0
   29.5461  -18.1497   -5.2154 C   0  0  0  0  0  0  0  0  0  0  0  0
   28.7853  -18.8598   -6.1190 C   0  0  0  0  0  0  0  0  0  0  0  0
   27.7840  -19.7161   -5.6729 C   0  0  0  0  0  0  0  0  0  0  0  0
   25.3991  -20.9628   -9.7065 C   0  0  0  0  0  0  0  0  0  0  0  0
   26.0571  -21.9815  -10.0398 O   0  0  0  0  0  0  0  0  0  0  0  0
   24.7379  -20.2631  -10.7583 N   0  0  0  0  0  0  0  0  0  0  0  0
   24.8841  -20.6059  -12.1432 C   0  0  1  0  0  0  0  0  0  0  0  0
   23.9347  -20.0463  -13.1138 C   0  0  0  0  0  0  0  0  0  0  0  0
   24.1374  -20.4595  -14.5134 C   0  0  0  0  0  0  0  0  0  0  0  0
   23.9063  -21.9090  -14.7835 C   0  0  0  0  0  0  0  0  0  0  0  0
   24.1805  -22.1493  -16.2828 C   0  0  0  0  0  0  0  0  0  0  0  0
   23.9641  -23.5769  -16.5282 N   0  0  0  0  0  0  0  0  0  0  0  0
   26.3121  -20.1849  -12.4882 C   0  0  0  0  0  0  0  0  0  0  0  0
   26.7256  -19.0464  -12.1873 O   0  0  0  0  0  0  0  0  0  0  0  0
   31.6602  -22.3334  -10.2551 C   0  0  0  0  0  0  0  0  0  0  0  0
   31.8498  -22.6677  -12.0347 S   0  0  0  0  0  0  0  0  0  0  0  0
   30.9056  -21.4466  -12.9353 C   0  0  0  0  0  0  0  0  0  0  0  0
   29.4449  -21.5653  -12.7402 C   0  0  0  0  0  0  0  0  0  0  0  0
   28.5452  -20.6124  -13.4527 C   0  0  2  0  0  0  0  0  0  0  0  0
   27.1784  -21.0775  -13.1499 N   0  0  0  0  0  0  0  0  0  0  0  0
   28.7154  -20.4626  -14.8981 C   0  0  0  0  0  0  0  0  0  0  0  0
   28.1342  -21.1752  -15.7514 O   0  0  0  0  0  0  0  0  0  0  0  0
   29.5637  -19.4844  -15.4443 O   0  0  0  0  0  0  0  0  0  0  0  0
  2  1  1  1
  2  3  1  0
  4  5  2  0
  4  3  1  0
  6  5  1  0
  7 12  2  0
  7  6  1  0
  8  7  1  0
  9  8  2  0
  9 10  1  0
 10 11  2  0
 11 12  1  0
 12  4  1  0
 13  2  1  0
 13 14  2  0
 15 13  1  0
 16 15  1  0
 16 17  1  6
 18 17  1  0
 19 18  1  0
 20 19  1  0
 21 20  1  0
 22 29  1  0
 22 16  1  0
 23 22  2  0
 24 25  1  0
 25 26  1  0
 26 27  1  0
 28 29  1  0
 28 27  1  6
 30 32  1  0
 30 28  1  0
 31 30  2  0
M  END
$$$$
