WKM.pdb
     RDKit          3D

 32 33  0  0  1  0  0  0  0  0999 V2000
   17.4763  -21.6035  -12.5350 N   0  0  0  0  0  0  0  0  0  0  0  0
   18.5814  -22.2805  -11.9161 C   0  0  1  0  0  0  0  0  0  0  0  0
   19.6249  -21.3297  -11.3830 C   0  0  0  0  0  0  0  0  0  0  0  0
   20.1945  -20.4346  -12.3865 C   0  0  0  0  0  0  0  0  0  0  0  0
   20.0591  -19.0648  -12.4443 C   0  0  0  0  0  0  0  0  0  0  0  0
   20.7429  -18.6520  -13.5252 N   0  0  0  0  0  0  0  0  0  0  0  0
   21.3035  -19.7137  -14.1491 C   0  0  0  0  0  0  0  0  0  0  0  0
   22.0886  -19.8336  -15.2781 C   0  0  0  0  0  0  0  0  0  0  0  0
   22.5571  -21.0462  -15.7379 C   0  0  0  0  0  0  0  0  0  0  0  0
   22.2136  -22.1741  -15.0228 C   0  0  0  0  0  0  0  0  0  0  0  0
   21.4312  -22.0881  -13.8915 C   0  0  0  0  0  0  0  0  0  0  0  0
   20.9716  -20.8521  -13.4488 C   0  0  0  0  0  0  0  0  0  0  0  0
   18.1621  -23.1492  -10.8039 C   0  0  0  0  0  0  0  0  0  0  0  0
   17.1200  -22.8504  -10.1664 O   0  0  0  0  0  0  0  0  0  0  0  0
   18.8503  -24.3236  -10.3792 N   0  0  0  0  0  0  0  0  0  0  0  0
   18.2163  -25.3874   -9.6558 C   0  0  1  0  0  0  0  0  0  0  0  0
   18.5436  -26.7749  -10.0082 C   0  0  0  0  0  0  0  0  0  0  0  0
   19.9778  -27.0675  -10.1763 C   0  0  0  0  0  0  0  0  0  0  0  0
   20.3034  -28.5004  -10.4371 C   0  0  0  0  0  0  0  0  0  0  0  0
   20.8758  -28.5915  -11.8671 C   0  0  0  0  0  0  0  0  0  0  0  0
   21.1798  -30.0033  -12.1113 N   0  0  0  0  0  0  0  0  0  0  0  0
   18.5646  -25.1106   -8.1938 C   0  0  0  0  0  0  0  0  0  0  0  0
   19.7343  -24.8240   -7.8661 O   0  0  0  0  0  0  0  0  0  0  0  0
   14.7013  -25.6277   -1.4554 C   0  0  0  0  0  0  0  0  0  0  0  0
   14.9788  -24.6586   -2.9715 S   0  0  0  0  0  0  0  0  0  0  0  0
   16.4639  -25.2664   -3.7580 C   0  0  0  0  0  0  0  0  0  0  0  0
   16.7471  -24.6292   -5.0615 C   0  0  0  0  0  0  0  0  0  0  0  0
   17.9886  -25.0130   -5.7942 C   0  0  2  0  0  0  0  0  0  0  0  0
   17.5690  -25.1755   -7.1990 N   0  0  0  0  0  0  0  0  0  0  0  0
   18.7067  -26.2055   -5.3440 C   0  0  0  0  0  0  0  0  0  0  0  0
   18.6262  -27.3263   -5.9017 O   0  0  0  0  0  0  0  0  0  0  0  0
   19.5587  -26.1766   -4.2268 O   0  0  0  0  0  0  0  0  0  0  0  0
  2  1  1  1
  2  3  1  0
  4  5  2  0
  4  3  1  0
  6  5  1  0
  7 12  2  0
  7  6  1  0
  8  7  1  0
  9  8  2  0
  9 10  1  0
 10 11  2  0
 11 12  1  0
 12  4  1  0
 13  2  1  0
 13 14  2  0
 15 13  1  0
 16 15  1  0
 16 17  1  6
 18 17  1  0
 19 18  1  0
 20 19  1  0
 21 20  1  0
 22 29  1  0
 22 16  1  0
 23 22  2  0
 24 25  1  0
 25 26  1  0
 26 27  1  0
 28 29  1  0
 28 27  1  1
 30 32  1  0
 30 28  1  0
 31 30  2  0
M  END
$$$$
