WKM.pdb
     RDKit          3D

 32 33  0  0  1  0  0  0  0  0999 V2000
   25.4588  -19.1101  -12.0252 N   0  0  0  0  0  0  0  0  0  0  0  0
   26.2575  -20.2787  -12.2679 C   0  0  1  0  0  0  0  0  0  0  0  0
   26.0734  -21.3420  -11.2132 C   0  0  0  0  0  0  0  0  0  0  0  0
   26.1896  -20.8570   -9.8407 C   0  0  0  0  0  0  0  0  0  0  0  0
   25.1837  -20.3250   -9.0640 C   0  0  0  0  0  0  0  0  0  0  0  0
   25.7325  -20.0132   -7.8775 N   0  0  0  0  0  0  0  0  0  0  0  0
   27.0479  -20.3305   -7.8804 C   0  0  0  0  0  0  0  0  0  0  0  0
   28.0444  -20.2161   -6.9322 C   0  0  0  0  0  0  0  0  0  0  0  0
   29.3444  -20.6147   -7.1617 C   0  0  0  0  0  0  0  0  0  0  0  0
   29.6379  -21.1477   -8.3991 C   0  0  0  0  0  0  0  0  0  0  0  0
   28.6654  -21.2754   -9.3674 C   0  0  0  0  0  0  0  0  0  0  0  0
   27.3613  -20.8655   -9.1101 C   0  0  0  0  0  0  0  0  0  0  0  0
   25.9759  -20.8956  -13.5747 C   0  0  0  0  0  0  0  0  0  0  0  0
   24.8379  -20.7325  -14.0847 O   0  0  0  0  0  0  0  0  0  0  0  0
   26.9013  -21.6777  -14.3264 N   0  0  0  0  0  0  0  0  0  0  0  0
   26.6898  -22.0427  -15.6972 C   0  0  1  0  0  0  0  0  0  0  0  0
   27.8453  -22.4519  -16.5059 C   0  0  0  0  0  0  0  0  0  0  0  0
   28.7112  -21.3574  -16.9783 C   0  0  0  0  0  0  0  0  0  0  0  0
   29.6723  -21.7333  -18.0565 C   0  0  0  0  0  0  0  0  0  0  0  0
   30.4417  -20.4568  -18.4555 C   0  0  0  0  0  0  0  0  0  0  0  0
   31.4550  -20.8623  -19.4322 N   0  0  0  0  0  0  0  0  0  0  0  0
   25.6563  -23.1666  -15.6341 C   0  0  0  0  0  0  0  0  0  0  0  0
   25.9191  -24.2346  -15.0441 O   0  0  0  0  0  0  0  0  0  0  0  0
   20.0242  -22.1451  -14.1793 C   0  0  0  0  0  0  0  0  0  0  0  0
   19.5175  -23.6589  -15.0547 S   0  0  0  0  0  0  0  0  0  0  0  0
   20.9895  -24.4755  -15.6545 C   0  0  0  0  0  0  0  0  0  0  0  0
   22.1638  -23.5828  -15.7529 C   0  0  0  0  0  0  0  0  0  0  0  0
   23.4657  -24.1553  -16.2031 C   0  0  2  0  0  0  0  0  0  0  0  0
   24.3945  -23.0098  -16.2412 N   0  0  0  0  0  0  0  0  0  0  0  0
   23.4940  -24.8667  -17.4812 C   0  0  0  0  0  0  0  0  0  0  0  0
   23.8632  -24.3517  -18.5638 O   0  0  0  0  0  0  0  0  0  0  0  0
   23.0993  -26.2114  -17.5867 O   0  0  0  0  0  0  0  0  0  0  0  0
  2  1  1  1
  2  3  1  0
  4  5  2  0
  4  3  1  0
  6  5  1  0
  7 12  2  0
  7  6  1  0
  8  7  1  0
  9  8  2  0
  9 10  1  0
 10 11  2  0
 11 12  1  0
 12  4  1  0
 13  2  1  0
 13 14  2  0
 15 13  1  0
 16 15  1  0
 16 17  1  1
 18 17  1  0
 19 18  1  0
 20 19  1  0
 21 20  1  0
 22 29  1  0
 22 16  1  0
 23 22  2  0
 24 25  1  0
 25 26  1  0
 26 27  1  0
 28 29  1  0
 28 27  1  6
 30 32  1  0
 30 28  1  0
 31 30  2  0
M  END
$$$$
