WKM.pdb
     RDKit          3D

 32 33  0  0  1  0  0  0  0  0999 V2000
   15.5760  -16.7523    4.8944 N   0  0  0  0  0  0  0  0  0  0  0  0
   16.7667  -17.5543    4.8532 C   0  0  1  0  0  0  0  0  0  0  0  0
   18.0181  -16.7570    5.1276 C   0  0  0  0  0  0  0  0  0  0  0  0
   18.3207  -15.7435    4.1207 C   0  0  0  0  0  0  0  0  0  0  0  0
   17.8129  -14.4644    4.0569 C   0  0  0  0  0  0  0  0  0  0  0  0
   18.3584  -13.8833    2.9748 N   0  0  0  0  0  0  0  0  0  0  0  0
   19.1914  -14.7516    2.3559 C   0  0  0  0  0  0  0  0  0  0  0  0
   19.9812  -14.6547    1.2281 C   0  0  0  0  0  0  0  0  0  0  0  0
   20.7670  -15.6929    0.7738 C   0  0  0  0  0  0  0  0  0  0  0  0
   20.7465  -16.8689    1.4936 C   0  0  0  0  0  0  0  0  0  0  0  0
   19.9685  -16.9976    2.6239 C   0  0  0  0  0  0  0  0  0  0  0  0
   19.1849  -15.9346    3.0608 C   0  0  0  0  0  0  0  0  0  0  0  0
   16.7313  -18.6701    5.8130 C   0  0  0  0  0  0  0  0  0  0  0  0
   16.3742  -18.4357    6.9959 O   0  0  0  0  0  0  0  0  0  0  0  0
   17.0743  -20.0205    5.5102 N   0  0  0  0  0  0  0  0  0  0  0  0
   17.1716  -21.0485    6.5057 C   0  0  1  0  0  0  0  0  0  0  0  0
   17.0369  -22.4504    6.0894 C   0  0  0  0  0  0  0  0  0  0  0  0
   15.7075  -22.8405    5.5882 C   0  0  0  0  0  0  0  0  0  0  0  0
   15.6010  -22.9548    4.1039 C   0  0  0  0  0  0  0  0  0  0  0  0
   14.1378  -23.3142    3.7717 C   0  0  0  0  0  0  0  0  0  0  0  0
   14.0671  -23.4989    2.3206 N   0  0  0  0  0  0  0  0  0  0  0  0
   18.5325  -20.8134    7.1600 C   0  0  0  0  0  0  0  0  0  0  0  0
   19.5378  -20.5751    6.4599 O   0  0  0  0  0  0  0  0  0  0  0  0
   22.3459  -16.4267    8.1591 C   0  0  0  0  0  0  0  0  0  0  0  0
   22.0827  -18.0493    8.9419 S   0  0  0  0  0  0  0  0  0  0  0  0
   20.3428  -18.2129    9.3150 C   0  0  0  0  0  0  0  0  0  0  0  0
   19.9920  -19.5001    9.9517 C   0  0  0  0  0  0  0  0  0  0  0  0
   20.0251  -20.7424    9.1264 C   0  0  2  0  0  0  0  0  0  0  0  0
   18.6676  -20.8627    8.5616 N   0  0  0  0  0  0  0  0  0  0  0  0
   20.4063  -21.9913    9.7863 C   0  0  0  0  0  0  0  0  0  0  0  0
   19.5869  -22.8082   10.2710 O   0  0  0  0  0  0  0  0  0  0  0  0
   21.7519  -22.3719    9.9259 O   0  0  0  0  0  0  0  0  0  0  0  0
  2  1  1  1
  2  3  1  0
  4  5  2  0
  4  3  1  0
  6  5  1  0
  7 12  2  0
  7  6  1  0
  8  7  1  0
  9  8  2  0
  9 10  1  0
 10 11  2  0
 11 12  1  0
 12  4  1  0
 13  2  1  0
 13 14  2  0
 15 13  1  0
 16 15  1  0
 16 17  1  6
 18 17  1  0
 19 18  1  0
 20 19  1  0
 21 20  1  0
 22 29  1  0
 22 16  1  0
 23 22  2  0
 24 25  1  0
 25 26  1  0
 26 27  1  0
 28 29  1  0
 28 27  1  1
 30 32  1  0
 30 28  1  0
 31 30  2  0
M  END
$$$$
