WKM.pdb
     RDKit          3D

 32 33  0  0  1  0  0  0  0  0999 V2000
   24.7124  -19.0659   -9.2792 N   0  0  0  0  0  0  0  0  0  0  0  0
   25.8792  -19.8145   -9.6542 C   0  0  1  0  0  0  0  0  0  0  0  0
   26.0555  -21.0707   -8.8369 C   0  0  0  0  0  0  0  0  0  0  0  0
   26.1453  -20.8459   -7.3967 C   0  0  0  0  0  0  0  0  0  0  0  0
   25.1199  -20.9342   -6.4809 C   0  0  0  0  0  0  0  0  0  0  0  0
   25.6476  -20.6496   -5.2780 N   0  0  0  0  0  0  0  0  0  0  0  0
   26.9686  -20.3856   -5.4051 C   0  0  0  0  0  0  0  0  0  0  0  0
   27.9509  -20.0464   -4.4966 C   0  0  0  0  0  0  0  0  0  0  0  0
   29.2610  -19.8190   -4.8618 C   0  0  0  0  0  0  0  0  0  0  0  0
   29.5800  -19.9415   -6.1977 C   0  0  0  0  0  0  0  0  0  0  0  0
   28.6223  -20.2787   -7.1297 C   0  0  0  0  0  0  0  0  0  0  0  0
   27.3075  -20.5030   -6.7347 C   0  0  0  0  0  0  0  0  0  0  0  0
   25.8691  -20.2055  -11.0735 C   0  0  0  0  0  0  0  0  0  0  0  0
   24.7733  -20.2036  -11.6907 O   0  0  0  0  0  0  0  0  0  0  0  0
   27.0181  -20.5943  -11.8230 N   0  0  0  0  0  0  0  0  0  0  0  0
   27.2731  -20.1434  -13.1604 C   0  0  1  0  0  0  0  0  0  0  0  0
   28.6580  -20.1275  -13.6488 C   0  0  0  0  0  0  0  0  0  0  0  0
   28.8326  -19.7211  -15.0542 C   0  0  0  0  0  0  0  0  0  0  0  0
   28.1816  -18.4299  -15.4235 C   0  0  0  0  0  0  0  0  0  0  0  0
   28.5639  -18.1211  -16.8861 C   0  0  0  0  0  0  0  0  0  0  0  0
   27.8644  -16.8882  -17.2543 N   0  0  0  0  0  0  0  0  0  0  0  0
   26.4076  -21.0486  -14.0361 C   0  0  0  0  0  0  0  0  0  0  0  0
   26.2949  -22.2632  -13.7722 O   0  0  0  0  0  0  0  0  0  0  0  0
   22.0176  -23.5663  -12.5748 C   0  0  0  0  0  0  0  0  0  0  0  0
   21.2585  -22.5101  -13.8487 S   0  0  0  0  0  0  0  0  0  0  0  0
   22.4304  -22.3171  -15.1840 C   0  0  0  0  0  0  0  0  0  0  0  0
   23.6255  -21.5295  -14.8141 C   0  0  0  0  0  0  0  0  0  0  0  0
   24.7237  -21.3785  -15.8124 C   0  0  2  0  0  0  0  0  0  0  0  0
   25.7265  -20.5220  -15.1514 N   0  0  0  0  0  0  0  0  0  0  0  0
   24.3830  -20.8303  -17.1254 C   0  0  0  0  0  0  0  0  0  0  0  0
   23.5720  -19.8903  -17.3052 O   0  0  0  0  0  0  0  0  0  0  0  0
   24.9562  -21.3320  -18.3064 O   0  0  0  0  0  0  0  0  0  0  0  0
  2  1  1  1
  2  3  1  0
  4  5  2  0
  4  3  1  0
  6  5  1  0
  7 12  2  0
  7  6  1  0
  8  7  1  0
  9  8  2  0
  9 10  1  0
 10 11  2  0
 11 12  1  0
 12  4  1  0
 13  2  1  0
 13 14  2  0
 15 13  1  0
 16 15  1  0
 16 17  1  6
 18 17  1  0
 19 18  1  0
 20 19  1  0
 21 20  1  0
 22 29  1  0
 22 16  1  0
 23 22  2  0
 24 25  1  0
 25 26  1  0
 26 27  1  0
 28 29  1  0
 28 27  1  1
 30 32  1  0
 30 28  1  0
 31 30  2  0
M  END
$$$$
