WKM.pdb
     RDKit          3D

 32 33  0  0  1  0  0  0  0  0999 V2000
   19.6619  -18.0624  -19.0256 N   0  0  0  0  0  0  0  0  0  0  0  0
   20.5032  -17.5952  -17.9596 C   0  0  1  0  0  0  0  0  0  0  0  0
   19.7197  -17.0099  -16.8103 C   0  0  0  0  0  0  0  0  0  0  0  0
   18.9236  -15.8362  -17.1586 C   0  0  0  0  0  0  0  0  0  0  0  0
   17.5676  -15.7991  -17.3995 C   0  0  0  0  0  0  0  0  0  0  0  0
   17.2581  -14.5222  -17.6823 N   0  0  0  0  0  0  0  0  0  0  0  0
   18.3713  -13.7550  -17.6276 C   0  0  0  0  0  0  0  0  0  0  0  0
   18.5956  -12.4082  -17.8303 C   0  0  0  0  0  0  0  0  0  0  0  0
   19.8435  -11.8326  -17.7176 C   0  0  0  0  0  0  0  0  0  0  0  0
   20.8978  -12.6577  -17.3874 C   0  0  0  0  0  0  0  0  0  0  0  0
   20.7070  -14.0066  -17.1787 C   0  0  0  0  0  0  0  0  0  0  0  0
   19.4375  -14.5623  -17.2985 C   0  0  0  0  0  0  0  0  0  0  0  0
   21.3673  -18.6552  -17.4142 C   0  0  0  0  0  0  0  0  0  0  0  0
   20.8890  -19.8101  -17.2758 O   0  0  0  0  0  0  0  0  0  0  0  0
   22.7268  -18.4807  -17.0214 N   0  0  0  0  0  0  0  0  0  0  0  0
   23.5503  -19.5534  -16.5435 C   0  0  1  0  0  0  0  0  0  0  0  0
   25.0010  -19.3442  -16.4528 C   0  0  0  0  0  0  0  0  0  0  0  0
   25.7676  -20.4515  -15.8552 C   0  0  0  0  0  0  0  0  0  0  0  0
   26.8453  -21.0129  -16.7216 C   0  0  0  0  0  0  0  0  0  0  0  0
   27.4064  -22.2620  -16.0104 C   0  0  0  0  0  0  0  0  0  0  0  0
   28.5270  -22.7424  -16.8219 N   0  0  0  0  0  0  0  0  0  0  0  0
   22.9717  -19.8910  -15.1699 C   0  0  0  0  0  0  0  0  0  0  0  0
   22.6758  -18.9817  -14.3678 O   0  0  0  0  0  0  0  0  0  0  0  0
   22.2298  -26.2050  -12.1590 C   0  0  0  0  0  0  0  0  0  0  0  0
   20.7385  -25.1877  -12.3945 S   0  0  0  0  0  0  0  0  0  0  0  0
   21.2013  -23.4705  -12.2195 C   0  0  0  0  0  0  0  0  0  0  0  0
   21.6860  -22.8569  -13.4742 C   0  0  0  0  0  0  0  0  0  0  0  0
   22.2988  -21.4979  -13.4193 C   0  0  2  0  0  0  0  0  0  0  0  0
   22.7656  -21.2329  -14.7933 N   0  0  0  0  0  0  0  0  0  0  0  0
   23.3884  -21.2774  -12.4681 C   0  0  0  0  0  0  0  0  0  0  0  0
   23.2199  -20.9205  -11.2774 O   0  0  0  0  0  0  0  0  0  0  0  0
   24.7339  -21.4554  -12.8324 O   0  0  0  0  0  0  0  0  0  0  0  0
  2  1  1  6
  2  3  1  0
  4  5  2  0
  4  3  1  0
  6  5  1  0
  7 12  2  0
  7  6  1  0
  8  7  1  0
  9  8  2  0
  9 10  1  0
 10 11  2  0
 11 12  1  0
 12  4  1  0
 13  2  1  0
 13 14  2  0
 15 13  1  0
 16 15  1  0
 16 17  1  1
 18 17  1  0
 19 18  1  0
 20 19  1  0
 21 20  1  0
 22 29  1  0
 22 16  1  0
 23 22  2  0
 24 25  1  0
 25 26  1  0
 26 27  1  0
 28 29  1  0
 28 27  1  6
 30 32  1  0
 30 28  1  0
 31 30  2  0
M  END
$$$$
