WKM.pdb
     RDKit          3D

 32 33  0  0  1  0  0  0  0  0999 V2000
   25.8867  -19.5262  -11.9740 N   0  0  0  0  0  0  0  0  0  0  0  0
   25.9540  -20.9604  -12.0026 C   0  0  1  0  0  0  0  0  0  0  0  0
   25.5439  -21.5910  -10.6944 C   0  0  0  0  0  0  0  0  0  0  0  0
   26.1397  -20.9722   -9.5134 C   0  0  0  0  0  0  0  0  0  0  0  0
   25.4726  -20.3532   -8.4791 C   0  0  0  0  0  0  0  0  0  0  0  0
   26.4077  -19.9306   -7.6112 N   0  0  0  0  0  0  0  0  0  0  0  0
   27.6393  -20.2621   -8.0631 C   0  0  0  0  0  0  0  0  0  0  0  0
   28.9095  -20.0649   -7.5602 C   0  0  0  0  0  0  0  0  0  0  0  0
   30.0464  -20.4999   -8.2082 C   0  0  0  0  0  0  0  0  0  0  0  0
   29.8824  -21.1576   -9.4090 C   0  0  0  0  0  0  0  0  0  0  0  0
   28.6277  -21.3702   -9.9381 C   0  0  0  0  0  0  0  0  0  0  0  0
   27.4969  -20.9213   -9.2638 C   0  0  0  0  0  0  0  0  0  0  0  0
   25.1139  -21.5457  -13.0606 C   0  0  0  0  0  0  0  0  0  0  0  0
   23.9437  -21.1100  -13.2102 O   0  0  0  0  0  0  0  0  0  0  0  0
   25.5217  -22.5851  -13.9475 N   0  0  0  0  0  0  0  0  0  0  0  0
   24.7586  -22.9831  -15.0948 C   0  0  1  0  0  0  0  0  0  0  0  0
   25.3847  -23.8643  -16.0889 C   0  0  0  0  0  0  0  0  0  0  0  0
   26.5183  -23.2838  -16.8297 C   0  0  0  0  0  0  0  0  0  0  0  0
   27.8664  -23.7389  -16.3791 C   0  0  0  0  0  0  0  0  0  0  0  0
   28.9112  -23.0639  -17.2920 C   0  0  0  0  0  0  0  0  0  0  0  0
   30.2188  -23.5975  -16.9039 N   0  0  0  0  0  0  0  0  0  0  0  0
   23.5097  -23.6405  -14.5087 C   0  0  0  0  0  0  0  0  0  0  0  0
   23.6128  -24.5370  -13.6465 O   0  0  0  0  0  0  0  0  0  0  0  0
   17.3002  -22.7998  -10.5522 C   0  0  0  0  0  0  0  0  0  0  0  0
   18.5537  -22.0739  -11.6552 S   0  0  0  0  0  0  0  0  0  0  0  0
   19.3036  -23.3967  -12.5941 C   0  0  0  0  0  0  0  0  0  0  0  0
   20.4100  -22.9501  -13.4670 C   0  0  0  0  0  0  0  0  0  0  0  0
   21.0632  -23.9460  -14.3653 C   0  0  2  0  0  0  0  0  0  0  0  0
   22.2274  -23.2416  -14.9350 N   0  0  0  0  0  0  0  0  0  0  0  0
   20.2574  -24.5315  -15.4370 C   0  0  0  0  0  0  0  0  0  0  0  0
   20.3663  -24.2209  -16.6475 O   0  0  0  0  0  0  0  0  0  0  0  0
   19.2807  -25.5079  -15.1772 O   0  0  0  0  0  0  0  0  0  0  0  0
  2  1  1  1
  2  3  1  0
  4  5  2  0
  4  3  1  0
  6  5  1  0
  7 12  2  0
  7  6  1  0
  8  7  1  0
  9  8  2  0
  9 10  1  0
 10 11  2  0
 11 12  1  0
 12  4  1  0
 13  2  1  0
 13 14  2  0
 15 13  1  0
 16 15  1  0
 16 17  1  6
 18 17  1  0
 19 18  1  0
 20 19  1  0
 21 20  1  0
 22 29  1  0
 22 16  1  0
 23 22  2  0
 24 25  1  0
 25 26  1  0
 26 27  1  0
 28 29  1  0
 28 27  1  6
 30 32  1  0
 30 28  1  0
 31 30  2  0
M  END
$$$$
