WKM.pdb
     RDKit          3D

 32 33  0  0  1  0  0  0  0  0999 V2000
   16.0078   -7.3909  -13.3094 N   0  0  0  0  0  0  0  0  0  0  0  0
   17.1655   -7.8868  -13.9995 C   0  0  1  0  0  0  0  0  0  0  0  0
   18.0616   -8.7184  -13.1150 C   0  0  0  0  0  0  0  0  0  0  0  0
   18.7305   -7.9668  -12.0566 C   0  0  0  0  0  0  0  0  0  0  0  0
   18.4636   -8.0248  -10.7063 C   0  0  0  0  0  0  0  0  0  0  0  0
   19.3118   -7.1728  -10.1056 N   0  0  0  0  0  0  0  0  0  0  0  0
   20.1028   -6.5811  -11.0303 C   0  0  0  0  0  0  0  0  0  0  0  0
   21.1169   -5.6490  -10.9418 C   0  0  0  0  0  0  0  0  0  0  0  0
   21.8000   -5.1799  -12.0440 C   0  0  0  0  0  0  0  0  0  0  0  0
   21.4368   -5.6779  -13.2775 C   0  0  0  0  0  0  0  0  0  0  0  0
   20.4283   -6.6094  -13.3996 C   0  0  0  0  0  0  0  0  0  0  0  0
   19.7550   -7.0662  -12.2714 C   0  0  0  0  0  0  0  0  0  0  0  0
   16.8179   -8.7039  -15.1738 C   0  0  0  0  0  0  0  0  0  0  0  0
   15.7456   -9.3609  -15.1540 O   0  0  0  0  0  0  0  0  0  0  0  0
   17.6087   -8.8166  -16.3549 N   0  0  0  0  0  0  0  0  0  0  0  0
   17.1605   -9.4903  -17.5391 C   0  0  1  0  0  0  0  0  0  0  0  0
   17.8157   -9.1841  -18.8172 C   0  0  0  0  0  0  0  0  0  0  0  0
   17.2954   -9.9099  -19.9891 C   0  0  0  0  0  0  0  0  0  0  0  0
   17.9681   -9.5866  -21.2816 C   0  0  0  0  0  0  0  0  0  0  0  0
   17.2394  -10.3731  -22.3912 C   0  0  0  0  0  0  0  0  0  0  0  0
   17.8095   -9.9315  -23.6660 N   0  0  0  0  0  0  0  0  0  0  0  0
   17.3042  -10.9750  -17.2067 C   0  0  0  0  0  0  0  0  0  0  0  0
   18.3437  -11.4037  -16.6650 O   0  0  0  0  0  0  0  0  0  0  0  0
   13.3078  -17.7020  -16.4653 C   0  0  0  0  0  0  0  0  0  0  0  0
   13.2986  -15.9213  -16.8446 S   0  0  0  0  0  0  0  0  0  0  0  0
   14.9926  -15.3559  -16.9089 C   0  0  0  0  0  0  0  0  0  0  0  0
   15.1229  -13.8970  -17.1091 C   0  0  0  0  0  0  0  0  0  0  0  0
   16.4883  -13.3060  -17.2185 C   0  0  2  0  0  0  0  0  0  0  0  0
   16.2645  -11.8769  -17.5078 N   0  0  0  0  0  0  0  0  0  0  0  0
   17.4044  -13.8799  -18.2044 C   0  0  0  0  0  0  0  0  0  0  0  0
   17.3689  -13.6201  -19.4311 O   0  0  0  0  0  0  0  0  0  0  0  0
   18.4139  -14.7852  -17.8351 O   0  0  0  0  0  0  0  0  0  0  0  0
  2  1  1  1
  2  3  1  0
  4  5  2  0
  4  3  1  0
  6  5  1  0
  7 12  2  0
  7  6  1  0
  8  7  1  0
  9  8  2  0
  9 10  1  0
 10 11  2  0
 11 12  1  0
 12  4  1  0
 13  2  1  0
 13 14  2  0
 15 13  1  0
 16 15  1  0
 16 17  1  6
 18 17  1  0
 19 18  1  0
 20 19  1  0
 21 20  1  0
 22 29  1  0
 22 16  1  0
 23 22  2  0
 24 25  1  0
 25 26  1  0
 26 27  1  0
 28 29  1  0
 28 27  1  6
 30 32  1  0
 30 28  1  0
 31 30  2  0
M  END
$$$$
