WKM.pdb
     RDKit          3D

 32 33  0  0  1  0  0  0  0  0999 V2000
   24.0023  -21.1460   -7.9525 N   0  0  0  0  0  0  0  0  0  0  0  0
   25.1038  -20.4552   -8.5623 C   0  0  1  0  0  0  0  0  0  0  0  0
   26.4385  -20.8587   -7.9853 C   0  0  0  0  0  0  0  0  0  0  0  0
   26.5313  -20.7319   -6.5334 C   0  0  0  0  0  0  0  0  0  0  0  0
   25.8815  -21.5013   -5.5933 C   0  0  0  0  0  0  0  0  0  0  0  0
   26.2553  -21.0398   -4.3877 N   0  0  0  0  0  0  0  0  0  0  0  0
   27.1174  -20.0075   -4.5363 C   0  0  0  0  0  0  0  0  0  0  0  0
   27.7822  -19.2009   -3.6349 C   0  0  0  0  0  0  0  0  0  0  0  0
   28.6317  -18.1867   -4.0237 C   0  0  0  0  0  0  0  0  0  0  0  0
   28.8090  -17.9883   -5.3767 C   0  0  0  0  0  0  0  0  0  0  0  0
   28.1596  -18.7765   -6.3023 C   0  0  0  0  0  0  0  0  0  0  0  0
   27.3079  -19.7933   -5.8833 C   0  0  0  0  0  0  0  0  0  0  0  0
   25.1675  -20.6647  -10.0182 C   0  0  0  0  0  0  0  0  0  0  0  0
   25.3421  -21.8324  -10.4512 O   0  0  0  0  0  0  0  0  0  0  0  0
   25.0459  -19.6365  -10.9985 N   0  0  0  0  0  0  0  0  0  0  0  0
   25.1363  -19.8812  -12.4089 C   0  0  1  0  0  0  0  0  0  0  0  0
   24.3672  -19.0289  -13.3247 C   0  0  0  0  0  0  0  0  0  0  0  0
   22.9217  -19.3064  -13.3896 C   0  0  0  0  0  0  0  0  0  0  0  0
   22.5627  -20.6802  -13.8490 C   0  0  0  0  0  0  0  0  0  0  0  0
   21.0227  -20.7644  -13.8957 C   0  0  0  0  0  0  0  0  0  0  0  0
   20.6868  -22.1226  -14.3286 N   0  0  0  0  0  0  0  0  0  0  0  0
   26.6304  -19.7829  -12.7146 C   0  0  0  0  0  0  0  0  0  0  0  0
   27.2758  -18.7643  -12.3926 O   0  0  0  0  0  0  0  0  0  0  0  0
   33.3542  -22.5596  -11.3487 C   0  0  0  0  0  0  0  0  0  0  0  0
   31.5390  -22.5513  -11.2086 S   0  0  0  0  0  0  0  0  0  0  0  0
   30.8768  -21.6378  -12.5945 C   0  0  0  0  0  0  0  0  0  0  0  0
   29.4156  -21.4260  -12.5205 C   0  0  0  0  0  0  0  0  0  0  0  0
   28.7398  -20.6875  -13.6265 C   0  0  2  0  0  0  0  0  0  0  0  0
   27.2965  -20.8414  -13.3634 N   0  0  0  0  0  0  0  0  0  0  0  0
   29.0445  -21.0864  -15.0008 C   0  0  0  0  0  0  0  0  0  0  0  0
   28.3127  -21.8329  -15.6942 O   0  0  0  0  0  0  0  0  0  0  0  0
   30.2083  -20.6489  -15.6559 O   0  0  0  0  0  0  0  0  0  0  0  0
  2  1  1  1
  2  3  1  0
  4  5  2  0
  4  3  1  0
  6  5  1  0
  7 12  2  0
  7  6  1  0
  8  7  1  0
  9  8  2  0
  9 10  1  0
 10 11  2  0
 11 12  1  0
 12  4  1  0
 13  2  1  0
 13 14  2  0
 15 13  1  0
 16 15  1  0
 16 17  1  6
 18 17  1  0
 19 18  1  0
 20 19  1  0
 21 20  1  0
 22 29  1  0
 22 16  1  0
 23 22  2  0
 24 25  1  0
 25 26  1  0
 26 27  1  0
 28 29  1  0
 28 27  1  1
 30 32  1  0
 30 28  1  0
 31 30  2  0
M  END
$$$$
