WKM.pdb
     RDKit          3D

 32 33  0  0  1  0  0  0  0  0999 V2000
   27.9511  -19.3396  -10.0643 N   0  0  0  0  0  0  0  0  0  0  0  0
   27.0729  -20.4327   -9.7537 C   0  0  1  0  0  0  0  0  0  0  0  0
   26.3634  -20.2555   -8.4338 C   0  0  0  0  0  0  0  0  0  0  0  0
   27.1697  -19.6185   -7.3961 C   0  0  0  0  0  0  0  0  0  0  0  0
   27.4478  -18.2748   -7.2739 C   0  0  0  0  0  0  0  0  0  0  0  0
   28.2194  -18.1353   -6.1823 N   0  0  0  0  0  0  0  0  0  0  0  0
   28.4362  -19.3439   -5.6137 C   0  0  0  0  0  0  0  0  0  0  0  0
   29.1450  -19.7447   -4.4992 C   0  0  0  0  0  0  0  0  0  0  0  0
   29.2290  -21.0619   -4.1000 C   0  0  0  0  0  0  0  0  0  0  0  0
   28.5683  -22.0016   -4.8628 C   0  0  0  0  0  0  0  0  0  0  0  0
   27.8520  -21.6338   -5.9814 C   0  0  0  0  0  0  0  0  0  0  0  0
   27.7832  -20.2978   -6.3622 C   0  0  0  0  0  0  0  0  0  0  0  0
   26.0447  -20.6439  -10.7861 C   0  0  0  0  0  0  0  0  0  0  0  0
   25.5238  -19.6376  -11.3316 O   0  0  0  0  0  0  0  0  0  0  0  0
   25.5797  -21.9170  -11.2288 N   0  0  0  0  0  0  0  0  0  0  0  0
   24.8580  -22.1073  -12.4536 C   0  0  1  0  0  0  0  0  0  0  0  0
   24.7784  -23.4580  -13.0244 C   0  0  0  0  0  0  0  0  0  0  0  0
   23.9685  -23.5849  -14.2486 C   0  0  0  0  0  0  0  0  0  0  0  0
   24.5697  -24.4347  -15.3180 C   0  0  0  0  0  0  0  0  0  0  0  0
   23.6379  -24.3610  -16.5456 C   0  0  0  0  0  0  0  0  0  0  0  0
   24.2735  -25.1458  -17.6063 N   0  0  0  0  0  0  0  0  0  0  0  0
   23.4590  -21.5694  -12.1554 C   0  0  0  0  0  0  0  0  0  0  0  0
   22.8853  -21.8588  -11.0854 O   0  0  0  0  0  0  0  0  0  0  0  0
   18.1590  -16.1499  -14.1439 C   0  0  0  0  0  0  0  0  0  0  0  0
   19.7743  -16.9260  -14.4651 S   0  0  0  0  0  0  0  0  0  0  0  0
   19.8758  -18.4243  -13.4965 C   0  0  0  0  0  0  0  0  0  0  0  0
   21.1952  -19.0872  -13.5674 C   0  0  0  0  0  0  0  0  0  0  0  0
   21.4121  -20.3408  -12.7883 C   0  0  2  0  0  0  0  0  0  0  0  0
   22.8008  -20.7403  -13.0852 N   0  0  0  0  0  0  0  0  0  0  0  0
   20.5046  -21.4623  -13.0316 C   0  0  0  0  0  0  0  0  0  0  0  0
   20.6647  -22.3107  -13.9417 O   0  0  0  0  0  0  0  0  0  0  0  0
   19.3614  -21.6719  -12.2416 O   0  0  0  0  0  0  0  0  0  0  0  0
  2  1  1  6
  2  3  1  0
  4  5  2  0
  4  3  1  0
  6  5  1  0
  7 12  2  0
  7  6  1  0
  8  7  1  0
  9  8  2  0
  9 10  1  0
 10 11  2  0
 11 12  1  0
 12  4  1  0
 13  2  1  0
 13 14  2  0
 15 13  1  0
 16 15  1  0
 16 17  1  1
 18 17  1  0
 19 18  1  0
 20 19  1  0
 21 20  1  0
 22 29  1  0
 22 16  1  0
 23 22  2  0
 24 25  1  0
 25 26  1  0
 26 27  1  0
 28 29  1  0
 28 27  1  6
 30 32  1  0
 30 28  1  0
 31 30  2  0
M  END
$$$$
