EIE.pdb
     RDKit          3D

 27 26  0  0  1  0  0  0  0  0999 V2000
    7.5389  -18.2610   17.8882 N   0  0  0  0  0  0  0  0  0  0  0  0
    8.9479  -18.4181   18.1866 C   0  0  1  0  0  0  0  0  0  0  0  0
    9.7893  -18.3681   16.9058 C   0  0  0  0  0  0  0  0  0  0  0  0
    9.0174  -17.5780   15.8534 C   0  0  0  0  0  0  0  0  0  0  0  0
    9.8042  -17.4865   14.6211 C   0  0  0  0  0  0  0  0  0  0  0  0
    9.8389  -18.3878   13.7577 O   0  0  0  0  0  0  0  0  0  0  0  0
    9.3787  -17.3571   19.1170 C   0  0  0  0  0  0  0  0  0  0  0  0
   10.6311  -17.1825   19.3033 O   0  0  0  0  0  0  0  0  0  0  0  0
   10.5484  -16.3469   14.3927 O   0  0  0  0  0  0  0  0  0  0  0  0
    6.8459  -12.5330   19.4718 C   0  0  0  0  0  0  0  0  0  0  0  0
    7.9215  -13.6347   19.3901 C   0  0  0  0  0  0  0  0  0  0  0  0
    7.9861  -14.4010   20.6785 C   0  0  2  0  0  0  0  0  0  0  0  0
    7.9511  -13.4469   21.8774 C   0  0  0  0  0  0  0  0  0  0  0  0
    8.8745  -15.5364   20.7897 C   0  0  2  0  0  0  0  0  0  0  0  0
    8.4509  -16.5413   19.8054 N   0  0  0  0  0  0  0  0  0  0  0  0
    9.2896  -16.1541   22.0199 C   0  0  0  0  0  0  0  0  0  0  0  0
    8.4739  -17.0327   22.5219 O   0  0  0  0  0  0  0  0  0  0  0  0
   10.4418  -15.9799   22.7927 N   0  0  0  0  0  0  0  0  0  0  0  0
   10.7447  -16.7604   23.9926 C   0  0  1  0  0  0  0  0  0  0  0  0
   12.0232  -17.5186   23.8391 C   0  0  0  0  0  0  0  0  0  0  0  0
   12.5093  -18.2662   25.0158 C   0  0  0  0  0  0  0  0  0  0  0  0
   13.7563  -19.0084   24.8988 C   0  0  0  0  0  0  0  0  0  0  0  0
   14.6821  -18.9833   25.7131 O   0  0  0  0  0  0  0  0  0  0  0  0
   10.5142  -16.0776   25.2515 C   0  0  0  0  0  0  0  0  0  0  0  0
   10.2219  -14.7448   25.3052 O   0  0  0  0  0  0  0  0  0  0  0  0
   13.9597  -19.8348   23.7691 O   0  0  0  0  0  0  0  0  0  0  0  0
   10.5829  -16.7143   26.3287 O   0  0  0  0  0  0  0  0  0  0  0  0
  2  7  1  0
  2  1  1  6
  3  2  1  0
  4  3  1  0
  5  6  2  0
  5  4  1  0
  7  8  2  0
  9  5  1  0
 11 10  1  0
 12 14  1  0
 12 11  1  0
 12 13  1  1
 14 15  1  6
 15  7  1  0
 16 17  2  0
 16 14  1  0
 18 16  1  0
 19 24  1  0
 19 18  1  0
 19 20  1  6
 21 22  1  0
 21 20  1  0
 22 26  1  0
 23 22  2  0
 24 25  1  0
 27 24  2  0
M  END
$$$$
