EIE.pdb
     RDKit          3D

 27 26  0  0  1  0  0  0  0  0999 V2000
    7.9134  -14.7784   20.0962 N   0  0  0  0  0  0  0  0  0  0  0  0
    7.4427  -15.4614   21.2840 C   0  0  1  0  0  0  0  0  0  0  0  0
    7.6572  -16.9752   21.1683 C   0  0  0  0  0  0  0  0  0  0  0  0
    7.2992  -17.4048   19.7488 C   0  0  0  0  0  0  0  0  0  0  0  0
    7.4550  -18.8550   19.6118 C   0  0  0  0  0  0  0  0  0  0  0  0
    7.5078  -19.4409   18.5104 O   0  0  0  0  0  0  0  0  0  0  0  0
    8.1498  -14.9391   22.4690 C   0  0  0  0  0  0  0  0  0  0  0  0
    9.3993  -14.6887   22.3710 O   0  0  0  0  0  0  0  0  0  0  0  0
    7.5510  -19.6225   20.7548 O   0  0  0  0  0  0  0  0  0  0  0  0
    6.8030  -11.6602   27.3805 C   0  0  0  0  0  0  0  0  0  0  0  0
    7.8459  -12.6647   26.8506 C   0  0  0  0  0  0  0  0  0  0  0  0
    7.3722  -13.2854   25.5693 C   0  0  2  0  0  0  0  0  0  0  0  0
    5.8756  -13.6071   25.6453 C   0  0  0  0  0  0  0  0  0  0  0  0
    8.2033  -14.2603   24.8987 C   0  0  2  0  0  0  0  0  0  0  0  0
    7.4884  -14.7168   23.6992 N   0  0  0  0  0  0  0  0  0  0  0  0
    8.8970  -15.3459   25.5371 C   0  0  0  0  0  0  0  0  0  0  0  0
    8.2029  -16.4252   25.7430 O   0  0  0  0  0  0  0  0  0  0  0  0
   10.2170  -15.4561   25.9851 N   0  0  0  0  0  0  0  0  0  0  0  0
   10.8650  -16.7275   26.3081 C   0  0  1  0  0  0  0  0  0  0  0  0
   12.1870  -16.8530   25.6227 C   0  0  0  0  0  0  0  0  0  0  0  0
   13.0284  -18.0100   25.9874 C   0  0  0  0  0  0  0  0  0  0  0  0
   14.3451  -18.1292   25.3776 C   0  0  0  0  0  0  0  0  0  0  0  0
   14.7499  -17.4708   24.4166 O   0  0  0  0  0  0  0  0  0  0  0  0
   10.7884  -17.1268   27.7006 C   0  0  0  0  0  0  0  0  0  0  0  0
   10.3007  -16.2908   28.6639 O   0  0  0  0  0  0  0  0  0  0  0  0
   15.2617  -19.0699   25.9022 O   0  0  0  0  0  0  0  0  0  0  0  0
   11.1777  -18.2669   28.0454 O   0  0  0  0  0  0  0  0  0  0  0  0
  2  7  1  0
  2  1  1  6
  3  2  1  0
  4  3  1  0
  5  6  2  0
  5  4  1  0
  7  8  2  0
  9  5  1  0
 11 10  1  0
 12 14  1  0
 12 11  1  0
 12 13  1  1
 14 15  1  6
 15  7  1  0
 16 17  2  0
 16 14  1  0
 18 16  1  0
 19 24  1  0
 19 18  1  0
 19 20  1  1
 21 22  1  0
 21 20  1  0
 22 26  1  0
 23 22  2  0
 24 25  1  0
 27 24  2  0
M  END
$$$$
