EIE.pdb
     RDKit          3D

 27 26  0  0  1  0  0  0  0  0999 V2000
    8.7499  -15.2127   20.2255 N   0  0  0  0  0  0  0  0  0  0  0  0
    7.8905  -15.5415   21.3445 C   0  0  1  0  0  0  0  0  0  0  0  0
    7.6700  -17.0557   21.4412 C   0  0  0  0  0  0  0  0  0  0  0  0
    7.0012  -17.5278   20.1537 C   0  0  0  0  0  0  0  0  0  0  0  0
    6.8200  -18.9811   20.1889 C   0  0  0  0  0  0  0  0  0  0  0  0
    5.8930  -19.5447   20.8070 O   0  0  0  0  0  0  0  0  0  0  0  0
    8.4896  -15.0364   22.5947 C   0  0  0  0  0  0  0  0  0  0  0  0
    9.7549  -15.1348   22.7465 O   0  0  0  0  0  0  0  0  0  0  0  0
    7.7154  -19.7776   19.5045 O   0  0  0  0  0  0  0  0  0  0  0  0
    7.1641  -11.1282   27.0816 C   0  0  0  0  0  0  0  0  0  0  0  0
    8.1076  -12.2748   26.6662 C   0  0  0  0  0  0  0  0  0  0  0  0
    7.5775  -12.9755   25.4499 C   0  0  2  0  0  0  0  0  0  0  0  0
    6.0475  -13.0526   25.4942 C   0  0  0  0  0  0  0  0  0  0  0  0
    8.2630  -14.1438   24.9440 C   0  0  2  0  0  0  0  0  0  0  0  0
    7.7070  -14.4579   23.6209 N   0  0  0  0  0  0  0  0  0  0  0  0
    8.5359  -15.3407   25.6924 C   0  0  0  0  0  0  0  0  0  0  0  0
    7.8068  -16.3762   25.4002 O   0  0  0  0  0  0  0  0  0  0  0  0
    9.4689  -15.6015   26.7007 N   0  0  0  0  0  0  0  0  0  0  0  0
   10.1177  -16.8982   26.8960 C   0  0  1  0  0  0  0  0  0  0  0  0
   11.0227  -17.2304   25.7541 C   0  0  0  0  0  0  0  0  0  0  0  0
   11.8411  -18.4531   25.8760 C   0  0  0  0  0  0  0  0  0  0  0  0
   12.7472  -18.7920   24.7880 C   0  0  0  0  0  0  0  0  0  0  0  0
   13.9658  -18.6031   24.7876 O   0  0  0  0  0  0  0  0  0  0  0  0
   10.6068  -17.1515   28.2380 C   0  0  0  0  0  0  0  0  0  0  0  0
   11.9219  -16.9895   28.5680 O   0  0  0  0  0  0  0  0  0  0  0  0
   12.2214  -19.3857   23.6168 O   0  0  0  0  0  0  0  0  0  0  0  0
    9.8131  -17.5313   29.1303 O   0  0  0  0  0  0  0  0  0  0  0  0
  2  7  1  0
  2  1  1  6
  3  2  1  0
  4  3  1  0
  5  6  2  0
  5  4  1  0
  7  8  2  0
  9  5  1  0
 11 10  1  0
 12 14  1  0
 12 11  1  0
 12 13  1  1
 14 15  1  6
 15  7  1  0
 16 17  2  0
 16 14  1  0
 18 16  1  0
 19 24  1  0
 19 18  1  0
 19 20  1  6
 21 22  1  0
 21 20  1  0
 22 26  1  0
 23 22  2  0
 24 25  1  0
 27 24  2  0
M  END
$$$$
