EIE.pdb
     RDKit          3D

 27 26  0  0  1  0  0  0  0  0999 V2000
    6.2484  -16.2800   22.0349 N   0  0  0  0  0  0  0  0  0  0  0  0
    7.6901  -16.3887   21.9423 C   0  0  1  0  0  0  0  0  0  0  0  0
    8.1927  -15.8850   20.5841 C   0  0  0  0  0  0  0  0  0  0  0  0
    7.8604  -16.9350   19.5284 C   0  0  0  0  0  0  0  0  0  0  0  0
    8.3760  -16.5123   18.2240 C   0  0  0  0  0  0  0  0  0  0  0  0
    7.6769  -16.4617   17.1907 O   0  0  0  0  0  0  0  0  0  0  0  0
    8.3164  -15.6159   23.0321 C   0  0  0  0  0  0  0  0  0  0  0  0
    9.5352  -15.2547   22.8997 O   0  0  0  0  0  0  0  0  0  0  0  0
    9.7030  -16.1471   18.1223 O   0  0  0  0  0  0  0  0  0  0  0  0
    5.5161  -11.9820   25.5970 C   0  0  0  0  0  0  0  0  0  0  0  0
    6.7779  -12.6058   24.9675 C   0  0  0  0  0  0  0  0  0  0  0  0
    7.3688  -13.6343   25.8865 C   0  0  2  0  0  0  0  0  0  0  0  0
    7.7709  -12.9987   27.2219 C   0  0  0  0  0  0  0  0  0  0  0  0
    8.2703  -14.6321   25.3552 C   0  0  2  0  0  0  0  0  0  0  0  0
    7.6116  -15.2739   24.2096 N   0  0  0  0  0  0  0  0  0  0  0  0
    9.0100  -15.5879   26.1341 C   0  0  0  0  0  0  0  0  0  0  0  0
    8.3272  -16.5830   26.6164 O   0  0  0  0  0  0  0  0  0  0  0  0
   10.3653  -15.6453   26.4730 N   0  0  0  0  0  0  0  0  0  0  0  0
   10.9559  -16.7001   27.2972 C   0  0  1  0  0  0  0  0  0  0  0  0
   12.2114  -17.2300   26.6840 C   0  0  0  0  0  0  0  0  0  0  0  0
   12.9347  -18.2796   27.4287 C   0  0  0  0  0  0  0  0  0  0  0  0
   14.1937  -18.7711   26.8873 C   0  0  0  0  0  0  0  0  0  0  0  0
   14.6797  -18.4469   25.8013 O   0  0  0  0  0  0  0  0  0  0  0  0
   10.9610  -16.4423   28.7248 C   0  0  0  0  0  0  0  0  0  0  0  0
   10.8407  -15.1791   29.2292 O   0  0  0  0  0  0  0  0  0  0  0  0
   14.9477  -19.7014   27.6399 O   0  0  0  0  0  0  0  0  0  0  0  0
   11.0796  -17.3946   29.5306 O   0  0  0  0  0  0  0  0  0  0  0  0
  2  7  1  0
  2  1  1  6
  3  2  1  0
  4  3  1  0
  5  6  2  0
  5  4  1  0
  7  8  2  0
  9  5  1  0
 11 10  1  0
 12 14  1  0
 12 11  1  0
 12 13  1  1
 14 15  1  6
 15  7  1  0
 16 17  2  0
 16 14  1  0
 18 16  1  0
 19 24  1  0
 19 18  1  0
 19 20  1  6
 21 22  1  0
 21 20  1  0
 22 26  1  0
 23 22  2  0
 24 25  1  0
 27 24  2  0
M  END
$$$$
