EIE.pdb
     RDKit          3D

 27 26  0  0  1  0  0  0  0  0999 V2000
    9.6812  -14.0280   20.4589 N   0  0  0  0  0  0  0  0  0  0  0  0
    8.7052  -14.9332   21.0306 C   0  0  1  0  0  0  0  0  0  0  0  0
    8.8555  -16.3430   20.4467 C   0  0  0  0  0  0  0  0  0  0  0  0
    7.5533  -16.7141   19.7437 C   0  0  0  0  0  0  0  0  0  0  0  0
    7.4144  -18.1713   19.6867 C   0  0  0  0  0  0  0  0  0  0  0  0
    8.3605  -18.9437   19.4272 O   0  0  0  0  0  0  0  0  0  0  0  0
    8.8652  -14.9729   22.4969 C   0  0  0  0  0  0  0  0  0  0  0  0
   10.0485  -14.9954   22.9796 O   0  0  0  0  0  0  0  0  0  0  0  0
    6.1764  -18.7294   19.9330 O   0  0  0  0  0  0  0  0  0  0  0  0
    6.0996  -11.6399   25.5603 C   0  0  0  0  0  0  0  0  0  0  0  0
    7.1707  -12.5317   24.9007 C   0  0  0  0  0  0  0  0  0  0  0  0
    7.0238  -13.9531   25.3582 C   0  0  2  0  0  0  0  0  0  0  0  0
    6.7445  -14.0104   26.8640 C   0  0  0  0  0  0  0  0  0  0  0  0
    7.9106  -14.9671   24.8326 C   0  0  2  0  0  0  0  0  0  0  0  0
    7.7544  -14.9928   23.3721 N   0  0  0  0  0  0  0  0  0  0  0  0
    8.0691  -16.2938   25.3635 C   0  0  0  0  0  0  0  0  0  0  0  0
    7.2344  -17.1883   24.9251 O   0  0  0  0  0  0  0  0  0  0  0  0
    8.9832  -16.8112   26.2865 N   0  0  0  0  0  0  0  0  0  0  0  0
    8.9822  -18.2010   26.7439 C   0  0  1  0  0  0  0  0  0  0  0  0
   10.1613  -18.4867   27.6163 C   0  0  0  0  0  0  0  0  0  0  0  0
   10.2035  -19.8032   28.2832 C   0  0  0  0  0  0  0  0  0  0  0  0
   11.3350  -20.1063   29.1478 C   0  0  0  0  0  0  0  0  0  0  0  0
   12.5191  -19.8958   28.8754 O   0  0  0  0  0  0  0  0  0  0  0  0
    7.6927  -18.7144   27.1658 C   0  0  0  0  0  0  0  0  0  0  0  0
    7.3195  -20.0066   26.9297 O   0  0  0  0  0  0  0  0  0  0  0  0
   11.0949  -20.6945   30.4114 O   0  0  0  0  0  0  0  0  0  0  0  0
    6.8871  -17.9634   27.7636 O   0  0  0  0  0  0  0  0  0  0  0  0
  2  7  1  0
  2  1  1  6
  3  2  1  0
  4  3  1  0
  5  6  2  0
  5  4  1  0
  7  8  2  0
  9  5  1  0
 11 10  1  0
 12 14  1  0
 12 11  1  0
 12 13  1  1
 14 15  1  6
 15  7  1  0
 16 17  2  0
 16 14  1  0
 18 16  1  0
 19 24  1  0
 19 18  1  0
 19 20  1  1
 21 22  1  0
 21 20  1  0
 22 26  1  0
 23 22  2  0
 24 25  1  0
 27 24  2  0
M  END
$$$$
