EIE.pdb
     RDKit          3D

 27 26  0  0  1  0  0  0  0  0999 V2000
    7.8713  -13.8123   19.9872 N   0  0  0  0  0  0  0  0  0  0  0  0
    7.5322  -14.8443   20.9459 C   0  0  1  0  0  0  0  0  0  0  0  0
    7.9458  -16.2284   20.4320 C   0  0  0  0  0  0  0  0  0  0  0  0
    6.6898  -17.0817   20.2837 C   0  0  0  0  0  0  0  0  0  0  0  0
    7.0526  -18.4331   19.8496 C   0  0  0  0  0  0  0  0  0  0  0  0
    8.2312  -18.8084   19.6791 O   0  0  0  0  0  0  0  0  0  0  0  0
    8.1966  -14.5628   22.2329 C   0  0  0  0  0  0  0  0  0  0  0  0
    9.4598  -14.3681   22.2360 O   0  0  0  0  0  0  0  0  0  0  0  0
    6.0454  -19.3471   19.6158 O   0  0  0  0  0  0  0  0  0  0  0  0
    6.9554  -11.6896   27.3424 C   0  0  0  0  0  0  0  0  0  0  0  0
    7.9472  -12.6991   26.7302 C   0  0  0  0  0  0  0  0  0  0  0  0
    7.4118  -13.2424   25.4380 C   0  0  2  0  0  0  0  0  0  0  0  0
    5.8922  -13.4256   25.5169 C   0  0  0  0  0  0  0  0  0  0  0  0
    8.1456  -14.2737   24.7391 C   0  0  2  0  0  0  0  0  0  0  0  0
    7.4798  -14.5097   23.4509 N   0  0  0  0  0  0  0  0  0  0  0  0
    8.6120  -15.5043   25.3181 C   0  0  0  0  0  0  0  0  0  0  0  0
    7.7224  -16.4405   25.4642 O   0  0  0  0  0  0  0  0  0  0  0  0
    9.8815  -15.8886   25.7608 N   0  0  0  0  0  0  0  0  0  0  0  0
   10.2266  -17.2523   26.1633 C   0  0  1  0  0  0  0  0  0  0  0  0
   11.2436  -17.8488   25.2453 C   0  0  0  0  0  0  0  0  0  0  0  0
   12.3112  -18.6628   25.8594 C   0  0  0  0  0  0  0  0  0  0  0  0
   13.6108  -18.7096   25.2047 C   0  0  0  0  0  0  0  0  0  0  0  0
   14.7017  -18.6952   25.7796 O   0  0  0  0  0  0  0  0  0  0  0  0
   10.4077  -17.4513   27.5888 C   0  0  0  0  0  0  0  0  0  0  0  0
   10.5111  -18.6987   28.1346 O   0  0  0  0  0  0  0  0  0  0  0  0
   13.6660  -18.7739   23.7929 O   0  0  0  0  0  0  0  0  0  0  0  0
   10.4719  -16.4611   28.3541 O   0  0  0  0  0  0  0  0  0  0  0  0
  2  7  1  0
  2  1  1  6
  3  2  1  0
  4  3  1  0
  5  6  2  0
  5  4  1  0
  7  8  2  0
  9  5  1  0
 11 10  1  0
 12 14  1  0
 12 11  1  0
 12 13  1  1
 14 15  1  6
 15  7  1  0
 16 17  2  0
 16 14  1  0
 18 16  1  0
 19 24  1  0
 19 18  1  0
 19 20  1  6
 21 22  1  0
 21 20  1  0
 22 26  1  0
 23 22  2  0
 24 25  1  0
 27 24  2  0
M  END
$$$$
