EIE.pdb
     RDKit          3D

 27 26  0  0  1  0  0  0  0  0999 V2000
   10.4956  -17.6448   17.2516 N   0  0  0  0  0  0  0  0  0  0  0  0
    9.6159  -17.9281   18.3673 C   0  0  1  0  0  0  0  0  0  0  0  0
    9.8653  -19.3367   18.9193 C   0  0  0  0  0  0  0  0  0  0  0  0
    9.4252  -20.3505   17.8676 C   0  0  0  0  0  0  0  0  0  0  0  0
    9.5699  -21.7102   18.3934 C   0  0  0  0  0  0  0  0  0  0  0  0
    9.5363  -22.7326   17.6775 O   0  0  0  0  0  0  0  0  0  0  0  0
    9.8230  -16.9244   19.4289 C   0  0  0  0  0  0  0  0  0  0  0  0
   11.0073  -16.4888   19.6321 O   0  0  0  0  0  0  0  0  0  0  0  0
    9.7550  -21.8800   19.7505 O   0  0  0  0  0  0  0  0  0  0  0  0
    6.7896  -12.5818   20.0591 C   0  0  0  0  0  0  0  0  0  0  0  0
    7.9875  -13.5516   20.0133 C   0  0  0  0  0  0  0  0  0  0  0  0
    7.9823  -14.4487   21.2160 C   0  0  2  0  0  0  0  0  0  0  0  0
    7.6997  -13.6441   22.4894 C   0  0  0  0  0  0  0  0  0  0  0  0
    8.9709  -15.4979   21.3278 C   0  0  2  0  0  0  0  0  0  0  0  0
    8.7566  -16.4421   20.2229 N   0  0  0  0  0  0  0  0  0  0  0  0
    9.3248  -16.1854   22.5400 C   0  0  0  0  0  0  0  0  0  0  0  0
    8.5455  -17.1649   22.8898 O   0  0  0  0  0  0  0  0  0  0  0  0
   10.3836  -15.9896   23.4320 N   0  0  0  0  0  0  0  0  0  0  0  0
   10.6078  -16.8081   24.6239 C   0  0  1  0  0  0  0  0  0  0  0  0
   12.0588  -17.1145   24.8074 C   0  0  0  0  0  0  0  0  0  0  0  0
   12.7469  -17.8075   23.7002 C   0  0  0  0  0  0  0  0  0  0  0  0
   14.1833  -18.0218   23.8027 C   0  0  0  0  0  0  0  0  0  0  0  0
   15.0297  -17.1362   23.9450 O   0  0  0  0  0  0  0  0  0  0  0  0
    9.8490  -16.4171   25.7968 C   0  0  0  0  0  0  0  0  0  0  0  0
    9.8614  -17.1590   26.9431 O   0  0  0  0  0  0  0  0  0  0  0  0
   14.6869  -19.3417   23.7344 O   0  0  0  0  0  0  0  0  0  0  0  0
    9.1568  -15.3728   25.7729 O   0  0  0  0  0  0  0  0  0  0  0  0
  2  7  1  0
  2  1  1  6
  3  2  1  0
  4  3  1  0
  5  6  2  0
  5  4  1  0
  7  8  2  0
  9  5  1  0
 11 10  1  0
 12 14  1  0
 12 11  1  0
 12 13  1  1
 14 15  1  6
 15  7  1  0
 16 17  2  0
 16 14  1  0
 18 16  1  0
 19 24  1  0
 19 18  1  0
 19 20  1  1
 21 22  1  0
 21 20  1  0
 22 26  1  0
 23 22  2  0
 24 25  1  0
 27 24  2  0
M  END
$$$$
