EIE.pdb
     RDKit          3D

 27 26  0  0  1  0  0  0  0  0999 V2000
   10.0381  -17.1763   16.6831 N   0  0  0  0  0  0  0  0  0  0  0  0
    9.3023  -17.6502   17.8376 C   0  0  1  0  0  0  0  0  0  0  0  0
    9.6806  -19.0976   18.1737 C   0  0  0  0  0  0  0  0  0  0  0  0
    8.3993  -19.8776   18.4523 C   0  0  0  0  0  0  0  0  0  0  0  0
    8.7194  -21.1412   19.1208 C   0  0  0  0  0  0  0  0  0  0  0  0
    9.4974  -21.9942   18.6452 O   0  0  0  0  0  0  0  0  0  0  0  0
    9.5754  -16.7743   18.9932 C   0  0  0  0  0  0  0  0  0  0  0  0
   10.7838  -16.4258   19.2206 O   0  0  0  0  0  0  0  0  0  0  0  0
    8.1363  -21.4114   20.3422 O   0  0  0  0  0  0  0  0  0  0  0  0
    7.1159  -12.2625   19.7894 C   0  0  0  0  0  0  0  0  0  0  0  0
    8.1089  -13.4389   19.7032 C   0  0  0  0  0  0  0  0  0  0  0  0
    8.0170  -14.2939   20.9328 C   0  0  2  0  0  0  0  0  0  0  0  0
    7.9393  -13.4236   22.1920 C   0  0  0  0  0  0  0  0  0  0  0  0
    8.8213  -15.4914   21.0310 C   0  0  2  0  0  0  0  0  0  0  0  0
    8.5456  -16.3205   19.8499 N   0  0  0  0  0  0  0  0  0  0  0  0
    8.9753  -16.2990   22.2105 C   0  0  0  0  0  0  0  0  0  0  0  0
    8.2355  -15.9718   23.2278 O   0  0  0  0  0  0  0  0  0  0  0  0
    9.7943  -17.4026   22.4682 N   0  0  0  0  0  0  0  0  0  0  0  0
   10.8345  -17.4237   23.4970 C   0  0  1  0  0  0  0  0  0  0  0  0
   12.1953  -17.2789   22.8968 C   0  0  0  0  0  0  0  0  0  0  0  0
   12.8689  -15.9753   23.0598 C   0  0  0  0  0  0  0  0  0  0  0  0
   14.2790  -15.8753   22.7114 C   0  0  0  0  0  0  0  0  0  0  0  0
   15.2110  -15.8082   23.5162 O   0  0  0  0  0  0  0  0  0  0  0  0
   10.5408  -16.6556   24.6920 C   0  0  0  0  0  0  0  0  0  0  0  0
    9.9859  -15.4095   24.6292 O   0  0  0  0  0  0  0  0  0  0  0  0
   14.6482  -15.8467   21.3464 O   0  0  0  0  0  0  0  0  0  0  0  0
   10.7988  -17.1345   25.8210 O   0  0  0  0  0  0  0  0  0  0  0  0
  2  7  1  0
  2  1  1  6
  3  2  1  0
  4  3  1  0
  5  6  2  0
  5  4  1  0
  7  8  2  0
  9  5  1  0
 11 10  1  0
 12 14  1  0
 12 11  1  0
 12 13  1  1
 14 15  1  6
 15  7  1  0
 16 17  2  0
 16 14  1  0
 18 16  1  0
 19 24  1  0
 19 18  1  0
 19 20  1  6
 21 22  1  0
 21 20  1  0
 22 26  1  0
 23 22  2  0
 24 25  1  0
 27 24  2  0
M  END
$$$$
