EIE.pdb
     RDKit          3D

 27 26  0  0  1  0  0  0  0  0999 V2000
    7.2596  -14.3751   20.7264 N   0  0  0  0  0  0  0  0  0  0  0  0
    7.2958  -15.4965   21.6429 C   0  0  1  0  0  0  0  0  0  0  0  0
    7.9425  -16.7218   20.9862 C   0  0  0  0  0  0  0  0  0  0  0  0
    6.9955  -17.2481   19.9120 C   0  0  0  0  0  0  0  0  0  0  0  0
    7.4986  -18.5175   19.3812 C   0  0  0  0  0  0  0  0  0  0  0  0
    7.1761  -19.6325   19.8415 O   0  0  0  0  0  0  0  0  0  0  0  0
    8.0434  -15.1197   22.8579 C   0  0  0  0  0  0  0  0  0  0  0  0
    9.3138  -15.0033   22.7792 O   0  0  0  0  0  0  0  0  0  0  0  0
    8.3745  -18.4898   18.3151 O   0  0  0  0  0  0  0  0  0  0  0  0
    6.1097  -11.4350   26.2404 C   0  0  0  0  0  0  0  0  0  0  0  0
    7.0478  -12.2772   25.3526 C   0  0  0  0  0  0  0  0  0  0  0  0
    7.4089  -13.5607   26.0410 C   0  0  2  0  0  0  0  0  0  0  0  0
    7.8563  -13.2937   27.4823 C   0  0  0  0  0  0  0  0  0  0  0  0
    8.1450  -14.5747   25.3195 C   0  0  2  0  0  0  0  0  0  0  0  0
    7.3975  -14.8925   24.0954 N   0  0  0  0  0  0  0  0  0  0  0  0
    8.7239  -15.7565   25.8986 C   0  0  0  0  0  0  0  0  0  0  0  0
    7.8979  -16.7216   26.1738 O   0  0  0  0  0  0  0  0  0  0  0  0
   10.0478  -16.0662   26.2249 N   0  0  0  0  0  0  0  0  0  0  0  0
   10.4675  -17.3413   26.8068 C   0  0  1  0  0  0  0  0  0  0  0  0
   11.5484  -17.9791   25.9956 C   0  0  0  0  0  0  0  0  0  0  0  0
   12.1031  -19.2532   26.4944 C   0  0  0  0  0  0  0  0  0  0  0  0
   13.2174  -19.8530   25.7745 C   0  0  0  0  0  0  0  0  0  0  0  0
   13.6583  -20.9898   25.9588 O   0  0  0  0  0  0  0  0  0  0  0  0
   10.6175  -17.3455   28.2497 C   0  0  0  0  0  0  0  0  0  0  0  0
   10.5644  -18.5005   28.9761 O   0  0  0  0  0  0  0  0  0  0  0  0
   13.8755  -19.0978   24.7760 O   0  0  0  0  0  0  0  0  0  0  0  0
   10.8002  -16.2671   28.8613 O   0  0  0  0  0  0  0  0  0  0  0  0
  2  7  1  0
  2  1  1  6
  3  2  1  0
  4  3  1  0
  5  6  2  0
  5  4  1  0
  7  8  2  0
  9  5  1  0
 11 10  1  0
 12 14  1  0
 12 11  1  0
 12 13  1  1
 14 15  1  6
 15  7  1  0
 16 17  2  0
 16 14  1  0
 18 16  1  0
 19 24  1  0
 19 18  1  0
 19 20  1  6
 21 22  1  0
 21 20  1  0
 22 26  1  0
 23 22  2  0
 24 25  1  0
 27 24  2  0
M  END
$$$$
