GHR.pdb
     RDKit          3D

 26 26  0  0  1  0  0  0  0  0999 V2000
    9.8084  -19.0899   18.7810 N   0  0  0  0  0  0  0  0  0  0  0  0
    8.5695  -18.7279   19.4335 C   0  0  0  0  0  0  0  0  0  0  0  0
    8.7923  -17.4501   20.1576 C   0  0  0  0  0  0  0  0  0  0  0  0
    9.9250  -17.1795   20.6767 O   0  0  0  0  0  0  0  0  0  0  0  0
    7.7731  -16.4702   20.3119 N   0  0  0  0  0  0  0  0  0  0  0  0
    8.0501  -15.2276   21.0481 C   0  0  1  0  0  0  0  0  0  0  0  0
    7.1249  -14.1312   20.5868 C   0  0  0  0  0  0  0  0  0  0  0  0
    7.4420  -13.7740   19.1928 C   0  0  0  0  0  0  0  0  0  0  0  0
    8.1492  -12.6468   18.8219 C   0  0  0  0  0  0  0  0  0  0  0  0
    8.2746  -12.5975   17.5038 N   0  0  0  0  0  0  0  0  0  0  0  0
    7.6567  -13.6804   17.0089 C   0  0  0  0  0  0  0  0  0  0  0  0
    7.1519  -14.3931   18.0364 N   0  0  0  0  0  0  0  0  0  0  0  0
    7.9052  -15.5643   22.4825 C   0  0  0  0  0  0  0  0  0  0  0  0
    6.8121  -16.0529   22.8707 O   0  0  0  0  0  0  0  0  0  0  0  0
   12.6251  -20.7306   26.4067 N   0  0  0  0  0  0  0  0  0  0  0  0
   12.3763  -20.6493   25.0062 C   0  0  0  0  0  0  0  0  0  0  0  0
   12.7396  -21.5852   24.2306 N   0  0  0  0  0  0  0  0  0  0  0  0
   11.7167  -19.5123   24.4760 N   0  0  0  0  0  0  0  0  0  0  0  0
   11.2612  -18.4319   25.3134 C   0  0  0  0  0  0  0  0  0  0  0  0
   10.6568  -17.3239   24.4831 C   0  0  0  0  0  0  0  0  0  0  0  0
   10.1594  -16.1754   25.2949 C   0  0  0  0  0  0  0  0  0  0  0  0
    8.7937  -15.6699   24.8547 C   0  0  2  0  0  0  0  0  0  0  0  0
    8.9126  -15.3729   23.4409 N   0  0  0  0  0  0  0  0  0  0  0  0
    8.3297  -14.5277   25.6412 C   0  0  0  0  0  0  0  0  0  0  0  0
    8.2986  -13.2509   25.1533 O   0  0  0  0  0  0  0  0  0  0  0  0
    7.9380  -14.7110   26.8237 O   0  0  0  0  0  0  0  0  0  0  0  0
  2  1  1  0
  3  2  1  0
  3  4  2  0
  5  3  1  0
  6  5  1  0
  6  7  1  6
  8  7  1  0
  8  9  2  0
 10  9  1  0
 11 10  1  0
 12 11  2  0
 12  8  1  0
 13  6  1  0
 14 13  2  0
 16 15  1  0
 17 16  2  0
 18 16  1  0
 19 20  1  0
 19 18  1  0
 20 21  1  0
 22 23  1  0
 22 21  1  1
 23 13  1  0
 24 22  1  0
 25 24  1  0
 26 24  2  0
M  END
$$$$
