GHR.pdb
     RDKit          3D

 26 26  0  0  1  0  0  0  0  0999 V2000
    5.4993  -21.3074   21.4793 N   0  0  0  0  0  0  0  0  0  0  0  0
    5.7689  -21.0623   22.8788 C   0  0  0  0  0  0  0  0  0  0  0  0
    6.2239  -19.6548   23.0157 C   0  0  0  0  0  0  0  0  0  0  0  0
    6.4994  -18.9520   21.9881 O   0  0  0  0  0  0  0  0  0  0  0  0
    6.3764  -19.0192   24.2788 N   0  0  0  0  0  0  0  0  0  0  0  0
    6.8461  -17.6276   24.3521 C   0  0  1  0  0  0  0  0  0  0  0  0
    6.4403  -17.0091   25.6651 C   0  0  0  0  0  0  0  0  0  0  0  0
    6.8405  -15.5910   25.6853 C   0  0  0  0  0  0  0  0  0  0  0  0
    6.8030  -14.7580   24.5839 C   0  0  0  0  0  0  0  0  0  0  0  0
    7.2220  -13.5447   24.9124 N   0  0  0  0  0  0  0  0  0  0  0  0
    7.5332  -13.5756   26.2169 C   0  0  0  0  0  0  0  0  0  0  0  0
    7.3007  -14.8191   26.6839 N   0  0  0  0  0  0  0  0  0  0  0  0
    8.3115  -17.6820   24.1477 C   0  0  0  0  0  0  0  0  0  0  0  0
    8.8912  -18.7894   24.2948 O   0  0  0  0  0  0  0  0  0  0  0  0
   12.8012  -14.4628   18.3221 N   0  0  0  0  0  0  0  0  0  0  0  0
   13.8730  -15.1217   18.9905 C   0  0  0  0  0  0  0  0  0  0  0  0
   15.0781  -14.8603   18.6921 N   0  0  0  0  0  0  0  0  0  0  0  0
   13.5893  -16.0775   19.9981 N   0  0  0  0  0  0  0  0  0  0  0  0
   12.2458  -16.3385   20.4488 C   0  0  0  0  0  0  0  0  0  0  0  0
   11.8712  -15.4199   21.5881 C   0  0  0  0  0  0  0  0  0  0  0  0
   10.4946  -15.6539   22.1133 C   0  0  0  0  0  0  0  0  0  0  0  0
   10.4491  -16.6340   23.2760 C   0  0  2  0  0  0  0  0  0  0  0  0
    9.0985  -16.5735   23.7988 N   0  0  0  0  0  0  0  0  0  0  0  0
   11.4668  -16.3608   24.2900 C   0  0  0  0  0  0  0  0  0  0  0  0
   12.4580  -17.2472   24.6080 O   0  0  0  0  0  0  0  0  0  0  0  0
   11.4432  -15.2642   24.9082 O   0  0  0  0  0  0  0  0  0  0  0  0
  2  1  1  0
  3  2  1  0
  3  4  2  0
  5  3  1  0
  6  5  1  0
  6  7  1  1
  8  7  1  0
  8  9  2  0
 10  9  1  0
 11 10  1  0
 12 11  2  0
 12  8  1  0
 13  6  1  0
 14 13  2  0
 16 15  1  0
 17 16  2  0
 18 16  1  0
 19 20  1  0
 19 18  1  0
 20 21  1  0
 22 23  1  0
 22 21  1  6
 23 13  1  0
 24 22  1  0
 25 24  1  0
 26 24  2  0
M  END
$$$$
