GHR.pdb
     RDKit          3D

 26 26  0  0  1  0  0  0  0  0999 V2000
    5.8765  -18.7596   19.2996 N   0  0  0  0  0  0  0  0  0  0  0  0
    6.4288  -18.9416   20.6237 C   0  0  0  0  0  0  0  0  0  0  0  0
    7.2619  -17.7523   20.9375 C   0  0  0  0  0  0  0  0  0  0  0  0
    8.4964  -17.8758   21.2316 O   0  0  0  0  0  0  0  0  0  0  0  0
    6.7409  -16.4290   20.9284 N   0  0  0  0  0  0  0  0  0  0  0  0
    7.5803  -15.3029   21.3643 C   0  0  1  0  0  0  0  0  0  0  0  0
    7.0504  -14.0094   20.8012 C   0  0  0  0  0  0  0  0  0  0  0  0
    7.4115  -13.9088   19.3760 C   0  0  0  0  0  0  0  0  0  0  0  0
    8.1895  -14.8325   18.7053 C   0  0  0  0  0  0  0  0  0  0  0  0
    8.3405  -14.4715   17.4394 N   0  0  0  0  0  0  0  0  0  0  0  0
    7.6696  -13.3216   17.2754 C   0  0  0  0  0  0  0  0  0  0  0  0
    7.1064  -12.9820   18.4527 N   0  0  0  0  0  0  0  0  0  0  0  0
    7.5862  -15.3495   22.8441 C   0  0  0  0  0  0  0  0  0  0  0  0
    6.4874  -15.2317   23.4467 O   0  0  0  0  0  0  0  0  0  0  0  0
    6.6981  -21.0169   28.4889 N   0  0  0  0  0  0  0  0  0  0  0  0
    6.9604  -21.1638   27.0962 C   0  0  0  0  0  0  0  0  0  0  0  0
    6.9300  -22.3089   26.5509 N   0  0  0  0  0  0  0  0  0  0  0  0
    7.2574  -20.0198   26.3140 N   0  0  0  0  0  0  0  0  0  0  0  0
    7.3247  -18.6986   26.8851 C   0  0  0  0  0  0  0  0  0  0  0  0
    8.5685  -17.9750   26.4250 C   0  0  0  0  0  0  0  0  0  0  0  0
    8.4407  -17.3785   25.0636 C   0  0  0  0  0  0  0  0  0  0  0  0
    8.7669  -15.8931   25.0208 C   0  0  2  0  0  0  0  0  0  0  0  0
    8.7430  -15.5175   23.6209 N   0  0  0  0  0  0  0  0  0  0  0  0
   10.0331  -15.5699   25.6773 C   0  0  0  0  0  0  0  0  0  0  0  0
   10.1569  -15.4384   27.0324 O   0  0  0  0  0  0  0  0  0  0  0  0
   11.0658  -15.4013   24.9770 O   0  0  0  0  0  0  0  0  0  0  0  0
  2  1  1  0
  3  2  1  0
  3  4  2  0
  5  3  1  0
  6  5  1  0
  6  7  1  1
  8  7  1  0
  8  9  2  0
 10  9  1  0
 11 10  1  0
 12 11  2  0
 12  8  1  0
 13  6  1  0
 14 13  2  0
 16 15  1  0
 17 16  2  0
 18 16  1  0
 19 20  1  0
 19 18  1  0
 20 21  1  0
 22 23  1  0
 22 21  1  6
 23 13  1  0
 24 22  1  0
 25 24  1  0
 26 24  2  0
M  END
$$$$
