GHR.pdb
     RDKit          3D

 26 26  0  0  1  0  0  0  0  0999 V2000
    9.8550  -18.8211   18.0108 N   0  0  0  0  0  0  0  0  0  0  0  0
    8.6520  -18.5884   18.7790 C   0  0  0  0  0  0  0  0  0  0  0  0
    8.9241  -17.4771   19.7265 C   0  0  0  0  0  0  0  0  0  0  0  0
   10.1141  -17.2084   20.0975 O   0  0  0  0  0  0  0  0  0  0  0  0
    7.8916  -16.6614   20.2662 N   0  0  0  0  0  0  0  0  0  0  0  0
    8.2230  -15.5707   21.1953 C   0  0  1  0  0  0  0  0  0  0  0  0
    7.3960  -14.3503   20.8827 C   0  0  0  0  0  0  0  0  0  0  0  0
    7.7980  -13.8059   19.5736 C   0  0  0  0  0  0  0  0  0  0  0  0
    8.5738  -12.6750   19.4083 C   0  0  0  0  0  0  0  0  0  0  0  0
    8.7665  -12.4357   18.1194 N   0  0  0  0  0  0  0  0  0  0  0  0
    8.1248  -13.3982   17.4403 C   0  0  0  0  0  0  0  0  0  0  0  0
    7.5375  -14.2289   18.3255 N   0  0  0  0  0  0  0  0  0  0  0  0
    7.9953  -16.1116   22.5546 C   0  0  0  0  0  0  0  0  0  0  0  0
    6.8412  -16.5210   22.8455 O   0  0  0  0  0  0  0  0  0  0  0  0
   12.0555  -21.3468   28.4253 N   0  0  0  0  0  0  0  0  0  0  0  0
   11.5159  -20.0706   28.7572 C   0  0  0  0  0  0  0  0  0  0  0  0
   12.0792  -19.3376   29.6261 N   0  0  0  0  0  0  0  0  0  0  0  0
   10.3395  -19.6168   28.1099 N   0  0  0  0  0  0  0  0  0  0  0  0
   10.3592  -19.0854   26.7707 C   0  0  0  0  0  0  0  0  0  0  0  0
   10.2244  -17.5808   26.7856 C   0  0  0  0  0  0  0  0  0  0  0  0
   10.2124  -16.9708   25.4242 C   0  0  0  0  0  0  0  0  0  0  0  0
    8.8128  -16.7769   24.8604 C   0  0  2  0  0  0  0  0  0  0  0  0
    8.9878  -16.1976   23.5432 N   0  0  0  0  0  0  0  0  0  0  0  0
    7.9564  -15.9709   25.7295 C   0  0  0  0  0  0  0  0  0  0  0  0
    7.1455  -16.5138   26.6870 O   0  0  0  0  0  0  0  0  0  0  0  0
    7.9533  -14.7181   25.6030 O   0  0  0  0  0  0  0  0  0  0  0  0
  2  1  1  0
  3  2  1  0
  3  4  2  0
  5  3  1  0
  6  5  1  0
  6  7  1  6
  8  7  1  0
  8  9  2  0
 10  9  1  0
 11 10  1  0
 12 11  2  0
 12  8  1  0
 13  6  1  0
 14 13  2  0
 16 15  1  0
 17 16  2  0
 18 16  1  0
 19 20  1  0
 19 18  1  0
 20 21  1  0
 22 23  1  0
 22 21  1  1
 23 13  1  0
 24 22  1  0
 25 24  1  0
 26 24  2  0
M  END
$$$$
