GHR.pdb
     RDKit          3D

 26 26  0  0  1  0  0  0  0  0999 V2000
   13.8315  -19.8341   11.7768 N   0  0  0  0  0  0  0  0  0  0  0  0
   13.6543  -21.2153   12.1669 C   0  0  0  0  0  0  0  0  0  0  0  0
   13.3061  -21.2400   13.6109 C   0  0  0  0  0  0  0  0  0  0  0  0
   13.0671  -20.1606   14.2461 O   0  0  0  0  0  0  0  0  0  0  0  0
   13.2201  -22.4478   14.3568 N   0  0  0  0  0  0  0  0  0  0  0  0
   12.8472  -22.4113   15.7789 C   0  0  1  0  0  0  0  0  0  0  0  0
   11.7850  -23.4410   16.0658 C   0  0  0  0  0  0  0  0  0  0  0  0
   10.4730  -22.9279   15.6335 C   0  0  0  0  0  0  0  0  0  0  0  0
    9.9411  -23.1203   14.3732 C   0  0  0  0  0  0  0  0  0  0  0  0
    8.7519  -22.5429   14.2846 N   0  0  0  0  0  0  0  0  0  0  0  0
    8.5007  -21.9748   15.4735 C   0  0  0  0  0  0  0  0  0  0  0  0
    9.5472  -22.2099   16.2908 N   0  0  0  0  0  0  0  0  0  0  0  0
   14.1028  -22.6254   16.5338 C   0  0  0  0  0  0  0  0  0  0  0  0
   14.8196  -23.6133   16.2266 O   0  0  0  0  0  0  0  0  0  0  0  0
   19.3867  -17.9261   15.9131 N   0  0  0  0  0  0  0  0  0  0  0  0
   20.1173  -18.6113   16.9262 C   0  0  0  0  0  0  0  0  0  0  0  0
   21.3848  -18.5624   16.9531 N   0  0  0  0  0  0  0  0  0  0  0  0
   19.4209  -19.3535   17.9127 N   0  0  0  0  0  0  0  0  0  0  0  0
   18.0012  -19.5870   17.8345 C   0  0  0  0  0  0  0  0  0  0  0  0
   17.5069  -20.3201   19.0594 C   0  0  0  0  0  0  0  0  0  0  0  0
   16.0532  -20.6509   19.0089 C   0  0  0  0  0  0  0  0  0  0  0  0
   15.7595  -21.9872   18.3437 C   0  0  2  0  0  0  0  0  0  0  0  0
   14.5466  -21.7939   17.5737 N   0  0  0  0  0  0  0  0  0  0  0  0
   15.6593  -23.0887   19.3003 C   0  0  0  0  0  0  0  0  0  0  0  0
   16.5335  -24.1397   19.3203 O   0  0  0  0  0  0  0  0  0  0  0  0
   14.7309  -23.0847   20.1509 O   0  0  0  0  0  0  0  0  0  0  0  0
  2  1  1  0
  3  2  1  0
  3  4  2  0
  5  3  1  0
  6  5  1  0
  6  7  1  6
  8  7  1  0
  8  9  2  0
 10  9  1  0
 11 10  1  0
 12 11  2  0
 12  8  1  0
 13  6  1  0
 14 13  2  0
 16 15  1  0
 17 16  2  0
 18 16  1  0
 19 20  1  0
 19 18  1  0
 20 21  1  0
 22 23  1  0
 22 21  1  1
 23 13  1  0
 24 22  1  0
 25 24  1  0
 26 24  2  0
M  END
$$$$
