GHR.pdb
     RDKit          3D

 26 26  0  0  1  0  0  0  0  0999 V2000
   10.3016  -18.7144   16.9382 N   0  0  0  0  0  0  0  0  0  0  0  0
    9.2702  -18.5151   17.9321 C   0  0  0  0  0  0  0  0  0  0  0  0
    9.5955  -17.2759   18.6843 C   0  0  0  0  0  0  0  0  0  0  0  0
   10.7226  -16.6977   18.5390 O   0  0  0  0  0  0  0  0  0  0  0  0
    8.6850  -16.6720   19.5947 N   0  0  0  0  0  0  0  0  0  0  0  0
    9.0325  -15.4038   20.2531 C   0  0  1  0  0  0  0  0  0  0  0  0
    7.8672  -14.4501   20.1954 C   0  0  0  0  0  0  0  0  0  0  0  0
    7.6027  -14.0809   18.7935 C   0  0  0  0  0  0  0  0  0  0  0  0
    8.0464  -12.9146   18.2010 C   0  0  0  0  0  0  0  0  0  0  0  0
    7.6523  -12.8640   16.9369 N   0  0  0  0  0  0  0  0  0  0  0  0
    6.9555  -13.9848   16.6969 C   0  0  0  0  0  0  0  0  0  0  0  0
    6.9268  -14.7220   17.8256 N   0  0  0  0  0  0  0  0  0  0  0  0
    9.4422  -15.7601   21.6305 C   0  0  0  0  0  0  0  0  0  0  0  0
    8.8354  -16.7006   22.2064 O   0  0  0  0  0  0  0  0  0  0  0  0
    9.9448  -13.5144   29.4984 N   0  0  0  0  0  0  0  0  0  0  0  0
   10.4336  -14.8523   29.5290 C   0  0  0  0  0  0  0  0  0  0  0  0
   10.8076  -15.3782   30.6213 N   0  0  0  0  0  0  0  0  0  0  0  0
   10.5018  -15.6016   28.3278 N   0  0  0  0  0  0  0  0  0  0  0  0
   10.1474  -15.0352   27.0512 C   0  0  0  0  0  0  0  0  0  0  0  0
   10.2970  -16.0564   25.9479 C   0  0  0  0  0  0  0  0  0  0  0  0
    9.9039  -15.5423   24.6038 C   0  0  0  0  0  0  0  0  0  0  0  0
   11.0386  -15.5679   23.5907 C   0  0  2  0  0  0  0  0  0  0  0  0
   10.4679  -15.1140   22.3379 N   0  0  0  0  0  0  0  0  0  0  0  0
   11.6773  -16.8792   23.4855 C   0  0  0  0  0  0  0  0  0  0  0  0
   10.9931  -18.0167   23.1580 O   0  0  0  0  0  0  0  0  0  0  0  0
   12.9130  -16.9831   23.7038 O   0  0  0  0  0  0  0  0  0  0  0  0
  2  1  1  0
  3  2  1  0
  3  4  2  0
  5  3  1  0
  6  5  1  0
  6  7  1  1
  8  7  1  0
  8  9  2  0
 10  9  1  0
 11 10  1  0
 12 11  2  0
 12  8  1  0
 13  6  1  0
 14 13  2  0
 16 15  1  0
 17 16  2  0
 18 16  1  0
 19 20  1  0
 19 18  1  0
 20 21  1  0
 22 23  1  0
 22 21  1  1
 23 13  1  0
 24 22  1  0
 25 24  1  0
 26 24  2  0
M  END
$$$$
