GHR.pdb
     RDKit          3D

 26 26  0  0  1  0  0  0  0  0999 V2000
   10.0704  -18.0332   15.6847 N   0  0  0  0  0  0  0  0  0  0  0  0
    9.4640  -18.4910   16.9152 C   0  0  0  0  0  0  0  0  0  0  0  0
    9.7089  -17.4590   17.9553 C   0  0  0  0  0  0  0  0  0  0  0  0
   10.8892  -17.0449   18.2029 O   0  0  0  0  0  0  0  0  0  0  0  0
    8.6599  -16.8821   18.7230 N   0  0  0  0  0  0  0  0  0  0  0  0
    8.9667  -15.8843   19.7588 C   0  0  1  0  0  0  0  0  0  0  0  0
    7.8323  -14.9006   19.8873 C   0  0  0  0  0  0  0  0  0  0  0  0
    7.7217  -14.1127   18.6469 C   0  0  0  0  0  0  0  0  0  0  0  0
    8.2755  -12.8594   18.4713 C   0  0  0  0  0  0  0  0  0  0  0  0
    8.0075  -12.4061   17.2554 N   0  0  0  0  0  0  0  0  0  0  0  0
    7.2842  -13.3497   16.6343 C   0  0  0  0  0  0  0  0  0  0  0  0
    7.1120  -14.3849   17.4812 N   0  0  0  0  0  0  0  0  0  0  0  0
    9.2317  -16.6520   20.9967 C   0  0  0  0  0  0  0  0  0  0  0  0
    8.3710  -17.4904   21.3716 O   0  0  0  0  0  0  0  0  0  0  0  0
   15.7824  -20.2017   25.4046 N   0  0  0  0  0  0  0  0  0  0  0  0
   15.1035  -20.6264   24.2263 C   0  0  0  0  0  0  0  0  0  0  0  0
   14.6095  -21.7925   24.1506 N   0  0  0  0  0  0  0  0  0  0  0  0
   14.9791  -19.7372   23.1295 N   0  0  0  0  0  0  0  0  0  0  0  0
   14.3769  -18.4351   23.2644 C   0  0  0  0  0  0  0  0  0  0  0  0
   12.8770  -18.5152   23.1020 C   0  0  0  0  0  0  0  0  0  0  0  0
   12.2013  -17.1861   23.1509 C   0  0  0  0  0  0  0  0  0  0  0  0
   10.6923  -17.2677   22.9754 C   0  0  2  0  0  0  0  0  0  0  0  0
   10.3856  -16.5043   21.7819 N   0  0  0  0  0  0  0  0  0  0  0  0
    9.9573  -16.8070   24.1527 C   0  0  0  0  0  0  0  0  0  0  0  0
    9.6015  -17.6360   25.1799 O   0  0  0  0  0  0  0  0  0  0  0  0
    9.6289  -15.5946   24.2397 O   0  0  0  0  0  0  0  0  0  0  0  0
  2  1  1  0
  3  2  1  0
  3  4  2  0
  5  3  1  0
  6  5  1  0
  6  7  1  1
  8  7  1  0
  8  9  2  0
 10  9  1  0
 11 10  1  0
 12 11  2  0
 12  8  1  0
 13  6  1  0
 14 13  2  0
 16 15  1  0
 17 16  2  0
 18 16  1  0
 19 20  1  0
 19 18  1  0
 20 21  1  0
 22 23  1  0
 22 21  1  1
 23 13  1  0
 24 22  1  0
 25 24  1  0
 26 24  2  0
M  END
$$$$
