GHR.pdb
     RDKit          3D

 26 26  0  0  1  0  0  0  0  0999 V2000
   13.9784  -17.4296   18.4474 N   0  0  0  0  0  0  0  0  0  0  0  0
   13.5728  -18.2629   19.5575 C   0  0  0  0  0  0  0  0  0  0  0  0
   12.1821  -17.8898   19.9232 C   0  0  0  0  0  0  0  0  0  0  0  0
   11.6509  -16.8206   19.4754 O   0  0  0  0  0  0  0  0  0  0  0  0
   11.3753  -18.6890   20.7793 N   0  0  0  0  0  0  0  0  0  0  0  0
   10.0332  -18.2302   21.1680 C   0  0  1  0  0  0  0  0  0  0  0  0
    9.0584  -19.3788   21.1301 C   0  0  0  0  0  0  0  0  0  0  0  0
    8.5779  -19.5708   19.7504 C   0  0  0  0  0  0  0  0  0  0  0  0
    9.0114  -18.8310   18.6674 C   0  0  0  0  0  0  0  0  0  0  0  0
    8.3998  -19.2334   17.5630 N   0  0  0  0  0  0  0  0  0  0  0  0
    7.5709  -20.2285   17.9126 C   0  0  0  0  0  0  0  0  0  0  0  0
    7.6809  -20.4315   19.2412 N   0  0  0  0  0  0  0  0  0  0  0  0
   10.1844  -17.6220   22.5094 C   0  0  0  0  0  0  0  0  0  0  0  0
   11.0925  -18.0614   23.2621 O   0  0  0  0  0  0  0  0  0  0  0  0
    6.0740  -10.4606   26.0116 N   0  0  0  0  0  0  0  0  0  0  0  0
    6.1470  -11.4740   27.0105 C   0  0  0  0  0  0  0  0  0  0  0  0
    5.4800  -11.3709   28.0847 N   0  0  0  0  0  0  0  0  0  0  0  0
    6.9724  -12.6071   26.8009 N   0  0  0  0  0  0  0  0  0  0  0  0
    7.7303  -12.7882   25.5889 C   0  0  0  0  0  0  0  0  0  0  0  0
    8.5151  -14.0784   25.6314 C   0  0  0  0  0  0  0  0  0  0  0  0
    8.5467  -14.7991   24.3256 C   0  0  0  0  0  0  0  0  0  0  0  0
    9.4307  -16.0372   24.3391 C   0  0  2  0  0  0  0  0  0  0  0  0
    9.3770  -16.5827   22.9971 N   0  0  0  0  0  0  0  0  0  0  0  0
    9.0398  -17.0036   25.3646 C   0  0  0  0  0  0  0  0  0  0  0  0
    9.5858  -17.0213   26.6179 O   0  0  0  0  0  0  0  0  0  0  0  0
    8.1622  -17.8660   25.0974 O   0  0  0  0  0  0  0  0  0  0  0  0
  2  1  1  0
  3  2  1  0
  3  4  2  0
  5  3  1  0
  6  5  1  0
  6  7  1  1
  8  7  1  0
  8  9  2  0
 10  9  1  0
 11 10  1  0
 12 11  2  0
 12  8  1  0
 13  6  1  0
 14 13  2  0
 16 15  1  0
 17 16  2  0
 18 16  1  0
 19 20  1  0
 19 18  1  0
 20 21  1  0
 22 23  1  0
 22 21  1  6
 23 13  1  0
 24 22  1  0
 25 24  1  0
 26 24  2  0
M  END
$$$$
