GHR.pdb
     RDKit          3D

 26 26  0  0  1  0  0  0  0  0999 V2000
    7.8774  -23.5424   24.1741 N   0  0  0  0  0  0  0  0  0  0  0  0
    8.1144  -22.3809   23.3458 C   0  0  0  0  0  0  0  0  0  0  0  0
    7.6056  -21.1903   24.0741 C   0  0  0  0  0  0  0  0  0  0  0  0
    6.5730  -20.5637   23.6657 O   0  0  0  0  0  0  0  0  0  0  0  0
    8.2292  -20.6879   25.2494 N   0  0  0  0  0  0  0  0  0  0  0  0
    7.7259  -19.4605   25.8842 C   0  0  1  0  0  0  0  0  0  0  0  0
    8.0304  -19.4745   27.3601 C   0  0  0  0  0  0  0  0  0  0  0  0
    7.2188  -20.5125   28.0199 C   0  0  0  0  0  0  0  0  0  0  0  0
    5.8549  -20.6544   27.8528 C   0  0  0  0  0  0  0  0  0  0  0  0
    5.4084  -21.6733   28.5727 N   0  0  0  0  0  0  0  0  0  0  0  0
    6.4659  -22.1989   29.2089 C   0  0  0  0  0  0  0  0  0  0  0  0
    7.5639  -21.4924   28.8716 N   0  0  0  0  0  0  0  0  0  0  0  0
    8.3595  -18.3375   25.1566 C   0  0  0  0  0  0  0  0  0  0  0  0
    9.6029  -18.3797   24.9652 O   0  0  0  0  0  0  0  0  0  0  0  0
    8.5435  -14.5011   18.4651 N   0  0  0  0  0  0  0  0  0  0  0  0
    8.3689  -13.2489   19.1219 C   0  0  0  0  0  0  0  0  0  0  0  0
    8.3968  -12.1650   18.4633 N   0  0  0  0  0  0  0  0  0  0  0  0
    8.1618  -13.2152   20.5237 N   0  0  0  0  0  0  0  0  0  0  0  0
    7.7824  -14.3881   21.2697 C   0  0  0  0  0  0  0  0  0  0  0  0
    7.5073  -14.0426   22.7145 C   0  0  0  0  0  0  0  0  0  0  0  0
    7.0899  -15.2146   23.5376 C   0  0  0  0  0  0  0  0  0  0  0  0
    8.2461  -16.1238   23.9261 C   0  0  2  0  0  0  0  0  0  0  0  0
    7.6599  -17.2248   24.6646 N   0  0  0  0  0  0  0  0  0  0  0  0
    9.2912  -15.4264   24.6744 C   0  0  0  0  0  0  0  0  0  0  0  0
   10.4827  -15.0529   24.1176 O   0  0  0  0  0  0  0  0  0  0  0  0
    9.1013  -15.1501   25.8880 O   0  0  0  0  0  0  0  0  0  0  0  0
  2  1  1  0
  3  2  1  0
  3  4  2  0
  5  3  1  0
  6  5  1  0
  6  7  1  1
  8  7  1  0
  8  9  2  0
 10  9  1  0
 11 10  1  0
 12 11  2  0
 12  8  1  0
 13  6  1  0
 14 13  2  0
 16 15  1  0
 17 16  2  0
 18 16  1  0
 19 20  1  0
 19 18  1  0
 20 21  1  0
 22 23  1  0
 22 21  1  1
 23 13  1  0
 24 22  1  0
 25 24  1  0
 26 24  2  0
M  END
$$$$
