VIS.pdb
     RDKit          3D

 22 21  0  0  1  0  0  0  0  0999 V2000
   15.6488  -11.6717  -13.0591 C   0  0  0  0  0  0  0  0  0  0  0  0
   16.1505  -11.0442  -14.3252 C   0  0  2  0  0  0  0  0  0  0  0  0
   17.1769  -11.9319  -14.9943 C   0  0  0  0  0  0  0  0  0  0  0  0
   16.7791   -9.6946  -14.1083 C   0  0  2  0  0  0  0  0  0  0  0  0
   17.9346   -9.7349  -13.2642 N   0  0  0  0  0  0  0  0  0  0  0  0
   15.8317   -8.6840  -13.6148 C   0  0  0  0  0  0  0  0  0  0  0  0
   14.7144   -8.4506  -14.1348 O   0  0  0  0  0  0  0  0  0  0  0  0
   16.1013   -7.1519   -8.2672 C   0  0  0  0  0  0  0  0  0  0  0  0
   16.4236   -7.0547   -9.7248 C   0  0  0  0  0  0  0  0  0  0  0  0
   15.1152   -7.2009  -10.5012 C   0  0  2  0  0  0  0  0  0  0  0  0
   14.6454   -8.5996  -10.3107 C   0  0  0  0  0  0  0  0  0  0  0  0
   15.3603   -6.8244  -11.9683 C   0  0  2  0  0  0  0  0  0  0  0  0
   16.1900   -7.9144  -12.4770 N   0  0  0  0  0  0  0  0  0  0  0  0
   15.9946   -5.5240  -12.1426 C   0  0  0  0  0  0  0  0  0  0  0  0
   17.2464   -5.3358  -11.9317 O   0  0  0  0  0  0  0  0  0  0  0  0
   13.9665   -2.4222  -13.8379 O   0  0  0  0  0  0  0  0  0  0  0  0
   15.3462   -2.3782  -13.8852 C   0  0  0  0  0  0  0  0  0  0  0  0
   15.9682   -3.0799  -12.6767 C   0  0  2  0  0  0  0  0  0  0  0  0
   15.2761   -4.3777  -12.5589 N   0  0  0  0  0  0  0  0  0  0  0  0
   15.6997   -2.2398  -11.4912 C   0  0  0  0  0  0  0  0  0  0  0  0
   16.3353   -1.0318  -11.3636 O   0  0  0  0  0  0  0  0  0  0  0  0
   14.9028   -2.6058  -10.5970 O   0  0  0  0  0  0  0  0  0  0  0  0
  2  1  1  1
  2  3  1  0
  4  2  1  0
  4  5  1  1
  4  6  1  0
  6 13  1  0
  6  7  2  0
  8  9  1  0
  9 10  1  0
 10 12  1  0
 10 11  1  6
 12 14  1  0
 12 13  1  1
 14 15  2  0
 16 17  1  0
 18 17  1  6
 18 20  1  0
 19 14  1  0
 19 18  1  0
 20 21  1  0
 22 20  2  0
M  END
$$$$
