VIS.pdb
     RDKit          3D

 22 21  0  0  1  0  0  0  0  0999 V2000
   26.3500  -19.5561  -16.8677 C   0  0  0  0  0  0  0  0  0  0  0  0
   27.1461  -19.0291  -15.7114 C   0  0  2  0  0  0  0  0  0  0  0  0
   28.2987  -18.1777  -16.1968 C   0  0  0  0  0  0  0  0  0  0  0  0
   27.7112  -20.1157  -14.8376 C   0  0  2  0  0  0  0  0  0  0  0  0
   28.6516  -20.9571  -15.5135 N   0  0  0  0  0  0  0  0  0  0  0  0
   26.6781  -20.9370  -14.1890 C   0  0  0  0  0  0  0  0  0  0  0  0
   26.2922  -22.0517  -14.6152 O   0  0  0  0  0  0  0  0  0  0  0  0
   26.3301  -20.7823   -8.8769 C   0  0  0  0  0  0  0  0  0  0  0  0
   26.2179  -21.3111  -10.2717 C   0  0  0  0  0  0  0  0  0  0  0  0
   24.9897  -20.6684  -10.9155 C   0  0  2  0  0  0  0  0  0  0  0  0
   23.8077  -21.0748  -10.1086 C   0  0  0  0  0  0  0  0  0  0  0  0
   24.9134  -21.0994  -12.3860 C   0  0  2  0  0  0  0  0  0  0  0  0
   26.0684  -20.4507  -13.0028 N   0  0  0  0  0  0  0  0  0  0  0  0
   23.6638  -20.7340  -13.0408 C   0  0  0  0  0  0  0  0  0  0  0  0
   23.2780  -19.5155  -13.1549 O   0  0  0  0  0  0  0  0  0  0  0  0
   19.9840  -22.0666  -15.8933 O   0  0  0  0  0  0  0  0  0  0  0  0
   21.1455  -22.3744  -15.2122 C   0  0  0  0  0  0  0  0  0  0  0  0
   21.5290  -21.2632  -14.2336 C   0  0  2  0  0  0  0  0  0  0  0  0
   22.7888  -21.6965  -13.5991 N   0  0  0  0  0  0  0  0  0  0  0  0
   20.4495  -21.1665  -13.2293 C   0  0  0  0  0  0  0  0  0  0  0  0
   19.3956  -20.3187  -13.4526 O   0  0  0  0  0  0  0  0  0  0  0  0
   20.4740  -21.8428  -12.1754 O   0  0  0  0  0  0  0  0  0  0  0  0
  2  1  1  6
  2  3  1  0
  4  2  1  0
  4  5  1  6
  4  6  1  0
  6 13  1  0
  6  7  2  0
  8  9  1  0
  9 10  1  0
 10 12  1  0
 10 11  1  1
 12 14  1  0
 12 13  1  6
 14 15  2  0
 16 17  1  0
 18 17  1  6
 18 20  1  0
 19 14  1  0
 19 18  1  0
 20 21  1  0
 22 20  2  0
M  END
$$$$
