VIS.pdb
     RDKit          3D

 22 21  0  0  1  0  0  0  0  0999 V2000
   17.4487   -8.5859  -18.4279 C   0  0  0  0  0  0  0  0  0  0  0  0
   18.4277   -9.5993  -18.9409 C   0  0  2  0  0  0  0  0  0  0  0  0
   17.8780  -10.3080  -20.1594 C   0  0  0  0  0  0  0  0  0  0  0  0
   18.7856  -10.6458  -17.9209 C   0  0  2  0  0  0  0  0  0  0  0  0
   17.7004  -11.5232  -17.6022 N   0  0  0  0  0  0  0  0  0  0  0  0
   19.3567  -10.0847  -16.6875 C   0  0  0  0  0  0  0  0  0  0  0  0
   18.7520  -10.0323  -15.5899 O   0  0  0  0  0  0  0  0  0  0  0  0
   23.7098  -11.8493  -15.0374 C   0  0  0  0  0  0  0  0  0  0  0  0
   22.3912  -11.1441  -15.0801 C   0  0  0  0  0  0  0  0  0  0  0  0
   22.6563   -9.6838  -15.4456 C   0  0  2  0  0  0  0  0  0  0  0  0
   23.5570   -9.1263  -14.4010 C   0  0  0  0  0  0  0  0  0  0  0  0
   21.3155   -8.9474  -15.5644 C   0  0  2  0  0  0  0  0  0  0  0  0
   20.6772   -9.5646  -16.7249 N   0  0  0  0  0  0  0  0  0  0  0  0
   21.4496   -7.5041  -15.7142 C   0  0  0  0  0  0  0  0  0  0  0  0
   22.0818   -6.9705  -16.6952 O   0  0  0  0  0  0  0  0  0  0  0  0
   19.9417   -3.0742  -14.6709 O   0  0  0  0  0  0  0  0  0  0  0  0
   19.8317   -4.4467  -14.5628 C   0  0  0  0  0  0  0  0  0  0  0  0
   21.1382   -5.1429  -14.9477 C   0  0  2  0  0  0  0  0  0  0  0  0
   20.8906   -6.5890  -14.7902 N   0  0  0  0  0  0  0  0  0  0  0  0
   22.1769   -4.6887  -14.0001 C   0  0  0  0  0  0  0  0  0  0  0  0
   23.0347   -3.6856  -14.3706 O   0  0  0  0  0  0  0  0  0  0  0  0
   22.2930   -5.1997  -12.8624 O   0  0  0  0  0  0  0  0  0  0  0  0
  2  1  1  1
  2  3  1  0
  4  2  1  0
  4  5  1  1
  4  6  1  0
  6 13  1  0
  6  7  2  0
  8  9  1  0
  9 10  1  0
 10 12  1  0
 10 11  1  1
 12 14  1  0
 12 13  1  6
 14 15  2  0
 16 17  1  0
 18 17  1  1
 18 20  1  0
 19 14  1  0
 19 18  1  0
 20 21  1  0
 22 20  2  0
M  END
$$$$
