VIS.pdb
     RDKit          3D

 22 21  0  0  1  0  0  0  0  0999 V2000
   28.8078  -19.8810  -13.8663 C   0  0  0  0  0  0  0  0  0  0  0  0
   28.1381  -19.9545  -15.2059 C   0  0  2  0  0  0  0  0  0  0  0  0
   28.7081  -18.9176  -16.1488 C   0  0  0  0  0  0  0  0  0  0  0  0
   26.6498  -19.7456  -15.1358 C   0  0  2  0  0  0  0  0  0  0  0  0
   26.2799  -18.4220  -14.7351 N   0  0  0  0  0  0  0  0  0  0  0  0
   25.9623  -20.7359  -14.2937 C   0  0  0  0  0  0  0  0  0  0  0  0
   26.0039  -21.9748  -14.4843 O   0  0  0  0  0  0  0  0  0  0  0  0
   26.2239  -20.3624   -9.1821 C   0  0  0  0  0  0  0  0  0  0  0  0
   26.0169  -20.9449  -10.5443 C   0  0  0  0  0  0  0  0  0  0  0  0
   24.5684  -20.6745  -10.9506 C   0  0  2  0  0  0  0  0  0  0  0  0
   23.6984  -21.3521   -9.9519 C   0  0  0  0  0  0  0  0  0  0  0  0
   24.3543  -21.1613  -12.3898 C   0  0  2  0  0  0  0  0  0  0  0  0
   25.1977  -20.2757  -13.1896 N   0  0  0  0  0  0  0  0  0  0  0  0
   22.9621  -21.1294  -12.8194 C   0  0  0  0  0  0  0  0  0  0  0  0
   22.2801  -20.0432  -12.8610 O   0  0  0  0  0  0  0  0  0  0  0  0
   20.8804  -24.5779  -13.9601 O   0  0  0  0  0  0  0  0  0  0  0  0
   20.6520  -23.3883  -14.6239 C   0  0  0  0  0  0  0  0  0  0  0  0
   20.8741  -22.1856  -13.7053 C   0  0  2  0  0  0  0  0  0  0  0  0
   22.2645  -22.2931  -13.2230 N   0  0  0  0  0  0  0  0  0  0  0  0
   19.9244  -22.3075  -12.5800 C   0  0  0  0  0  0  0  0  0  0  0  0
   18.5945  -22.0492  -12.7899 O   0  0  0  0  0  0  0  0  0  0  0  0
   20.3062  -22.6423  -11.4350 O   0  0  0  0  0  0  0  0  0  0  0  0
  2  1  1  1
  2  3  1  0
  4  2  1  0
  4  5  1  1
  4  6  1  0
  6 13  1  0
  6  7  2  0
  8  9  1  0
  9 10  1  0
 10 12  1  0
 10 11  1  1
 12 14  1  0
 12 13  1  6
 14 15  2  0
 16 17  1  0
 18 17  1  6
 18 20  1  0
 19 14  1  0
 19 18  1  0
 20 21  1  0
 22 20  2  0
M  END
$$$$
