VIS.pdb
     RDKit          3D

 22 21  0  0  1  0  0  0  0  0999 V2000
   28.6971  -19.6697  -17.6577 C   0  0  0  0  0  0  0  0  0  0  0  0
   27.5045  -20.1840  -16.9082 C   0  0  2  0  0  0  0  0  0  0  0  0
   26.6905  -19.0401  -16.3443 C   0  0  0  0  0  0  0  0  0  0  0  0
   27.8697  -21.0959  -15.7686 C   0  0  2  0  0  0  0  0  0  0  0  0
   28.6099  -22.2503  -16.1793 N   0  0  0  0  0  0  0  0  0  0  0  0
   26.7138  -21.5033  -14.9561 C   0  0  0  0  0  0  0  0  0  0  0  0
   25.8220  -22.2950  -15.3446 O   0  0  0  0  0  0  0  0  0  0  0  0
   25.4615  -20.9433   -8.9789 C   0  0  0  0  0  0  0  0  0  0  0  0
   24.9244  -21.3062  -10.3271 C   0  0  0  0  0  0  0  0  0  0  0  0
   25.9695  -20.9046  -11.3677 C   0  0  2  0  0  0  0  0  0  0  0  0
   26.1896  -19.4400  -11.2264 C   0  0  0  0  0  0  0  0  0  0  0  0
   25.4768  -21.3254  -12.7584 C   0  0  2  0  0  0  0  0  0  0  0  0
   26.5846  -20.9752  -13.6446 N   0  0  0  0  0  0  0  0  0  0  0  0
   24.2302  -20.6851  -13.1583 C   0  0  0  0  0  0  0  0  0  0  0  0
   24.1261  -19.4146  -13.3052 O   0  0  0  0  0  0  0  0  0  0  0  0
   21.0298  -22.9306  -14.3418 O   0  0  0  0  0  0  0  0  0  0  0  0
   21.1314  -21.6476  -14.8430 C   0  0  0  0  0  0  0  0  0  0  0  0
   21.8259  -20.7144  -13.8498 C   0  0  2  0  0  0  0  0  0  0  0  0
   23.0473  -21.4190  -13.4149 N   0  0  0  0  0  0  0  0  0  0  0  0
   20.9065  -20.5191  -12.7097 C   0  0  0  0  0  0  0  0  0  0  0  0
   19.7417  -19.8204  -12.8956 O   0  0  0  0  0  0  0  0  0  0  0  0
   21.1664  -20.9781  -11.5737 O   0  0  0  0  0  0  0  0  0  0  0  0
  2  1  1  1
  2  3  1  0
  4  2  1  0
  4  5  1  6
  4  6  1  0
  6 13  1  0
  6  7  2  0
  8  9  1  0
  9 10  1  0
 10 12  1  0
 10 11  1  6
 12 14  1  0
 12 13  1  6
 14 15  2  0
 16 17  1  0
 18 17  1  6
 18 20  1  0
 19 14  1  0
 19 18  1  0
 20 21  1  0
 22 20  2  0
M  END
$$$$
