VIS.pdb
     RDKit          3D

 22 21  0  0  1  0  0  0  0  0999 V2000
   17.7038   -8.8937  -18.6977 C   0  0  0  0  0  0  0  0  0  0  0  0
   18.6873   -9.9370  -19.1365 C   0  0  2  0  0  0  0  0  0  0  0  0
   18.2023  -10.6406  -20.3851 C   0  0  0  0  0  0  0  0  0  0  0  0
   18.9466  -10.9844  -18.0880 C   0  0  2  0  0  0  0  0  0  0  0  0
   17.8149  -11.8220  -17.8294 N   0  0  0  0  0  0  0  0  0  0  0  0
   19.4599  -10.4301  -16.8264 C   0  0  0  0  0  0  0  0  0  0  0  0
   18.7456  -10.1623  -15.8309 O   0  0  0  0  0  0  0  0  0  0  0  0
   23.4775  -12.7927  -14.9423 C   0  0  0  0  0  0  0  0  0  0  0  0
   22.2479  -11.9502  -15.0693 C   0  0  0  0  0  0  0  0  0  0  0  0
   22.6948  -10.5031  -15.2750 C   0  0  2  0  0  0  0  0  0  0  0  0
   23.4949  -10.1168  -14.0818 C   0  0  0  0  0  0  0  0  0  0  0  0
   21.4568   -9.6255  -15.5011 C   0  0  2  0  0  0  0  0  0  0  0  0
   20.8520  -10.1760  -16.7120 N   0  0  0  0  0  0  0  0  0  0  0  0
   21.7597   -8.2063  -15.6350 C   0  0  0  0  0  0  0  0  0  0  0  0
   22.5611   -7.7558  -16.5303 O   0  0  0  0  0  0  0  0  0  0  0  0
   19.2539   -5.4553  -14.3385 O   0  0  0  0  0  0  0  0  0  0  0  0
   20.2363   -5.0659  -15.2278 C   0  0  0  0  0  0  0  0  0  0  0  0
   21.5500   -5.8046  -14.9660 C   0  0  2  0  0  0  0  0  0  0  0  0
   21.1902   -7.2246  -14.7891 N   0  0  0  0  0  0  0  0  0  0  0  0
   22.1246   -5.2563  -13.7201 C   0  0  0  0  0  0  0  0  0  0  0  0
   22.6411   -3.9865  -13.7181 O   0  0  0  0  0  0  0  0  0  0  0  0
   22.1513   -5.9260  -12.6620 O   0  0  0  0  0  0  0  0  0  0  0  0
  2  1  1  1
  2  3  1  0
  4  2  1  0
  4  5  1  1
  4  6  1  0
  6 13  1  0
  6  7  2  0
  8  9  1  0
  9 10  1  0
 10 12  1  0
 10 11  1  1
 12 14  1  0
 12 13  1  6
 14 15  2  0
 16 17  1  0
 18 17  1  1
 18 20  1  0
 19 14  1  0
 19 18  1  0
 20 21  1  0
 22 20  2  0
M  END
$$$$
