VIS.pdb
     RDKit          3D

 22 21  0  0  1  0  0  0  0  0999 V2000
   21.2538  -21.4557  -12.3300 C   0  0  0  0  0  0  0  0  0  0  0  0
   21.4020  -22.0744  -10.9722 C   0  0  2  0  0  0  0  0  0  0  0  0
   20.1088  -22.7272  -10.5356 C   0  0  0  0  0  0  0  0  0  0  0  0
   21.8004  -21.0849   -9.9111 C   0  0  2  0  0  0  0  0  0  0  0  0
   20.7686  -20.1443   -9.5951 N   0  0  0  0  0  0  0  0  0  0  0  0
   23.0508  -20.3745  -10.2181 C   0  0  0  0  0  0  0  0  0  0  0  0
   23.1075  -19.2657  -10.8015 O   0  0  0  0  0  0  0  0  0  0  0  0
   26.8924  -20.0994   -6.6817 C   0  0  0  0  0  0  0  0  0  0  0  0
   26.0234  -19.7942   -7.8604 C   0  0  0  0  0  0  0  0  0  0  0  0
   26.4764  -20.6864   -9.0158 C   0  0  2  0  0  0  0  0  0  0  0  0
   27.9151  -20.3951   -9.2576 C   0  0  0  0  0  0  0  0  0  0  0  0
   25.5784  -20.4233  -10.2317 C   0  0  2  0  0  0  0  0  0  0  0  0
   24.2820  -20.9691   -9.8359 N   0  0  0  0  0  0  0  0  0  0  0  0
   26.0719  -21.0203  -11.4661 C   0  0  0  0  0  0  0  0  0  0  0  0
   26.3348  -22.2722  -11.5672 O   0  0  0  0  0  0  0  0  0  0  0  0
   25.1995  -19.7615  -15.2130 O   0  0  0  0  0  0  0  0  0  0  0  0
   26.5520  -19.9514  -15.0071 C   0  0  0  0  0  0  0  0  0  0  0  0
   26.8095  -20.9240  -13.8549 C   0  0  2  0  0  0  0  0  0  0  0  0
   26.2938  -20.2625  -12.6409 N   0  0  0  0  0  0  0  0  0  0  0  0
   28.2712  -21.1178  -13.7584 C   0  0  0  0  0  0  0  0  0  0  0  0
   28.8908  -22.0017  -14.6034 O   0  0  0  0  0  0  0  0  0  0  0  0
   28.9601  -20.4919  -12.9203 O   0  0  0  0  0  0  0  0  0  0  0  0
  2  1  1  6
  2  3  1  0
  4  2  1  0
  4  5  1  6
  4  6  1  0
  6 13  1  0
  6  7  2  0
  8  9  1  0
  9 10  1  0
 10 12  1  0
 10 11  1  6
 12 14  1  0
 12 13  1  1
 14 15  2  0
 16 17  1  0
 18 17  1  6
 18 20  1  0
 19 14  1  0
 19 18  1  0
 20 21  1  0
 22 20  2  0
M  END
$$$$
