PAL.pdb
     RDKit          3D

 21 21  0  0  1  0  0  0  0  0999 V2000
   17.1743  -12.5998  -19.4278 N   0  0  0  0  0  0  0  0  0  0  0  0
   16.6009  -13.0230  -20.6688 C   0  0  0  0  0  0  0  0  0  0  0  0
   17.5866  -14.0587  -21.1723 C   0  0  0  0  0  0  0  0  0  0  0  0
   18.9039  -13.3706  -20.8541 C   0  0  0  0  0  0  0  0  0  0  0  0
   18.5882  -12.8103  -19.4768 C   0  0  1  0  0  0  0  0  0  0  0  0
   19.2845  -11.5311  -19.2199 C   0  0  0  0  0  0  0  0  0  0  0  0
   20.5276  -11.5177  -19.0387 O   0  0  0  0  0  0  0  0  0  0  0  0
   18.2941   -7.9254  -19.4208 C   0  0  0  0  0  0  0  0  0  0  0  0
   19.2630   -9.0182  -18.9500 C   0  0  2  0  0  0  0  0  0  0  0  0
   18.6168  -10.2756  -19.1628 N   0  0  0  0  0  0  0  0  0  0  0  0
   19.5109   -8.7419  -17.5072 C   0  0  0  0  0  0  0  0  0  0  0  0
   18.5624   -8.9168  -16.7003 O   0  0  0  0  0  0  0  0  0  0  0  0
   23.5382  -10.4507  -13.9821 C   0  0  0  0  0  0  0  0  0  0  0  0
   22.2607   -9.5917  -14.0596 C   0  0  2  0  0  0  0  0  0  0  0  0
   21.0945  -10.5488  -14.2041 C   0  0  0  0  0  0  0  0  0  0  0  0
   22.3387   -8.6446  -15.2096 C   0  0  0  0  0  0  0  0  0  0  0  0
   21.0192   -8.0405  -15.5885 C   0  0  2  0  0  0  0  0  0  0  0  0
   20.7482   -8.2983  -17.0135 N   0  0  0  0  0  0  0  0  0  0  0  0
   21.0323   -6.5752  -15.4095 C   0  0  0  0  0  0  0  0  0  0  0  0
   21.0736   -5.6398  -16.4302 O   0  0  0  0  0  0  0  0  0  0  0  0
   21.0059   -6.0949  -14.2405 O   0  0  0  0  0  0  0  0  0  0  0  0
  1  2  1  0
  3  2  1  0
  4  3  1  0
  5  4  1  0
  5  1  1  0
  5  6  1  6
  7  6  2  0
  9  8  1  1
  9 10  1  0
 10  6  1  0
 11  9  1  0
 11 18  1  0
 12 11  2  0
 14 13  1  6
 14 16  1  0
 14 15  1  0
 17 18  1  0
 17 19  1  0
 17 16  1  6
 19 20  1  0
 21 19  2  0
M  END
$$$$
