PAL.pdb
     RDKit          3D

 21 21  0  0  1  0  0  0  0  0999 V2000
   23.5980  -23.0478  -17.3163 N   0  0  0  0  0  0  0  0  0  0  0  0
   22.6783  -23.8154  -18.0992 C   0  0  0  0  0  0  0  0  0  0  0  0
   22.7661  -23.1720  -19.4690 C   0  0  0  0  0  0  0  0  0  0  0  0
   22.7809  -21.7008  -19.0877 C   0  0  0  0  0  0  0  0  0  0  0  0
   23.7167  -21.7433  -17.8905 C   0  0  1  0  0  0  0  0  0  0  0  0
   23.3717  -20.7259  -16.8741 C   0  0  0  0  0  0  0  0  0  0  0  0
   23.5420  -19.5063  -17.1228 O   0  0  0  0  0  0  0  0  0  0  0  0
   21.6184  -20.7944  -13.5607 C   0  0  0  0  0  0  0  0  0  0  0  0
   22.5319  -20.0942  -14.5754 C   0  0  2  0  0  0  0  0  0  0  0  0
   22.8428  -21.0491  -15.5929 N   0  0  0  0  0  0  0  0  0  0  0  0
   23.7350  -19.6682  -13.8069 C   0  0  0  0  0  0  0  0  0  0  0  0
   23.6685  -18.5980  -13.1499 O   0  0  0  0  0  0  0  0  0  0  0  0
   25.3483  -19.5610  -10.1077 C   0  0  0  0  0  0  0  0  0  0  0  0
   25.3209  -20.9062  -10.8598 C   0  0  2  0  0  0  0  0  0  0  0  0
   25.5290  -21.9936   -9.8249 C   0  0  0  0  0  0  0  0  0  0  0  0
   26.3804  -20.9379  -11.9096 C   0  0  0  0  0  0  0  0  0  0  0  0
   26.1362  -19.9905  -13.0464 C   0  0  2  0  0  0  0  0  0  0  0  0
   24.9304  -20.4043  -13.7849 N   0  0  0  0  0  0  0  0  0  0  0  0
   27.2579  -20.0086  -14.0060 C   0  0  0  0  0  0  0  0  0  0  0  0
   28.5530  -19.5965  -13.7385 O   0  0  0  0  0  0  0  0  0  0  0  0
   27.0589  -20.4276  -15.1819 O   0  0  0  0  0  0  0  0  0  0  0  0
  1  2  1  0
  3  2  1  0
  4  3  1  0
  5  4  1  0
  5  1  1  0
  5  6  1  1
  7  6  2  0
  9  8  1  1
  9 10  1  0
 10  6  1  0
 11  9  1  0
 11 18  1  0
 12 11  2  0
 14 13  1  1
 14 16  1  0
 14 15  1  0
 17 18  1  0
 17 19  1  0
 17 16  1  1
 19 20  1  0
 21 19  2  0
M  END
$$$$
