PAL.pdb
     RDKit          3D

 21 21  0  0  1  0  0  0  0  0999 V2000
   29.4459  -21.8408  -17.3592 N   0  0  0  0  0  0  0  0  0  0  0  0
   30.1195  -23.0654  -17.0520 C   0  0  0  0  0  0  0  0  0  0  0  0
   29.1660  -24.1255  -17.5668 C   0  0  0  0  0  0  0  0  0  0  0  0
   27.8366  -23.5610  -17.0935 C   0  0  0  0  0  0  0  0  0  0  0  0
   28.0388  -22.0898  -17.4185 C   0  0  1  0  0  0  0  0  0  0  0  0
   27.3423  -21.2042  -16.4604 C   0  0  0  0  0  0  0  0  0  0  0  0
   27.7918  -21.0609  -15.2961 O   0  0  0  0  0  0  0  0  0  0  0  0
   24.3933  -18.8801  -16.6780 C   0  0  0  0  0  0  0  0  0  0  0  0
   25.4235  -19.6718  -15.8618 C   0  0  2  0  0  0  0  0  0  0  0  0
   26.1592  -20.4815  -16.7822 N   0  0  0  0  0  0  0  0  0  0  0  0
   24.6329  -20.4835  -14.8946 C   0  0  0  0  0  0  0  0  0  0  0  0
   24.2226  -21.6124  -15.2668 O   0  0  0  0  0  0  0  0  0  0  0  0
   25.8788  -22.1902  -11.0803 C   0  0  0  0  0  0  0  0  0  0  0  0
   25.5109  -20.6945  -11.0219 C   0  0  2  0  0  0  0  0  0  0  0  0
   25.9514  -20.1854   -9.6641 C   0  0  0  0  0  0  0  0  0  0  0  0
   24.0448  -20.5102  -11.2276 C   0  0  0  0  0  0  0  0  0  0  0  0
   23.5796  -20.8480  -12.6130 C   0  0  2  0  0  0  0  0  0  0  0  0
   24.3287  -20.0457  -13.5957 N   0  0  0  0  0  0  0  0  0  0  0  0
   22.1504  -20.5232  -12.7897 C   0  0  0  0  0  0  0  0  0  0  0  0
   21.6483  -19.5061  -13.5847 O   0  0  0  0  0  0  0  0  0  0  0  0
   21.2807  -21.2078  -12.1791 O   0  0  0  0  0  0  0  0  0  0  0  0
  1  2  1  0
  3  2  1  0
  4  3  1  0
  5  4  1  0
  5  1  1  0
  5  6  1  1
  7  6  2  0
  9  8  1  6
  9 10  1  0
 10  6  1  0
 11  9  1  0
 11 18  1  0
 12 11  2  0
 14 13  1  1
 14 16  1  0
 14 15  1  0
 17 18  1  0
 17 19  1  0
 17 16  1  1
 19 20  1  0
 21 19  2  0
M  END
$$$$
