PAL.pdb
     RDKit          3D

 21 21  0  0  1  0  0  0  0  0999 V2000
   27.9495  -21.0390  -15.2808 N   0  0  0  0  0  0  0  0  0  0  0  0
   28.0595  -21.3089  -16.6819 C   0  0  0  0  0  0  0  0  0  0  0  0
   28.7288  -20.0618  -17.2248 C   0  0  0  0  0  0  0  0  0  0  0  0
   27.9750  -18.9843  -16.4628 C   0  0  0  0  0  0  0  0  0  0  0  0
   27.9144  -19.6227  -15.0847 C   0  0  1  0  0  0  0  0  0  0  0  0
   26.6820  -19.2585  -14.3527 C   0  0  0  0  0  0  0  0  0  0  0  0
   26.4365  -18.0534  -14.0962 O   0  0  0  0  0  0  0  0  0  0  0  0
   23.4100  -20.7838  -13.8531 C   0  0  0  0  0  0  0  0  0  0  0  0
   24.5011  -19.8932  -13.2441 C   0  0  2  0  0  0  0  0  0  0  0  0
   25.7267  -20.2144  -13.9065 N   0  0  0  0  0  0  0  0  0  0  0  0
   24.5323  -20.2301  -11.7932 C   0  0  0  0  0  0  0  0  0  0  0  0
   23.4948  -20.0184  -11.1147 O   0  0  0  0  0  0  0  0  0  0  0  0
   27.2434  -18.6764   -7.0094 C   0  0  0  0  0  0  0  0  0  0  0  0
   26.6974  -19.9913   -7.6003 C   0  0  2  0  0  0  0  0  0  0  0  0
   27.6703  -21.0862   -7.2113 C   0  0  0  0  0  0  0  0  0  0  0  0
   26.5607  -19.8796   -9.0816 C   0  0  0  0  0  0  0  0  0  0  0  0
   25.7586  -20.9850   -9.7017 C   0  0  2  0  0  0  0  0  0  0  0  0
   25.6610  -20.7695  -11.1559 N   0  0  0  0  0  0  0  0  0  0  0  0
   24.3800  -21.0041   -9.1744 C   0  0  0  0  0  0  0  0  0  0  0  0
   23.9511  -21.7190   -8.0682 O   0  0  0  0  0  0  0  0  0  0  0  0
   23.4863  -20.3244   -9.7550 O   0  0  0  0  0  0  0  0  0  0  0  0
  1  2  1  0
  3  2  1  0
  4  3  1  0
  5  4  1  0
  5  1  1  0
  5  6  1  6
  7  6  2  0
  9  8  1  6
  9 10  1  0
 10  6  1  0
 11  9  1  0
 11 18  1  0
 12 11  2  0
 14 13  1  6
 14 16  1  0
 14 15  1  0
 17 18  1  0
 17 19  1  0
 17 16  1  1
 19 20  1  0
 21 19  2  0
M  END
$$$$
