PAL.pdb
     RDKit          3D

 21 21  0  0  1  0  0  0  0  0999 V2000
   28.0036  -19.3612  -15.3676 N   0  0  0  0  0  0  0  0  0  0  0  0
   28.4612  -19.0493  -16.6872 C   0  0  0  0  0  0  0  0  0  0  0  0
   28.3827  -17.5361  -16.7340 C   0  0  0  0  0  0  0  0  0  0  0  0
   27.0454  -17.3032  -16.0503 C   0  0  0  0  0  0  0  0  0  0  0  0
   27.1447  -18.3104  -14.9162 C   0  0  1  0  0  0  0  0  0  0  0  0
   25.8271  -18.8751  -14.5522 C   0  0  0  0  0  0  0  0  0  0  0  0
   24.9132  -18.1201  -14.1363 O   0  0  0  0  0  0  0  0  0  0  0  0
   24.1553  -22.1755  -15.0604 C   0  0  0  0  0  0  0  0  0  0  0  0
   24.2523  -20.8377  -14.3151 C   0  0  2  0  0  0  0  0  0  0  0  0
   25.5182  -20.2612  -14.6455 N   0  0  0  0  0  0  0  0  0  0  0  0
   24.1395  -21.1740  -12.8682 C   0  0  0  0  0  0  0  0  0  0  0  0
   23.1310  -21.8222  -12.4887 O   0  0  0  0  0  0  0  0  0  0  0  0
   26.6467  -19.2308   -7.5716 C   0  0  0  0  0  0  0  0  0  0  0  0
   25.9163  -20.4092   -8.2453 C   0  0  2  0  0  0  0  0  0  0  0  0
   26.5410  -21.6805   -7.7067 C   0  0  0  0  0  0  0  0  0  0  0  0
   26.0437  -20.3212   -9.7291 C   0  0  0  0  0  0  0  0  0  0  0  0
   24.9819  -21.0738  -10.4747 C   0  0  2  0  0  0  0  0  0  0  0  0
   25.1031  -20.8012  -11.9175 N   0  0  0  0  0  0  0  0  0  0  0  0
   23.6322  -20.6385  -10.0648 C   0  0  0  0  0  0  0  0  0  0  0  0
   22.7800  -21.3395   -9.2274 O   0  0  0  0  0  0  0  0  0  0  0  0
   23.1798  -19.5393  -10.4947 O   0  0  0  0  0  0  0  0  0  0  0  0
  1  2  1  0
  3  2  1  0
  4  3  1  0
  5  4  1  0
  5  1  1  0
  5  6  1  6
  7  6  2  0
  9  8  1  6
  9 10  1  0
 10  6  1  0
 11  9  1  0
 11 18  1  0
 12 11  2  0
 14 13  1  1
 14 16  1  0
 14 15  1  0
 17 18  1  0
 17 19  1  0
 17 16  1  1
 19 20  1  0
 21 19  2  0
M  END
$$$$
