PAL.pdb
     RDKit          3D

 21 21  0  0  1  0  0  0  0  0999 V2000
   26.6651  -34.1555   -8.7347 N   0  0  0  0  0  0  0  0  0  0  0  0
   25.4046  -34.0508   -9.4042 C   0  0  0  0  0  0  0  0  0  0  0  0
   25.1640  -32.5552   -9.4609 C   0  0  0  0  0  0  0  0  0  0  0  0
   25.5987  -32.1477   -8.0627 C   0  0  0  0  0  0  0  0  0  0  0  0
   26.8476  -33.0008   -7.9107 C   0  0  1  0  0  0  0  0  0  0  0  0
   27.0683  -33.4257   -6.5115 C   0  0  0  0  0  0  0  0  0  0  0  0
   27.1610  -32.5654   -5.6007 O   0  0  0  0  0  0  0  0  0  0  0  0
   26.4580  -36.4182   -4.5344 C   0  0  0  0  0  0  0  0  0  0  0  0
   27.4020  -35.2330   -4.7763 C   0  0  2  0  0  0  0  0  0  0  0  0
   27.1862  -34.7883   -6.1178 N   0  0  0  0  0  0  0  0  0  0  0  0
   28.7777  -35.7650   -4.5668 C   0  0  0  0  0  0  0  0  0  0  0  0
   29.2082  -36.6262   -5.3757 O   0  0  0  0  0  0  0  0  0  0  0  0
   33.0471  -35.8110   -5.6593 C   0  0  0  0  0  0  0  0  0  0  0  0
   32.1948  -34.6233   -5.1705 C   0  0  2  0  0  0  0  0  0  0  0  0
   32.9572  -33.3610   -5.5197 C   0  0  0  0  0  0  0  0  0  0  0  0
   31.9490  -34.7276   -3.7028 C   0  0  0  0  0  0  0  0  0  0  0  0
   30.9916  -35.8183   -3.3241 C   0  0  2  0  0  0  0  0  0  0  0  0
   29.6078  -35.3494   -3.5134 N   0  0  0  0  0  0  0  0  0  0  0  0
   31.1335  -36.1820   -1.9004 C   0  0  0  0  0  0  0  0  0  0  0  0
   32.2582  -36.7471   -1.3222 O   0  0  0  0  0  0  0  0  0  0  0  0
   30.1680  -35.9771   -1.1107 O   0  0  0  0  0  0  0  0  0  0  0  0
  1  2  1  0
  3  2  1  0
  4  3  1  0
  5  4  1  0
  5  1  1  0
  5  6  1  1
  7  6  2  0
  9  8  1  6
  9 10  1  0
 10  6  1  0
 11  9  1  0
 11 18  1  0
 12 11  2  0
 14 13  1  1
 14 16  1  0
 14 15  1  0
 17 18  1  0
 17 19  1  0
 17 16  1  1
 19 20  1  0
 21 19  2  0
M  END
$$$$
