PAL.pdb
     RDKit          3D

 21 21  0  0  1  0  0  0  0  0999 V2000
   16.7066  -11.5169  -16.3832 N   0  0  0  0  0  0  0  0  0  0  0  0
   17.4476  -12.4755  -17.1446 C   0  0  0  0  0  0  0  0  0  0  0  0
   17.0975  -13.7926  -16.4809 C   0  0  0  0  0  0  0  0  0  0  0  0
   17.1705  -13.3966  -15.0154 C   0  0  0  0  0  0  0  0  0  0  0  0
   16.4882  -12.0393  -15.0698 C   0  0  1  0  0  0  0  0  0  0  0  0
   17.0351  -11.0975  -14.0693 C   0  0  0  0  0  0  0  0  0  0  0  0
   16.9768  -11.3767  -12.8458 O   0  0  0  0  0  0  0  0  0  0  0  0
   18.8657   -7.8143  -14.2592 C   0  0  0  0  0  0  0  0  0  0  0  0
   18.0993   -8.8845  -13.4706 C   0  0  2  0  0  0  0  0  0  0  0  0
   17.6419   -9.8570  -14.4135 N   0  0  0  0  0  0  0  0  0  0  0  0
   16.9776   -8.1664  -12.8031 C   0  0  0  0  0  0  0  0  0  0  0  0
   15.9548   -7.9030  -13.4858 O   0  0  0  0  0  0  0  0  0  0  0  0
   15.4280   -6.5401   -6.9890 C   0  0  0  0  0  0  0  0  0  0  0  0
   14.9996   -6.6201   -8.4675 C   0  0  2  0  0  0  0  0  0  0  0  0
   13.6788   -7.3623   -8.5038 C   0  0  0  0  0  0  0  0  0  0  0  0
   16.0427   -7.3166   -9.2752 C   0  0  0  0  0  0  0  0  0  0  0  0
   15.8840   -7.1366  -10.7558 C   0  0  2  0  0  0  0  0  0  0  0  0
   17.0128   -7.7742  -11.4554 N   0  0  0  0  0  0  0  0  0  0  0  0
   15.8996   -5.7070  -11.1239 C   0  0  0  0  0  0  0  0  0  0  0  0
   14.7820   -4.9281  -11.3745 O   0  0  0  0  0  0  0  0  0  0  0  0
   17.0076   -5.1082  -11.2309 O   0  0  0  0  0  0  0  0  0  0  0  0
  1  2  1  0
  3  2  1  0
  4  3  1  0
  5  4  1  0
  5  1  1  0
  5  6  1  1
  7  6  2  0
  9  8  1  6
  9 10  1  0
 10  6  1  0
 11  9  1  0
 11 18  1  0
 12 11  2  0
 14 13  1  1
 14 16  1  0
 14 15  1  0
 17 18  1  0
 17 19  1  0
 17 16  1  1
 19 20  1  0
 21 19  2  0
M  END
$$$$
