PAL.pdb
     RDKit          3D

 21 21  0  0  1  0  0  0  0  0999 V2000
   20.1427  -15.4312  -18.4696 N   0  0  0  0  0  0  0  0  0  0  0  0
   19.8181  -16.3596  -17.4302 C   0  0  0  0  0  0  0  0  0  0  0  0
   18.3343  -16.1361  -17.2150 C   0  0  0  0  0  0  0  0  0  0  0  0
   18.2687  -14.6185  -17.2665 C   0  0  0  0  0  0  0  0  0  0  0  0
   19.2088  -14.3487  -18.4302 C   0  0  1  0  0  0  0  0  0  0  0  0
   19.9412  -13.0734  -18.2739 C   0  0  0  0  0  0  0  0  0  0  0  0
   21.0260  -13.0452  -17.6410 O   0  0  0  0  0  0  0  0  0  0  0  0
   19.4154   -9.5719  -19.5561 C   0  0  0  0  0  0  0  0  0  0  0  0
   20.1797  -10.5942  -18.7045 C   0  0  2  0  0  0  0  0  0  0  0  0
   19.4823  -11.8377  -18.8107 N   0  0  0  0  0  0  0  0  0  0  0  0
   20.1683  -10.0512  -17.3173 C   0  0  0  0  0  0  0  0  0  0  0  0
   19.2031  -10.3558  -16.5710 O   0  0  0  0  0  0  0  0  0  0  0  0
   21.5934  -10.8233  -13.2069 C   0  0  0  0  0  0  0  0  0  0  0  0
   22.5929  -10.5972  -14.3583 C   0  0  2  0  0  0  0  0  0  0  0  0
   23.9623  -10.9805  -13.8344 C   0  0  0  0  0  0  0  0  0  0  0  0
   22.5560   -9.1754  -14.8085 C   0  0  0  0  0  0  0  0  0  0  0  0
   21.2460   -8.7640  -15.4120 C   0  0  2  0  0  0  0  0  0  0  0  0
   21.1809   -9.2205  -16.8112 N   0  0  0  0  0  0  0  0  0  0  0  0
   21.1050   -7.2946  -15.4300 C   0  0  0  0  0  0  0  0  0  0  0  0
   21.1565   -6.4947  -16.5597 O   0  0  0  0  0  0  0  0  0  0  0  0
   20.9220   -6.6777  -14.3420 O   0  0  0  0  0  0  0  0  0  0  0  0
  1  2  1  0
  3  2  1  0
  4  3  1  0
  5  4  1  0
  5  1  1  0
  5  6  1  1
  7  6  2  0
  9  8  1  6
  9 10  1  0
 10  6  1  0
 11  9  1  0
 11 18  1  0
 12 11  2  0
 14 13  1  1
 14 16  1  0
 14 15  1  0
 17 18  1  0
 17 19  1  0
 17 16  1  6
 19 20  1  0
 21 19  2  0
M  END
$$$$
