PAL.pdb
     RDKit          3D

 21 21  0  0  1  0  0  0  0  0999 V2000
   26.3101  -18.7274  -15.3730 N   0  0  0  0  0  0  0  0  0  0  0  0
   27.2544  -17.8577  -16.0052 C   0  0  0  0  0  0  0  0  0  0  0  0
   28.5866  -18.5192  -15.7128 C   0  0  0  0  0  0  0  0  0  0  0  0
   28.3934  -18.9078  -14.2562 C   0  0  0  0  0  0  0  0  0  0  0  0
   26.9614  -19.4158  -14.3017 C   0  0  1  0  0  0  0  0  0  0  0  0
   26.2357  -19.1581  -13.0391 C   0  0  0  0  0  0  0  0  0  0  0  0
   25.4820  -18.1579  -12.9404 O   0  0  0  0  0  0  0  0  0  0  0  0
   24.1246  -20.3748  -11.0896 C   0  0  0  0  0  0  0  0  0  0  0  0
   25.5287  -19.8774  -10.7215 C   0  0  2  0  0  0  0  0  0  0  0  0
   26.3392  -19.9959  -11.8932 N   0  0  0  0  0  0  0  0  0  0  0  0
   25.9923  -20.7621   -9.6161 C   0  0  0  0  0  0  0  0  0  0  0  0
   26.1953  -21.9757   -9.8758 O   0  0  0  0  0  0  0  0  0  0  0  0
   28.9071  -18.2117   -6.1413 C   0  0  0  0  0  0  0  0  0  0  0  0
   27.7176  -19.1780   -5.9760 C   0  0  2  0  0  0  0  0  0  0  0  0
   27.5144  -19.3757   -4.4873 C   0  0  0  0  0  0  0  0  0  0  0  0
   27.9961  -20.4701   -6.6680 C   0  0  0  0  0  0  0  0  0  0  0  0
   26.7734  -21.1336   -7.2287 C   0  0  2  0  0  0  0  0  0  0  0  0
   26.2104  -20.3029   -8.3073 N   0  0  0  0  0  0  0  0  0  0  0  0
   25.7241  -21.2749   -6.1999 C   0  0  0  0  0  0  0  0  0  0  0  0
   24.5115  -20.6055   -6.1896 O   0  0  0  0  0  0  0  0  0  0  0  0
   25.9116  -22.0631   -5.2296 O   0  0  0  0  0  0  0  0  0  0  0  0
  1  2  1  0
  3  2  1  0
  4  3  1  0
  5  4  1  0
  5  1  1  0
  5  6  1  1
  7  6  2  0
  9  8  1  6
  9 10  1  0
 10  6  1  0
 11  9  1  0
 11 18  1  0
 12 11  2  0
 14 13  1  1
 14 16  1  0
 14 15  1  0
 17 18  1  0
 17 19  1  0
 17 16  1  1
 19 20  1  0
 21 19  2  0
M  END
$$$$
