PAL.pdb
     RDKit          3D

 21 21  0  0  1  0  0  0  0  0999 V2000
   26.5853  -20.0423  -15.2742 N   0  0  0  0  0  0  0  0  0  0  0  0
   27.8634  -20.0220  -15.9175 C   0  0  0  0  0  0  0  0  0  0  0  0
   28.4459  -21.3793  -15.5768 C   0  0  0  0  0  0  0  0  0  0  0  0
   28.0574  -21.4918  -14.1117 C   0  0  0  0  0  0  0  0  0  0  0  0
   26.6396  -20.9466  -14.1675 C   0  0  1  0  0  0  0  0  0  0  0  0
   26.2663  -20.2301  -12.9288 C   0  0  0  0  0  0  0  0  0  0  0  0
   26.6326  -19.0409  -12.7561 O   0  0  0  0  0  0  0  0  0  0  0  0
   23.6776  -20.4432  -10.3878 C   0  0  0  0  0  0  0  0  0  0  0  0
   25.1646  -20.1749  -10.6547 C   0  0  2  0  0  0  0  0  0  0  0  0
   25.4952  -20.8189  -11.8875 N   0  0  0  0  0  0  0  0  0  0  0  0
   25.8935  -20.7582   -9.4937 C   0  0  0  0  0  0  0  0  0  0  0  0
   26.1565  -21.9877   -9.5179 O   0  0  0  0  0  0  0  0  0  0  0  0
   27.5277  -19.9918   -4.2723 C   0  0  0  0  0  0  0  0  0  0  0  0
   28.5822  -19.8156   -5.3827 C   0  0  2  0  0  0  0  0  0  0  0  0
   29.5410  -18.7401   -4.9127 C   0  0  0  0  0  0  0  0  0  0  0  0
   27.9264  -19.4416   -6.6694 C   0  0  0  0  0  0  0  0  0  0  0  0
   27.0959  -20.5378   -7.2679 C   0  0  2  0  0  0  0  0  0  0  0  0
   26.2963  -20.0003   -8.3825 N   0  0  0  0  0  0  0  0  0  0  0  0
   26.1459  -21.0871   -6.2804 C   0  0  0  0  0  0  0  0  0  0  0  0
   26.3862  -22.1665   -5.4462 O   0  0  0  0  0  0  0  0  0  0  0  0
   25.0059  -20.5553   -6.1570 O   0  0  0  0  0  0  0  0  0  0  0  0
  1  2  1  0
  3  2  1  0
  4  3  1  0
  5  4  1  0
  5  1  1  0
  5  6  1  1
  7  6  2  0
  9  8  1  1
  9 10  1  0
 10  6  1  0
 11  9  1  0
 11 18  1  0
 12 11  2  0
 14 13  1  1
 14 16  1  0
 14 15  1  0
 17 18  1  0
 17 19  1  0
 17 16  1  1
 19 20  1  0
 21 19  2  0
M  END
$$$$
