EEN.pdb
     RDKit          3D

 27 26  0  0  1  0  0  0  0  0999 V2000
   19.5463  -23.6233  -10.7983 N   0  0  0  0  0  0  0  0  0  0  0  0
   18.1621  -23.3107  -10.9441 C   0  0  1  0  0  0  0  0  0  0  0  0
   17.7417  -23.4539  -12.3683 C   0  0  0  0  0  0  0  0  0  0  0  0
   18.7095  -24.2030  -13.2337 C   0  0  0  0  0  0  0  0  0  0  0  0
   19.5867  -23.2856  -13.9536 C   0  0  0  0  0  0  0  0  0  0  0  0
   20.6290  -22.7491  -13.4809 O   0  0  0  0  0  0  0  0  0  0  0  0
   17.3255  -24.2691  -10.1484 C   0  0  0  0  0  0  0  0  0  0  0  0
   16.0807  -24.0945  -10.1740 O   0  0  0  0  0  0  0  0  0  0  0  0
   19.2781  -22.9473  -15.2867 O   0  0  0  0  0  0  0  0  0  0  0  0
   17.9406  -25.3089   -9.4157 N   0  0  0  0  0  0  0  0  0  0  0  0
   17.1156  -26.2531   -8.6303 C   0  0  1  0  0  0  0  0  0  0  0  0
   17.6681  -27.6213   -8.7617 C   0  0  0  0  0  0  0  0  0  0  0  0
   17.1191  -28.4968   -9.8212 C   0  0  0  0  0  0  0  0  0  0  0  0
   17.8008  -29.8521   -9.7930 C   0  0  0  0  0  0  0  0  0  0  0  0
   17.4510  -30.7586  -10.6057 O   0  0  0  0  0  0  0  0  0  0  0  0
   17.0549  -25.7016   -7.2662 C   0  0  0  0  0  0  0  0  0  0  0  0
   17.2506  -24.4523   -7.0584 O   0  0  0  0  0  0  0  0  0  0  0  0
   18.8039  -30.1460   -8.9038 O   0  0  0  0  0  0  0  0  0  0  0  0
   14.7716  -23.0071   -3.3036 N   0  0  0  0  0  0  0  0  0  0  0  0
   15.3500  -24.2851   -3.4487 C   0  0  0  0  0  0  0  0  0  0  0  0
   15.6803  -24.9111   -2.4255 O   0  0  0  0  0  0  0  0  0  0  0  0
   15.5517  -24.8509   -4.7729 C   0  0  0  0  0  0  0  0  0  0  0  0
   16.6519  -25.8769   -4.8501 C   0  0  2  0  0  0  0  0  0  0  0  0
   16.7799  -26.4902   -6.1288 N   0  0  0  0  0  0  0  0  0  0  0  0
   16.3273  -26.9139   -3.8383 C   0  0  0  0  0  0  0  0  0  0  0  0
   16.6469  -26.7281   -2.4950 O   0  0  0  0  0  0  0  0  0  0  0  0
   15.7630  -27.9628   -4.1910 O   0  0  0  0  0  0  0  0  0  0  0  0
  2  1  1  6
  2  7  1  0
  3  4  1  0
  3  2  1  0
  4  5  1  0
  5  6  2  0
  7  8  2  0
  7 10  1  0
  9  5  1  0
 10 11  1  0
 11 16  1  0
 11 12  1  1
 12 13  1  0
 13 14  1  0
 14 18  1  0
 15 14  2  0
 16 17  2  0
 19 20  1  0
 20 21  2  0
 23 22  1  6
 22 20  1  0
 24 23  1  0
 24 16  1  0
 25 23  1  0
 26 25  1  0
 27 25  2  0
M  END
$$$$
