EEN.pdb
     RDKit          3D

 27 26  0  0  1  0  0  0  0  0999 V2000
   21.8938  -20.2020  -17.1441 N   0  0  0  0  0  0  0  0  0  0  0  0
   22.2687  -21.5736  -17.2593 C   0  0  1  0  0  0  0  0  0  0  0  0
   22.5565  -21.9184  -18.6819 C   0  0  0  0  0  0  0  0  0  0  0  0
   23.5439  -21.0151  -19.3570 C   0  0  0  0  0  0  0  0  0  0  0  0
   24.4944  -21.7822  -20.1554 C   0  0  0  0  0  0  0  0  0  0  0  0
   25.7528  -21.7125  -20.0596 O   0  0  0  0  0  0  0  0  0  0  0  0
   23.5290  -21.8351  -16.4881 C   0  0  0  0  0  0  0  0  0  0  0  0
   23.8944  -23.0336  -16.3846 O   0  0  0  0  0  0  0  0  0  0  0  0
   24.0060  -22.6842  -21.1221 O   0  0  0  0  0  0  0  0  0  0  0  0
   24.2479  -20.7607  -15.9176 N   0  0  0  0  0  0  0  0  0  0  0  0
   25.5133  -21.0144  -15.1942 C   0  0  1  0  0  0  0  0  0  0  0  0
   26.6513  -20.5014  -15.9919 C   0  0  0  0  0  0  0  0  0  0  0  0
   27.3608  -21.4462  -16.8833 C   0  0  0  0  0  0  0  0  0  0  0  0
   28.4576  -20.7290  -17.6481 C   0  0  0  0  0  0  0  0  0  0  0  0
   28.6003  -19.4756  -17.5326 O   0  0  0  0  0  0  0  0  0  0  0  0
   25.3391  -20.4296  -13.8540 C   0  0  0  0  0  0  0  0  0  0  0  0
   24.7115  -19.3227  -13.7019 O   0  0  0  0  0  0  0  0  0  0  0  0
   29.3225  -21.3948  -18.4798 O   0  0  0  0  0  0  0  0  0  0  0  0
   22.2741  -20.8376   -9.3279 N   0  0  0  0  0  0  0  0  0  0  0  0
   23.3765  -20.2264   -9.9601 C   0  0  0  0  0  0  0  0  0  0  0  0
   23.9048  -19.2393   -9.4175 O   0  0  0  0  0  0  0  0  0  0  0  0
   23.8785  -20.7479  -11.2212 C   0  0  0  0  0  0  0  0  0  0  0  0
   25.3669  -20.6064  -11.4048 C   0  0  2  0  0  0  0  0  0  0  0  0
   25.8341  -21.0353  -12.6796 N   0  0  0  0  0  0  0  0  0  0  0  0
   25.9984  -21.4341  -10.3463 C   0  0  0  0  0  0  0  0  0  0  0  0
   26.5364  -22.6850  -10.6413 O   0  0  0  0  0  0  0  0  0  0  0  0
   26.0495  -21.0084   -9.1804 O   0  0  0  0  0  0  0  0  0  0  0  0
  2  1  1  6
  2  7  1  0
  3  4  1  0
  3  2  1  0
  4  5  1  0
  5  6  2  0
  7  8  2  0
  7 10  1  0
  9  5  1  0
 10 11  1  0
 11 16  1  0
 11 12  1  6
 12 13  1  0
 13 14  1  0
 14 18  1  0
 15 14  2  0
 16 17  2  0
 19 20  1  0
 20 21  2  0
 23 22  1  6
 22 20  1  0
 24 23  1  0
 24 16  1  0
 25 23  1  0
 26 25  1  0
 27 25  2  0
M  END
$$$$
