EEN.pdb
     RDKit          3D

 27 26  0  0  1  0  0  0  0  0999 V2000
   12.6484   -9.0162   -9.3889 N   0  0  0  0  0  0  0  0  0  0  0  0
   14.0216   -8.8213   -9.0551 C   0  0  1  0  0  0  0  0  0  0  0  0
   14.8393   -9.9834   -9.5094 C   0  0  0  0  0  0  0  0  0  0  0  0
   14.7197  -10.2996  -10.9697 C   0  0  0  0  0  0  0  0  0  0  0  0
   15.6710  -11.3346  -11.3609 C   0  0  0  0  0  0  0  0  0  0  0  0
   16.4037  -11.9912  -10.5674 O   0  0  0  0  0  0  0  0  0  0  0  0
   14.5617   -7.6115   -9.7593 C   0  0  0  0  0  0  0  0  0  0  0  0
   14.0622   -7.3350  -10.8795 O   0  0  0  0  0  0  0  0  0  0  0  0
   15.8112  -11.6553  -12.7263 O   0  0  0  0  0  0  0  0  0  0  0  0
   15.5844   -6.8405   -9.1627 N   0  0  0  0  0  0  0  0  0  0  0  0
   15.9960   -5.5553   -9.7693 C   0  0  1  0  0  0  0  0  0  0  0  0
   15.6749   -4.4450   -8.8429 C   0  0  0  0  0  0  0  0  0  0  0  0
   16.0166   -3.0667   -9.2603 C   0  0  0  0  0  0  0  0  0  0  0  0
   15.5549   -2.0680   -8.2154 C   0  0  0  0  0  0  0  0  0  0  0  0
   16.2950   -1.7944   -7.2244 O   0  0  0  0  0  0  0  0  0  0  0  0
   17.4144   -5.7135  -10.1322 C   0  0  0  0  0  0  0  0  0  0  0  0
   18.2281   -6.3070   -9.3399 O   0  0  0  0  0  0  0  0  0  0  0  0
   14.3413   -1.4331   -8.2989 O   0  0  0  0  0  0  0  0  0  0  0  0
   21.3261   -8.4028  -12.9191 N   0  0  0  0  0  0  0  0  0  0  0  0
   20.9978   -7.3090  -12.0917 C   0  0  0  0  0  0  0  0  0  0  0  0
   21.9194   -6.6215  -11.6164 O   0  0  0  0  0  0  0  0  0  0  0  0
   19.6061   -6.9993  -11.8061 C   0  0  0  0  0  0  0  0  0  0  0  0
   19.3084   -5.5277  -11.6842 C   0  0  2  0  0  0  0  0  0  0  0  0
   17.9559   -5.2390  -11.3459 N   0  0  0  0  0  0  0  0  0  0  0  0
   19.6232   -4.9276  -13.0053 C   0  0  0  0  0  0  0  0  0  0  0  0
   20.9421   -4.7872  -13.4318 O   0  0  0  0  0  0  0  0  0  0  0  0
   18.7002   -4.5441  -13.7429 O   0  0  0  0  0  0  0  0  0  0  0  0
  2  1  1  6
  2  7  1  0
  3  4  1  0
  3  2  1  0
  4  5  1  0
  5  6  2  0
  7  8  2  0
  7 10  1  0
  9  5  1  0
 10 11  1  0
 11 16  1  0
 11 12  1  1
 12 13  1  0
 13 14  1  0
 14 18  1  0
 15 14  2  0
 16 17  2  0
 19 20  1  0
 20 21  2  0
 23 22  1  6
 22 20  1  0
 24 23  1  0
 24 16  1  0
 25 23  1  0
 26 25  1  0
 27 25  2  0
M  END
$$$$
