EEN.pdb
     RDKit          3D

 27 26  0  0  1  0  0  0  0  0999 V2000
   15.2111  -14.2803  -14.8800 N   0  0  0  0  0  0  0  0  0  0  0  0
   14.8597  -12.9926  -15.3831 C   0  0  1  0  0  0  0  0  0  0  0  0
   14.1334  -12.2065  -14.3438 C   0  0  0  0  0  0  0  0  0  0  0  0
   12.7064  -12.6148  -14.1345 C   0  0  0  0  0  0  0  0  0  0  0  0
   12.0451  -11.7345  -13.1768 C   0  0  0  0  0  0  0  0  0  0  0  0
   11.3389  -12.1162  -12.2004 O   0  0  0  0  0  0  0  0  0  0  0  0
   16.0949  -12.2140  -15.7287 C   0  0  0  0  0  0  0  0  0  0  0  0
   17.1997  -12.7536  -15.4659 O   0  0  0  0  0  0  0  0  0  0  0  0
   12.1827  -10.3392  -13.3207 O   0  0  0  0  0  0  0  0  0  0  0  0
   15.9857  -10.9362  -16.3217 N   0  0  0  0  0  0  0  0  0  0  0  0
   17.2039  -10.1685  -16.6621 C   0  0  1  0  0  0  0  0  0  0  0  0
   17.1119   -9.6881  -18.0604 C   0  0  0  0  0  0  0  0  0  0  0  0
   18.2019   -8.8304  -18.5768 C   0  0  0  0  0  0  0  0  0  0  0  0
   19.3713   -9.6811  -19.0365 C   0  0  0  0  0  0  0  0  0  0  0  0
   20.4899   -9.1433  -19.2899 O   0  0  0  0  0  0  0  0  0  0  0  0
   17.3349   -9.1331  -15.6232 C   0  0  0  0  0  0  0  0  0  0  0  0
   16.8011   -7.9789  -15.7817 O   0  0  0  0  0  0  0  0  0  0  0  0
   19.2675  -11.0403  -19.1937 O   0  0  0  0  0  0  0  0  0  0  0  0
   22.2362   -8.2795  -13.3392 N   0  0  0  0  0  0  0  0  0  0  0  0
   21.5479   -8.0241  -14.5433 C   0  0  0  0  0  0  0  0  0  0  0  0
   21.9572   -7.1117  -15.2836 O   0  0  0  0  0  0  0  0  0  0  0  0
   20.3840   -8.8177  -14.9034 C   0  0  0  0  0  0  0  0  0  0  0  0
   19.1519   -8.5202  -14.0893 C   0  0  2  0  0  0  0  0  0  0  0  0
   18.0338   -9.3393  -14.4149 N   0  0  0  0  0  0  0  0  0  0  0  0
   18.8122   -7.0987  -14.3509 C   0  0  0  0  0  0  0  0  0  0  0  0
   19.1956   -6.0960  -13.4628 O   0  0  0  0  0  0  0  0  0  0  0  0
   18.1774   -6.7958  -15.3748 O   0  0  0  0  0  0  0  0  0  0  0  0
  2  1  1  1
  2  7  1  0
  3  4  1  0
  3  2  1  0
  4  5  1  0
  5  6  2  0
  7  8  2  0
  7 10  1  0
  9  5  1  0
 10 11  1  0
 11 16  1  0
 11 12  1  6
 12 13  1  0
 13 14  1  0
 14 18  1  0
 15 14  2  0
 16 17  2  0
 19 20  1  0
 20 21  2  0
 23 22  1  6
 22 20  1  0
 24 23  1  0
 24 16  1  0
 25 23  1  0
 26 25  1  0
 27 25  2  0
M  END
$$$$
