EEN.pdb
     RDKit          3D

 27 26  0  0  1  0  0  0  0  0999 V2000
   16.8433  -11.2178  -18.1301 N   0  0  0  0  0  0  0  0  0  0  0  0
   16.3020  -10.4877  -17.0306 C   0  0  1  0  0  0  0  0  0  0  0  0
   16.6965  -11.1209  -15.7386 C   0  0  0  0  0  0  0  0  0  0  0  0
   16.2044  -12.5246  -15.5542 C   0  0  0  0  0  0  0  0  0  0  0  0
   16.4692  -12.9985  -14.1997 C   0  0  0  0  0  0  0  0  0  0  0  0
   16.8652  -12.2795  -13.2384 O   0  0  0  0  0  0  0  0  0  0  0  0
   16.8508   -9.0913  -17.0125 C   0  0  0  0  0  0  0  0  0  0  0  0
   17.7585   -8.8260  -17.8410 O   0  0  0  0  0  0  0  0  0  0  0  0
   16.2787  -14.3629  -13.9019 O   0  0  0  0  0  0  0  0  0  0  0  0
   16.3478   -8.1429  -16.0939 N   0  0  0  0  0  0  0  0  0  0  0  0
   16.8184   -6.7410  -16.1407 C   0  0  1  0  0  0  0  0  0  0  0  0
   15.6884   -5.8291  -15.8473 C   0  0  0  0  0  0  0  0  0  0  0  0
   15.9701   -4.3799  -15.7431 C   0  0  0  0  0  0  0  0  0  0  0  0
   14.6744   -3.5922  -15.6865 C   0  0  0  0  0  0  0  0  0  0  0  0
   14.1709   -3.2730  -14.5688 O   0  0  0  0  0  0  0  0  0  0  0  0
   17.9703   -6.6686  -15.2261 C   0  0  0  0  0  0  0  0  0  0  0  0
   18.0827   -7.4939  -14.2522 O   0  0  0  0  0  0  0  0  0  0  0  0
   14.0080   -3.2012  -16.8205 O   0  0  0  0  0  0  0  0  0  0  0  0
   22.2725   -6.0750  -12.7279 N   0  0  0  0  0  0  0  0  0  0  0  0
   22.0698   -7.0875  -13.6883 C   0  0  0  0  0  0  0  0  0  0  0  0
   22.8872   -8.0234  -13.7514 O   0  0  0  0  0  0  0  0  0  0  0  0
   20.9245   -7.0295  -14.5823 C   0  0  0  0  0  0  0  0  0  0  0  0
   20.1276   -5.7545  -14.4908 C   0  0  2  0  0  0  0  0  0  0  0  0
   19.0013   -5.7147  -15.3609 N   0  0  0  0  0  0  0  0  0  0  0  0
   21.0596   -4.6538  -14.8431 C   0  0  0  0  0  0  0  0  0  0  0  0
   22.1340   -4.3332  -14.0159 O   0  0  0  0  0  0  0  0  0  0  0  0
   20.8820   -4.0077  -15.8890 O   0  0  0  0  0  0  0  0  0  0  0  0
  2  1  1  6
  2  7  1  0
  3  4  1  0
  3  2  1  0
  4  5  1  0
  5  6  2  0
  7  8  2  0
  7 10  1  0
  9  5  1  0
 10 11  1  0
 11 16  1  0
 11 12  1  1
 12 13  1  0
 13 14  1  0
 14 18  1  0
 15 14  2  0
 16 17  2  0
 19 20  1  0
 20 21  2  0
 23 22  1  6
 22 20  1  0
 24 23  1  0
 24 16  1  0
 25 23  1  0
 26 25  1  0
 27 25  2  0
M  END
$$$$
