EEN.pdb
     RDKit          3D

 27 26  0  0  1  0  0  0  0  0999 V2000
   16.6262  -11.1558  -14.4145 N   0  0  0  0  0  0  0  0  0  0  0  0
   17.5499  -10.9387  -15.4797 C   0  0  1  0  0  0  0  0  0  0  0  0
   17.0907  -11.6319  -16.7184 C   0  0  0  0  0  0  0  0  0  0  0  0
   16.3471  -12.9113  -16.4799 C   0  0  0  0  0  0  0  0  0  0  0  0
   16.0344  -13.5777  -17.7399 C   0  0  0  0  0  0  0  0  0  0  0  0
   16.8766  -13.8943  -18.6276 O   0  0  0  0  0  0  0  0  0  0  0  0
   17.6316   -9.4768  -15.8079 C   0  0  0  0  0  0  0  0  0  0  0  0
   18.3628   -9.1514  -16.7776 O   0  0  0  0  0  0  0  0  0  0  0  0
   14.6947  -13.9108  -18.0244 O   0  0  0  0  0  0  0  0  0  0  0  0
   16.9070   -8.5360  -15.0424 N   0  0  0  0  0  0  0  0  0  0  0  0
   16.9799   -7.0955  -15.3723 C   0  0  1  0  0  0  0  0  0  0  0  0
   15.6936   -6.4439  -15.0328 C   0  0  0  0  0  0  0  0  0  0  0  0
   14.5453   -6.6495  -15.9438 C   0  0  0  0  0  0  0  0  0  0  0  0
   13.2563   -6.2047  -15.2782 C   0  0  0  0  0  0  0  0  0  0  0  0
   12.6928   -6.9471  -14.4203 O   0  0  0  0  0  0  0  0  0  0  0  0
   18.1747   -6.5809  -14.6823 C   0  0  0  0  0  0  0  0  0  0  0  0
   18.5285   -7.0584  -13.5469 O   0  0  0  0  0  0  0  0  0  0  0  0
   12.6597   -5.0044  -15.5723 O   0  0  0  0  0  0  0  0  0  0  0  0
   22.5931   -4.3388  -13.4141 N   0  0  0  0  0  0  0  0  0  0  0  0
   22.5766   -5.5650  -14.1105 C   0  0  0  0  0  0  0  0  0  0  0  0
   23.6324   -6.2177  -14.1961 O   0  0  0  0  0  0  0  0  0  0  0  0
   21.3444   -6.0480  -14.7128 C   0  0  0  0  0  0  0  0  0  0  0  0
   20.1575   -5.1421  -14.5134 C   0  0  2  0  0  0  0  0  0  0  0  0
   18.9899   -5.5590  -15.2135 N   0  0  0  0  0  0  0  0  0  0  0  0
   20.5696   -3.8013  -15.0000 C   0  0  0  0  0  0  0  0  0  0  0  0
   21.4383   -3.0056  -14.2560 O   0  0  0  0  0  0  0  0  0  0  0  0
   20.1357   -3.3800  -16.0850 O   0  0  0  0  0  0  0  0  0  0  0  0
  2  1  1  1
  2  7  1  0
  3  4  1  0
  3  2  1  0
  4  5  1  0
  5  6  2  0
  7  8  2  0
  7 10  1  0
  9  5  1  0
 10 11  1  0
 11 16  1  0
 11 12  1  1
 12 13  1  0
 13 14  1  0
 14 18  1  0
 15 14  2  0
 16 17  2  0
 19 20  1  0
 20 21  2  0
 23 22  1  6
 22 20  1  0
 24 23  1  0
 24 16  1  0
 25 23  1  0
 26 25  1  0
 27 25  2  0
M  END
$$$$
