EEN.pdb
     RDKit          3D

 27 26  0  0  1  0  0  0  0  0999 V2000
   17.0431   -9.8693  -17.8747 N   0  0  0  0  0  0  0  0  0  0  0  0
   17.1043   -9.5989  -16.4754 C   0  0  1  0  0  0  0  0  0  0  0  0
   16.7509  -10.8184  -15.6921 C   0  0  0  0  0  0  0  0  0  0  0  0
   17.4308  -12.0737  -16.1486 C   0  0  0  0  0  0  0  0  0  0  0  0
   17.1439  -13.1829  -15.2448 C   0  0  0  0  0  0  0  0  0  0  0  0
   16.1241  -13.9275  -15.3026 O   0  0  0  0  0  0  0  0  0  0  0  0
   18.5013   -9.2209  -16.0791 C   0  0  0  0  0  0  0  0  0  0  0  0
   18.6967   -8.9571  -14.8654 O   0  0  0  0  0  0  0  0  0  0  0  0
   18.0556  -13.4775  -14.2110 O   0  0  0  0  0  0  0  0  0  0  0  0
   19.5264   -9.1735  -17.0503 N   0  0  0  0  0  0  0  0  0  0  0  0
   20.8977   -8.7740  -16.6644 C   0  0  1  0  0  0  0  0  0  0  0  0
   21.8389   -9.1164  -17.7558 C   0  0  0  0  0  0  0  0  0  0  0  0
   23.2617   -8.7423  -17.5933 C   0  0  0  0  0  0  0  0  0  0  0  0
   24.0729   -9.2189  -18.7838 C   0  0  0  0  0  0  0  0  0  0  0  0
   23.5182   -9.8853  -19.7073 O   0  0  0  0  0  0  0  0  0  0  0  0
   20.8169   -7.3510  -16.2942 C   0  0  0  0  0  0  0  0  0  0  0  0
   20.2442   -6.5067  -17.0697 O   0  0  0  0  0  0  0  0  0  0  0  0
   25.4135   -8.9532  -18.9067 O   0  0  0  0  0  0  0  0  0  0  0  0
   20.8993   -2.7738  -14.0851 N   0  0  0  0  0  0  0  0  0  0  0  0
   19.7360   -3.5359  -14.3191 C   0  0  0  0  0  0  0  0  0  0  0  0
   18.6266   -2.9871  -14.1925 O   0  0  0  0  0  0  0  0  0  0  0  0
   19.8422   -4.9349  -14.7008 C   0  0  0  0  0  0  0  0  0  0  0  0
   21.2556   -5.4447  -14.8095 C   0  0  2  0  0  0  0  0  0  0  0  0
   21.3462   -6.8375  -15.0911 N   0  0  0  0  0  0  0  0  0  0  0  0
   21.9018   -5.1648  -13.5024 C   0  0  0  0  0  0  0  0  0  0  0  0
   22.2105   -3.8607  -13.1213 O   0  0  0  0  0  0  0  0  0  0  0  0
   22.1724   -6.1039  -12.7358 O   0  0  0  0  0  0  0  0  0  0  0  0
  2  1  1  6
  2  7  1  0
  3  4  1  0
  3  2  1  0
  4  5  1  0
  5  6  2  0
  7  8  2  0
  7 10  1  0
  9  5  1  0
 10 11  1  0
 11 16  1  0
 11 12  1  6
 12 13  1  0
 13 14  1  0
 14 18  1  0
 15 14  2  0
 16 17  2  0
 19 20  1  0
 20 21  2  0
 23 22  1  1
 22 20  1  0
 24 23  1  0
 24 16  1  0
 25 23  1  0
 26 25  1  0
 27 25  2  0
M  END
$$$$
