EEN.pdb
     RDKit          3D

 27 26  0  0  1  0  0  0  0  0999 V2000
   23.3038  -15.5316  -16.9641 N   0  0  0  0  0  0  0  0  0  0  0  0
   22.2814  -16.3105  -17.5830 C   0  0  1  0  0  0  0  0  0  0  0  0
   22.3328  -16.1559  -19.0659 C   0  0  0  0  0  0  0  0  0  0  0  0
   23.6740  -16.4287  -19.6770 C   0  0  0  0  0  0  0  0  0  0  0  0
   23.6214  -16.3078  -21.1303 C   0  0  0  0  0  0  0  0  0  0  0  0
   24.0617  -17.1624  -21.9509 O   0  0  0  0  0  0  0  0  0  0  0  0
   22.4902  -17.7679  -17.2932 C   0  0  0  0  0  0  0  0  0  0  0  0
   21.6142  -18.5635  -17.7177 O   0  0  0  0  0  0  0  0  0  0  0  0
   23.0394  -15.1581  -21.7013 O   0  0  0  0  0  0  0  0  0  0  0  0
   23.6299  -18.1924  -16.5740 N   0  0  0  0  0  0  0  0  0  0  0  0
   23.8285  -19.6280  -16.2764 C   0  0  1  0  0  0  0  0  0  0  0  0
   25.2618  -19.9711  -16.4260 C   0  0  0  0  0  0  0  0  0  0  0  0
   25.7131  -21.3015  -15.9604 C   0  0  0  0  0  0  0  0  0  0  0  0
   27.2066  -21.4591  -16.1779 C   0  0  0  0  0  0  0  0  0  0  0  0
   27.7835  -22.5455  -15.8754 O   0  0  0  0  0  0  0  0  0  0  0  0
   23.2388  -19.8522  -14.9458 C   0  0  0  0  0  0  0  0  0  0  0  0
   23.6214  -19.1597  -13.9377 O   0  0  0  0  0  0  0  0  0  0  0  0
   27.9781  -20.4518  -16.7004 O   0  0  0  0  0  0  0  0  0  0  0  0
   19.9266  -20.4752  -11.1900 N   0  0  0  0  0  0  0  0  0  0  0  0
   20.2599  -19.2992  -11.8934 C   0  0  0  0  0  0  0  0  0  0  0  0
   19.7946  -18.2149  -11.4988 O   0  0  0  0  0  0  0  0  0  0  0  0
   21.1314  -19.3637  -13.0555 C   0  0  0  0  0  0  0  0  0  0  0  0
   21.4763  -20.7618  -13.4978 C   0  0  2  0  0  0  0  0  0  0  0  0
   22.2370  -20.8151  -14.7003 N   0  0  0  0  0  0  0  0  0  0  0  0
   20.1849  -21.4654  -13.7019 C   0  0  0  0  0  0  0  0  0  0  0  0
   19.8351  -21.9712  -14.9521 O   0  0  0  0  0  0  0  0  0  0  0  0
   19.4031  -21.6066  -12.7470 O   0  0  0  0  0  0  0  0  0  0  0  0
  2  1  1  1
  2  7  1  0
  3  4  1  0
  3  2  1  0
  4  5  1  0
  5  6  2  0
  7  8  2  0
  7 10  1  0
  9  5  1  0
 10 11  1  0
 11 16  1  0
 11 12  1  1
 12 13  1  0
 13 14  1  0
 14 18  1  0
 15 14  2  0
 16 17  2  0
 19 20  1  0
 20 21  2  0
 23 22  1  6
 22 20  1  0
 24 23  1  0
 24 16  1  0
 25 23  1  0
 26 25  1  0
 27 25  2  0
M  END
$$$$
