EEN.pdb
     RDKit          3D

 27 26  0  0  1  0  0  0  0  0999 V2000
   14.7827   -2.0110  -15.8041 N   0  0  0  0  0  0  0  0  0  0  0  0
   15.3294   -1.6276  -17.0647 C   0  0  1  0  0  0  0  0  0  0  0  0
   15.5411   -0.1517  -17.1148 C   0  0  0  0  0  0  0  0  0  0  0  0
   14.6276    0.6415  -16.2298 C   0  0  0  0  0  0  0  0  0  0  0  0
   14.9612    2.0614  -16.2716 C   0  0  0  0  0  0  0  0  0  0  0  0
   15.5195    2.7085  -15.3403 O   0  0  0  0  0  0  0  0  0  0  0  0
   16.6737   -2.2637  -17.2640 C   0  0  0  0  0  0  0  0  0  0  0  0
   17.2399   -2.0631  -18.3685 O   0  0  0  0  0  0  0  0  0  0  0  0
   14.6504    2.8043  -17.4284 O   0  0  0  0  0  0  0  0  0  0  0  0
   17.2481   -3.0459  -16.2370 N   0  0  0  0  0  0  0  0  0  0  0  0
   18.5154   -3.7711  -16.4759 C   0  0  1  0  0  0  0  0  0  0  0  0
   19.5343   -3.3229  -15.4985 C   0  0  0  0  0  0  0  0  0  0  0  0
   20.1546   -1.9938  -15.6968 C   0  0  0  0  0  0  0  0  0  0  0  0
   21.1901   -1.7277  -14.6201 C   0  0  0  0  0  0  0  0  0  0  0  0
   21.8423   -0.6417  -14.6175 O   0  0  0  0  0  0  0  0  0  0  0  0
   18.1741   -5.2034  -16.4530 C   0  0  0  0  0  0  0  0  0  0  0  0
   16.9623   -5.5878  -16.6140 O   0  0  0  0  0  0  0  0  0  0  0  0
   21.4577   -2.6340  -13.6251 O   0  0  0  0  0  0  0  0  0  0  0  0
   17.9725  -10.2687  -16.2632 N   0  0  0  0  0  0  0  0  0  0  0  0
   17.6422   -9.4770  -17.3825 C   0  0  0  0  0  0  0  0  0  0  0  0
   17.0697  -10.0153  -18.3471 O   0  0  0  0  0  0  0  0  0  0  0  0
   17.9685   -8.0601  -17.3986 C   0  0  0  0  0  0  0  0  0  0  0  0
   18.7241   -7.5818  -16.1864 C   0  0  2  0  0  0  0  0  0  0  0  0
   19.1337   -6.2203  -16.2623 N   0  0  0  0  0  0  0  0  0  0  0  0
   19.9232   -8.4499  -16.0728 C   0  0  0  0  0  0  0  0  0  0  0  0
   20.9872   -8.3209  -16.9631 O   0  0  0  0  0  0  0  0  0  0  0  0
   19.9819   -9.3040  -15.1728 O   0  0  0  0  0  0  0  0  0  0  0  0
  2  1  1  1
  2  7  1  0
  3  4  1  0
  3  2  1  0
  4  5  1  0
  5  6  2  0
  7  8  2  0
  7 10  1  0
  9  5  1  0
 10 11  1  0
 11 16  1  0
 11 12  1  1
 12 13  1  0
 13 14  1  0
 14 18  1  0
 15 14  2  0
 16 17  2  0
 19 20  1  0
 20 21  2  0
 23 22  1  6
 22 20  1  0
 24 23  1  0
 24 16  1  0
 25 23  1  0
 26 25  1  0
 27 25  2  0
M  END
$$$$
