EEN.pdb
     RDKit          3D

 27 26  0  0  1  0  0  0  0  0999 V2000
   13.5152  -11.1958  -13.1974 N   0  0  0  0  0  0  0  0  0  0  0  0
   14.8595  -10.9697  -12.7769 C   0  0  1  0  0  0  0  0  0  0  0  0
   15.8167  -11.3811  -13.8447 C   0  0  0  0  0  0  0  0  0  0  0  0
   15.9670  -12.8629  -14.0128 C   0  0  0  0  0  0  0  0  0  0  0  0
   17.3605  -13.2240  -14.2520 C   0  0  0  0  0  0  0  0  0  0  0  0
   18.3199  -12.4072  -14.3529 O   0  0  0  0  0  0  0  0  0  0  0  0
   15.0889   -9.5074  -12.5312 C   0  0  0  0  0  0  0  0  0  0  0  0
   14.6279   -8.7078  -13.3850 O   0  0  0  0  0  0  0  0  0  0  0  0
   17.7019  -14.5848  -14.3869 O   0  0  0  0  0  0  0  0  0  0  0  0
   15.7943   -9.0827  -11.3830 N   0  0  0  0  0  0  0  0  0  0  0  0
   15.9805   -7.6392  -11.1169 C   0  0  1  0  0  0  0  0  0  0  0  0
   15.3942   -7.2987   -9.7998 C   0  0  0  0  0  0  0  0  0  0  0  0
   15.6326   -5.9415   -9.2597 C   0  0  0  0  0  0  0  0  0  0  0  0
   14.8802   -5.7518   -7.9557 C   0  0  0  0  0  0  0  0  0  0  0  0
   15.1166   -4.7450   -7.2242 O   0  0  0  0  0  0  0  0  0  0  0  0
   17.4211   -7.3793  -11.2773 C   0  0  0  0  0  0  0  0  0  0  0  0
   18.2815   -8.0209  -10.5772 O   0  0  0  0  0  0  0  0  0  0  0  0
   13.9321   -6.6449   -7.5237 O   0  0  0  0  0  0  0  0  0  0  0  0
   22.0848   -6.1291  -12.8418 N   0  0  0  0  0  0  0  0  0  0  0  0
   21.4639   -7.3758  -13.0628 C   0  0  0  0  0  0  0  0  0  0  0  0
   22.1579   -8.3255  -13.4681 O   0  0  0  0  0  0  0  0  0  0  0  0
   20.0397   -7.5376  -12.8183 C   0  0  0  0  0  0  0  0  0  0  0  0
   19.3433   -6.2878  -12.3468 C   0  0  2  0  0  0  0  0  0  0  0  0
   17.9357   -6.4355  -12.1914 N   0  0  0  0  0  0  0  0  0  0  0  0
   19.6180   -5.2463  -13.3688 C   0  0  0  0  0  0  0  0  0  0  0  0
   18.5852   -4.6933  -14.1228 O   0  0  0  0  0  0  0  0  0  0  0  0
   20.7838   -4.8605  -13.5566 O   0  0  0  0  0  0  0  0  0  0  0  0
  2  1  1  6
  2  7  1  0
  3  4  1  0
  3  2  1  0
  4  5  1  0
  5  6  2  0
  7  8  2  0
  7 10  1  0
  9  5  1  0
 10 11  1  0
 11 16  1  0
 11 12  1  1
 12 13  1  0
 13 14  1  0
 14 18  1  0
 15 14  2  0
 16 17  2  0
 19 20  1  0
 20 21  2  0
 23 22  1  6
 22 20  1  0
 24 23  1  0
 24 16  1  0
 25 23  1  0
 26 25  1  0
 27 25  2  0
M  END
$$$$
