EEN.pdb
     RDKit          3D

 27 26  0  0  1  0  0  0  0  0999 V2000
   22.1741  -12.4406  -16.2971 N   0  0  0  0  0  0  0  0  0  0  0  0
   21.7473  -11.9851  -17.5798 C   0  0  1  0  0  0  0  0  0  0  0  0
   21.1667  -13.1115  -18.3671 C   0  0  0  0  0  0  0  0  0  0  0  0
   20.8620  -14.3419  -17.5672 C   0  0  0  0  0  0  0  0  0  0  0  0
   20.4082  -15.4280  -18.4297 C   0  0  0  0  0  0  0  0  0  0  0  0
   19.3283  -16.0699  -18.2894 O   0  0  0  0  0  0  0  0  0  0  0  0
   20.6641  -10.9572  -17.4332 C   0  0  0  0  0  0  0  0  0  0  0  0
   20.2482  -10.4145  -18.4882 O   0  0  0  0  0  0  0  0  0  0  0  0
   21.2135  -15.8206  -19.5178 O   0  0  0  0  0  0  0  0  0  0  0  0
   20.1572  -10.6379  -16.1535 N   0  0  0  0  0  0  0  0  0  0  0  0
   19.0593   -9.6562  -16.0131 C   0  0  1  0  0  0  0  0  0  0  0  0
   17.8474  -10.3382  -15.5024 C   0  0  0  0  0  0  0  0  0  0  0  0
   16.6981   -9.5023  -15.0890 C   0  0  0  0  0  0  0  0  0  0  0  0
   15.5470  -10.3769  -14.6281 C   0  0  0  0  0  0  0  0  0  0  0  0
   15.4053  -10.6483  -13.3989 O   0  0  0  0  0  0  0  0  0  0  0  0
   19.5941   -8.5652  -15.1810 C   0  0  0  0  0  0  0  0  0  0  0  0
   20.2232   -8.8218  -14.0945 O   0  0  0  0  0  0  0  0  0  0  0  0
   14.6307  -10.8995  -15.5058 O   0  0  0  0  0  0  0  0  0  0  0  0
   22.1240   -5.2182  -12.4574 N   0  0  0  0  0  0  0  0  0  0  0  0
   22.2296   -5.2897  -13.8619 C   0  0  0  0  0  0  0  0  0  0  0  0
   22.8944   -4.4219  -14.4560 O   0  0  0  0  0  0  0  0  0  0  0  0
   21.5709   -6.3610  -14.5917 C   0  0  0  0  0  0  0  0  0  0  0  0
   20.0780   -6.2030  -14.7159 C   0  0  2  0  0  0  0  0  0  0  0  0
   19.4571   -7.2019  -15.5184 N   0  0  0  0  0  0  0  0  0  0  0  0
   19.8490   -4.8694  -15.3272 C   0  0  0  0  0  0  0  0  0  0  0  0
   20.0600   -3.7016  -14.5971 O   0  0  0  0  0  0  0  0  0  0  0  0
   19.4640   -4.7902  -16.5055 O   0  0  0  0  0  0  0  0  0  0  0  0
  2  1  1  1
  2  7  1  0
  3  4  1  0
  3  2  1  0
  4  5  1  0
  5  6  2  0
  7  8  2  0
  7 10  1  0
  9  5  1  0
 10 11  1  0
 11 16  1  0
 11 12  1  1
 12 13  1  0
 13 14  1  0
 14 18  1  0
 15 14  2  0
 16 17  2  0
 19 20  1  0
 20 21  2  0
 23 22  1  6
 22 20  1  0
 24 23  1  0
 24 16  1  0
 25 23  1  0
 26 25  1  0
 27 25  2  0
M  END
$$$$
