EEN.pdb
     RDKit          3D

 27 26  0  0  1  0  0  0  0  0999 V2000
   18.6568   -9.9129  -15.9316 N   0  0  0  0  0  0  0  0  0  0  0  0
   19.7990  -10.2978  -15.1685 C   0  0  1  0  0  0  0  0  0  0  0  0
   21.0500  -10.0631  -15.9466 C   0  0  0  0  0  0  0  0  0  0  0  0
   20.8356   -9.5131  -17.3244 C   0  0  0  0  0  0  0  0  0  0  0  0
   20.0259  -10.4210  -18.1303 C   0  0  0  0  0  0  0  0  0  0  0  0
   20.4408  -11.4855  -18.6710 O   0  0  0  0  0  0  0  0  0  0  0  0
   19.9001   -9.4628  -13.9259 C   0  0  0  0  0  0  0  0  0  0  0  0
   20.8411   -9.7299  -13.1360 O   0  0  0  0  0  0  0  0  0  0  0  0
   18.6660  -10.1186  -18.3447 O   0  0  0  0  0  0  0  0  0  0  0  0
   18.9646   -8.4316  -13.6856 N   0  0  0  0  0  0  0  0  0  0  0  0
   19.1131   -7.5542  -12.5036 C   0  0  1  0  0  0  0  0  0  0  0  0
   19.7019   -6.2598  -12.9185 C   0  0  0  0  0  0  0  0  0  0  0  0
   21.1422   -6.2249  -13.2576 C   0  0  0  0  0  0  0  0  0  0  0  0
   21.5967   -4.7956  -13.4873 C   0  0  0  0  0  0  0  0  0  0  0  0
   20.7606   -3.8453  -13.4387 O   0  0  0  0  0  0  0  0  0  0  0  0
   17.7839   -7.4947  -11.8725 C   0  0  0  0  0  0  0  0  0  0  0  0
   16.7206   -7.5947  -12.5807 O   0  0  0  0  0  0  0  0  0  0  0  0
   22.9057   -4.4797  -13.7519 O   0  0  0  0  0  0  0  0  0  0  0  0
   14.5542   -6.9381   -6.8491 N   0  0  0  0  0  0  0  0  0  0  0  0
   14.8231   -7.7291   -7.9852 C   0  0  0  0  0  0  0  0  0  0  0  0
   13.8910   -8.3740   -8.4984 O   0  0  0  0  0  0  0  0  0  0  0  0
   16.1668   -7.7828   -8.5383 C   0  0  0  0  0  0  0  0  0  0  0  0
   16.2826   -7.2543   -9.9441 C   0  0  2  0  0  0  0  0  0  0  0  0
   17.5981   -7.3327  -10.4831 N   0  0  0  0  0  0  0  0  0  0  0  0
   15.8570   -5.8329   -9.8919 C   0  0  0  0  0  0  0  0  0  0  0  0
   14.5067   -5.4900   -9.8789 O   0  0  0  0  0  0  0  0  0  0  0  0
   16.7142   -4.9344   -9.8594 O   0  0  0  0  0  0  0  0  0  0  0  0
  2  1  1  6
  2  7  1  0
  3  4  1  0
  3  2  1  0
  4  5  1  0
  5  6  2  0
  7  8  2  0
  7 10  1  0
  9  5  1  0
 10 11  1  0
 11 16  1  0
 11 12  1  6
 12 13  1  0
 13 14  1  0
 14 18  1  0
 15 14  2  0
 16 17  2  0
 19 20  1  0
 20 21  2  0
 23 22  1  1
 22 20  1  0
 24 23  1  0
 24 16  1  0
 25 23  1  0
 26 25  1  0
 27 25  2  0
M  END
$$$$
