LVT.pdb
     RDKit          3D

 23 22  0  0  1  0  0  0  0  0999 V2000
   18.7960  -31.7585  -15.9858 C   0  0  0  0  0  0  0  0  0  0  0  0
   20.1585  -31.6479  -16.6179 C   0  0  2  0  0  0  0  0  0  0  0  0
   20.4250  -32.7939  -17.5819 C   0  0  0  0  0  0  0  0  0  0  0  0
   21.2639  -31.6834  -15.5810 C   0  0  0  0  0  0  0  0  0  0  0  0
   21.2866  -30.4480  -14.7170 C   0  0  2  0  0  0  0  0  0  0  0  0
   21.7972  -29.3557  -15.5170 N   0  0  0  0  0  0  0  0  0  0  0  0
   22.0886  -30.6224  -13.4916 C   0  0  0  0  0  0  0  0  0  0  0  0
   23.3362  -30.4841  -13.5640 O   0  0  0  0  0  0  0  0  0  0  0  0
   20.3855  -30.0861   -9.7647 C   0  0  0  0  0  0  0  0  0  0  0  0
   21.8325  -30.0179  -10.0802 C   0  0  2  0  0  0  0  0  0  0  0  0
   22.1370  -28.5929  -10.5592 C   0  0  0  0  0  0  0  0  0  0  0  0
   22.3628  -31.0347  -11.0435 C   0  0  2  0  0  0  0  0  0  0  0  0
   21.5068  -30.9395  -12.2381 N   0  0  0  0  0  0  0  0  0  0  0  0
   22.3695  -32.4203  -10.5418 C   0  0  0  0  0  0  0  0  0  0  0  0
   21.4238  -33.2186  -10.8609 O   0  0  0  0  0  0  0  0  0  0  0  0
   24.6702  -36.4244   -8.9251 C   0  0  0  0  0  0  0  0  0  0  0  0
   24.6170  -35.0630   -9.5438 C   0  0  1  0  0  0  0  0  0  0  0  0
   24.7460  -35.2503  -10.9342 O   0  0  0  0  0  0  0  0  0  0  0  0
   23.3209  -34.3406   -9.2422 C   0  0  2  0  0  0  0  0  0  0  0  0
   23.3768  -32.9568   -9.7068 N   0  0  0  0  0  0  0  0  0  0  0  0
   22.9469  -34.4212   -7.8215 C   0  0  0  0  0  0  0  0  0  0  0  0
   22.2171  -35.4662   -7.2833 O   0  0  0  0  0  0  0  0  0  0  0  0
   23.3034  -33.4982   -7.0479 O   0  0  0  0  0  0  0  0  0  0  0  0
  2  1  1  1
  2  3  1  0
  2  4  1  0
  4  5  1  0
  5  6  1  6
  7  8  2  0
  7  5  1  0
 10  9  1  6
 10 11  1  0
 10 12  1  0
 12 13  1  6
 12 14  1  0
 13  7  1  0
 14 20  1  0
 15 14  2  0
 17 16  1  1
 17 18  1  0
 19 21  1  0
 19 17  1  0
 19 20  1  1
 21 22  1  0
 23 21  2  0
M  END
$$$$
