LVT.pdb
     RDKit          3D

 23 22  0  0  1  0  0  0  0  0999 V2000
   12.2077  -18.2979    3.5623 C   0  0  0  0  0  0  0  0  0  0  0  0
   13.3998  -18.0024    2.6907 C   0  0  2  0  0  0  0  0  0  0  0  0
   13.3900  -18.8416    1.4221 C   0  0  0  0  0  0  0  0  0  0  0  0
   14.7045  -18.3018    3.4024 C   0  0  0  0  0  0  0  0  0  0  0  0
   15.9101  -17.8713    2.6058 C   0  0  2  0  0  0  0  0  0  0  0  0
   16.4979  -19.0544    2.0152 N   0  0  0  0  0  0  0  0  0  0  0  0
   16.9010  -17.1413    3.4186 C   0  0  0  0  0  0  0  0  0  0  0  0
   17.8067  -17.7959    3.9946 O   0  0  0  0  0  0  0  0  0  0  0  0
   19.2477  -12.9012    4.2313 C   0  0  0  0  0  0  0  0  0  0  0  0
   18.1930  -13.7687    3.6541 C   0  0  2  0  0  0  0  0  0  0  0  0
   16.9138  -12.9302    3.5381 C   0  0  0  0  0  0  0  0  0  0  0  0
   17.9256  -15.0649    4.3550 C   0  0  2  0  0  0  0  0  0  0  0  0
   16.8703  -15.7324    3.5741 N   0  0  0  0  0  0  0  0  0  0  0  0
   17.5016  -14.9344    5.7603 C   0  0  0  0  0  0  0  0  0  0  0  0
   16.2936  -14.6206    6.0354 O   0  0  0  0  0  0  0  0  0  0  0  0
   19.5227  -16.7561    9.0638 C   0  0  0  0  0  0  0  0  0  0  0  0
   18.0717  -16.4113    8.9423 C   0  0  1  0  0  0  0  0  0  0  0  0
   17.5654  -16.3431   10.2553 O   0  0  0  0  0  0  0  0  0  0  0  0
   17.8481  -15.0898    8.2377 C   0  0  2  0  0  0  0  0  0  0  0  0
   18.3557  -15.1382    6.8688 N   0  0  0  0  0  0  0  0  0  0  0  0
   18.4060  -13.9508    8.9832 C   0  0  0  0  0  0  0  0  0  0  0  0
   17.8035  -13.4030   10.1019 O   0  0  0  0  0  0  0  0  0  0  0  0
   19.4853  -13.4410    8.5924 O   0  0  0  0  0  0  0  0  0  0  0  0
  2  1  1  1
  2  3  1  0
  2  4  1  0
  4  5  1  0
  5  6  1  1
  7  8  2  0
  7  5  1  0
 10  9  1  1
 10 11  1  0
 10 12  1  0
 12 13  1  6
 12 14  1  0
 13  7  1  0
 14 20  1  0
 15 14  2  0
 17 16  1  1
 17 18  1  0
 19 21  1  0
 19 17  1  0
 19 20  1  6
 21 22  1  0
 23 21  2  0
M  END
$$$$
