LVT.pdb
     RDKit          3D

 23 22  0  0  1  0  0  0  0  0999 V2000
   23.5816  -14.5053  -14.8608 C   0  0  0  0  0  0  0  0  0  0  0  0
   24.2282  -13.8021  -16.0251 C   0  0  2  0  0  0  0  0  0  0  0  0
   25.5606  -13.1799  -15.6360 C   0  0  0  0  0  0  0  0  0  0  0  0
   23.3599  -12.6783  -16.5558 C   0  0  0  0  0  0  0  0  0  0  0  0
   21.9805  -13.1471  -16.9444 C   0  0  2  0  0  0  0  0  0  0  0  0
   22.1179  -14.0488  -18.0678 N   0  0  0  0  0  0  0  0  0  0  0  0
   21.0699  -12.0340  -17.2715 C   0  0  0  0  0  0  0  0  0  0  0  0
   21.1848  -11.4711  -18.3898 O   0  0  0  0  0  0  0  0  0  0  0  0
   16.7587   -9.9235  -16.9809 C   0  0  0  0  0  0  0  0  0  0  0  0
   17.8280  -10.9286  -16.7696 C   0  0  2  0  0  0  0  0  0  0  0  0
   17.4958  -11.6972  -15.4844 C   0  0  0  0  0  0  0  0  0  0  0  0
   19.2369  -10.4212  -16.7447 C   0  0  2  0  0  0  0  0  0  0  0  0
   20.0722  -11.5762  -16.3741 N   0  0  0  0  0  0  0  0  0  0  0  0
   19.4791   -9.3080  -15.8099 C   0  0  0  0  0  0  0  0  0  0  0  0
   19.5348   -9.5316  -14.5528 O   0  0  0  0  0  0  0  0  0  0  0  0
   22.4479   -7.3907  -15.3295 C   0  0  0  0  0  0  0  0  0  0  0  0
   21.3741   -6.3618  -15.4948 C   0  0  1  0  0  0  0  0  0  0  0  0
   21.4623   -5.9015  -16.8234 O   0  0  0  0  0  0  0  0  0  0  0  0
   19.9912   -6.9223  -15.2375 C   0  0  2  0  0  0  0  0  0  0  0  0
   19.6635   -7.9637  -16.2080 N   0  0  0  0  0  0  0  0  0  0  0  0
   18.9572   -5.8766  -15.1939 C   0  0  0  0  0  0  0  0  0  0  0  0
   18.8502   -4.9524  -14.1697 O   0  0  0  0  0  0  0  0  0  0  0  0
   18.1226   -5.8103  -16.1301 O   0  0  0  0  0  0  0  0  0  0  0  0
  2  1  1  1
  2  3  1  0
  2  4  1  0
  4  5  1  0
  5  6  1  6
  7  8  2  0
  7  5  1  0
 10  9  1  1
 10 11  1  0
 10 12  1  0
 12 13  1  1
 12 14  1  0
 13  7  1  0
 14 20  1  0
 15 14  2  0
 17 16  1  6
 17 18  1  0
 19 21  1  0
 19 17  1  0
 19 20  1  6
 21 22  1  0
 23 21  2  0
M  END
$$$$
