LVT.pdb
     RDKit          3D

 23 22  0  0  1  0  0  0  0  0999 V2000
   28.0104  -28.8601  -15.9847 C   0  0  0  0  0  0  0  0  0  0  0  0
   27.5051  -27.6854  -16.7803 C   0  0  2  0  0  0  0  0  0  0  0  0
   26.2322  -28.0273  -17.5397 C   0  0  0  0  0  0  0  0  0  0  0  0
   28.5183  -27.2265  -17.8104 C   0  0  0  0  0  0  0  0  0  0  0  0
   29.8570  -26.8988  -17.1991 C   0  0  2  0  0  0  0  0  0  0  0  0
   29.7203  -25.6566  -16.4698 N   0  0  0  0  0  0  0  0  0  0  0  0
   30.9350  -26.8047  -18.2013 C   0  0  0  0  0  0  0  0  0  0  0  0
   31.0194  -25.7617  -18.8983 O   0  0  0  0  0  0  0  0  0  0  0  0
   35.4409  -27.3628  -19.4881 C   0  0  0  0  0  0  0  0  0  0  0  0
   34.2057  -27.5025  -18.6800 C   0  0  2  0  0  0  0  0  0  0  0  0
   34.4282  -28.6490  -17.6857 C   0  0  0  0  0  0  0  0  0  0  0  0
   32.9231  -27.6829  -19.4319 C   0  0  2  0  0  0  0  0  0  0  0  0
   31.8773  -27.8438  -18.4074 N   0  0  0  0  0  0  0  0  0  0  0  0
   32.9010  -28.8320  -20.3543 C   0  0  0  0  0  0  0  0  0  0  0  0
   32.6629  -30.0050  -19.9061 O   0  0  0  0  0  0  0  0  0  0  0  0
   32.5035  -30.7216  -24.9099 C   0  0  0  0  0  0  0  0  0  0  0  0
   32.6256  -29.5344  -24.0073 C   0  0  1  0  0  0  0  0  0  0  0  0
   31.3512  -28.9357  -23.9592 O   0  0  0  0  0  0  0  0  0  0  0  0
   33.0667  -29.9134  -22.6092 C   0  0  2  0  0  0  0  0  0  0  0  0
   33.1286  -28.7361  -21.7467 N   0  0  0  0  0  0  0  0  0  0  0  0
   34.3345  -30.6599  -22.6000 C   0  0  0  0  0  0  0  0  0  0  0  0
   34.4084  -32.0353  -22.4688 O   0  0  0  0  0  0  0  0  0  0  0  0
   35.4121  -30.0254  -22.7163 O   0  0  0  0  0  0  0  0  0  0  0  0
  2  1  1  6
  2  3  1  0
  2  4  1  0
  4  5  1  0
  5  6  1  6
  7  8  2  0
  7  5  1  0
 10  9  1  6
 10 11  1  0
 10 12  1  0
 12 13  1  1
 12 14  1  0
 13  7  1  0
 14 20  1  0
 15 14  2  0
 17 16  1  6
 17 18  1  0
 19 21  1  0
 19 17  1  0
 19 20  1  1
 21 22  1  0
 23 21  2  0
M  END
$$$$
