LVT.pdb
     RDKit          3D

 23 22  0  0  1  0  0  0  0  0999 V2000
   28.8306  -18.0665  -16.4628 C   0  0  0  0  0  0  0  0  0  0  0  0
   27.9725  -18.9644  -17.3146 C   0  0  2  0  0  0  0  0  0  0  0  0
   27.1649  -18.1710  -18.3304 C   0  0  0  0  0  0  0  0  0  0  0  0
   26.9773  -19.7472  -16.4808 C   0  0  0  0  0  0  0  0  0  0  0  0
   27.6329  -20.4926  -15.3460 C   0  0  2  0  0  0  0  0  0  0  0  0
   28.4081  -21.5743  -15.9143 N   0  0  0  0  0  0  0  0  0  0  0  0
   26.6613  -21.0028  -14.3606 C   0  0  0  0  0  0  0  0  0  0  0  0
   26.1038  -22.1078  -14.5816 O   0  0  0  0  0  0  0  0  0  0  0  0
   26.9323  -21.2129  -10.4298 C   0  0  0  0  0  0  0  0  0  0  0  0
   25.7131  -20.5129  -10.9005 C   0  0  2  0  0  0  0  0  0  0  0  0
   24.5938  -20.8001   -9.8917 C   0  0  0  0  0  0  0  0  0  0  0  0
   25.2646  -20.8034  -12.2996 C   0  0  2  0  0  0  0  0  0  0  0  0
   26.3334  -20.2954  -13.1765 N   0  0  0  0  0  0  0  0  0  0  0  0
   23.9764  -20.1954  -12.6771 C   0  0  0  0  0  0  0  0  0  0  0  0
   23.9428  -18.9989  -13.1250 O   0  0  0  0  0  0  0  0  0  0  0  0
   22.2178  -21.8075  -15.3568 C   0  0  0  0  0  0  0  0  0  0  0  0
   21.9062  -20.4345  -14.8500 C   0  0  1  0  0  0  0  0  0  0  0  0
   20.7956  -19.9785  -15.5873 O   0  0  0  0  0  0  0  0  0  0  0  0
   21.5791  -20.4238  -13.3716 C   0  0  2  0  0  0  0  0  0  0  0  0
   22.7294  -20.8555  -12.5816 N   0  0  0  0  0  0  0  0  0  0  0  0
   20.3768  -21.2099  -13.0536 C   0  0  0  0  0  0  0  0  0  0  0  0
   19.1031  -20.8532  -13.4598 O   0  0  0  0  0  0  0  0  0  0  0  0
   20.5015  -22.2615  -12.3782 O   0  0  0  0  0  0  0  0  0  0  0  0
  2  1  1  1
  2  3  1  0
  2  4  1  0
  4  5  1  0
  5  6  1  6
  7  8  2  0
  7  5  1  0
 10  9  1  1
 10 11  1  0
 10 12  1  0
 12 13  1  6
 12 14  1  0
 13  7  1  0
 14 20  1  0
 15 14  2  0
 17 16  1  6
 17 18  1  0
 19 21  1  0
 19 17  1  0
 19 20  1  1
 21 22  1  0
 23 21  2  0
M  END
$$$$
