LVT.pdb
     RDKit          3D

 23 22  0  0  1  0  0  0  0  0999 V2000
   18.9430  -24.6544  -12.5757 C   0  0  0  0  0  0  0  0  0  0  0  0
   18.1453  -23.3782  -12.6316 C   0  0  2  0  0  0  0  0  0  0  0  0
   17.2188  -23.3473  -13.8376 C   0  0  0  0  0  0  0  0  0  0  0  0
   19.0409  -22.1596  -12.7375 C   0  0  0  0  0  0  0  0  0  0  0  0
   20.1319  -22.1512  -11.6969 C   0  0  2  0  0  0  0  0  0  0  0  0
   19.5575  -21.6810  -10.4548 N   0  0  0  0  0  0  0  0  0  0  0  0
   21.2884  -21.3236  -12.0883 C   0  0  0  0  0  0  0  0  0  0  0  0
   21.2752  -20.0987  -11.8052 O   0  0  0  0  0  0  0  0  0  0  0  0
   25.9948  -20.7391  -12.7211 C   0  0  0  0  0  0  0  0  0  0  0  0
   24.7449  -21.5164  -12.5430 C   0  0  2  0  0  0  0  0  0  0  0  0
   25.0152  -22.9475  -13.0246 C   0  0  0  0  0  0  0  0  0  0  0  0
   23.5070  -20.9599  -13.1762 C   0  0  2  0  0  0  0  0  0  0  0  0
   22.4115  -21.8565  -12.7701 N   0  0  0  0  0  0  0  0  0  0  0  0
   23.5530  -20.8597  -14.6457 C   0  0  0  0  0  0  0  0  0  0  0  0
   23.7548  -21.9067  -15.3503 O   0  0  0  0  0  0  0  0  0  0  0  0
   21.0750  -20.2734  -17.2397 C   0  0  0  0  0  0  0  0  0  0  0  0
   22.1227  -19.2204  -17.4195 C   0  0  1  0  0  0  0  0  0  0  0  0
   21.6415  -18.0633  -16.7757 O   0  0  0  0  0  0  0  0  0  0  0  0
   23.4552  -19.6220  -16.8229 C   0  0  2  0  0  0  0  0  0  0  0  0
   23.3833  -19.6536  -15.3643 N   0  0  0  0  0  0  0  0  0  0  0  0
   24.5627  -18.7754  -17.2933 C   0  0  0  0  0  0  0  0  0  0  0  0
   25.0069  -18.7595  -18.6036 O   0  0  0  0  0  0  0  0  0  0  0  0
   25.1427  -18.0241  -16.4707 O   0  0  0  0  0  0  0  0  0  0  0  0
  2  1  1  6
  2  3  1  0
  2  4  1  0
  4  5  1  0
  5  6  1  1
  7  8  2  0
  7  5  1  0
 10  9  1  6
 10 11  1  0
 10 12  1  0
 12 13  1  6
 12 14  1  0
 13  7  1  0
 14 20  1  0
 15 14  2  0
 17 16  1  1
 17 18  1  0
 19 21  1  0
 19 17  1  0
 19 20  1  1
 21 22  1  0
 23 21  2  0
M  END
$$$$
