LVT.pdb
     RDKit          3D

 23 22  0  0  1  0  0  0  0  0999 V2000
   26.4090  -13.1466  -15.3694 C   0  0  0  0  0  0  0  0  0  0  0  0
   26.4089  -12.8117  -16.8377 C   0  0  2  0  0  0  0  0  0  0  0  0
   27.7550  -12.2661  -17.2894 C   0  0  0  0  0  0  0  0  0  0  0  0
   25.3747  -11.7552  -17.1733 C   0  0  0  0  0  0  0  0  0  0  0  0
   23.9680  -12.2061  -16.8712 C   0  0  2  0  0  0  0  0  0  0  0  0
   23.6558  -13.3092  -17.7541 N   0  0  0  0  0  0  0  0  0  0  0  0
   22.9777  -11.1223  -17.0128 C   0  0  0  0  0  0  0  0  0  0  0  0
   22.5233  -10.8680  -18.1572 O   0  0  0  0  0  0  0  0  0  0  0  0
   19.0269   -8.9889  -15.8564 C   0  0  0  0  0  0  0  0  0  0  0  0
   20.1977   -9.8983  -15.8351 C   0  0  2  0  0  0  0  0  0  0  0  0
   20.2040  -10.6159  -14.4795 C   0  0  0  0  0  0  0  0  0  0  0  0
   21.5334   -9.2871  -16.1272 C   0  0  2  0  0  0  0  0  0  0  0  0
   22.5204  -10.3584  -15.9095 N   0  0  0  0  0  0  0  0  0  0  0  0
   21.8745   -8.1166  -15.2995 C   0  0  0  0  0  0  0  0  0  0  0  0
   22.3403   -8.2829  -14.1209 O   0  0  0  0  0  0  0  0  0  0  0  0
   24.4083   -5.5213  -16.1262 C   0  0  0  0  0  0  0  0  0  0  0  0
   23.1650   -4.7945  -15.7202 C   0  0  1  0  0  0  0  0  0  0  0  0
   22.5343   -4.3844  -16.9113 O   0  0  0  0  0  0  0  0  0  0  0  0
   22.2230   -5.6646  -14.9149 C   0  0  2  0  0  0  0  0  0  0  0  0
   21.7239   -6.7754  -15.7217 N   0  0  0  0  0  0  0  0  0  0  0  0
   21.1236   -4.8968  -14.3096 C   0  0  0  0  0  0  0  0  0  0  0  0
   21.2832   -4.0767  -13.2067 O   0  0  0  0  0  0  0  0  0  0  0  0
   19.9757   -4.9832  -14.8121 O   0  0  0  0  0  0  0  0  0  0  0  0
  2  1  1  1
  2  3  1  0
  2  4  1  0
  4  5  1  0
  5  6  1  6
  7  8  2  0
  7  5  1  0
 10  9  1  1
 10 11  1  0
 10 12  1  0
 12 13  1  1
 12 14  1  0
 13  7  1  0
 14 20  1  0
 15 14  2  0
 17 16  1  6
 17 18  1  0
 19 21  1  0
 19 17  1  0
 19 20  1  6
 21 22  1  0
 23 21  2  0
M  END
$$$$
