QLW.pdb
     RDKit          3D

 32 33  0  0  1  0  0  0  0  0999 V2000
   26.2196  -19.6542  -18.5615 N   0  0  0  0  0  0  0  0  0  0  0  0
   26.6829  -20.7038  -19.4513 C   0  0  0  0  0  0  0  0  0  0  0  0
   27.0563  -20.3156  -20.5750 O   0  0  0  0  0  0  0  0  0  0  0  0
   26.6832  -22.0993  -19.0044 C   0  0  0  0  0  0  0  0  0  0  0  0
   26.2394  -22.3153  -17.6043 C   0  0  0  0  0  0  0  0  0  0  0  0
   27.2289  -21.8558  -16.5677 C   0  0  2  0  0  0  0  0  0  0  0  0
   28.5118  -22.4647  -16.6593 N   0  0  0  0  0  0  0  0  0  0  0  0
   26.6397  -21.9951  -15.2002 C   0  0  0  0  0  0  0  0  0  0  0  0
   26.3435  -23.1421  -14.7607 O   0  0  0  0  0  0  0  0  0  0  0  0
   29.1776  -19.2661  -11.6448 C   0  0  0  0  0  0  0  0  0  0  0  0
   28.3908  -20.3342  -12.3965 C   0  0  1  0  0  0  0  0  0  0  0  0
   28.7081  -21.6439  -11.6553 C   0  0  0  0  0  0  0  0  0  0  0  0
   26.9177  -20.0989  -12.1953 C   0  0  0  0  0  0  0  0  0  0  0  0
   26.0459  -21.0750  -12.9443 C   0  0  2  0  0  0  0  0  0  0  0  0
   26.3932  -20.8991  -14.3649 N   0  0  0  0  0  0  0  0  0  0  0  0
   24.5917  -20.7766  -12.8012 C   0  0  0  0  0  0  0  0  0  0  0  0
   24.0713  -20.7482  -11.6517 O   0  0  0  0  0  0  0  0  0  0  0  0
   23.7624  -20.5210  -13.9207 N   0  0  0  0  0  0  0  0  0  0  0  0
   22.3188  -20.3004  -13.8405 C   0  0  1  0  0  0  0  0  0  0  0  0
   21.7637  -19.9184  -15.1604 C   0  0  0  0  0  0  0  0  0  0  0  0
   22.3241  -18.6584  -15.6710 C   0  0  0  0  0  0  0  0  0  0  0  0
   22.9818  -17.6646  -14.9315 C   0  0  0  0  0  0  0  0  0  0  0  0
   23.3029  -16.6549  -15.7351 N   0  0  0  0  0  0  0  0  0  0  0  0
   22.8957  -16.9188  -16.9813 C   0  0  0  0  0  0  0  0  0  0  0  0
   23.0227  -16.1832  -18.1557 C   0  0  0  0  0  0  0  0  0  0  0  0
   22.5329  -16.7046  -19.3191 C   0  0  0  0  0  0  0  0  0  0  0  0
   21.9158  -17.9447  -19.3472 C   0  0  0  0  0  0  0  0  0  0  0  0
   21.8068  -18.6437  -18.1631 C   0  0  0  0  0  0  0  0  0  0  0  0
   22.2857  -18.1555  -16.9699 C   0  0  0  0  0  0  0  0  0  0  0  0
   21.6982  -21.4823  -13.2671 C   0  0  0  0  0  0  0  0  0  0  0  0
   22.2457  -22.6365  -13.3535 O   0  0  0  0  0  0  0  0  0  0  0  0
   20.4842  -21.4906  -12.5761 O   0  0  0  0  0  0  0  0  0  0  0  0
  2  1  1  0
  2  4  1  0
  3  2  2  0
  5  4  1  0
  6  5  1  0
  6  7  1  1
  8  6  1  0
  9  8  2  0
 11 10  1  1
 11 12  1  0
 11 13  1  0
 14 13  1  1
 14 15  1  0
 15  8  1  0
 16 18  1  0
 16 14  1  0
 17 16  2  0
 19 30  1  0
 19 18  1  0
 19 20  1  6
 21 29  1  0
 21 20  1  0
 22 21  2  0
 23 22  1  0
 23 24  1  0
 24 25  1  0
 24 29  2  0
 25 26  2  0
 26 27  1  0
 28 27  2  0
 29 28  1  0
 30 32  1  0
 31 30  2  0
M  END
$$$$
