QLW.pdb
     RDKit          3D

 32 33  0  0  1  0  0  0  0  0999 V2000
   23.1640  -19.6927  -21.6846 N   0  0  0  0  0  0  0  0  0  0  0  0
   24.1524  -18.6293  -21.6688 C   0  0  0  0  0  0  0  0  0  0  0  0
   24.1739  -17.9143  -22.6893 O   0  0  0  0  0  0  0  0  0  0  0  0
   25.0344  -18.4626  -20.5106 C   0  0  0  0  0  0  0  0  0  0  0  0
   24.7758  -19.3893  -19.3800 C   0  0  0  0  0  0  0  0  0  0  0  0
   26.0200  -19.9728  -18.7663 C   0  0  2  0  0  0  0  0  0  0  0  0
   26.7562  -20.8379  -19.6234 N   0  0  0  0  0  0  0  0  0  0  0  0
   25.6898  -20.6255  -17.4619 C   0  0  0  0  0  0  0  0  0  0  0  0
   25.4163  -21.8588  -17.4313 O   0  0  0  0  0  0  0  0  0  0  0  0
   28.6283  -19.3209  -13.2771 C   0  0  0  0  0  0  0  0  0  0  0  0
   27.8024  -20.1133  -14.2846 C   0  0  1  0  0  0  0  0  0  0  0  0
   28.1190  -21.5858  -13.9736 C   0  0  0  0  0  0  0  0  0  0  0  0
   26.3399  -19.9370  -13.9751 C   0  0  0  0  0  0  0  0  0  0  0  0
   25.4300  -20.6156  -14.9677 C   0  0  2  0  0  0  0  0  0  0  0  0
   25.6662  -19.9276  -16.2486 N   0  0  0  0  0  0  0  0  0  0  0  0
   23.9861  -20.4502  -14.6332 C   0  0  0  0  0  0  0  0  0  0  0  0
   23.4473  -19.3140  -14.7417 O   0  0  0  0  0  0  0  0  0  0  0  0
   23.1869  -21.5334  -14.1927 N   0  0  0  0  0  0  0  0  0  0  0  0
   21.7970  -21.4048  -13.7560 C   0  0  1  0  0  0  0  0  0  0  0  0
   21.1619  -22.7346  -13.5997 C   0  0  0  0  0  0  0  0  0  0  0  0
   19.7779  -22.6510  -13.1102 C   0  0  0  0  0  0  0  0  0  0  0  0
   18.6196  -22.4614  -13.8779 C   0  0  0  0  0  0  0  0  0  0  0  0
   17.5623  -22.3939  -13.0742 N   0  0  0  0  0  0  0  0  0  0  0  0
   17.9496  -22.5302  -11.8015 C   0  0  0  0  0  0  0  0  0  0  0  0
   17.2114  -22.5484  -10.6220 C   0  0  0  0  0  0  0  0  0  0  0  0
   17.8634  -22.7331   -9.4363 C   0  0  0  0  0  0  0  0  0  0  0  0
   19.2379  -22.9008   -9.3905 C   0  0  0  0  0  0  0  0  0  0  0  0
   19.9361  -22.8753  -10.5798 C   0  0  0  0  0  0  0  0  0  0  0  0
   19.3191  -22.6917  -11.7951 C   0  0  0  0  0  0  0  0  0  0  0  0
   21.7610  -20.5963  -12.5493 C   0  0  0  0  0  0  0  0  0  0  0  0
   22.7198  -20.6139  -11.7010 O   0  0  0  0  0  0  0  0  0  0  0  0
   20.7191  -19.7352  -12.1966 O   0  0  0  0  0  0  0  0  0  0  0  0
  2  1  1  0
  2  4  1  0
  3  2  2  0
  5  4  1  0
  6  5  1  0
  6  7  1  6
  8  6  1  0
  9  8  2  0
 11 10  1  1
 11 12  1  0
 11 13  1  0
 14 13  1  1
 14 15  1  0
 15  8  1  0
 16 18  1  0
 16 14  1  0
 17 16  2  0
 19 30  1  0
 19 18  1  0
 19 20  1  1
 21 29  1  0
 21 20  1  0
 22 21  2  0
 23 22  1  0
 23 24  1  0
 24 25  1  0
 24 29  2  0
 25 26  2  0
 26 27  1  0
 28 27  2  0
 29 28  1  0
 30 32  1  0
 31 30  2  0
M  END
$$$$
