QLW.pdb
     RDKit          3D

 32 33  0  0  1  0  0  0  0  0999 V2000
   26.1770  -33.5287  -14.0693 N   0  0  0  0  0  0  0  0  0  0  0  0
   27.3863  -32.7354  -13.9407 C   0  0  0  0  0  0  0  0  0  0  0  0
   27.8695  -32.3328  -15.0165 O   0  0  0  0  0  0  0  0  0  0  0  0
   27.9512  -32.4660  -12.6158 C   0  0  0  0  0  0  0  0  0  0  0  0
   27.2621  -33.1380  -11.4856 C   0  0  0  0  0  0  0  0  0  0  0  0
   25.8738  -32.6223  -11.2178 C   0  0  2  0  0  0  0  0  0  0  0  0
   25.8118  -31.2532  -10.8349 N   0  0  0  0  0  0  0  0  0  0  0  0
   25.1785  -33.5101  -10.2354 C   0  0  0  0  0  0  0  0  0  0  0  0
   25.0678  -34.7452  -10.4779 O   0  0  0  0  0  0  0  0  0  0  0  0
   25.9738  -32.4020   -5.1727 C   0  0  0  0  0  0  0  0  0  0  0  0
   25.7685  -33.0631   -6.5313 C   0  0  1  0  0  0  0  0  0  0  0  0
   26.4763  -34.4233   -6.4122 C   0  0  0  0  0  0  0  0  0  0  0  0
   24.3081  -33.3786   -6.7138 C   0  0  0  0  0  0  0  0  0  0  0  0
   23.9804  -33.9393   -8.0747 C   0  0  2  0  0  0  0  0  0  0  0  0
   24.6318  -33.0347   -9.0376 N   0  0  0  0  0  0  0  0  0  0  0  0
   22.5183  -33.9235   -8.3680 C   0  0  0  0  0  0  0  0  0  0  0  0
   21.7258  -34.5623   -7.6217 O   0  0  0  0  0  0  0  0  0  0  0  0
   21.9788  -33.2100   -9.4663 N   0  0  0  0  0  0  0  0  0  0  0  0
   20.5757  -33.2684   -9.8749 C   0  0  1  0  0  0  0  0  0  0  0  0
   20.1223  -31.9641  -10.4129 C   0  0  0  0  0  0  0  0  0  0  0  0
   18.7011  -31.9666  -10.7902 C   0  0  0  0  0  0  0  0  0  0  0  0
   17.5968  -31.9569   -9.9255 C   0  0  0  0  0  0  0  0  0  0  0  0
   16.4759  -32.0097  -10.6389 N   0  0  0  0  0  0  0  0  0  0  0  0
   16.7689  -32.0531  -11.9430 C   0  0  0  0  0  0  0  0  0  0  0  0
   15.9417  -32.0937  -13.0613 C   0  0  0  0  0  0  0  0  0  0  0  0
   16.5089  -32.1052  -14.3037 C   0  0  0  0  0  0  0  0  0  0  0  0
   17.8845  -32.0779  -14.4659 C   0  0  0  0  0  0  0  0  0  0  0  0
   18.6721  -32.0395  -13.3342 C   0  0  0  0  0  0  0  0  0  0  0  0
   18.1423  -32.0270  -12.0651 C   0  0  0  0  0  0  0  0  0  0  0  0
   20.4068  -34.3726  -10.8039 C   0  0  0  0  0  0  0  0  0  0  0  0
   21.4118  -34.9751  -11.3198 O   0  0  0  0  0  0  0  0  0  0  0  0
   19.1753  -34.8870  -11.2166 O   0  0  0  0  0  0  0  0  0  0  0  0
  2  1  1  0
  2  4  1  0
  3  2  2  0
  5  4  1  0
  6  5  1  0
  6  7  1  1
  8  6  1  0
  9  8  2  0
 11 10  1  1
 11 12  1  0
 11 13  1  0
 14 13  1  1
 14 15  1  0
 15  8  1  0
 16 18  1  0
 16 14  1  0
 17 16  2  0
 19 30  1  0
 19 18  1  0
 19 20  1  6
 21 29  1  0
 21 20  1  0
 22 21  2  0
 23 22  1  0
 23 24  1  0
 24 25  1  0
 24 29  2  0
 25 26  2  0
 26 27  1  0
 28 27  2  0
 29 28  1  0
 30 32  1  0
 31 30  2  0
M  END
$$$$
