QLW.pdb
     RDKit          3D

 32 33  0  0  1  0  0  0  0  0999 V2000
   21.7897  -21.8625  -12.7146 N   0  0  0  0  0  0  0  0  0  0  0  0
   20.9814  -20.8840  -13.4198 C   0  0  0  0  0  0  0  0  0  0  0  0
   19.8757  -20.6402  -12.8994 O   0  0  0  0  0  0  0  0  0  0  0  0
   21.4823  -20.2666  -14.6506 C   0  0  0  0  0  0  0  0  0  0  0  0
   22.5678  -19.2715  -14.4628 C   0  0  0  0  0  0  0  0  0  0  0  0
   23.5163  -19.1690  -15.6269 C   0  0  2  0  0  0  0  0  0  0  0  0
   22.9625  -19.5524  -16.8804 N   0  0  0  0  0  0  0  0  0  0  0  0
   24.7805  -19.9084  -15.3239 C   0  0  0  0  0  0  0  0  0  0  0  0
   24.9474  -21.0748  -15.7802 O   0  0  0  0  0  0  0  0  0  0  0  0
   29.2328  -17.3396  -15.7748 C   0  0  0  0  0  0  0  0  0  0  0  0
   28.1041  -18.3641  -15.7362 C   0  0  1  0  0  0  0  0  0  0  0  0
   28.4679  -19.3839  -16.8284 C   0  0  0  0  0  0  0  0  0  0  0  0
   28.1649  -19.1204  -14.4362 C   0  0  0  0  0  0  0  0  0  0  0  0
   27.0455  -20.1166  -14.2681 C   0  0  2  0  0  0  0  0  0  0  0  0
   25.8088  -19.3655  -14.5446 N   0  0  0  0  0  0  0  0  0  0  0  0
   26.9454  -20.6420  -12.8760 C   0  0  0  0  0  0  0  0  0  0  0  0
   27.9074  -21.2956  -12.3857 O   0  0  0  0  0  0  0  0  0  0  0  0
   25.7971  -20.4328  -12.0736 N   0  0  0  0  0  0  0  0  0  0  0  0
   25.6730  -20.8757  -10.6852 C   0  0  1  0  0  0  0  0  0  0  0  0
   26.7890  -20.3584   -9.8587 C   0  0  0  0  0  0  0  0  0  0  0  0
   26.5278  -20.4681   -8.4158 C   0  0  0  0  0  0  0  0  0  0  0  0
   25.4620  -21.1387   -7.7982 C   0  0  0  0  0  0  0  0  0  0  0  0
   25.5406  -20.9756   -6.4808 N   0  0  0  0  0  0  0  0  0  0  0  0
   26.6081  -20.2289   -6.1783 C   0  0  0  0  0  0  0  0  0  0  0  0
   27.1094  -19.8130   -4.9487 C   0  0  0  0  0  0  0  0  0  0  0  0
   28.2525  -19.0661   -4.9187 C   0  0  0  0  0  0  0  0  0  0  0  0
   28.9147  -18.7187   -6.0851 C   0  0  0  0  0  0  0  0  0  0  0  0
   28.3869  -19.1479   -7.2850 C   0  0  0  0  0  0  0  0  0  0  0  0
   27.2386  -19.9009   -7.3601 C   0  0  0  0  0  0  0  0  0  0  0  0
   24.3593  -20.4992  -10.1920 C   0  0  0  0  0  0  0  0  0  0  0  0
   23.7509  -19.4607  -10.6285 O   0  0  0  0  0  0  0  0  0  0  0  0
   23.6360  -21.2061   -9.2283 O   0  0  0  0  0  0  0  0  0  0  0  0
  2  1  1  0
  2  4  1  0
  3  2  2  0
  5  4  1  0
  6  5  1  0
  6  7  1  6
  8  6  1  0
  9  8  2  0
 11 10  1  1
 11 12  1  0
 11 13  1  0
 14 13  1  1
 14 15  1  0
 15  8  1  0
 16 18  1  0
 16 14  1  0
 17 16  2  0
 19 30  1  0
 19 18  1  0
 19 20  1  1
 21 29  1  0
 21 20  1  0
 22 21  2  0
 23 22  1  0
 23 24  1  0
 24 25  1  0
 24 29  2  0
 25 26  2  0
 26 27  1  0
 28 27  2  0
 29 28  1  0
 30 32  1  0
 31 30  2  0
M  END
$$$$
