QLW.pdb
     RDKit          3D

 32 33  0  0  1  0  0  0  0  0999 V2000
   31.5640  -18.1487  -18.3725 N   0  0  0  0  0  0  0  0  0  0  0  0
   31.8110  -17.7060  -19.7331 C   0  0  0  0  0  0  0  0  0  0  0  0
   32.6889  -16.8295  -19.8510 O   0  0  0  0  0  0  0  0  0  0  0  0
   31.0483  -18.2823  -20.8435 C   0  0  0  0  0  0  0  0  0  0  0  0
   30.1189  -19.3784  -20.4711 C   0  0  0  0  0  0  0  0  0  0  0  0
   30.7445  -20.7472  -20.4876 C   0  0  2  0  0  0  0  0  0  0  0  0
   31.1993  -21.1775  -21.7654 N   0  0  0  0  0  0  0  0  0  0  0  0
   29.8197  -21.7404  -19.8591 C   0  0  0  0  0  0  0  0  0  0  0  0
   28.9626  -22.3351  -20.5720 O   0  0  0  0  0  0  0  0  0  0  0  0
   31.5657  -24.1844  -15.3773 C   0  0  0  0  0  0  0  0  0  0  0  0
   30.9373  -24.0031  -16.7547 C   0  0  1  0  0  0  0  0  0  0  0  0
   30.7479  -25.4338  -17.2864 C   0  0  0  0  0  0  0  0  0  0  0  0
   29.5501  -23.4403  -16.5970 C   0  0  0  0  0  0  0  0  0  0  0  0
   28.9193  -23.0233  -17.9016 C   0  0  2  0  0  0  0  0  0  0  0  0
   29.8537  -22.0511  -18.4946 N   0  0  0  0  0  0  0  0  0  0  0  0
   27.6132  -22.3283  -17.7144 C   0  0  0  0  0  0  0  0  0  0  0  0
   27.5789  -21.2153  -17.1202 O   0  0  0  0  0  0  0  0  0  0  0  0
   26.3948  -22.8772  -18.1838 N   0  0  0  0  0  0  0  0  0  0  0  0
   25.0933  -22.2236  -18.0493 C   0  0  1  0  0  0  0  0  0  0  0  0
   24.5082  -21.9223  -19.3771 C   0  0  0  0  0  0  0  0  0  0  0  0
   23.1757  -21.3071  -19.2862 C   0  0  0  0  0  0  0  0  0  0  0  0
   22.8826  -19.9565  -19.0468 C   0  0  0  0  0  0  0  0  0  0  0  0
   21.5642  -19.7934  -18.9897 N   0  0  0  0  0  0  0  0  0  0  0  0
   20.9524  -20.9672  -19.1803 C   0  0  0  0  0  0  0  0  0  0  0  0
   19.6001  -21.2920  -19.2286 C   0  0  0  0  0  0  0  0  0  0  0  0
   19.2390  -22.5870  -19.4693 C   0  0  0  0  0  0  0  0  0  0  0  0
   20.1913  -23.5743  -19.6639 C   0  0  0  0  0  0  0  0  0  0  0  0
   21.5217  -23.2148  -19.6072 C   0  0  0  0  0  0  0  0  0  0  0  0
   21.9286  -21.9232  -19.3672 C   0  0  0  0  0  0  0  0  0  0  0  0
   24.2416  -23.0499  -17.2109 C   0  0  0  0  0  0  0  0  0  0  0  0
   23.3113  -22.5421  -16.4927 O   0  0  0  0  0  0  0  0  0  0  0  0
   24.3334  -24.4398  -17.1047 O   0  0  0  0  0  0  0  0  0  0  0  0
  2  1  1  0
  2  4  1  0
  3  2  2  0
  5  4  1  0
  6  5  1  0
  6  7  1  6
  8  6  1  0
  9  8  2  0
 11 10  1  1
 11 12  1  0
 11 13  1  0
 14 13  1  1
 14 15  1  0
 15  8  1  0
 16 18  1  0
 16 14  1  0
 17 16  2  0
 19 30  1  0
 19 18  1  0
 19 20  1  6
 21 29  1  0
 21 20  1  0
 22 21  2  0
 23 22  1  0
 23 24  1  0
 24 25  1  0
 24 29  2  0
 25 26  2  0
 26 27  1  0
 28 27  2  0
 29 28  1  0
 30 32  1  0
 31 30  2  0
M  END
$$$$
