QLW.pdb
     RDKit          3D

 32 33  0  0  1  0  0  0  0  0999 V2000
   29.2951  -17.6291  -16.1020 N   0  0  0  0  0  0  0  0  0  0  0  0
   28.0267  -18.1641  -16.5635 C   0  0  0  0  0  0  0  0  0  0  0  0
   27.6739  -17.7816  -17.6958 O   0  0  0  0  0  0  0  0  0  0  0  0
   27.2615  -19.0791  -15.7124 C   0  0  0  0  0  0  0  0  0  0  0  0
   27.9133  -19.4438  -14.4294 C   0  0  0  0  0  0  0  0  0  0  0  0
   27.9849  -20.9254  -14.1754 C   0  0  2  0  0  0  0  0  0  0  0  0
   27.9608  -21.7314  -15.3479 N   0  0  0  0  0  0  0  0  0  0  0  0
   26.9281  -21.3289  -13.1971 C   0  0  0  0  0  0  0  0  0  0  0  0
   25.9085  -21.9564  -13.6013 O   0  0  0  0  0  0  0  0  0  0  0  0
   26.8613  -19.8666   -7.6950 C   0  0  0  0  0  0  0  0  0  0  0  0
   27.2597  -20.2072   -9.1270 C   0  0  1  0  0  0  0  0  0  0  0  0
   28.7586  -20.5412   -9.0440 C   0  0  0  0  0  0  0  0  0  0  0  0
   26.5800  -21.4849   -9.5404 C   0  0  0  0  0  0  0  0  0  0  0  0
   25.9291  -21.4067  -10.8984 C   0  0  2  0  0  0  0  0  0  0  0  0
   27.0102  -21.0409  -11.8297 N   0  0  0  0  0  0  0  0  0  0  0  0
   24.8912  -20.3389  -10.9797 C   0  0  0  0  0  0  0  0  0  0  0  0
   25.2348  -19.1550  -11.2506 O   0  0  0  0  0  0  0  0  0  0  0  0
   23.5176  -20.6065  -10.7614 N   0  0  0  0  0  0  0  0  0  0  0  0
   22.4486  -20.2184  -11.6810 C   0  0  1  0  0  0  0  0  0  0  0  0
   22.7147  -20.7198  -13.0500 C   0  0  0  0  0  0  0  0  0  0  0  0
   22.2597  -19.7910  -14.0953 C   0  0  0  0  0  0  0  0  0  0  0  0
   21.0147  -19.1498  -14.1730 C   0  0  0  0  0  0  0  0  0  0  0  0
   20.9595  -18.4244  -15.2861 N   0  0  0  0  0  0  0  0  0  0  0  0
   22.1067  -18.5430  -15.9631 C   0  0  0  0  0  0  0  0  0  0  0  0
   22.5231  -17.9633  -17.1577 C   0  0  0  0  0  0  0  0  0  0  0  0
   23.7777  -18.2361  -17.6234 C   0  0  0  0  0  0  0  0  0  0  0  0
   24.6349  -19.0751  -16.9301 C   0  0  0  0  0  0  0  0  0  0  0  0
   24.1865  -19.6325  -15.7507 C   0  0  0  0  0  0  0  0  0  0  0  0
   22.9312  -19.3847  -15.2466 C   0  0  0  0  0  0  0  0  0  0  0  0
   21.1787  -20.6642  -11.1336 C   0  0  0  0  0  0  0  0  0  0  0  0
   21.1072  -21.6540  -10.3246 O   0  0  0  0  0  0  0  0  0  0  0  0
   19.9407  -20.0798  -11.4115 O   0  0  0  0  0  0  0  0  0  0  0  0
  2  1  1  0
  2  4  1  0
  3  2  2  0
  5  4  1  0
  6  5  1  0
  6  7  1  6
  8  6  1  0
  9  8  2  0
 11 10  1  1
 11 12  1  0
 11 13  1  0
 14 13  1  1
 14 15  1  0
 15  8  1  0
 16 18  1  0
 16 14  1  0
 17 16  2  0
 19 30  1  0
 19 18  1  0
 19 20  1  6
 21 29  1  0
 21 20  1  0
 22 21  2  0
 23 22  1  0
 23 24  1  0
 24 25  1  0
 24 29  2  0
 25 26  2  0
 26 27  1  0
 28 27  2  0
 29 28  1  0
 30 32  1  0
 31 30  2  0
M  END
$$$$
