QLW.pdb
     RDKit          3D

 32 33  0  0  1  0  0  0  0  0999 V2000
   24.3997  -15.6801  -18.5474 N   0  0  0  0  0  0  0  0  0  0  0  0
   25.7923  -15.8452  -18.9237 C   0  0  0  0  0  0  0  0  0  0  0  0
   26.2865  -14.8873  -19.5491 O   0  0  0  0  0  0  0  0  0  0  0  0
   26.5089  -17.0731  -18.5691 C   0  0  0  0  0  0  0  0  0  0  0  0
   25.6822  -18.1244  -17.9246 C   0  0  0  0  0  0  0  0  0  0  0  0
   26.0897  -18.4474  -16.5123 C   0  0  2  0  0  0  0  0  0  0  0  0
   27.4100  -18.0438  -16.1674 N   0  0  0  0  0  0  0  0  0  0  0  0
   25.8563  -19.8976  -16.2310 C   0  0  0  0  0  0  0  0  0  0  0  0
   24.7538  -20.4268  -16.5488 O   0  0  0  0  0  0  0  0  0  0  0  0
   29.8711  -22.7234  -17.1317 C   0  0  0  0  0  0  0  0  0  0  0  0
   28.3800  -22.4089  -17.0785 C   0  0  1  0  0  0  0  0  0  0  0  0
   27.7494  -23.3389  -18.1286 C   0  0  0  0  0  0  0  0  0  0  0  0
   27.8256  -22.8566  -15.7526 C   0  0  0  0  0  0  0  0  0  0  0  0
   26.5566  -22.1426  -15.3605 C   0  0  2  0  0  0  0  0  0  0  0  0
   26.8143  -20.7158  -15.6207 N   0  0  0  0  0  0  0  0  0  0  0  0
   26.2421  -22.2808  -13.9093 C   0  0  0  0  0  0  0  0  0  0  0  0
   25.9890  -23.4216  -13.4322 O   0  0  0  0  0  0  0  0  0  0  0  0
   26.2163  -21.1663  -13.0356 N   0  0  0  0  0  0  0  0  0  0  0  0
   25.8833  -21.2445  -11.6135 C   0  0  1  0  0  0  0  0  0  0  0  0
   26.9721  -20.6834  -10.7793 C   0  0  0  0  0  0  0  0  0  0  0  0
   26.6067  -20.5818   -9.3587 C   0  0  0  0  0  0  0  0  0  0  0  0
   25.3255  -20.7150   -8.8036 C   0  0  0  0  0  0  0  0  0  0  0  0
   25.3889  -20.5127   -7.4909 N   0  0  0  0  0  0  0  0  0  0  0  0
   26.6502  -20.2509   -7.1318 C   0  0  0  0  0  0  0  0  0  0  0  0
   27.2073  -19.9975   -5.8821 C   0  0  0  0  0  0  0  0  0  0  0  0
   28.5531  -19.7843   -5.7886 C   0  0  0  0  0  0  0  0  0  0  0  0
   29.3653  -19.8158   -6.9106 C   0  0  0  0  0  0  0  0  0  0  0  0
   28.7771  -20.0685   -8.1323 C   0  0  0  0  0  0  0  0  0  0  0  0
   27.4266  -20.2880   -8.2710 C   0  0  0  0  0  0  0  0  0  0  0  0
   24.5967  -20.6041  -11.4006 C   0  0  0  0  0  0  0  0  0  0  0  0
   24.2217  -19.6018  -12.1033 O   0  0  0  0  0  0  0  0  0  0  0  0
   23.6563  -21.0003  -10.4466 O   0  0  0  0  0  0  0  0  0  0  0  0
  2  1  1  0
  2  4  1  0
  3  2  2  0
  5  4  1  0
  6  5  1  0
  6  7  1  6
  8  6  1  0
  9  8  2  0
 11 10  1  1
 11 12  1  0
 11 13  1  0
 14 13  1  1
 14 15  1  0
 15  8  1  0
 16 18  1  0
 16 14  1  0
 17 16  2  0
 19 30  1  0
 19 18  1  0
 19 20  1  1
 21 29  1  0
 21 20  1  0
 22 21  2  0
 23 22  1  0
 23 24  1  0
 24 25  1  0
 24 29  2  0
 25 26  2  0
 26 27  1  0
 28 27  2  0
 29 28  1  0
 30 32  1  0
 31 30  2  0
M  END
$$$$
