QLW.pdb
     RDKit          3D

 32 33  0  0  1  0  0  0  0  0999 V2000
   20.0237  -20.7002  -14.4253 N   0  0  0  0  0  0  0  0  0  0  0  0
   20.3331  -19.5531  -15.2598 C   0  0  0  0  0  0  0  0  0  0  0  0
   19.3460  -18.8875  -15.6280 O   0  0  0  0  0  0  0  0  0  0  0  0
   21.7236  -19.2544  -15.6126 C   0  0  0  0  0  0  0  0  0  0  0  0
   22.7364  -20.1607  -15.0153 C   0  0  0  0  0  0  0  0  0  0  0  0
   23.3265  -19.6582  -13.7252 C   0  0  2  0  0  0  0  0  0  0  0  0
   23.7627  -18.3041  -13.7587 N   0  0  0  0  0  0  0  0  0  0  0  0
   24.4068  -20.5829  -13.2619 C   0  0  0  0  0  0  0  0  0  0  0  0
   24.2247  -21.8322  -13.3119 O   0  0  0  0  0  0  0  0  0  0  0  0
   29.2697  -19.2550  -14.5375 C   0  0  0  0  0  0  0  0  0  0  0  0
   27.9521  -19.9509  -14.2141 C   0  0  1  0  0  0  0  0  0  0  0  0
   27.9576  -21.2174  -15.0866 C   0  0  0  0  0  0  0  0  0  0  0  0
   27.9844  -20.4373  -12.7900 C   0  0  0  0  0  0  0  0  0  0  0  0
   26.6887  -21.0637  -12.3399 C   0  0  2  0  0  0  0  0  0  0  0  0
   25.6335  -20.1276  -12.7644 N   0  0  0  0  0  0  0  0  0  0  0  0
   26.5965  -21.1958  -10.8573 C   0  0  0  0  0  0  0  0  0  0  0  0
   27.3795  -21.9785  -10.2513 O   0  0  0  0  0  0  0  0  0  0  0  0
   25.6516  -20.4670  -10.0943 N   0  0  0  0  0  0  0  0  0  0  0  0
   25.4312  -20.6564   -8.6609 C   0  0  1  0  0  0  0  0  0  0  0  0
   25.7912  -19.4367   -7.9002 C   0  0  0  0  0  0  0  0  0  0  0  0
   27.1901  -19.4402   -7.4468 C   0  0  0  0  0  0  0  0  0  0  0  0
   28.3211  -19.0749   -8.1915 C   0  0  0  0  0  0  0  0  0  0  0  0
   29.4130  -19.2542   -7.4541 N   0  0  0  0  0  0  0  0  0  0  0  0
   29.0749  -19.7213   -6.2475 C   0  0  0  0  0  0  0  0  0  0  0  0
   29.8578  -20.0376   -5.1414 C   0  0  0  0  0  0  0  0  0  0  0  0
   29.2463  -20.4777   -4.0022 C   0  0  0  0  0  0  0  0  0  0  0  0
   27.8692  -20.6133   -3.9322 C   0  0  0  0  0  0  0  0  0  0  0  0
   27.1265  -20.2916   -5.0491 C   0  0  0  0  0  0  0  0  0  0  0  0
   27.7018  -19.8455   -6.2159 C   0  0  0  0  0  0  0  0  0  0  0  0
   24.0596  -21.0889   -8.4538 C   0  0  0  0  0  0  0  0  0  0  0  0
   23.2032  -21.0824   -9.4054 O   0  0  0  0  0  0  0  0  0  0  0  0
   23.5431  -21.5507   -7.2408 O   0  0  0  0  0  0  0  0  0  0  0  0
  2  1  1  0
  2  4  1  0
  3  2  2  0
  5  4  1  0
  6  5  1  0
  6  7  1  6
  8  6  1  0
  9  8  2  0
 11 10  1  6
 11 12  1  0
 11 13  1  0
 14 13  1  1
 14 15  1  0
 15  8  1  0
 16 18  1  0
 16 14  1  0
 17 16  2  0
 19 30  1  0
 19 18  1  0
 19 20  1  1
 21 29  1  0
 21 20  1  0
 22 21  2  0
 23 22  1  0
 23 24  1  0
 24 25  1  0
 24 29  2  0
 25 26  2  0
 26 27  1  0
 28 27  2  0
 29 28  1  0
 30 32  1  0
 31 30  2  0
M  END
$$$$
