QLW.pdb
     RDKit          3D

 32 33  0  0  1  0  0  0  0  0999 V2000
   31.9496  -24.9636  -16.1002 N   0  0  0  0  0  0  0  0  0  0  0  0
   31.6694  -24.7574  -17.5098 C   0  0  0  0  0  0  0  0  0  0  0  0
   32.0063  -25.6960  -18.2570 O   0  0  0  0  0  0  0  0  0  0  0  0
   31.0389  -23.5135  -17.9596 C   0  0  0  0  0  0  0  0  0  0  0  0
   30.6333  -22.5823  -16.8770 C   0  0  0  0  0  0  0  0  0  0  0  0
   29.2431  -22.8186  -16.3513 C   0  0  2  0  0  0  0  0  0  0  0  0
   28.2168  -22.7550  -17.3350 N   0  0  0  0  0  0  0  0  0  0  0  0
   28.9700  -21.9068  -15.1978 C   0  0  0  0  0  0  0  0  0  0  0  0
   29.8238  -21.7950  -14.2731 O   0  0  0  0  0  0  0  0  0  0  0  0
   26.7153  -17.2330  -16.2715 C   0  0  0  0  0  0  0  0  0  0  0  0
   27.5822  -18.3508  -15.7022 C   0  0  1  0  0  0  0  0  0  0  0  0
   28.7541  -17.6244  -15.0207 C   0  0  0  0  0  0  0  0  0  0  0  0
   26.8338  -19.0441  -14.5954 C   0  0  0  0  0  0  0  0  0  0  0  0
   27.5932  -20.1960  -13.9869 C   0  0  2  0  0  0  0  0  0  0  0  0
   27.7936  -21.1562  -15.0859 N   0  0  0  0  0  0  0  0  0  0  0  0
   26.8215  -20.8957  -12.9197 C   0  0  0  0  0  0  0  0  0  0  0  0
   25.8517  -21.6386  -13.2369 O   0  0  0  0  0  0  0  0  0  0  0  0
   27.1398  -20.7560  -11.5466 N   0  0  0  0  0  0  0  0  0  0  0  0
   26.4069  -21.4095  -10.4626 C   0  0  1  0  0  0  0  0  0  0  0  0
   27.2779  -21.6225   -9.2827 C   0  0  0  0  0  0  0  0  0  0  0  0
   27.1649  -20.5444   -8.2892 C   0  0  0  0  0  0  0  0  0  0  0  0
   26.2361  -19.4934   -8.2839 C   0  0  0  0  0  0  0  0  0  0  0  0
   26.4789  -18.6936   -7.2497 N   0  0  0  0  0  0  0  0  0  0  0  0
   27.5252  -19.1536   -6.5554 C   0  0  0  0  0  0  0  0  0  0  0  0
   28.1316  -18.6747   -5.3981 C   0  0  0  0  0  0  0  0  0  0  0  0
   29.1876  -19.3622   -4.8714 C   0  0  0  0  0  0  0  0  0  0  0  0
   29.6608  -20.5198   -5.4678 C   0  0  0  0  0  0  0  0  0  0  0  0
   29.0354  -20.9629   -6.6146 C   0  0  0  0  0  0  0  0  0  0  0  0
   27.9697  -20.3010   -7.1781 C   0  0  0  0  0  0  0  0  0  0  0  0
   25.2132  -20.6333  -10.1734 C   0  0  0  0  0  0  0  0  0  0  0  0
   25.0981  -19.4146  -10.5486 O   0  0  0  0  0  0  0  0  0  0  0  0
   24.0958  -21.1140   -9.4866 O   0  0  0  0  0  0  0  0  0  0  0  0
  2  1  1  0
  2  4  1  0
  3  2  2  0
  5  4  1  0
  6  5  1  0
  6  7  1  6
  8  6  1  0
  9  8  2  0
 11 10  1  1
 11 12  1  0
 11 13  1  0
 14 13  1  6
 14 15  1  0
 15  8  1  0
 16 18  1  0
 16 14  1  0
 17 16  2  0
 19 30  1  0
 19 18  1  0
 19 20  1  1
 21 29  1  0
 21 20  1  0
 22 21  2  0
 23 22  1  0
 23 24  1  0
 24 25  1  0
 24 29  2  0
 25 26  2  0
 26 27  1  0
 28 27  2  0
 29 28  1  0
 30 32  1  0
 31 30  2  0
M  END
$$$$
