QLW.pdb
     RDKit          3D

 32 33  0  0  1  0  0  0  0  0999 V2000
   21.7090  -18.7355  -13.1259 N   0  0  0  0  0  0  0  0  0  0  0  0
   20.8423  -19.6962  -12.4672 C   0  0  0  0  0  0  0  0  0  0  0  0
   19.6349  -19.3888  -12.4456 O   0  0  0  0  0  0  0  0  0  0  0  0
   21.4063  -20.9173  -11.8858 C   0  0  0  0  0  0  0  0  0  0  0  0
   22.8824  -21.0414  -11.9841 C   0  0  0  0  0  0  0  0  0  0  0  0
   23.3859  -21.3055  -13.3776 C   0  0  2  0  0  0  0  0  0  0  0  0
   22.8489  -22.4710  -13.9927 N   0  0  0  0  0  0  0  0  0  0  0  0
   24.8814  -21.3045  -13.3905 C   0  0  0  0  0  0  0  0  0  0  0  0
   25.5076  -22.4019  -13.3843 O   0  0  0  0  0  0  0  0  0  0  0  0
   27.2723  -16.9965  -15.4534 C   0  0  0  0  0  0  0  0  0  0  0  0
   26.7993  -18.3860  -15.0403 C   0  0  1  0  0  0  0  0  0  0  0  0
   27.2375  -19.3041  -16.1938 C   0  0  0  0  0  0  0  0  0  0  0  0
   27.5833  -18.8399  -13.8382 C   0  0  0  0  0  0  0  0  0  0  0  0
   27.1055  -20.1525  -13.2703 C   0  0  2  0  0  0  0  0  0  0  0  0
   25.6392  -20.1276  -13.4082 N   0  0  0  0  0  0  0  0  0  0  0  0
   27.4137  -20.2989  -11.8185 C   0  0  0  0  0  0  0  0  0  0  0  0
   28.6108  -20.4476  -11.4473 O   0  0  0  0  0  0  0  0  0  0  0  0
   26.4010  -20.2775  -10.8285 N   0  0  0  0  0  0  0  0  0  0  0  0
   26.6551  -20.3679   -9.3910 C   0  0  1  0  0  0  0  0  0  0  0  0
   26.5807  -19.0331   -8.7515 C   0  0  0  0  0  0  0  0  0  0  0  0
   27.5059  -18.8925   -7.6172 C   0  0  0  0  0  0  0  0  0  0  0  0
   28.6576  -18.0941   -7.5595 C   0  0  0  0  0  0  0  0  0  0  0  0
   29.2571  -18.2667   -6.3852 N   0  0  0  0  0  0  0  0  0  0  0  0
   28.5660  -19.1412   -5.6463 C   0  0  0  0  0  0  0  0  0  0  0  0
   28.7848  -19.6175   -4.3573 C   0  0  0  0  0  0  0  0  0  0  0  0
   27.8940  -20.5016   -3.8185 C   0  0  0  0  0  0  0  0  0  0  0  0
   26.7850  -20.9284   -4.5309 C   0  0  0  0  0  0  0  0  0  0  0  0
   26.6022  -20.4358   -5.8062 C   0  0  0  0  0  0  0  0  0  0  0  0
   27.4745  -19.5448   -6.3864 C   0  0  0  0  0  0  0  0  0  0  0  0
   25.7417  -21.3410   -8.8169 C   0  0  0  0  0  0  0  0  0  0  0  0
   24.5111  -21.3939   -9.1664 O   0  0  0  0  0  0  0  0  0  0  0  0
   26.0922  -22.2975   -7.8611 O   0  0  0  0  0  0  0  0  0  0  0  0
  2  1  1  0
  2  4  1  0
  3  2  2  0
  5  4  1  0
  6  5  1  0
  6  7  1  1
  8  6  1  0
  9  8  2  0
 11 10  1  6
 11 12  1  0
 11 13  1  0
 14 13  1  1
 14 15  1  0
 15  8  1  0
 16 18  1  0
 16 14  1  0
 17 16  2  0
 19 30  1  0
 19 18  1  0
 19 20  1  1
 21 29  1  0
 21 20  1  0
 22 21  2  0
 23 22  1  0
 23 24  1  0
 24 25  1  0
 24 29  2  0
 25 26  2  0
 26 27  1  0
 28 27  2  0
 29 28  1  0
 30 32  1  0
 31 30  2  0
M  END
$$$$
