VCH.pdb
     RDKit          3D

 24 24  0  0  1  0  0  0  0  0999 V2000
    7.1519  -12.8878   18.8543 C   0  0  0  0  0  0  0  0  0  0  0  0
    8.4879  -13.3946   19.3442 C   0  0  2  0  0  0  0  0  0  0  0  0
    9.3712  -12.3195   19.8821 C   0  0  0  0  0  0  0  0  0  0  0  0
    9.1234  -14.1626   18.1952 C   0  0  2  0  0  0  0  0  0  0  0  0
    8.1220  -15.0440   17.6841 N   0  0  0  0  0  0  0  0  0  0  0  0
   10.3642  -14.8496   18.5997 C   0  0  0  0  0  0  0  0  0  0  0  0
   10.2838  -15.9163   19.2420 O   0  0  0  0  0  0  0  0  0  0  0  0
   11.6480  -14.3436   18.2861 N   0  0  0  0  0  0  0  0  0  0  0  0
   12.8340  -15.0063   18.7710 C   0  0  1  0  0  0  0  0  0  0  0  0
   14.0059  -14.4185   17.9819 C   0  0  0  0  0  0  0  0  0  0  0  0
   14.0126  -15.1000   16.3033 S   0  0  0  0  0  0  0  0  0  0  0  0
   13.0496  -14.6797   20.1796 C   0  0  0  0  0  0  0  0  0  0  0  0
   12.1034  -14.1546   20.8362 O   0  0  0  0  0  0  0  0  0  0  0  0
   14.3089  -14.9628   20.7575 N   0  0  0  0  0  0  0  0  0  0  0  0
   14.3767  -15.4329   22.1148 C   0  0  1  0  0  0  0  0  0  0  0  0
   13.6256  -16.7569   22.1465 C   0  0  0  0  0  0  0  0  0  0  0  0
   12.2707  -16.5055   22.7197 C   0  0  0  0  0  0  0  0  0  0  0  0
   11.7470  -15.2773   23.0395 C   0  0  0  0  0  0  0  0  0  0  0  0
   10.5175  -15.4729   23.5229 N   0  0  0  0  0  0  0  0  0  0  0  0
   10.2685  -16.7955   23.5093 C   0  0  0  0  0  0  0  0  0  0  0  0
   11.3411  -17.4279   23.0179 N   0  0  0  0  0  0  0  0  0  0  0  0
   15.7885  -15.6008   22.4944 C   0  0  0  0  0  0  0  0  0  0  0  0
   16.2358  -15.2457   23.7529 O   0  0  0  0  0  0  0  0  0  0  0  0
   16.5968  -16.0691   21.6745 O   0  0  0  0  0  0  0  0  0  0  0  0
  2  3  1  6
  2  1  1  0
  4  2  1  0
  4  5  1  1
  6  8  1  0
  6  4  1  0
  7  6  2  0
  9  8  1  0
  9 12  1  0
  9 10  1  6
 11 10  1  0
 12 14  1  0
 13 12  2  0
 14 15  1  0
 15 16  1  6
 15 22  1  0
 17 16  1  0
 18 17  2  0
 19 20  1  0
 19 18  1  0
 20 21  2  0
 21 17  1  0
 22 24  2  0
 22 23  1  0
M  END
$$$$
