VCH.pdb
     RDKit          3D

 24 24  0  0  1  0  0  0  0  0999 V2000
    6.9798  -14.5443   18.0954 C   0  0  0  0  0  0  0  0  0  0  0  0
    7.4910  -14.7760   19.4978 C   0  0  2  0  0  0  0  0  0  0  0  0
    6.7572  -15.8497   20.2287 C   0  0  0  0  0  0  0  0  0  0  0  0
    7.4484  -13.4360   20.2163 C   0  0  2  0  0  0  0  0  0  0  0  0
    8.1875  -12.5138   19.4138 N   0  0  0  0  0  0  0  0  0  0  0  0
    7.9336  -13.5303   21.6059 C   0  0  0  0  0  0  0  0  0  0  0  0
    9.1581  -13.6514   21.8127 O   0  0  0  0  0  0  0  0  0  0  0  0
    7.0601  -13.4887   22.7186 N   0  0  0  0  0  0  0  0  0  0  0  0
    7.5749  -13.6326   24.0584 C   0  0  1  0  0  0  0  0  0  0  0  0
    6.4053  -13.3391   25.0003 C   0  0  0  0  0  0  0  0  0  0  0  0
    6.8867  -13.7179   26.7053 S   0  0  0  0  0  0  0  0  0  0  0  0
    7.9852  -15.0164   24.2912 C   0  0  0  0  0  0  0  0  0  0  0  0
    7.1223  -15.9358   24.1804 O   0  0  0  0  0  0  0  0  0  0  0  0
    9.3327  -15.2772   24.6320 N   0  0  0  0  0  0  0  0  0  0  0  0
    9.7576  -16.6323   24.8575 C   0  0  1  0  0  0  0  0  0  0  0  0
   11.2171  -16.6995   24.4290 C   0  0  0  0  0  0  0  0  0  0  0  0
   11.7566  -18.0305   24.8347 C   0  0  0  0  0  0  0  0  0  0  0  0
   11.2994  -18.8017   25.8746 C   0  0  0  0  0  0  0  0  0  0  0  0
   12.0385  -19.9135   25.9120 N   0  0  0  0  0  0  0  0  0  0  0  0
   12.9434  -19.8475   24.9179 C   0  0  0  0  0  0  0  0  0  0  0  0
   12.7714  -18.6954   24.2583 N   0  0  0  0  0  0  0  0  0  0  0  0
    9.5957  -16.9548   26.2841 C   0  0  0  0  0  0  0  0  0  0  0  0
    9.4118  -18.2586   26.7042 O   0  0  0  0  0  0  0  0  0  0  0  0
    9.6238  -16.0446   27.1299 O   0  0  0  0  0  0  0  0  0  0  0  0
  2  3  1  1
  2  1  1  0
  4  2  1  0
  4  5  1  6
  6  8  1  0
  6  4  1  0
  7  6  2  0
  9  8  1  0
  9 12  1  0
  9 10  1  1
 11 10  1  0
 12 14  1  0
 13 12  2  0
 14 15  1  0
 15 16  1  1
 15 22  1  0
 17 16  1  0
 18 17  2  0
 19 20  1  0
 19 18  1  0
 20 21  2  0
 21 17  1  0
 22 24  2  0
 22 23  1  0
M  END
$$$$
