VCH.pdb
     RDKit          3D

 24 24  0  0  1  0  0  0  0  0999 V2000
    7.9149  -14.3822   16.3751 C   0  0  0  0  0  0  0  0  0  0  0  0
    8.8382  -14.2096   17.5581 C   0  0  2  0  0  0  0  0  0  0  0  0
    9.7631  -15.3619   17.7640 C   0  0  0  0  0  0  0  0  0  0  0  0
    7.9637  -13.9291   18.7707 C   0  0  2  0  0  0  0  0  0  0  0  0
    7.1237  -12.8258   18.4273 N   0  0  0  0  0  0  0  0  0  0  0  0
    8.7573  -13.7087   19.9942 C   0  0  0  0  0  0  0  0  0  0  0  0
    9.1333  -12.5517   20.2717 O   0  0  0  0  0  0  0  0  0  0  0  0
    9.1103  -14.7633   20.8693 N   0  0  0  0  0  0  0  0  0  0  0  0
    9.9531  -14.5136   22.0130 C   0  0  1  0  0  0  0  0  0  0  0  0
    9.0611  -14.6753   23.2457 C   0  0  0  0  0  0  0  0  0  0  0  0
    7.9067  -16.0473   22.9862 S   0  0  0  0  0  0  0  0  0  0  0  0
   10.9995  -15.5313   22.0957 C   0  0  0  0  0  0  0  0  0  0  0  0
   10.7561  -16.6939   21.6586 O   0  0  0  0  0  0  0  0  0  0  0  0
   12.2466  -15.1789   22.6618 N   0  0  0  0  0  0  0  0  0  0  0  0
   13.4228  -15.9265   22.3074 C   0  0  1  0  0  0  0  0  0  0  0  0
   14.5283  -14.9037   22.0844 C   0  0  0  0  0  0  0  0  0  0  0  0
   14.7738  -14.8019   20.6158 C   0  0  0  0  0  0  0  0  0  0  0  0
   13.8488  -15.0304   19.6272 C   0  0  0  0  0  0  0  0  0  0  0  0
   14.4536  -14.8378   18.4521 N   0  0  0  0  0  0  0  0  0  0  0  0
   15.7330  -14.4950   18.6917 C   0  0  0  0  0  0  0  0  0  0  0  0
   15.9294  -14.4729   20.0156 N   0  0  0  0  0  0  0  0  0  0  0  0
   13.7521  -16.8509   23.4041 C   0  0  0  0  0  0  0  0  0  0  0  0
   14.5765  -17.9404   23.1953 O   0  0  0  0  0  0  0  0  0  0  0  0
   13.2846  -16.6542   24.5388 O   0  0  0  0  0  0  0  0  0  0  0  0
  2  3  1  1
  2  1  1  0
  4  2  1  0
  4  5  1  6
  6  8  1  0
  6  4  1  0
  7  6  2  0
  9  8  1  0
  9 12  1  0
  9 10  1  1
 11 10  1  0
 12 14  1  0
 13 12  2  0
 14 15  1  0
 15 16  1  1
 15 22  1  0
 17 16  1  0
 18 17  2  0
 19 20  1  0
 19 18  1  0
 20 21  2  0
 21 17  1  0
 22 24  2  0
 22 23  1  0
M  END
$$$$
