VCH.pdb
     RDKit          3D

 24 24  0  0  1  0  0  0  0  0999 V2000
    6.2957  -23.8909   13.8756 C   0  0  0  0  0  0  0  0  0  0  0  0
    7.4593  -23.0339   14.3154 C   0  0  2  0  0  0  0  0  0  0  0  0
    8.7106  -23.8089   14.5585 C   0  0  0  0  0  0  0  0  0  0  0  0
    7.0016  -22.2513   15.5369 C   0  0  2  0  0  0  0  0  0  0  0  0
    5.7580  -21.6385   15.1922 N   0  0  0  0  0  0  0  0  0  0  0  0
    8.0223  -21.2943   16.0032 C   0  0  0  0  0  0  0  0  0  0  0  0
    7.9615  -20.1089   15.6185 O   0  0  0  0  0  0  0  0  0  0  0  0
    9.0727  -21.6702   16.8740 N   0  0  0  0  0  0  0  0  0  0  0  0
    9.9755  -20.6771   17.4024 C   0  0  1  0  0  0  0  0  0  0  0  0
    9.1351  -19.7714   18.3050 C   0  0  0  0  0  0  0  0  0  0  0  0
   10.1965  -18.5150   19.0650 S   0  0  0  0  0  0  0  0  0  0  0  0
   10.9853  -21.3159   18.2448 C   0  0  0  0  0  0  0  0  0  0  0  0
   10.6094  -22.1357   19.1329 O   0  0  0  0  0  0  0  0  0  0  0  0
   12.3465  -20.9942   18.0362 N   0  0  0  0  0  0  0  0  0  0  0  0
   13.3496  -21.5651   18.8938 C   0  0  1  0  0  0  0  0  0  0  0  0
   14.4252  -22.1301   17.9761 C   0  0  0  0  0  0  0  0  0  0  0  0
   13.8390  -23.2842   17.2333 C   0  0  0  0  0  0  0  0  0  0  0  0
   13.5537  -24.5196   17.7601 C   0  0  0  0  0  0  0  0  0  0  0  0
   13.0437  -25.2712   16.7811 N   0  0  0  0  0  0  0  0  0  0  0  0
   13.0069  -24.5280   15.6595 C   0  0  0  0  0  0  0  0  0  0  0  0
   13.4935  -23.3120   15.9357 N   0  0  0  0  0  0  0  0  0  0  0  0
   13.8843  -20.5132   19.7731 C   0  0  0  0  0  0  0  0  0  0  0  0
   14.8667  -20.7931   20.7041 O   0  0  0  0  0  0  0  0  0  0  0  0
   13.4496  -19.3524   19.6820 O   0  0  0  0  0  0  0  0  0  0  0  0
  2  3  1  1
  2  1  1  0
  4  2  1  0
  4  5  1  6
  6  8  1  0
  6  4  1  0
  7  6  2  0
  9  8  1  0
  9 12  1  0
  9 10  1  1
 11 10  1  0
 12 14  1  0
 13 12  2  0
 14 15  1  0
 15 16  1  6
 15 22  1  0
 17 16  1  0
 18 17  2  0
 19 20  1  0
 19 18  1  0
 20 21  2  0
 21 17  1  0
 22 24  2  0
 22 23  1  0
M  END
$$$$
