VCH.pdb
     RDKit          3D

 24 24  0  0  1  0  0  0  0  0999 V2000
    7.9780  -12.9952   18.6949 C   0  0  0  0  0  0  0  0  0  0  0  0
    7.3443  -13.4231   19.9977 C   0  0  2  0  0  0  0  0  0  0  0  0
    7.6601  -12.5159   21.1391 C   0  0  0  0  0  0  0  0  0  0  0  0
    7.7693  -14.8616   20.2504 C   0  0  2  0  0  0  0  0  0  0  0  0
    7.4983  -15.5887   19.0508 N   0  0  0  0  0  0  0  0  0  0  0  0
    7.1237  -15.4341   21.4465 C   0  0  0  0  0  0  0  0  0  0  0  0
    5.8997  -15.2602   21.6156 O   0  0  0  0  0  0  0  0  0  0  0  0
    7.8419  -16.1762   22.4141 N   0  0  0  0  0  0  0  0  0  0  0  0
    7.1843  -16.6537   23.6058 C   0  0  1  0  0  0  0  0  0  0  0  0
    6.0681  -17.5879   23.1338 C   0  0  0  0  0  0  0  0  0  0  0  0
    6.7688  -18.9001   22.0996 S   0  0  0  0  0  0  0  0  0  0  0  0
    8.1127  -17.4526   24.4041 C   0  0  0  0  0  0  0  0  0  0  0  0
    7.6978  -17.9786   25.4780 O   0  0  0  0  0  0  0  0  0  0  0  0
    9.4417  -17.6085   23.9466 N   0  0  0  0  0  0  0  0  0  0  0  0
   10.3998  -18.2938   24.7713 C   0  0  1  0  0  0  0  0  0  0  0  0
   11.1897  -19.2050   23.8417 C   0  0  0  0  0  0  0  0  0  0  0  0
   11.6620  -18.3878   22.6857 C   0  0  0  0  0  0  0  0  0  0  0  0
   11.2238  -17.1287   22.3574 C   0  0  0  0  0  0  0  0  0  0  0  0
   11.8850  -16.7404   21.2638 N   0  0  0  0  0  0  0  0  0  0  0  0
   12.7230  -17.7317   20.9080 C   0  0  0  0  0  0  0  0  0  0  0  0
   12.5869  -18.7400   21.7778 N   0  0  0  0  0  0  0  0  0  0  0  0
   11.2678  -17.3010   25.4243 C   0  0  0  0  0  0  0  0  0  0  0  0
   12.2678  -17.6910   26.2951 O   0  0  0  0  0  0  0  0  0  0  0  0
   11.1042  -16.0909   25.1933 O   0  0  0  0  0  0  0  0  0  0  0  0
  2  3  1  1
  2  1  1  0
  4  2  1  0
  4  5  1  6
  6  8  1  0
  6  4  1  0
  7  6  2  0
  9  8  1  0
  9 12  1  0
  9 10  1  6
 11 10  1  0
 12 14  1  0
 13 12  2  0
 14 15  1  0
 15 16  1  6
 15 22  1  0
 17 16  1  0
 18 17  2  0
 19 20  1  0
 19 18  1  0
 20 21  2  0
 21 17  1  0
 22 24  2  0
 22 23  1  0
M  END
$$$$
