VCH.pdb
     RDKit          3D

 24 24  0  0  1  0  0  0  0  0999 V2000
    6.7126  -15.0902   19.2581 C   0  0  0  0  0  0  0  0  0  0  0  0
    7.3687  -15.3663   20.5905 C   0  0  2  0  0  0  0  0  0  0  0  0
    6.6243  -16.3519   21.4272 C   0  0  0  0  0  0  0  0  0  0  0  0
    7.5564  -14.0250   21.2830 C   0  0  2  0  0  0  0  0  0  0  0  0
    8.2035  -13.1634   20.3450 N   0  0  0  0  0  0  0  0  0  0  0  0
    8.2775  -14.1521   22.5632 C   0  0  0  0  0  0  0  0  0  0  0  0
    9.5174  -14.2917   22.5484 O   0  0  0  0  0  0  0  0  0  0  0  0
    7.6147  -14.1218   23.8132 N   0  0  0  0  0  0  0  0  0  0  0  0
    8.3562  -14.2933   25.0386 C   0  0  1  0  0  0  0  0  0  0  0  0
    7.6059  -13.4966   26.1081 C   0  0  0  0  0  0  0  0  0  0  0  0
    5.8334  -13.8572   26.0044 S   0  0  0  0  0  0  0  0  0  0  0  0
    8.3336  -15.6974   25.4452 C   0  0  0  0  0  0  0  0  0  0  0  0
    7.2476  -16.3414   25.3558 O   0  0  0  0  0  0  0  0  0  0  0  0
    9.5274  -16.2852   25.9240 N   0  0  0  0  0  0  0  0  0  0  0  0
    9.5133  -17.6491   26.3792 C   0  0  1  0  0  0  0  0  0  0  0  0
   10.6430  -18.3569   25.6437 C   0  0  0  0  0  0  0  0  0  0  0  0
   10.1829  -18.6389   24.2523 C   0  0  0  0  0  0  0  0  0  0  0  0
    8.9548  -18.3167   23.7296 C   0  0  0  0  0  0  0  0  0  0  0  0
    8.9306  -18.7341   22.4612 N   0  0  0  0  0  0  0  0  0  0  0  0
   10.1170  -19.3077   22.1871 C   0  0  0  0  0  0  0  0  0  0  0  0
   10.8837  -19.2496   23.2829 N   0  0  0  0  0  0  0  0  0  0  0  0
    9.7173  -17.6707   27.8364 C   0  0  0  0  0  0  0  0  0  0  0  0
    9.6983  -18.8592   28.5417 O   0  0  0  0  0  0  0  0  0  0  0  0
    9.9102  -16.6065   28.4486 O   0  0  0  0  0  0  0  0  0  0  0  0
  2  3  1  1
  2  1  1  0
  4  2  1  0
  4  5  1  6
  6  8  1  0
  6  4  1  0
  7  6  2  0
  9  8  1  0
  9 12  1  0
  9 10  1  1
 11 10  1  0
 12 14  1  0
 13 12  2  0
 14 15  1  0
 15 16  1  6
 15 22  1  0
 17 16  1  0
 18 17  2  0
 19 20  1  0
 19 18  1  0
 20 21  2  0
 21 17  1  0
 22 24  2  0
 22 23  1  0
M  END
$$$$
