VCH.pdb
     RDKit          3D

 24 24  0  0  1  0  0  0  0  0999 V2000
    6.2088  -16.6632   19.2622 C   0  0  0  0  0  0  0  0  0  0  0  0
    6.9902  -16.5588   20.5508 C   0  0  2  0  0  0  0  0  0  0  0  0
    6.4228  -17.3808   21.6589 C   0  0  0  0  0  0  0  0  0  0  0  0
    7.0837  -15.0810   20.8985 C   0  0  2  0  0  0  0  0  0  0  0  0
    7.4874  -14.4017   19.7083 N   0  0  0  0  0  0  0  0  0  0  0  0
    7.9707  -14.8320   22.0503 C   0  0  0  0  0  0  0  0  0  0  0  0
    9.1994  -14.7316   21.8576 O   0  0  0  0  0  0  0  0  0  0  0  0
    7.4799  -14.7021   23.3713 N   0  0  0  0  0  0  0  0  0  0  0  0
    8.3918  -14.5586   24.4796 C   0  0  1  0  0  0  0  0  0  0  0  0
    7.6269  -13.8034   25.5686 C   0  0  0  0  0  0  0  0  0  0  0  0
    5.9568  -14.4879   25.7257 S   0  0  0  0  0  0  0  0  0  0  0  0
    8.7343  -15.8733   25.0196 C   0  0  0  0  0  0  0  0  0  0  0  0
    7.8149  -16.7305   25.1684 O   0  0  0  0  0  0  0  0  0  0  0  0
   10.0818  -16.1394   25.3564 N   0  0  0  0  0  0  0  0  0  0  0  0
   10.4352  -17.4188   25.9096 C   0  0  1  0  0  0  0  0  0  0  0  0
   11.8643  -17.6972   25.4641 C   0  0  0  0  0  0  0  0  0  0  0  0
   11.8589  -17.8793   23.9828 C   0  0  0  0  0  0  0  0  0  0  0  0
   11.0231  -18.7087   23.2766 C   0  0  0  0  0  0  0  0  0  0  0  0
   11.3307  -18.5897   21.9824 N   0  0  0  0  0  0  0  0  0  0  0  0
   12.3388  -17.7047   21.8719 C   0  0  0  0  0  0  0  0  0  0  0  0
   12.6624  -17.2697   23.0958 N   0  0  0  0  0  0  0  0  0  0  0  0
   10.3269  -17.3540   27.3757 C   0  0  0  0  0  0  0  0  0  0  0  0
   10.5060  -18.4815   28.1547 O   0  0  0  0  0  0  0  0  0  0  0  0
   10.0704  -16.2708   27.9285 O   0  0  0  0  0  0  0  0  0  0  0  0
  2  3  1  1
  2  1  1  0
  4  2  1  0
  4  5  1  6
  6  8  1  0
  6  4  1  0
  7  6  2  0
  9  8  1  0
  9 12  1  0
  9 10  1  1
 11 10  1  0
 12 14  1  0
 13 12  2  0
 14 15  1  0
 15 16  1  1
 15 22  1  0
 17 16  1  0
 18 17  2  0
 19 20  1  0
 19 18  1  0
 20 21  2  0
 21 17  1  0
 22 24  2  0
 22 23  1  0
M  END
$$$$
