VCH.pdb
     RDKit          3D

 24 24  0  0  1  0  0  0  0  0999 V2000
    6.7759  -14.3802   18.8947 C   0  0  0  0  0  0  0  0  0  0  0  0
    7.3771  -14.7226   20.2375 C   0  0  2  0  0  0  0  0  0  0  0  0
    6.6227  -15.7770   20.9756 C   0  0  0  0  0  0  0  0  0  0  0  0
    7.4950  -13.4230   21.0191 C   0  0  2  0  0  0  0  0  0  0  0  0
    8.2528  -12.5221   20.2098 N   0  0  0  0  0  0  0  0  0  0  0  0
    8.0631  -13.6286   22.3646 C   0  0  0  0  0  0  0  0  0  0  0  0
    9.2963  -13.7750   22.4852 O   0  0  0  0  0  0  0  0  0  0  0  0
    7.2599  -13.6665   23.5292 N   0  0  0  0  0  0  0  0  0  0  0  0
    7.8548  -13.9110   24.8203 C   0  0  1  0  0  0  0  0  0  0  0  0
    6.7761  -13.5887   25.8567 C   0  0  0  0  0  0  0  0  0  0  0  0
    6.5710  -11.7931   25.9840 S   0  0  0  0  0  0  0  0  0  0  0  0
    8.1835  -15.3287   24.9598 C   0  0  0  0  0  0  0  0  0  0  0  0
    7.2646  -16.1860   24.8090 O   0  0  0  0  0  0  0  0  0  0  0  0
    9.5176  -15.6905   25.2586 N   0  0  0  0  0  0  0  0  0  0  0  0
    9.8410  -17.0708   25.4992 C   0  0  1  0  0  0  0  0  0  0  0  0
   11.2761  -17.2620   25.0278 C   0  0  0  0  0  0  0  0  0  0  0  0
   11.2734  -17.2794   23.5354 C   0  0  0  0  0  0  0  0  0  0  0  0
   10.1670  -17.1627   22.7309 C   0  0  0  0  0  0  0  0  0  0  0  0
   10.5787  -17.2248   21.4619 N   0  0  0  0  0  0  0  0  0  0  0  0
   11.9160  -17.3773   21.4632 C   0  0  0  0  0  0  0  0  0  0  0  0
   12.3416  -17.4108   22.7319 N   0  0  0  0  0  0  0  0  0  0  0  0
    9.7000  -17.3531   26.9366 C   0  0  0  0  0  0  0  0  0  0  0  0
    9.8376  -18.6375   27.4280 O   0  0  0  0  0  0  0  0  0  0  0  0
    9.4533  -16.4259   27.7266 O   0  0  0  0  0  0  0  0  0  0  0  0
  2  3  1  1
  2  1  1  0
  4  2  1  0
  4  5  1  6
  6  8  1  0
  6  4  1  0
  7  6  2  0
  9  8  1  0
  9 12  1  0
  9 10  1  1
 11 10  1  0
 12 14  1  0
 13 12  2  0
 14 15  1  0
 15 16  1  1
 15 22  1  0
 17 16  1  0
 18 17  2  0
 19 20  1  0
 19 18  1  0
 20 21  2  0
 21 17  1  0
 22 24  2  0
 22 23  1  0
M  END
$$$$
