KRT.pdb
     RDKit          3D

 28 27  0  0  1  0  0  0  0  0999 V2000
    6.8381  -20.8948   19.3085 N   0  0  0  0  0  0  0  0  0  0  0  0
    6.7152  -20.6422   20.7021 C   0  0  1  0  0  0  0  0  0  0  0  0
    6.8969  -21.7833   21.6249 C   0  0  0  0  0  0  0  0  0  0  0  0
    5.6571  -22.5872   21.8214 C   0  0  0  0  0  0  0  0  0  0  0  0
    4.8690  -22.2460   23.0351 C   0  0  0  0  0  0  0  0  0  0  0  0
    3.5761  -23.0587   23.1080 C   0  0  0  0  0  0  0  0  0  0  0  0
    2.8215  -22.7835   24.2933 N   0  0  0  0  0  0  0  0  0  0  0  0
    7.6958  -19.5461   21.0471 C   0  0  0  0  0  0  0  0  0  0  0  0
    8.9269  -19.6880   20.8370 O   0  0  0  0  0  0  0  0  0  0  0  0
    8.1046  -13.8558   18.0142 N   0  0  0  0  0  0  0  0  0  0  0  0
    8.4298  -12.8880   19.0252 C   0  0  0  0  0  0  0  0  0  0  0  0
    9.5172  -12.1872   18.9517 N   0  0  0  0  0  0  0  0  0  0  0  0
    7.5841  -12.6601   20.1355 N   0  0  0  0  0  0  0  0  0  0  0  0
    7.0488  -13.7926   20.8668 C   0  0  0  0  0  0  0  0  0  0  0  0
    8.1190  -14.8948   20.9897 C   0  0  0  0  0  0  0  0  0  0  0  0
    7.4782  -15.9895   21.7545 C   0  0  0  0  0  0  0  0  0  0  0  0
    8.2502  -17.2592   21.9155 C   0  0  2  0  0  0  0  0  0  0  0  0
    7.2647  -18.3269   21.6162 N   0  0  0  0  0  0  0  0  0  0  0  0
    8.7415  -17.5002   23.2912 C   0  0  0  0  0  0  0  0  0  0  0  0
    7.9574  -17.4444   24.2964 O   0  0  0  0  0  0  0  0  0  0  0  0
    9.7674  -11.5053   19.7173 C   0  0  0  0  0  0  0  0  0  0  0  0
   10.8430  -20.4628   24.2690 C   0  0  2  0  0  0  0  0  0  0  0  0
   11.5476  -19.2491   24.7874 O   0  0  0  0  0  0  0  0  0  0  0  0
   12.4935  -18.8178   23.8366 C   0  0  2  0  0  0  0  0  0  0  0  0
   10.5270  -18.1182   24.9301 N   0  0  0  0  0  0  0  0  0  0  0  0
   10.0805  -17.8039   23.5708 C   0  0  0  0  0  0  0  0  0  0  0  0
   11.1264  -16.9375   25.5763 O   0  0  0  0  0  0  0  0  0  0  0  0
   11.3884  -15.9136   24.9039 O   0  0  0  0  0  0  0  0  0  0  0  0
  2  1  1  6
  3  2  1  0
  4  3  1  0
  4  5  1  0
  6  5  1  0
  7  6  1  0
  8  2  1  0
  8  9  2  0
 10 11  1  0
 11 12  2  0
 11 13  1  0
 13 14  1  0
 14 15  1  0
 15 16  1  0
 17 16  1  1
 17 18  1  0
 18  8  1  0
 19 17  1  0
 20 19  2  0
 22 21  1  1
 22 23  1  0
 22 24  1  0
 24 26  1  0
 24 25  1  1
 25 19  1  0
 26 28  1  0
 27 26  2  0
M  END
$$$$
