KRT.pdb
     RDKit          3D

 28 27  0  0  1  0  0  0  0  0999 V2000
    8.2174  -17.5035   19.1182 N   0  0  0  0  0  0  0  0  0  0  0  0
    8.7649  -16.3740   19.7857 C   0  0  1  0  0  0  0  0  0  0  0  0
    8.4345  -15.0350   19.2524 C   0  0  0  0  0  0  0  0  0  0  0  0
    8.4107  -14.9817   17.7629 C   0  0  0  0  0  0  0  0  0  0  0  0
    7.9829  -13.6807   17.1842 C   0  0  0  0  0  0  0  0  0  0  0  0
    7.9354  -13.7375   15.6572 C   0  0  0  0  0  0  0  0  0  0  0  0
    7.5247  -12.4956   15.0747 N   0  0  0  0  0  0  0  0  0  0  0  0
    8.3469  -16.4634   21.2346 C   0  0  0  0  0  0  0  0  0  0  0  0
    7.1603  -16.7308   21.5515 O   0  0  0  0  0  0  0  0  0  0  0  0
   13.6185  -19.4093   23.1789 N   0  0  0  0  0  0  0  0  0  0  0  0
   12.9694  -20.1959   24.1910 C   0  0  0  0  0  0  0  0  0  0  0  0
   13.6590  -20.8989   25.0331 N   0  0  0  0  0  0  0  0  0  0  0  0
   11.5608  -20.2368   24.3111 N   0  0  0  0  0  0  0  0  0  0  0  0
   10.7427  -19.5468   23.3321 C   0  0  0  0  0  0  0  0  0  0  0  0
    9.5159  -18.9166   24.0199 C   0  0  0  0  0  0  0  0  0  0  0  0
    9.8497  -17.4843   24.1968 C   0  0  0  0  0  0  0  0  0  0  0  0
    8.8652  -16.4811   23.6886 C   0  0  2  0  0  0  0  0  0  0  0  0
    9.2721  -16.2501   22.2808 N   0  0  0  0  0  0  0  0  0  0  0  0
    8.9257  -15.1705   24.3747 C   0  0  0  0  0  0  0  0  0  0  0  0
    9.8731  -14.3456   24.1499 O   0  0  0  0  0  0  0  0  0  0  0  0
   13.1749  -21.4655   25.7803 C   0  0  0  0  0  0  0  0  0  0  0  0
    6.5755  -11.5435   26.5393 C   0  0  2  0  0  0  0  0  0  0  0  0
    6.5713  -12.9374   25.9958 O   0  0  0  0  0  0  0  0  0  0  0  0
    6.0957  -12.9190   24.6697 C   0  0  1  0  0  0  0  0  0  0  0  0
    8.0153  -13.4393   25.9335 N   0  0  0  0  0  0  0  0  0  0  0  0
    7.9568  -14.7584   25.2992 C   0  0  0  0  0  0  0  0  0  0  0  0
    8.6083  -13.5253   27.2795 O   0  0  0  0  0  0  0  0  0  0  0  0
    8.8252  -14.6417   27.8046 O   0  0  0  0  0  0  0  0  0  0  0  0
  2  1  1  6
  3  2  1  0
  4  3  1  0
  4  5  1  0
  6  5  1  0
  7  6  1  0
  8  2  1  0
  8  9  2  0
 10 11  1  0
 11 12  2  0
 11 13  1  0
 13 14  1  0
 14 15  1  0
 15 16  1  0
 17 16  1  1
 17 18  1  0
 18  8  1  0
 19 17  1  0
 20 19  2  0
 22 21  1  1
 22 23  1  0
 22 24  1  0
 24 26  1  0
 24 25  1  1
 25 19  1  0
 26 28  1  0
 27 26  2  0
M  END
$$$$
