KRT.pdb
     RDKit          3D

 28 27  0  0  1  0  0  0  0  0999 V2000
    5.8804  -20.3761   20.7270 N   0  0  0  0  0  0  0  0  0  0  0  0
    5.3172  -19.6241   21.7938 C   0  0  1  0  0  0  0  0  0  0  0  0
    4.6158  -20.3679   22.8622 C   0  0  0  0  0  0  0  0  0  0  0  0
    3.3305  -20.9749   22.4134 C   0  0  0  0  0  0  0  0  0  0  0  0
    2.2302  -20.0078   22.1590 C   0  0  0  0  0  0  0  0  0  0  0  0
    0.9475  -20.7213   21.7316 C   0  0  0  0  0  0  0  0  0  0  0  0
   -0.1360  -19.8130   21.5055 N   0  0  0  0  0  0  0  0  0  0  0  0
    6.4288  -18.7958   22.3942 C   0  0  0  0  0  0  0  0  0  0  0  0
    7.5359  -19.3130   22.6888 O   0  0  0  0  0  0  0  0  0  0  0  0
    8.0786  -14.6104   18.8405 N   0  0  0  0  0  0  0  0  0  0  0  0
    8.4279  -13.2522   19.1531 C   0  0  0  0  0  0  0  0  0  0  0  0
    9.1662  -12.5524   18.3506 N   0  0  0  0  0  0  0  0  0  0  0  0
    7.9846  -12.6252   20.3407 N   0  0  0  0  0  0  0  0  0  0  0  0
    7.1649  -13.3713   21.2763 C   0  0  0  0  0  0  0  0  0  0  0  0
    7.9847  -14.5194   21.8969 C   0  0  0  0  0  0  0  0  0  0  0  0
    7.0620  -15.2113   22.8263 C   0  0  0  0  0  0  0  0  0  0  0  0
    7.3890  -16.6220   23.1964 C   0  0  2  0  0  0  0  0  0  0  0  0
    6.2634  -17.4153   22.6447 N   0  0  0  0  0  0  0  0  0  0  0  0
    7.4198  -16.8750   24.6549 C   0  0  0  0  0  0  0  0  0  0  0  0
    6.4603  -16.5105   25.4131 O   0  0  0  0  0  0  0  0  0  0  0  0
    9.5059  -11.5943   18.6342 C   0  0  0  0  0  0  0  0  0  0  0  0
    7.1496  -19.7434   26.4430 C   0  0  2  0  0  0  0  0  0  0  0  0
    8.4615  -19.2375   26.9543 O   0  0  0  0  0  0  0  0  0  0  0  0
    9.5054  -19.7923   26.1880 C   0  0  2  0  0  0  0  0  0  0  0  0
    8.5176  -17.7243   26.7356 N   0  0  0  0  0  0  0  0  0  0  0  0
    8.4894  -17.5251   25.2847 C   0  0  0  0  0  0  0  0  0  0  0  0
    9.7372  -17.1452   27.3255 O   0  0  0  0  0  0  0  0  0  0  0  0
   10.6038  -16.6151   26.5925 O   0  0  0  0  0  0  0  0  0  0  0  0
  2  1  1  6
  3  2  1  0
  4  3  1  0
  4  5  1  0
  6  5  1  0
  7  6  1  0
  8  2  1  0
  8  9  2  0
 10 11  1  0
 11 12  2  0
 11 13  1  0
 13 14  1  0
 14 15  1  0
 15 16  1  0
 17 16  1  1
 17 18  1  0
 18  8  1  0
 19 17  1  0
 20 19  2  0
 22 21  1  1
 22 23  1  0
 22 24  1  0
 24 26  1  0
 24 25  1  1
 25 19  1  0
 26 28  1  0
 27 26  2  0
M  END
$$$$
