KRT.pdb
     RDKit          3D

 28 27  0  0  1  0  0  0  0  0999 V2000
    6.5041  -21.2054   19.8119 N   0  0  0  0  0  0  0  0  0  0  0  0
    7.7950  -20.9476   19.2754 C   0  0  1  0  0  0  0  0  0  0  0  0
    7.8936  -20.6743   17.8255 C   0  0  0  0  0  0  0  0  0  0  0  0
    6.5687  -20.6061   17.1458 C   0  0  0  0  0  0  0  0  0  0  0  0
    6.6242  -20.4747   15.6658 C   0  0  0  0  0  0  0  0  0  0  0  0
    5.2228  -20.4161   15.0576 C   0  0  0  0  0  0  0  0  0  0  0  0
    5.2482  -20.2213   13.6394 N   0  0  0  0  0  0  0  0  0  0  0  0
    8.3812  -19.7928   20.0531 C   0  0  0  0  0  0  0  0  0  0  0  0
    9.5565  -19.3998   19.8429 O   0  0  0  0  0  0  0  0  0  0  0  0
    7.8953  -11.4980   20.2864 N   0  0  0  0  0  0  0  0  0  0  0  0
    8.2882  -12.8476   19.9886 C   0  0  0  0  0  0  0  0  0  0  0  0
    8.3451  -13.2705   18.7651 N   0  0  0  0  0  0  0  0  0  0  0  0
    8.6271  -13.7656   21.0095 N   0  0  0  0  0  0  0  0  0  0  0  0
    8.2368  -15.1561   20.8748 C   0  0  0  0  0  0  0  0  0  0  0  0
    7.2766  -15.5474   22.0151 C   0  0  0  0  0  0  0  0  0  0  0  0
    7.0048  -16.9916   21.8298 C   0  0  0  0  0  0  0  0  0  0  0  0
    8.1830  -17.9002   21.6871 C   0  0  2  0  0  0  0  0  0  0  0  0
    7.6312  -19.1161   21.0409 N   0  0  0  0  0  0  0  0  0  0  0  0
    8.7780  -18.3286   22.9734 C   0  0  0  0  0  0  0  0  0  0  0  0
    8.1046  -18.9956   23.8278 O   0  0  0  0  0  0  0  0  0  0  0  0
    8.6445  -14.2603   18.5542 C   0  0  0  0  0  0  0  0  0  0  0  0
   12.8728  -17.9174   23.5904 C   0  0  2  0  0  0  0  0  0  0  0  0
   12.0971  -19.0723   24.1407 O   0  0  0  0  0  0  0  0  0  0  0  0
   12.7179  -19.5313   25.3192 C   0  0  1  0  0  0  0  0  0  0  0  0
   10.7076  -18.5760   24.5454 N   0  0  0  0  0  0  0  0  0  0  0  0
   10.1017  -18.0348   23.3265 C   0  0  0  0  0  0  0  0  0  0  0  0
   10.7943  -17.5460   25.5953 O   0  0  0  0  0  0  0  0  0  0  0  0
   10.6283  -16.3374   25.3106 O   0  0  0  0  0  0  0  0  0  0  0  0
  2  1  1  1
  3  2  1  0
  4  3  1  0
  4  5  1  0
  6  5  1  0
  7  6  1  0
  8  2  1  0
  8  9  2  0
 10 11  1  0
 11 12  2  0
 11 13  1  0
 13 14  1  0
 14 15  1  0
 15 16  1  0
 17 16  1  1
 17 18  1  0
 18  8  1  0
 19 17  1  0
 20 19  2  0
 22 21  1  6
 22 23  1  0
 22 24  1  0
 24 26  1  0
 24 25  1  6
 25 19  1  0
 26 28  1  0
 27 26  2  0
M  END
$$$$
