KRT.pdb
     RDKit          3D

 28 27  0  0  1  0  0  0  0  0999 V2000
    7.3781  -22.0517   18.8063 N   0  0  0  0  0  0  0  0  0  0  0  0
    7.3288  -21.5479   20.1348 C   0  0  1  0  0  0  0  0  0  0  0  0
    7.7230  -22.4602   21.2297 C   0  0  0  0  0  0  0  0  0  0  0  0
    8.2748  -23.7582   20.7474 C   0  0  0  0  0  0  0  0  0  0  0  0
    9.7271  -23.9582   20.9953 C   0  0  0  0  0  0  0  0  0  0  0  0
   10.1636  -25.3795   20.6397 C   0  0  0  0  0  0  0  0  0  0  0  0
   11.5462  -25.6166   20.9269 N   0  0  0  0  0  0  0  0  0  0  0  0
    8.1848  -20.3038   20.1744 C   0  0  0  0  0  0  0  0  0  0  0  0
    9.2700  -20.2433   19.5431 O   0  0  0  0  0  0  0  0  0  0  0  0
    9.3570  -13.2375   20.3098 N   0  0  0  0  0  0  0  0  0  0  0  0
    8.1551  -12.9868   19.5635 C   0  0  0  0  0  0  0  0  0  0  0  0
    8.1468  -12.1485   18.5755 N   0  0  0  0  0  0  0  0  0  0  0  0
    6.9387  -13.6388   19.8723 N   0  0  0  0  0  0  0  0  0  0  0  0
    6.8793  -14.5308   21.0145 C   0  0  0  0  0  0  0  0  0  0  0  0
    8.1229  -15.4407   21.0386 C   0  0  0  0  0  0  0  0  0  0  0  0
    7.6069  -16.8247   20.9275 C   0  0  0  0  0  0  0  0  0  0  0  0
    8.6112  -17.9298   20.8624 C   0  0  2  0  0  0  0  0  0  0  0  0
    7.7966  -19.1682   20.9199 N   0  0  0  0  0  0  0  0  0  0  0  0
    9.5415  -17.9726   22.0133 C   0  0  0  0  0  0  0  0  0  0  0  0
    9.1643  -18.3930   23.1576 O   0  0  0  0  0  0  0  0  0  0  0  0
    7.2603  -11.9718   18.0307 C   0  0  0  0  0  0  0  0  0  0  0  0
   14.1669  -17.3669   23.6313 C   0  0  1  0  0  0  0  0  0  0  0  0
   13.1574  -17.1928   22.5409 O   0  0  0  0  0  0  0  0  0  0  0  0
   13.5245  -17.9850   21.4353 C   0  0  1  0  0  0  0  0  0  0  0  0
   11.8121  -17.7296   23.0337 N   0  0  0  0  0  0  0  0  0  0  0  0
   10.8779  -17.5625   21.9179 C   0  0  0  0  0  0  0  0  0  0  0  0
   11.3497  -16.9965   24.2252 O   0  0  0  0  0  0  0  0  0  0  0  0
   10.7773  -15.8889   24.1034 O   0  0  0  0  0  0  0  0  0  0  0  0
  2  1  1  6
  3  2  1  0
  4  3  1  0
  4  5  1  0
  6  5  1  0
  7  6  1  0
  8  2  1  0
  8  9  2  0
 10 11  1  0
 11 12  2  0
 11 13  1  0
 13 14  1  0
 14 15  1  0
 15 16  1  0
 17 16  1  1
 17 18  1  0
 18  8  1  0
 19 17  1  0
 20 19  2  0
 22 21  1  6
 22 23  1  0
 22 24  1  0
 24 26  1  0
 24 25  1  6
 25 19  1  0
 26 28  1  0
 27 26  2  0
M  END
$$$$
