KRT.pdb
     RDKit          3D

 28 27  0  0  1  0  0  0  0  0999 V2000
    9.8622  -20.6512   18.0822 N   0  0  0  0  0  0  0  0  0  0  0  0
    8.9885  -20.2533   19.1306 C   0  0  1  0  0  0  0  0  0  0  0  0
    8.4349  -21.3123   20.0016 C   0  0  0  0  0  0  0  0  0  0  0  0
    7.8727  -22.4664   19.2441 C   0  0  0  0  0  0  0  0  0  0  0  0
    6.4084  -22.6715   19.4007 C   0  0  0  0  0  0  0  0  0  0  0  0
    5.9093  -23.8227   18.5273 C   0  0  0  0  0  0  0  0  0  0  0  0
    4.5408  -24.1543   18.7865 N   0  0  0  0  0  0  0  0  0  0  0  0
    9.7280  -19.2377   19.9693 C   0  0  0  0  0  0  0  0  0  0  0  0
   10.9647  -19.3398   20.1700 O   0  0  0  0  0  0  0  0  0  0  0  0
    7.9347  -11.6795   21.4085 N   0  0  0  0  0  0  0  0  0  0  0  0
    8.3392  -12.4985   20.2994 C   0  0  0  0  0  0  0  0  0  0  0  0
    9.0747  -12.0161   19.3480 N   0  0  0  0  0  0  0  0  0  0  0  0
    7.9551  -13.8559   20.1987 N   0  0  0  0  0  0  0  0  0  0  0  0
    7.1227  -14.4388   21.2337 C   0  0  0  0  0  0  0  0  0  0  0  0
    7.8540  -15.6242   21.8935 C   0  0  0  0  0  0  0  0  0  0  0  0
    9.0690  -15.8481   21.0763 C   0  0  0  0  0  0  0  0  0  0  0  0
    9.8265  -17.1163   21.3040 C   0  0  2  0  0  0  0  0  0  0  0  0
    9.0578  -18.1410   20.5558 N   0  0  0  0  0  0  0  0  0  0  0  0
    9.8651  -17.5545   22.7177 C   0  0  0  0  0  0  0  0  0  0  0  0
    8.8251  -18.0081   23.3017 O   0  0  0  0  0  0  0  0  0  0  0  0
    9.3296  -12.6109   18.5143 C   0  0  0  0  0  0  0  0  0  0  0  0
   12.4171  -19.9196   23.9120 C   0  0  2  0  0  0  0  0  0  0  0  0
   12.4181  -18.8205   24.9272 O   0  0  0  0  0  0  0  0  0  0  0  0
   13.4217  -17.8867   24.6018 C   0  0  2  0  0  0  0  0  0  0  0  0
   11.0848  -18.0755   24.8383 N   0  0  0  0  0  0  0  0  0  0  0  0
   11.0321  -17.5020   23.4914 C   0  0  0  0  0  0  0  0  0  0  0  0
   10.9927  -17.0231   25.8653 O   0  0  0  0  0  0  0  0  0  0  0  0
   11.0288  -15.8146   25.5373 O   0  0  0  0  0  0  0  0  0  0  0  0
  2  1  1  6
  3  2  1  0
  4  3  1  0
  4  5  1  0
  6  5  1  0
  7  6  1  0
  8  2  1  0
  8  9  2  0
 10 11  1  0
 11 12  2  0
 11 13  1  0
 13 14  1  0
 14 15  1  0
 15 16  1  0
 17 16  1  1
 17 18  1  0
 18  8  1  0
 19 17  1  0
 20 19  2  0
 22 21  1  1
 22 23  1  0
 22 24  1  0
 24 26  1  0
 24 25  1  1
 25 19  1  0
 26 28  1  0
 27 26  2  0
M  END
$$$$
