KRT.pdb
     RDKit          3D

 28 27  0  0  1  0  0  0  0  0999 V2000
    7.4190  -20.8680   19.4233 N   0  0  0  0  0  0  0  0  0  0  0  0
    7.1626  -20.7174   20.8135 C   0  0  1  0  0  0  0  0  0  0  0  0
    7.4297  -21.8779   21.6902 C   0  0  0  0  0  0  0  0  0  0  0  0
    6.2597  -22.7898   21.8360 C   0  0  0  0  0  0  0  0  0  0  0  0
    5.5478  -22.7005   23.1382 C   0  0  0  0  0  0  0  0  0  0  0  0
    4.4840  -23.7906   23.2689 C   0  0  0  0  0  0  0  0  0  0  0  0
    3.9255  -23.8569   24.5856 N   0  0  0  0  0  0  0  0  0  0  0  0
    7.9581  -19.5247   21.2895 C   0  0  0  0  0  0  0  0  0  0  0  0
    9.2129  -19.5653   21.3510 O   0  0  0  0  0  0  0  0  0  0  0  0
    7.4416  -11.8144   19.2319 N   0  0  0  0  0  0  0  0  0  0  0  0
    8.2219  -13.0205   19.2030 C   0  0  0  0  0  0  0  0  0  0  0  0
    8.8561  -13.3785   18.1313 N   0  0  0  0  0  0  0  0  0  0  0  0
    8.3308  -13.8626   20.3340 N   0  0  0  0  0  0  0  0  0  0  0  0
    7.4520  -13.6487   21.4680 C   0  0  0  0  0  0  0  0  0  0  0  0
    7.7241  -14.7084   22.5534 C   0  0  0  0  0  0  0  0  0  0  0  0
    7.2638  -15.9942   21.9799 C   0  0  0  0  0  0  0  0  0  0  0  0
    8.1279  -17.1938   22.2000 C   0  0  2  0  0  0  0  0  0  0  0  0
    7.3217  -18.3256   21.6808 N   0  0  0  0  0  0  0  0  0  0  0  0
    8.4110  -17.4844   23.6239 C   0  0  0  0  0  0  0  0  0  0  0  0
    7.4689  -17.6592   24.4667 O   0  0  0  0  0  0  0  0  0  0  0  0
    8.8260  -12.7765   17.2651 C   0  0  0  0  0  0  0  0  0  0  0  0
   10.3500  -20.2319   24.8825 C   0  0  2  0  0  0  0  0  0  0  0  0
   10.9786  -19.0448   25.5414 O   0  0  0  0  0  0  0  0  0  0  0  0
   12.0796  -18.6150   24.7745 C   0  0  2  0  0  0  0  0  0  0  0  0
    9.9693  -17.8950   25.5367 N   0  0  0  0  0  0  0  0  0  0  0  0
    9.7145  -17.5877   24.1274 C   0  0  0  0  0  0  0  0  0  0  0  0
   10.4987  -16.7181   26.2475 O   0  0  0  0  0  0  0  0  0  0  0  0
   10.6336  -16.7393   27.4928 O   0  0  0  0  0  0  0  0  0  0  0  0
  2  1  1  6
  3  2  1  0
  4  3  1  0
  4  5  1  0
  6  5  1  0
  7  6  1  0
  8  2  1  0
  8  9  2  0
 10 11  1  0
 11 12  2  0
 11 13  1  0
 13 14  1  0
 14 15  1  0
 15 16  1  0
 17 16  1  1
 17 18  1  0
 18  8  1  0
 19 17  1  0
 20 19  2  0
 22 21  1  1
 22 23  1  0
 22 24  1  0
 24 26  1  0
 24 25  1  1
 25 19  1  0
 26 28  1  0
 27 26  2  0
M  END
$$$$
