KRT.pdb
     RDKit          3D

 28 27  0  0  1  0  0  0  0  0999 V2000
   10.2132  -20.5523   18.2395 N   0  0  0  0  0  0  0  0  0  0  0  0
   11.4506  -19.8799   18.0453 C   0  0  1  0  0  0  0  0  0  0  0  0
   11.7127  -19.2964   16.7120 C   0  0  0  0  0  0  0  0  0  0  0  0
   13.1550  -19.3066   16.3359 C   0  0  0  0  0  0  0  0  0  0  0  0
   13.4680  -18.6962   15.0167 C   0  0  0  0  0  0  0  0  0  0  0  0
   14.9599  -18.7918   14.6972 C   0  0  0  0  0  0  0  0  0  0  0  0
   15.2791  -18.2627   13.4056 N   0  0  0  0  0  0  0  0  0  0  0  0
   11.5464  -18.8035   19.1009 C   0  0  0  0  0  0  0  0  0  0  0  0
   12.5691  -18.0793   19.1973 O   0  0  0  0  0  0  0  0  0  0  0  0
    7.9040  -12.6902   21.9556 N   0  0  0  0  0  0  0  0  0  0  0  0
    7.5794  -12.7231   20.5563 C   0  0  0  0  0  0  0  0  0  0  0  0
    7.5043  -11.6307   19.8636 N   0  0  0  0  0  0  0  0  0  0  0  0
    7.3300  -13.9397   19.8795 N   0  0  0  0  0  0  0  0  0  0  0  0
    7.6000  -15.1964   20.5516 C   0  0  0  0  0  0  0  0  0  0  0  0
    9.1063  -15.5160   20.4873 C   0  0  0  0  0  0  0  0  0  0  0  0
    9.2507  -16.8741   21.0607 C   0  0  0  0  0  0  0  0  0  0  0  0
   10.6101  -17.4945   21.0247 C   0  0  2  0  0  0  0  0  0  0  0  0
   10.4929  -18.5740   20.0139 N   0  0  0  0  0  0  0  0  0  0  0  0
   11.0176  -18.1367   22.2950 C   0  0  0  0  0  0  0  0  0  0  0  0
   10.5867  -19.2919   22.6240 O   0  0  0  0  0  0  0  0  0  0  0  0
    7.2466  -11.6619   18.8407 C   0  0  0  0  0  0  0  0  0  0  0  0
   14.1091  -18.2976   26.0803 C   0  0  2  0  0  0  0  0  0  0  0  0
   13.6765  -17.6797   24.7882 O   0  0  0  0  0  0  0  0  0  0  0  0
   14.5104  -18.1395   23.7498 C   0  0  1  0  0  0  0  0  0  0  0  0
   12.2647  -18.1711   24.4628 N   0  0  0  0  0  0  0  0  0  0  0  0
   11.8932  -17.5249   23.2018 C   0  0  0  0  0  0  0  0  0  0  0  0
   11.3177  -17.8207   25.5359 O   0  0  0  0  0  0  0  0  0  0  0  0
   10.5882  -16.8079   25.4295 O   0  0  0  0  0  0  0  0  0  0  0  0
  2  1  1  6
  3  2  1  0
  4  3  1  0
  4  5  1  0
  6  5  1  0
  7  6  1  0
  8  2  1  0
  8  9  2  0
 10 11  1  0
 11 12  2  0
 11 13  1  0
 13 14  1  0
 14 15  1  0
 15 16  1  0
 17 16  1  1
 17 18  1  0
 18  8  1  0
 19 17  1  0
 20 19  2  0
 22 21  1  1
 22 23  1  0
 22 24  1  0
 24 26  1  0
 24 25  1  1
 25 19  1  0
 26 28  1  0
 27 26  2  0
M  END
$$$$
