PDI.pdb
     RDKit          3D

 24 24  0  0  1  0  0  0  0  0999 V2000
    8.7897  -14.7863   18.4023 N   0  0  0  0  0  0  0  0  0  0  0  0
    8.5459  -14.1902   17.1007 C   0  0  0  0  0  0  0  0  0  0  0  0
    7.7245  -12.9452   17.3320 C   0  0  0  0  0  0  0  0  0  0  0  0
    7.3809  -13.0455   18.8024 C   0  0  0  0  0  0  0  0  0  0  0  0
    8.6360  -13.6921   19.3545 C   0  0  1  0  0  0  0  0  0  0  0  0
    8.4235  -14.2142   20.7335 C   0  0  0  0  0  0  0  0  0  0  0  0
    8.0379  -13.4590   21.6631 O   0  0  0  0  0  0  0  0  0  0  0  0
    8.6662  -15.5823   20.9732 N   0  0  0  0  0  0  0  0  0  0  0  0
    8.4781  -16.3392   22.1617 C   0  0  1  0  0  0  0  0  0  0  0  0
    8.7338  -17.8336   22.0486 C   0  0  0  0  0  0  0  0  0  0  0  0
   10.1796  -18.1469   22.2386 C   0  0  0  0  0  0  0  0  0  0  0  0
   10.5743  -18.3747   23.4311 O   0  0  0  0  0  0  0  0  0  0  0  0
    8.9469  -15.7390   23.4075 C   0  0  0  0  0  0  0  0  0  0  0  0
   10.1246  -15.3450   23.5572 O   0  0  0  0  0  0  0  0  0  0  0  0
   11.1043  -18.2071   21.2372 O   0  0  0  0  0  0  0  0  0  0  0  0
    7.0555  -11.4681   26.9287 C   0  0  0  0  0  0  0  0  0  0  0  0
    7.9777  -12.6527   26.8728 C   0  0  0  0  0  0  0  0  0  0  0  0
    7.4756  -13.5890   25.7833 C   0  0  2  0  0  0  0  0  0  0  0  0
    6.1604  -14.1677   26.2549 C   0  0  0  0  0  0  0  0  0  0  0  0
    8.4462  -14.7445   25.6045 C   0  0  2  0  0  0  0  0  0  0  0  0
    8.0530  -15.5873   24.4988 N   0  0  0  0  0  0  0  0  0  0  0  0
    8.6404  -15.5140   26.8507 C   0  0  0  0  0  0  0  0  0  0  0  0
    9.4042  -14.9474   27.8636 O   0  0  0  0  0  0  0  0  0  0  0  0
    8.1451  -16.6498   27.0264 O   0  0  0  0  0  0  0  0  0  0  0  0
  1  5  1  0
  1  2  1  0
  2  3  1  0
  4  5  1  0
  4  3  1  0
  6  7  2  0
  5  6  1  1
  8  6  1  0
  9 13  1  0
  9  8  1  0
  9 10  1  6
 11 10  1  0
 12 11  2  0
 13 21  1  0
 14 13  2  0
 15 11  1  0
 16 17  1  0
 18 17  1  0
 18 20  1  0
 18 19  1  1
 20 22  1  0
 20 21  1  6
 22 24  2  0
 22 23  1  0
M  END
$$$$
