PDI.pdb
     RDKit          3D

 24 24  0  0  1  0  0  0  0  0999 V2000
    8.8146  -14.9453   18.4127 N   0  0  0  0  0  0  0  0  0  0  0  0
    8.6591  -14.4020   17.0751 C   0  0  0  0  0  0  0  0  0  0  0  0
    7.9315  -13.0870   17.2144 C   0  0  0  0  0  0  0  0  0  0  0  0
    7.5354  -13.0825   18.6749 C   0  0  0  0  0  0  0  0  0  0  0  0
    8.7179  -13.7938   19.3027 C   0  0  1  0  0  0  0  0  0  0  0  0
    8.4220  -14.2243   20.6978 C   0  0  0  0  0  0  0  0  0  0  0  0
    8.1019  -13.3889   21.5827 O   0  0  0  0  0  0  0  0  0  0  0  0
    8.5098  -15.5976   21.0046 N   0  0  0  0  0  0  0  0  0  0  0  0
    8.2356  -16.2705   22.2265 C   0  0  1  0  0  0  0  0  0  0  0  0
    8.3994  -17.7819   22.2074 C   0  0  0  0  0  0  0  0  0  0  0  0
    8.2083  -18.3600   23.5689 C   0  0  0  0  0  0  0  0  0  0  0  0
    7.0081  -18.5733   23.9479 O   0  0  0  0  0  0  0  0  0  0  0  0
    8.7009  -15.6282   23.4525 C   0  0  0  0  0  0  0  0  0  0  0  0
    9.9117  -15.4017   23.6696 O   0  0  0  0  0  0  0  0  0  0  0  0
    9.2164  -18.6750   24.4327 O   0  0  0  0  0  0  0  0  0  0  0  0
    6.7647  -11.3337   27.2139 C   0  0  0  0  0  0  0  0  0  0  0  0
    7.7434  -12.4521   26.9948 C   0  0  0  0  0  0  0  0  0  0  0  0
    7.2264  -13.3128   25.8514 C   0  0  2  0  0  0  0  0  0  0  0  0
    5.9468  -13.9679   26.3211 C   0  0  0  0  0  0  0  0  0  0  0  0
    8.2212  -14.4197   25.5444 C   0  0  2  0  0  0  0  0  0  0  0  0
    7.7649  -15.2387   24.4451 N   0  0  0  0  0  0  0  0  0  0  0  0
    8.5541  -15.2240   26.7383 C   0  0  0  0  0  0  0  0  0  0  0  0
    9.3661  -14.6551   27.7115 O   0  0  0  0  0  0  0  0  0  0  0  0
    8.1338  -16.3912   26.9041 O   0  0  0  0  0  0  0  0  0  0  0  0
  1  5  1  0
  1  2  1  0
  2  3  1  0
  4  5  1  0
  4  3  1  0
  6  7  2  0
  5  6  1  1
  8  6  1  0
  9 13  1  0
  9  8  1  0
  9 10  1  6
 11 10  1  0
 12 11  2  0
 13 21  1  0
 14 13  2  0
 15 11  1  0
 16 17  1  0
 18 17  1  0
 18 20  1  0
 18 19  1  1
 20 22  1  0
 20 21  1  6
 22 24  2  0
 22 23  1  0
M  END
$$$$
