PDI.pdb
     RDKit          3D

 24 24  0  0  1  0  0  0  0  0999 V2000
    8.7066  -14.8683   18.7555 N   0  0  0  0  0  0  0  0  0  0  0  0
    8.4809  -14.2813   17.4466 C   0  0  0  0  0  0  0  0  0  0  0  0
    7.7172  -12.9977   17.6641 C   0  0  0  0  0  0  0  0  0  0  0  0
    7.3792  -13.0608   19.1378 C   0  0  0  0  0  0  0  0  0  0  0  0
    8.6080  -13.7545   19.6921 C   0  0  1  0  0  0  0  0  0  0  0  0
    8.3816  -14.2462   21.0800 C   0  0  0  0  0  0  0  0  0  0  0  0
    7.9817  -13.4719   21.9877 O   0  0  0  0  0  0  0  0  0  0  0  0
    8.6275  -15.6073   21.3535 N   0  0  0  0  0  0  0  0  0  0  0  0
    8.4441  -16.3342   22.5614 C   0  0  1  0  0  0  0  0  0  0  0  0
    8.6634  -17.8363   22.4760 C   0  0  0  0  0  0  0  0  0  0  0  0
    8.2944  -18.3570   21.1279 C   0  0  0  0  0  0  0  0  0  0  0  0
    9.2465  -18.5649   20.3032 O   0  0  0  0  0  0  0  0  0  0  0  0
    8.9496  -15.7189   23.7852 C   0  0  0  0  0  0  0  0  0  0  0  0
   10.1498  -15.3950   23.9234 O   0  0  0  0  0  0  0  0  0  0  0  0
    7.0219  -18.6253   20.7152 O   0  0  0  0  0  0  0  0  0  0  0  0
    5.8577  -12.0660   25.9338 C   0  0  0  0  0  0  0  0  0  0  0  0
    6.9740  -12.9140   25.3938 C   0  0  0  0  0  0  0  0  0  0  0  0
    7.5083  -13.7697   26.5330 C   0  0  2  0  0  0  0  0  0  0  0  0
    8.1896  -12.8424   27.5143 C   0  0  0  0  0  0  0  0  0  0  0  0
    8.5596  -14.7336   26.0087 C   0  0  2  0  0  0  0  0  0  0  0  0
    8.0667  -15.4701   24.8676 N   0  0  0  0  0  0  0  0  0  0  0  0
    9.0820  -15.6252   27.0646 C   0  0  0  0  0  0  0  0  0  0  0  0
   10.0906  -15.1475   27.8921 O   0  0  0  0  0  0  0  0  0  0  0  0
    8.6517  -16.7873   27.2402 O   0  0  0  0  0  0  0  0  0  0  0  0
  1  5  1  0
  1  2  1  0
  2  3  1  0
  4  5  1  0
  4  3  1  0
  6  7  2  0
  5  6  1  1
  8  6  1  0
  9 13  1  0
  9  8  1  0
  9 10  1  6
 11 10  1  0
 12 11  2  0
 13 21  1  0
 14 13  2  0
 15 11  1  0
 16 17  1  0
 18 17  1  0
 18 20  1  0
 18 19  1  1
 20 22  1  0
 20 21  1  6
 22 24  2  0
 22 23  1  0
M  END
$$$$
