PDI.pdb
     RDKit          3D

 24 24  0  0  1  0  0  0  0  0999 V2000
    8.6105  -15.0416   18.8008 N   0  0  0  0  0  0  0  0  0  0  0  0
    8.5764  -14.4956   17.4557 C   0  0  0  0  0  0  0  0  0  0  0  0
    8.0106  -13.1001   17.5599 C   0  0  0  0  0  0  0  0  0  0  0  0
    7.5601  -13.0340   19.0031 C   0  0  0  0  0  0  0  0  0  0  0  0
    8.6204  -13.8789   19.6814 C   0  0  1  0  0  0  0  0  0  0  0  0
    8.2186  -14.2572   21.0651 C   0  0  0  0  0  0  0  0  0  0  0  0
    7.9409  -13.3812   21.9247 O   0  0  0  0  0  0  0  0  0  0  0  0
    8.1566  -15.6277   21.3902 N   0  0  0  0  0  0  0  0  0  0  0  0
    7.8623  -16.2494   22.6343 C   0  0  1  0  0  0  0  0  0  0  0  0
    7.7655  -17.7666   22.6156 C   0  0  0  0  0  0  0  0  0  0  0  0
    7.2530  -18.2559   21.3032 C   0  0  0  0  0  0  0  0  0  0  0  0
    5.9864  -18.2872   21.1475 O   0  0  0  0  0  0  0  0  0  0  0  0
    8.5181  -15.7008   23.8178 C   0  0  0  0  0  0  0  0  0  0  0  0
    9.7596  -15.5675   23.8919 O   0  0  0  0  0  0  0  0  0  0  0  0
    8.0346  -18.6696   20.2642 O   0  0  0  0  0  0  0  0  0  0  0  0
    5.8131  -11.8627   26.3536 C   0  0  0  0  0  0  0  0  0  0  0  0
    6.8243  -12.7310   25.6603 C   0  0  0  0  0  0  0  0  0  0  0  0
    7.4628  -13.6353   26.7044 C   0  0  2  0  0  0  0  0  0  0  0  0
    8.3014  -12.7601   27.6088 C   0  0  0  0  0  0  0  0  0  0  0  0
    8.3977  -14.6258   26.0307 C   0  0  2  0  0  0  0  0  0  0  0  0
    7.7400  -15.2981   24.9338 N   0  0  0  0  0  0  0  0  0  0  0  0
    8.9954  -15.5773   26.9900 C   0  0  0  0  0  0  0  0  0  0  0  0
   10.1186  -15.1772   27.7030 O   0  0  0  0  0  0  0  0  0  0  0  0
    8.5297  -16.7229   27.1829 O   0  0  0  0  0  0  0  0  0  0  0  0
  1  5  1  0
  1  2  1  0
  2  3  1  0
  4  5  1  0
  4  3  1  0
  6  7  2  0
  5  6  1  1
  8  6  1  0
  9 13  1  0
  9  8  1  0
  9 10  1  6
 11 10  1  0
 12 11  2  0
 13 21  1  0
 14 13  2  0
 15 11  1  0
 16 17  1  0
 18 17  1  0
 18 20  1  0
 18 19  1  1
 20 22  1  0
 20 21  1  6
 22 24  2  0
 22 23  1  0
M  END
$$$$
