PDI.pdb
     RDKit          3D

 24 24  0  0  1  0  0  0  0  0999 V2000
    8.8989  -14.5560   18.7888 N   0  0  0  0  0  0  0  0  0  0  0  0
    8.6464  -13.9453   17.4958 C   0  0  0  0  0  0  0  0  0  0  0  0
    7.5432  -12.9342   17.6927 C   0  0  0  0  0  0  0  0  0  0  0  0
    7.0970  -13.2058   19.1131 C   0  0  0  0  0  0  0  0  0  0  0  0
    8.4103  -13.5894   19.7659 C   0  0  1  0  0  0  0  0  0  0  0  0
    8.1965  -14.2357   21.0910 C   0  0  0  0  0  0  0  0  0  0  0  0
    7.5770  -13.6429   22.0119 O   0  0  0  0  0  0  0  0  0  0  0  0
    8.7079  -15.5345   21.2896 N   0  0  0  0  0  0  0  0  0  0  0  0
    8.7484  -16.3188   22.4745 C   0  0  1  0  0  0  0  0  0  0  0  0
    9.2102  -17.7577   22.3069 C   0  0  0  0  0  0  0  0  0  0  0  0
    9.0956  -18.5112   23.5889 C   0  0  0  0  0  0  0  0  0  0  0  0
   10.1710  -18.7044   24.2491 O   0  0  0  0  0  0  0  0  0  0  0  0
    9.2404  -15.6637   23.6831 C   0  0  0  0  0  0  0  0  0  0  0  0
   10.4108  -15.2332   23.7801 O   0  0  0  0  0  0  0  0  0  0  0  0
    7.9326  -19.0055   24.1036 O   0  0  0  0  0  0  0  0  0  0  0  0
    5.9542  -12.3247   26.1015 C   0  0  0  0  0  0  0  0  0  0  0  0
    7.1056  -13.0601   25.4767 C   0  0  0  0  0  0  0  0  0  0  0  0
    7.7583  -13.9143   26.5536 C   0  0  2  0  0  0  0  0  0  0  0  0
    8.4034  -12.9744   27.5474 C   0  0  0  0  0  0  0  0  0  0  0  0
    8.8614  -14.7635   25.9443 C   0  0  2  0  0  0  0  0  0  0  0  0
    8.3785  -15.4986   24.7980 N   0  0  0  0  0  0  0  0  0  0  0  0
    9.5083  -15.6438   26.9390 C   0  0  0  0  0  0  0  0  0  0  0  0
   10.5993  -15.1519   27.6447 O   0  0  0  0  0  0  0  0  0  0  0  0
    9.1118  -16.8086   27.1681 O   0  0  0  0  0  0  0  0  0  0  0  0
  1  5  1  0
  1  2  1  0
  2  3  1  0
  4  5  1  0
  4  3  1  0
  6  7  2  0
  5  6  1  1
  8  6  1  0
  9 13  1  0
  9  8  1  0
  9 10  1  6
 11 10  1  0
 12 11  2  0
 13 21  1  0
 14 13  2  0
 15 11  1  0
 16 17  1  0
 18 17  1  0
 18 20  1  0
 18 19  1  1
 20 22  1  0
 20 21  1  6
 22 24  2  0
 22 23  1  0
M  END
$$$$
