PDI.pdb
     RDKit          3D

 24 24  0  0  1  0  0  0  0  0999 V2000
    8.3477  -15.1659   18.8098 N   0  0  0  0  0  0  0  0  0  0  0  0
    8.3026  -14.6168   17.4662 C   0  0  0  0  0  0  0  0  0  0  0  0
    7.8738  -13.1752   17.5924 C   0  0  0  0  0  0  0  0  0  0  0  0
    7.4979  -13.0699   19.0545 C   0  0  0  0  0  0  0  0  0  0  0  0
    8.5054  -14.0104   19.6859 C   0  0  1  0  0  0  0  0  0  0  0  0
    8.1341  -14.3521   21.0875 C   0  0  0  0  0  0  0  0  0  0  0  0
    8.0344  -13.4609   21.9701 O   0  0  0  0  0  0  0  0  0  0  0  0
    7.8958  -15.7055   21.4030 N   0  0  0  0  0  0  0  0  0  0  0  0
    7.5131  -16.2915   22.6404 C   0  0  1  0  0  0  0  0  0  0  0  0
    7.2619  -17.7909   22.6192 C   0  0  0  0  0  0  0  0  0  0  0  0
    6.8559  -18.2864   23.9661 C   0  0  0  0  0  0  0  0  0  0  0  0
    5.6547  -18.0578   24.3330 O   0  0  0  0  0  0  0  0  0  0  0  0
    8.1966  -15.8107   23.8378 C   0  0  0  0  0  0  0  0  0  0  0  0
    9.4364  -15.8969   23.9791 O   0  0  0  0  0  0  0  0  0  0  0  0
    7.6697  -18.9615   24.8284 O   0  0  0  0  0  0  0  0  0  0  0  0
    5.7149  -11.7813   26.5548 C   0  0  0  0  0  0  0  0  0  0  0  0
    6.6605  -12.6574   25.7835 C   0  0  0  0  0  0  0  0  0  0  0  0
    7.2806  -13.6507   26.7554 C   0  0  2  0  0  0  0  0  0  0  0  0
    8.1723  -12.8688   27.6938 C   0  0  0  0  0  0  0  0  0  0  0  0
    8.1602  -14.6340   26.0013 C   0  0  2  0  0  0  0  0  0  0  0  0
    7.4485  -15.2215   24.8896 N   0  0  0  0  0  0  0  0  0  0  0  0
    8.7497  -15.6571   26.8893 C   0  0  0  0  0  0  0  0  0  0  0  0
    9.8969  -15.3303   27.6017 O   0  0  0  0  0  0  0  0  0  0  0  0
    8.2566  -16.7996   27.0228 O   0  0  0  0  0  0  0  0  0  0  0  0
  1  5  1  0
  1  2  1  0
  2  3  1  0
  4  5  1  0
  4  3  1  0
  6  7  2  0
  5  6  1  1
  8  6  1  0
  9 13  1  0
  9  8  1  0
  9 10  1  6
 11 10  1  0
 12 11  2  0
 13 21  1  0
 14 13  2  0
 15 11  1  0
 16 17  1  0
 18 17  1  0
 18 20  1  0
 18 19  1  1
 20 22  1  0
 20 21  1  6
 22 24  2  0
 22 23  1  0
M  END
$$$$
