PDI.pdb
     RDKit          3D

 24 24  0  0  1  0  0  0  0  0999 V2000
    8.7875  -14.9405   18.4633 N   0  0  0  0  0  0  0  0  0  0  0  0
    8.4866  -14.3656   17.1642 C   0  0  0  0  0  0  0  0  0  0  0  0
    7.6460  -13.1362   17.4092 C   0  0  0  0  0  0  0  0  0  0  0  0
    7.3546  -13.2262   18.8914 C   0  0  0  0  0  0  0  0  0  0  0  0
    8.6416  -13.8386   19.4078 C   0  0  1  0  0  0  0  0  0  0  0  0
    8.4874  -14.3486   20.7990 C   0  0  0  0  0  0  0  0  0  0  0  0
    8.1538  -13.5825   21.7398 O   0  0  0  0  0  0  0  0  0  0  0  0
    8.7257  -15.7176   21.0375 N   0  0  0  0  0  0  0  0  0  0  0  0
    8.7553  -16.4293   22.2678 C   0  0  1  0  0  0  0  0  0  0  0  0
    9.3355  -17.8335   22.2125 C   0  0  0  0  0  0  0  0  0  0  0  0
    9.3437  -18.4646   23.5639 C   0  0  0  0  0  0  0  0  0  0  0  0
    8.2762  -19.0574   23.9364 O   0  0  0  0  0  0  0  0  0  0  0  0
    9.1223  -15.6709   23.4603 C   0  0  0  0  0  0  0  0  0  0  0  0
   10.2309  -15.1033   23.5759 O   0  0  0  0  0  0  0  0  0  0  0  0
   10.4022  -18.4543   24.4248 O   0  0  0  0  0  0  0  0  0  0  0  0
    6.7090  -11.6233   27.0215 C   0  0  0  0  0  0  0  0  0  0  0  0
    7.7811  -12.6718   26.9338 C   0  0  0  0  0  0  0  0  0  0  0  0
    7.4134  -13.6279   25.8085 C   0  0  2  0  0  0  0  0  0  0  0  0
    6.1655  -14.3687   26.2340 C   0  0  0  0  0  0  0  0  0  0  0  0
    8.5154  -14.6574   25.6216 C   0  0  2  0  0  0  0  0  0  0  0  0
    8.2051  -15.5602   24.5371 N   0  0  0  0  0  0  0  0  0  0  0  0
    8.8314  -15.3767   26.8729 C   0  0  0  0  0  0  0  0  0  0  0  0
    8.6071  -16.7470   26.9207 O   0  0  0  0  0  0  0  0  0  0  0  0
    9.2912  -14.8008   27.8845 O   0  0  0  0  0  0  0  0  0  0  0  0
  1  5  1  0
  1  2  1  0
  2  3  1  0
  4  5  1  0
  4  3  1  0
  6  7  2  0
  5  6  1  1
  8  6  1  0
  9 13  1  0
  9  8  1  0
  9 10  1  6
 11 10  1  0
 12 11  2  0
 13 21  1  0
 14 13  2  0
 15 11  1  0
 16 17  1  0
 18 17  1  0
 18 20  1  0
 18 19  1  1
 20 22  1  0
 20 21  1  6
 22 24  2  0
 22 23  1  0
M  END
$$$$
