VCH.pdb
     RDKit          3D

 24 24  0  0  1  0  0  0  0  0999 V2000
   24.8264  -26.2177  -11.1898 C   0  0  0  0  0  0  0  0  0  0  0  0
   24.6149  -24.8612  -11.8199 C   0  0  2  0  0  0  0  0  0  0  0  0
   24.2379  -24.9273  -13.2618 C   0  0  0  0  0  0  0  0  0  0  0  0
   25.8801  -24.0527  -11.5758 C   0  0  2  0  0  0  0  0  0  0  0  0
   26.1437  -24.1124  -10.1730 N   0  0  0  0  0  0  0  0  0  0  0  0
   25.7753  -22.6778  -12.0990 C   0  0  0  0  0  0  0  0  0  0  0  0
   24.7910  -21.9813  -11.7782 O   0  0  0  0  0  0  0  0  0  0  0  0
   26.7523  -22.1154  -12.9546 N   0  0  0  0  0  0  0  0  0  0  0  0
   26.5728  -20.7920  -13.4996 C   0  0  1  0  0  0  0  0  0  0  0  0
   27.8923  -20.4280  -14.1834 C   0  0  0  0  0  0  0  0  0  0  0  0
   29.1363  -20.0230  -12.9300 S   0  0  0  0  0  0  0  0  0  0  0  0
   25.5379  -20.8119  -14.5321 C   0  0  0  0  0  0  0  0  0  0  0  0
   25.1591  -21.9272  -14.9953 O   0  0  0  0  0  0  0  0  0  0  0  0
   24.9975  -19.5826  -14.9760 N   0  0  0  0  0  0  0  0  0  0  0  0
   23.6882  -19.5569  -15.5700 C   0  0  1  0  0  0  0  0  0  0  0  0
   22.6955  -19.5357  -14.4157 C   0  0  0  0  0  0  0  0  0  0  0  0
   21.3192  -19.4917  -14.9912 C   0  0  0  0  0  0  0  0  0  0  0  0
   21.0065  -19.4291  -16.3266 C   0  0  0  0  0  0  0  0  0  0  0  0
   19.6753  -19.4063  -16.4318 N   0  0  0  0  0  0  0  0  0  0  0  0
   19.1570  -19.4534  -15.1906 C   0  0  0  0  0  0  0  0  0  0  0  0
   20.1626  -19.5057  -14.3086 N   0  0  0  0  0  0  0  0  0  0  0  0
   23.5670  -18.3561  -16.4120 C   0  0  0  0  0  0  0  0  0  0  0  0
   22.7136  -18.3303  -17.4988 O   0  0  0  0  0  0  0  0  0  0  0  0
   24.2401  -17.3455  -16.1467 O   0  0  0  0  0  0  0  0  0  0  0  0
  2  3  1  6
  2  1  1  0
  4  2  1  0
  4  5  1  1
  6  8  1  0
  6  4  1  0
  7  6  2  0
  9  8  1  0
  9 12  1  0
  9 10  1  6
 11 10  1  0
 12 14  1  0
 13 12  2  0
 14 15  1  0
 15 16  1  1
 15 22  1  0
 17 16  1  0
 18 17  2  0
 19 20  1  0
 19 18  1  0
 20 21  2  0
 21 17  1  0
 22 24  2  0
 22 23  1  0
M  END
$$$$
