VCH.pdb
     RDKit          3D

 24 24  0  0  1  0  0  0  0  0999 V2000
   27.7045  -13.9166  -15.0504 C   0  0  0  0  0  0  0  0  0  0  0  0
   26.6063  -13.1234  -15.7186 C   0  0  2  0  0  0  0  0  0  0  0  0
   26.8572  -11.6529  -15.7302 C   0  0  0  0  0  0  0  0  0  0  0  0
   25.3027  -13.4956  -15.0288 C   0  0  2  0  0  0  0  0  0  0  0  0
   25.2247  -14.9221  -15.0360 N   0  0  0  0  0  0  0  0  0  0  0  0
   24.1356  -12.8373  -15.6449 C   0  0  0  0  0  0  0  0  0  0  0  0
   23.4183  -13.4885  -16.4312 O   0  0  0  0  0  0  0  0  0  0  0  0
   23.7964  -11.4896  -15.3776 N   0  0  0  0  0  0  0  0  0  0  0  0
   22.5778  -10.9241  -15.9027 C   0  0  1  0  0  0  0  0  0  0  0  0
   21.4303  -11.6906  -15.2415 C   0  0  0  0  0  0  0  0  0  0  0  0
   19.8449  -11.0157  -15.8012 S   0  0  0  0  0  0  0  0  0  0  0  0
   22.4588   -9.5250  -15.4955 C   0  0  0  0  0  0  0  0  0  0  0  0
   22.6743   -9.2209  -14.2859 O   0  0  0  0  0  0  0  0  0  0  0  0
   22.1070   -8.5616  -16.4693 N   0  0  0  0  0  0  0  0  0  0  0  0
   22.0839   -7.1687  -16.1128 C   0  0  1  0  0  0  0  0  0  0  0  0
   22.3515   -6.3946  -17.3963 C   0  0  0  0  0  0  0  0  0  0  0  0
   23.7200   -6.7507  -17.8735 C   0  0  0  0  0  0  0  0  0  0  0  0
   24.8948   -6.1831  -17.4460 C   0  0  0  0  0  0  0  0  0  0  0  0
   25.8948   -6.7705  -18.1084 N   0  0  0  0  0  0  0  0  0  0  0  0
   25.3646   -7.6893  -18.9368 C   0  0  0  0  0  0  0  0  0  0  0  0
   24.0338   -7.6776  -18.7934 N   0  0  0  0  0  0  0  0  0  0  0  0
   20.7662   -6.8404  -15.5459 C   0  0  0  0  0  0  0  0  0  0  0  0
   20.5591   -5.6582  -14.8606 O   0  0  0  0  0  0  0  0  0  0  0  0
   19.8202   -7.6349  -15.6821 O   0  0  0  0  0  0  0  0  0  0  0  0
  2  3  1  1
  2  1  1  0
  4  2  1  0
  4  5  1  6
  6  8  1  0
  6  4  1  0
  7  6  2  0
  9  8  1  0
  9 12  1  0
  9 10  1  1
 11 10  1  0
 12 14  1  0
 13 12  2  0
 14 15  1  0
 15 16  1  6
 15 22  1  0
 17 16  1  0
 18 17  2  0
 19 20  1  0
 19 18  1  0
 20 21  2  0
 21 17  1  0
 22 24  2  0
 22 23  1  0
M  END
$$$$
