VCH.pdb
     RDKit          3D

 24 24  0  0  1  0  0  0  0  0999 V2000
   18.4854  -16.7698  -16.9331 C   0  0  0  0  0  0  0  0  0  0  0  0
   18.3916  -15.2687  -17.0741 C   0  0  2  0  0  0  0  0  0  0  0  0
   19.6944  -14.5699  -16.8749 C   0  0  0  0  0  0  0  0  0  0  0  0
   17.3133  -14.7958  -16.1111 C   0  0  2  0  0  0  0  0  0  0  0  0
   16.1552  -15.5930  -16.3645 N   0  0  0  0  0  0  0  0  0  0  0  0
   17.0663  -13.3455  -16.2159 C   0  0  0  0  0  0  0  0  0  0  0  0
   16.6866  -12.8733  -17.3067 O   0  0  0  0  0  0  0  0  0  0  0  0
   17.2440  -12.4650  -15.1223 N   0  0  0  0  0  0  0  0  0  0  0  0
   17.0665  -11.0436  -15.2914 C   0  0  1  0  0  0  0  0  0  0  0  0
   16.1838  -10.5812  -14.1302 C   0  0  0  0  0  0  0  0  0  0  0  0
   14.4835  -11.1485  -14.3943 S   0  0  0  0  0  0  0  0  0  0  0  0
   18.3518  -10.3594  -15.1610 C   0  0  0  0  0  0  0  0  0  0  0  0
   19.2256  -10.8447  -14.3844 O   0  0  0  0  0  0  0  0  0  0  0  0
   18.5720   -9.1790  -15.9081 N   0  0  0  0  0  0  0  0  0  0  0  0
   19.8266   -8.4868  -15.7871 C   0  0  1  0  0  0  0  0  0  0  0  0
   20.6146   -8.8062  -17.0501 C   0  0  0  0  0  0  0  0  0  0  0  0
   21.9247   -8.0959  -16.9690 C   0  0  0  0  0  0  0  0  0  0  0  0
   23.1227   -8.6560  -16.6000 C   0  0  0  0  0  0  0  0  0  0  0  0
   24.0525   -7.6987  -16.6528 N   0  0  0  0  0  0  0  0  0  0  0  0
   23.4562   -6.5581  -17.0465 C   0  0  0  0  0  0  0  0  0  0  0  0
   22.1541   -6.8007  -17.2401 N   0  0  0  0  0  0  0  0  0  0  0  0
   19.5679   -7.0437  -15.6595 C   0  0  0  0  0  0  0  0  0  0  0  0
   20.5580   -6.1761  -15.2385 O   0  0  0  0  0  0  0  0  0  0  0  0
   18.4430   -6.5915  -15.9331 O   0  0  0  0  0  0  0  0  0  0  0  0
  2  3  1  1
  2  1  1  0
  4  2  1  0
  4  5  1  6
  6  8  1  0
  6  4  1  0
  7  6  2  0
  9  8  1  0
  9 12  1  0
  9 10  1  1
 11 10  1  0
 12 14  1  0
 13 12  2  0
 14 15  1  0
 15 16  1  6
 15 22  1  0
 17 16  1  0
 18 17  2  0
 19 20  1  0
 19 18  1  0
 20 21  2  0
 21 17  1  0
 22 24  2  0
 22 23  1  0
M  END
$$$$
