VCH.pdb
     RDKit          3D

 24 24  0  0  1  0  0  0  0  0999 V2000
   30.6486   -3.9730  -17.8149 C   0  0  0  0  0  0  0  0  0  0  0  0
   30.5392   -4.3078  -19.2839 C   0  0  2  0  0  0  0  0  0  0  0  0
   30.4230   -3.1065  -20.1607 C   0  0  0  0  0  0  0  0  0  0  0  0
   29.3695   -5.2678  -19.4378 C   0  0  2  0  0  0  0  0  0  0  0  0
   28.1891   -4.5378  -19.0991 N   0  0  0  0  0  0  0  0  0  0  0  0
   29.5489   -6.5000  -18.6473 C   0  0  0  0  0  0  0  0  0  0  0  0
   28.6520   -6.8446  -17.8512 O   0  0  0  0  0  0  0  0  0  0  0  0
   30.7041   -7.3100  -18.7573 N   0  0  0  0  0  0  0  0  0  0  0  0
   30.8032   -8.5465  -18.0211 C   0  0  1  0  0  0  0  0  0  0  0  0
   29.6815   -9.4468  -18.5432 C   0  0  0  0  0  0  0  0  0  0  0  0
   29.7007  -11.0233  -17.6506 S   0  0  0  0  0  0  0  0  0  0  0  0
   32.0706   -9.2094  -18.3239 C   0  0  0  0  0  0  0  0  0  0  0  0
   32.4960   -9.1977  -19.5159 O   0  0  0  0  0  0  0  0  0  0  0  0
   32.7755   -9.8401  -17.2726 N   0  0  0  0  0  0  0  0  0  0  0  0
   34.0641  -10.4231  -17.5325 C   0  0  1  0  0  0  0  0  0  0  0  0
   34.6773  -10.7280  -16.1726 C   0  0  0  0  0  0  0  0  0  0  0  0
   35.2398   -9.4589  -15.6247 C   0  0  0  0  0  0  0  0  0  0  0  0
   35.1607   -8.2220  -16.2154 C   0  0  0  0  0  0  0  0  0  0  0  0
   35.7823   -7.3498  -15.4175 N   0  0  0  0  0  0  0  0  0  0  0  0
   36.2447   -8.0198  -14.3456 C   0  0  0  0  0  0  0  0  0  0  0  0
   35.9129   -9.3105  -14.4720 N   0  0  0  0  0  0  0  0  0  0  0  0
   33.8852  -11.6447  -18.3332 C   0  0  0  0  0  0  0  0  0  0  0  0
   34.9166  -12.1515  -19.1011 O   0  0  0  0  0  0  0  0  0  0  0  0
   32.7915  -12.2349  -18.3231 O   0  0  0  0  0  0  0  0  0  0  0  0
  2  3  1  6
  2  1  1  0
  4  2  1  0
  4  5  1  1
  6  8  1  0
  6  4  1  0
  7  6  2  0
  9  8  1  0
  9 12  1  0
  9 10  1  6
 11 10  1  0
 12 14  1  0
 13 12  2  0
 14 15  1  0
 15 16  1  1
 15 22  1  0
 17 16  1  0
 18 17  2  0
 19 20  1  0
 19 18  1  0
 20 21  2  0
 21 17  1  0
 22 24  2  0
 22 23  1  0
M  END
$$$$
