VCH.pdb
     RDKit          3D

 24 24  0  0  1  0  0  0  0  0999 V2000
   18.4798  -14.4047  -18.5508 C   0  0  0  0  0  0  0  0  0  0  0  0
   18.3767  -13.1296  -17.7475 C   0  0  2  0  0  0  0  0  0  0  0  0
   18.3395  -11.8980  -18.5885 C   0  0  0  0  0  0  0  0  0  0  0  0
   19.5285  -13.1327  -16.7540 C   0  0  2  0  0  0  0  0  0  0  0  0
   19.4253  -14.3457  -16.0064 N   0  0  0  0  0  0  0  0  0  0  0  0
   19.5461  -11.9208  -15.9136 C   0  0  0  0  0  0  0  0  0  0  0  0
   18.7296  -11.8229  -14.9752 O   0  0  0  0  0  0  0  0  0  0  0  0
   20.4572  -10.8601  -16.1315 N   0  0  0  0  0  0  0  0  0  0  0  0
   20.3095   -9.6119  -15.4237 C   0  0  1  0  0  0  0  0  0  0  0  0
   21.3548   -9.6269  -14.3064 C   0  0  0  0  0  0  0  0  0  0  0  0
   22.9696  -10.0836  -14.9893 S   0  0  0  0  0  0  0  0  0  0  0  0
   20.6328   -8.4935  -16.3079 C   0  0  0  0  0  0  0  0  0  0  0  0
   21.4858   -8.6685  -17.2266 O   0  0  0  0  0  0  0  0  0  0  0  0
   19.9799   -7.2557  -16.1042 N   0  0  0  0  0  0  0  0  0  0  0  0
   20.3392   -6.1228  -16.9136 C   0  0  1  0  0  0  0  0  0  0  0  0
   19.0442   -5.6076  -17.5267 C   0  0  0  0  0  0  0  0  0  0  0  0
   19.3771   -4.4414  -18.3965 C   0  0  0  0  0  0  0  0  0  0  0  0
   19.8730   -4.5063  -19.6751 C   0  0  0  0  0  0  0  0  0  0  0  0
   20.0375   -3.2547  -20.1114 N   0  0  0  0  0  0  0  0  0  0  0  0
   19.6542   -2.4164  -19.1307 C   0  0  0  0  0  0  0  0  0  0  0  0
   19.2500   -3.1421  -18.0810 N   0  0  0  0  0  0  0  0  0  0  0  0
   20.9775   -5.1072  -16.0611 C   0  0  0  0  0  0  0  0  0  0  0  0
   21.9433   -4.2570  -16.5658 O   0  0  0  0  0  0  0  0  0  0  0  0
   20.6472   -5.0073  -14.8671 O   0  0  0  0  0  0  0  0  0  0  0  0
  2  3  1  6
  2  1  1  0
  4  2  1  0
  4  5  1  1
  6  8  1  0
  6  4  1  0
  7  6  2  0
  9  8  1  0
  9 12  1  0
  9 10  1  1
 11 10  1  0
 12 14  1  0
 13 12  2  0
 14 15  1  0
 15 16  1  1
 15 22  1  0
 17 16  1  0
 18 17  2  0
 19 20  1  0
 19 18  1  0
 20 21  2  0
 21 17  1  0
 22 24  2  0
 22 23  1  0
M  END
$$$$
