VCH.pdb
     RDKit          3D

 24 24  0  0  1  0  0  0  0  0999 V2000
   23.1233  -34.0543  -11.4032 C   0  0  0  0  0  0  0  0  0  0  0  0
   23.9662  -33.8217  -10.1714 C   0  0  2  0  0  0  0  0  0  0  0  0
   24.1963  -35.0563   -9.3662 C   0  0  0  0  0  0  0  0  0  0  0  0
   23.2970  -32.7121   -9.3747 C   0  0  2  0  0  0  0  0  0  0  0  0
   23.1881  -31.5858  -10.2469 N   0  0  0  0  0  0  0  0  0  0  0  0
   24.0091  -32.4184   -8.1170 C   0  0  0  0  0  0  0  0  0  0  0  0
   24.9989  -31.6591   -8.1448 O   0  0  0  0  0  0  0  0  0  0  0  0
   23.6114  -32.9668   -6.8745 N   0  0  0  0  0  0  0  0  0  0  0  0
   24.2791  -32.5783   -5.6563 C   0  0  1  0  0  0  0  0  0  0  0  0
   23.1758  -32.3028   -4.6324 C   0  0  0  0  0  0  0  0  0  0  0  0
   22.0597  -33.7271   -4.5417 S   0  0  0  0  0  0  0  0  0  0  0  0
   25.0785  -33.6913   -5.1466 C   0  0  0  0  0  0  0  0  0  0  0  0
   24.7575  -34.8720   -5.4706 O   0  0  0  0  0  0  0  0  0  0  0  0
   26.1823  -33.4074   -4.3094 N   0  0  0  0  0  0  0  0  0  0  0  0
   26.9437  -34.4905   -3.7482 C   0  0  1  0  0  0  0  0  0  0  0  0
   28.2922  -33.9048   -3.3523 C   0  0  0  0  0  0  0  0  0  0  0  0
   29.1132  -34.9986   -2.7548 C   0  0  0  0  0  0  0  0  0  0  0  0
   28.7891  -36.3327   -2.7408 C   0  0  0  0  0  0  0  0  0  0  0  0
   29.7744  -36.9840   -2.1172 N   0  0  0  0  0  0  0  0  0  0  0  0
   30.7015  -36.0821   -1.7448 C   0  0  0  0  0  0  0  0  0  0  0  0
   30.2973  -34.8670   -2.1348 N   0  0  0  0  0  0  0  0  0  0  0  0
   26.2237  -35.0302   -2.5837 C   0  0  0  0  0  0  0  0  0  0  0  0
   26.3577  -36.3551   -2.2137 O   0  0  0  0  0  0  0  0  0  0  0  0
   25.4817  -34.2878   -1.9182 O   0  0  0  0  0  0  0  0  0  0  0  0
  2  3  1  1
  2  1  1  0
  4  2  1  0
  4  5  1  6
  6  8  1  0
  6  4  1  0
  7  6  2  0
  9  8  1  0
  9 12  1  0
  9 10  1  1
 11 10  1  0
 12 14  1  0
 13 12  2  0
 14 15  1  0
 15 16  1  1
 15 22  1  0
 17 16  1  0
 18 17  2  0
 19 20  1  0
 19 18  1  0
 20 21  2  0
 21 17  1  0
 22 24  2  0
 22 23  1  0
M  END
$$$$
