VCH.pdb
     RDKit          3D

 24 24  0  0  1  0  0  0  0  0999 V2000
   18.4316  -12.2925  -17.9113 C   0  0  0  0  0  0  0  0  0  0  0  0
   19.0762  -11.2335  -17.0482 C   0  0  2  0  0  0  0  0  0  0  0  0
   18.7167   -9.8415  -17.4464 C   0  0  0  0  0  0  0  0  0  0  0  0
   20.5758  -11.4875  -17.0739 C   0  0  2  0  0  0  0  0  0  0  0  0
   20.7716  -12.8436  -16.6694 N   0  0  0  0  0  0  0  0  0  0  0  0
   21.3225  -10.5136  -16.2560 C   0  0  0  0  0  0  0  0  0  0  0  0
   21.4170  -10.7020  -15.0262 O   0  0  0  0  0  0  0  0  0  0  0  0
   21.9386   -9.3685  -16.8146 N   0  0  0  0  0  0  0  0  0  0  0  0
   22.6180   -8.4176  -15.9691 C   0  0  1  0  0  0  0  0  0  0  0  0
   24.0683   -8.3722  -16.4550 C   0  0  0  0  0  0  0  0  0  0  0  0
   24.9811   -7.1098  -15.5300 S   0  0  0  0  0  0  0  0  0  0  0  0
   22.0522   -7.0833  -16.1609 C   0  0  0  0  0  0  0  0  0  0  0  0
   21.9587   -6.6231  -17.3363 O   0  0  0  0  0  0  0  0  0  0  0  0
   21.6297   -6.3549  -15.0247 N   0  0  0  0  0  0  0  0  0  0  0  0
   21.2172   -4.9854  -15.1734 C   0  0  1  0  0  0  0  0  0  0  0  0
   19.8086   -4.8988  -14.6020 C   0  0  0  0  0  0  0  0  0  0  0  0
   18.8545   -5.3578  -15.6538 C   0  0  0  0  0  0  0  0  0  0  0  0
   19.1910   -5.7901  -16.9128 C   0  0  0  0  0  0  0  0  0  0  0  0
   18.0609   -6.1111  -17.5481 N   0  0  0  0  0  0  0  0  0  0  0  0
   17.0320   -5.8869  -16.7098 C   0  0  0  0  0  0  0  0  0  0  0  0
   17.5171   -5.4258  -15.5506 N   0  0  0  0  0  0  0  0  0  0  0  0
   22.1544   -4.1197  -14.4400 C   0  0  0  0  0  0  0  0  0  0  0  0
   23.0763   -4.6521  -13.5587 O   0  0  0  0  0  0  0  0  0  0  0  0
   22.1213   -2.8892  -14.6115 O   0  0  0  0  0  0  0  0  0  0  0  0
  2  3  1  6
  2  1  1  0
  4  2  1  0
  4  5  1  1
  6  8  1  0
  6  4  1  0
  7  6  2  0
  9  8  1  0
  9 12  1  0
  9 10  1  6
 11 10  1  0
 12 14  1  0
 13 12  2  0
 14 15  1  0
 15 16  1  1
 15 22  1  0
 17 16  1  0
 18 17  2  0
 19 20  1  0
 19 18  1  0
 20 21  2  0
 21 17  1  0
 22 24  2  0
 22 23  1  0
M  END
$$$$
