VCH.pdb
     RDKit          3D

 24 24  0  0  1  0  0  0  0  0999 V2000
   15.8845  -24.1707  -11.0608 C   0  0  0  0  0  0  0  0  0  0  0  0
   17.1496  -23.3733  -10.8480 C   0  0  2  0  0  0  0  0  0  0  0  0
   17.5614  -22.5808  -12.0430 C   0  0  0  0  0  0  0  0  0  0  0  0
   18.2215  -24.3496  -10.3877 C   0  0  2  0  0  0  0  0  0  0  0  0
   18.4885  -25.2188  -11.4896 N   0  0  0  0  0  0  0  0  0  0  0  0
   17.8380  -25.0608   -9.1539 C   0  0  0  0  0  0  0  0  0  0  0  0
   17.1124  -26.0723   -9.2387 O   0  0  0  0  0  0  0  0  0  0  0  0
   18.2631  -24.6384   -7.8718 N   0  0  0  0  0  0  0  0  0  0  0  0
   17.9029  -25.3929   -6.6964 C   0  0  1  0  0  0  0  0  0  0  0  0
   19.1839  -25.5395   -5.8725 C   0  0  0  0  0  0  0  0  0  0  0  0
   18.7980  -26.3103   -4.2789 S   0  0  0  0  0  0  0  0  0  0  0  0
   16.9491  -24.6353   -5.8879 C   0  0  0  0  0  0  0  0  0  0  0  0
   17.1746  -23.4096   -5.6667 O   0  0  0  0  0  0  0  0  0  0  0  0
   15.8082  -25.3005   -5.3821 N   0  0  0  0  0  0  0  0  0  0  0  0
   14.8861  -24.5867   -4.5406 C   0  0  1  0  0  0  0  0  0  0  0  0
   13.4919  -25.0317   -4.9606 C   0  0  0  0  0  0  0  0  0  0  0  0
   13.1681  -24.3714   -6.2592 C   0  0  0  0  0  0  0  0  0  0  0  0
   12.9253  -23.0326   -6.4433 C   0  0  0  0  0  0  0  0  0  0  0  0
   12.6755  -22.8393   -7.7410 N   0  0  0  0  0  0  0  0  0  0  0  0
   12.7583  -24.0293   -8.3644 C   0  0  0  0  0  0  0  0  0  0  0  0
   13.0598  -24.9672   -7.4581 N   0  0  0  0  0  0  0  0  0  0  0  0
   15.1619  -24.9217   -3.1344 C   0  0  0  0  0  0  0  0  0  0  0  0
   14.7589  -24.0861   -2.1100 O   0  0  0  0  0  0  0  0  0  0  0  0
   15.7667  -25.9714   -2.8570 O   0  0  0  0  0  0  0  0  0  0  0  0
  2  3  1  6
  2  1  1  0
  4  2  1  0
  4  5  1  6
  6  8  1  0
  6  4  1  0
  7  6  2  0
  9  8  1  0
  9 12  1  0
  9 10  1  1
 11 10  1  0
 12 14  1  0
 13 12  2  0
 14 15  1  0
 15 16  1  6
 15 22  1  0
 17 16  1  0
 18 17  2  0
 19 20  1  0
 19 18  1  0
 20 21  2  0
 21 17  1  0
 22 24  2  0
 22 23  1  0
M  END
$$$$
