DIS.pdb
     RDKit          3D

 23 22  0  0  1  0  0  0  0  0999 V2000
   18.2752  -12.1812  -17.7383 N   0  0  0  0  0  0  0  0  0  0  0  0
   19.0367  -11.0251  -18.0967 C   0  0  1  0  0  0  0  0  0  0  0  0
   18.1043   -9.9736  -18.6523 C   0  0  0  0  0  0  0  0  0  0  0  0
   17.4038  -10.3373  -19.8718 C   0  0  0  0  0  0  0  0  0  0  0  0
   16.1759  -10.1592  -20.0096 O   0  0  0  0  0  0  0  0  0  0  0  0
   19.7286  -10.4030  -16.9424 C   0  0  0  0  0  0  0  0  0  0  0  0
   19.1526  -10.3809  -15.8011 O   0  0  0  0  0  0  0  0  0  0  0  0
   18.1287  -10.8990  -20.9104 O   0  0  0  0  0  0  0  0  0  0  0  0
   24.2776  -11.9988  -15.0474 C   0  0  0  0  0  0  0  0  0  0  0  0
   22.9252  -11.3907  -15.3116 C   0  0  0  0  0  0  0  0  0  0  0  0
   22.9552   -9.9292  -15.5261 C   0  0  2  0  0  0  0  0  0  0  0  0
   23.5609   -9.2959  -14.2603 C   0  0  0  0  0  0  0  0  0  0  0  0
   21.6819   -9.2463  -15.8566 C   0  0  2  0  0  0  0  0  0  0  0  0
   21.0122   -9.8185  -17.0161 N   0  0  0  0  0  0  0  0  0  0  0  0
   21.8329   -7.7770  -15.9523 C   0  0  0  0  0  0  0  0  0  0  0  0
   22.5727   -7.2209  -16.8026 O   0  0  0  0  0  0  0  0  0  0  0  0
   19.0369   -5.2982  -14.1287 O   0  0  0  0  0  0  0  0  0  0  0  0
   19.8320   -4.7989  -15.1833 C   0  0  0  0  0  0  0  0  0  0  0  0
   21.1793   -5.4601  -15.1776 C   0  0  2  0  0  0  0  0  0  0  0  0
   21.1431   -6.8775  -15.0746 N   0  0  0  0  0  0  0  0  0  0  0  0
   21.9065   -4.9357  -13.9681 C   0  0  0  0  0  0  0  0  0  0  0  0
   22.2009   -3.5722  -13.9945 O   0  0  0  0  0  0  0  0  0  0  0  0
   22.2316   -5.6455  -13.0044 O   0  0  0  0  0  0  0  0  0  0  0  0
  2  1  1  1
  3  2  1  0
  3  4  1  0
  4  8  1  0
  5  4  2  0
  6  2  1  0
  6  7  2  0
  9 10  1  0
 10 11  1  0
 11 13  1  0
 11 12  1  1
 13 14  1  6
 13 15  1  0
 14  6  1  0
 15 20  1  0
 15 16  2  0
 18 17  1  0
 19 18  1  1
 20 19  1  0
 21 22  1  0
 21 19  1  0
 23 21  2  0
M  END
$$$$
