DIS.pdb
     RDKit          3D

 23 22  0  0  1  0  0  0  0  0999 V2000
   20.1403  -19.8457  -13.3889 N   0  0  0  0  0  0  0  0  0  0  0  0
   21.0625  -20.8358  -13.8517 C   0  0  1  0  0  0  0  0  0  0  0  0
   20.8242  -21.0815  -15.3237 C   0  0  0  0  0  0  0  0  0  0  0  0
   19.5787  -21.7521  -15.6544 C   0  0  0  0  0  0  0  0  0  0  0  0
   19.2690  -22.8566  -15.1618 O   0  0  0  0  0  0  0  0  0  0  0  0
   22.4791  -20.4181  -13.7213 C   0  0  0  0  0  0  0  0  0  0  0  0
   22.7956  -19.1959  -13.9233 O   0  0  0  0  0  0  0  0  0  0  0  0
   18.7125  -21.1397  -16.5456 O   0  0  0  0  0  0  0  0  0  0  0  0
   25.5324  -20.8502   -9.4781 C   0  0  0  0  0  0  0  0  0  0  0  0
   24.9081  -20.4598  -10.7920 C   0  0  0  0  0  0  0  0  0  0  0  0
   25.5242  -21.1106  -11.9667 C   0  0  2  0  0  0  0  0  0  0  0  0
   27.0053  -20.6916  -11.9945 C   0  0  0  0  0  0  0  0  0  0  0  0
   24.9188  -20.8658  -13.2974 C   0  0  2  0  0  0  0  0  0  0  0  0
   23.5306  -21.2973  -13.3804 N   0  0  0  0  0  0  0  0  0  0  0  0
   25.7474  -21.3930  -14.4046 C   0  0  0  0  0  0  0  0  0  0  0  0
   26.0016  -22.6159  -14.5444 O   0  0  0  0  0  0  0  0  0  0  0  0
   28.0399  -18.8136  -16.7543 O   0  0  0  0  0  0  0  0  0  0  0  0
   27.5143  -19.9160  -17.4629 C   0  0  0  0  0  0  0  0  0  0  0  0
   27.0928  -20.9951  -16.5087 C   0  0  2  0  0  0  0  0  0  0  0  0
   26.3248  -20.5405  -15.4022 N   0  0  0  0  0  0  0  0  0  0  0  0
   28.3588  -21.6010  -15.9640 C   0  0  0  0  0  0  0  0  0  0  0  0
   29.1382  -22.2893  -16.8941 O   0  0  0  0  0  0  0  0  0  0  0  0
   28.7057  -21.5085  -14.7768 O   0  0  0  0  0  0  0  0  0  0  0  0
  2  1  1  6
  3  2  1  0
  3  4  1  0
  4  8  1  0
  5  4  2  0
  6  2  1  0
  6  7  2  0
  9 10  1  0
 10 11  1  0
 11 13  1  0
 11 12  1  6
 13 14  1  1
 13 15  1  0
 14  6  1  0
 15 20  1  0
 15 16  2  0
 18 17  1  0
 19 18  1  6
 20 19  1  0
 21 22  1  0
 21 19  1  0
 23 21  2  0
M  END
$$$$
