DIS.pdb
     RDKit          3D

 23 22  0  0  1  0  0  0  0  0999 V2000
   23.0120  -11.5020  -20.9311 N   0  0  0  0  0  0  0  0  0  0  0  0
   23.5988  -10.2612  -20.5299 C   0  0  1  0  0  0  0  0  0  0  0  0
   22.9267   -9.1334  -21.2783 C   0  0  0  0  0  0  0  0  0  0  0  0
   23.2595   -9.0300  -22.6885 C   0  0  0  0  0  0  0  0  0  0  0  0
   22.9279   -9.9057  -23.5142 O   0  0  0  0  0  0  0  0  0  0  0  0
   23.4187   -9.9717  -19.0870 C   0  0  0  0  0  0  0  0  0  0  0  0
   22.3884  -10.4226  -18.4788 O   0  0  0  0  0  0  0  0  0  0  0  0
   23.9676   -7.9211  -23.1230 O   0  0  0  0  0  0  0  0  0  0  0  0
   26.8273  -11.3523  -15.4333 C   0  0  0  0  0  0  0  0  0  0  0  0
   25.6145  -10.9367  -16.2238 C   0  0  0  0  0  0  0  0  0  0  0  0
   25.2546   -9.5123  -16.0673 C   0  0  2  0  0  0  0  0  0  0  0  0
   24.9403   -9.2833  -14.5777 C   0  0  0  0  0  0  0  0  0  0  0  0
   24.1445   -8.9785  -16.8918 C   0  0  2  0  0  0  0  0  0  0  0  0
   24.3284   -9.2139  -18.3169 N   0  0  0  0  0  0  0  0  0  0  0  0
   23.8354   -7.5646  -16.5822 C   0  0  0  0  0  0  0  0  0  0  0  0
   24.6360   -6.6241  -16.8151 O   0  0  0  0  0  0  0  0  0  0  0  0
   19.9012   -6.4835  -15.6143 O   0  0  0  0  0  0  0  0  0  0  0  0
   20.7708   -5.5226  -16.1748 C   0  0  0  0  0  0  0  0  0  0  0  0
   22.1905   -5.8161  -15.7866 C   0  0  2  0  0  0  0  0  0  0  0  0
   22.5932   -7.1644  -15.9887 N   0  0  0  0  0  0  0  0  0  0  0  0
   22.2983   -5.5265  -14.3131 C   0  0  0  0  0  0  0  0  0  0  0  0
   22.1817   -4.1818  -13.9601 O   0  0  0  0  0  0  0  0  0  0  0  0
   22.4779   -6.4036  -13.4549 O   0  0  0  0  0  0  0  0  0  0  0  0
  2  1  1  6
  3  2  1  0
  3  4  1  0
  4  8  1  0
  5  4  2  0
  6  2  1  0
  6  7  2  0
  9 10  1  0
 10 11  1  0
 11 13  1  0
 11 12  1  1
 13 14  1  6
 13 15  1  0
 14  6  1  0
 15 20  1  0
 15 16  2  0
 18 17  1  0
 19 18  1  1
 20 19  1  0
 21 22  1  0
 21 19  1  0
 23 21  2  0
M  END
$$$$
