DIS.pdb
     RDKit          3D

 23 22  0  0  1  0  0  0  0  0999 V2000
   18.5535  -13.0725  -16.0071 N   0  0  0  0  0  0  0  0  0  0  0  0
   18.6465  -11.7020  -16.4046 C   0  0  1  0  0  0  0  0  0  0  0  0
   17.3228  -11.0218  -16.1420 C   0  0  0  0  0  0  0  0  0  0  0  0
   16.1875  -11.5537  -16.8759 C   0  0  0  0  0  0  0  0  0  0  0  0
   15.0611  -11.6819  -16.3534 O   0  0  0  0  0  0  0  0  0  0  0  0
   19.6658  -10.9424  -15.6415 C   0  0  0  0  0  0  0  0  0  0  0  0
   19.6266  -10.9460  -14.3635 O   0  0  0  0  0  0  0  0  0  0  0  0
   16.3691  -11.9283  -18.1975 O   0  0  0  0  0  0  0  0  0  0  0  0
   24.7707  -11.7179  -15.4765 C   0  0  0  0  0  0  0  0  0  0  0  0
   23.3428  -11.3033  -15.2365 C   0  0  0  0  0  0  0  0  0  0  0  0
   23.0534   -9.9029  -15.6080 C   0  0  2  0  0  0  0  0  0  0  0  0
   23.9919   -9.0085  -14.7778 C   0  0  0  0  0  0  0  0  0  0  0  0
   21.6599   -9.4175  -15.4675 C   0  0  2  0  0  0  0  0  0  0  0  0
   20.7039  -10.1964  -16.2418 N   0  0  0  0  0  0  0  0  0  0  0  0
   21.5378   -7.9621  -15.7076 C   0  0  0  0  0  0  0  0  0  0  0  0
   21.7403   -7.4365  -16.8312 O   0  0  0  0  0  0  0  0  0  0  0  0
   18.7309   -5.7375  -15.2737 O   0  0  0  0  0  0  0  0  0  0  0  0
   19.7242   -5.0635  -14.5302 C   0  0  0  0  0  0  0  0  0  0  0  0
   21.0787   -5.6335  -14.8343 C   0  0  2  0  0  0  0  0  0  0  0  0
   21.1796   -7.0418  -14.6684 N   0  0  0  0  0  0  0  0  0  0  0  0
   22.0381   -4.9928  -13.8671 C   0  0  0  0  0  0  0  0  0  0  0  0
   22.1849   -3.6118  -14.0001 O   0  0  0  0  0  0  0  0  0  0  0  0
   22.6651   -5.6262  -13.0047 O   0  0  0  0  0  0  0  0  0  0  0  0
  2  1  1  1
  3  2  1  0
  3  4  1  0
  4  8  1  0
  5  4  2  0
  6  2  1  0
  6  7  2  0
  9 10  1  0
 10 11  1  0
 11 13  1  0
 11 12  1  1
 13 14  1  6
 13 15  1  0
 14  6  1  0
 15 20  1  0
 15 16  2  0
 18 17  1  0
 19 18  1  1
 20 19  1  0
 21 22  1  0
 21 19  1  0
 23 21  2  0
M  END
$$$$
