DIS.pdb
     RDKit          3D

 23 22  0  0  1  0  0  0  0  0999 V2000
   16.8386  -10.7603  -15.5362 N   0  0  0  0  0  0  0  0  0  0  0  0
   17.7117  -10.0284  -16.4006 C   0  0  1  0  0  0  0  0  0  0  0  0
   16.9014   -9.0170  -17.1779 C   0  0  0  0  0  0  0  0  0  0  0  0
   15.8848   -9.5690  -18.0565 C   0  0  0  0  0  0  0  0  0  0  0  0
   16.0451  -10.6505  -18.6591 O   0  0  0  0  0  0  0  0  0  0  0  0
   18.7472   -9.2609  -15.6679 C   0  0  0  0  0  0  0  0  0  0  0  0
   18.4647   -8.7512  -14.5298 O   0  0  0  0  0  0  0  0  0  0  0  0
   14.7024   -8.8667  -18.2257 O   0  0  0  0  0  0  0  0  0  0  0  0
   23.5870  -11.1933  -14.6146 C   0  0  0  0  0  0  0  0  0  0  0  0
   22.2755  -10.4527  -14.6107 C   0  0  0  0  0  0  0  0  0  0  0  0
   22.3355   -9.1215  -15.2489 C   0  0  2  0  0  0  0  0  0  0  0  0
   23.3665   -8.2878  -14.4666 C   0  0  0  0  0  0  0  0  0  0  0  0
   21.0753   -8.3515  -15.3763 C   0  0  2  0  0  0  0  0  0  0  0  0
   20.0574   -9.0479  -16.1503 N   0  0  0  0  0  0  0  0  0  0  0  0
   21.3006   -6.9660  -15.8457 C   0  0  0  0  0  0  0  0  0  0  0  0
   21.8100   -6.6983  -16.9631 O   0  0  0  0  0  0  0  0  0  0  0  0
   19.1744   -3.8089  -14.2231 O   0  0  0  0  0  0  0  0  0  0  0  0
   19.8320   -3.6727  -15.4652 C   0  0  0  0  0  0  0  0  0  0  0  0
   21.1017   -4.4727  -15.4724 C   0  0  2  0  0  0  0  0  0  0  0  0
   20.9535   -5.8229  -15.0531 N   0  0  0  0  0  0  0  0  0  0  0  0
   22.0368   -3.7972  -14.5051 C   0  0  0  0  0  0  0  0  0  0  0  0
   22.4258   -4.5725  -13.4123 O   0  0  0  0  0  0  0  0  0  0  0  0
   22.4464   -2.6352  -14.6477 O   0  0  0  0  0  0  0  0  0  0  0  0
  2  1  1  1
  3  2  1  0
  3  4  1  0
  4  8  1  0
  5  4  2  0
  6  2  1  0
  6  7  2  0
  9 10  1  0
 10 11  1  0
 11 13  1  0
 11 12  1  1
 13 14  1  6
 13 15  1  0
 14  6  1  0
 15 20  1  0
 15 16  2  0
 18 17  1  0
 19 18  1  1
 20 19  1  0
 21 22  1  0
 21 19  1  0
 23 21  2  0
M  END
$$$$
