DIS.pdb
     RDKit          3D

 23 22  0  0  1  0  0  0  0  0999 V2000
   18.8612  -12.7148  -16.2204 N   0  0  0  0  0  0  0  0  0  0  0  0
   18.5994  -11.3300  -16.4628 C   0  0  1  0  0  0  0  0  0  0  0  0
   17.6433  -10.8176  -15.4106 C   0  0  0  0  0  0  0  0  0  0  0  0
   16.3302  -11.4389  -15.3999 C   0  0  0  0  0  0  0  0  0  0  0  0
   15.7776  -11.8397  -16.4451 O   0  0  0  0  0  0  0  0  0  0  0  0
   19.8133  -10.4836  -16.3728 C   0  0  0  0  0  0  0  0  0  0  0  0
   20.6747  -10.7146  -15.4565 O   0  0  0  0  0  0  0  0  0  0  0  0
   15.6770  -11.5876  -14.1871 O   0  0  0  0  0  0  0  0  0  0  0  0
   22.5606   -9.4544  -20.6202 C   0  0  0  0  0  0  0  0  0  0  0  0
   22.4798   -9.6131  -19.1246 C   0  0  0  0  0  0  0  0  0  0  0  0
   21.9997   -8.4078  -18.4177 C   0  0  2  0  0  0  0  0  0  0  0  0
   23.2174   -7.4907  -18.2030 C   0  0  0  0  0  0  0  0  0  0  0  0
   21.2889   -8.5910  -17.1299 C   0  0  2  0  0  0  0  0  0  0  0  0
   20.0930   -9.4130  -17.2505 N   0  0  0  0  0  0  0  0  0  0  0  0
   21.0330   -7.3098  -16.4345 C   0  0  0  0  0  0  0  0  0  0  0  0
   20.1543   -6.4932  -16.8098 O   0  0  0  0  0  0  0  0  0  0  0  0
   21.5963   -4.6308  -12.3945 O   0  0  0  0  0  0  0  0  0  0  0  0
   21.8183   -5.8619  -13.0494 C   0  0  0  0  0  0  0  0  0  0  0  0
   21.5087   -5.7364  -14.5125 C   0  0  2  0  0  0  0  0  0  0  0  0
   21.7754   -6.9051  -15.2768 N   0  0  0  0  0  0  0  0  0  0  0  0
   22.3902   -4.6370  -15.0422 C   0  0  0  0  0  0  0  0  0  0  0  0
   21.9735   -3.3406  -14.7385 O   0  0  0  0  0  0  0  0  0  0  0  0
   23.4187   -4.8436  -15.7039 O   0  0  0  0  0  0  0  0  0  0  0  0
  2  1  1  1
  3  2  1  0
  3  4  1  0
  4  8  1  0
  5  4  2  0
  6  2  1  0
  6  7  2  0
  9 10  1  0
 10 11  1  0
 11 13  1  0
 11 12  1  1
 13 14  1  6
 13 15  1  0
 14  6  1  0
 15 20  1  0
 15 16  2  0
 18 17  1  0
 19 18  1  1
 20 19  1  0
 21 22  1  0
 21 19  1  0
 23 21  2  0
M  END
$$$$
