DIS.pdb
     RDKit          3D

 23 22  0  0  1  0  0  0  0  0999 V2000
   17.0942  -11.4822  -15.7209 N   0  0  0  0  0  0  0  0  0  0  0  0
   17.8251  -10.5228  -16.4892 C   0  0  1  0  0  0  0  0  0  0  0  0
   16.8507   -9.5762  -17.1514 C   0  0  0  0  0  0  0  0  0  0  0  0
   15.9533  -10.1776  -18.1226 C   0  0  0  0  0  0  0  0  0  0  0  0
   14.8482   -9.6713  -18.4069 O   0  0  0  0  0  0  0  0  0  0  0  0
   18.7289   -9.6842  -15.6657 C   0  0  0  0  0  0  0  0  0  0  0  0
   18.3383   -9.2780  -14.5180 O   0  0  0  0  0  0  0  0  0  0  0  0
   16.3437  -11.3502  -18.7488 O   0  0  0  0  0  0  0  0  0  0  0  0
   23.6419  -11.1468  -14.3865 C   0  0  0  0  0  0  0  0  0  0  0  0
   22.2655  -10.5384  -14.4485 C   0  0  0  0  0  0  0  0  0  0  0  0
   22.2362   -9.1761  -15.0195 C   0  0  2  0  0  0  0  0  0  0  0  0
   23.1170   -8.2876  -14.1225 C   0  0  0  0  0  0  0  0  0  0  0  0
   20.9169   -8.5278  -15.2102 C   0  0  2  0  0  0  0  0  0  0  0  0
   20.0245   -9.2928  -16.0696 N   0  0  0  0  0  0  0  0  0  0  0  0
   21.0339   -7.1119  -15.6252 C   0  0  0  0  0  0  0  0  0  0  0  0
   21.3476   -6.7664  -16.7922 O   0  0  0  0  0  0  0  0  0  0  0  0
   19.6501   -2.5713  -15.2310 O   0  0  0  0  0  0  0  0  0  0  0  0
   19.5186   -3.9311  -14.8741 C   0  0  0  0  0  0  0  0  0  0  0  0
   20.8187   -4.6516  -15.0808 C   0  0  2  0  0  0  0  0  0  0  0  0
   20.7982   -6.0262  -14.7190 N   0  0  0  0  0  0  0  0  0  0  0  0
   21.8306   -3.9661  -14.2018 C   0  0  0  0  0  0  0  0  0  0  0  0
   22.3281   -4.7383  -13.1517 O   0  0  0  0  0  0  0  0  0  0  0  0
   22.2108   -2.7989  -14.3782 O   0  0  0  0  0  0  0  0  0  0  0  0
  2  1  1  1
  3  2  1  0
  3  4  1  0
  4  8  1  0
  5  4  2  0
  6  2  1  0
  6  7  2  0
  9 10  1  0
 10 11  1  0
 11 13  1  0
 11 12  1  1
 13 14  1  6
 13 15  1  0
 14  6  1  0
 15 20  1  0
 15 16  2  0
 18 17  1  0
 19 18  1  1
 20 19  1  0
 21 22  1  0
 21 19  1  0
 23 21  2  0
M  END
$$$$
