DIS.pdb
     RDKit          3D

 23 22  0  0  1  0  0  0  0  0999 V2000
   18.7571  -11.5310  -17.4039 N   0  0  0  0  0  0  0  0  0  0  0  0
   17.9795  -10.7994  -16.4525 C   0  0  1  0  0  0  0  0  0  0  0  0
   17.3753  -11.7671  -15.4614 C   0  0  0  0  0  0  0  0  0  0  0  0
   16.4506  -12.7395  -16.0178 C   0  0  0  0  0  0  0  0  0  0  0  0
   16.3007  -12.8835  -17.2488 O   0  0  0  0  0  0  0  0  0  0  0  0
   18.7829   -9.8370  -15.6610 C   0  0  0  0  0  0  0  0  0  0  0  0
   18.3082   -9.3691  -14.5698 O   0  0  0  0  0  0  0  0  0  0  0  0
   15.7154  -13.5284  -15.1479 O   0  0  0  0  0  0  0  0  0  0  0  0
   23.7794  -10.6610  -14.0925 C   0  0  0  0  0  0  0  0  0  0  0  0
   22.3498  -10.2162  -14.2569 C   0  0  0  0  0  0  0  0  0  0  0  0
   22.2011   -8.9081  -14.9275 C   0  0  2  0  0  0  0  0  0  0  0  0
   22.9119   -7.8627  -14.0488 C   0  0  0  0  0  0  0  0  0  0  0  0
   20.8313   -8.4368  -15.2417 C   0  0  2  0  0  0  0  0  0  0  0  0
   20.0688   -9.3894  -16.0363 N   0  0  0  0  0  0  0  0  0  0  0  0
   20.8172   -7.0733  -15.8171 C   0  0  0  0  0  0  0  0  0  0  0  0
   21.2711   -6.8096  -16.9591 O   0  0  0  0  0  0  0  0  0  0  0  0
   18.2111   -4.2251  -14.3547 O   0  0  0  0  0  0  0  0  0  0  0  0
   18.8079   -4.0480  -15.6221 C   0  0  0  0  0  0  0  0  0  0  0  0
   20.1912   -4.6300  -15.6321 C   0  0  2  0  0  0  0  0  0  0  0  0
   20.2831   -5.9480  -15.1073 N   0  0  0  0  0  0  0  0  0  0  0  0
   21.0361   -3.7360  -14.7641 C   0  0  0  0  0  0  0  0  0  0  0  0
   21.1441   -2.4142  -15.1971 O   0  0  0  0  0  0  0  0  0  0  0  0
   21.6059   -4.1237  -13.7329 O   0  0  0  0  0  0  0  0  0  0  0  0
  2  1  1  6
  3  2  1  0
  3  4  1  0
  4  8  1  0
  5  4  2  0
  6  2  1  0
  6  7  2  0
  9 10  1  0
 10 11  1  0
 11 13  1  0
 11 12  1  1
 13 14  1  6
 13 15  1  0
 14  6  1  0
 15 20  1  0
 15 16  2  0
 18 17  1  0
 19 18  1  1
 20 19  1  0
 21 22  1  0
 21 19  1  0
 23 21  2  0
M  END
$$$$
