PFF.pdb
     RDKit          3D

 30 32  0  0  1  0  0  0  0  0999 V2000
   23.8609  -11.8520  -18.6027 N   0  0  0  0  0  0  0  0  0  0  0  0
   23.9442  -13.0372  -19.4387 C   0  0  0  0  0  0  0  0  0  0  0  0
   23.1162  -14.0574  -18.6903 C   0  0  0  0  0  0  0  0  0  0  0  0
   22.2629  -13.2443  -17.7101 C   0  0  0  0  0  0  0  0  0  0  0  0
   22.4803  -11.8468  -18.2220 C   0  0  1  0  0  0  0  0  0  0  0  0
   22.1848  -10.8768  -17.1391 C   0  0  0  0  0  0  0  0  0  0  0  0
   21.0358  -10.8298  -16.6301 O   0  0  0  0  0  0  0  0  0  0  0  0
   23.1494   -9.9685  -16.6244 N   0  0  0  0  0  0  0  0  0  0  0  0
   22.8666   -8.9657  -15.6203 C   0  0  1  0  0  0  0  0  0  0  0  0
   24.0534   -8.7350  -14.7063 C   0  0  0  0  0  0  0  0  0  0  0  0
   25.2643   -9.4332  -15.1788 C   0  0  0  0  0  0  0  0  0  0  0  0
   26.0190   -8.8711  -16.1869 C   0  0  0  0  0  0  0  0  0  0  0  0
   27.1605   -9.4853  -16.6639 C   0  0  0  0  0  0  0  0  0  0  0  0
   27.5917  -10.6883  -16.1492 C   0  0  0  0  0  0  0  0  0  0  0  0
   26.8464  -11.2641  -15.1389 C   0  0  0  0  0  0  0  0  0  0  0  0
   25.7004  -10.6365  -14.6679 C   0  0  0  0  0  0  0  0  0  0  0  0
   22.5984   -7.6814  -16.3029 C   0  0  0  0  0  0  0  0  0  0  0  0
   23.3615   -7.3235  -17.2290 O   0  0  0  0  0  0  0  0  0  0  0  0
   21.5208   -6.8221  -15.9706 N   0  0  0  0  0  0  0  0  0  0  0  0
   21.1641   -5.6350  -16.7629 C   0  0  1  0  0  0  0  0  0  0  0  0
   20.6988   -6.0210  -18.1224 C   0  0  0  0  0  0  0  0  0  0  0  0
   19.2370   -5.9016  -18.2306 C   0  0  0  0  0  0  0  0  0  0  0  0
   18.4502   -7.0396  -18.1986 C   0  0  0  0  0  0  0  0  0  0  0  0
   17.0800   -6.9360  -18.2728 C   0  0  0  0  0  0  0  0  0  0  0  0
   16.4414   -5.7183  -18.3803 C   0  0  0  0  0  0  0  0  0  0  0  0
   17.2047   -4.5878  -18.4129 C   0  0  0  0  0  0  0  0  0  0  0  0
   18.5927   -4.6973  -18.3373 C   0  0  0  0  0  0  0  0  0  0  0  0
   20.1154   -4.9026  -16.0389 C   0  0  0  0  0  0  0  0  0  0  0  0
   19.8325   -3.5874  -16.4107 O   0  0  0  0  0  0  0  0  0  0  0  0
   19.4783   -5.4276  -15.1068 O   0  0  0  0  0  0  0  0  0  0  0  0
  1  5  1  0
  2  1  1  0
  2  3  1  0
  3  4  1  0
  5  6  1  1
  5  4  1  0
  6  7  2  0
  8  9  1  0
  8  6  1  0
 10 11  1  0
  9 10  1  1
 11 16  2  0
 12 13  2  0
 12 11  1  0
 13 14  1  0
 14 15  2  0
 16 15  1  0
 17 18  2  0
 17  9  1  0
 19 17  1  0
 20 19  1  0
 20 28  1  0
 20 21  1  6
 22 21  1  0
 23 22  2  0
 24 23  1  0
 25 24  2  0
 25 26  1  0
 26 27  2  0
 27 22  1  0
 28 29  1  0
 30 28  2  0
M  END
$$$$
