PFF.pdb
     RDKit          3D

 30 32  0  0  1  0  0  0  0  0999 V2000
   23.2609  -11.2215  -20.0944 N   0  0  0  0  0  0  0  0  0  0  0  0
   23.8273  -11.7062  -21.3413 C   0  0  0  0  0  0  0  0  0  0  0  0
   22.7520  -12.6180  -21.8879 C   0  0  0  0  0  0  0  0  0  0  0  0
   21.4759  -12.2380  -21.1283 C   0  0  0  0  0  0  0  0  0  0  0  0
   21.9017  -10.9589  -20.4615 C   0  0  1  0  0  0  0  0  0  0  0  0
   21.0279  -10.7023  -19.2904 C   0  0  0  0  0  0  0  0  0  0  0  0
   19.8135  -10.4218  -19.4585 O   0  0  0  0  0  0  0  0  0  0  0  0
   21.4916  -10.7551  -17.9478 N   0  0  0  0  0  0  0  0  0  0  0  0
   20.6431  -10.5864  -16.7879 C   0  0  1  0  0  0  0  0  0  0  0  0
   20.7876  -11.7382  -15.8134 C   0  0  0  0  0  0  0  0  0  0  0  0
   20.1144  -12.9607  -16.2923 C   0  0  0  0  0  0  0  0  0  0  0  0
   18.7972  -13.1849  -15.9516 C   0  0  0  0  0  0  0  0  0  0  0  0
   18.1229  -14.3137  -16.3748 C   0  0  0  0  0  0  0  0  0  0  0  0
   18.7425  -15.2636  -17.1571 C   0  0  0  0  0  0  0  0  0  0  0  0
   20.0620  -15.0533  -17.5068 C   0  0  0  0  0  0  0  0  0  0  0  0
   20.7290  -13.9142  -17.0749 C   0  0  0  0  0  0  0  0  0  0  0  0
   21.0678   -9.3650  -16.0701 C   0  0  0  0  0  0  0  0  0  0  0  0
   22.2582   -9.2746  -15.6923 O   0  0  0  0  0  0  0  0  0  0  0  0
   20.2025   -8.2799  -15.7805 N   0  0  0  0  0  0  0  0  0  0  0  0
   20.6655   -7.0194  -15.1798 C   0  0  1  0  0  0  0  0  0  0  0  0
   21.3184   -6.1519  -16.1970 C   0  0  0  0  0  0  0  0  0  0  0  0
   21.6206   -4.8249  -15.6393 C   0  0  0  0  0  0  0  0  0  0  0  0
   20.8012   -3.7507  -15.9388 C   0  0  0  0  0  0  0  0  0  0  0  0
   21.0610   -2.5111  -15.4007 C   0  0  0  0  0  0  0  0  0  0  0  0
   22.1278   -2.2873  -14.5559 C   0  0  0  0  0  0  0  0  0  0  0  0
   22.9441   -3.3374  -14.2518 C   0  0  0  0  0  0  0  0  0  0  0  0
   22.6773   -4.5919  -14.7990 C   0  0  0  0  0  0  0  0  0  0  0  0
   19.5032   -6.3447  -14.5846 C   0  0  0  0  0  0  0  0  0  0  0  0
   19.6781   -5.6107  -13.4104 O   0  0  0  0  0  0  0  0  0  0  0  0
   18.3730   -6.4139  -15.1027 O   0  0  0  0  0  0  0  0  0  0  0  0
  1  5  1  0
  2  1  1  0
  2  3  1  0
  3  4  1  0
  5  6  1  1
  5  4  1  0
  6  7  2  0
  8  9  1  0
  8  6  1  0
 10 11  1  0
  9 10  1  1
 11 16  2  0
 12 13  2  0
 12 11  1  0
 13 14  1  0
 14 15  2  0
 16 15  1  0
 17 18  2  0
 17  9  1  0
 19 17  1  0
 20 19  1  0
 20 28  1  0
 20 21  1  6
 22 21  1  0
 23 22  2  0
 24 23  1  0
 25 24  2  0
 25 26  1  0
 26 27  2  0
 27 22  1  0
 28 29  1  0
 30 28  2  0
M  END
$$$$
