PFF.pdb
     RDKit          3D

 30 32  0  0  1  0  0  0  0  0999 V2000
   26.2830  -19.6390  -15.3007 N   0  0  0  0  0  0  0  0  0  0  0  0
   26.0665  -19.4742  -16.7278 C   0  0  0  0  0  0  0  0  0  0  0  0
   27.0899  -20.3970  -17.3502 C   0  0  0  0  0  0  0  0  0  0  0  0
   27.5130  -21.3483  -16.2250 C   0  0  0  0  0  0  0  0  0  0  0  0
   26.4676  -21.0545  -15.1844 C   0  0  1  0  0  0  0  0  0  0  0  0
   26.9751  -21.4617  -13.8512 C   0  0  0  0  0  0  0  0  0  0  0  0
   26.6253  -22.5616  -13.3516 O   0  0  0  0  0  0  0  0  0  0  0  0
   27.8601  -20.6615  -13.0785 N   0  0  0  0  0  0  0  0  0  0  0  0
   28.4714  -21.0910  -11.8393 C   0  0  1  0  0  0  0  0  0  0  0  0
   29.8276  -20.4477  -11.6290 C   0  0  0  0  0  0  0  0  0  0  0  0
   30.5219  -20.9866  -10.4438 C   0  0  0  0  0  0  0  0  0  0  0  0
   31.3179  -22.1047  -10.5767 C   0  0  0  0  0  0  0  0  0  0  0  0
   31.9885  -22.6473   -9.4980 C   0  0  0  0  0  0  0  0  0  0  0  0
   31.8880  -22.0904   -8.2418 C   0  0  0  0  0  0  0  0  0  0  0  0
   31.0944  -20.9699   -8.0925 C   0  0  0  0  0  0  0  0  0  0  0  0
   30.4252  -20.4338   -9.1851 C   0  0  0  0  0  0  0  0  0  0  0  0
   27.6135  -20.6535  -10.7169 C   0  0  0  0  0  0  0  0  0  0  0  0
   26.9318  -19.6120  -10.8537 O   0  0  0  0  0  0  0  0  0  0  0  0
   27.5140  -21.3466   -9.4841 N   0  0  0  0  0  0  0  0  0  0  0  0
   26.4575  -21.0822   -8.4951 C   0  0  1  0  0  0  0  0  0  0  0  0
   26.7709  -21.7311   -7.1934 C   0  0  0  0  0  0  0  0  0  0  0  0
   27.5498  -20.8293   -6.3313 C   0  0  0  0  0  0  0  0  0  0  0  0
   27.2034  -19.4923   -6.2444 C   0  0  0  0  0  0  0  0  0  0  0  0
   27.9100  -18.6465   -5.4204 C   0  0  0  0  0  0  0  0  0  0  0  0
   28.9737  -19.0836   -4.6592 C   0  0  0  0  0  0  0  0  0  0  0  0
   29.3263  -20.3995   -4.7348 C   0  0  0  0  0  0  0  0  0  0  0  0
   28.6076  -21.2532   -5.5709 C   0  0  0  0  0  0  0  0  0  0  0  0
   26.3348  -19.6259   -8.3381 C   0  0  0  0  0  0  0  0  0  0  0  0
   25.1695  -19.1045   -7.7741 O   0  0  0  0  0  0  0  0  0  0  0  0
   27.2430  -18.8527   -8.6956 O   0  0  0  0  0  0  0  0  0  0  0  0
  1  5  1  0
  2  1  1  0
  2  3  1  0
  3  4  1  0
  5  6  1  1
  5  4  1  0
  6  7  2  0
  8  9  1  0
  8  6  1  0
 10 11  1  0
  9 10  1  1
 11 16  2  0
 12 13  2  0
 12 11  1  0
 13 14  1  0
 14 15  2  0
 16 15  1  0
 17 18  2  0
 17  9  1  0
 19 17  1  0
 20 19  1  0
 20 28  1  0
 20 21  1  1
 22 21  1  0
 23 22  2  0
 24 23  1  0
 25 24  2  0
 25 26  1  0
 26 27  2  0
 27 22  1  0
 28 29  1  0
 30 28  2  0
M  END
$$$$
