PFF.pdb
     RDKit          3D

 30 32  0  0  1  0  0  0  0  0999 V2000
   27.9267  -21.2198  -15.0056 N   0  0  0  0  0  0  0  0  0  0  0  0
   28.5448  -21.0565  -16.3101 C   0  0  0  0  0  0  0  0  0  0  0  0
   28.1500  -19.6545  -16.7161 C   0  0  0  0  0  0  0  0  0  0  0  0
   27.7065  -18.9683  -15.4190 C   0  0  0  0  0  0  0  0  0  0  0  0
   28.1845  -19.9536  -14.3881 C   0  0  1  0  0  0  0  0  0  0  0  0
   27.4195  -19.7587  -13.1321 C   0  0  0  0  0  0  0  0  0  0  0  0
   27.4312  -18.6425  -12.5528 O   0  0  0  0  0  0  0  0  0  0  0  0
   26.6498  -20.7868  -12.5229 N   0  0  0  0  0  0  0  0  0  0  0  0
   25.7272  -20.5714  -11.4293 C   0  0  1  0  0  0  0  0  0  0  0  0
   24.4009  -21.2650  -11.6678 C   0  0  0  0  0  0  0  0  0  0  0  0
   23.6032  -20.5971  -12.7141 C   0  0  0  0  0  0  0  0  0  0  0  0
   23.6145  -21.1007  -13.9978 C   0  0  0  0  0  0  0  0  0  0  0  0
   22.8850  -20.5116  -15.0120 C   0  0  0  0  0  0  0  0  0  0  0  0
   22.1144  -19.3933  -14.7800 C   0  0  0  0  0  0  0  0  0  0  0  0
   22.0928  -18.8770  -13.4992 C   0  0  0  0  0  0  0  0  0  0  0  0
   22.8307  -19.4785  -12.4880 C   0  0  0  0  0  0  0  0  0  0  0  0
   26.3049  -21.1660  -10.2045 C   0  0  0  0  0  0  0  0  0  0  0  0
   26.8461  -22.2925  -10.2824 O   0  0  0  0  0  0  0  0  0  0  0  0
   26.2838  -20.5336   -8.9357 N   0  0  0  0  0  0  0  0  0  0  0  0
   26.9576  -21.0854   -7.7501 C   0  0  1  0  0  0  0  0  0  0  0  0
   28.3040  -20.4781   -7.5707 C   0  0  0  0  0  0  0  0  0  0  0  0
   28.5306  -20.1095   -6.1651 C   0  0  0  0  0  0  0  0  0  0  0  0
   28.1244  -18.8689   -5.7058 C   0  0  0  0  0  0  0  0  0  0  0  0
   28.3086  -18.5252   -4.3861 C   0  0  0  0  0  0  0  0  0  0  0  0
   28.8943  -19.3837   -3.4796 C   0  0  0  0  0  0  0  0  0  0  0  0
   29.2996  -20.6104   -3.9185 C   0  0  0  0  0  0  0  0  0  0  0  0
   29.1110  -20.9548   -5.2564 C   0  0  0  0  0  0  0  0  0  0  0  0
   26.1061  -20.8261   -6.5805 C   0  0  0  0  0  0  0  0  0  0  0  0
   25.0995  -19.8644   -6.6795 O   0  0  0  0  0  0  0  0  0  0  0  0
   26.2632  -21.4424   -5.5100 O   0  0  0  0  0  0  0  0  0  0  0  0
  1  5  1  0
  2  1  1  0
  2  3  1  0
  3  4  1  0
  5  6  1  1
  5  4  1  0
  6  7  2  0
  8  9  1  0
  8  6  1  0
 10 11  1  0
  9 10  1  6
 11 16  2  0
 12 13  2  0
 12 11  1  0
 13 14  1  0
 14 15  2  0
 16 15  1  0
 17 18  2  0
 17  9  1  0
 19 17  1  0
 20 19  1  0
 20 28  1  0
 20 21  1  1
 22 21  1  0
 23 22  2  0
 24 23  1  0
 25 24  2  0
 25 26  1  0
 26 27  2  0
 27 22  1  0
 28 29  1  0
 30 28  2  0
M  END
$$$$
