PFF.pdb
     RDKit          3D

 30 32  0  0  1  0  0  0  0  0999 V2000
   28.6602  -23.7115  -18.0804 N   0  0  0  0  0  0  0  0  0  0  0  0
   29.5386  -24.6166  -18.8013 C   0  0  0  0  0  0  0  0  0  0  0  0
   30.9192  -24.2239  -18.3260 C   0  0  0  0  0  0  0  0  0  0  0  0
   30.6904  -23.4219  -17.0397 C   0  0  0  0  0  0  0  0  0  0  0  0
   29.2387  -23.7082  -16.7703 C   0  0  1  0  0  0  0  0  0  0  0  0
   28.6832  -22.6447  -15.8978 C   0  0  0  0  0  0  0  0  0  0  0  0
   29.0696  -22.5405  -14.7055 O   0  0  0  0  0  0  0  0  0  0  0  0
   27.7108  -21.7063  -16.3386 N   0  0  0  0  0  0  0  0  0  0  0  0
   27.2536  -20.5803  -15.5532 C   0  0  1  0  0  0  0  0  0  0  0  0
   26.7211  -19.4634  -16.4286 C   0  0  0  0  0  0  0  0  0  0  0  0
   26.2000  -18.3340  -15.6349 C   0  0  0  0  0  0  0  0  0  0  0  0
   27.0726  -17.3690  -15.1780 C   0  0  0  0  0  0  0  0  0  0  0  0
   26.6342  -16.2928  -14.4315 C   0  0  0  0  0  0  0  0  0  0  0  0
   25.3025  -16.1406  -14.1128 C   0  0  0  0  0  0  0  0  0  0  0  0
   24.4159  -17.0991  -14.5633 C   0  0  0  0  0  0  0  0  0  0  0  0
   24.8692  -18.1766  -15.3131 C   0  0  0  0  0  0  0  0  0  0  0  0
   26.1296  -21.0278  -14.7024 C   0  0  0  0  0  0  0  0  0  0  0  0
   25.2184  -21.7110  -15.2229 O   0  0  0  0  0  0  0  0  0  0  0  0
   26.0188  -20.7283  -13.3210 N   0  0  0  0  0  0  0  0  0  0  0  0
   24.9909  -21.3182  -12.4495 C   0  0  1  0  0  0  0  0  0  0  0  0
   25.6114  -22.1048  -11.3496 C   0  0  0  0  0  0  0  0  0  0  0  0
   26.2820  -21.2200  -10.3850 C   0  0  0  0  0  0  0  0  0  0  0  0
   25.5367  -20.3168   -9.6475 C   0  0  0  0  0  0  0  0  0  0  0  0
   26.1519  -19.5031   -8.7238 C   0  0  0  0  0  0  0  0  0  0  0  0
   27.5113  -19.5497   -8.4956 C   0  0  0  0  0  0  0  0  0  0  0  0
   28.2585  -20.4357   -9.2155 C   0  0  0  0  0  0  0  0  0  0  0  0
   27.6312  -21.2584  -10.1503 C   0  0  0  0  0  0  0  0  0  0  0  0
   24.1679  -20.2254  -11.9120 C   0  0  0  0  0  0  0  0  0  0  0  0
   24.5833  -18.9079  -12.1112 O   0  0  0  0  0  0  0  0  0  0  0  0
   23.1147  -20.4491  -11.2866 O   0  0  0  0  0  0  0  0  0  0  0  0
  1  5  1  0
  2  1  1  0
  2  3  1  0
  3  4  1  0
  5  6  1  1
  5  4  1  0
  6  7  2  0
  8  9  1  0
  8  6  1  0
 10 11  1  0
  9 10  1  6
 11 16  2  0
 12 13  2  0
 12 11  1  0
 13 14  1  0
 14 15  2  0
 16 15  1  0
 17 18  2  0
 17  9  1  0
 19 17  1  0
 20 19  1  0
 20 28  1  0
 20 21  1  1
 22 21  1  0
 23 22  2  0
 24 23  1  0
 25 24  2  0
 25 26  1  0
 26 27  2  0
 27 22  1  0
 28 29  1  0
 30 28  2  0
M  END
$$$$
