PFF.pdb
     RDKit          3D

 30 32  0  0  1  0  0  0  0  0999 V2000
   14.8504  -19.1574    4.2783 N   0  0  0  0  0  0  0  0  0  0  0  0
   13.9483  -19.9958    3.5077 C   0  0  0  0  0  0  0  0  0  0  0  0
   14.4411  -19.8343    2.0874 C   0  0  0  0  0  0  0  0  0  0  0  0
   15.8586  -19.2644    2.2141 C   0  0  0  0  0  0  0  0  0  0  0  0
   16.1194  -19.4520    3.6835 C   0  0  1  0  0  0  0  0  0  0  0  0
   17.1886  -18.5183    4.1146 C   0  0  0  0  0  0  0  0  0  0  0  0
   18.3753  -18.7020    3.7411 O   0  0  0  0  0  0  0  0  0  0  0  0
   16.9483  -17.3933    4.9496 N   0  0  0  0  0  0  0  0  0  0  0  0
   17.9686  -16.4523    5.3584 C   0  0  1  0  0  0  0  0  0  0  0  0
   17.3744  -15.1147    5.7522 C   0  0  0  0  0  0  0  0  0  0  0  0
   18.4124  -14.0976    6.0073 C   0  0  0  0  0  0  0  0  0  0  0  0
   18.9729  -13.4220    4.9439 C   0  0  0  0  0  0  0  0  0  0  0  0
   19.9476  -12.4613    5.1303 C   0  0  0  0  0  0  0  0  0  0  0  0
   20.3998  -12.1390    6.3912 C   0  0  0  0  0  0  0  0  0  0  0  0
   19.8480  -12.8071    7.4668 C   0  0  0  0  0  0  0  0  0  0  0  0
   18.8686  -13.7711    7.2661 C   0  0  0  0  0  0  0  0  0  0  0  0
   18.6461  -16.9878    6.5592 C   0  0  0  0  0  0  0  0  0  0  0  0
   17.9470  -17.4907    7.4682 O   0  0  0  0  0  0  0  0  0  0  0  0
   20.0513  -16.9667    6.7466 N   0  0  0  0  0  0  0  0  0  0  0  0
   20.7145  -17.5418    7.9271 C   0  0  1  0  0  0  0  0  0  0  0  0
   21.7276  -18.5559    7.5287 C   0  0  0  0  0  0  0  0  0  0  0  0
   21.0795  -19.7996    7.0856 C   0  0  0  0  0  0  0  0  0  0  0  0
   20.6550  -20.7250    8.0229 C   0  0  0  0  0  0  0  0  0  0  0  0
   20.0242  -21.8794    7.6190 C   0  0  0  0  0  0  0  0  0  0  0  0
   19.7910  -22.1610    6.2892 C   0  0  0  0  0  0  0  0  0  0  0  0
   20.2041  -21.2573    5.3542 C   0  0  0  0  0  0  0  0  0  0  0  0
   20.8428  -20.0888    5.7676 C   0  0  0  0  0  0  0  0  0  0  0  0
   21.3399  -16.4438    8.6779 C   0  0  0  0  0  0  0  0  0  0  0  0
   21.8344  -16.6985    9.9581 O   0  0  0  0  0  0  0  0  0  0  0  0
   21.4371  -15.2986    8.1989 O   0  0  0  0  0  0  0  0  0  0  0  0
  1  5  1  0
  2  1  1  0
  2  3  1  0
  3  4  1  0
  5  6  1  1
  5  4  1  0
  6  7  2  0
  8  9  1  0
  8  6  1  0
 10 11  1  0
  9 10  1  1
 11 16  2  0
 12 13  2  0
 12 11  1  0
 13 14  1  0
 14 15  2  0
 16 15  1  0
 17 18  2  0
 17  9  1  0
 19 17  1  0
 20 19  1  0
 20 28  1  0
 20 21  1  6
 22 21  1  0
 23 22  2  0
 24 23  1  0
 25 24  2  0
 25 26  1  0
 26 27  2  0
 27 22  1  0
 28 29  1  0
 30 28  2  0
M  END
$$$$
