PFF.pdb
     RDKit          3D

 30 32  0  0  1  0  0  0  0  0999 V2000
   24.9698  -20.1170  -13.6845 N   0  0  0  0  0  0  0  0  0  0  0  0
   24.8616  -19.9808  -15.1268 C   0  0  0  0  0  0  0  0  0  0  0  0
   26.2938  -19.7917  -15.5732 C   0  0  0  0  0  0  0  0  0  0  0  0
   27.1504  -20.2759  -14.3976 C   0  0  0  0  0  0  0  0  0  0  0  0
   26.1179  -20.9618  -13.5458 C   0  0  1  0  0  0  0  0  0  0  0  0
   26.6096  -21.0410  -12.1483 C   0  0  0  0  0  0  0  0  0  0  0  0
   27.4258  -21.9385  -11.8164 O   0  0  0  0  0  0  0  0  0  0  0  0
   26.2034  -20.1378  -11.1288 N   0  0  0  0  0  0  0  0  0  0  0  0
   26.8447  -20.0299   -9.8361 C   0  0  1  0  0  0  0  0  0  0  0  0
   26.9223  -18.5913   -9.3655 C   0  0  0  0  0  0  0  0  0  0  0  0
   27.6169  -18.4659   -8.0697 C   0  0  0  0  0  0  0  0  0  0  0  0
   28.9932  -18.5419   -8.0302 C   0  0  0  0  0  0  0  0  0  0  0  0
   29.6897  -18.4305   -6.8426 C   0  0  0  0  0  0  0  0  0  0  0  0
   29.0340  -18.2384   -5.6462 C   0  0  0  0  0  0  0  0  0  0  0  0
   27.6553  -18.1601   -5.6694 C   0  0  0  0  0  0  0  0  0  0  0  0
   26.9665  -18.2736   -6.8701 C   0  0  0  0  0  0  0  0  0  0  0  0
   26.0254  -20.7593   -8.8441 C   0  0  0  0  0  0  0  0  0  0  0  0
   24.7842  -20.8005   -9.0051 O   0  0  0  0  0  0  0  0  0  0  0  0
   26.5631  -21.4209   -7.7113 N   0  0  0  0  0  0  0  0  0  0  0  0
   25.7438  -22.1997   -6.7699 C   0  0  1  0  0  0  0  0  0  0  0  0
   26.6002  -22.9658   -5.8247 C   0  0  0  0  0  0  0  0  0  0  0  0
   27.4539  -22.0619   -5.0391 C   0  0  0  0  0  0  0  0  0  0  0  0
   28.7804  -21.8886   -5.3934 C   0  0  0  0  0  0  0  0  0  0  0  0
   29.5800  -21.0250   -4.6802 C   0  0  0  0  0  0  0  0  0  0  0  0
   29.1057  -20.3076   -3.6020 C   0  0  0  0  0  0  0  0  0  0  0  0
   27.7997  -20.4686   -3.2415 C   0  0  0  0  0  0  0  0  0  0  0  0
   26.9928  -21.3444   -3.9669 C   0  0  0  0  0  0  0  0  0  0  0  0
   24.8705  -21.2653   -6.0455 C   0  0  0  0  0  0  0  0  0  0  0  0
   23.8864  -21.7801   -5.2002 O   0  0  0  0  0  0  0  0  0  0  0  0
   24.9896  -20.0321   -6.1695 O   0  0  0  0  0  0  0  0  0  0  0  0
  1  5  1  0
  2  1  1  0
  2  3  1  0
  3  4  1  0
  5  6  1  1
  5  4  1  0
  6  7  2  0
  8  9  1  0
  8  6  1  0
 10 11  1  0
  9 10  1  1
 11 16  2  0
 12 13  2  0
 12 11  1  0
 13 14  1  0
 14 15  2  0
 16 15  1  0
 17 18  2  0
 17  9  1  0
 19 17  1  0
 20 19  1  0
 20 28  1  0
 20 21  1  1
 22 21  1  0
 23 22  2  0
 24 23  1  0
 25 24  2  0
 25 26  1  0
 26 27  2  0
 27 22  1  0
 28 29  1  0
 30 28  2  0
M  END
$$$$
