PFF.pdb
     RDKit          3D

 30 32  0  0  1  0  0  0  0  0999 V2000
   27.8539  -20.4318  -16.4829 N   0  0  0  0  0  0  0  0  0  0  0  0
   28.5105  -20.6892  -17.7530 C   0  0  0  0  0  0  0  0  0  0  0  0
   29.3148  -21.9419  -17.4885 C   0  0  0  0  0  0  0  0  0  0  0  0
   28.7085  -22.5505  -16.2188 C   0  0  0  0  0  0  0  0  0  0  0  0
   27.4459  -21.7447  -16.0819 C   0  0  1  0  0  0  0  0  0  0  0  0
   26.9803  -21.7986  -14.6743 C   0  0  0  0  0  0  0  0  0  0  0  0
   26.2687  -22.7581  -14.2812 O   0  0  0  0  0  0  0  0  0  0  0  0
   27.2982  -20.8024  -13.7115 N   0  0  0  0  0  0  0  0  0  0  0  0
   26.9493  -20.8866  -12.3098 C   0  0  1  0  0  0  0  0  0  0  0  0
   27.8951  -20.0767  -11.4455 C   0  0  0  0  0  0  0  0  0  0  0  0
   27.5550  -20.1665  -10.0125 C   0  0  0  0  0  0  0  0  0  0  0  0
   26.6785  -19.2523   -9.4670 C   0  0  0  0  0  0  0  0  0  0  0  0
   26.3285  -19.2940   -8.1315 C   0  0  0  0  0  0  0  0  0  0  0  0
   26.8435  -20.2545   -7.2886 C   0  0  0  0  0  0  0  0  0  0  0  0
   27.7229  -21.1774   -7.8202 C   0  0  0  0  0  0  0  0  0  0  0  0
   28.0669  -21.1248   -9.1647 C   0  0  0  0  0  0  0  0  0  0  0  0
   25.6015  -20.3058  -12.1265 C   0  0  0  0  0  0  0  0  0  0  0  0
   25.3282  -19.2298  -12.7056 O   0  0  0  0  0  0  0  0  0  0  0  0
   24.5902  -20.8974  -11.3281 N   0  0  0  0  0  0  0  0  0  0  0  0
   23.2247  -20.3591  -11.2297 C   0  0  1  0  0  0  0  0  0  0  0  0
   22.3241  -21.0041  -12.2229 C   0  0  0  0  0  0  0  0  0  0  0  0
   20.9626  -20.4555  -12.1312 C   0  0  0  0  0  0  0  0  0  0  0  0
   20.6312  -19.3165  -12.8438 C   0  0  0  0  0  0  0  0  0  0  0  0
   19.3527  -18.8108  -12.7848 C   0  0  0  0  0  0  0  0  0  0  0  0
   18.3637  -19.4039  -12.0284 C   0  0  0  0  0  0  0  0  0  0  0  0
   18.6763  -20.5277  -11.3208 C   0  0  0  0  0  0  0  0  0  0  0  0
   19.9728  -21.0369  -11.3834 C   0  0  0  0  0  0  0  0  0  0  0  0
   22.7428  -20.5878   -9.8600 C   0  0  0  0  0  0  0  0  0  0  0  0
   22.0655  -19.5592   -9.2032 O   0  0  0  0  0  0  0  0  0  0  0  0
   22.9251  -21.6729   -9.2772 O   0  0  0  0  0  0  0  0  0  0  0  0
  1  5  1  0
  2  1  1  0
  2  3  1  0
  3  4  1  0
  5  6  1  1
  5  4  1  0
  6  7  2  0
  8  9  1  0
  8  6  1  0
 10 11  1  0
  9 10  1  1
 11 16  2  0
 12 13  2  0
 12 11  1  0
 13 14  1  0
 14 15  2  0
 16 15  1  0
 17 18  2  0
 17  9  1  0
 19 17  1  0
 20 19  1  0
 20 28  1  0
 20 21  1  6
 22 21  1  0
 23 22  2  0
 24 23  1  0
 25 24  2  0
 25 26  1  0
 26 27  2  0
 27 22  1  0
 28 29  1  0
 30 28  2  0
M  END
$$$$
