MHA.pdb
     RDKit          3D

 24 24  0  0  1  0  0  0  0  0999 V2000
    4.9910  -11.5642   26.2512 C   0  0  0  0  0  0  0  0  0  0  0  0
    6.1322  -12.9027   25.8021 S   0  0  0  0  0  0  0  0  0  0  0  0
    5.4848  -14.4393   26.4986 C   0  0  0  0  0  0  0  0  0  0  0  0
    6.3893  -15.6037   26.2771 C   0  0  0  0  0  0  0  0  0  0  0  0
    6.4954  -16.0561   24.8425 C   0  0  2  0  0  0  0  0  0  0  0  0
    5.5465  -17.1423   24.6882 N   0  0  0  0  0  0  0  0  0  0  0  0
    7.8787  -16.4854   24.5337 C   0  0  0  0  0  0  0  0  0  0  0  0
    8.2376  -17.6612   24.7619 O   0  0  0  0  0  0  0  0  0  0  0  0
    8.8328  -15.5599   23.9668 N   0  0  0  0  0  0  0  0  0  0  0  0
   10.1606  -15.9963   23.6268 C   0  0  1  0  0  0  0  0  0  0  0  0
   10.7459  -15.4006   22.4049 C   0  0  0  0  0  0  0  0  0  0  0  0
    9.9155  -15.3587   21.2119 C   0  0  0  0  0  0  0  0  0  0  0  0
    9.1630  -16.2850   20.5508 C   0  0  0  0  0  0  0  0  0  0  0  0
    8.5575  -15.7195   19.4792 N   0  0  0  0  0  0  0  0  0  0  0  0
    8.9443  -14.4433   19.4905 C   0  0  0  0  0  0  0  0  0  0  0  0
    9.7533  -14.1972   20.5101 N   0  0  0  0  0  0  0  0  0  0  0  0
   11.0249  -15.8430   24.8275 C   0  0  0  0  0  0  0  0  0  0  0  0
   12.2899  -15.9280   24.7417 O   0  0  0  0  0  0  0  0  0  0  0  0
   11.1916  -14.1369   27.9314 C   0  0  0  0  0  0  0  0  0  0  0  0
   11.3869  -15.5183   27.3025 C   0  0  2  0  0  0  0  0  0  0  0  0
   10.5097  -15.5954   26.1304 N   0  0  0  0  0  0  0  0  0  0  0  0
   11.0519  -16.5347   28.3030 C   0  0  0  0  0  0  0  0  0  0  0  0
   10.0664  -17.4892   28.1147 O   0  0  0  0  0  0  0  0  0  0  0  0
   11.6848  -16.5464   29.3850 O   0  0  0  0  0  0  0  0  0  0  0  0
  2  1  1  0
  3  2  1  0
  4  5  1  0
  4  3  1  0
  5  7  1  0
  5  6  1  1
  7  8  2  0
  9  7  1  0
  9 10  1  0
 10 17  1  0
 10 11  1  6
 12 11  1  0
 12 16  1  0
 13 14  1  0
 13 12  2  0
 14 15  1  0
 15 16  2  0
 17 18  2  0
 20 19  1  1
 21 20  1  0
 21 17  1  0
 22 23  1  0
 22 20  1  0
 24 22  2  0
M  END
$$$$
