MHA.pdb
     RDKit          3D

 24 24  0  0  1  0  0  0  0  0999 V2000
    7.1285  -11.5006   20.1111 C   0  0  0  0  0  0  0  0  0  0  0  0
    6.9907  -13.1542   19.3746 S   0  0  0  0  0  0  0  0  0  0  0  0
    8.1024  -14.2565   20.2769 C   0  0  0  0  0  0  0  0  0  0  0  0
    7.8403  -14.2712   21.7447 C   0  0  0  0  0  0  0  0  0  0  0  0
    8.8930  -14.9715   22.5665 C   0  0  2  0  0  0  0  0  0  0  0  0
    9.3719  -16.0757   21.7570 N   0  0  0  0  0  0  0  0  0  0  0  0
    8.3240  -15.4374   23.8520 C   0  0  0  0  0  0  0  0  0  0  0  0
    7.4748  -14.7430   24.4519 O   0  0  0  0  0  0  0  0  0  0  0  0
    8.7369  -16.6946   24.4327 N   0  0  0  0  0  0  0  0  0  0  0  0
    8.1092  -17.1877   25.6294 C   0  0  1  0  0  0  0  0  0  0  0  0
    7.7965  -18.6342   25.6487 C   0  0  0  0  0  0  0  0  0  0  0  0
    6.9084  -19.1450   24.6168 C   0  0  0  0  0  0  0  0  0  0  0  0
    6.0041  -18.5651   23.7756 C   0  0  0  0  0  0  0  0  0  0  0  0
    5.4389  -19.5014   22.9766 N   0  0  0  0  0  0  0  0  0  0  0  0
    6.0034  -20.6554   23.3344 C   0  0  0  0  0  0  0  0  0  0  0  0
    6.8829  -20.4764   24.3087 N   0  0  0  0  0  0  0  0  0  0  0  0
    8.9167  -16.7453   26.7974 C   0  0  0  0  0  0  0  0  0  0  0  0
    8.8674  -17.3680   27.9040 O   0  0  0  0  0  0  0  0  0  0  0  0
   10.1358  -13.6941   28.1795 C   0  0  0  0  0  0  0  0  0  0  0  0
   10.5033  -15.1625   27.9548 C   0  0  2  0  0  0  0  0  0  0  0  0
    9.7839  -15.6179   26.7614 N   0  0  0  0  0  0  0  0  0  0  0  0
   10.1206  -15.9236   29.1467 C   0  0  0  0  0  0  0  0  0  0  0  0
   10.7469  -15.7786   30.3733 O   0  0  0  0  0  0  0  0  0  0  0  0
    9.1808  -16.7484   29.0586 O   0  0  0  0  0  0  0  0  0  0  0  0
  2  1  1  0
  3  2  1  0
  4  5  1  0
  4  3  1  0
  5  7  1  0
  5  6  1  6
  7  8  2  0
  9  7  1  0
  9 10  1  0
 10 17  1  0
 10 11  1  6
 12 11  1  0
 12 16  1  0
 13 14  1  0
 13 12  2  0
 14 15  1  0
 15 16  2  0
 17 18  2  0
 20 19  1  1
 21 20  1  0
 21 17  1  0
 22 23  1  0
 22 20  1  0
 24 22  2  0
M  END
$$$$
