MHA.pdb
     RDKit          3D

 24 24  0  0  1  0  0  0  0  0999 V2000
    8.2360  -11.5117   27.4732 C   0  0  0  0  0  0  0  0  0  0  0  0
    6.4846  -11.9138   27.2152 S   0  0  0  0  0  0  0  0  0  0  0  0
    6.3873  -13.6277   26.6511 C   0  0  0  0  0  0  0  0  0  0  0  0
    6.8094  -13.7965   25.2311 C   0  0  0  0  0  0  0  0  0  0  0  0
    6.7394  -15.2121   24.7161 C   0  0  2  0  0  0  0  0  0  0  0  0
    7.4463  -16.0309   25.6824 N   0  0  0  0  0  0  0  0  0  0  0  0
    7.3449  -15.3052   23.3678 C   0  0  0  0  0  0  0  0  0  0  0  0
    7.0545  -14.4646   22.4890 O   0  0  0  0  0  0  0  0  0  0  0  0
    8.2761  -16.3621   23.0451 N   0  0  0  0  0  0  0  0  0  0  0  0
    9.5974  -16.0513   22.5688 C   0  0  1  0  0  0  0  0  0  0  0  0
    9.7959  -14.6763   22.0585 C   0  0  0  0  0  0  0  0  0  0  0  0
    8.9347  -14.2290   20.9756 C   0  0  0  0  0  0  0  0  0  0  0  0
    8.0125  -14.8484   20.1836 C   0  0  0  0  0  0  0  0  0  0  0  0
    7.4644  -13.9611   19.3193 N   0  0  0  0  0  0  0  0  0  0  0  0
    8.0569  -12.7972   19.5885 C   0  0  0  0  0  0  0  0  0  0  0  0
    8.9374  -12.9238   20.5700 N   0  0  0  0  0  0  0  0  0  0  0  0
   10.5760  -16.4347   23.6212 C   0  0  0  0  0  0  0  0  0  0  0  0
   11.8234  -16.2598   23.4535 O   0  0  0  0  0  0  0  0  0  0  0  0
   10.7098  -16.9125   27.2225 C   0  0  0  0  0  0  0  0  0  0  0  0
   11.1906  -17.4187   25.8608 C   0  0  2  0  0  0  0  0  0  0  0  0
   10.1950  -17.0123   24.8644 N   0  0  0  0  0  0  0  0  0  0  0  0
   11.3300  -18.8754   25.9307 C   0  0  0  0  0  0  0  0  0  0  0  0
   12.4536  -19.5525   25.4870 O   0  0  0  0  0  0  0  0  0  0  0  0
   10.3896  -19.5480   26.4149 O   0  0  0  0  0  0  0  0  0  0  0  0
  2  1  1  0
  3  2  1  0
  4  5  1  0
  4  3  1  0
  5  7  1  0
  5  6  1  1
  7  8  2  0
  9  7  1  0
  9 10  1  0
 10 17  1  0
 10 11  1  1
 12 11  1  0
 12 16  1  0
 13 14  1  0
 13 12  2  0
 14 15  1  0
 15 16  2  0
 17 18  2  0
 20 19  1  1
 21 20  1  0
 21 17  1  0
 22 23  1  0
 22 20  1  0
 24 22  2  0
M  END
$$$$
