MHA.pdb
     RDKit          3D

 24 24  0  0  1  0  0  0  0  0999 V2000
    4.5933  -11.1478   26.1577 C   0  0  0  0  0  0  0  0  0  0  0  0
    5.8833  -12.3726   25.7949 S   0  0  0  0  0  0  0  0  0  0  0  0
    5.3370  -13.9639   26.4542 C   0  0  0  0  0  0  0  0  0  0  0  0
    6.3181  -15.0603   26.2121 C   0  0  0  0  0  0  0  0  0  0  0  0
    6.3503  -15.5766   24.7957 C   0  0  2  0  0  0  0  0  0  0  0  0
    5.3534  -16.6278   24.7240 N   0  0  0  0  0  0  0  0  0  0  0  0
    7.7023  -16.0759   24.4551 C   0  0  0  0  0  0  0  0  0  0  0  0
    8.0125  -17.2632   24.6943 O   0  0  0  0  0  0  0  0  0  0  0  0
    8.6812  -15.2061   23.8440 N   0  0  0  0  0  0  0  0  0  0  0  0
    9.9621  -15.7195   23.4376 C   0  0  1  0  0  0  0  0  0  0  0  0
   10.5561  -15.0998   22.2320 C   0  0  0  0  0  0  0  0  0  0  0  0
    9.6539  -14.7152   21.1584 C   0  0  0  0  0  0  0  0  0  0  0  0
    8.3139  -14.8653   20.9502 C   0  0  0  0  0  0  0  0  0  0  0  0
    7.9559  -14.3011   19.7720 N   0  0  0  0  0  0  0  0  0  0  0  0
    9.0845  -13.8057   19.2628 C   0  0  0  0  0  0  0  0  0  0  0  0
   10.1132  -14.0360   20.0649 N   0  0  0  0  0  0  0  0  0  0  0  0
   10.8690  -15.6996   24.6163 C   0  0  0  0  0  0  0  0  0  0  0  0
   12.0909  -16.0324   24.5108 O   0  0  0  0  0  0  0  0  0  0  0  0
   10.7979  -14.4075   28.1291 C   0  0  0  0  0  0  0  0  0  0  0  0
   11.3517  -15.3618   27.0688 C   0  0  2  0  0  0  0  0  0  0  0  0
   10.4441  -15.3151   25.9185 N   0  0  0  0  0  0  0  0  0  0  0  0
   11.4292  -16.7048   27.6490 C   0  0  0  0  0  0  0  0  0  0  0  0
   10.6728  -17.7724   27.1952 O   0  0  0  0  0  0  0  0  0  0  0  0
   12.2170  -16.9041   28.6034 O   0  0  0  0  0  0  0  0  0  0  0  0
  2  1  1  0
  3  2  1  0
  4  5  1  0
  4  3  1  0
  5  7  1  0
  5  6  1  1
  7  8  2  0
  9  7  1  0
  9 10  1  0
 10 17  1  0
 10 11  1  6
 12 11  1  0
 12 16  1  0
 13 14  1  0
 13 12  2  0
 14 15  1  0
 15 16  2  0
 17 18  2  0
 20 19  1  1
 21 20  1  0
 21 17  1  0
 22 23  1  0
 22 20  1  0
 24 22  2  0
M  END
$$$$
