MHA.pdb
     RDKit          3D

 24 24  0  0  1  0  0  0  0  0999 V2000
    7.2817  -11.3672   20.0657 C   0  0  0  0  0  0  0  0  0  0  0  0
    8.0441  -12.9164   20.6265 S   0  0  0  0  0  0  0  0  0  0  0  0
    6.7372  -14.1556   20.7724 C   0  0  0  0  0  0  0  0  0  0  0  0
    7.1845  -15.3911   21.4772 C   0  0  0  0  0  0  0  0  0  0  0  0
    8.2206  -16.1992   20.7375 C   0  0  2  0  0  0  0  0  0  0  0  0
    7.5002  -16.9678   19.7404 N   0  0  0  0  0  0  0  0  0  0  0  0
    8.9645  -17.0726   21.6740 C   0  0  0  0  0  0  0  0  0  0  0  0
    8.4578  -18.1446   22.0708 O   0  0  0  0  0  0  0  0  0  0  0  0
   10.2809  -16.7047   22.1434 N   0  0  0  0  0  0  0  0  0  0  0  0
   10.9943  -17.5550   23.0584 C   0  0  1  0  0  0  0  0  0  0  0  0
   12.4601  -17.6274   22.8675 C   0  0  0  0  0  0  0  0  0  0  0  0
   12.9522  -18.3206   21.6877 C   0  0  0  0  0  0  0  0  0  0  0  0
   12.4225  -19.2627   20.8551 C   0  0  0  0  0  0  0  0  0  0  0  0
   13.3041  -19.5709   19.8740 N   0  0  0  0  0  0  0  0  0  0  0  0
   14.3741  -18.8116   20.1124 C   0  0  0  0  0  0  0  0  0  0  0  0
   14.1955  -18.0558   21.1855 N   0  0  0  0  0  0  0  0  0  0  0  0
   10.5995  -17.1860   24.4441 C   0  0  0  0  0  0  0  0  0  0  0  0
   10.9884  -16.0965   24.9700 O   0  0  0  0  0  0  0  0  0  0  0  0
    7.9101  -17.9043   26.7942 C   0  0  0  0  0  0  0  0  0  0  0  0
    9.4017  -17.6084   26.6233 C   0  0  2  0  0  0  0  0  0  0  0  0
    9.7759  -18.0076   25.2632 N   0  0  0  0  0  0  0  0  0  0  0  0
   10.1430  -18.3625   27.6372 C   0  0  0  0  0  0  0  0  0  0  0  0
   10.1290  -18.0401   28.9839 O   0  0  0  0  0  0  0  0  0  0  0  0
   10.8256  -19.3494   27.2745 O   0  0  0  0  0  0  0  0  0  0  0  0
  2  1  1  0
  3  2  1  0
  4  5  1  0
  4  3  1  0
  5  7  1  0
  5  6  1  6
  7  8  2  0
  9  7  1  0
  9 10  1  0
 10 17  1  0
 10 11  1  1
 12 11  1  0
 12 16  1  0
 13 14  1  0
 13 12  2  0
 14 15  1  0
 15 16  2  0
 17 18  2  0
 20 19  1  1
 21 20  1  0
 21 17  1  0
 22 23  1  0
 22 20  1  0
 24 22  2  0
M  END
$$$$
