MHA.pdb
     RDKit          3D

 24 24  0  0  1  0  0  0  0  0999 V2000
    7.8702  -13.0499   17.8111 C   0  0  0  0  0  0  0  0  0  0  0  0
    8.2111  -12.5345   19.5181 S   0  0  0  0  0  0  0  0  0  0  0  0
    6.9592  -13.2848   20.5835 C   0  0  0  0  0  0  0  0  0  0  0  0
    7.3958  -14.5869   21.1642 C   0  0  0  0  0  0  0  0  0  0  0  0
    8.7819  -14.5797   21.7580 C   0  0  2  0  0  0  0  0  0  0  0  0
    9.6597  -15.1366   20.7465 N   0  0  0  0  0  0  0  0  0  0  0  0
    8.8148  -15.3690   23.0107 C   0  0  0  0  0  0  0  0  0  0  0  0
    7.8778  -15.2811   23.8338 O   0  0  0  0  0  0  0  0  0  0  0  0
    9.9229  -16.2495   23.3028 N   0  0  0  0  0  0  0  0  0  0  0  0
    9.9778  -16.9659   24.5490 C   0  0  1  0  0  0  0  0  0  0  0  0
   10.6615  -18.2780   24.5130 C   0  0  0  0  0  0  0  0  0  0  0  0
   10.0648  -19.3262   23.7008 C   0  0  0  0  0  0  0  0  0  0  0  0
    8.7833  -19.7428   23.4873 C   0  0  0  0  0  0  0  0  0  0  0  0
    8.7649  -20.7723   22.6073 N   0  0  0  0  0  0  0  0  0  0  0  0
   10.0419  -20.9812   22.2849 C   0  0  0  0  0  0  0  0  0  0  0  0
   10.8405  -20.1361   22.9195 N   0  0  0  0  0  0  0  0  0  0  0  0
   10.5161  -16.0510   25.5909 C   0  0  0  0  0  0  0  0  0  0  0  0
   11.6559  -15.5046   25.4601 O   0  0  0  0  0  0  0  0  0  0  0  0
    9.5118  -13.6479   27.9744 C   0  0  0  0  0  0  0  0  0  0  0  0
   10.4029  -14.8827   27.8234 C   0  0  2  0  0  0  0  0  0  0  0  0
    9.8097  -15.7281   26.7829 N   0  0  0  0  0  0  0  0  0  0  0  0
   10.4653  -15.5701   29.1157 C   0  0  0  0  0  0  0  0  0  0  0  0
   11.0923  -15.0371   30.2294 O   0  0  0  0  0  0  0  0  0  0  0  0
    9.9265  -16.6966   29.2253 O   0  0  0  0  0  0  0  0  0  0  0  0
  2  1  1  0
  3  2  1  0
  4  5  1  0
  4  3  1  0
  5  7  1  0
  5  6  1  6
  7  8  2  0
  9  7  1  0
  9 10  1  0
 10 17  1  0
 10 11  1  6
 12 11  1  0
 12 16  1  0
 13 14  1  0
 13 12  2  0
 14 15  1  0
 15 16  2  0
 17 18  2  0
 20 19  1  1
 21 20  1  0
 21 17  1  0
 22 23  1  0
 22 20  1  0
 24 22  2  0
M  END
$$$$
