MHA.pdb
     RDKit          3D

 24 24  0  0  1  0  0  0  0  0999 V2000
    6.5803  -10.8701   26.6569 C   0  0  0  0  0  0  0  0  0  0  0  0
    7.4698  -12.3742   26.1645 S   0  0  0  0  0  0  0  0  0  0  0  0
    6.2779  -13.4974   25.4009 C   0  0  0  0  0  0  0  0  0  0  0  0
    6.8514  -14.8427   25.1105 C   0  0  0  0  0  0  0  0  0  0  0  0
    8.2020  -14.8213   24.4400 C   0  0  2  0  0  0  0  0  0  0  0  0
    7.9472  -14.6896   23.0182 N   0  0  0  0  0  0  0  0  0  0  0  0
    8.9567  -16.0568   24.7520 C   0  0  0  0  0  0  0  0  0  0  0  0
    8.4241  -16.9655   25.4257 O   0  0  0  0  0  0  0  0  0  0  0  0
   10.3133  -16.2338   24.2865 N   0  0  0  0  0  0  0  0  0  0  0  0
   11.0670  -17.4010   24.6590 C   0  0  1  0  0  0  0  0  0  0  0  0
   12.1392  -17.8065   23.7228 C   0  0  0  0  0  0  0  0  0  0  0  0
   11.7478  -18.1882   22.3753 C   0  0  0  0  0  0  0  0  0  0  0  0
   10.6751  -18.8510   21.8544 C   0  0  0  0  0  0  0  0  0  0  0  0
   10.7834  -18.9330   20.5067 N   0  0  0  0  0  0  0  0  0  0  0  0
   11.9276  -18.3165   20.2083 C   0  0  0  0  0  0  0  0  0  0  0  0
   12.5252  -17.8619   21.2996 N   0  0  0  0  0  0  0  0  0  0  0  0
   11.5433  -17.2236   26.0568 C   0  0  0  0  0  0  0  0  0  0  0  0
   12.0699  -16.1318   26.4379 O   0  0  0  0  0  0  0  0  0  0  0  0
   11.0217  -16.9266   29.0289 C   0  0  0  0  0  0  0  0  0  0  0  0
   11.9024  -18.0213   28.4226 C   0  0  2  0  0  0  0  0  0  0  0  0
   11.4459  -18.2408   27.0468 N   0  0  0  0  0  0  0  0  0  0  0  0
   11.7701  -19.2292   29.2410 C   0  0  0  0  0  0  0  0  0  0  0  0
   12.3007  -19.3446   30.5149 O   0  0  0  0  0  0  0  0  0  0  0  0
   11.1469  -20.2100   28.7710 O   0  0  0  0  0  0  0  0  0  0  0  0
  2  1  1  0
  3  2  1  0
  4  5  1  0
  4  3  1  0
  5  7  1  0
  5  6  1  6
  7  8  2  0
  9  7  1  0
  9 10  1  0
 10 17  1  0
 10 11  1  6
 12 11  1  0
 12 16  1  0
 13 14  1  0
 13 12  2  0
 14 15  1  0
 15 16  2  0
 17 18  2  0
 20 19  1  1
 21 20  1  0
 21 17  1  0
 22 23  1  0
 22 20  1  0
 24 22  2  0
M  END
$$$$
