MHA.pdb
     RDKit          3D

 24 24  0  0  1  0  0  0  0  0999 V2000
    7.9354  -11.9630   18.8745 C   0  0  0  0  0  0  0  0  0  0  0  0
    7.2520  -12.7962   20.3355 S   0  0  0  0  0  0  0  0  0  0  0  0
    7.2584  -14.5741   20.0125 C   0  0  0  0  0  0  0  0  0  0  0  0
    8.4259  -15.0115   19.1946 C   0  0  0  0  0  0  0  0  0  0  0  0
    8.4722  -16.4899   18.9012 C   0  0  2  0  0  0  0  0  0  0  0  0
    7.1045  -16.9646   18.9909 N   0  0  0  0  0  0  0  0  0  0  0  0
    9.3598  -17.1831   19.8629 C   0  0  0  0  0  0  0  0  0  0  0  0
    8.8738  -17.7868   20.8441 O   0  0  0  0  0  0  0  0  0  0  0  0
   10.7940  -17.1749   19.6863 N   0  0  0  0  0  0  0  0  0  0  0  0
   11.6446  -17.9124   20.5819 C   0  0  1  0  0  0  0  0  0  0  0  0
   12.9963  -18.2357   20.0732 C   0  0  0  0  0  0  0  0  0  0  0  0
   13.8494  -19.0658   20.9083 C   0  0  0  0  0  0  0  0  0  0  0  0
   13.6853  -19.6720   22.1195 C   0  0  0  0  0  0  0  0  0  0  0  0
   14.8035  -20.3583   22.4562 N   0  0  0  0  0  0  0  0  0  0  0  0
   15.6503  -20.1679   21.4438 C   0  0  0  0  0  0  0  0  0  0  0  0
   15.1115  -19.4026   20.5063 N   0  0  0  0  0  0  0  0  0  0  0  0
   11.6622  -17.2112   21.8934 C   0  0  0  0  0  0  0  0  0  0  0  0
   11.7042  -15.9429   21.9599 O   0  0  0  0  0  0  0  0  0  0  0  0
   10.0284  -16.7939   24.5719 C   0  0  0  0  0  0  0  0  0  0  0  0
   11.5023  -17.1725   24.4104 C   0  0  2  0  0  0  0  0  0  0  0  0
   11.6341  -17.8943   23.1412 N   0  0  0  0  0  0  0  0  0  0  0  0
   11.8960  -18.0007   25.5529 C   0  0  0  0  0  0  0  0  0  0  0  0
   12.2897  -19.3229   25.4321 O   0  0  0  0  0  0  0  0  0  0  0  0
   11.8779  -17.4936   26.6991 O   0  0  0  0  0  0  0  0  0  0  0  0
  2  1  1  0
  3  2  1  0
  4  5  1  0
  4  3  1  0
  5  7  1  0
  5  6  1  1
  7  8  2  0
  9  7  1  0
  9 10  1  0
 10 17  1  0
 10 11  1  6
 12 11  1  0
 12 16  1  0
 13 14  1  0
 13 12  2  0
 14 15  1  0
 15 16  2  0
 17 18  2  0
 20 19  1  1
 21 20  1  0
 21 17  1  0
 22 23  1  0
 22 20  1  0
 24 22  2  0
M  END
$$$$
