MHA.pdb
     RDKit          3D

 24 24  0  0  1  0  0  0  0  0999 V2000
    8.5866  -11.5471   20.0079 C   0  0  0  0  0  0  0  0  0  0  0  0
    8.0944  -12.3722   18.4675 S   0  0  0  0  0  0  0  0  0  0  0  0
    8.1257  -14.1551   18.7600 C   0  0  0  0  0  0  0  0  0  0  0  0
    7.5038  -14.5414   20.0589 C   0  0  0  0  0  0  0  0  0  0  0  0
    7.5386  -16.0185   20.3604 C   0  0  2  0  0  0  0  0  0  0  0  0
    6.6256  -16.6456   19.4238 N   0  0  0  0  0  0  0  0  0  0  0  0
    7.1455  -16.2717   21.7656 C   0  0  0  0  0  0  0  0  0  0  0  0
    5.9388  -16.3972   22.0679 O   0  0  0  0  0  0  0  0  0  0  0  0
    8.1426  -16.3777   22.8063 N   0  0  0  0  0  0  0  0  0  0  0  0
    7.7585  -16.6908   24.1568 C   0  0  1  0  0  0  0  0  0  0  0  0
    8.0486  -18.0695   24.6102 C   0  0  0  0  0  0  0  0  0  0  0  0
    7.8577  -18.3689   26.0203 C   0  0  0  0  0  0  0  0  0  0  0  0
    7.4173  -17.6447   27.0893 C   0  0  0  0  0  0  0  0  0  0  0  0
    7.4121  -18.4117   28.2057 N   0  0  0  0  0  0  0  0  0  0  0  0
    7.8512  -19.6077   27.8119 C   0  0  0  0  0  0  0  0  0  0  0  0
    8.1249  -19.6143   26.5158 N   0  0  0  0  0  0  0  0  0  0  0  0
    8.3176  -15.6463   25.0560 C   0  0  0  0  0  0  0  0  0  0  0  0
    9.5658  -15.4107   25.0929 O   0  0  0  0  0  0  0  0  0  0  0  0
    6.9794  -12.9753   27.3441 C   0  0  0  0  0  0  0  0  0  0  0  0
    8.1061  -13.8844   26.8485 C   0  0  2  0  0  0  0  0  0  0  0  0
    7.5136  -14.8528   25.9209 N   0  0  0  0  0  0  0  0  0  0  0  0
    8.7157  -14.5411   28.0075 C   0  0  0  0  0  0  0  0  0  0  0  0
    8.6749  -15.9101   28.2127 O   0  0  0  0  0  0  0  0  0  0  0  0
    9.3047  -13.8348   28.8593 O   0  0  0  0  0  0  0  0  0  0  0  0
  2  1  1  0
  3  2  1  0
  4  5  1  0
  4  3  1  0
  5  7  1  0
  5  6  1  6
  7  8  2  0
  9  7  1  0
  9 10  1  0
 10 17  1  0
 10 11  1  1
 12 11  1  0
 12 16  1  0
 13 14  1  0
 13 12  2  0
 14 15  1  0
 15 16  2  0
 17 18  2  0
 20 19  1  1
 21 20  1  0
 21 17  1  0
 22 23  1  0
 22 20  1  0
 24 22  2  0
M  END
$$$$
