MHA.pdb
     RDKit          3D

 24 24  0  0  1  0  0  0  0  0999 V2000
    7.3139  -11.5419   24.7046 C   0  0  0  0  0  0  0  0  0  0  0  0
    7.9959  -12.3017   23.2035 S   0  0  0  0  0  0  0  0  0  0  0  0
    6.6466  -13.1464   22.3485 C   0  0  0  0  0  0  0  0  0  0  0  0
    7.1063  -13.9184   21.1586 C   0  0  0  0  0  0  0  0  0  0  0  0
    8.4334  -14.6132   21.3316 C   0  0  2  0  0  0  0  0  0  0  0  0
    8.6729  -15.3432   20.1013 N   0  0  0  0  0  0  0  0  0  0  0  0
    8.3998  -15.5125   22.5078 C   0  0  0  0  0  0  0  0  0  0  0  0
    7.3319  -16.0701   22.8423 O   0  0  0  0  0  0  0  0  0  0  0  0
    9.5925  -15.7606   23.2851 N   0  0  0  0  0  0  0  0  0  0  0  0
    9.5248  -16.5207   24.5045 C   0  0  1  0  0  0  0  0  0  0  0  0
    9.9597  -17.9325   24.4134 C   0  0  0  0  0  0  0  0  0  0  0  0
   10.6214  -18.3557   23.1897 C   0  0  0  0  0  0  0  0  0  0  0  0
   10.9951  -17.7126   22.0459 C   0  0  0  0  0  0  0  0  0  0  0  0
   11.6067  -18.5761   21.2004 N   0  0  0  0  0  0  0  0  0  0  0  0
   11.6043  -19.7492   21.8345 C   0  0  0  0  0  0  0  0  0  0  0  0
   11.0248  -19.6507   23.0216 N   0  0  0  0  0  0  0  0  0  0  0  0
   10.2260  -15.7572   25.5710 C   0  0  0  0  0  0  0  0  0  0  0  0
   11.3287  -15.1689   25.3411 O   0  0  0  0  0  0  0  0  0  0  0  0
    9.8064  -13.7478   28.4053 C   0  0  0  0  0  0  0  0  0  0  0  0
   10.5222  -15.0274   27.9672 C   0  0  2  0  0  0  0  0  0  0  0  0
    9.7243  -15.6326   26.8966 N   0  0  0  0  0  0  0  0  0  0  0  0
   10.6400  -15.9134   29.1280 C   0  0  0  0  0  0  0  0  0  0  0  0
   11.4651  -15.6447   30.2073 O   0  0  0  0  0  0  0  0  0  0  0  0
    9.9632  -16.9682   29.1517 O   0  0  0  0  0  0  0  0  0  0  0  0
  2  1  1  0
  3  2  1  0
  4  5  1  0
  4  3  1  0
  5  7  1  0
  5  6  1  6
  7  8  2  0
  9  7  1  0
  9 10  1  0
 10 17  1  0
 10 11  1  6
 12 11  1  0
 12 16  1  0
 13 14  1  0
 13 12  2  0
 14 15  1  0
 15 16  2  0
 17 18  2  0
 20 19  1  1
 21 20  1  0
 21 17  1  0
 22 23  1  0
 22 20  1  0
 24 22  2  0
M  END
$$$$
