MHA.pdb
     RDKit          3D

 24 24  0  0  1  0  0  0  0  0999 V2000
    7.7621  -11.9396   27.1719 C   0  0  0  0  0  0  0  0  0  0  0  0
    6.1672  -11.9430   26.3048 S   0  0  0  0  0  0  0  0  0  0  0  0
    6.3002  -13.0784   24.9054 C   0  0  0  0  0  0  0  0  0  0  0  0
    7.2406  -14.2070   25.1606 C   0  0  0  0  0  0  0  0  0  0  0  0
    7.4915  -15.1002   23.9719 C   0  0  2  0  0  0  0  0  0  0  0  0
    6.2034  -15.6549   23.6019 N   0  0  0  0  0  0  0  0  0  0  0  0
    8.4690  -16.1587   24.3142 C   0  0  0  0  0  0  0  0  0  0  0  0
    8.1182  -17.1373   25.0089 O   0  0  0  0  0  0  0  0  0  0  0  0
    9.8369  -16.0809   23.8547 N   0  0  0  0  0  0  0  0  0  0  0  0
   10.7719  -17.1297   24.1629 C   0  0  1  0  0  0  0  0  0  0  0  0
   11.9601  -17.2176   23.2850 C   0  0  0  0  0  0  0  0  0  0  0  0
   11.7353  -17.4701   21.8707 C   0  0  0  0  0  0  0  0  0  0  0  0
   10.7955  -18.1712   21.1732 C   0  0  0  0  0  0  0  0  0  0  0  0
   11.0309  -18.0763   19.8427 N   0  0  0  0  0  0  0  0  0  0  0  0
   12.1191  -17.3134   19.7323 C   0  0  0  0  0  0  0  0  0  0  0  0
   12.5623  -16.9364   20.9223 N   0  0  0  0  0  0  0  0  0  0  0  0
   11.1138  -17.0416   25.6078 C   0  0  0  0  0  0  0  0  0  0  0  0
   11.5714  -15.9679   26.1103 O   0  0  0  0  0  0  0  0  0  0  0  0
   10.2252  -17.6085   28.7549 C   0  0  0  0  0  0  0  0  0  0  0  0
   11.4175  -18.0462   27.9013 C   0  0  2  0  0  0  0  0  0  0  0  0
   10.9567  -18.1287   26.5121 N   0  0  0  0  0  0  0  0  0  0  0  0
   11.8921  -19.3406   28.3969 C   0  0  0  0  0  0  0  0  0  0  0  0
   12.5105  -19.5026   29.6254 O   0  0  0  0  0  0  0  0  0  0  0  0
   11.7336  -20.3555   27.6785 O   0  0  0  0  0  0  0  0  0  0  0  0
  2  1  1  0
  3  2  1  0
  4  5  1  0
  4  3  1  0
  5  7  1  0
  5  6  1  1
  7  8  2  0
  9  7  1  0
  9 10  1  0
 10 17  1  0
 10 11  1  6
 12 11  1  0
 12 16  1  0
 13 14  1  0
 13 12  2  0
 14 15  1  0
 15 16  2  0
 17 18  2  0
 20 19  1  1
 21 20  1  0
 21 17  1  0
 22 23  1  0
 22 20  1  0
 24 22  2  0
M  END
$$$$
