MHA.pdb
     RDKit          3D

 24 24  0  0  1  0  0  0  0  0999 V2000
    6.1853  -11.6669   25.8696 C   0  0  0  0  0  0  0  0  0  0  0  0
    7.4682  -12.8306   25.3260 S   0  0  0  0  0  0  0  0  0  0  0  0
    7.1280  -14.4293   26.0965 C   0  0  0  0  0  0  0  0  0  0  0  0
    6.2445  -15.2976   25.2666 C   0  0  0  0  0  0  0  0  0  0  0  0
    6.8406  -15.7294   23.9505 C   0  0  2  0  0  0  0  0  0  0  0  0
    5.8403  -16.5571   23.3039 N   0  0  0  0  0  0  0  0  0  0  0  0
    8.1066  -16.4660   24.1700 C   0  0  0  0  0  0  0  0  0  0  0  0
    8.0919  -17.5944   24.7082 O   0  0  0  0  0  0  0  0  0  0  0  0
    9.3734  -15.8982   23.7688 N   0  0  0  0  0  0  0  0  0  0  0  0
   10.5896  -16.6537   23.9083 C   0  0  1  0  0  0  0  0  0  0  0  0
   11.6664  -16.3326   22.9451 C   0  0  0  0  0  0  0  0  0  0  0  0
   11.4265  -16.6317   21.5424 C   0  0  0  0  0  0  0  0  0  0  0  0
   10.3217  -16.9939   20.8285 C   0  0  0  0  0  0  0  0  0  0  0  0
   10.6362  -17.1397   19.5191 N   0  0  0  0  0  0  0  0  0  0  0  0
   11.9384  -16.8642   19.4380 C   0  0  0  0  0  0  0  0  0  0  0  0
   12.4379  -16.5579   20.6261 N   0  0  0  0  0  0  0  0  0  0  0  0
   11.0279  -16.5762   25.3274 C   0  0  0  0  0  0  0  0  0  0  0  0
   11.5315  -15.5104   25.8023 O   0  0  0  0  0  0  0  0  0  0  0  0
   10.3041  -17.3615   28.5530 C   0  0  0  0  0  0  0  0  0  0  0  0
   11.4717  -17.5949   27.5918 C   0  0  2  0  0  0  0  0  0  0  0  0
   10.9177  -17.6652   26.2363 N   0  0  0  0  0  0  0  0  0  0  0  0
   12.1437  -18.8399   27.9723 C   0  0  0  0  0  0  0  0  0  0  0  0
   12.8304  -18.9980   29.1645 O   0  0  0  0  0  0  0  0  0  0  0  0
   12.0985  -19.8138   27.1845 O   0  0  0  0  0  0  0  0  0  0  0  0
  2  1  1  0
  3  2  1  0
  4  5  1  0
  4  3  1  0
  5  7  1  0
  5  6  1  1
  7  8  2  0
  9  7  1  0
  9 10  1  0
 10 17  1  0
 10 11  1  6
 12 11  1  0
 12 16  1  0
 13 14  1  0
 13 12  2  0
 14 15  1  0
 15 16  2  0
 17 18  2  0
 20 19  1  1
 21 20  1  0
 21 17  1  0
 22 23  1  0
 22 20  1  0
 24 22  2  0
M  END
$$$$
