CER.pdb
     RDKit          3D

 27 26  0  0  1  0  0  0  0  0999 V2000
    9.6677  -13.9119   17.4692 N   0  0  0  0  0  0  0  0  0  0  0  0
    9.0708  -13.3738   18.6908 C   0  0  1  0  0  0  0  0  0  0  0  0
    7.7153  -12.7983   18.2776 C   0  0  0  0  0  0  0  0  0  0  0  0
    6.9633  -12.0602   19.7635 S   0  0  0  0  0  0  0  0  0  0  0  0
    8.8357  -14.5313   19.5866 C   0  0  0  0  0  0  0  0  0  0  0  0
    8.3252  -14.2970   20.7097 O   0  0  0  0  0  0  0  0  0  0  0  0
    9.1445  -15.8718   19.2657 N   0  0  0  0  0  0  0  0  0  0  0  0
    8.8862  -16.9132   20.1967 C   0  0  1  0  0  0  0  0  0  0  0  0
    8.9001  -18.2948   19.5837 C   0  0  0  0  0  0  0  0  0  0  0  0
   10.2074  -18.5571   18.8587 C   0  0  0  0  0  0  0  0  0  0  0  0
   10.2243  -19.9077   18.2438 C   0  0  0  0  0  0  0  0  0  0  0  0
   10.0977  -20.0142   16.9984 O   0  0  0  0  0  0  0  0  0  0  0  0
    9.9728  -16.8602   21.2376 C   0  0  0  0  0  0  0  0  0  0  0  0
   11.1706  -16.7369   20.8657 O   0  0  0  0  0  0  0  0  0  0  0  0
   10.3746  -21.0525   18.9966 O   0  0  0  0  0  0  0  0  0  0  0  0
   10.0080  -16.5519   30.4656 N   0  0  0  0  0  0  0  0  0  0  0  0
   10.9763  -15.7158   29.8350 C   0  0  0  0  0  0  0  0  0  0  0  0
   11.5161  -14.7638   30.5125 N   0  0  0  0  0  0  0  0  0  0  0  0
   11.3663  -15.8967   28.4861 N   0  0  0  0  0  0  0  0  0  0  0  0
   10.3764  -16.1525   27.4305 C   0  0  0  0  0  0  0  0  0  0  0  0
   11.0636  -16.3288   26.0937 C   0  0  0  0  0  0  0  0  0  0  0  0
   10.0343  -16.5641   25.0108 C   0  0  0  0  0  0  0  0  0  0  0  0
   10.6866  -16.7744   23.6618 C   0  0  2  0  0  0  0  0  0  0  0  0
    9.7046  -16.9427   22.6106 N   0  0  0  0  0  0  0  0  0  0  0  0
   11.5237  -17.9825   23.7155 C   0  0  0  0  0  0  0  0  0  0  0  0
   12.7468  -17.8958   23.9240 O   0  0  0  0  0  0  0  0  0  0  0  0
   10.9500  -19.2214   23.5337 O   0  0  0  0  0  0  0  0  0  0  0  0
  2  1  1  6
  2  3  1  0
  3  4  1  0
  5  6  2  0
  5  2  1  0
  7  5  1  0
  8  7  1  0
  8  9  1  6
 10 11  1  0
 10  9  1  0
 11 15  1  0
 12 11  2  0
 13 24  1  0
 13  8  1  0
 14 13  2  0
 17 16  1  0
 18 17  2  0
 19 17  1  0
 20 19  1  0
 21 20  1  0
 22 21  1  0
 23 22  1  1
 23 24  1  0
 25 23  1  0
 25 27  1  0
 26 25  2  0
M  END
$$$$
