CER.pdb
     RDKit          3D

 27 26  0  0  1  0  0  0  0  0999 V2000
    7.8458  -14.3828   17.8574 N   0  0  0  0  0  0  0  0  0  0  0  0
    8.3483  -13.7497   19.0759 C   0  0  1  0  0  0  0  0  0  0  0  0
    7.1117  -13.3172   19.8652 C   0  0  0  0  0  0  0  0  0  0  0  0
    7.6854  -12.7138   21.4853 S   0  0  0  0  0  0  0  0  0  0  0  0
    9.0462  -14.8101   19.8412 C   0  0  0  0  0  0  0  0  0  0  0  0
    8.5975  -15.9792   19.7477 O   0  0  0  0  0  0  0  0  0  0  0  0
   10.1747  -14.5974   20.6638 N   0  0  0  0  0  0  0  0  0  0  0  0
   10.8069  -15.6896   21.3161 C   0  0  1  0  0  0  0  0  0  0  0  0
   12.3139  -15.6778   21.2006 C   0  0  0  0  0  0  0  0  0  0  0  0
   12.7541  -15.9505   19.7739 C   0  0  0  0  0  0  0  0  0  0  0  0
   14.2333  -15.9955   19.6628 C   0  0  0  0  0  0  0  0  0  0  0  0
   14.9245  -16.0336   20.7113 O   0  0  0  0  0  0  0  0  0  0  0  0
   10.4561  -15.5995   22.7775 C   0  0  0  0  0  0  0  0  0  0  0  0
   10.5737  -14.4923   23.3677 O   0  0  0  0  0  0  0  0  0  0  0  0
   14.8758  -15.9969   18.4433 O   0  0  0  0  0  0  0  0  0  0  0  0
    5.5236  -21.9911   24.6904 N   0  0  0  0  0  0  0  0  0  0  0  0
    5.3557  -21.0366   23.6439 C   0  0  0  0  0  0  0  0  0  0  0  0
    4.5383  -21.2982   22.6847 N   0  0  0  0  0  0  0  0  0  0  0  0
    6.0583  -19.8077   23.6228 N   0  0  0  0  0  0  0  0  0  0  0  0
    7.0756  -19.4897   24.6345 C   0  0  0  0  0  0  0  0  0  0  0  0
    7.7459  -18.1716   24.3132 C   0  0  0  0  0  0  0  0  0  0  0  0
    8.8422  -17.8913   25.3167 C   0  0  0  0  0  0  0  0  0  0  0  0
    9.6619  -16.6829   24.9198 C   0  0  2  0  0  0  0  0  0  0  0  0
   10.0015  -16.7031   23.5120 N   0  0  0  0  0  0  0  0  0  0  0  0
   10.9086  -16.6702   25.6999 C   0  0  0  0  0  0  0  0  0  0  0  0
   10.8814  -16.5126   26.9333 O   0  0  0  0  0  0  0  0  0  0  0  0
   12.1177  -16.8341   25.0609 O   0  0  0  0  0  0  0  0  0  0  0  0
  2  1  1  6
  2  3  1  0
  3  4  1  0
  5  6  2  0
  5  2  1  0
  7  5  1  0
  8  7  1  0
  8  9  1  1
 10 11  1  0
 10  9  1  0
 11 15  1  0
 12 11  2  0
 13 24  1  0
 13  8  1  0
 14 13  2  0
 17 16  1  0
 18 17  2  0
 19 17  1  0
 20 19  1  0
 21 20  1  0
 22 21  1  0
 23 22  1  1
 23 24  1  0
 25 23  1  0
 25 27  1  0
 26 25  2  0
M  END
$$$$
