CER.pdb
     RDKit          3D

 27 26  0  0  1  0  0  0  0  0999 V2000
    6.4272  -15.0712   18.6991 N   0  0  0  0  0  0  0  0  0  0  0  0
    7.6626  -14.4770   19.2079 C   0  0  1  0  0  0  0  0  0  0  0  0
    7.2323  -13.3015   20.0866 C   0  0  0  0  0  0  0  0  0  0  0  0
    8.7377  -12.6111   20.8451 S   0  0  0  0  0  0  0  0  0  0  0  0
    8.2949  -15.5020   20.0722 C   0  0  0  0  0  0  0  0  0  0  0  0
    7.5367  -16.1938   20.7957 O   0  0  0  0  0  0  0  0  0  0  0  0
    9.6834  -15.7528   20.1375 N   0  0  0  0  0  0  0  0  0  0  0  0
   10.1936  -16.7620   20.9974 C   0  0  1  0  0  0  0  0  0  0  0  0
   11.0619  -17.7794   20.2934 C   0  0  0  0  0  0  0  0  0  0  0  0
   10.3319  -18.3982   19.1153 C   0  0  0  0  0  0  0  0  0  0  0  0
   11.2225  -19.2940   18.3363 C   0  0  0  0  0  0  0  0  0  0  0  0
   11.1951  -19.2429   17.0812 O   0  0  0  0  0  0  0  0  0  0  0  0
   11.0386  -16.0760   22.0376 C   0  0  0  0  0  0  0  0  0  0  0  0
   11.8311  -15.1644   21.6780 O   0  0  0  0  0  0  0  0  0  0  0  0
   12.0814  -20.1829   18.9463 O   0  0  0  0  0  0  0  0  0  0  0  0
    8.6984  -14.2642   27.8717 N   0  0  0  0  0  0  0  0  0  0  0  0
    9.8244  -14.7879   28.5732 C   0  0  0  0  0  0  0  0  0  0  0  0
   10.4230  -14.0453   29.4374 N   0  0  0  0  0  0  0  0  0  0  0  0
   10.3083  -16.0999   28.3522 N   0  0  0  0  0  0  0  0  0  0  0  0
    9.6386  -17.0161   27.4186 C   0  0  0  0  0  0  0  0  0  0  0  0
   10.3922  -17.0782   26.1078 C   0  0  0  0  0  0  0  0  0  0  0  0
   10.9093  -15.7044   25.7436 C   0  0  0  0  0  0  0  0  0  0  0  0
   11.7003  -15.7334   24.4539 C   0  0  2  0  0  0  0  0  0  0  0  0
   10.9793  -16.4120   23.3969 N   0  0  0  0  0  0  0  0  0  0  0  0
   12.9682  -16.4425   24.6832 C   0  0  0  0  0  0  0  0  0  0  0  0
   13.1349  -17.5963   24.2501 O   0  0  0  0  0  0  0  0  0  0  0  0
   13.9808  -15.8251   25.3835 O   0  0  0  0  0  0  0  0  0  0  0  0
  2  1  1  1
  2  3  1  0
  3  4  1  0
  5  6  2  0
  5  2  1  0
  7  5  1  0
  8  7  1  0
  8  9  1  6
 10 11  1  0
 10  9  1  0
 11 15  1  0
 12 11  2  0
 13 24  1  0
 13  8  1  0
 14 13  2  0
 17 16  1  0
 18 17  2  0
 19 17  1  0
 20 19  1  0
 21 20  1  0
 22 21  1  0
 23 22  1  1
 23 24  1  0
 25 23  1  0
 25 27  1  0
 26 25  2  0
M  END
$$$$
