CER.pdb
     RDKit          3D

 27 26  0  0  1  0  0  0  0  0999 V2000
    8.4561  -14.3575   17.4757 N   0  0  0  0  0  0  0  0  0  0  0  0
    9.3530  -13.5243   18.2754 C   0  0  1  0  0  0  0  0  0  0  0  0
    8.5689  -13.1519   19.5346 C   0  0  0  0  0  0  0  0  0  0  0  0
    7.2671  -11.9792   19.0366 S   0  0  0  0  0  0  0  0  0  0  0  0
   10.4892  -14.3912   18.6694 C   0  0  0  0  0  0  0  0  0  0  0  0
   10.2489  -15.6105   18.8496 O   0  0  0  0  0  0  0  0  0  0  0  0
   11.8157  -13.9428   18.8551 N   0  0  0  0  0  0  0  0  0  0  0  0
   12.8671  -14.8733   19.0714 C   0  0  1  0  0  0  0  0  0  0  0  0
   14.1450  -14.5279   18.3417 C   0  0  0  0  0  0  0  0  0  0  0  0
   13.9518  -14.6010   16.8381 C   0  0  0  0  0  0  0  0  0  0  0  0
   14.9893  -15.4484   16.1993 C   0  0  0  0  0  0  0  0  0  0  0  0
   16.1987  -15.2440   16.4717 O   0  0  0  0  0  0  0  0  0  0  0  0
   13.1650  -14.8740   20.5472 C   0  0  0  0  0  0  0  0  0  0  0  0
   13.5839  -13.8152   21.0872 O   0  0  0  0  0  0  0  0  0  0  0  0
   14.6688  -16.4553   15.3143 O   0  0  0  0  0  0  0  0  0  0  0  0
   11.5813  -20.0591   28.5028 N   0  0  0  0  0  0  0  0  0  0  0  0
   12.7046  -19.9866   27.6269 C   0  0  0  0  0  0  0  0  0  0  0  0
   13.4824  -21.0068   27.5224 N   0  0  0  0  0  0  0  0  0  0  0  0
   12.9951  -18.8288   26.8656 N   0  0  0  0  0  0  0  0  0  0  0  0
   12.6932  -18.7611   25.4291 C   0  0  0  0  0  0  0  0  0  0  0  0
   13.2034  -17.4626   24.8429 C   0  0  0  0  0  0  0  0  0  0  0  0
   12.8130  -17.3653   23.3849 C   0  0  0  0  0  0  0  0  0  0  0  0
   13.3522  -16.1023   22.7494 C   0  0  2  0  0  0  0  0  0  0  0  0
   12.9944  -16.0107   21.3490 N   0  0  0  0  0  0  0  0  0  0  0  0
   14.8190  -16.0984   22.8571 C   0  0  0  0  0  0  0  0  0  0  0  0
   15.5188  -16.6406   21.9835 O   0  0  0  0  0  0  0  0  0  0  0  0
   15.4247  -15.4895   23.9338 O   0  0  0  0  0  0  0  0  0  0  0  0
  2  1  1  6
  2  3  1  0
  3  4  1  0
  5  6  2  0
  5  2  1  0
  7  5  1  0
  8  7  1  0
  8  9  1  6
 10 11  1  0
 10  9  1  0
 11 15  1  0
 12 11  2  0
 13 24  1  0
 13  8  1  0
 14 13  2  0
 17 16  1  0
 18 17  2  0
 19 17  1  0
 20 19  1  0
 21 20  1  0
 22 21  1  0
 23 22  1  6
 23 24  1  0
 25 23  1  0
 25 27  1  0
 26 25  2  0
M  END
$$$$
