CER.pdb
     RDKit          3D

 27 26  0  0  1  0  0  0  0  0999 V2000
    6.7861  -14.6133   19.5939 N   0  0  0  0  0  0  0  0  0  0  0  0
    8.1205  -14.1619   19.9856 C   0  0  1  0  0  0  0  0  0  0  0  0
    7.9072  -12.9070   20.8336 C   0  0  0  0  0  0  0  0  0  0  0  0
    6.9542  -13.4017   22.3050 S   0  0  0  0  0  0  0  0  0  0  0  0
    8.6837  -15.2240   20.8530 C   0  0  0  0  0  0  0  0  0  0  0  0
    7.8939  -16.1059   21.2717 O   0  0  0  0  0  0  0  0  0  0  0  0
   10.0397  -15.3119   21.2386 N   0  0  0  0  0  0  0  0  0  0  0  0
   10.5230  -16.4636   21.9155 C   0  0  1  0  0  0  0  0  0  0  0  0
   12.0149  -16.6665   21.7822 C   0  0  0  0  0  0  0  0  0  0  0  0
   12.4589  -17.9331   22.4909 C   0  0  0  0  0  0  0  0  0  0  0  0
   13.9329  -18.0962   22.4356 C   0  0  0  0  0  0  0  0  0  0  0  0
   14.5916  -18.0707   23.5053 O   0  0  0  0  0  0  0  0  0  0  0  0
   10.2112  -16.2848   23.3776 C   0  0  0  0  0  0  0  0  0  0  0  0
   10.7878  -15.3652   24.0181 O   0  0  0  0  0  0  0  0  0  0  0  0
   14.6053  -18.2753   21.2457 O   0  0  0  0  0  0  0  0  0  0  0  0
    5.2393  -21.6480   25.4883 N   0  0  0  0  0  0  0  0  0  0  0  0
    6.6173  -22.0157   25.4931 C   0  0  0  0  0  0  0  0  0  0  0  0
    6.9768  -23.0845   26.1137 N   0  0  0  0  0  0  0  0  0  0  0  0
    7.6070  -21.2444   24.8372 N   0  0  0  0  0  0  0  0  0  0  0  0
    7.4403  -19.7988   24.6325 C   0  0  0  0  0  0  0  0  0  0  0  0
    7.6748  -19.0516   25.9274 C   0  0  0  0  0  0  0  0  0  0  0  0
    7.5354  -17.5632   25.6975 C   0  0  0  0  0  0  0  0  0  0  0  0
    8.8765  -16.9152   25.4306 C   0  0  2  0  0  0  0  0  0  0  0  0
    9.3009  -17.1041   24.0588 N   0  0  0  0  0  0  0  0  0  0  0  0
    9.8852  -17.5148   26.3174 C   0  0  0  0  0  0  0  0  0  0  0  0
   10.6936  -18.3528   25.8803 O   0  0  0  0  0  0  0  0  0  0  0  0
    9.9365  -17.1462   27.6435 O   0  0  0  0  0  0  0  0  0  0  0  0
  2  1  1  1
  2  3  1  0
  3  4  1  0
  5  6  2  0
  5  2  1  0
  7  5  1  0
  8  7  1  0
  8  9  1  1
 10 11  1  0
 10  9  1  0
 11 15  1  0
 12 11  2  0
 13 24  1  0
 13  8  1  0
 14 13  2  0
 17 16  1  0
 18 17  2  0
 19 17  1  0
 20 19  1  0
 21 20  1  0
 22 21  1  0
 23 22  1  6
 23 24  1  0
 25 23  1  0
 25 27  1  0
 26 25  2  0
M  END
$$$$
