CER.pdb
     RDKit          3D

 27 26  0  0  1  0  0  0  0  0999 V2000
    4.9040  -14.2047   26.6381 N   0  0  0  0  0  0  0  0  0  0  0  0
    5.7849  -13.3515   25.8418 C   0  0  1  0  0  0  0  0  0  0  0  0
    6.7701  -12.7263   26.8306 C   0  0  0  0  0  0  0  0  0  0  0  0
    7.9027  -11.6687   25.8730 S   0  0  0  0  0  0  0  0  0  0  0  0
    6.5368  -14.2544   24.9379 C   0  0  0  0  0  0  0  0  0  0  0  0
    6.8959  -15.3653   25.4002 O   0  0  0  0  0  0  0  0  0  0  0  0
    6.8752  -13.9528   23.6000 N   0  0  0  0  0  0  0  0  0  0  0  0
    7.6089  -14.8824   22.8155 C   0  0  1  0  0  0  0  0  0  0  0  0
    7.5946  -14.5747   21.3356 C   0  0  0  0  0  0  0  0  0  0  0  0
    8.4387  -15.5716   20.5627 C   0  0  0  0  0  0  0  0  0  0  0  0
    8.4163  -15.2861   19.1066 C   0  0  0  0  0  0  0  0  0  0  0  0
    8.3004  -14.0968   18.7183 O   0  0  0  0  0  0  0  0  0  0  0  0
    9.0390  -14.8295   23.2832 C   0  0  0  0  0  0  0  0  0  0  0  0
    9.4947  -13.7454   23.7364 O   0  0  0  0  0  0  0  0  0  0  0  0
    8.5188  -16.2858   18.1632 O   0  0  0  0  0  0  0  0  0  0  0  0
    9.3679  -16.0220   29.0505 N   0  0  0  0  0  0  0  0  0  0  0  0
   10.7825  -16.0705   29.2255 C   0  0  0  0  0  0  0  0  0  0  0  0
   11.3711  -15.0989   29.8307 N   0  0  0  0  0  0  0  0  0  0  0  0
   11.5648  -17.1530   28.7559 N   0  0  0  0  0  0  0  0  0  0  0  0
   11.1746  -17.9198   27.5645 C   0  0  0  0  0  0  0  0  0  0  0  0
   11.6811  -17.2409   26.3104 C   0  0  0  0  0  0  0  0  0  0  0  0
   10.5244  -16.9364   25.3847 C   0  0  0  0  0  0  0  0  0  0  0  0
   10.9838  -16.1943   24.1486 C   0  0  2  0  0  0  0  0  0  0  0  0
    9.8885  -15.9431   23.2349 N   0  0  0  0  0  0  0  0  0  0  0  0
   11.9965  -17.0017   23.4517 C   0  0  0  0  0  0  0  0  0  0  0  0
   13.0855  -17.2574   23.9954 O   0  0  0  0  0  0  0  0  0  0  0  0
   11.7385  -17.4797   22.1860 O   0  0  0  0  0  0  0  0  0  0  0  0
  2  1  1  1
  2  3  1  0
  3  4  1  0
  5  6  2  0
  5  2  1  0
  7  5  1  0
  8  7  1  0
  8  9  1  6
 10 11  1  0
 10  9  1  0
 11 15  1  0
 12 11  2  0
 13 24  1  0
 13  8  1  0
 14 13  2  0
 17 16  1  0
 18 17  2  0
 19 17  1  0
 20 19  1  0
 21 20  1  0
 22 21  1  0
 23 22  1  1
 23 24  1  0
 25 23  1  0
 25 27  1  0
 26 25  2  0
M  END
$$$$
