LIK.pdb
     RDKit          3D

 26 25  0  0  1  0  0  0  0  0999 V2000
    7.4580  -17.6885   19.1124 C   0  0  0  0  0  0  0  0  0  0  0  0
    6.7733  -17.6965   20.4888 C   0  0  1  0  0  0  0  0  0  0  0  0
    6.3476  -19.1408   20.7017 C   0  0  0  0  0  0  0  0  0  0  0  0
    7.8204  -17.2669   21.4650 C   0  0  0  0  0  0  0  0  0  0  0  0
    8.0502  -15.7900   21.5527 C   0  0  2  0  0  0  0  0  0  0  0  0
    8.8223  -15.3232   20.4437 N   0  0  0  0  0  0  0  0  0  0  0  0
    8.5110  -15.3400   22.8712 C   0  0  0  0  0  0  0  0  0  0  0  0
    9.7472  -15.2888   23.0772 O   0  0  0  0  0  0  0  0  0  0  0  0
    5.6753  -11.7422   25.8780 C   0  0  0  0  0  0  0  0  0  0  0  0
    6.7898  -12.5194   25.2425 C   0  0  0  0  0  0  0  0  0  0  0  0
    7.1585  -13.7591   26.0345 C   0  0  2  0  0  0  0  0  0  0  0  0
    7.7009  -13.4477   27.3878 C   0  0  0  0  0  0  0  0  0  0  0  0
    8.1122  -14.6487   25.2675 C   0  0  2  0  0  0  0  0  0  0  0  0
    7.6529  -14.9564   23.9371 N   0  0  0  0  0  0  0  0  0  0  0  0
    8.5133  -15.8577   26.0324 C   0  0  0  0  0  0  0  0  0  0  0  0
    7.7028  -16.7741   26.3460 O   0  0  0  0  0  0  0  0  0  0  0  0
    9.8581  -16.0403   26.4547 N   0  0  0  0  0  0  0  0  0  0  0  0
   10.3635  -17.2351   27.0558 C   0  0  1  0  0  0  0  0  0  0  0  0
   11.6261  -17.6850   26.3239 C   0  0  0  0  0  0  0  0  0  0  0  0
   12.1768  -18.9521   26.8718 C   0  0  0  0  0  0  0  0  0  0  0  0
   13.3927  -19.3847   26.0959 C   0  0  0  0  0  0  0  0  0  0  0  0
   13.9596  -20.6538   26.6310 C   0  0  0  0  0  0  0  0  0  0  0  0
   15.1275  -21.0751   25.8744 N   0  0  0  0  0  0  0  0  0  0  0  0
   10.7688  -16.9259   28.4631 C   0  0  0  0  0  0  0  0  0  0  0  0
   10.7272  -15.6164   28.9565 O   0  0  0  0  0  0  0  0  0  0  0  0
   11.1568  -17.8189   29.2447 O   0  0  0  0  0  0  0  0  0  0  0  0
  2  3  1  1
  2  1  1  0
  4  2  1  0
  5  7  1  0
  5  4  1  0
  5  6  1  6
  7  8  2  0
  9 10  1  0
 11 12  1  1
 11 10  1  0
 13 14  1  6
 13 11  1  0
 14  7  1  0
 15 13  1  0
 16 15  2  0
 17 15  1  0
 18 24  1  0
 18 17  1  0
 18 19  1  6
 20 19  1  0
 21 20  1  0
 22 21  1  0
 23 22  1  0
 24 25  1  0
 26 24  2  0
M  END
$$$$
