LIK.pdb
     RDKit          3D

 26 25  0  0  1  0  0  0  0  0999 V2000
    5.3857  -18.3380   20.1553 C   0  0  0  0  0  0  0  0  0  0  0  0
    6.0073  -16.9535   19.9105 C   0  0  1  0  0  0  0  0  0  0  0  0
    4.8195  -16.0233   19.7200 C   0  0  0  0  0  0  0  0  0  0  0  0
    6.7826  -16.6328   21.1474 C   0  0  0  0  0  0  0  0  0  0  0  0
    7.2917  -15.2279   21.2408 C   0  0  2  0  0  0  0  0  0  0  0  0
    8.0365  -14.8723   20.0735 N   0  0  0  0  0  0  0  0  0  0  0  0
    7.9432  -14.9181   22.5187 C   0  0  0  0  0  0  0  0  0  0  0  0
    9.1844  -15.0788   22.6011 O   0  0  0  0  0  0  0  0  0  0  0  0
    5.7772  -11.2508   25.9012 C   0  0  0  0  0  0  0  0  0  0  0  0
    6.8419  -12.0368   25.1949 C   0  0  0  0  0  0  0  0  0  0  0  0
    7.1428  -13.3549   25.8822 C   0  0  2  0  0  0  0  0  0  0  0  0
    7.8704  -13.1879   27.1726 C   0  0  0  0  0  0  0  0  0  0  0  0
    7.8856  -14.3046   24.9680 C   0  0  2  0  0  0  0  0  0  0  0  0
    7.2654  -14.4471   23.6755 N   0  0  0  0  0  0  0  0  0  0  0  0
    8.1816  -15.6104   25.6120 C   0  0  0  0  0  0  0  0  0  0  0  0
    7.2812  -16.4058   26.0013 O   0  0  0  0  0  0  0  0  0  0  0  0
    9.5226  -16.0317   25.8233 N   0  0  0  0  0  0  0  0  0  0  0  0
    9.8978  -17.3056   26.3530 C   0  0  1  0  0  0  0  0  0  0  0  0
   11.0535  -17.8818   25.5377 C   0  0  0  0  0  0  0  0  0  0  0  0
   11.4654  -19.2283   26.0131 C   0  0  0  0  0  0  0  0  0  0  0  0
   12.6061  -19.7599   25.1861 C   0  0  0  0  0  0  0  0  0  0  0  0
   13.0463  -21.1014   25.6603 C   0  0  0  0  0  0  0  0  0  0  0  0
   14.1696  -21.5982   24.8822 N   0  0  0  0  0  0  0  0  0  0  0  0
   10.4090  -17.1107   27.7461 C   0  0  0  0  0  0  0  0  0  0  0  0
   10.3174  -18.1318   28.6995 O   0  0  0  0  0  0  0  0  0  0  0  0
   10.9329  -16.0366   28.1079 O   0  0  0  0  0  0  0  0  0  0  0  0
  2  3  1  1
  2  1  1  0
  4  2  1  0
  5  7  1  0
  5  4  1  0
  5  6  1  6
  7  8  2  0
  9 10  1  0
 11 12  1  1
 11 10  1  0
 13 14  1  6
 13 11  1  0
 14  7  1  0
 15 13  1  0
 16 15  2  0
 17 15  1  0
 18 24  1  0
 18 17  1  0
 18 19  1  6
 20 19  1  0
 21 20  1  0
 22 21  1  0
 23 22  1  0
 24 25  1  0
 26 24  2  0
M  END
$$$$
