LIK.pdb
     RDKit          3D

 26 25  0  0  1  0  0  0  0  0999 V2000
    8.5055  -21.0095   28.2431 C   0  0  0  0  0  0  0  0  0  0  0  0
    7.1319  -20.5604   27.7188 C   0  0  1  0  0  0  0  0  0  0  0  0
    6.4674  -19.8802   28.9055 C   0  0  0  0  0  0  0  0  0  0  0  0
    7.4156  -19.6037   26.6061 C   0  0  0  0  0  0  0  0  0  0  0  0
    6.2218  -18.8903   26.0516 C   0  0  2  0  0  0  0  0  0  0  0  0
    5.3437  -19.7997   25.3839 N   0  0  0  0  0  0  0  0  0  0  0  0
    6.5549  -17.6746   25.3003 C   0  0  0  0  0  0  0  0  0  0  0  0
    6.4930  -17.7205   24.0483 O   0  0  0  0  0  0  0  0  0  0  0  0
    5.8611  -12.7818   27.3284 C   0  0  0  0  0  0  0  0  0  0  0  0
    6.0209  -13.6663   26.1275 C   0  0  0  0  0  0  0  0  0  0  0  0
    7.4688  -14.0341   25.8658 C   0  0  2  0  0  0  0  0  0  0  0  0
    8.2116  -12.9829   25.1137 C   0  0  0  0  0  0  0  0  0  0  0  0
    7.5882  -15.3735   25.1722 C   0  0  2  0  0  0  0  0  0  0  0  0
    6.9449  -16.4428   25.8921 N   0  0  0  0  0  0  0  0  0  0  0  0
    8.9852  -15.6988   24.7846 C   0  0  0  0  0  0  0  0  0  0  0  0
    9.8710  -16.0341   25.6200 O   0  0  0  0  0  0  0  0  0  0  0  0
    9.3956  -15.6457   23.4249 N   0  0  0  0  0  0  0  0  0  0  0  0
   10.4223  -16.4621   22.8558 C   0  0  1  0  0  0  0  0  0  0  0  0
   10.3761  -16.3599   21.3328 C   0  0  0  0  0  0  0  0  0  0  0  0
   11.3505  -17.2689   20.6748 C   0  0  0  0  0  0  0  0  0  0  0  0
   11.3099  -17.1015   19.1788 C   0  0  0  0  0  0  0  0  0  0  0  0
   12.2286  -18.0550   18.4968 C   0  0  0  0  0  0  0  0  0  0  0  0
   12.3377  -17.7645   17.0764 N   0  0  0  0  0  0  0  0  0  0  0  0
   11.7515  -15.9230   23.2833 C   0  0  0  0  0  0  0  0  0  0  0  0
   11.8517  -14.7079   23.9715 O   0  0  0  0  0  0  0  0  0  0  0  0
   12.8142  -16.5331   23.0435 O   0  0  0  0  0  0  0  0  0  0  0  0
  2  3  1  1
  2  1  1  0
  4  2  1  0
  5  7  1  0
  5  4  1  0
  5  6  1  6
  7  8  2  0
  9 10  1  0
 11 12  1  6
 11 10  1  0
 13 14  1  1
 13 11  1  0
 14  7  1  0
 15 13  1  0
 16 15  2  0
 17 15  1  0
 18 24  1  0
 18 17  1  0
 18 19  1  6
 20 19  1  0
 21 20  1  0
 22 21  1  0
 23 22  1  0
 24 25  1  0
 26 24  2  0
M  END
$$$$
