LIK.pdb
     RDKit          3D

 26 25  0  0  1  0  0  0  0  0999 V2000
    5.9142  -18.5410   20.1459 C   0  0  0  0  0  0  0  0  0  0  0  0
    6.6411  -17.2032   19.9338 C   0  0  1  0  0  0  0  0  0  0  0  0
    5.5607  -16.2466   19.4542 C   0  0  0  0  0  0  0  0  0  0  0  0
    7.1815  -16.8186   21.2732 C   0  0  0  0  0  0  0  0  0  0  0  0
    7.7304  -15.4290   21.3701 C   0  0  2  0  0  0  0  0  0  0  0  0
    8.5503  -15.1202   20.2403 N   0  0  0  0  0  0  0  0  0  0  0  0
    8.3195  -15.1150   22.6768 C   0  0  0  0  0  0  0  0  0  0  0  0
    9.5536  -15.2854   22.8227 O   0  0  0  0  0  0  0  0  0  0  0  0
    5.9693  -11.3593   25.8140 C   0  0  0  0  0  0  0  0  0  0  0  0
    7.0384  -12.1773   25.1521 C   0  0  0  0  0  0  0  0  0  0  0  0
    7.3822  -13.4283   25.9375 C   0  0  2  0  0  0  0  0  0  0  0  0
    8.0975  -13.1388   27.2131 C   0  0  0  0  0  0  0  0  0  0  0  0
    8.1622  -14.4173   25.0991 C   0  0  2  0  0  0  0  0  0  0  0  0
    7.5886  -14.6297   23.7948 N   0  0  0  0  0  0  0  0  0  0  0  0
    8.4432  -15.6866   25.8186 C   0  0  0  0  0  0  0  0  0  0  0  0
    7.5463  -16.5283   26.1054 O   0  0  0  0  0  0  0  0  0  0  0  0
    9.7644  -16.0171   26.2251 N   0  0  0  0  0  0  0  0  0  0  0  0
   10.1537  -17.2831   26.7636 C   0  0  1  0  0  0  0  0  0  0  0  0
   11.3922  -17.7949   26.0312 C   0  0  0  0  0  0  0  0  0  0  0  0
   11.9042  -19.0665   26.6054 C   0  0  0  0  0  0  0  0  0  0  0  0
   13.1401  -19.5219   25.8754 C   0  0  0  0  0  0  0  0  0  0  0  0
   13.6817  -20.7838   26.4519 C   0  0  0  0  0  0  0  0  0  0  0  0
   14.8877  -21.2097   25.7604 N   0  0  0  0  0  0  0  0  0  0  0  0
   10.5484  -17.0913   28.1945 C   0  0  0  0  0  0  0  0  0  0  0  0
   10.6044  -18.1738   29.0806 O   0  0  0  0  0  0  0  0  0  0  0  0
   10.8407  -15.9655   28.6487 O   0  0  0  0  0  0  0  0  0  0  0  0
  2  3  1  1
  2  1  1  0
  4  2  1  0
  5  7  1  0
  5  4  1  0
  5  6  1  6
  7  8  2  0
  9 10  1  0
 11 12  1  1
 11 10  1  0
 13 14  1  6
 13 11  1  0
 14  7  1  0
 15 13  1  0
 16 15  2  0
 17 15  1  0
 18 24  1  0
 18 17  1  0
 18 19  1  6
 20 19  1  0
 21 20  1  0
 22 21  1  0
 23 22  1  0
 24 25  1  0
 26 24  2  0
M  END
$$$$
