LIK.pdb
     RDKit          3D

 26 25  0  0  1  0  0  0  0  0999 V2000
    5.0972  -19.4319   21.6029 C   0  0  0  0  0  0  0  0  0  0  0  0
    5.7237  -18.1265   21.0865 C   0  0  1  0  0  0  0  0  0  0  0  0
    4.5459  -17.2981   20.5974 C   0  0  0  0  0  0  0  0  0  0  0  0
    6.3987  -17.5060   22.2668 C   0  0  0  0  0  0  0  0  0  0  0  0
    6.9172  -16.1176   22.0545 C   0  0  2  0  0  0  0  0  0  0  0  0
    7.5075  -15.9818   20.7595 N   0  0  0  0  0  0  0  0  0  0  0  0
    7.7267  -15.6113   23.1688 C   0  0  0  0  0  0  0  0  0  0  0  0
    8.9742  -15.7081   23.0821 O   0  0  0  0  0  0  0  0  0  0  0  0
    5.7784  -11.6034   26.2252 C   0  0  0  0  0  0  0  0  0  0  0  0
    6.8226  -12.4075   25.5088 C   0  0  0  0  0  0  0  0  0  0  0  0
    7.3295  -13.5716   26.3383 C   0  0  2  0  0  0  0  0  0  0  0  0
    8.2319  -13.1493   27.4473 C   0  0  0  0  0  0  0  0  0  0  0  0
    7.9953  -14.6227   25.4774 C   0  0  2  0  0  0  0  0  0  0  0  0
    7.1961  -15.0162   24.3452 N   0  0  0  0  0  0  0  0  0  0  0  0
    8.4905  -15.7820   26.2638 C   0  0  0  0  0  0  0  0  0  0  0  0
    7.7281  -16.5418   26.9244 O   0  0  0  0  0  0  0  0  0  0  0  0
    9.8764  -16.0941   26.3082 N   0  0  0  0  0  0  0  0  0  0  0  0
   10.4289  -17.2375   26.9654 C   0  0  1  0  0  0  0  0  0  0  0  0
   11.7031  -17.6778   26.2479 C   0  0  0  0  0  0  0  0  0  0  0  0
   12.3852  -18.8002   26.9434 C   0  0  0  0  0  0  0  0  0  0  0  0
   12.8935  -19.8124   25.9510 C   0  0  0  0  0  0  0  0  0  0  0  0
   13.4673  -21.0059   26.6326 C   0  0  0  0  0  0  0  0  0  0  0  0
   13.7153  -22.0871   25.6927 N   0  0  0  0  0  0  0  0  0  0  0  0
   10.8304  -16.8425   28.3521 C   0  0  0  0  0  0  0  0  0  0  0  0
   11.0058  -17.8030   29.3555 O   0  0  0  0  0  0  0  0  0  0  0  0
   11.0226  -15.6488   28.6640 O   0  0  0  0  0  0  0  0  0  0  0  0
  2  3  1  1
  2  1  1  0
  4  2  1  0
  5  7  1  0
  5  4  1  0
  5  6  1  6
  7  8  2  0
  9 10  1  0
 11 12  1  1
 11 10  1  0
 13 14  1  6
 13 11  1  0
 14  7  1  0
 15 13  1  0
 16 15  2  0
 17 15  1  0
 18 24  1  0
 18 17  1  0
 18 19  1  6
 20 19  1  0
 21 20  1  0
 22 21  1  0
 23 22  1  0
 24 25  1  0
 26 24  2  0
M  END
$$$$
