LIK.pdb
     RDKit          3D

 26 25  0  0  1  0  0  0  0  0999 V2000
    5.7785  -18.7739   20.3653 C   0  0  0  0  0  0  0  0  0  0  0  0
    6.0987  -17.2865   20.1453 C   0  0  1  0  0  0  0  0  0  0  0  0
    4.7452  -16.5933   20.1529 C   0  0  0  0  0  0  0  0  0  0  0  0
    6.9482  -16.8787   21.3055 C   0  0  0  0  0  0  0  0  0  0  0  0
    7.2002  -15.4083   21.4323 C   0  0  2  0  0  0  0  0  0  0  0  0
    7.7226  -14.8695   20.2154 N   0  0  0  0  0  0  0  0  0  0  0  0
    7.9325  -15.0360   22.6481 C   0  0  0  0  0  0  0  0  0  0  0  0
    9.1854  -15.0089   22.5960 O   0  0  0  0  0  0  0  0  0  0  0  0
    5.8617  -11.5792   26.3065 C   0  0  0  0  0  0  0  0  0  0  0  0
    6.9110  -12.2868   25.5013 C   0  0  0  0  0  0  0  0  0  0  0  0
    7.3019  -13.6229   26.1031 C   0  0  2  0  0  0  0  0  0  0  0  0
    8.0735  -13.4887   27.3717 C   0  0  0  0  0  0  0  0  0  0  0  0
    8.0504  -14.4851   25.1102 C   0  0  2  0  0  0  0  0  0  0  0  0
    7.3211  -14.7024   23.8869 N   0  0  0  0  0  0  0  0  0  0  0  0
    8.5579  -15.7461   25.7102 C   0  0  0  0  0  0  0  0  0  0  0  0
    7.7984  -16.6724   26.1103 O   0  0  0  0  0  0  0  0  0  0  0  0
    9.9529  -15.9705   25.8637 N   0  0  0  0  0  0  0  0  0  0  0  0
   10.5365  -17.2228   26.2319 C   0  0  1  0  0  0  0  0  0  0  0  0
   11.7875  -17.4741   25.3928 C   0  0  0  0  0  0  0  0  0  0  0  0
   12.4583  -18.7525   25.7458 C   0  0  0  0  0  0  0  0  0  0  0  0
   13.6689  -18.9767   24.8786 C   0  0  0  0  0  0  0  0  0  0  0  0
   14.3490  -20.2595   25.2103 C   0  0  0  0  0  0  0  0  0  0  0  0
   15.4074  -20.5614   24.2603 N   0  0  0  0  0  0  0  0  0  0  0  0
   10.9841  -17.1392   27.6577 C   0  0  0  0  0  0  0  0  0  0  0  0
   11.1940  -18.2953   28.4188 O   0  0  0  0  0  0  0  0  0  0  0  0
   11.1857  -16.0418   28.2182 O   0  0  0  0  0  0  0  0  0  0  0  0
  2  3  1  1
  2  1  1  0
  4  2  1  0
  5  7  1  0
  5  4  1  0
  5  6  1  6
  7  8  2  0
  9 10  1  0
 11 12  1  1
 11 10  1  0
 13 14  1  6
 13 11  1  0
 14  7  1  0
 15 13  1  0
 16 15  2  0
 17 15  1  0
 18 24  1  0
 18 17  1  0
 18 19  1  6
 20 19  1  0
 21 20  1  0
 22 21  1  0
 23 22  1  0
 24 25  1  0
 26 24  2  0
M  END
$$$$
