LIK.pdb
     RDKit          3D

 26 25  0  0  1  0  0  0  0  0999 V2000
    7.4954  -12.1444   18.7468 C   0  0  0  0  0  0  0  0  0  0  0  0
    7.3621  -13.5644   19.3205 C   0  0  1  0  0  0  0  0  0  0  0  0
    8.1933  -14.4370   18.3931 C   0  0  0  0  0  0  0  0  0  0  0  0
    7.9354  -13.5001   20.6993 C   0  0  0  0  0  0  0  0  0  0  0  0
    7.8409  -14.7653   21.4944 C   0  0  2  0  0  0  0  0  0  0  0  0
    6.5299  -15.3290   21.4096 N   0  0  0  0  0  0  0  0  0  0  0  0
    8.3891  -14.6541   22.8510 C   0  0  0  0  0  0  0  0  0  0  0  0
    9.6263  -14.4888   22.9746 O   0  0  0  0  0  0  0  0  0  0  0  0
    6.2440  -11.5512   26.4946 C   0  0  0  0  0  0  0  0  0  0  0  0
    7.1655  -12.4031   25.6730 C   0  0  0  0  0  0  0  0  0  0  0  0
    7.4179  -13.7597   26.3024 C   0  0  2  0  0  0  0  0  0  0  0  0
    8.1021  -13.6721   27.6241 C   0  0  0  0  0  0  0  0  0  0  0  0
    8.1754  -14.6770   25.3675 C   0  0  2  0  0  0  0  0  0  0  0  0
    7.6151  -14.7209   24.0410 N   0  0  0  0  0  0  0  0  0  0  0  0
    8.3998  -16.0282   25.9432 C   0  0  0  0  0  0  0  0  0  0  0  0
    7.4609  -16.7656   26.3551 O   0  0  0  0  0  0  0  0  0  0  0  0
    9.7117  -16.5628   26.0583 N   0  0  0  0  0  0  0  0  0  0  0  0
   10.0090  -17.8977   26.4756 C   0  0  1  0  0  0  0  0  0  0  0  0
   11.2036  -18.4295   25.6867 C   0  0  0  0  0  0  0  0  0  0  0  0
   10.9662  -18.4119   24.2197 C   0  0  0  0  0  0  0  0  0  0  0  0
   12.1511  -18.9756   23.4808 C   0  0  0  0  0  0  0  0  0  0  0  0
   11.9489  -18.9279   22.0060 C   0  0  0  0  0  0  0  0  0  0  0  0
   13.1294  -19.3872   21.2923 N   0  0  0  0  0  0  0  0  0  0  0  0
   10.4224  -17.8665   27.9138 C   0  0  0  0  0  0  0  0  0  0  0  0
   10.4277  -19.0315   28.6901 O   0  0  0  0  0  0  0  0  0  0  0  0
   10.7758  -16.8067   28.4714 O   0  0  0  0  0  0  0  0  0  0  0  0
  2  3  1  6
  2  1  1  0
  4  2  1  0
  5  7  1  0
  5  4  1  0
  5  6  1  1
  7  8  2  0
  9 10  1  0
 11 12  1  1
 11 10  1  0
 13 14  1  6
 13 11  1  0
 14  7  1  0
 15 13  1  0
 16 15  2  0
 17 15  1  0
 18 24  1  0
 18 17  1  0
 18 19  1  6
 20 19  1  0
 21 20  1  0
 22 21  1  0
 23 22  1  0
 24 25  1  0
 26 24  2  0
M  END
$$$$
