FHI.pdb
     RDKit          3D

 30 31  0  0  1  0  0  0  0  0999 V2000
   28.9109  -23.4286  -16.5989 N   0  0  0  0  0  0  0  0  0  0  0  0
   28.0520  -22.2803  -16.7254 C   0  0  1  0  0  0  0  0  0  0  0  0
   27.4289  -22.2559  -18.0991 C   0  0  0  0  0  0  0  0  0  0  0  0
   28.3981  -21.7703  -19.0932 C   0  0  0  0  0  0  0  0  0  0  0  0
   28.5073  -20.4180  -19.3056 C   0  0  0  0  0  0  0  0  0  0  0  0
   29.4200  -19.9795  -20.2404 C   0  0  0  0  0  0  0  0  0  0  0  0
   30.2015  -20.8688  -20.9430 C   0  0  0  0  0  0  0  0  0  0  0  0
   30.0997  -22.2287  -20.7373 C   0  0  0  0  0  0  0  0  0  0  0  0
   29.1793  -22.6631  -19.7952 C   0  0  0  0  0  0  0  0  0  0  0  0
   26.9779  -22.2371  -15.7319 C   0  0  0  0  0  0  0  0  0  0  0  0
   26.6388  -23.3136  -15.1793 O   0  0  0  0  0  0  0  0  0  0  0  0
   26.2739  -21.0542  -15.3337 N   0  0  0  0  0  0  0  0  0  0  0  0
   25.2909  -21.0693  -14.2779 C   0  0  1  0  0  0  0  0  0  0  0  0
   25.4998  -20.0764  -13.1939 C   0  0  0  0  0  0  0  0  0  0  0  0
   25.5615  -20.5587  -11.8209 C   0  0  0  0  0  0  0  0  0  0  0  0
   25.4656  -21.7819  -11.2618 C   0  0  0  0  0  0  0  0  0  0  0  0
   25.6118  -21.7200   -9.9090 N   0  0  0  0  0  0  0  0  0  0  0  0
   25.8004  -20.4223   -9.6569 C   0  0  0  0  0  0  0  0  0  0  0  0
   25.7772  -19.7023  -10.7658 N   0  0  0  0  0  0  0  0  0  0  0  0
   23.9472  -20.8736  -14.8637 C   0  0  0  0  0  0  0  0  0  0  0  0
   23.8025  -20.0731  -15.7976 O   0  0  0  0  0  0  0  0  0  0  0  0
   19.1116  -24.0328  -16.4745 C   0  0  0  0  0  0  0  0  0  0  0  0
   19.6256  -22.7063  -15.9677 C   0  0  0  0  0  0  0  0  0  0  0  0
   20.9684  -22.8035  -15.3120 C   0  0  2  0  0  0  0  0  0  0  0  0
   20.8301  -23.6935  -14.1030 C   0  0  0  0  0  0  0  0  0  0  0  0
   21.5432  -21.4649  -14.9723 C   0  0  2  0  0  0  0  0  0  0  0  0
   22.8561  -21.5943  -14.3565 N   0  0  0  0  0  0  0  0  0  0  0  0
   20.6703  -20.7164  -14.0537 C   0  0  0  0  0  0  0  0  0  0  0  0
   21.0328  -20.5468  -12.7156 O   0  0  0  0  0  0  0  0  0  0  0  0
   19.5736  -20.1875  -14.3724 O   0  0  0  0  0  0  0  0  0  0  0  0
  2  1  1  1
  2 10  1  0
  2  3  1  0
  3  4  1  0
  4  9  2  0
  5  6  2  0
  5  4  1  0
  6  7  1  0
  7  8  2  0
  9  8  1  0
 10 12  1  0
 10 11  2  0
 12 13  1  0
 13 20  1  0
 14 15  1  0
 13 14  1  1
 15 19  1  0
 15 16  2  0
 16 17  1  0
 18 17  1  0
 19 18  2  0
 20 27  1  0
 20 21  2  0
 22 23  1  0
 23 24  1  0
 24 26  1  0
 24 25  1  1
 26 28  1  0
 26 27  1  1
 28 30  2  0
 28 29  1  0
M  END
$$$$
