FHI.pdb
     RDKit          3D

 30 31  0  0  1  0  0  0  0  0999 V2000
   27.1285  -19.5595  -16.2350 N   0  0  0  0  0  0  0  0  0  0  0  0
   27.5118  -20.1091  -14.9609 C   0  0  1  0  0  0  0  0  0  0  0  0
   28.7993  -19.4751  -14.4962 C   0  0  0  0  0  0  0  0  0  0  0  0
   29.2703  -20.1179  -13.2598 C   0  0  0  0  0  0  0  0  0  0  0  0
   28.9306  -19.5590  -12.0523 C   0  0  0  0  0  0  0  0  0  0  0  0
   29.3800  -20.1736  -10.9035 C   0  0  0  0  0  0  0  0  0  0  0  0
   30.1475  -21.3149  -10.9611 C   0  0  0  0  0  0  0  0  0  0  0  0
   30.4942  -21.8842  -12.1685 C   0  0  0  0  0  0  0  0  0  0  0  0
   30.0387  -21.2607  -13.3205 C   0  0  0  0  0  0  0  0  0  0  0  0
   26.5046  -19.9261  -13.9145 C   0  0  0  0  0  0  0  0  0  0  0  0
   26.0181  -18.7784  -13.7554 O   0  0  0  0  0  0  0  0  0  0  0  0
   26.0230  -20.9602  -13.0475 N   0  0  0  0  0  0  0  0  0  0  0  0
   24.9663  -20.7267  -12.0935 C   0  0  1  0  0  0  0  0  0  0  0  0
   23.6671  -21.3745  -12.4054 C   0  0  0  0  0  0  0  0  0  0  0  0
   22.9359  -20.9205  -13.5805 C   0  0  0  0  0  0  0  0  0  0  0  0
   23.1191  -19.9103  -14.4544 C   0  0  0  0  0  0  0  0  0  0  0  0
   22.1567  -19.9097  -15.4183 N   0  0  0  0  0  0  0  0  0  0  0  0
   21.3792  -20.9503  -15.1083 C   0  0  0  0  0  0  0  0  0  0  0  0
   21.8097  -21.5741  -14.0247 N   0  0  0  0  0  0  0  0  0  0  0  0
   25.4172  -21.1624  -10.7542 C   0  0  0  0  0  0  0  0  0  0  0  0
   25.9901  -22.2535  -10.6313 O   0  0  0  0  0  0  0  0  0  0  0  0
   28.3128  -18.3944   -7.3668 C   0  0  0  0  0  0  0  0  0  0  0  0
   27.5399  -19.4291   -8.1495 C   0  0  0  0  0  0  0  0  0  0  0  0
   26.2410  -19.8078   -7.5078 C   0  0  2  0  0  0  0  0  0  0  0  0
   26.5364  -20.2767   -6.1058 C   0  0  0  0  0  0  0  0  0  0  0  0
   25.4798  -20.8227   -8.3004 C   0  0  2  0  0  0  0  0  0  0  0  0
   25.1916  -20.3375   -9.6425 N   0  0  0  0  0  0  0  0  0  0  0  0
   24.2075  -21.1763   -7.6504 C   0  0  0  0  0  0  0  0  0  0  0  0
   24.1639  -22.1837   -6.6841 O   0  0  0  0  0  0  0  0  0  0  0  0
   23.0989  -20.6318   -7.8927 O   0  0  0  0  0  0  0  0  0  0  0  0
  2  1  1  6
  2 10  1  0
  2  3  1  0
  3  4  1  0
  4  9  2  0
  5  6  2  0
  5  4  1  0
  6  7  1  0
  7  8  2  0
  9  8  1  0
 10 12  1  0
 10 11  2  0
 12 13  1  0
 13 20  1  0
 14 15  1  0
 13 14  1  6
 15 19  1  0
 15 16  2  0
 16 17  1  0
 18 17  1  0
 19 18  2  0
 20 27  1  0
 20 21  2  0
 22 23  1  0
 23 24  1  0
 24 26  1  0
 24 25  1  1
 26 28  1  0
 26 27  1  6
 28 30  2  0
 28 29  1  0
M  END
$$$$
