FHI.pdb
     RDKit          3D

 30 31  0  0  1  0  0  0  0  0999 V2000
   18.5981  -23.4256  -14.6930 N   0  0  0  0  0  0  0  0  0  0  0  0
   19.5021  -22.4170  -15.1803 C   0  0  1  0  0  0  0  0  0  0  0  0
   19.2625  -21.1187  -14.4502 C   0  0  0  0  0  0  0  0  0  0  0  0
   20.0899  -20.0470  -15.0250 C   0  0  0  0  0  0  0  0  0  0  0  0
   19.7530  -19.5383  -16.2553 C   0  0  0  0  0  0  0  0  0  0  0  0
   20.5385  -18.5346  -16.7797 C   0  0  0  0  0  0  0  0  0  0  0  0
   21.6302  -18.0536  -16.0927 C   0  0  0  0  0  0  0  0  0  0  0  0
   21.9771  -18.5575  -14.8568 C   0  0  0  0  0  0  0  0  0  0  0  0
   21.1824  -19.5672  -14.3349 C   0  0  0  0  0  0  0  0  0  0  0  0
   20.9144  -22.7731  -15.0346 C   0  0  0  0  0  0  0  0  0  0  0  0
   21.3116  -23.1720  -13.9110 O   0  0  0  0  0  0  0  0  0  0  0  0
   21.8917  -22.7033  -16.0802 N   0  0  0  0  0  0  0  0  0  0  0  0
   23.2496  -23.1509  -15.8878 C   0  0  1  0  0  0  0  0  0  0  0  0
   23.8993  -23.7561  -17.0779 C   0  0  0  0  0  0  0  0  0  0  0  0
   25.2529  -24.2746  -16.9343 C   0  0  0  0  0  0  0  0  0  0  0  0
   25.7671  -25.3796  -16.3577 C   0  0  0  0  0  0  0  0  0  0  0  0
   27.1199  -25.4314  -16.5074 N   0  0  0  0  0  0  0  0  0  0  0  0
   27.4182  -24.3253  -17.1934 C   0  0  0  0  0  0  0  0  0  0  0  0
   26.3370  -23.6141  -17.4648 N   0  0  0  0  0  0  0  0  0  0  0  0
   24.0706  -22.0175  -15.4099 C   0  0  0  0  0  0  0  0  0  0  0  0
   23.8374  -20.8774  -15.8338 O   0  0  0  0  0  0  0  0  0  0  0  0
   27.8602  -20.5372  -10.7507 C   0  0  0  0  0  0  0  0  0  0  0  0
   27.2782  -20.2665  -12.1177 C   0  0  0  0  0  0  0  0  0  0  0  0
   26.4281  -21.3871  -12.6314 C   0  0  2  0  0  0  0  0  0  0  0  0
   27.2290  -22.6603  -12.5295 C   0  0  0  0  0  0  0  0  0  0  0  0
   25.9232  -21.1400  -14.0176 C   0  0  2  0  0  0  0  0  0  0  0  0
   25.1001  -22.2462  -14.4853 N   0  0  0  0  0  0  0  0  0  0  0  0
   27.0274  -20.9463  -14.9712 C   0  0  0  0  0  0  0  0  0  0  0  0
   27.4236  -21.9870  -15.8141 O   0  0  0  0  0  0  0  0  0  0  0  0
   27.6826  -19.8804  -15.1080 O   0  0  0  0  0  0  0  0  0  0  0  0
  2  1  1  1
  2 10  1  0
  2  3  1  0
  3  4  1  0
  4  9  2  0
  5  6  2  0
  5  4  1  0
  6  7  1  0
  7  8  2  0
  9  8  1  0
 10 12  1  0
 10 11  2  0
 12 13  1  0
 13 20  1  0
 14 15  1  0
 13 14  1  6
 15 19  1  0
 15 16  2  0
 16 17  1  0
 18 17  1  0
 19 18  2  0
 20 27  1  0
 20 21  2  0
 22 23  1  0
 23 24  1  0
 24 26  1  0
 24 25  1  6
 26 28  1  0
 26 27  1  6
 28 30  2  0
 28 29  1  0
M  END
$$$$
