FHI.pdb
     RDKit          3D

 30 31  0  0  1  0  0  0  0  0999 V2000
   19.2379   -8.5265  -20.6337 N   0  0  0  0  0  0  0  0  0  0  0  0
   18.1019   -8.2934  -19.7809 C   0  0  1  0  0  0  0  0  0  0  0  0
   17.0055   -9.2765  -20.1084 C   0  0  0  0  0  0  0  0  0  0  0  0
   16.5893   -9.1315  -21.5118 C   0  0  0  0  0  0  0  0  0  0  0  0
   15.8203   -8.0502  -21.8657 C   0  0  0  0  0  0  0  0  0  0  0  0
   15.4387   -7.9291  -23.1845 C   0  0  0  0  0  0  0  0  0  0  0  0
   15.8158   -8.8634  -24.1225 C   0  0  0  0  0  0  0  0  0  0  0  0
   16.5878   -9.9528  -23.7775 C   0  0  0  0  0  0  0  0  0  0  0  0
   16.9683  -10.0686  -22.4489 C   0  0  0  0  0  0  0  0  0  0  0  0
   18.4062   -8.4021  -18.3532 C   0  0  0  0  0  0  0  0  0  0  0  0
   17.4818   -8.1775  -17.5320 O   0  0  0  0  0  0  0  0  0  0  0  0
   19.6862   -8.7476  -17.8097 N   0  0  0  0  0  0  0  0  0  0  0  0
   19.9147   -8.8327  -16.3879 C   0  0  1  0  0  0  0  0  0  0  0  0
   20.3214  -10.1685  -15.8831 C   0  0  0  0  0  0  0  0  0  0  0  0
   19.3123  -11.2171  -15.8196 C   0  0  0  0  0  0  0  0  0  0  0  0
   17.9824  -11.2397  -16.0403 C   0  0  0  0  0  0  0  0  0  0  0  0
   17.4740  -12.4916  -15.8688 N   0  0  0  0  0  0  0  0  0  0  0  0
   18.5328  -13.2347  -15.5370 C   0  0  0  0  0  0  0  0  0  0  0  0
   19.6406  -12.5138  -15.4978 N   0  0  0  0  0  0  0  0  0  0  0  0
   20.9357   -7.8355  -16.0003 C   0  0  0  0  0  0  0  0  0  0  0  0
   21.9323   -7.6762  -16.7181 O   0  0  0  0  0  0  0  0  0  0  0  0
   21.9941   -2.3296  -15.4380 C   0  0  0  0  0  0  0  0  0  0  0  0
   22.2777   -3.6263  -14.7178 C   0  0  0  0  0  0  0  0  0  0  0  0
   21.3669   -4.7422  -15.1275 C   0  0  2  0  0  0  0  0  0  0  0  0
   19.9512   -4.3173  -14.8303 C   0  0  0  0  0  0  0  0  0  0  0  0
   21.7201   -6.0433  -14.4795 C   0  0  2  0  0  0  0  0  0  0  0  0
   20.7640   -7.0843  -14.8284 N   0  0  0  0  0  0  0  0  0  0  0  0
   21.7645   -5.9250  -13.0131 C   0  0  0  0  0  0  0  0  0  0  0  0
   22.8321   -5.2762  -12.3887 O   0  0  0  0  0  0  0  0  0  0  0  0
   20.8901   -6.3743  -12.2272 O   0  0  0  0  0  0  0  0  0  0  0  0
  2  1  1  6
  2 10  1  0
  2  3  1  0
  3  4  1  0
  4  9  2  0
  5  6  2  0
  5  4  1  0
  6  7  1  0
  7  8  2  0
  9  8  1  0
 10 12  1  0
 10 11  2  0
 12 13  1  0
 13 20  1  0
 14 15  1  0
 13 14  1  6
 15 19  1  0
 15 16  2  0
 16 17  1  0
 18 17  1  0
 19 18  2  0
 20 27  1  0
 20 21  2  0
 22 23  1  0
 23 24  1  0
 24 26  1  0
 24 25  1  1
 26 28  1  0
 26 27  1  1
 28 30  2  0
 28 29  1  0
M  END
$$$$
