FHI.pdb
     RDKit          3D

 30 31  0  0  1  0  0  0  0  0999 V2000
   19.6485  -20.8189  -16.6011 N   0  0  0  0  0  0  0  0  0  0  0  0
   20.4925  -19.6532  -16.5676 C   0  0  1  0  0  0  0  0  0  0  0  0
   20.0877  -18.7609  -15.4205 C   0  0  0  0  0  0  0  0  0  0  0  0
   18.8655  -18.0150  -15.7576 C   0  0  0  0  0  0  0  0  0  0  0  0
   18.9738  -16.8744  -16.5146 C   0  0  0  0  0  0  0  0  0  0  0  0
   17.8192  -16.1874  -16.8216 C   0  0  0  0  0  0  0  0  0  0  0  0
   16.5911  -16.6289  -16.3835 C   0  0  0  0  0  0  0  0  0  0  0  0
   16.4715  -17.7730  -15.6229 C   0  0  0  0  0  0  0  0  0  0  0  0
   17.6372  -18.4595  -15.3176 C   0  0  0  0  0  0  0  0  0  0  0  0
   21.9167  -19.9620  -16.4302 C   0  0  0  0  0  0  0  0  0  0  0  0
   22.2413  -20.9698  -15.7532 O   0  0  0  0  0  0  0  0  0  0  0  0
   22.9825  -19.2006  -17.0111 N   0  0  0  0  0  0  0  0  0  0  0  0
   24.3640  -19.5930  -16.8749 C   0  0  1  0  0  0  0  0  0  0  0  0
   25.2984  -19.0025  -17.8664 C   0  0  0  0  0  0  0  0  0  0  0  0
   26.7067  -19.3661  -17.7868 C   0  0  0  0  0  0  0  0  0  0  0  0
   27.4210  -20.1311  -16.9369 C   0  0  0  0  0  0  0  0  0  0  0  0
   28.7325  -20.1825  -17.3011 N   0  0  0  0  0  0  0  0  0  0  0  0
   28.7993  -19.4264  -18.3998 C   0  0  0  0  0  0  0  0  0  0  0  0
   27.6179  -18.9253  -18.7187 N   0  0  0  0  0  0  0  0  0  0  0  0
   24.8300  -19.2618  -15.5110 C   0  0  0  0  0  0  0  0  0  0  0  0
   24.4262  -18.2254  -14.9662 O   0  0  0  0  0  0  0  0  0  0  0  0
   24.8075  -20.7886  -10.0355 C   0  0  0  0  0  0  0  0  0  0  0  0
   25.6694  -20.1154  -11.0769 C   0  0  0  0  0  0  0  0  0  0  0  0
   25.3012  -20.4872  -12.4800 C   0  0  2  0  0  0  0  0  0  0  0  0
   25.3422  -21.9905  -12.5867 C   0  0  0  0  0  0  0  0  0  0  0  0
   26.1670  -19.8189  -13.5005 C   0  0  2  0  0  0  0  0  0  0  0  0
   25.7206  -20.1223  -14.8526 N   0  0  0  0  0  0  0  0  0  0  0  0
   27.5742  -20.2305  -13.3719 C   0  0  0  0  0  0  0  0  0  0  0  0
   28.0878  -21.2514  -14.1746 O   0  0  0  0  0  0  0  0  0  0  0  0
   28.4018  -19.7266  -12.5685 O   0  0  0  0  0  0  0  0  0  0  0  0
  2  1  1  1
  2 10  1  0
  2  3  1  0
  3  4  1  0
  4  9  2  0
  5  6  2  0
  5  4  1  0
  6  7  1  0
  7  8  2  0
  9  8  1  0
 10 12  1  0
 10 11  2  0
 12 13  1  0
 13 20  1  0
 14 15  1  0
 13 14  1  6
 15 19  1  0
 15 16  2  0
 16 17  1  0
 18 17  1  0
 19 18  2  0
 20 27  1  0
 20 21  2  0
 22 23  1  0
 23 24  1  0
 24 26  1  0
 24 25  1  1
 26 28  1  0
 26 27  1  6
 28 30  2  0
 28 29  1  0
M  END
$$$$
