FHI.pdb
     RDKit          3D

 30 31  0  0  1  0  0  0  0  0999 V2000
   29.4366  -20.5942  -15.9641 N   0  0  0  0  0  0  0  0  0  0  0  0
   28.8001  -20.6848  -14.6761 C   0  0  1  0  0  0  0  0  0  0  0  0
   29.5340  -19.8212  -13.6804 C   0  0  0  0  0  0  0  0  0  0  0  0
   30.3072  -20.6567  -12.7489 C   0  0  0  0  0  0  0  0  0  0  0  0
   31.0342  -20.0442  -11.7578 C   0  0  0  0  0  0  0  0  0  0  0  0
   31.7531  -20.8413  -10.8935 C   0  0  0  0  0  0  0  0  0  0  0  0
   31.7451  -22.2123  -11.0171 C   0  0  0  0  0  0  0  0  0  0  0  0
   31.0184  -22.8372  -12.0088 C   0  0  0  0  0  0  0  0  0  0  0  0
   30.2973  -22.0293  -12.8751 C   0  0  0  0  0  0  0  0  0  0  0  0
   27.3929  -20.2817  -14.6860 C   0  0  0  0  0  0  0  0  0  0  0  0
   27.1103  -19.1284  -15.0972 O   0  0  0  0  0  0  0  0  0  0  0  0
   26.2994  -21.1042  -14.2603 N   0  0  0  0  0  0  0  0  0  0  0  0
   24.9402  -20.6213  -14.2476 C   0  0  1  0  0  0  0  0  0  0  0  0
   24.1559  -20.8827  -15.4811 C   0  0  0  0  0  0  0  0  0  0  0  0
   24.7625  -20.5570  -16.7647 C   0  0  0  0  0  0  0  0  0  0  0  0
   25.4574  -21.2734  -17.6711 C   0  0  0  0  0  0  0  0  0  0  0  0
   25.8016  -20.5105  -18.7457 N   0  0  0  0  0  0  0  0  0  0  0  0
   25.2960  -19.3056  -18.4699 C   0  0  0  0  0  0  0  0  0  0  0  0
   24.6727  -19.2943  -17.3038 N   0  0  0  0  0  0  0  0  0  0  0  0
   24.2299  -21.2025  -13.0880 C   0  0  0  0  0  0  0  0  0  0  0  0
   24.2427  -22.4295  -12.9206 O   0  0  0  0  0  0  0  0  0  0  0  0
   25.3979  -20.3781   -8.3095 C   0  0  0  0  0  0  0  0  0  0  0  0
   24.7800  -20.9150   -9.5786 C   0  0  0  0  0  0  0  0  0  0  0  0
   23.3564  -20.4910   -9.7690 C   0  0  2  0  0  0  0  0  0  0  0  0
   22.5572  -21.0152   -8.6031 C   0  0  0  0  0  0  0  0  0  0  0  0
   22.7959  -20.9252  -11.0862 C   0  0  2  0  0  0  0  0  0  0  0  0
   23.5522  -20.3601  -12.1945 N   0  0  0  0  0  0  0  0  0  0  0  0
   21.3866  -20.5277  -11.2341 C   0  0  0  0  0  0  0  0  0  0  0  0
   21.0520  -19.3467  -11.9002 O   0  0  0  0  0  0  0  0  0  0  0  0
   20.4039  -21.1812  -10.7968 O   0  0  0  0  0  0  0  0  0  0  0  0
  2  1  1  6
  2 10  1  0
  2  3  1  0
  3  4  1  0
  4  9  2  0
  5  6  2  0
  5  4  1  0
  6  7  1  0
  7  8  2  0
  9  8  1  0
 10 12  1  0
 10 11  2  0
 12 13  1  0
 13 20  1  0
 14 15  1  0
 13 14  1  6
 15 19  1  0
 15 16  2  0
 16 17  1  0
 18 17  1  0
 19 18  2  0
 20 27  1  0
 20 21  2  0
 22 23  1  0
 23 24  1  0
 24 26  1  0
 24 25  1  1
 26 28  1  0
 26 27  1  6
 28 30  2  0
 28 29  1  0
M  END
$$$$
