FHI.pdb
     RDKit          3D

 30 31  0  0  1  0  0  0  0  0999 V2000
   28.5237  -17.9231  -13.6733 N   0  0  0  0  0  0  0  0  0  0  0  0
   27.7912  -19.1117  -14.0239 C   0  0  1  0  0  0  0  0  0  0  0  0
   27.5581  -19.9513  -12.7924 C   0  0  0  0  0  0  0  0  0  0  0  0
   28.7956  -20.6443  -12.4025 C   0  0  0  0  0  0  0  0  0  0  0  0
   29.0818  -21.8597  -12.9740 C   0  0  0  0  0  0  0  0  0  0  0  0
   30.2450  -22.4958  -12.5978 C   0  0  0  0  0  0  0  0  0  0  0  0
   31.0978  -21.9319  -11.6759 C   0  0  0  0  0  0  0  0  0  0  0  0
   30.8197  -20.7119  -11.0962 C   0  0  0  0  0  0  0  0  0  0  0  0
   29.6476  -20.0772  -11.4792 C   0  0  0  0  0  0  0  0  0  0  0  0
   26.4953  -18.8410  -14.6485 C   0  0  0  0  0  0  0  0  0  0  0  0
   25.9489  -17.7323  -14.4219 O   0  0  0  0  0  0  0  0  0  0  0  0
   25.7914  -19.7472  -15.5067 N   0  0  0  0  0  0  0  0  0  0  0  0
   24.5275  -19.4017  -16.1103 C   0  0  1  0  0  0  0  0  0  0  0  0
   24.5089  -19.3883  -17.5949 C   0  0  0  0  0  0  0  0  0  0  0  0
   25.2809  -18.3631  -18.2839 C   0  0  0  0  0  0  0  0  0  0  0  0
   25.8904  -17.2310  -17.8783 C   0  0  0  0  0  0  0  0  0  0  0  0
   26.5150  -16.6069  -18.9153 N   0  0  0  0  0  0  0  0  0  0  0  0
   26.2698  -17.3912  -19.9679 C   0  0  0  0  0  0  0  0  0  0  0  0
   25.5410  -18.4424  -19.6326 N   0  0  0  0  0  0  0  0  0  0  0  0
   23.4861  -20.3301  -15.6198 C   0  0  0  0  0  0  0  0  0  0  0  0
   23.6329  -21.5489  -15.7837 O   0  0  0  0  0  0  0  0  0  0  0  0
   23.5246  -20.6157  -11.2622 C   0  0  0  0  0  0  0  0  0  0  0  0
   22.8115  -21.3654  -12.3622 C   0  0  0  0  0  0  0  0  0  0  0  0
   21.5665  -20.6802  -12.8345 C   0  0  2  0  0  0  0  0  0  0  0  0
   20.3953  -21.3011  -12.1164 C   0  0  0  0  0  0  0  0  0  0  0  0
   21.4123  -20.7238  -14.3218 C   0  0  2  0  0  0  0  0  0  0  0  0
   22.3481  -19.8212  -14.9769 N   0  0  0  0  0  0  0  0  0  0  0  0
   20.0477  -20.3606  -14.7370 C   0  0  0  0  0  0  0  0  0  0  0  0
   19.0664  -21.3445  -14.8764 O   0  0  0  0  0  0  0  0  0  0  0  0
   19.6594  -19.1908  -14.9915 O   0  0  0  0  0  0  0  0  0  0  0  0
  2  1  1  1
  2 10  1  0
  2  3  1  0
  3  4  1  0
  4  9  2  0
  5  6  2  0
  5  4  1  0
  6  7  1  0
  7  8  2  0
  9  8  1  0
 10 12  1  0
 10 11  2  0
 12 13  1  0
 13 20  1  0
 14 15  1  0
 13 14  1  6
 15 19  1  0
 15 16  2  0
 16 17  1  0
 18 17  1  0
 19 18  2  0
 20 27  1  0
 20 21  2  0
 22 23  1  0
 23 24  1  0
 24 26  1  0
 24 25  1  1
 26 28  1  0
 26 27  1  6
 28 30  2  0
 28 29  1  0
M  END
$$$$
