FHI.pdb
     RDKit          3D

 30 31  0  0  1  0  0  0  0  0999 V2000
   27.5431  -10.1651  -19.5482 N   0  0  0  0  0  0  0  0  0  0  0  0
   27.2743  -10.0057  -18.1430 C   0  0  1  0  0  0  0  0  0  0  0  0
   28.0184   -8.8055  -17.6123 C   0  0  0  0  0  0  0  0  0  0  0  0
   29.4689   -8.9884  -17.7747 C   0  0  0  0  0  0  0  0  0  0  0  0
   30.2148   -7.9504  -18.2767 C   0  0  0  0  0  0  0  0  0  0  0  0
   31.5723   -8.1381  -18.4227 C   0  0  0  0  0  0  0  0  0  0  0  0
   32.1667   -9.3305  -18.0764 C   0  0  0  0  0  0  0  0  0  0  0  0
   31.4267  -10.3790  -17.5715 C   0  0  0  0  0  0  0  0  0  0  0  0
   30.0613  -10.1835  -17.4271 C   0  0  0  0  0  0  0  0  0  0  0  0
   25.8536   -9.8415  -17.8309 C   0  0  0  0  0  0  0  0  0  0  0  0
   25.0850   -9.4652  -18.7512 O   0  0  0  0  0  0  0  0  0  0  0  0
   25.2615  -10.0774  -16.5476 N   0  0  0  0  0  0  0  0  0  0  0  0
   23.8574   -9.8557  -16.3018 C   0  0  1  0  0  0  0  0  0  0  0  0
   23.3064  -10.5178  -15.0924 C   0  0  0  0  0  0  0  0  0  0  0  0
   21.9074  -10.2877  -14.7584 C   0  0  0  0  0  0  0  0  0  0  0  0
   21.2859   -9.5036  -13.8546 C   0  0  0  0  0  0  0  0  0  0  0  0
   19.9321   -9.6237  -13.9437 N   0  0  0  0  0  0  0  0  0  0  0  0
   19.7436  -10.5045  -14.9296 C   0  0  0  0  0  0  0  0  0  0  0  0
   20.8916  -10.9205  -15.4371 N   0  0  0  0  0  0  0  0  0  0  0  0
   23.6036   -8.4012  -16.2177 C   0  0  0  0  0  0  0  0  0  0  0  0
   24.4110   -7.6774  -15.6193 O   0  0  0  0  0  0  0  0  0  0  0  0
   22.5422   -3.6932  -19.4816 C   0  0  0  0  0  0  0  0  0  0  0  0
   22.2266   -4.3361  -18.1520 C   0  0  0  0  0  0  0  0  0  0  0  0
   22.5347   -5.8011  -18.1151 C   0  0  2  0  0  0  0  0  0  0  0  0
   21.7888   -6.4599  -19.2475 C   0  0  0  0  0  0  0  0  0  0  0  0
   22.2256   -6.4229  -16.7902 C   0  0  2  0  0  0  0  0  0  0  0  0
   22.4553   -7.8603  -16.8144 N   0  0  0  0  0  0  0  0  0  0  0  0
   20.8301   -6.1815  -16.3895 C   0  0  0  0  0  0  0  0  0  0  0  0
   20.4866   -5.0234  -15.6886 O   0  0  0  0  0  0  0  0  0  0  0  0
   19.8675   -6.9562  -16.6289 O   0  0  0  0  0  0  0  0  0  0  0  0
  2  1  1  6
  2 10  1  0
  2  3  1  0
  3  4  1  0
  4  9  2  0
  5  6  2  0
  5  4  1  0
  6  7  1  0
  7  8  2  0
  9  8  1  0
 10 12  1  0
 10 11  2  0
 12 13  1  0
 13 20  1  0
 14 15  1  0
 13 14  1  1
 15 19  1  0
 15 16  2  0
 16 17  1  0
 18 17  1  0
 19 18  2  0
 20 27  1  0
 20 21  2  0
 22 23  1  0
 23 24  1  0
 24 26  1  0
 24 25  1  6
 26 28  1  0
 26 27  1  6
 28 30  2  0
 28 29  1  0
M  END
$$$$
