FHI.pdb
     RDKit          3D

 30 31  0  0  1  0  0  0  0  0999 V2000
   29.6635  -19.1771  -13.6901 N   0  0  0  0  0  0  0  0  0  0  0  0
   28.8923  -20.3922  -13.7217 C   0  0  1  0  0  0  0  0  0  0  0  0
   28.7723  -20.9588  -12.3287 C   0  0  0  0  0  0  0  0  0  0  0  0
   30.0993  -21.3173  -11.8050 C   0  0  0  0  0  0  0  0  0  0  0  0
   30.6442  -22.5281  -12.1554 C   0  0  0  0  0  0  0  0  0  0  0  0
   31.8881  -22.8488  -11.6561 C   0  0  0  0  0  0  0  0  0  0  0  0
   32.5676  -21.9826  -10.8296 C   0  0  0  0  0  0  0  0  0  0  0  0
   32.0293  -20.7643  -10.4717 C   0  0  0  0  0  0  0  0  0  0  0  0
   30.7774  -20.4480  -10.9776 C   0  0  0  0  0  0  0  0  0  0  0  0
   27.5445  -20.2193  -14.2660 C   0  0  0  0  0  0  0  0  0  0  0  0
   26.8923  -19.2023  -13.9202 O   0  0  0  0  0  0  0  0  0  0  0  0
   26.9012  -21.1251  -15.1709 N   0  0  0  0  0  0  0  0  0  0  0  0
   25.5310  -20.9465  -15.5852 C   0  0  1  0  0  0  0  0  0  0  0  0
   25.1879  -21.4996  -16.9198 C   0  0  0  0  0  0  0  0  0  0  0  0
   23.8351  -21.2991  -17.4212 C   0  0  0  0  0  0  0  0  0  0  0  0
   22.7359  -20.7056  -16.9139 C   0  0  0  0  0  0  0  0  0  0  0  0
   21.6959  -20.7582  -17.7919 N   0  0  0  0  0  0  0  0  0  0  0  0
   22.1918  -21.4013  -18.8520 C   0  0  0  0  0  0  0  0  0  0  0  0
   23.4575  -21.7377  -18.6694 N   0  0  0  0  0  0  0  0  0  0  0  0
   24.6358  -21.5400  -14.5686 C   0  0  0  0  0  0  0  0  0  0  0  0
   24.8005  -22.7194  -14.2287 O   0  0  0  0  0  0  0  0  0  0  0  0
   23.8737  -20.6356   -9.0656 C   0  0  0  0  0  0  0  0  0  0  0  0
   23.0815  -21.0683  -10.2763 C   0  0  0  0  0  0  0  0  0  0  0  0
   23.6953  -20.6337  -11.5712 C   0  0  2  0  0  0  0  0  0  0  0  0
   23.7502  -19.1271  -11.5752 C   0  0  0  0  0  0  0  0  0  0  0  0
   22.9767  -21.1816  -12.7633 C   0  0  2  0  0  0  0  0  0  0  0  0
   23.6142  -20.7628  -14.0034 N   0  0  0  0  0  0  0  0  0  0  0  0
   21.5698  -20.7503  -12.7948 C   0  0  0  0  0  0  0  0  0  0  0  0
   21.1445  -19.7949  -13.7204 O   0  0  0  0  0  0  0  0  0  0  0  0
   20.6671  -21.1802  -12.0304 O   0  0  0  0  0  0  0  0  0  0  0  0
  2  1  1  1
  2 10  1  0
  2  3  1  0
  3  4  1  0
  4  9  2  0
  5  6  2  0
  5  4  1  0
  6  7  1  0
  7  8  2  0
  9  8  1  0
 10 12  1  0
 10 11  2  0
 12 13  1  0
 13 20  1  0
 14 15  1  0
 13 14  1  6
 15 19  1  0
 15 16  2  0
 16 17  1  0
 18 17  1  0
 19 18  2  0
 20 27  1  0
 20 21  2  0
 22 23  1  0
 23 24  1  0
 24 26  1  0
 24 25  1  6
 26 28  1  0
 26 27  1  6
 28 30  2  0
 28 29  1  0
M  END
$$$$
