FHI.pdb
     RDKit          3D

 30 31  0  0  1  0  0  0  0  0999 V2000
   24.7722  -18.5564  -18.1962 N   0  0  0  0  0  0  0  0  0  0  0  0
   25.4659  -18.1649  -16.9972 C   0  0  1  0  0  0  0  0  0  0  0  0
   24.7216  -17.0417  -16.3187 C   0  0  0  0  0  0  0  0  0  0  0  0
   25.0741  -15.7507  -16.9291 C   0  0  0  0  0  0  0  0  0  0  0  0
   26.2548  -15.1488  -16.5692 C   0  0  0  0  0  0  0  0  0  0  0  0
   26.5702  -13.9396  -17.1503 C   0  0  0  0  0  0  0  0  0  0  0  0
   25.7281  -13.3491  -18.0654 C   0  0  0  0  0  0  0  0  0  0  0  0
   24.5402  -13.9452  -18.4335 C   0  0  0  0  0  0  0  0  0  0  0  0
   24.2290  -15.1618  -17.8451 C   0  0  0  0  0  0  0  0  0  0  0  0
   25.6346  -19.2536  -16.0333 C   0  0  0  0  0  0  0  0  0  0  0  0
   24.7303  -20.1228  -15.9577 O   0  0  0  0  0  0  0  0  0  0  0  0
   26.7593  -19.4106  -15.1595 N   0  0  0  0  0  0  0  0  0  0  0  0
   26.8747  -20.5296  -14.2564 C   0  0  1  0  0  0  0  0  0  0  0  0
   28.2244  -21.1414  -14.1635 C   0  0  0  0  0  0  0  0  0  0  0  0
   28.7064  -21.9212  -15.2954 C   0  0  0  0  0  0  0  0  0  0  0  0
   28.1609  -22.2790  -16.4754 C   0  0  0  0  0  0  0  0  0  0  0  0
   29.0346  -23.0090  -17.2229 N   0  0  0  0  0  0  0  0  0  0  0  0
   30.1315  -23.0869  -16.4653 C   0  0  0  0  0  0  0  0  0  0  0  0
   29.9749  -22.4537  -15.3150 N   0  0  0  0  0  0  0  0  0  0  0  0
   26.4371  -20.1110  -12.9073 C   0  0  0  0  0  0  0  0  0  0  0  0
   26.6801  -18.9601  -12.5198 O   0  0  0  0  0  0  0  0  0  0  0  0
   21.4616  -19.3244  -10.3126 C   0  0  0  0  0  0  0  0  0  0  0  0
   22.8881  -19.7116  -10.0031 C   0  0  0  0  0  0  0  0  0  0  0  0
   23.6133  -20.2880  -11.1797 C   0  0  2  0  0  0  0  0  0  0  0  0
   22.8782  -21.5308  -11.6134 C   0  0  0  0  0  0  0  0  0  0  0  0
   25.0584  -20.5498  -10.8955 C   0  0  2  0  0  0  0  0  0  0  0  0
   25.7544  -21.0193  -12.0850 N   0  0  0  0  0  0  0  0  0  0  0  0
   25.2296  -21.5514   -9.8307 C   0  0  0  0  0  0  0  0  0  0  0  0
   25.1230  -21.1807   -8.4885 O   0  0  0  0  0  0  0  0  0  0  0  0
   25.4751  -22.7710  -10.0215 O   0  0  0  0  0  0  0  0  0  0  0  0
  2  1  1  6
  2 10  1  0
  2  3  1  0
  3  4  1  0
  4  9  2  0
  5  6  2  0
  5  4  1  0
  6  7  1  0
  7  8  2  0
  9  8  1  0
 10 12  1  0
 10 11  2  0
 12 13  1  0
 13 20  1  0
 14 15  1  0
 13 14  1  1
 15 19  1  0
 15 16  2  0
 16 17  1  0
 18 17  1  0
 19 18  2  0
 20 27  1  0
 20 21  2  0
 22 23  1  0
 23 24  1  0
 24 26  1  0
 24 25  1  1
 26 28  1  0
 26 27  1  6
 28 30  2  0
 28 29  1  0
M  END
$$$$
