DRP.pdb
     RDKit          3D

 27 27  0  0  1  0  0  0  0  0999 V2000
   17.2645  -13.7163  -16.4897 N   0  0  0  0  0  0  0  0  0  0  0  0
   18.3735  -12.9838  -15.7963 C   0  0  1  0  0  0  0  0  0  0  0  0
   19.5078  -12.9300  -16.7387 C   0  0  0  0  0  0  0  0  0  0  0  0
   20.2087  -14.2059  -16.9900 C   0  0  0  0  0  0  0  0  0  0  0  0
   20.4504  -14.6589  -18.1355 O   0  0  0  0  0  0  0  0  0  0  0  0
   17.7510  -11.7023  -15.4174 C   0  0  0  0  0  0  0  0  0  0  0  0
   16.6814  -11.3373  -16.0536 O   0  0  0  0  0  0  0  0  0  0  0  0
   20.6558  -15.0041  -15.9205 O   0  0  0  0  0  0  0  0  0  0  0  0
   14.2757   -8.8545   -8.2318 N   0  0  0  0  0  0  0  0  0  0  0  0
   14.6988   -7.6445   -8.8384 C   0  0  0  0  0  0  0  0  0  0  0  0
   14.7025   -6.5166   -8.2072 N   0  0  0  0  0  0  0  0  0  0  0  0
   15.1419   -7.6340  -10.1911 N   0  0  0  0  0  0  0  0  0  0  0  0
   15.9276   -8.7507  -10.6765 C   0  0  0  0  0  0  0  0  0  0  0  0
   16.2866   -8.5041  -12.1480 C   0  0  0  0  0  0  0  0  0  0  0  0
   17.0681   -9.6989  -12.6728 C   0  0  0  0  0  0  0  0  0  0  0  0
   17.4179   -9.5730  -14.1357 C   0  0  2  0  0  0  0  0  0  0  0  0
   18.1970  -10.8111  -14.4269 N   0  0  0  0  0  0  0  0  0  0  0  0
   18.3120   -8.3893  -14.4018 C   0  0  0  0  0  0  0  0  0  0  0  0
   19.3163   -8.3532  -13.6100 O   0  0  0  0  0  0  0  0  0  0  0  0
   14.9793   -5.6163   -8.6494 N   0  0  0  0  0  0  0  0  0  0  0  0
   18.0469   -7.4591  -15.4043 C   0  0  0  0  0  0  0  0  0  0  0  0
   17.0063   -7.6618  -16.4390 C   0  0  0  0  0  0  0  0  0  0  0  0
   16.3833   -6.2948  -16.6063 C   0  0  0  0  0  0  0  0  0  0  0  0
   17.2414   -5.3727  -15.7685 C   0  0  2  0  0  0  0  0  0  0  0  0
   18.5697   -6.1953  -15.7378 C   0  0  0  0  0  0  0  0  0  0  0  0
   19.5438   -5.5370  -14.8995 O   0  0  0  0  0  0  0  0  0  0  0  0
   20.3230   -4.4493  -15.3821 O   0  0  0  0  0  0  0  0  0  0  0  0
  2  1  1  6
  2  3  1  0
  4  3  1  0
  4  8  1  0
  5  4  2  0
  6  7  2  0
  6  2  1  0
  9 10  1  0
 10 12  1  0
 11 10  2  0
 12 13  1  0
 13 14  1  0
 15 14  1  0
 16 15  1  1
 16 17  1  0
 17  6  1  0
 18 16  1  0
 19 18  2  0
 20 18  1  0
 20 21  1  0
 22 21  1  0
 23 22  1  0
 24 23  1  0
 24 20  1  0
 25 26  1  0
 24 25  1  6
 27 25  2  0
M  END
$$$$
