DRP.pdb
     RDKit          3D

 27 27  0  0  1  0  0  0  0  0999 V2000
   23.8891  -21.5554  -12.2061 N   0  0  0  0  0  0  0  0  0  0  0  0
   24.6902  -20.3610  -11.7833 C   0  0  1  0  0  0  0  0  0  0  0  0
   25.0084  -20.5415  -10.3537 C   0  0  0  0  0  0  0  0  0  0  0  0
   23.8600  -20.5427   -9.4244 C   0  0  0  0  0  0  0  0  0  0  0  0
   22.6619  -20.4664   -9.7911 O   0  0  0  0  0  0  0  0  0  0  0  0
   25.8205  -20.3562  -12.7297 C   0  0  0  0  0  0  0  0  0  0  0  0
   26.7784  -19.5062  -12.5245 O   0  0  0  0  0  0  0  0  0  0  0  0
   24.0594  -20.6327   -8.0341 O   0  0  0  0  0  0  0  0  0  0  0  0
   30.7012  -26.1930  -16.7327 N   0  0  0  0  0  0  0  0  0  0  0  0
   31.1937  -24.9821  -17.2822 C   0  0  0  0  0  0  0  0  0  0  0  0
   32.2281  -24.9419  -18.0563 N   0  0  0  0  0  0  0  0  0  0  0  0
   30.5505  -23.7458  -16.9919 N   0  0  0  0  0  0  0  0  0  0  0  0
   29.3118  -23.7636  -16.2402 C   0  0  0  0  0  0  0  0  0  0  0  0
   28.8548  -22.3184  -16.0002 C   0  0  0  0  0  0  0  0  0  0  0  0
   27.6373  -22.3303  -15.0883 C   0  0  0  0  0  0  0  0  0  0  0  0
   27.1097  -20.9462  -14.7979 C   0  0  2  0  0  0  0  0  0  0  0  0
   25.9788  -21.1831  -13.8546 N   0  0  0  0  0  0  0  0  0  0  0  0
   26.5530  -20.2845  -16.0322 C   0  0  0  0  0  0  0  0  0  0  0  0
   25.7974  -21.0690  -16.7034 O   0  0  0  0  0  0  0  0  0  0  0  0
   32.5815  -24.0651  -18.4911 N   0  0  0  0  0  0  0  0  0  0  0  0
   26.8467  -18.9665  -16.3744 C   0  0  0  0  0  0  0  0  0  0  0  0
   27.4735  -18.0088  -15.4337 C   0  0  0  0  0  0  0  0  0  0  0  0
   28.4433  -17.2307  -16.2934 C   0  0  0  0  0  0  0  0  0  0  0  0
   28.1672  -17.6951  -17.7065 C   0  0  2  0  0  0  0  0  0  0  0  0
   26.6960  -18.1957  -17.5426 C   0  0  0  0  0  0  0  0  0  0  0  0
   26.2287  -18.7808  -18.7772 O   0  0  0  0  0  0  0  0  0  0  0  0
   26.9423  -19.8323  -19.4160 O   0  0  0  0  0  0  0  0  0  0  0  0
  2  1  1  6
  2  3  1  0
  4  3  1  0
  4  8  1  0
  5  4  2  0
  6  7  2  0
  6  2  1  0
  9 10  1  0
 10 12  1  0
 11 10  2  0
 12 13  1  0
 13 14  1  0
 15 14  1  0
 16 15  1  6
 16 17  1  0
 17  6  1  0
 18 16  1  0
 19 18  2  0
 20 18  1  0
 20 21  1  0
 22 21  1  0
 23 22  1  0
 24 23  1  0
 24 20  1  0
 25 26  1  0
 24 25  1  6
 27 25  2  0
M  END
$$$$
