DRP.pdb
     RDKit          3D

 27 27  0  0  1  0  0  0  0  0999 V2000
   28.9565  -22.6078  -16.4057 N   0  0  0  0  0  0  0  0  0  0  0  0
   27.5272  -22.5515  -16.8544 C   0  0  1  0  0  0  0  0  0  0  0  0
   27.0532  -23.9454  -16.9539 C   0  0  0  0  0  0  0  0  0  0  0  0
   27.4879  -24.6992  -18.1477 C   0  0  0  0  0  0  0  0  0  0  0  0
   27.1563  -25.8862  -18.3861 O   0  0  0  0  0  0  0  0  0  0  0  0
   26.8858  -21.6922  -15.8428 C   0  0  0  0  0  0  0  0  0  0  0  0
   27.5127  -21.5038  -14.7231 O   0  0  0  0  0  0  0  0  0  0  0  0
   28.3239  -24.1028  -19.1102 O   0  0  0  0  0  0  0  0  0  0  0  0
   20.8110  -16.0917  -17.1597 N   0  0  0  0  0  0  0  0  0  0  0  0
   20.7007  -17.4621  -16.8122 C   0  0  0  0  0  0  0  0  0  0  0  0
   19.7340  -18.2091  -17.2347 N   0  0  0  0  0  0  0  0  0  0  0  0
   21.6720  -18.0712  -15.9685 N   0  0  0  0  0  0  0  0  0  0  0  0
   22.7091  -17.2426  -15.3874 C   0  0  0  0  0  0  0  0  0  0  0  0
   23.6771  -18.1363  -14.6003 C   0  0  0  0  0  0  0  0  0  0  0  0
   24.3400  -19.1122  -15.5605 C   0  0  0  0  0  0  0  0  0  0  0  0
   25.1651  -20.1600  -14.8535 C   0  0  2  0  0  0  0  0  0  0  0  0
   25.6444  -21.0439  -15.9552 N   0  0  0  0  0  0  0  0  0  0  0  0
   24.3316  -20.9967  -13.9172 C   0  0  0  0  0  0  0  0  0  0  0  0
   23.3269  -21.5269  -14.5057 O   0  0  0  0  0  0  0  0  0  0  0  0
   19.6076  -19.1990  -16.9403 N   0  0  0  0  0  0  0  0  0  0  0  0
   24.6474  -21.1550  -12.5696 C   0  0  0  0  0  0  0  0  0  0  0  0
   26.0384  -21.1458  -12.0600 C   0  0  0  0  0  0  0  0  0  0  0  0
   25.9478  -20.3825  -10.7585 C   0  0  0  0  0  0  0  0  0  0  0  0
   24.4671  -20.1614  -10.5411 C   0  0  2  0  0  0  0  0  0  0  0  0
   23.8914  -21.3360  -11.3961 C   0  0  0  0  0  0  0  0  0  0  0  0
   22.4486  -21.2796  -11.4121 O   0  0  0  0  0  0  0  0  0  0  0  0
   21.6664  -22.0538  -10.5112 O   0  0  0  0  0  0  0  0  0  0  0  0
  2  1  1  1
  2  3  1  0
  4  3  1  0
  4  8  1  0
  5  4  2  0
  6  7  2  0
  6  2  1  0
  9 10  1  0
 10 12  1  0
 11 10  2  0
 12 13  1  0
 13 14  1  0
 15 14  1  0
 16 15  1  6
 16 17  1  0
 17  6  1  0
 18 16  1  0
 19 18  2  0
 20 18  1  0
 20 21  1  0
 22 21  1  0
 23 22  1  0
 24 23  1  0
 24 20  1  0
 25 26  1  0
 24 25  1  1
 27 25  2  0
M  END
$$$$
