DRP.pdb
     RDKit          3D

 27 27  0  0  1  0  0  0  0  0999 V2000
   21.9458  -21.3175  -11.5412 N   0  0  0  0  0  0  0  0  0  0  0  0
   22.0511  -21.0314  -13.0090 C   0  0  1  0  0  0  0  0  0  0  0  0
   20.8552  -20.2512  -13.3814 C   0  0  0  0  0  0  0  0  0  0  0  0
   19.5835  -20.9997  -13.4528 C   0  0  0  0  0  0  0  0  0  0  0  0
   19.4738  -22.1491  -13.9453 O   0  0  0  0  0  0  0  0  0  0  0  0
   23.3583  -20.3612  -13.1329 C   0  0  0  0  0  0  0  0  0  0  0  0
   23.7179  -19.5552  -12.1826 O   0  0  0  0  0  0  0  0  0  0  0  0
   18.3913  -20.4418  -12.9548 O   0  0  0  0  0  0  0  0  0  0  0  0
   30.7481  -22.3356  -10.8137 N   0  0  0  0  0  0  0  0  0  0  0  0
   29.8874  -21.5837   -9.9742 C   0  0  0  0  0  0  0  0  0  0  0  0
   30.2387  -21.1918   -8.7936 N   0  0  0  0  0  0  0  0  0  0  0  0
   28.5809  -21.2296  -10.4148 N   0  0  0  0  0  0  0  0  0  0  0  0
   28.3017  -21.2250  -11.8367 C   0  0  0  0  0  0  0  0  0  0  0  0
   26.8382  -20.8180  -12.0549 C   0  0  0  0  0  0  0  0  0  0  0  0
   26.4847  -21.0130  -13.5215 C   0  0  0  0  0  0  0  0  0  0  0  0
   25.6354  -19.8936  -14.0729 C   0  0  2  0  0  0  0  0  0  0  0  0
   24.2761  -20.4968  -14.1880 N   0  0  0  0  0  0  0  0  0  0  0  0
   26.0766  -19.4782  -15.4528 C   0  0  0  0  0  0  0  0  0  0  0  0
   26.2595  -20.4815  -16.2253 O   0  0  0  0  0  0  0  0  0  0  0  0
   29.6075  -20.6644   -8.1563 N   0  0  0  0  0  0  0  0  0  0  0  0
   26.2549  -18.1446  -15.8139 C   0  0  0  0  0  0  0  0  0  0  0  0
   25.7906  -17.0130  -14.9781 C   0  0  0  0  0  0  0  0  0  0  0  0
   26.8971  -15.9900  -15.0974 C   0  0  0  0  0  0  0  0  0  0  0  0
   27.8366  -16.5551  -16.1398 C   0  0  2  0  0  0  0  0  0  0  0  0
   26.8516  -17.4928  -16.9096 C   0  0  0  0  0  0  0  0  0  0  0  0
   27.5598  -18.2284  -17.9305 O   0  0  0  0  0  0  0  0  0  0  0  0
   27.3048  -18.0109  -19.3128 O   0  0  0  0  0  0  0  0  0  0  0  0
  2  1  1  1
  2  3  1  0
  4  3  1  0
  4  8  1  0
  5  4  2  0
  6  7  2  0
  6  2  1  0
  9 10  1  0
 10 12  1  0
 11 10  2  0
 12 13  1  0
 13 14  1  0
 15 14  1  0
 16 15  1  6
 16 17  1  0
 17  6  1  0
 18 16  1  0
 19 18  2  0
 20 18  1  0
 20 21  1  0
 22 21  1  0
 23 22  1  0
 24 23  1  0
 24 20  1  0
 25 26  1  0
 24 25  1  1
 27 25  2  0
M  END
$$$$
