DRP.pdb
     RDKit          3D

 27 27  0  0  1  0  0  0  0  0999 V2000
   22.0678  -11.3290  -19.9913 N   0  0  0  0  0  0  0  0  0  0  0  0
   22.7130  -11.1082  -18.6562 C   0  0  1  0  0  0  0  0  0  0  0  0
   24.1048  -10.6921  -18.9154 C   0  0  0  0  0  0  0  0  0  0  0  0
   25.0211  -11.7444  -19.4006 C   0  0  0  0  0  0  0  0  0  0  0  0
   24.8404  -12.9722  -19.2125 O   0  0  0  0  0  0  0  0  0  0  0  0
   21.8258  -10.1259  -18.0071 C   0  0  0  0  0  0  0  0  0  0  0  0
   21.3502   -9.1648  -18.7366 O   0  0  0  0  0  0  0  0  0  0  0  0
   26.1819  -11.4106  -20.1230 O   0  0  0  0  0  0  0  0  0  0  0  0
   14.4248  -10.7519  -14.4468 N   0  0  0  0  0  0  0  0  0  0  0  0
   15.6135  -11.4837  -14.6962 C   0  0  0  0  0  0  0  0  0  0  0  0
   15.6006  -12.7187  -15.0775 N   0  0  0  0  0  0  0  0  0  0  0  0
   16.8862  -10.8678  -14.5302 N   0  0  0  0  0  0  0  0  0  0  0  0
   17.0553   -9.4916  -14.9511 C   0  0  0  0  0  0  0  0  0  0  0  0
   18.4775   -9.0350  -14.5992 C   0  0  0  0  0  0  0  0  0  0  0  0
   19.4753   -9.9054  -15.3481 C   0  0  0  0  0  0  0  0  0  0  0  0
   20.4409   -9.1017  -16.1849 C   0  0  2  0  0  0  0  0  0  0  0  0
   21.4322  -10.1106  -16.6584 N   0  0  0  0  0  0  0  0  0  0  0  0
   21.1795   -8.0758  -15.3643 C   0  0  0  0  0  0  0  0  0  0  0  0
   21.6662   -8.5733  -14.2908 O   0  0  0  0  0  0  0  0  0  0  0  0
   16.4650  -13.2724  -15.2472 N   0  0  0  0  0  0  0  0  0  0  0  0
   21.3007   -6.7452  -15.7587 C   0  0  0  0  0  0  0  0  0  0  0  0
   20.8988   -6.2611  -17.0999 C   0  0  0  0  0  0  0  0  0  0  0  0
   20.2620   -4.9170  -16.8296 C   0  0  0  0  0  0  0  0  0  0  0  0
   20.5069   -4.6609  -15.3589 C   0  0  2  0  0  0  0  0  0  0  0  0
   21.7572   -5.5704  -15.1320 C   0  0  0  0  0  0  0  0  0  0  0  0
   22.1362   -5.5572  -13.7387 O   0  0  0  0  0  0  0  0  0  0  0  0
   21.6669   -6.5488  -12.8334 O   0  0  0  0  0  0  0  0  0  0  0  0
  2  1  1  6
  2  3  1  0
  4  3  1  0
  4  8  1  0
  5  4  2  0
  6  7  2  0
  6  2  1  0
  9 10  1  0
 10 12  1  0
 11 10  2  0
 12 13  1  0
 13 14  1  0
 15 14  1  0
 16 15  1  1
 16 17  1  0
 17  6  1  0
 18 16  1  0
 19 18  2  0
 20 18  1  0
 20 21  1  0
 22 21  1  0
 23 22  1  0
 24 23  1  0
 24 20  1  0
 25 26  1  0
 24 25  1  1
 27 25  2  0
M  END
$$$$
