DRP.pdb
     RDKit          3D

 27 27  0  0  1  0  0  0  0  0999 V2000
   20.3534  -21.0744  -14.1659 N   0  0  0  0  0  0  0  0  0  0  0  0
   20.4094  -19.5769  -14.2077 C   0  0  1  0  0  0  0  0  0  0  0  0
   19.4730  -19.0833  -13.1795 C   0  0  0  0  0  0  0  0  0  0  0  0
   18.0471  -19.4106  -13.3840 C   0  0  0  0  0  0  0  0  0  0  0  0
   17.6426  -20.4361  -13.9843 O   0  0  0  0  0  0  0  0  0  0  0  0
   21.8408  -19.2837  -14.0120 C   0  0  0  0  0  0  0  0  0  0  0  0
   22.1675  -18.0868  -13.6341 O   0  0  0  0  0  0  0  0  0  0  0  0
   17.0367  -18.5594  -12.8988 O   0  0  0  0  0  0  0  0  0  0  0  0
   29.2586  -21.2398  -10.5172 N   0  0  0  0  0  0  0  0  0  0  0  0
   27.9409  -21.1327  -10.0044 C   0  0  0  0  0  0  0  0  0  0  0  0
   27.6957  -20.7306   -8.8007 N   0  0  0  0  0  0  0  0  0  0  0  0
   26.8224  -21.4726  -10.8168 N   0  0  0  0  0  0  0  0  0  0  0  0
   27.0395  -21.7470  -12.2230 C   0  0  0  0  0  0  0  0  0  0  0  0
   26.4682  -20.5874  -13.0501 C   0  0  0  0  0  0  0  0  0  0  0  0
   24.9632  -20.7671  -13.1790 C   0  0  0  0  0  0  0  0  0  0  0  0
   24.3148  -19.6920  -14.0170 C   0  0  2  0  0  0  0  0  0  0  0  0
   22.9139  -20.1717  -14.1963 N   0  0  0  0  0  0  0  0  0  0  0  0
   24.9458  -19.5834  -15.3815 C   0  0  0  0  0  0  0  0  0  0  0  0
   24.7818  -20.6448  -16.0767 O   0  0  0  0  0  0  0  0  0  0  0  0
   26.7334  -20.6269   -8.4188 N   0  0  0  0  0  0  0  0  0  0  0  0
   25.6227  -18.4425  -15.8065 C   0  0  0  0  0  0  0  0  0  0  0  0
   25.5844  -17.1590  -15.0678 C   0  0  0  0  0  0  0  0  0  0  0  0
   26.9966  -16.6307  -15.1758 C   0  0  0  0  0  0  0  0  0  0  0  0
   27.6947  -17.5816  -16.1230 C   0  0  2  0  0  0  0  0  0  0  0  0
   26.4598  -18.1439  -16.8981 C   0  0  0  0  0  0  0  0  0  0  0  0
   26.8790  -19.1654  -17.8286 O   0  0  0  0  0  0  0  0  0  0  0  0
   27.6600  -20.2769  -17.4071 O   0  0  0  0  0  0  0  0  0  0  0  0
  2  1  1  1
  2  3  1  0
  4  3  1  0
  4  8  1  0
  5  4  2  0
  6  7  2  0
  6  2  1  0
  9 10  1  0
 10 12  1  0
 11 10  2  0
 12 13  1  0
 13 14  1  0
 15 14  1  0
 16 15  1  1
 16 17  1  0
 17  6  1  0
 18 16  1  0
 19 18  2  0
 20 18  1  0
 20 21  1  0
 22 21  1  0
 23 22  1  0
 24 23  1  0
 24 20  1  0
 25 26  1  0
 24 25  1  1
 27 25  2  0
M  END
$$$$
