DRP.pdb
     RDKit          3D

 27 27  0  0  1  0  0  0  0  0999 V2000
   20.9853  -17.5977  -18.0179 N   0  0  0  0  0  0  0  0  0  0  0  0
   22.1329  -16.7105  -17.6393 C   0  0  1  0  0  0  0  0  0  0  0  0
   21.5853  -15.3515  -17.4639 C   0  0  0  0  0  0  0  0  0  0  0  0
   20.9927  -14.7265  -18.6642 C   0  0  0  0  0  0  0  0  0  0  0  0
   20.9306  -15.2849  -19.7867 O   0  0  0  0  0  0  0  0  0  0  0  0
   22.6943  -17.3699  -16.4462 C   0  0  0  0  0  0  0  0  0  0  0  0
   23.5896  -16.7260  -15.7636 O   0  0  0  0  0  0  0  0  0  0  0  0
   20.4495  -13.4295  -18.6062 O   0  0  0  0  0  0  0  0  0  0  0  0
   19.3146  -22.6990  -10.4639 N   0  0  0  0  0  0  0  0  0  0  0  0
   20.6163  -22.4483   -9.9603 C   0  0  0  0  0  0  0  0  0  0  0  0
   20.9921  -22.8357   -8.7858 N   0  0  0  0  0  0  0  0  0  0  0  0
   21.5706  -21.7464  -10.7497 N   0  0  0  0  0  0  0  0  0  0  0  0
   21.1476  -21.1783  -12.0139 C   0  0  0  0  0  0  0  0  0  0  0  0
   22.3299  -20.4287  -12.6427 C   0  0  0  0  0  0  0  0  0  0  0  0
   21.8829  -19.8206  -13.9634 C   0  0  0  0  0  0  0  0  0  0  0  0
   23.0109  -19.1533  -14.7123 C   0  0  2  0  0  0  0  0  0  0  0  0
   22.3652  -18.6452  -15.9571 N   0  0  0  0  0  0  0  0  0  0  0  0
   24.0808  -20.1363  -15.1131 C   0  0  0  0  0  0  0  0  0  0  0  0
   23.5923  -21.2580  -15.4872 O   0  0  0  0  0  0  0  0  0  0  0  0
   21.9588  -22.7046   -8.4241 N   0  0  0  0  0  0  0  0  0  0  0  0
   25.4383  -19.8269  -15.0702 C   0  0  0  0  0  0  0  0  0  0  0  0
   25.9464  -18.4486  -14.8779 C   0  0  0  0  0  0  0  0  0  0  0  0
   27.1386  -18.6205  -13.9647 C   0  0  0  0  0  0  0  0  0  0  0  0
   27.3216  -20.1174  -13.8440 C   0  0  2  0  0  0  0  0  0  0  0  0
   26.6233  -20.5810  -15.1629 C   0  0  0  0  0  0  0  0  0  0  0  0
   26.5962  -22.0230  -15.2316 O   0  0  0  0  0  0  0  0  0  0  0  0
   27.7431  -22.7684  -15.6214 O   0  0  0  0  0  0  0  0  0  0  0  0
  2  1  1  1
  2  3  1  0
  4  3  1  0
  4  8  1  0
  5  4  2  0
  6  7  2  0
  6  2  1  0
  9 10  1  0
 10 12  1  0
 11 10  2  0
 12 13  1  0
 13 14  1  0
 15 14  1  0
 16 15  1  1
 16 17  1  0
 17  6  1  0
 18 16  1  0
 19 18  2  0
 20 18  1  0
 20 21  1  0
 22 21  1  0
 23 22  1  0
 24 23  1  0
 24 20  1  0
 25 26  1  0
 24 25  1  1
 27 25  2  0
M  END
$$$$
