DRP.pdb
     RDKit          3D

 27 27  0  0  1  0  0  0  0  0999 V2000
   26.9231  -25.4219  -16.2697 N   0  0  0  0  0  0  0  0  0  0  0  0
   27.0651  -23.9758  -15.9011 C   0  0  1  0  0  0  0  0  0  0  0  0
   27.9117  -23.3501  -16.9352 C   0  0  0  0  0  0  0  0  0  0  0  0
   27.9923  -21.8753  -16.9085 C   0  0  0  0  0  0  0  0  0  0  0  0
   27.4326  -21.1585  -16.0433 O   0  0  0  0  0  0  0  0  0  0  0  0
   25.6697  -23.5109  -15.8007 C   0  0  0  0  0  0  0  0  0  0  0  0
   24.8337  -23.9037  -16.7111 O   0  0  0  0  0  0  0  0  0  0  0  0
   28.7261  -21.1770  -17.8856 O   0  0  0  0  0  0  0  0  0  0  0  0
   19.4231  -26.0581  -13.8096 N   0  0  0  0  0  0  0  0  0  0  0  0
   20.1302  -25.7560  -12.6181 C   0  0  0  0  0  0  0  0  0  0  0  0
   20.0028  -26.4569  -11.5395 N   0  0  0  0  0  0  0  0  0  0  0  0
   21.0215  -24.6470  -12.5714 N   0  0  0  0  0  0  0  0  0  0  0  0
   20.8211  -23.5517  -13.4987 C   0  0  0  0  0  0  0  0  0  0  0  0
   21.7815  -22.4109  -13.1360 C   0  0  0  0  0  0  0  0  0  0  0  0
   23.2047  -22.8432  -13.4548 C   0  0  0  0  0  0  0  0  0  0  0  0
   23.6727  -22.3649  -14.8077 C   0  0  2  0  0  0  0  0  0  0  0  0
   25.1328  -22.6697  -14.8116 N   0  0  0  0  0  0  0  0  0  0  0  0
   23.5098  -20.8750  -14.9664 C   0  0  0  0  0  0  0  0  0  0  0  0
   23.9188  -20.2309  -13.9394 O   0  0  0  0  0  0  0  0  0  0  0  0
   20.5464  -26.2722  -10.6717 N   0  0  0  0  0  0  0  0  0  0  0  0
   22.9721  -20.2969  -16.1142 C   0  0  0  0  0  0  0  0  0  0  0  0
   22.8644  -21.0153  -17.4053 C   0  0  0  0  0  0  0  0  0  0  0  0
   21.5261  -20.5803  -17.9572 C   0  0  0  0  0  0  0  0  0  0  0  0
   21.0467  -19.5042  -17.0080 C   0  0  2  0  0  0  0  0  0  0  0  0
   22.4157  -19.0393  -16.4149 C   0  0  0  0  0  0  0  0  0  0  0  0
   22.2023  -18.0445  -15.3903 O   0  0  0  0  0  0  0  0  0  0  0  0
   22.4421  -16.6642  -15.6358 O   0  0  0  0  0  0  0  0  0  0  0  0
  2  1  1  6
  2  3  1  0
  4  3  1  0
  4  8  1  0
  5  4  2  0
  6  7  2  0
  6  2  1  0
  9 10  1  0
 10 12  1  0
 11 10  2  0
 12 13  1  0
 13 14  1  0
 15 14  1  0
 16 15  1  1
 16 17  1  0
 17  6  1  0
 18 16  1  0
 19 18  2  0
 20 18  1  0
 20 21  1  0
 22 21  1  0
 23 22  1  0
 24 23  1  0
 24 20  1  0
 25 26  1  0
 24 25  1  6
 27 25  2  0
M  END
$$$$
