IPM.pdb
     RDKit          3D

 24 24  0  0  1  0  0  0  0  0999 V2000
   21.4659  -16.8960  -15.2802 C   0  0  0  0  0  0  0  0  0  0  0  0
   21.9360  -18.3054  -15.6351 C   0  0  0  0  0  0  0  0  0  0  0  0
   23.1966  -18.1386  -16.4490 C   0  0  2  0  0  0  0  0  0  0  0  0
   22.7715  -17.5634  -17.7986 C   0  0  0  0  0  0  0  0  0  0  0  0
   23.8909  -19.4522  -16.7340 C   0  0  2  0  0  0  0  0  0  0  0  0
   23.0284  -20.3704  -17.3951 N   0  0  0  0  0  0  0  0  0  0  0  0
   24.5661  -20.0011  -15.5455 C   0  0  0  0  0  0  0  0  0  0  0  0
   23.9397  -20.7346  -14.7284 O   0  0  0  0  0  0  0  0  0  0  0  0
   25.9641  -19.7271  -15.2634 N   0  0  0  0  0  0  0  0  0  0  0  0
   26.8387  -19.0823  -16.2129 C   0  0  0  0  0  0  0  0  0  0  0  0
   28.2401  -19.1173  -15.5930 C   0  0  0  0  0  0  0  0  0  0  0  0
   27.9377  -19.2180  -14.1195 C   0  0  0  0  0  0  0  0  0  0  0  0
   26.6789  -20.0289  -14.0811 C   0  0  1  0  0  0  0  0  0  0  0  0
   25.9350  -19.6146  -12.8363 C   0  0  0  0  0  0  0  0  0  0  0  0
   25.3470  -18.5219  -12.7051 O   0  0  0  0  0  0  0  0  0  0  0  0
   20.4943  -18.6559  -10.8028 C   0  0  0  0  0  0  0  0  0  0  0  0
   20.9736  -20.1092   -9.8291 S   0  0  0  0  0  0  0  0  0  0  0  0
   22.7367  -20.0628   -9.5558 C   0  0  0  0  0  0  0  0  0  0  0  0
   23.5873  -20.2385  -10.7779 C   0  0  0  0  0  0  0  0  0  0  0  0
   25.0593  -20.2508  -10.5651 C   0  0  2  0  0  0  0  0  0  0  0  0
   25.8753  -20.5055  -11.7069 N   0  0  0  0  0  0  0  0  0  0  0  0
   25.3537  -21.3096   -9.5530 C   0  0  0  0  0  0  0  0  0  0  0  0
   26.0401  -22.4654   -9.8829 O   0  0  0  0  0  0  0  0  0  0  0  0
   24.9793  -21.1733   -8.3610 O   0  0  0  0  0  0  0  0  0  0  0  0
  2  3  1  0
  2  1  1  0
  3  5  1  0
  3  4  1  6
  5  6  1  1
  7  5  1  0
  8  7  2  0
  9  7  1  0
  9 10  1  0
 10 11  1  0
 12 11  1  0
 13 12  1  0
 13  9  1  0
 13 14  1  1
 15 14  2  0
 17 16  1  0
 17 18  1  0
 18 19  1  0
 20 19  1  6
 20 21  1  0
 21 14  1  0
 22 20  1  0
 22 23  1  0
 24 22  2  0
M  END
$$$$
