IPM.pdb
     RDKit          3D

 24 24  0  0  1  0  0  0  0  0999 V2000
   21.3654  -20.3652   -9.4479 C   0  0  0  0  0  0  0  0  0  0  0  0
   22.7998  -20.8725   -9.5844 C   0  0  0  0  0  0  0  0  0  0  0  0
   23.3120  -20.3437  -10.9026 C   0  0  2  0  0  0  0  0  0  0  0  0
   22.4221  -20.9446  -11.9889 C   0  0  0  0  0  0  0  0  0  0  0  0
   24.7270  -20.7860  -11.2038 C   0  0  2  0  0  0  0  0  0  0  0  0
   25.5924  -20.5713  -10.0951 N   0  0  0  0  0  0  0  0  0  0  0  0
   25.2269  -20.2429  -12.4785 C   0  0  0  0  0  0  0  0  0  0  0  0
   25.1347  -19.0083  -12.7345 O   0  0  0  0  0  0  0  0  0  0  0  0
   25.8398  -21.0914  -13.4852 N   0  0  0  0  0  0  0  0  0  0  0  0
   26.1625  -22.4771  -13.2448 C   0  0  0  0  0  0  0  0  0  0  0  0
   26.9180  -22.9602  -14.4878 C   0  0  0  0  0  0  0  0  0  0  0  0
   26.4267  -22.0119  -15.5518 C   0  0  0  0  0  0  0  0  0  0  0  0
   26.2133  -20.7334  -14.8013 C   0  0  1  0  0  0  0  0  0  0  0  0
   25.1238  -19.9830  -15.5256 C   0  0  0  0  0  0  0  0  0  0  0  0
   23.9227  -19.9972  -15.1879 O   0  0  0  0  0  0  0  0  0  0  0  0
   20.2940  -17.4949  -17.2970 C   0  0  0  0  0  0  0  0  0  0  0  0
   21.3697  -16.1718  -16.6787 S   0  0  0  0  0  0  0  0  0  0  0  0
   22.9838  -16.3491  -17.4194 C   0  0  0  0  0  0  0  0  0  0  0  0
   23.9546  -17.2043  -16.6618 C   0  0  0  0  0  0  0  0  0  0  0  0
   24.4794  -18.4008  -17.3726 C   0  0  2  0  0  0  0  0  0  0  0  0
   25.4470  -19.1896  -16.6827 N   0  0  0  0  0  0  0  0  0  0  0  0
   25.1057  -17.9247  -18.6426 C   0  0  0  0  0  0  0  0  0  0  0  0
   24.4076  -17.9004  -19.8376 O   0  0  0  0  0  0  0  0  0  0  0  0
   26.2987  -17.5294  -18.6556 O   0  0  0  0  0  0  0  0  0  0  0  0
  2  3  1  0
  2  1  1  0
  3  5  1  0
  3  4  1  6
  5  6  1  1
  7  5  1  0
  8  7  2  0
  9  7  1  0
  9 10  1  0
 10 11  1  0
 12 11  1  0
 13 12  1  0
 13  9  1  0
 13 14  1  6
 15 14  2  0
 17 16  1  0
 17 18  1  0
 18 19  1  0
 20 19  1  1
 20 21  1  0
 21 14  1  0
 22 20  1  0
 22 23  1  0
 24 22  2  0
M  END
$$$$
