IPM.pdb
     RDKit          3D

 24 24  0  0  1  0  0  0  0  0999 V2000
   21.5170  -25.6920    0.6949 C   0  0  0  0  0  0  0  0  0  0  0  0
   20.0737  -25.9918    1.0951 C   0  0  0  0  0  0  0  0  0  0  0  0
   19.7829  -25.1348    2.3036 C   0  0  2  0  0  0  0  0  0  0  0  0
   20.6162  -25.7019    3.4512 C   0  0  0  0  0  0  0  0  0  0  0  0
   18.3359  -25.2041    2.7395 C   0  0  2  0  0  0  0  0  0  0  0  0
   17.4476  -24.9685    1.6534 N   0  0  0  0  0  0  0  0  0  0  0  0
   18.0677  -24.3830    3.9326 C   0  0  0  0  0  0  0  0  0  0  0  0
   18.1393  -23.1221    3.8777 O   0  0  0  0  0  0  0  0  0  0  0  0
   17.7139  -24.9785    5.2090 N   0  0  0  0  0  0  0  0  0  0  0  0
   17.3810  -26.3753    5.3516 C   0  0  0  0  0  0  0  0  0  0  0  0
   16.9312  -26.5597    6.8052 C   0  0  0  0  0  0  0  0  0  0  0  0
   17.6214  -25.4155    7.5031 C   0  0  0  0  0  0  0  0  0  0  0  0
   17.6315  -24.3352    6.4657 C   0  0  1  0  0  0  0  0  0  0  0  0
   18.8348  -23.4720    6.7512 C   0  0  0  0  0  0  0  0  0  0  0  0
   19.8194  -23.3728    5.9910 O   0  0  0  0  0  0  0  0  0  0  0  0
   23.1619  -17.5387    7.2822 C   0  0  0  0  0  0  0  0  0  0  0  0
   21.5518  -18.2813    6.8998 S   0  0  0  0  0  0  0  0  0  0  0  0
   21.3637  -19.7736    7.8605 C   0  0  0  0  0  0  0  0  0  0  0  0
   20.1935  -20.6368    7.4950 C   0  0  0  0  0  0  0  0  0  0  0  0
   20.0028  -21.8717    8.3019 C   0  0  2  0  0  0  0  0  0  0  0  0
   18.8910  -22.6990    7.9644 N   0  0  0  0  0  0  0  0  0  0  0  0
   19.8387  -21.4516    9.7261 C   0  0  0  0  0  0  0  0  0  0  0  0
   20.8919  -21.4835   10.6237 O   0  0  0  0  0  0  0  0  0  0  0  0
   18.7239  -21.0535   10.1486 O   0  0  0  0  0  0  0  0  0  0  0  0
  2  3  1  0
  2  1  1  0
  3  5  1  0
  3  4  1  1
  5  6  1  6
  7  5  1  0
  8  7  2  0
  9  7  1  0
  9 10  1  0
 10 11  1  0
 12 11  1  0
 13 12  1  0
 13  9  1  0
 13 14  1  1
 15 14  2  0
 17 16  1  0
 17 18  1  0
 18 19  1  0
 20 19  1  6
 20 21  1  0
 21 14  1  0
 22 20  1  0
 22 23  1  0
 24 22  2  0
M  END
$$$$
