IPM.pdb
     RDKit          3D

 24 24  0  0  1  0  0  0  0  0999 V2000
   26.1854  -15.2197  -17.0502 C   0  0  0  0  0  0  0  0  0  0  0  0
   26.9287  -16.5485  -17.1719 C   0  0  0  0  0  0  0  0  0  0  0  0
   26.4377  -17.4136  -16.0361 C   0  0  2  0  0  0  0  0  0  0  0  0
   27.0269  -16.8270  -14.7548 C   0  0  0  0  0  0  0  0  0  0  0  0
   26.9298  -18.8412  -16.1288 C   0  0  2  0  0  0  0  0  0  0  0  0
   26.6093  -19.4275  -17.3848 N   0  0  0  0  0  0  0  0  0  0  0  0
   26.5344  -19.6494  -14.9625 C   0  0  0  0  0  0  0  0  0  0  0  0
   25.3194  -19.9279  -14.7523 O   0  0  0  0  0  0  0  0  0  0  0  0
   27.5110  -20.1556  -14.0144 N   0  0  0  0  0  0  0  0  0  0  0  0
   28.9338  -20.0598  -14.2352 C   0  0  0  0  0  0  0  0  0  0  0  0
   29.5956  -20.8336  -13.0895 C   0  0  0  0  0  0  0  0  0  0  0  0
   28.5441  -20.7733  -12.0109 C   0  0  0  0  0  0  0  0  0  0  0  0
   27.2595  -20.7995  -12.7807 C   0  0  1  0  0  0  0  0  0  0  0  0
   26.2394  -20.0669  -11.9456 C   0  0  0  0  0  0  0  0  0  0  0  0
   26.2264  -18.8294  -11.7858 O   0  0  0  0  0  0  0  0  0  0  0  0
   19.2880  -20.7709   -8.7911 C   0  0  0  0  0  0  0  0  0  0  0  0
   20.0862  -20.0742  -10.2633 S   0  0  0  0  0  0  0  0  0  0  0  0
   21.7954  -19.7295   -9.8825 C   0  0  0  0  0  0  0  0  0  0  0  0
   22.8032  -20.3596  -10.7964 C   0  0  0  0  0  0  0  0  0  0  0  0
   24.2337  -20.1794  -10.4309 C   0  0  2  0  0  0  0  0  0  0  0  0
   25.1998  -20.8031  -11.2748 N   0  0  0  0  0  0  0  0  0  0  0  0
   24.4136  -20.7293   -9.0535 C   0  0  0  0  0  0  0  0  0  0  0  0
   24.9356  -21.9921   -8.8330 O   0  0  0  0  0  0  0  0  0  0  0  0
   24.0903  -20.0478   -8.0482 O   0  0  0  0  0  0  0  0  0  0  0  0
  2  3  1  0
  2  1  1  0
  3  5  1  0
  3  4  1  1
  5  6  1  6
  7  5  1  0
  8  7  2  0
  9  7  1  0
  9 10  1  0
 10 11  1  0
 12 11  1  0
 13 12  1  0
 13  9  1  0
 13 14  1  1
 15 14  2  0
 17 16  1  0
 17 18  1  0
 18 19  1  0
 20 19  1  6
 20 21  1  0
 21 14  1  0
 22 20  1  0
 22 23  1  0
 24 22  2  0
M  END
$$$$
