IPM.pdb
     RDKit          3D

 24 24  0  0  1  0  0  0  0  0999 V2000
   20.3228  -19.3332  -14.3757 C   0  0  0  0  0  0  0  0  0  0  0  0
   21.4569  -20.1876  -14.9389 C   0  0  0  0  0  0  0  0  0  0  0  0
   22.3829  -20.4776  -13.7823 C   0  0  2  0  0  0  0  0  0  0  0  0
   23.0338  -19.1494  -13.4011 C   0  0  0  0  0  0  0  0  0  0  0  0
   23.5049  -21.4235  -14.1500 C   0  0  2  0  0  0  0  0  0  0  0  0
   23.0197  -22.5772  -14.8263 N   0  0  0  0  0  0  0  0  0  0  0  0
   24.3910  -21.7153  -13.0101 C   0  0  0  0  0  0  0  0  0  0  0  0
   23.9642  -22.3587  -12.0090 O   0  0  0  0  0  0  0  0  0  0  0  0
   25.7769  -21.2820  -12.9861 N   0  0  0  0  0  0  0  0  0  0  0  0
   26.4042  -20.6154  -14.1016 C   0  0  0  0  0  0  0  0  0  0  0  0
   27.8839  -20.4661  -13.7311 C   0  0  0  0  0  0  0  0  0  0  0  0
   27.8434  -20.4998  -12.2244 C   0  0  0  0  0  0  0  0  0  0  0  0
   26.7071  -21.4305  -11.9314 C   0  0  1  0  0  0  0  0  0  0  0  0
   26.1384  -21.0132  -10.5983 C   0  0  0  0  0  0  0  0  0  0  0  0
   25.1227  -20.3008  -10.4645 O   0  0  0  0  0  0  0  0  0  0  0  0
   30.0640  -20.5151   -5.1862 C   0  0  0  0  0  0  0  0  0  0  0  0
   28.4251  -20.7232   -4.4374 S   0  0  0  0  0  0  0  0  0  0  0  0
   27.1826  -20.4784   -5.6949 C   0  0  0  0  0  0  0  0  0  0  0  0
   27.4418  -21.1612   -7.0043 C   0  0  0  0  0  0  0  0  0  0  0  0
   26.5054  -20.8425   -8.1152 C   0  0  2  0  0  0  0  0  0  0  0  0
   26.7764  -21.4416   -9.3809 N   0  0  0  0  0  0  0  0  0  0  0  0
   26.5252  -19.3604   -8.3023 C   0  0  0  0  0  0  0  0  0  0  0  0
   25.6258  -18.5300   -7.6564 O   0  0  0  0  0  0  0  0  0  0  0  0
   27.3716  -18.8254   -9.0619 O   0  0  0  0  0  0  0  0  0  0  0  0
  2  3  1  0
  2  1  1  0
  3  5  1  0
  3  4  1  6
  5  6  1  1
  7  5  1  0
  8  7  2  0
  9  7  1  0
  9 10  1  0
 10 11  1  0
 12 11  1  0
 13 12  1  0
 13  9  1  0
 13 14  1  1
 15 14  2  0
 17 16  1  0
 17 18  1  0
 18 19  1  0
 20 19  1  1
 20 21  1  0
 21 14  1  0
 22 20  1  0
 22 23  1  0
 24 22  2  0
M  END
$$$$
