IPM.pdb
     RDKit          3D

 24 24  0  0  1  0  0  0  0  0999 V2000
   12.8146  -12.1891  -15.8242 C   0  0  0  0  0  0  0  0  0  0  0  0
   14.3412  -12.1652  -15.8701 C   0  0  0  0  0  0  0  0  0  0  0  0
   14.7831  -11.2320  -14.7686 C   0  0  2  0  0  0  0  0  0  0  0  0
   14.4627   -9.8156  -15.2423 C   0  0  0  0  0  0  0  0  0  0  0  0
   16.2744  -11.2814  -14.5188 C   0  0  2  0  0  0  0  0  0  0  0  0
   16.7322  -12.6152  -14.3307 N   0  0  0  0  0  0  0  0  0  0  0  0
   16.7006  -10.3393  -13.4697 C   0  0  0  0  0  0  0  0  0  0  0  0
   16.1947  -10.3902  -12.3122 O   0  0  0  0  0  0  0  0  0  0  0  0
   17.7082   -9.3229  -13.7157 N   0  0  0  0  0  0  0  0  0  0  0  0
   18.4974   -9.2843  -14.9231 C   0  0  0  0  0  0  0  0  0  0  0  0
   19.5274   -8.1670  -14.7232 C   0  0  0  0  0  0  0  0  0  0  0  0
   18.8507   -7.2840  -13.7057 C   0  0  0  0  0  0  0  0  0  0  0  0
   18.0792   -8.2551  -12.8660 C   0  0  1  0  0  0  0  0  0  0  0  0
   16.8862   -7.5075  -12.3254 C   0  0  0  0  0  0  0  0  0  0  0  0
   15.8293   -7.3241  -12.9630 O   0  0  0  0  0  0  0  0  0  0  0  0
   12.6939   -9.2141   -7.3730 C   0  0  0  0  0  0  0  0  0  0  0  0
   13.8983   -7.8592   -7.3133 S   0  0  0  0  0  0  0  0  0  0  0  0
   14.3474   -7.4145   -8.9824 C   0  0  0  0  0  0  0  0  0  0  0  0
   15.4200   -6.3747   -9.1101 C   0  0  0  0  0  0  0  0  0  0  0  0
   15.9116   -6.0948  -10.4857 C   0  0  2  0  0  0  0  0  0  0  0  0
   16.9279   -6.9555  -10.9964 N   0  0  0  0  0  0  0  0  0  0  0  0
   16.4534   -4.7025  -10.4898 C   0  0  0  0  0  0  0  0  0  0  0  0
   17.7993   -4.4425  -10.6811 O   0  0  0  0  0  0  0  0  0  0  0  0
   15.6882   -3.7205  -10.3170 O   0  0  0  0  0  0  0  0  0  0  0  0
  2  3  1  0
  2  1  1  0
  3  5  1  0
  3  4  1  6
  5  6  1  1
  7  5  1  0
  8  7  2  0
  9  7  1  0
  9 10  1  0
 10 11  1  0
 12 11  1  0
 13 12  1  0
 13  9  1  0
 13 14  1  6
 15 14  2  0
 17 16  1  0
 17 18  1  0
 18 19  1  0
 20 19  1  1
 20 21  1  0
 21 14  1  0
 22 20  1  0
 22 23  1  0
 24 22  2  0
M  END
$$$$
