IPM.pdb
     RDKit          3D

 24 24  0  0  1  0  0  0  0  0999 V2000
   21.5651  -20.9622   -9.8110 C   0  0  0  0  0  0  0  0  0  0  0  0
   23.0553  -21.2361   -9.6165 C   0  0  0  0  0  0  0  0  0  0  0  0
   23.7658  -20.5347  -10.7490 C   0  0  2  0  0  0  0  0  0  0  0  0
   23.3149  -21.2196  -12.0376 C   0  0  0  0  0  0  0  0  0  0  0  0
   25.2700  -20.6815  -10.6804 C   0  0  2  0  0  0  0  0  0  0  0  0
   25.7676  -20.3938   -9.3789 N   0  0  0  0  0  0  0  0  0  0  0  0
   25.9558  -19.9601  -11.7661 C   0  0  0  0  0  0  0  0  0  0  0  0
   25.9364  -18.6970  -11.8148 O   0  0  0  0  0  0  0  0  0  0  0  0
   26.6755  -20.6594  -12.8159 N   0  0  0  0  0  0  0  0  0  0  0  0
   27.0341  -22.0538  -12.7190 C   0  0  0  0  0  0  0  0  0  0  0  0
   27.8990  -22.3574  -13.9474 C   0  0  0  0  0  0  0  0  0  0  0  0
   27.4514  -21.3008  -14.9252 C   0  0  0  0  0  0  0  0  0  0  0  0
   27.1319  -20.1312  -14.0457 C   0  0  1  0  0  0  0  0  0  0  0  0
   26.0707  -19.3309  -14.7584 C   0  0  0  0  0  0  0  0  0  0  0  0
   24.8704  -19.6653  -14.8247 O   0  0  0  0  0  0  0  0  0  0  0  0
   26.0793  -12.8397  -15.4010 C   0  0  0  0  0  0  0  0  0  0  0  0
   25.0580  -13.2208  -16.8507 S   0  0  0  0  0  0  0  0  0  0  0  0
   24.7726  -14.9817  -16.9067 C   0  0  0  0  0  0  0  0  0  0  0  0
   25.7008  -15.8159  -16.0757 C   0  0  0  0  0  0  0  0  0  0  0  0
   25.4659  -17.2845  -16.0913 C   0  0  2  0  0  0  0  0  0  0  0  0
   26.4221  -18.0991  -15.4157 N   0  0  0  0  0  0  0  0  0  0  0  0
   25.4346  -17.7149  -17.5216 C   0  0  0  0  0  0  0  0  0  0  0  0
   24.2471  -17.9977  -18.1740 O   0  0  0  0  0  0  0  0  0  0  0  0
   26.5017  -17.8319  -18.1752 O   0  0  0  0  0  0  0  0  0  0  0  0
  2  3  1  0
  2  1  1  0
  3  5  1  0
  3  4  1  6
  5  6  1  1
  7  5  1  0
  8  7  2  0
  9  7  1  0
  9 10  1  0
 10 11  1  0
 12 11  1  0
 13 12  1  0
 13  9  1  0
 13 14  1  6
 15 14  2  0
 17 16  1  0
 17 18  1  0
 18 19  1  0
 20 19  1  6
 20 21  1  0
 21 14  1  0
 22 20  1  0
 22 23  1  0
 24 22  2  0
M  END
$$$$
