IPM.pdb
     RDKit          3D

 24 24  0  0  1  0  0  0  0  0999 V2000
   21.7029  -14.2197  -20.9507 C   0  0  0  0  0  0  0  0  0  0  0  0
   22.8670  -14.3244  -19.9672 C   0  0  0  0  0  0  0  0  0  0  0  0
   22.6942  -13.1910  -18.9849 C   0  0  2  0  0  0  0  0  0  0  0  0
   23.1556  -11.9216  -19.6980 C   0  0  0  0  0  0  0  0  0  0  0  0
   23.5629  -13.3408  -17.7553 C   0  0  2  0  0  0  0  0  0  0  0  0
   23.4732  -14.6493  -17.2042 N   0  0  0  0  0  0  0  0  0  0  0  0
   23.3516  -12.2558  -16.7817 C   0  0  0  0  0  0  0  0  0  0  0  0
   22.1917  -11.9860  -16.3577 O   0  0  0  0  0  0  0  0  0  0  0  0
   24.4530  -11.4580  -16.2723 N   0  0  0  0  0  0  0  0  0  0  0  0
   25.8354  -11.7932  -16.5148 C   0  0  0  0  0  0  0  0  0  0  0  0
   26.6649  -10.8004  -15.6930 C   0  0  0  0  0  0  0  0  0  0  0  0
   25.7224   -9.6321  -15.5531 C   0  0  0  0  0  0  0  0  0  0  0  0
   24.3747  -10.2826  -15.4898 C   0  0  1  0  0  0  0  0  0  0  0  0
   23.3868   -9.2866  -16.0433 C   0  0  0  0  0  0  0  0  0  0  0  0
   23.1297   -9.1588  -17.2577 O   0  0  0  0  0  0  0  0  0  0  0  0
   16.7036   -6.0574  -17.1875 C   0  0  0  0  0  0  0  0  0  0  0  0
   17.6609   -7.3623  -16.3684 S   0  0  0  0  0  0  0  0  0  0  0  0
   19.3537   -6.8200  -16.2086 C   0  0  0  0  0  0  0  0  0  0  0  0
   20.3201   -7.8504  -15.7064 C   0  0  0  0  0  0  0  0  0  0  0  0
   21.7439   -7.4316  -15.6073 C   0  0  2  0  0  0  0  0  0  0  0  0
   22.6750   -8.4104  -15.1497 N   0  0  0  0  0  0  0  0  0  0  0  0
   21.8026   -6.2749  -14.6637 C   0  0  0  0  0  0  0  0  0  0  0  0
   21.6028   -4.9732  -15.0897 O   0  0  0  0  0  0  0  0  0  0  0  0
   22.0385   -6.4597  -13.4431 O   0  0  0  0  0  0  0  0  0  0  0  0
  2  3  1  0
  2  1  1  0
  3  5  1  0
  3  4  1  6
  5  6  1  1
  7  5  1  0
  8  7  2  0
  9  7  1  0
  9 10  1  0
 10 11  1  0
 12 11  1  0
 13 12  1  0
 13  9  1  0
 13 14  1  6
 15 14  2  0
 17 16  1  0
 17 18  1  0
 18 19  1  0
 20 19  1  1
 20 21  1  0
 21 14  1  0
 22 20  1  0
 22 23  1  0
 24 22  2  0
M  END
$$$$
