IPM.pdb
     RDKit          3D

 24 24  0  0  1  0  0  0  0  0999 V2000
   22.1372  -17.9189  -15.9553 C   0  0  0  0  0  0  0  0  0  0  0  0
   23.2211  -18.9393  -16.2978 C   0  0  0  0  0  0  0  0  0  0  0  0
   23.7130  -19.4921  -14.9818 C   0  0  2  0  0  0  0  0  0  0  0  0
   24.4401  -18.3506  -14.2738 C   0  0  0  0  0  0  0  0  0  0  0  0
   24.7177  -20.6102  -15.1522 C   0  0  2  0  0  0  0  0  0  0  0  0
   24.2228  -21.6368  -16.0037 N   0  0  0  0  0  0  0  0  0  0  0  0
   25.2474  -21.0916  -13.8648 C   0  0  0  0  0  0  0  0  0  0  0  0
   24.4724  -21.5597  -12.9825 O   0  0  0  0  0  0  0  0  0  0  0  0
   26.6658  -21.0500  -13.5560 N   0  0  0  0  0  0  0  0  0  0  0  0
   27.6754  -20.8171  -14.5603 C   0  0  0  0  0  0  0  0  0  0  0  0
   29.0253  -20.9978  -13.8571 C   0  0  0  0  0  0  0  0  0  0  0  0
   28.6791  -20.7123  -12.4179 C   0  0  0  0  0  0  0  0  0  0  0  0
   27.2773  -21.2248  -12.2929 C   0  0  1  0  0  0  0  0  0  0  0  0
   26.6126  -20.4083  -11.2129 C   0  0  0  0  0  0  0  0  0  0  0  0
   26.0513  -19.3118  -11.4119 O   0  0  0  0  0  0  0  0  0  0  0  0
   20.8594  -21.6038   -8.6669 C   0  0  0  0  0  0  0  0  0  0  0  0
   22.3953  -21.6226   -7.7022 S   0  0  0  0  0  0  0  0  0  0  0  0
   23.6791  -20.8216   -8.6485 C   0  0  0  0  0  0  0  0  0  0  0  0
   25.0062  -20.6933   -7.9626 C   0  0  0  0  0  0  0  0  0  0  0  0
   26.1136  -20.1087   -8.7652 C   0  0  2  0  0  0  0  0  0  0  0  0
   26.6027  -20.8877   -9.8554 N   0  0  0  0  0  0  0  0  0  0  0  0
   27.2566  -19.8646   -7.8347 C   0  0  0  0  0  0  0  0  0  0  0  0
   27.2524  -18.8162   -6.9310 O   0  0  0  0  0  0  0  0  0  0  0  0
   28.2634  -20.6167   -7.8511 O   0  0  0  0  0  0  0  0  0  0  0  0
  2  3  1  0
  2  1  1  0
  3  5  1  0
  3  4  1  1
  5  6  1  1
  7  5  1  0
  8  7  2  0
  9  7  1  0
  9 10  1  0
 10 11  1  0
 12 11  1  0
 13 12  1  0
 13  9  1  0
 13 14  1  1
 15 14  2  0
 17 16  1  0
 17 18  1  0
 18 19  1  0
 20 19  1  1
 20 21  1  0
 21 14  1  0
 22 20  1  0
 22 23  1  0
 24 22  2  0
M  END
$$$$
