VEF.pdb
     RDKit          3D

 28 28  0  0  1  0  0  0  0  0999 V2000
    7.2673  -12.8850   21.4049 C   0  0  0  0  0  0  0  0  0  0  0  0
    8.2581  -13.2391   20.3201 C   0  0  2  0  0  0  0  0  0  0  0  0
    8.0313  -12.3935   19.0857 C   0  0  0  0  0  0  0  0  0  0  0  0
    8.1308  -14.7041   19.9703 C   0  0  2  0  0  0  0  0  0  0  0  0
    6.8623  -14.9481   19.3590 N   0  0  0  0  0  0  0  0  0  0  0  0
    8.3958  -15.5468   21.1701 C   0  0  0  0  0  0  0  0  0  0  0  0
    7.3859  -15.9662   21.7962 O   0  0  0  0  0  0  0  0  0  0  0  0
    9.6719  -15.9009   21.6445 N   0  0  0  0  0  0  0  0  0  0  0  0
    9.9429  -16.9744   22.5653 C   0  0  1  0  0  0  0  0  0  0  0  0
   11.2706  -17.6278   22.3874 C   0  0  0  0  0  0  0  0  0  0  0  0
   11.5389  -18.8017   23.2709 C   0  0  0  0  0  0  0  0  0  0  0  0
   12.8600  -19.3904   22.9954 C   0  0  0  0  0  0  0  0  0  0  0  0
   13.3536  -20.2109   23.7928 O   0  0  0  0  0  0  0  0  0  0  0  0
    9.9331  -16.3913   23.9505 C   0  0  0  0  0  0  0  0  0  0  0  0
   10.6514  -15.3978   24.2223 O   0  0  0  0  0  0  0  0  0  0  0  0
   13.5541  -19.0376   21.8582 O   0  0  0  0  0  0  0  0  0  0  0  0
    9.1241  -16.9431   24.9664 N   0  0  0  0  0  0  0  0  0  0  0  0
    9.2290  -16.4162   26.3352 C   0  0  1  0  0  0  0  0  0  0  0  0
    7.8870  -16.0030   26.8367 C   0  0  0  0  0  0  0  0  0  0  0  0
    7.6613  -14.5716   26.6048 C   0  0  0  0  0  0  0  0  0  0  0  0
    6.4911  -14.1284   26.0358 C   0  0  0  0  0  0  0  0  0  0  0  0
    6.2794  -12.7759   25.8222 C   0  0  0  0  0  0  0  0  0  0  0  0
    7.2406  -11.8699   26.1792 C   0  0  0  0  0  0  0  0  0  0  0  0
    8.4360  -12.2793   26.7565 C   0  0  0  0  0  0  0  0  0  0  0  0
    8.6021  -13.6323   26.9495 C   0  0  0  0  0  0  0  0  0  0  0  0
    9.9219  -17.3731   27.1990 C   0  0  0  0  0  0  0  0  0  0  0  0
   10.2418  -17.0937   28.3764 O   0  0  0  0  0  0  0  0  0  0  0  0
   10.2354  -18.6337   26.6952 O   0  0  0  0  0  0  0  0  0  0  0  0
  2  1  1  1
  3  2  1  0
  4  5  1  1
  4  2  1  0
  6  4  1  0
  7  6  2  0
  8  6  1  0
  9  8  1  0
 10 11  1  0
  9 10  1  6
 12 11  1  0
 12 13  2  0
 14  9  1  0
 14 15  2  0
 16 12  1  0
 17 14  1  0
 18 17  1  0
 18 19  1  1
 19 20  1  0
 20 21  2  0
 20 25  1  0
 21 22  1  0
 22 23  2  0
 24 23  1  0
 25 24  2  0
 26 18  1  0
 27 26  2  0
 28 26  1  0
M  END
$$$$
