VEF.pdb
     RDKit          3D

 28 28  0  0  1  0  0  0  0  0999 V2000
    7.2226  -12.8820   21.8396 C   0  0  0  0  0  0  0  0  0  0  0  0
    8.2068  -13.1168   20.7170 C   0  0  2  0  0  0  0  0  0  0  0  0
    7.9330  -12.1853   19.5562 C   0  0  0  0  0  0  0  0  0  0  0  0
    8.1213  -14.5534   20.2547 C   0  0  2  0  0  0  0  0  0  0  0  0
    6.8633  -14.7832   19.6165 N   0  0  0  0  0  0  0  0  0  0  0  0
    8.4021  -15.4786   21.3882 C   0  0  0  0  0  0  0  0  0  0  0  0
    7.4246  -16.1411   21.8281 O   0  0  0  0  0  0  0  0  0  0  0  0
    9.6599  -15.6615   21.9909 N   0  0  0  0  0  0  0  0  0  0  0  0
   10.0277  -16.7863   22.8115 C   0  0  1  0  0  0  0  0  0  0  0  0
   11.3374  -17.4080   22.4660 C   0  0  0  0  0  0  0  0  0  0  0  0
   11.6995  -18.6311   23.2430 C   0  0  0  0  0  0  0  0  0  0  0  0
   12.9544  -19.2260   22.7541 C   0  0  0  0  0  0  0  0  0  0  0  0
   13.4369  -20.2202   23.3299 O   0  0  0  0  0  0  0  0  0  0  0  0
   10.1467  -16.2911   24.2255 C   0  0  0  0  0  0  0  0  0  0  0  0
   11.0313  -15.4529   24.5284 O   0  0  0  0  0  0  0  0  0  0  0  0
   13.5988  -18.6875   21.6613 O   0  0  0  0  0  0  0  0  0  0  0  0
    9.2751  -16.7537   25.2341 N   0  0  0  0  0  0  0  0  0  0  0  0
    9.4761  -16.3050   26.6199 C   0  0  1  0  0  0  0  0  0  0  0  0
    8.1753  -15.9079   27.2309 C   0  0  0  0  0  0  0  0  0  0  0  0
    7.7117  -14.6271   26.6848 C   0  0  0  0  0  0  0  0  0  0  0  0
    6.6156  -14.5722   25.8571 C   0  0  0  0  0  0  0  0  0  0  0  0
    6.1779  -13.3607   25.3467 C   0  0  0  0  0  0  0  0  0  0  0  0
    6.8393  -12.2065   25.6666 C   0  0  0  0  0  0  0  0  0  0  0  0
    7.9509  -12.2216   26.4998 C   0  0  0  0  0  0  0  0  0  0  0  0
    8.3492  -13.4477   26.9830 C   0  0  0  0  0  0  0  0  0  0  0  0
   10.2116  -17.3150   27.3820 C   0  0  0  0  0  0  0  0  0  0  0  0
   10.4765  -18.4423   26.9068 O   0  0  0  0  0  0  0  0  0  0  0  0
   10.6297  -17.0127   28.6762 O   0  0  0  0  0  0  0  0  0  0  0  0
  2  1  1  1
  3  2  1  0
  4  5  1  1
  4  2  1  0
  6  4  1  0
  7  6  2  0
  8  6  1  0
  9  8  1  0
 10 11  1  0
  9 10  1  6
 12 11  1  0
 12 13  2  0
 14  9  1  0
 14 15  2  0
 16 12  1  0
 17 14  1  0
 18 17  1  0
 18 19  1  1
 19 20  1  0
 20 21  2  0
 20 25  1  0
 21 22  1  0
 22 23  2  0
 24 23  1  0
 25 24  2  0
 26 18  1  0
 27 26  2  0
 28 26  1  0
M  END
$$$$
