VEF.pdb
     RDKit          3D

 28 28  0  0  1  0  0  0  0  0999 V2000
    7.3079  -12.9859   21.4382 C   0  0  0  0  0  0  0  0  0  0  0  0
    8.3517  -13.1536   20.3583 C   0  0  2  0  0  0  0  0  0  0  0  0
    8.1484  -12.1430   19.2503 C   0  0  0  0  0  0  0  0  0  0  0  0
    8.2839  -14.5547   19.7952 C   0  0  2  0  0  0  0  0  0  0  0  0
    7.0412  -14.7442   19.1153 N   0  0  0  0  0  0  0  0  0  0  0  0
    8.5453  -15.5557   20.8673 C   0  0  0  0  0  0  0  0  0  0  0  0
    7.5346  -16.1057   21.3809 O   0  0  0  0  0  0  0  0  0  0  0  0
    9.8189  -15.9235   21.3379 N   0  0  0  0  0  0  0  0  0  0  0  0
   10.0777  -16.9765   22.2856 C   0  0  1  0  0  0  0  0  0  0  0  0
   11.4371  -17.5800   22.1909 C   0  0  0  0  0  0  0  0  0  0  0  0
   11.7101  -18.7125   23.1255 C   0  0  0  0  0  0  0  0  0  0  0  0
   13.0637  -19.2572   22.9283 C   0  0  0  0  0  0  0  0  0  0  0  0
   13.3468  -20.3910   23.3606 O   0  0  0  0  0  0  0  0  0  0  0  0
    9.9670  -16.3804   23.6608 C   0  0  0  0  0  0  0  0  0  0  0  0
   10.6652  -15.3853   23.9757 O   0  0  0  0  0  0  0  0  0  0  0  0
   14.0204  -18.5176   22.2670 O   0  0  0  0  0  0  0  0  0  0  0  0
    9.0841  -16.9216   24.6194 N   0  0  0  0  0  0  0  0  0  0  0  0
    8.9241  -16.2429   25.9140 C   0  0  1  0  0  0  0  0  0  0  0  0
    7.4800  -16.0114   26.2038 C   0  0  0  0  0  0  0  0  0  0  0  0
    7.1415  -14.5901   26.0662 C   0  0  0  0  0  0  0  0  0  0  0  0
    5.9308  -14.2042   25.5421 C   0  0  0  0  0  0  0  0  0  0  0  0
    5.6126  -12.8614   25.4175 C   0  0  0  0  0  0  0  0  0  0  0  0
    6.5081  -11.9078   25.8183 C   0  0  0  0  0  0  0  0  0  0  0  0
    7.7417  -12.2586   26.3526 C   0  0  0  0  0  0  0  0  0  0  0  0
    8.0140  -13.6041   26.4572 C   0  0  0  0  0  0  0  0  0  0  0  0
    9.6357  -16.9726   26.9643 C   0  0  0  0  0  0  0  0  0  0  0  0
    9.9596  -18.1746   26.8345 O   0  0  0  0  0  0  0  0  0  0  0  0
    9.9624  -16.3091   28.1450 O   0  0  0  0  0  0  0  0  0  0  0  0
  2  1  1  1
  3  2  1  0
  4  5  1  1
  4  2  1  0
  6  4  1  0
  7  6  2  0
  8  6  1  0
  9  8  1  0
 10 11  1  0
  9 10  1  6
 12 11  1  0
 12 13  2  0
 14  9  1  0
 14 15  2  0
 16 12  1  0
 17 14  1  0
 18 17  1  0
 18 19  1  1
 19 20  1  0
 20 21  2  0
 20 25  1  0
 21 22  1  0
 22 23  2  0
 24 23  1  0
 25 24  2  0
 26 18  1  0
 27 26  2  0
 28 26  1  0
M  END
$$$$
