VEF.pdb
     RDKit          3D

 28 28  0  0  1  0  0  0  0  0999 V2000
    7.0393  -12.9223   21.4491 C   0  0  0  0  0  0  0  0  0  0  0  0
    8.1740  -13.0818   20.4639 C   0  0  2  0  0  0  0  0  0  0  0  0
    8.0833  -12.0457   19.3646 C   0  0  0  0  0  0  0  0  0  0  0  0
    8.1404  -14.4698   19.8662 C   0  0  2  0  0  0  0  0  0  0  0  0
    7.0132  -14.5961   18.9968 N   0  0  0  0  0  0  0  0  0  0  0  0
    8.1911  -15.4977   20.9435 C   0  0  0  0  0  0  0  0  0  0  0  0
    7.1120  -16.0951   21.2013 O   0  0  0  0  0  0  0  0  0  0  0  0
    9.3391  -15.8421   21.6801 N   0  0  0  0  0  0  0  0  0  0  0  0
    9.4460  -16.9751   22.5624 C   0  0  1  0  0  0  0  0  0  0  0  0
   10.6198  -17.8567   22.3053 C   0  0  0  0  0  0  0  0  0  0  0  0
   10.5094  -18.7526   21.1154 C   0  0  0  0  0  0  0  0  0  0  0  0
   11.7198  -19.5738   20.9472 C   0  0  0  0  0  0  0  0  0  0  0  0
   11.8268  -20.3291   19.9619 O   0  0  0  0  0  0  0  0  0  0  0  0
    9.6056  -16.4434   23.9591 C   0  0  0  0  0  0  0  0  0  0  0  0
   10.4909  -15.5894   24.2121 O   0  0  0  0  0  0  0  0  0  0  0  0
   12.7363  -19.5109   21.8758 O   0  0  0  0  0  0  0  0  0  0  0  0
    8.7719  -16.8887   25.0068 N   0  0  0  0  0  0  0  0  0  0  0  0
    9.0601  -16.4646   26.3850 C   0  0  1  0  0  0  0  0  0  0  0  0
    7.8298  -15.9218   27.0292 C   0  0  0  0  0  0  0  0  0  0  0  0
    7.6131  -14.5225   26.6439 C   0  0  0  0  0  0  0  0  0  0  0  0
    6.4921  -14.1538   25.9389 C   0  0  0  0  0  0  0  0  0  0  0  0
    6.2884  -12.8310   25.5805 C   0  0  0  0  0  0  0  0  0  0  0  0
    7.2083  -11.8801   25.9290 C   0  0  0  0  0  0  0  0  0  0  0  0
    8.3536  -12.2139   26.6411 C   0  0  0  0  0  0  0  0  0  0  0  0
    8.5136  -13.5398   26.9754 C   0  0  0  0  0  0  0  0  0  0  0  0
    9.6965  -17.5512   27.1310 C   0  0  0  0  0  0  0  0  0  0  0  0
    9.8187  -18.7015   26.6531 O   0  0  0  0  0  0  0  0  0  0  0  0
   10.1808  -17.2975   28.4124 O   0  0  0  0  0  0  0  0  0  0  0  0
  2  1  1  1
  3  2  1  0
  4  5  1  1
  4  2  1  0
  6  4  1  0
  7  6  2  0
  8  6  1  0
  9  8  1  0
 10 11  1  0
  9 10  1  6
 12 11  1  0
 12 13  2  0
 14  9  1  0
 14 15  2  0
 16 12  1  0
 17 14  1  0
 18 17  1  0
 18 19  1  1
 19 20  1  0
 20 21  2  0
 20 25  1  0
 21 22  1  0
 22 23  2  0
 24 23  1  0
 25 24  2  0
 26 18  1  0
 27 26  2  0
 28 26  1  0
M  END
$$$$
