VEF.pdb
     RDKit          3D

 28 28  0  0  1  0  0  0  0  0999 V2000
    7.1853  -12.9266   21.1386 C   0  0  0  0  0  0  0  0  0  0  0  0
    8.2922  -13.0885   20.1226 C   0  0  2  0  0  0  0  0  0  0  0  0
    8.1451  -12.0842   19.0001 C   0  0  0  0  0  0  0  0  0  0  0  0
    8.2705  -14.4923   19.5627 C   0  0  2  0  0  0  0  0  0  0  0  0
    7.0923  -14.6825   18.7765 N   0  0  0  0  0  0  0  0  0  0  0  0
    8.4333  -15.4884   20.6586 C   0  0  0  0  0  0  0  0  0  0  0  0
    7.3748  -15.9868   21.1266 O   0  0  0  0  0  0  0  0  0  0  0  0
    9.6642  -15.9042   21.1980 N   0  0  0  0  0  0  0  0  0  0  0  0
    9.8332  -16.9843   22.1354 C   0  0  1  0  0  0  0  0  0  0  0  0
   11.1374  -17.6986   22.0347 C   0  0  0  0  0  0  0  0  0  0  0  0
   11.3176  -18.8533   22.9646 C   0  0  0  0  0  0  0  0  0  0  0  0
   12.5979  -19.5401   22.7263 C   0  0  0  0  0  0  0  0  0  0  0  0
   13.0451  -19.6372   21.5673 O   0  0  0  0  0  0  0  0  0  0  0  0
    9.7719  -16.3943   23.5163 C   0  0  0  0  0  0  0  0  0  0  0  0
   10.5575  -15.4710   23.8438 O   0  0  0  0  0  0  0  0  0  0  0  0
   13.3050  -20.0767   23.7807 O   0  0  0  0  0  0  0  0  0  0  0  0
    8.8388  -16.8614   24.4662 N   0  0  0  0  0  0  0  0  0  0  0  0
    8.8273  -16.2718   25.8133 C   0  0  1  0  0  0  0  0  0  0  0  0
    7.4351  -15.9188   26.2137 C   0  0  0  0  0  0  0  0  0  0  0  0
    7.2403  -14.4644   26.1973 C   0  0  0  0  0  0  0  0  0  0  0  0
    6.1094  -13.9136   25.6432 C   0  0  0  0  0  0  0  0  0  0  0  0
    5.9266  -12.5402   25.6332 C   0  0  0  0  0  0  0  0  0  0  0  0
    6.8774  -11.7212   26.1784 C   0  0  0  0  0  0  0  0  0  0  0  0
    8.0336  -12.2404   26.7474 C   0  0  0  0  0  0  0  0  0  0  0  0
    8.1720  -13.6101   26.7346 C   0  0  0  0  0  0  0  0  0  0  0  0
    9.5182  -17.1484   26.7601 C   0  0  0  0  0  0  0  0  0  0  0  0
    9.6819  -16.8315   27.9598 O   0  0  0  0  0  0  0  0  0  0  0  0
   10.0088  -18.3730   26.3122 O   0  0  0  0  0  0  0  0  0  0  0  0
  2  1  1  1
  3  2  1  0
  4  5  1  1
  4  2  1  0
  6  4  1  0
  7  6  2  0
  8  6  1  0
  9  8  1  0
 10 11  1  0
  9 10  1  6
 12 11  1  0
 12 13  2  0
 14  9  1  0
 14 15  2  0
 16 12  1  0
 17 14  1  0
 18 17  1  0
 18 19  1  1
 19 20  1  0
 20 21  2  0
 20 25  1  0
 21 22  1  0
 22 23  2  0
 24 23  1  0
 25 24  2  0
 26 18  1  0
 27 26  2  0
 28 26  1  0
M  END
$$$$
