VEF.pdb
     RDKit          3D

 28 28  0  0  1  0  0  0  0  0999 V2000
    7.5631  -12.8521   21.8062 C   0  0  0  0  0  0  0  0  0  0  0  0
    8.4284  -13.2238   20.6243 C   0  0  2  0  0  0  0  0  0  0  0  0
    8.3016  -12.1976   19.5193 C   0  0  0  0  0  0  0  0  0  0  0  0
    8.0298  -14.5874   20.1080 C   0  0  2  0  0  0  0  0  0  0  0  0
    6.7200  -14.5267   19.5397 N   0  0  0  0  0  0  0  0  0  0  0  0
    8.1761  -15.6096   21.1820 C   0  0  0  0  0  0  0  0  0  0  0  0
    7.1192  -15.9598   21.7720 O   0  0  0  0  0  0  0  0  0  0  0  0
    9.3900  -16.2010   21.5764 N   0  0  0  0  0  0  0  0  0  0  0  0
    9.5178  -17.2590   22.5449 C   0  0  1  0  0  0  0  0  0  0  0  0
   10.6993  -18.1457   22.3471 C   0  0  0  0  0  0  0  0  0  0  0  0
   10.7808  -19.3292   23.2545 C   0  0  0  0  0  0  0  0  0  0  0  0
    9.9919  -20.4589   22.7359 C   0  0  0  0  0  0  0  0  0  0  0  0
    9.5632  -21.3290   23.5181 O   0  0  0  0  0  0  0  0  0  0  0  0
    9.6840  -16.6161   23.8932 C   0  0  0  0  0  0  0  0  0  0  0  0
   10.6076  -15.7880   24.0882 O   0  0  0  0  0  0  0  0  0  0  0  0
    9.7251  -20.5587   21.3874 O   0  0  0  0  0  0  0  0  0  0  0  0
    8.8138  -16.9269   24.9596 N   0  0  0  0  0  0  0  0  0  0  0  0
    9.0534  -16.3286   26.2813 C   0  0  1  0  0  0  0  0  0  0  0  0
    7.7688  -15.8723   26.8852 C   0  0  0  0  0  0  0  0  0  0  0  0
    7.4488  -14.5048   26.4596 C   0  0  0  0  0  0  0  0  0  0  0  0
    8.3300  -13.4745   26.6865 C   0  0  0  0  0  0  0  0  0  0  0  0
    8.0266  -12.1852   26.2795 C   0  0  0  0  0  0  0  0  0  0  0  0
    6.8410  -11.9308   25.6458 C   0  0  0  0  0  0  0  0  0  0  0  0
    5.9250  -12.9457   25.3988 C   0  0  0  0  0  0  0  0  0  0  0  0
    6.2692  -14.2102   25.8209 C   0  0  0  0  0  0  0  0  0  0  0  0
    9.8190  -17.2464   27.1260 C   0  0  0  0  0  0  0  0  0  0  0  0
    9.9953  -18.4455   26.8131 O   0  0  0  0  0  0  0  0  0  0  0  0
   10.3682  -16.7711   28.3149 O   0  0  0  0  0  0  0  0  0  0  0  0
  2  1  1  1
  3  2  1  0
  4  5  1  1
  4  2  1  0
  6  4  1  0
  7  6  2  0
  8  6  1  0
  9  8  1  0
 10 11  1  0
  9 10  1  6
 12 11  1  0
 12 13  2  0
 14  9  1  0
 14 15  2  0
 16 12  1  0
 17 14  1  0
 18 17  1  0
 18 19  1  1
 19 20  1  0
 20 21  2  0
 20 25  1  0
 21 22  1  0
 22 23  2  0
 24 23  1  0
 25 24  2  0
 26 18  1  0
 27 26  2  0
 28 26  1  0
M  END
$$$$
