VEF.pdb
     RDKit          3D

 28 28  0  0  1  0  0  0  0  0999 V2000
    7.3208  -12.6736   19.3520 C   0  0  0  0  0  0  0  0  0  0  0  0
    8.2789  -13.3680   20.2920 C   0  0  2  0  0  0  0  0  0  0  0  0
    9.6303  -12.6871   20.2846 C   0  0  0  0  0  0  0  0  0  0  0  0
    8.4308  -14.8168   19.8884 C   0  0  2  0  0  0  0  0  0  0  0  0
    7.3625  -15.1915   19.0162 N   0  0  0  0  0  0  0  0  0  0  0  0
    8.5557  -15.6794   21.0966 C   0  0  0  0  0  0  0  0  0  0  0  0
    7.4814  -15.9983   21.6729 O   0  0  0  0  0  0  0  0  0  0  0  0
    9.7676  -16.1548   21.6298 N   0  0  0  0  0  0  0  0  0  0  0  0
    9.8837  -17.0237   22.7723 C   0  0  1  0  0  0  0  0  0  0  0  0
   10.8639  -18.1351   22.6130 C   0  0  0  0  0  0  0  0  0  0  0  0
   10.4710  -19.2141   21.6579 C   0  0  0  0  0  0  0  0  0  0  0  0
   11.5497  -20.2021   21.4905 C   0  0  0  0  0  0  0  0  0  0  0  0
   12.2085  -20.2302   20.4333 O   0  0  0  0  0  0  0  0  0  0  0  0
   10.3650  -16.1881   23.9251 C   0  0  0  0  0  0  0  0  0  0  0  0
   11.3795  -15.4593   23.7963 O   0  0  0  0  0  0  0  0  0  0  0  0
   11.8343  -21.0972   22.4991 O   0  0  0  0  0  0  0  0  0  0  0  0
    9.6936  -16.2049   25.1661 N   0  0  0  0  0  0  0  0  0  0  0  0
   10.2974  -15.5219   26.3199 C   0  0  1  0  0  0  0  0  0  0  0  0
   10.1301  -14.0456   26.1952 C   0  0  0  0  0  0  0  0  0  0  0  0
    8.7352  -13.6566   26.4333 C   0  0  0  0  0  0  0  0  0  0  0  0
    7.7538  -13.9698   25.5233 C   0  0  0  0  0  0  0  0  0  0  0  0
    6.4371  -13.6048   25.7532 C   0  0  0  0  0  0  0  0  0  0  0  0
    6.1062  -12.9267   26.8946 C   0  0  0  0  0  0  0  0  0  0  0  0
    7.0700  -12.5923   27.8377 C   0  0  0  0  0  0  0  0  0  0  0  0
    8.3644  -12.9754   27.5668 C   0  0  0  0  0  0  0  0  0  0  0  0
    9.7809  -16.0792   27.5707 C   0  0  0  0  0  0  0  0  0  0  0  0
   10.1537  -15.6580   28.6888 O   0  0  0  0  0  0  0  0  0  0  0  0
    8.8455  -17.1102   27.5153 O   0  0  0  0  0  0  0  0  0  0  0  0
  2  1  1  6
  3  2  1  0
  4  5  1  1
  4  2  1  0
  6  4  1  0
  7  6  2  0
  8  6  1  0
  9  8  1  0
 10 11  1  0
  9 10  1  6
 12 11  1  0
 12 13  2  0
 14  9  1  0
 14 15  2  0
 16 12  1  0
 17 14  1  0
 18 17  1  0
 18 19  1  6
 19 20  1  0
 20 21  2  0
 20 25  1  0
 21 22  1  0
 22 23  2  0
 24 23  1  0
 25 24  2  0
 26 18  1  0
 27 26  2  0
 28 26  1  0
M  END
$$$$
