SRI.pdb
     RDKit          3D

 26 25  0  0  1  0  0  0  0  0999 V2000
   21.2010  -20.0320   -9.5988 O   0  0  0  0  0  0  0  0  0  0  0  0
   21.8624  -19.5021  -10.6943 C   0  0  0  0  0  0  0  0  0  0  0  0
   22.5488  -20.6286  -11.4169 C   0  0  2  0  0  0  0  0  0  0  0  0
   21.7159  -21.7999  -11.5623 N   0  0  0  0  0  0  0  0  0  0  0  0
   23.7861  -21.0032  -10.7134 C   0  0  0  0  0  0  0  0  0  0  0  0
   23.8355  -21.9000   -9.8264 O   0  0  0  0  0  0  0  0  0  0  0  0
   30.0170  -22.4826  -14.1293 N   0  0  0  0  0  0  0  0  0  0  0  0
   29.2549  -21.6525  -15.0265 C   0  0  0  0  0  0  0  0  0  0  0  0
   28.9744  -22.1042  -16.1934 N   0  0  0  0  0  0  0  0  0  0  0  0
   28.8268  -20.3700  -14.6261 N   0  0  0  0  0  0  0  0  0  0  0  0
   28.7633  -20.0103  -13.2435 C   0  0  0  0  0  0  0  0  0  0  0  0
   27.5528  -20.6082  -12.5618 C   0  0  0  0  0  0  0  0  0  0  0  0
   27.4505  -20.1401  -11.1346 C   0  0  0  0  0  0  0  0  0  0  0  0
   26.2647  -20.6424  -10.4387 C   0  0  2  0  0  0  0  0  0  0  0  0
   24.9948  -20.3575  -11.0102 N   0  0  0  0  0  0  0  0  0  0  0  0
   26.2789  -20.0793   -9.0523 C   0  0  0  0  0  0  0  0  0  0  0  0
   25.4389  -19.2053   -8.7586 O   0  0  0  0  0  0  0  0  0  0  0  0
   28.4538  -21.5378  -16.8721 C   0  0  0  0  0  0  0  0  0  0  0  0
   28.7343  -21.5952   -3.5601 C   0  0  0  0  0  0  0  0  0  0  0  0
   27.8978  -20.7157   -4.3988 C   0  0  2  0  0  0  0  0  0  0  0  0
   27.9253  -20.8768   -5.8683 C   0  0  0  0  0  0  0  0  0  0  0  0
   29.3618  -21.1186   -6.3411 C   0  0  2  0  0  0  0  0  0  0  0  0
   27.1948  -19.9312   -6.7283 N   0  0  0  0  0  0  0  0  0  0  0  0
   27.2062  -20.5083   -8.0850 C   0  0  0  0  0  0  0  0  0  0  0  0
   27.5781  -18.5468   -6.8099 O   0  0  0  0  0  0  0  0  0  0  0  0
   28.3316  -18.1268   -7.9421 O   0  0  0  0  0  0  0  0  0  0  0  0
  2  1  1  0
  3  2  1  0
  3  4  1  1
  5  3  1  0
  5  6  2  0
  7  8  1  0
  8 10  1  0
  9  8  2  0
 10 11  1  0
 11 12  1  0
 12 13  1  0
 14 13  1  6
 14 15  1  0
 15  5  1  0
 16 14  1  0
 17 16  2  0
 19 18  1  0
 20 19  1  0
 20 22  1  0
 20 21  1  6
 22 24  1  0
 22 23  1  1
 23 16  1  0
 24 25  1  0
 26 24  2  0
M  END
$$$$
