SRI.pdb
     RDKit          3D

 26 25  0  0  1  0  0  0  0  0999 V2000
   18.2819  -29.8254  -10.6543 O   0  0  0  0  0  0  0  0  0  0  0  0
   19.5719  -30.2395  -10.3668 C   0  0  0  0  0  0  0  0  0  0  0  0
   20.5273  -29.3435  -11.1062 C   0  0  2  0  0  0  0  0  0  0  0  0
   21.9028  -29.7731  -11.0029 N   0  0  0  0  0  0  0  0  0  0  0  0
   20.4165  -27.9629  -10.6082 C   0  0  0  0  0  0  0  0  0  0  0  0
   21.0309  -27.5416   -9.5891 O   0  0  0  0  0  0  0  0  0  0  0  0
   21.3218  -20.1842  -12.7756 N   0  0  0  0  0  0  0  0  0  0  0  0
   20.0415  -20.1293  -12.1180 C   0  0  0  0  0  0  0  0  0  0  0  0
   19.8682  -19.2723  -11.1800 N   0  0  0  0  0  0  0  0  0  0  0  0
   19.0016  -21.0012  -12.5012 N   0  0  0  0  0  0  0  0  0  0  0  0
   19.2715  -22.3564  -12.8693 C   0  0  0  0  0  0  0  0  0  0  0  0
   19.2579  -23.2785  -11.6705 C   0  0  0  0  0  0  0  0  0  0  0  0
   19.4235  -24.7143  -12.0916 C   0  0  0  0  0  0  0  0  0  0  0  0
   19.4849  -25.6494  -10.9670 C   0  0  2  0  0  0  0  0  0  0  0  0
   19.5980  -27.0343  -11.2666 N   0  0  0  0  0  0  0  0  0  0  0  0
   18.2465  -25.4583  -10.1490 C   0  0  0  0  0  0  0  0  0  0  0  0
   17.1824  -25.9658  -10.5564 O   0  0  0  0  0  0  0  0  0  0  0  0
   19.0179  -19.2765  -10.6059 C   0  0  0  0  0  0  0  0  0  0  0  0
   18.5222  -25.9843   -4.8286 C   0  0  0  0  0  0  0  0  0  0  0  0
   18.0879  -25.9169   -6.2370 C   0  0  2  0  0  0  0  0  0  0  0  0
   17.4338  -24.6879   -6.7347 C   0  0  0  0  0  0  0  0  0  0  0  0
   16.3289  -24.2547   -5.7666 C   0  0  2  0  0  0  0  0  0  0  0  0
   17.0251  -24.5887   -8.1456 N   0  0  0  0  0  0  0  0  0  0  0  0
   18.2553  -24.7286   -8.9460 C   0  0  0  0  0  0  0  0  0  0  0  0
   16.2827  -23.4555   -8.6300 O   0  0  0  0  0  0  0  0  0  0  0  0
   14.8653  -23.4799   -8.5019 O   0  0  0  0  0  0  0  0  0  0  0  0
  2  1  1  0
  3  2  1  0
  3  4  1  1
  5  3  1  0
  5  6  2  0
  7  8  1  0
  8 10  1  0
  9  8  2  0
 10 11  1  0
 11 12  1  0
 12 13  1  0
 14 13  1  6
 14 15  1  0
 15  5  1  0
 16 14  1  0
 17 16  2  0
 19 18  1  0
 20 19  1  0
 20 22  1  0
 20 21  1  6
 22 24  1  0
 22 23  1  6
 23 16  1  0
 24 25  1  0
 26 24  2  0
M  END
$$$$
