SRI.pdb
     RDKit          3D

 26 25  0  0  1  0  0  0  0  0999 V2000
   25.7677  -23.8154  -15.5960 O   0  0  0  0  0  0  0  0  0  0  0  0
   25.9130  -23.0297  -16.7273 C   0  0  0  0  0  0  0  0  0  0  0  0
   27.2864  -22.4168  -16.6987 C   0  0  2  0  0  0  0  0  0  0  0  0
   28.3453  -23.3932  -16.8099 N   0  0  0  0  0  0  0  0  0  0  0  0
   27.4720  -21.6458  -15.4588 C   0  0  0  0  0  0  0  0  0  0  0  0
   28.2828  -21.9780  -14.5501 O   0  0  0  0  0  0  0  0  0  0  0  0
   26.3924  -16.5227  -17.8664 N   0  0  0  0  0  0  0  0  0  0  0  0
   25.1962  -16.3442  -17.0841 C   0  0  0  0  0  0  0  0  0  0  0  0
   24.0587  -16.4713  -17.6623 N   0  0  0  0  0  0  0  0  0  0  0  0
   25.2781  -16.0368  -15.7103 N   0  0  0  0  0  0  0  0  0  0  0  0
   26.5386  -15.9950  -15.0363 C   0  0  0  0  0  0  0  0  0  0  0  0
   27.1567  -17.3698  -14.9134 C   0  0  0  0  0  0  0  0  0  0  0  0
   26.2475  -18.3056  -14.1624 C   0  0  0  0  0  0  0  0  0  0  0  0
   26.7676  -19.6703  -14.0624 C   0  0  2  0  0  0  0  0  0  0  0  0
   26.7317  -20.4769  -15.2322 N   0  0  0  0  0  0  0  0  0  0  0  0
   25.9898  -20.3760  -12.9964 C   0  0  0  0  0  0  0  0  0  0  0  0
   25.1335  -21.2139  -13.3434 O   0  0  0  0  0  0  0  0  0  0  0  0
   23.1821  -16.3232  -17.1502 C   0  0  0  0  0  0  0  0  0  0  0  0
   28.1519  -20.6147   -7.9240 C   0  0  0  0  0  0  0  0  0  0  0  0
   27.4145  -21.0034   -9.1414 C   0  0  2  0  0  0  0  0  0  0  0  0
   26.0177  -20.5513   -9.3168 C   0  0  0  0  0  0  0  0  0  0  0  0
   25.1674  -21.0066   -8.1272 C   0  0  2  0  0  0  0  0  0  0  0  0
   25.3371  -20.7413  -10.6084 N   0  0  0  0  0  0  0  0  0  0  0  0
   26.2003  -20.1193  -11.6291 C   0  0  0  0  0  0  0  0  0  0  0  0
   23.9839  -20.2970  -10.8118 O   0  0  0  0  0  0  0  0  0  0  0  0
   22.9327  -21.2304  -10.5888 O   0  0  0  0  0  0  0  0  0  0  0  0
  2  1  1  0
  3  2  1  0
  3  4  1  1
  5  3  1  0
  5  6  2  0
  7  8  1  0
  8 10  1  0
  9  8  2  0
 10 11  1  0
 11 12  1  0
 12 13  1  0
 14 13  1  6
 14 15  1  0
 15  5  1  0
 16 14  1  0
 17 16  2  0
 19 18  1  0
 20 19  1  0
 20 22  1  0
 20 21  1  6
 22 24  1  0
 22 23  1  6
 23 16  1  0
 24 25  1  0
 26 24  2  0
M  END
$$$$
