SRI.pdb
     RDKit          3D

 26 25  0  0  1  0  0  0  0  0999 V2000
   18.9642  -15.8416  -18.0682 O   0  0  0  0  0  0  0  0  0  0  0  0
   19.5381  -14.6384  -17.6925 C   0  0  0  0  0  0  0  0  0  0  0  0
   20.5586  -14.2617  -18.7313 C   0  0  2  0  0  0  0  0  0  0  0  0
   21.6032  -15.2479  -18.8836 N   0  0  0  0  0  0  0  0  0  0  0  0
   21.1677  -12.9643  -18.3969 C   0  0  0  0  0  0  0  0  0  0  0  0
   22.1971  -12.8465  -17.6757 O   0  0  0  0  0  0  0  0  0  0  0  0
   20.1340   -4.8121  -22.0601 N   0  0  0  0  0  0  0  0  0  0  0  0
   21.1881   -4.7096  -21.0838 C   0  0  0  0  0  0  0  0  0  0  0  0
   21.7808   -3.5823  -20.9348 N   0  0  0  0  0  0  0  0  0  0  0  0
   21.5577   -5.8282  -20.3087 N   0  0  0  0  0  0  0  0  0  0  0  0
   20.8787   -7.0792  -20.4458 C   0  0  0  0  0  0  0  0  0  0  0  0
   21.3863   -8.1060  -19.4583 C   0  0  0  0  0  0  0  0  0  0  0  0
   20.6875   -9.4264  -19.6448 C   0  0  0  0  0  0  0  0  0  0  0  0
   21.1465  -10.4657  -18.7218 C   0  0  2  0  0  0  0  0  0  0  0  0
   20.6101  -11.7724  -18.8809 N   0  0  0  0  0  0  0  0  0  0  0  0
   20.8337  -10.0092  -17.3315 C   0  0  0  0  0  0  0  0  0  0  0  0
   19.6827  -10.1986  -16.8900 O   0  0  0  0  0  0  0  0  0  0  0  0
   22.5519   -3.4707  -20.2674 C   0  0  0  0  0  0  0  0  0  0  0  0
   23.4023  -12.2057  -13.7131 C   0  0  0  0  0  0  0  0  0  0  0  0
   22.4164  -11.3957  -14.4537 C   0  0  2  0  0  0  0  0  0  0  0  0
   22.4406   -9.9236  -14.3178 C   0  0  0  0  0  0  0  0  0  0  0  0
   22.4727   -9.5356  -12.8366 C   0  0  2  0  0  0  0  0  0  0  0  0
   21.5117   -9.0944  -15.1032 N   0  0  0  0  0  0  0  0  0  0  0  0
   21.7965   -9.3796  -16.5214 C   0  0  0  0  0  0  0  0  0  0  0  0
   21.4465   -7.6688  -14.9206 O   0  0  0  0  0  0  0  0  0  0  0  0
   22.2574   -6.8496  -15.7558 O   0  0  0  0  0  0  0  0  0  0  0  0
  2  1  1  0
  3  2  1  0
  3  4  1  1
  5  3  1  0
  5  6  2  0
  7  8  1  0
  8 10  1  0
  9  8  2  0
 10 11  1  0
 11 12  1  0
 12 13  1  0
 14 13  1  6
 14 15  1  0
 15  5  1  0
 16 14  1  0
 17 16  2  0
 19 18  1  0
 20 19  1  0
 20 22  1  0
 20 21  1  6
 22 24  1  0
 22 23  1  1
 23 16  1  0
 24 25  1  0
 26 24  2  0
M  END
$$$$
