SRI.pdb
     RDKit          3D

 26 25  0  0  1  0  0  0  0  0999 V2000
   26.8133  -22.0063  -19.0704 O   0  0  0  0  0  0  0  0  0  0  0  0
   25.9403  -22.4592  -18.0952 C   0  0  0  0  0  0  0  0  0  0  0  0
   26.7395  -23.2008  -17.0590 C   0  0  2  0  0  0  0  0  0  0  0  0
   26.8002  -24.6237  -17.3012 N   0  0  0  0  0  0  0  0  0  0  0  0
   26.1766  -22.9650  -15.7197 C   0  0  0  0  0  0  0  0  0  0  0  0
   25.2830  -23.6928  -15.2048 O   0  0  0  0  0  0  0  0  0  0  0  0
   30.1957  -22.1090   -8.9547 N   0  0  0  0  0  0  0  0  0  0  0  0
   30.6379  -21.9251  -10.3132 C   0  0  0  0  0  0  0  0  0  0  0  0
   31.6239  -22.6256  -10.7391 N   0  0  0  0  0  0  0  0  0  0  0  0
   29.9966  -20.9933  -11.1552 N   0  0  0  0  0  0  0  0  0  0  0  0
   28.6328  -20.6202  -10.9412 C   0  0  0  0  0  0  0  0  0  0  0  0
   27.6809  -21.4898  -11.7318 C   0  0  0  0  0  0  0  0  0  0  0  0
   26.9943  -20.6962  -12.8113 C   0  0  0  0  0  0  0  0  0  0  0  0
   26.1243  -21.5047  -13.6670 C   0  0  2  0  0  0  0  0  0  0  0  0
   26.6248  -21.8888  -14.9407 N   0  0  0  0  0  0  0  0  0  0  0  0
   24.8598  -20.7350  -13.8858 C   0  0  0  0  0  0  0  0  0  0  0  0
   24.9191  -19.6670  -14.5273 O   0  0  0  0  0  0  0  0  0  0  0  0
   32.0208  -22.4732  -11.6728 C   0  0  0  0  0  0  0  0  0  0  0  0
   19.8624  -20.6053  -16.4794 C   0  0  0  0  0  0  0  0  0  0  0  0
   20.5713  -20.0802  -15.2969 C   0  0  2  0  0  0  0  0  0  0  0  0
   21.7561  -20.8010  -14.7841 C   0  0  0  0  0  0  0  0  0  0  0  0
   21.5019  -22.3110  -14.8114 C   0  0  2  0  0  0  0  0  0  0  0  0
   22.4102  -20.3565  -13.5423 N   0  0  0  0  0  0  0  0  0  0  0  0
   23.6214  -21.1834  -13.3909 C   0  0  0  0  0  0  0  0  0  0  0  0
   21.7014  -20.3381  -12.2903 O   0  0  0  0  0  0  0  0  0  0  0  0
   20.6657  -19.3764  -12.1220 O   0  0  0  0  0  0  0  0  0  0  0  0
  2  1  1  0
  3  2  1  0
  3  4  1  6
  5  3  1  0
  5  6  2  0
  7  8  1  0
  8 10  1  0
  9  8  2  0
 10 11  1  0
 11 12  1  0
 12 13  1  0
 14 13  1  6
 14 15  1  0
 15  5  1  0
 16 14  1  0
 17 16  2  0
 19 18  1  0
 20 19  1  0
 20 22  1  0
 20 21  1  6
 22 24  1  0
 22 23  1  1
 23 16  1  0
 24 25  1  0
 26 24  2  0
M  END
$$$$
