KIP.pdb
     RDKit          3D

 25 25  0  0  1  0  0  0  0  0999 V2000
   20.7747  -19.6602  -14.1907 N   0  0  0  0  0  0  0  0  0  0  0  0
   21.5888  -20.7672  -13.8552 C   0  0  1  0  0  0  0  0  0  0  0  0
   21.5643  -21.8343  -14.8930 C   0  0  0  0  0  0  0  0  0  0  0  0
   20.2339  -22.3085  -15.3401 C   0  0  0  0  0  0  0  0  0  0  0  0
   20.0287  -22.4924  -16.8067 C   0  0  0  0  0  0  0  0  0  0  0  0
   20.8035  -23.6076  -17.4273 C   0  0  0  0  0  0  0  0  0  0  0  0
   20.1951  -24.9002  -17.3899 N   0  0  0  0  0  0  0  0  0  0  0  0
   22.9890  -20.3398  -13.5792 C   0  0  0  0  0  0  0  0  0  0  0  0
   23.3630  -19.2519  -14.1300 O   0  0  0  0  0  0  0  0  0  0  0  0
   25.3775  -21.1843   -8.8850 C   0  0  0  0  0  0  0  0  0  0  0  0
   25.0240  -20.5163  -10.2130 C   0  0  0  0  0  0  0  0  0  0  0  0
   25.8460  -21.0599  -11.3370 C   0  0  2  0  0  0  0  0  0  0  0  0
   27.3178  -20.7541  -11.2215 C   0  0  0  0  0  0  0  0  0  0  0  0
   25.2506  -20.6486  -12.6541 C   0  0  2  0  0  0  0  0  0  0  0  0
   23.8708  -21.0863  -12.7551 N   0  0  0  0  0  0  0  0  0  0  0  0
   26.1002  -20.9535  -13.7965 C   0  0  0  0  0  0  0  0  0  0  0  0
   26.3377  -22.1907  -14.0744 O   0  0  0  0  0  0  0  0  0  0  0  0
   26.7293  -20.0398  -14.6789 N   0  0  0  0  0  0  0  0  0  0  0  0
   26.5035  -18.6072  -14.6151 C   0  0  0  0  0  0  0  0  0  0  0  0
   27.3077  -17.9911  -15.7707 C   0  0  0  0  0  0  0  0  0  0  0  0
   28.3952  -19.0062  -15.9265 C   0  0  0  0  0  0  0  0  0  0  0  0
   27.6079  -20.3192  -15.7987 C   0  0  1  0  0  0  0  0  0  0  0  0
   28.5583  -21.4304  -15.5664 C   0  0  0  0  0  0  0  0  0  0  0  0
   28.9013  -21.8302  -14.4621 O   0  0  0  0  0  0  0  0  0  0  0  0
   29.0791  -22.0409  -16.7071 O   0  0  0  0  0  0  0  0  0  0  0  0
  2  8  1  0
  2  1  1  6
  3  2  1  0
  4  3  1  0
  4  5  1  0
  6  7  1  0
  6  5  1  0
  8  9  2  0
 10 11  1  0
 11 12  1  0
 12 13  1  1
 14 12  1  0
 14 15  1  6
 15  8  1  0
 16 14  1  0
 17 16  2  0
 18 16  1  0
 18 22  1  0
 19 20  1  0
 19 18  1  0
 20 21  1  0
 21 22  1  0
 22 23  1  1
 23 25  1  0
 24 23  2  0
M  END
$$$$
