KIP.pdb
     RDKit          3D

 25 25  0  0  1  0  0  0  0  0999 V2000
   19.7650  -13.4249  -18.4793 N   0  0  0  0  0  0  0  0  0  0  0  0
   20.2010  -12.1069  -18.7507 C   0  0  1  0  0  0  0  0  0  0  0  0
   19.3842  -11.4356  -19.7989 C   0  0  0  0  0  0  0  0  0  0  0  0
   19.3930  -12.0420  -21.1505 C   0  0  0  0  0  0  0  0  0  0  0  0
   18.6124  -11.3500  -22.2177 C   0  0  0  0  0  0  0  0  0  0  0  0
   18.6015  -12.0302  -23.5468 C   0  0  0  0  0  0  0  0  0  0  0  0
   17.7429  -11.4667  -24.5405 N   0  0  0  0  0  0  0  0  0  0  0  0
   20.2328  -11.2853  -17.5083 C   0  0  0  0  0  0  0  0  0  0  0  0
   19.3123  -11.5188  -16.6569 O   0  0  0  0  0  0  0  0  0  0  0  0
   23.9286  -11.1972  -14.2050 C   0  0  0  0  0  0  0  0  0  0  0  0
   22.6111  -11.0279  -14.9602 C   0  0  0  0  0  0  0  0  0  0  0  0
   22.3018   -9.5867  -15.2084 C   0  0  2  0  0  0  0  0  0  0  0  0
   22.2226   -8.7535  -13.9543 C   0  0  0  0  0  0  0  0  0  0  0  0
   21.0872   -9.4658  -16.0852 C   0  0  2  0  0  0  0  0  0  0  0  0
   21.2209  -10.2954  -17.2682 N   0  0  0  0  0  0  0  0  0  0  0  0
   20.6720   -8.0896  -16.3165 C   0  0  0  0  0  0  0  0  0  0  0  0
   21.5386   -7.2550  -16.7819 O   0  0  0  0  0  0  0  0  0  0  0  0
   19.3950   -7.5182  -16.0887 N   0  0  0  0  0  0  0  0  0  0  0  0
   18.2283   -8.3150  -15.7548 C   0  0  0  0  0  0  0  0  0  0  0  0
   17.0488   -7.3346  -15.6578 C   0  0  0  0  0  0  0  0  0  0  0  0
   17.7625   -6.0754  -15.2802 C   0  0  0  0  0  0  0  0  0  0  0  0
   18.9886   -6.1305  -16.2042 C   0  0  1  0  0  0  0  0  0  0  0  0
   19.9968   -5.1575  -15.7258 C   0  0  0  0  0  0  0  0  0  0  0  0
   20.9878   -5.4509  -15.0712 O   0  0  0  0  0  0  0  0  0  0  0  0
   19.7699   -3.8233  -16.0628 O   0  0  0  0  0  0  0  0  0  0  0  0
  2  8  1  0
  2  1  1  1
  3  2  1  0
  4  3  1  0
  4  5  1  0
  6  7  1  0
  6  5  1  0
  8  9  2  0
 10 11  1  0
 11 12  1  0
 12 13  1  1
 14 12  1  0
 14 15  1  6
 15  8  1  0
 16 14  1  0
 17 16  2  0
 18 16  1  0
 18 22  1  0
 19 20  1  0
 19 18  1  0
 20 21  1  0
 21 22  1  0
 22 23  1  1
 23 25  1  0
 24 23  2  0
M  END
$$$$
