KIP.pdb
     RDKit          3D

 25 25  0  0  1  0  0  0  0  0999 V2000
   29.1258  -20.3140  -15.3196 N   0  0  0  0  0  0  0  0  0  0  0  0
   28.1401  -19.5684  -14.6318 C   0  0  1  0  0  0  0  0  0  0  0  0
   27.2593  -18.7953  -15.5500 C   0  0  0  0  0  0  0  0  0  0  0  0
   27.9247  -17.9584  -16.5755 C   0  0  0  0  0  0  0  0  0  0  0  0
   28.6192  -16.7233  -16.1075 C   0  0  0  0  0  0  0  0  0  0  0  0
   29.2150  -15.8764  -17.1832 C   0  0  0  0  0  0  0  0  0  0  0  0
   28.3224  -15.4294  -18.2059 N   0  0  0  0  0  0  0  0  0  0  0  0
   27.3264  -20.4448  -13.7434 C   0  0  0  0  0  0  0  0  0  0  0  0
   27.1712  -21.6495  -14.1323 O   0  0  0  0  0  0  0  0  0  0  0  0
   26.9059  -20.0251   -8.4369 C   0  0  0  0  0  0  0  0  0  0  0  0
   26.8766  -20.6625   -9.8253 C   0  0  0  0  0  0  0  0  0  0  0  0
   25.5443  -20.4901  -10.4806 C   0  0  2  0  0  0  0  0  0  0  0  0
   24.4326  -21.2643   -9.8188 C   0  0  0  0  0  0  0  0  0  0  0  0
   25.6600  -20.7517  -11.9560 C   0  0  2  0  0  0  0  0  0  0  0  0
   26.7489  -19.9845  -12.5315 N   0  0  0  0  0  0  0  0  0  0  0  0
   24.3881  -20.6788  -12.6607 C   0  0  0  0  0  0  0  0  0  0  0  0
   23.7171  -19.5783  -12.6078 O   0  0  0  0  0  0  0  0  0  0  0  0
   23.7601  -21.6935  -13.4256 N   0  0  0  0  0  0  0  0  0  0  0  0
   24.4582  -22.8874  -13.8671 C   0  0  0  0  0  0  0  0  0  0  0  0
   23.4548  -23.6868  -14.7131 C   0  0  0  0  0  0  0  0  0  0  0  0
   22.1610  -23.2320  -14.1158 C   0  0  0  0  0  0  0  0  0  0  0  0
   22.4109  -21.7245  -13.9576 C   0  0  1  0  0  0  0  0  0  0  0  0
   21.3850  -21.1582  -13.0528 C   0  0  0  0  0  0  0  0  0  0  0  0
   21.5086  -21.0595  -11.8396 O   0  0  0  0  0  0  0  0  0  0  0  0
   20.2091  -20.7165  -13.6588 O   0  0  0  0  0  0  0  0  0  0  0  0
  2  8  1  0
  2  1  1  6
  3  2  1  0
  4  3  1  0
  4  5  1  0
  6  7  1  0
  6  5  1  0
  8  9  2  0
 10 11  1  0
 11 12  1  0
 12 13  1  1
 14 12  1  0
 14 15  1  6
 15  8  1  0
 16 14  1  0
 17 16  2  0
 18 16  1  0
 18 22  1  0
 19 20  1  0
 19 18  1  0
 20 21  1  0
 21 22  1  0
 22 23  1  1
 23 25  1  0
 24 23  2  0
M  END
$$$$
