KIP.pdb
     RDKit          3D

 25 25  0  0  1  0  0  0  0  0999 V2000
   26.1493  -20.4850  -12.5409 N   0  0  0  0  0  0  0  0  0  0  0  0
   25.3479  -20.2443  -11.4005 C   0  0  1  0  0  0  0  0  0  0  0  0
   24.1317  -21.1019  -11.3611 C   0  0  0  0  0  0  0  0  0  0  0  0
   23.1597  -20.9433  -12.4678 C   0  0  0  0  0  0  0  0  0  0  0  0
   22.4346  -19.6424  -12.5624 C   0  0  0  0  0  0  0  0  0  0  0  0
   21.3890  -19.5675  -13.6256 C   0  0  0  0  0  0  0  0  0  0  0  0
   20.6177  -18.3653  -13.6731 N   0  0  0  0  0  0  0  0  0  0  0  0
   26.1373  -20.4005  -10.1468 C   0  0  0  0  0  0  0  0  0  0  0  0
   26.8547  -21.4516  -10.0622 O   0  0  0  0  0  0  0  0  0  0  0  0
   28.5732  -16.3893   -7.7566 C   0  0  0  0  0  0  0  0  0  0  0  0
   28.2850  -17.8259   -8.1901 C   0  0  0  0  0  0  0  0  0  0  0  0
   27.3620  -18.5126   -7.2356 C   0  0  2  0  0  0  0  0  0  0  0  0
   27.9561  -18.7428   -5.8692 C   0  0  0  0  0  0  0  0  0  0  0  0
   26.8072  -19.7594   -7.8651 C   0  0  2  0  0  0  0  0  0  0  0  0
   26.1056  -19.4469   -9.0962 N   0  0  0  0  0  0  0  0  0  0  0  0
   26.0963  -20.6169   -6.9275 C   0  0  0  0  0  0  0  0  0  0  0  0
   24.9032  -20.2816   -6.5694 O   0  0  0  0  0  0  0  0  0  0  0  0
   26.5556  -21.8167   -6.3286 N   0  0  0  0  0  0  0  0  0  0  0  0
   27.7051  -22.5508   -6.8260 C   0  0  0  0  0  0  0  0  0  0  0  0
   27.8255  -23.8091   -5.9521 C   0  0  0  0  0  0  0  0  0  0  0  0
   27.1923  -23.3303   -4.6843 C   0  0  0  0  0  0  0  0  0  0  0  0
   25.9790  -22.5566   -5.2221 C   0  0  1  0  0  0  0  0  0  0  0  0
   25.4306  -21.7077   -4.1402 C   0  0  0  0  0  0  0  0  0  0  0  0
   25.8735  -20.6111   -3.8270 O   0  0  0  0  0  0  0  0  0  0  0  0
   24.3335  -22.2245   -3.4514 O   0  0  0  0  0  0  0  0  0  0  0  0
  2  8  1  0
  2  1  1  6
  3  2  1  0
  4  3  1  0
  4  5  1  0
  6  7  1  0
  6  5  1  0
  8  9  2  0
 10 11  1  0
 11 12  1  0
 12 13  1  1
 14 12  1  0
 14 15  1  6
 15  8  1  0
 16 14  1  0
 17 16  2  0
 18 16  1  0
 18 22  1  0
 19 20  1  0
 19 18  1  0
 20 21  1  0
 21 22  1  0
 22 23  1  1
 23 25  1  0
 24 23  2  0
M  END
$$$$
