KIP.pdb
     RDKit          3D

 25 25  0  0  1  0  0  0  0  0999 V2000
   29.7030  -23.1913  -17.3775 N   0  0  0  0  0  0  0  0  0  0  0  0
   28.3041  -23.0073  -17.2784 C   0  0  1  0  0  0  0  0  0  0  0  0
   27.5555  -24.2939  -17.2507 C   0  0  0  0  0  0  0  0  0  0  0  0
   28.3372  -25.5327  -17.4723 C   0  0  0  0  0  0  0  0  0  0  0  0
   28.3418  -26.5459  -16.3767 C   0  0  0  0  0  0  0  0  0  0  0  0
   27.3432  -27.6468  -16.5178 C   0  0  0  0  0  0  0  0  0  0  0  0
   27.8100  -28.8522  -17.1272 N   0  0  0  0  0  0  0  0  0  0  0  0
   27.9545  -22.1748  -16.0934 C   0  0  0  0  0  0  0  0  0  0  0  0
   28.7348  -22.2717  -15.0892 O   0  0  0  0  0  0  0  0  0  0  0  0
   26.9999  -16.6025  -14.6763 C   0  0  0  0  0  0  0  0  0  0  0  0
   26.8032  -18.0539  -14.2411 C   0  0  0  0  0  0  0  0  0  0  0  0
   26.7421  -18.9759  -15.4161 C   0  0  2  0  0  0  0  0  0  0  0  0
   25.6643  -18.6275  -16.4112 C   0  0  0  0  0  0  0  0  0  0  0  0
   26.6853  -20.4025  -14.9470 C   0  0  2  0  0  0  0  0  0  0  0  0
   26.8234  -21.3183  -16.0641 N   0  0  0  0  0  0  0  0  0  0  0  0
   25.5817  -20.6714  -14.0363 C   0  0  0  0  0  0  0  0  0  0  0  0
   24.3954  -20.7981  -14.5270 O   0  0  0  0  0  0  0  0  0  0  0  0
   25.6345  -20.8162  -12.6272 N   0  0  0  0  0  0  0  0  0  0  0  0
   26.8823  -20.8116  -11.8853 C   0  0  0  0  0  0  0  0  0  0  0  0
   26.5116  -21.0599  -10.4147 C   0  0  0  0  0  0  0  0  0  0  0  0
   25.1195  -20.5135  -10.3815 C   0  0  0  0  0  0  0  0  0  0  0  0
   24.5464  -21.0576  -11.6988 C   0  0  1  0  0  0  0  0  0  0  0  0
   23.2981  -20.3287  -12.0189 C   0  0  0  0  0  0  0  0  0  0  0  0
   23.2322  -19.3592  -12.7621 O   0  0  0  0  0  0  0  0  0  0  0  0
   22.1360  -20.8074  -11.4142 O   0  0  0  0  0  0  0  0  0  0  0  0
  2  8  1  0
  2  1  1  1
  3  2  1  0
  4  3  1  0
  4  5  1  0
  6  7  1  0
  6  5  1  0
  8  9  2  0
 10 11  1  0
 11 12  1  0
 12 13  1  1
 14 12  1  0
 14 15  1  6
 15  8  1  0
 16 14  1  0
 17 16  2  0
 18 16  1  0
 18 22  1  0
 19 20  1  0
 19 18  1  0
 20 21  1  0
 21 22  1  0
 22 23  1  6
 23 25  1  0
 24 23  2  0
M  END
$$$$
