KIP.pdb
     RDKit          3D

 25 25  0  0  1  0  0  0  0  0999 V2000
   21.6186  -20.4947  -17.6155 N   0  0  0  0  0  0  0  0  0  0  0  0
   21.7733  -19.6660  -16.4798 C   0  0  1  0  0  0  0  0  0  0  0  0
   20.6879  -19.8544  -15.4784 C   0  0  0  0  0  0  0  0  0  0  0  0
   19.5534  -18.9030  -15.5280 C   0  0  0  0  0  0  0  0  0  0  0  0
   19.0695  -18.4824  -16.8756 C   0  0  0  0  0  0  0  0  0  0  0  0
   17.8666  -17.5980  -16.8772 C   0  0  0  0  0  0  0  0  0  0  0  0
   16.6786  -18.1421  -16.2986 N   0  0  0  0  0  0  0  0  0  0  0  0
   23.1072  -19.8656  -15.8471 C   0  0  0  0  0  0  0  0  0  0  0  0
   23.4753  -21.0756  -15.6825 O   0  0  0  0  0  0  0  0  0  0  0  0
   27.2845  -16.5345  -16.5911 C   0  0  0  0  0  0  0  0  0  0  0  0
   26.3819  -17.7453  -16.3589 C   0  0  0  0  0  0  0  0  0  0  0  0
   26.1717  -18.0020  -14.9013 C   0  0  2  0  0  0  0  0  0  0  0  0
   27.4468  -18.2357  -14.1316 C   0  0  0  0  0  0  0  0  0  0  0  0
   25.1510  -19.0889  -14.7133 C   0  0  2  0  0  0  0  0  0  0  0  0
   23.9344  -18.7853  -15.4435 N   0  0  0  0  0  0  0  0  0  0  0  0
   24.9766  -19.4883  -13.3241 C   0  0  0  0  0  0  0  0  0  0  0  0
   24.4370  -18.6500  -12.5055 O   0  0  0  0  0  0  0  0  0  0  0  0
   25.3355  -20.7212  -12.7238 N   0  0  0  0  0  0  0  0  0  0  0  0
   25.7176  -21.8881  -13.4984 C   0  0  0  0  0  0  0  0  0  0  0  0
   25.9606  -23.0183  -12.4859 C   0  0  0  0  0  0  0  0  0  0  0  0
   26.3477  -22.2301  -11.2749 C   0  0  0  0  0  0  0  0  0  0  0  0
   25.3277  -21.0822  -11.3189 C   0  0  1  0  0  0  0  0  0  0  0  0
   25.7762  -20.0037  -10.4092 C   0  0  0  0  0  0  0  0  0  0  0  0
   26.5317  -19.0961  -10.7289 O   0  0  0  0  0  0  0  0  0  0  0  0
   25.2842  -20.0569   -9.1052 O   0  0  0  0  0  0  0  0  0  0  0  0
  2  8  1  0
  2  1  1  6
  3  2  1  0
  4  3  1  0
  4  5  1  0
  6  7  1  0
  6  5  1  0
  8  9  2  0
 10 11  1  0
 11 12  1  0
 12 13  1  6
 14 12  1  0
 14 15  1  1
 15  8  1  0
 16 14  1  0
 17 16  2  0
 18 16  1  0
 18 22  1  0
 19 20  1  0
 19 18  1  0
 20 21  1  0
 21 22  1  0
 22 23  1  1
 23 25  1  0
 24 23  2  0
M  END
$$$$
