KIP.pdb
     RDKit          3D

 25 25  0  0  1  0  0  0  0  0999 V2000
   22.8684  -20.5777  -18.5313 N   0  0  0  0  0  0  0  0  0  0  0  0
   22.5691  -19.8333  -17.3664 C   0  0  1  0  0  0  0  0  0  0  0  0
   21.3277  -20.2992  -16.6895 C   0  0  0  0  0  0  0  0  0  0  0  0
   20.0412  -19.9934  -17.3574 C   0  0  0  0  0  0  0  0  0  0  0  0
   19.1180  -19.0462  -16.6664 C   0  0  0  0  0  0  0  0  0  0  0  0
   18.5025  -18.0012  -17.5372 C   0  0  0  0  0  0  0  0  0  0  0  0
   17.6626  -18.4704  -18.5940 N   0  0  0  0  0  0  0  0  0  0  0  0
   23.7159  -19.8400  -16.4155 C   0  0  0  0  0  0  0  0  0  0  0  0
   24.4382  -20.8911  -16.4143 O   0  0  0  0  0  0  0  0  0  0  0  0
   25.6801  -15.4514  -15.7782 C   0  0  0  0  0  0  0  0  0  0  0  0
   26.1733  -16.8936  -15.6711 C   0  0  0  0  0  0  0  0  0  0  0  0
   25.7489  -17.5250  -14.3844 C   0  0  2  0  0  0  0  0  0  0  0  0
   26.8290  -17.5559  -13.3330 C   0  0  0  0  0  0  0  0  0  0  0  0
   25.1340  -18.8701  -14.6508 C   0  0  2  0  0  0  0  0  0  0  0  0
   24.0036  -18.7506  -15.5526 N   0  0  0  0  0  0  0  0  0  0  0  0
   24.9062  -19.6541  -13.4452 C   0  0  0  0  0  0  0  0  0  0  0  0
   23.8655  -19.3935  -12.7288 O   0  0  0  0  0  0  0  0  0  0  0  0
   25.7053  -20.7050  -12.9292 N   0  0  0  0  0  0  0  0  0  0  0  0
   26.7867  -21.3107  -13.6850 C   0  0  0  0  0  0  0  0  0  0  0  0
   27.3480  -22.4401  -12.8069 C   0  0  0  0  0  0  0  0  0  0  0  0
   27.0058  -21.9299  -11.4430 C   0  0  0  0  0  0  0  0  0  0  0  0
   25.5800  -21.4021  -11.6633 C   0  0  1  0  0  0  0  0  0  0  0  0
   25.2056  -20.5347  -10.5234 C   0  0  0  0  0  0  0  0  0  0  0  0
   25.4700  -19.3429  -10.4427 O   0  0  0  0  0  0  0  0  0  0  0  0
   24.5040  -21.1514   -9.4878 O   0  0  0  0  0  0  0  0  0  0  0  0
  2  8  1  0
  2  1  1  6
  3  2  1  0
  4  3  1  0
  4  5  1  0
  6  7  1  0
  6  5  1  0
  8  9  2  0
 10 11  1  0
 11 12  1  0
 12 13  1  1
 14 12  1  0
 14 15  1  1
 15  8  1  0
 16 14  1  0
 17 16  2  0
 18 16  1  0
 18 22  1  0
 19 20  1  0
 19 18  1  0
 20 21  1  0
 21 22  1  0
 22 23  1  1
 23 25  1  0
 24 23  2  0
M  END
$$$$
