FMN.pdb
     RDKit          3D

 28 28  0  0  1  0  0  0  0  0999 V2000
    9.7273  -17.9461   26.2660 N   0  0  0  0  0  0  0  0  0  0  0  0
    8.3089  -17.8243   26.5004 C   0  0  1  0  0  0  0  0  0  0  0  0
    8.0725  -17.4416   27.9306 C   0  0  0  0  0  0  0  0  0  0  0  0
    8.9985  -16.3593   28.3052 C   0  0  0  0  0  0  0  0  0  0  0  0
   10.2529  -16.6046   28.8284 C   0  0  0  0  0  0  0  0  0  0  0  0
   11.1084  -15.5610   29.1736 C   0  0  0  0  0  0  0  0  0  0  0  0
   10.7174  -14.2484   28.9990 C   0  0  0  0  0  0  0  0  0  0  0  0
    9.4828  -14.0011   28.4842 C   0  0  0  0  0  0  0  0  0  0  0  0
    8.6386  -15.0339   28.1434 C   0  0  0  0  0  0  0  0  0  0  0  0
    7.7418  -16.9009   25.5177 C   0  0  0  0  0  0  0  0  0  0  0  0
    6.5126  -17.0318   25.2281 O   0  0  0  0  0  0  0  0  0  0  0  0
    5.7029  -11.9288   26.7310 C   0  0  0  0  0  0  0  0  0  0  0  0
    6.9912  -12.1898   25.4836 S   0  0  0  0  0  0  0  0  0  0  0  0
    6.6120  -13.7303   24.5935 C   0  0  0  0  0  0  0  0  0  0  0  0
    7.7211  -13.9505   23.5870 C   0  0  0  0  0  0  0  0  0  0  0  0
    8.0543  -15.4155   23.5468 C   0  0  2  0  0  0  0  0  0  0  0  0
    8.4419  -15.8745   24.8609 N   0  0  0  0  0  0  0  0  0  0  0  0
    9.0552  -15.7614   22.5157 C   0  0  0  0  0  0  0  0  0  0  0  0
    8.8416  -15.3667   21.3400 O   0  0  0  0  0  0  0  0  0  0  0  0
   11.7653  -14.8262   20.4862 N   0  0  0  0  0  0  0  0  0  0  0  0
   12.6293  -15.2598   21.5167 C   0  0  0  0  0  0  0  0  0  0  0  0
   13.4861  -14.5150   22.0325 O   0  0  0  0  0  0  0  0  0  0  0  0
   12.4741  -16.6609   21.9687 C   0  0  0  0  0  0  0  0  0  0  0  0
   11.0618  -17.0979   21.7510 C   0  0  2  0  0  0  0  0  0  0  0  0
   10.2214  -16.5033   22.7890 N   0  0  0  0  0  0  0  0  0  0  0  0
   10.8593  -18.5614   21.8336 C   0  0  0  0  0  0  0  0  0  0  0  0
   11.4528  -19.3681   21.0372 O   0  0  0  0  0  0  0  0  0  0  0  0
   10.0270  -19.1872   22.7609 O   0  0  0  0  0  0  0  0  0  0  0  0
  2  3  1  0
  2  1  1  1
  4  3  1  0
  5  4  2  0
  6  5  1  0
  7  8  1  0
  7  6  2  0
  8  9  2  0
  9  4  1  0
 10 11  2  0
 10  2  1  0
 13 12  1  0
 14 13  1  0
 15 14  1  0
 16 15  1  1
 16 17  1  0
 17 10  1  0
 18 25  1  0
 18 16  1  0
 19 18  2  0
 20 21  1  0
 21 22  2  0
 23 21  1  0
 24 23  1  1
 24 25  1  0
 26 24  1  0
 26 28  1  0
 27 26  2  0
M  END
$$$$
