FMN.pdb
     RDKit          3D

 28 28  0  0  1  0  0  0  0  0999 V2000
    9.9165  -17.2795   21.1071 N   0  0  0  0  0  0  0  0  0  0  0  0
    9.3825  -16.1247   21.7877 C   0  0  1  0  0  0  0  0  0  0  0  0
    7.9875  -15.8639   21.3042 C   0  0  0  0  0  0  0  0  0  0  0  0
    7.9244  -14.5234   20.6972 C   0  0  0  0  0  0  0  0  0  0  0  0
    9.0058  -13.6645   20.6825 C   0  0  0  0  0  0  0  0  0  0  0  0
    8.9176  -12.4019   20.1007 C   0  0  0  0  0  0  0  0  0  0  0  0
    7.7379  -11.9787   19.5218 C   0  0  0  0  0  0  0  0  0  0  0  0
    6.6695  -12.8208   19.5336 C   0  0  0  0  0  0  0  0  0  0  0  0
    6.7585  -14.0683   20.1090 C   0  0  0  0  0  0  0  0  0  0  0  0
    9.5025  -16.3257   23.2317 C   0  0  0  0  0  0  0  0  0  0  0  0
    9.5722  -17.5204   23.6557 O   0  0  0  0  0  0  0  0  0  0  0  0
    5.9040  -12.2948   27.0128 C   0  0  0  0  0  0  0  0  0  0  0  0
    7.4747  -12.7092   26.2096 S   0  0  0  0  0  0  0  0  0  0  0  0
    7.1068  -13.6868   24.7202 C   0  0  0  0  0  0  0  0  0  0  0  0
    7.3031  -15.1438   25.0813 C   0  0  0  0  0  0  0  0  0  0  0  0
    8.7533  -15.3714   25.4035 C   0  0  2  0  0  0  0  0  0  0  0  0
    9.5475  -15.3064   24.1983 N   0  0  0  0  0  0  0  0  0  0  0  0
    8.9967  -16.6131   26.1675 C   0  0  0  0  0  0  0  0  0  0  0  0
    8.2354  -16.8586   27.1390 O   0  0  0  0  0  0  0  0  0  0  0  0
   10.9983  -20.2550   23.5576 N   0  0  0  0  0  0  0  0  0  0  0  0
   10.4448  -20.2411   24.8574 C   0  0  0  0  0  0  0  0  0  0  0  0
    9.3358  -20.7469   25.1206 O   0  0  0  0  0  0  0  0  0  0  0  0
   11.2494  -19.5894   25.9155 C   0  0  0  0  0  0  0  0  0  0  0  0
   10.3782  -18.6636   26.7008 C   0  0  2  0  0  0  0  0  0  0  0  0
   10.0295  -17.5204   25.8589 N   0  0  0  0  0  0  0  0  0  0  0  0
   11.0180  -18.1114   27.9154 C   0  0  0  0  0  0  0  0  0  0  0  0
   11.1276  -18.7987   28.9891 O   0  0  0  0  0  0  0  0  0  0  0  0
   11.5500  -16.8256   28.0064 O   0  0  0  0  0  0  0  0  0  0  0  0
  2  3  1  0
  2  1  1  6
  4  3  1  0
  5  4  2  0
  6  5  1  0
  7  8  1  0
  7  6  2  0
  8  9  2  0
  9  4  1  0
 10 11  2  0
 10  2  1  0
 13 12  1  0
 14 13  1  0
 15 14  1  0
 16 15  1  6
 16 17  1  0
 17 10  1  0
 18 25  1  0
 18 16  1  0
 19 18  2  0
 20 21  1  0
 21 22  2  0
 23 21  1  0
 24 23  1  6
 24 25  1  0
 26 24  1  0
 26 28  1  0
 27 26  2  0
M  END
$$$$
