FMN.pdb
     RDKit          3D

 28 28  0  0  1  0  0  0  0  0999 V2000
    8.5627  -16.3027   25.7026 N   0  0  0  0  0  0  0  0  0  0  0  0
    7.2254  -16.8006   25.4892 C   0  0  1  0  0  0  0  0  0  0  0  0
    6.2888  -16.1394   26.4553 C   0  0  0  0  0  0  0  0  0  0  0  0
    6.5390  -14.6880   26.4614 C   0  0  0  0  0  0  0  0  0  0  0  0
    7.8105  -14.1552   26.5445 C   0  0  0  0  0  0  0  0  0  0  0  0
    8.0177  -12.7777   26.5478 C   0  0  0  0  0  0  0  0  0  0  0  0
    6.9479  -11.9087   26.4674 C   0  0  0  0  0  0  0  0  0  0  0  0
    5.6933  -12.4282   26.3854 C   0  0  0  0  0  0  0  0  0  0  0  0
    5.4905  -13.7899   26.3823 C   0  0  0  0  0  0  0  0  0  0  0  0
    6.8730  -16.6289   24.0798 C   0  0  0  0  0  0  0  0  0  0  0  0
    5.8003  -16.0041   23.8134 O   0  0  0  0  0  0  0  0  0  0  0  0
    7.8980  -11.9592   18.9913 C   0  0  0  0  0  0  0  0  0  0  0  0
    7.9263  -12.5960   20.6877 S   0  0  0  0  0  0  0  0  0  0  0  0
    7.3971  -14.3360   20.6468 C   0  0  0  0  0  0  0  0  0  0  0  0
    7.4985  -14.8681   22.0604 C   0  0  0  0  0  0  0  0  0  0  0  0
    8.2122  -16.1904   22.0298 C   0  0  2  0  0  0  0  0  0  0  0  0
    7.6216  -17.0976   22.9867 N   0  0  0  0  0  0  0  0  0  0  0  0
    9.6755  -16.0713   22.2012 C   0  0  0  0  0  0  0  0  0  0  0  0
   10.3132  -15.4202   21.3334 O   0  0  0  0  0  0  0  0  0  0  0  0
   10.6092  -18.6728   25.5754 N   0  0  0  0  0  0  0  0  0  0  0  0
   11.8704  -18.2434   25.1053 C   0  0  0  0  0  0  0  0  0  0  0  0
   12.7827  -19.0395   24.8072 O   0  0  0  0  0  0  0  0  0  0  0  0
   12.0700  -16.7820   24.9781 C   0  0  0  0  0  0  0  0  0  0  0  0
   11.7801  -16.3630   23.5734 C   0  0  2  0  0  0  0  0  0  0  0  0
   10.3766  -16.6472   23.2791 N   0  0  0  0  0  0  0  0  0  0  0  0
   12.5767  -17.0760   22.5503 C   0  0  0  0  0  0  0  0  0  0  0  0
   13.8529  -16.9915   22.5126 O   0  0  0  0  0  0  0  0  0  0  0  0
   12.0310  -17.8875   21.5562 O   0  0  0  0  0  0  0  0  0  0  0  0
  2  3  1  0
  2  1  1  6
  4  3  1  0
  5  4  2  0
  6  5  1  0
  7  8  1  0
  7  6  2  0
  8  9  2  0
  9  4  1  0
 10 11  2  0
 10  2  1  0
 13 12  1  0
 14 13  1  0
 15 14  1  0
 16 15  1  1
 16 17  1  0
 17 10  1  0
 18 25  1  0
 18 16  1  0
 19 18  2  0
 20 21  1  0
 21 22  2  0
 23 21  1  0
 24 23  1  1
 24 25  1  0
 26 24  1  0
 26 28  1  0
 27 26  2  0
M  END
$$$$
