FMN.pdb
     RDKit          3D

 28 28  0  0  1  0  0  0  0  0999 V2000
    7.0608  -18.8783   26.3027 N   0  0  0  0  0  0  0  0  0  0  0  0
    7.8773  -17.6935   26.4093 C   0  0  1  0  0  0  0  0  0  0  0  0
    9.2605  -18.0801   26.8398 C   0  0  0  0  0  0  0  0  0  0  0  0
    9.5951  -17.3801   28.0917 C   0  0  0  0  0  0  0  0  0  0  0  0
    9.6993  -18.0357   29.3027 C   0  0  0  0  0  0  0  0  0  0  0  0
   10.0177  -17.3480   30.4715 C   0  0  0  0  0  0  0  0  0  0  0  0
   10.2376  -15.9853   30.4440 C   0  0  0  0  0  0  0  0  0  0  0  0
   10.1362  -15.3345   29.2538 C   0  0  0  0  0  0  0  0  0  0  0  0
    9.8214  -16.0159   28.0996 C   0  0  0  0  0  0  0  0  0  0  0  0
    7.8125  -16.9560   25.1475 C   0  0  0  0  0  0  0  0  0  0  0  0
    7.4770  -17.5999   24.1061 O   0  0  0  0  0  0  0  0  0  0  0  0
    5.3625  -11.3621   26.6458 C   0  0  0  0  0  0  0  0  0  0  0  0
    6.6417  -11.5692   25.3789 S   0  0  0  0  0  0  0  0  0  0  0  0
    6.5978  -13.2962   24.8089 C   0  0  0  0  0  0  0  0  0  0  0  0
    7.7543  -13.4805   23.8495 C   0  0  0  0  0  0  0  0  0  0  0  0
    8.0208  -14.9509   23.6898 C   0  0  2  0  0  0  0  0  0  0  0  0
    8.0909  -15.5881   24.9847 N   0  0  0  0  0  0  0  0  0  0  0  0
    9.2058  -15.2452   22.8567 C   0  0  0  0  0  0  0  0  0  0  0  0
    9.2356  -14.7638   21.6944 O   0  0  0  0  0  0  0  0  0  0  0  0
   13.0146  -16.5339   25.5773 N   0  0  0  0  0  0  0  0  0  0  0  0
   13.0024  -16.1705   24.2120 C   0  0  0  0  0  0  0  0  0  0  0  0
   13.4595  -15.0853   23.8018 O   0  0  0  0  0  0  0  0  0  0  0  0
   12.4140  -17.1484   23.2691 C   0  0  0  0  0  0  0  0  0  0  0  0
   11.3785  -16.4689   22.4331 C   0  0  2  0  0  0  0  0  0  0  0  0
   10.2878  -16.0302   23.3021 N   0  0  0  0  0  0  0  0  0  0  0  0
   10.7695  -17.3341   21.3986 C   0  0  0  0  0  0  0  0  0  0  0  0
    9.9307  -18.2525   21.6989 O   0  0  0  0  0  0  0  0  0  0  0  0
   11.0411  -17.2359   20.0344 O   0  0  0  0  0  0  0  0  0  0  0  0
  2  3  1  0
  2  1  1  6
  4  3  1  0
  5  4  2  0
  6  5  1  0
  7  8  1  0
  7  6  2  0
  8  9  2  0
  9  4  1  0
 10 11  2  0
 10  2  1  0
 13 12  1  0
 14 13  1  0
 15 14  1  0
 16 15  1  1
 16 17  1  0
 17 10  1  0
 18 25  1  0
 18 16  1  0
 19 18  2  0
 20 21  1  0
 21 22  2  0
 23 21  1  0
 24 23  1  1
 24 25  1  0
 26 24  1  0
 26 28  1  0
 27 26  2  0
M  END
$$$$
