FMN.pdb
     RDKit          3D

 28 28  0  0  1  0  0  0  0  0999 V2000
    7.8816  -16.7078   20.6162 N   0  0  0  0  0  0  0  0  0  0  0  0
    7.0721  -15.9990   21.5775 C   0  0  1  0  0  0  0  0  0  0  0  0
    5.8688  -16.8254   21.9197 C   0  0  0  0  0  0  0  0  0  0  0  0
    6.3062  -18.1075   22.4977 C   0  0  0  0  0  0  0  0  0  0  0  0
    5.9549  -18.5042   23.7731 C   0  0  0  0  0  0  0  0  0  0  0  0
    6.3828  -19.7231   24.2942 C   0  0  0  0  0  0  0  0  0  0  0  0
    7.1737  -20.5675   23.5408 C   0  0  0  0  0  0  0  0  0  0  0  0
    7.5227  -20.1817   22.2838 C   0  0  0  0  0  0  0  0  0  0  0  0
    7.0988  -18.9767   21.7705 C   0  0  0  0  0  0  0  0  0  0  0  0
    7.9060  -15.6288   22.7210 C   0  0  0  0  0  0  0  0  0  0  0  0
    9.1368  -15.9372   22.6760 O   0  0  0  0  0  0  0  0  0  0  0  0
    7.0351  -11.1657   27.4626 C   0  0  0  0  0  0  0  0  0  0  0  0
    5.8029  -11.7783   26.2834 S   0  0  0  0  0  0  0  0  0  0  0  0
    6.6486  -12.8684   25.0979 C   0  0  0  0  0  0  0  0  0  0  0  0
    7.7290  -13.6060   25.8598 C   0  0  0  0  0  0  0  0  0  0  0  0
    8.3704  -14.6081   24.9416 C   0  0  2  0  0  0  0  0  0  0  0  0
    7.4625  -14.9576   23.8733 N   0  0  0  0  0  0  0  0  0  0  0  0
    8.8913  -15.7991   25.6451 C   0  0  0  0  0  0  0  0  0  0  0  0
    8.1873  -16.2857   26.5677 O   0  0  0  0  0  0  0  0  0  0  0  0
    7.9342  -18.6482   27.6890 N   0  0  0  0  0  0  0  0  0  0  0  0
    9.1550  -19.1473   27.1822 C   0  0  0  0  0  0  0  0  0  0  0  0
    9.8741  -19.9397   27.8224 O   0  0  0  0  0  0  0  0  0  0  0  0
    9.5546  -18.6831   25.8344 C   0  0  0  0  0  0  0  0  0  0  0  0
   10.6067  -17.6302   25.9650 C   0  0  2  0  0  0  0  0  0  0  0  0
   10.1245  -16.4041   25.3313 N   0  0  0  0  0  0  0  0  0  0  0  0
   11.8884  -17.9673   25.3068 C   0  0  0  0  0  0  0  0  0  0  0  0
   12.5640  -19.0013   25.6408 O   0  0  0  0  0  0  0  0  0  0  0  0
   12.4686  -17.2139   24.2869 O   0  0  0  0  0  0  0  0  0  0  0  0
  2  3  1  0
  2  1  1  6
  4  3  1  0
  5  4  2  0
  6  5  1  0
  7  8  1  0
  7  6  2  0
  8  9  2  0
  9  4  1  0
 10 11  2  0
 10  2  1  0
 13 12  1  0
 14 13  1  0
 15 14  1  0
 16 15  1  1
 16 17  1  0
 17 10  1  0
 18 25  1  0
 18 16  1  0
 19 18  2  0
 20 21  1  0
 21 22  2  0
 23 21  1  0
 24 23  1  6
 24 25  1  0
 26 24  1  0
 26 28  1  0
 27 26  2  0
M  END
$$$$
