FMN.pdb
     RDKit          3D

 28 28  0  0  1  0  0  0  0  0999 V2000
    8.2046  -17.9476   26.1519 N   0  0  0  0  0  0  0  0  0  0  0  0
    8.5822  -16.6545   25.6349 C   0  0  1  0  0  0  0  0  0  0  0  0
   10.0022  -16.3618   26.0167 C   0  0  0  0  0  0  0  0  0  0  0  0
   10.0183  -15.4334   27.1599 C   0  0  0  0  0  0  0  0  0  0  0  0
    9.4999  -14.1556   27.0847 C   0  0  0  0  0  0  0  0  0  0  0  0
    9.5283  -13.2986   28.1825 C   0  0  0  0  0  0  0  0  0  0  0  0
   10.0798  -13.7117   29.3789 C   0  0  0  0  0  0  0  0  0  0  0  0
   10.5919  -14.9695   29.4585 C   0  0  0  0  0  0  0  0  0  0  0  0
   10.5629  -15.8150   28.3724 C   0  0  0  0  0  0  0  0  0  0  0  0
    8.3154  -16.6207   24.1969 C   0  0  0  0  0  0  0  0  0  0  0  0
    8.4396  -17.7059   23.5497 O   0  0  0  0  0  0  0  0  0  0  0  0
    8.5459  -11.3153   20.1317 C   0  0  0  0  0  0  0  0  0  0  0  0
    7.3074  -12.4312   19.4213 S   0  0  0  0  0  0  0  0  0  0  0  0
    7.6732  -14.1188   19.9933 C   0  0  0  0  0  0  0  0  0  0  0  0
    7.6685  -14.0895   21.5069 C   0  0  0  0  0  0  0  0  0  0  0  0
    7.9679  -15.4705   22.0186 C   0  0  2  0  0  0  0  0  0  0  0  0
    7.9313  -15.4854   23.4629 N   0  0  0  0  0  0  0  0  0  0  0  0
    9.2260  -16.0338   21.4851 C   0  0  0  0  0  0  0  0  0  0  0  0
    9.1749  -16.6287   20.3773 O   0  0  0  0  0  0  0  0  0  0  0  0
   13.9895  -14.6128   19.2975 N   0  0  0  0  0  0  0  0  0  0  0  0
   12.6422  -14.8724   19.6345 C   0  0  0  0  0  0  0  0  0  0  0  0
   11.7745  -15.1354   18.7784 O   0  0  0  0  0  0  0  0  0  0  0  0
   12.2944  -14.8190   21.0725 C   0  0  0  0  0  0  0  0  0  0  0  0
   11.7529  -16.1442   21.5006 C   0  0  2  0  0  0  0  0  0  0  0  0
   10.4620  -15.9345   22.1541 N   0  0  0  0  0  0  0  0  0  0  0  0
   12.6048  -16.8627   22.4740 C   0  0  0  0  0  0  0  0  0  0  0  0
   13.2950  -16.2388   23.3525 O   0  0  0  0  0  0  0  0  0  0  0  0
   12.7349  -18.2500   22.5288 O   0  0  0  0  0  0  0  0  0  0  0  0
  2  3  1  0
  2  1  1  6
  4  3  1  0
  5  4  2  0
  6  5  1  0
  7  8  1  0
  7  6  2  0
  8  9  2  0
  9  4  1  0
 10 11  2  0
 10  2  1  0
 13 12  1  0
 14 13  1  0
 15 14  1  0
 16 15  1  1
 16 17  1  0
 17 10  1  0
 18 25  1  0
 18 16  1  0
 19 18  2  0
 20 21  1  0
 21 22  2  0
 23 21  1  0
 24 23  1  1
 24 25  1  0
 26 24  1  0
 26 28  1  0
 27 26  2  0
M  END
$$$$
