FMN.pdb
     RDKit          3D

 28 28  0  0  1  0  0  0  0  0999 V2000
    9.3398  -16.4620   19.4573 N   0  0  0  0  0  0  0  0  0  0  0  0
    8.4422  -16.8214   20.5282 C   0  0  1  0  0  0  0  0  0  0  0  0
    8.4598  -18.3091   20.7133 C   0  0  0  0  0  0  0  0  0  0  0  0
    7.7876  -18.9507   19.5707 C   0  0  0  0  0  0  0  0  0  0  0  0
    8.4391  -19.2208   18.3833 C   0  0  0  0  0  0  0  0  0  0  0  0
    7.7782  -19.8292   17.3187 C   0  0  0  0  0  0  0  0  0  0  0  0
    6.4468  -20.1779   17.4287 C   0  0  0  0  0  0  0  0  0  0  0  0
    5.8002  -19.9141   18.5961 C   0  0  0  0  0  0  0  0  0  0  0  0
    6.4551  -19.3128   19.6472 C   0  0  0  0  0  0  0  0  0  0  0  0
    8.7931  -16.0517   21.7217 C   0  0  0  0  0  0  0  0  0  0  0  0
   10.0264  -15.8946   21.9791 O   0  0  0  0  0  0  0  0  0  0  0  0
    6.9654  -11.5298   27.8660 C   0  0  0  0  0  0  0  0  0  0  0  0
    6.3834  -12.3151   26.3400 S   0  0  0  0  0  0  0  0  0  0  0  0
    7.6908  -13.4313   25.7450 C   0  0  0  0  0  0  0  0  0  0  0  0
    7.2134  -14.0220   24.4355 C   0  0  0  0  0  0  0  0  0  0  0  0
    8.3142  -14.8645   23.8548 C   0  0  2  0  0  0  0  0  0  0  0  0
    7.8796  -15.4667   22.6153 N   0  0  0  0  0  0  0  0  0  0  0  0
    8.8517  -15.8625   24.8033 C   0  0  0  0  0  0  0  0  0  0  0  0
    8.1064  -16.8253   25.1214 O   0  0  0  0  0  0  0  0  0  0  0  0
   11.8849  -18.4930   24.0888 N   0  0  0  0  0  0  0  0  0  0  0  0
   12.3774  -17.2453   24.5326 C   0  0  0  0  0  0  0  0  0  0  0  0
   12.9580  -16.4441   23.7738 O   0  0  0  0  0  0  0  0  0  0  0  0
   12.1726  -16.9203   25.9623 C   0  0  0  0  0  0  0  0  0  0  0  0
   10.7089  -16.8043   26.2391 C   0  0  2  0  0  0  0  0  0  0  0  0
   10.1443  -15.7831   25.3585 N   0  0  0  0  0  0  0  0  0  0  0  0
   10.3831  -16.3929   27.6227 C   0  0  0  0  0  0  0  0  0  0  0  0
   10.1238  -15.1753   27.9185 O   0  0  0  0  0  0  0  0  0  0  0  0
   10.3273  -17.2661   28.7084 O   0  0  0  0  0  0  0  0  0  0  0  0
  2  3  1  0
  2  1  1  6
  4  3  1  0
  5  4  2  0
  6  5  1  0
  7  8  1  0
  7  6  2  0
  8  9  2  0
  9  4  1  0
 10 11  2  0
 10  2  1  0
 13 12  1  0
 14 13  1  0
 15 14  1  0
 16 15  1  1
 16 17  1  0
 17 10  1  0
 18 25  1  0
 18 16  1  0
 19 18  2  0
 20 21  1  0
 21 22  2  0
 23 21  1  0
 24 23  1  1
 24 25  1  0
 26 24  1  0
 26 28  1  0
 27 26  2  0
M  END
$$$$
