FMN.pdb
     RDKit          3D

 28 28  0  0  1  0  0  0  0  0999 V2000
    5.4105  -19.7214   22.1054 N   0  0  0  0  0  0  0  0  0  0  0  0
    5.8935  -19.5208   23.4502 C   0  0  1  0  0  0  0  0  0  0  0  0
    6.7628  -20.6772   23.8438 C   0  0  0  0  0  0  0  0  0  0  0  0
    5.9241  -21.8709   24.0465 C   0  0  0  0  0  0  0  0  0  0  0  0
    6.0497  -23.0059   23.2698 C   0  0  0  0  0  0  0  0  0  0  0  0
    5.2429  -24.1210   23.4843 C   0  0  0  0  0  0  0  0  0  0  0  0
    4.2928  -24.1153   24.4859 C   0  0  0  0  0  0  0  0  0  0  0  0
    4.1648  -22.9998   25.2539 C   0  0  0  0  0  0  0  0  0  0  0  0
    4.9631  -21.8987   25.0405 C   0  0  0  0  0  0  0  0  0  0  0  0
    6.5415  -18.2119   23.5327 C   0  0  0  0  0  0  0  0  0  0  0  0
    7.2825  -17.8600   22.5636 O   0  0  0  0  0  0  0  0  0  0  0  0
    6.5655  -11.1306   26.2269 C   0  0  0  0  0  0  0  0  0  0  0  0
    6.7403  -12.7862   26.9429 S   0  0  0  0  0  0  0  0  0  0  0  0
    7.4492  -13.8789   25.6729 C   0  0  0  0  0  0  0  0  0  0  0  0
    6.6918  -15.1881   25.7354 C   0  0  0  0  0  0  0  0  0  0  0  0
    7.2186  -16.1035   24.6662 C   0  0  2  0  0  0  0  0  0  0  0  0
    6.4159  -17.3029   24.5971 N   0  0  0  0  0  0  0  0  0  0  0  0
    8.6594  -16.4019   24.8071 C   0  0  0  0  0  0  0  0  0  0  0  0
    8.9908  -17.3094   25.6135 O   0  0  0  0  0  0  0  0  0  0  0  0
   14.0382  -15.3089   23.3256 N   0  0  0  0  0  0  0  0  0  0  0  0
   13.0566  -16.0450   22.6250 C   0  0  0  0  0  0  0  0  0  0  0  0
   13.3344  -17.0399   21.9266 O   0  0  0  0  0  0  0  0  0  0  0  0
   11.6574  -15.5791   22.7556 C   0  0  0  0  0  0  0  0  0  0  0  0
   11.0337  -16.2146   23.9555 C   0  0  2  0  0  0  0  0  0  0  0  0
    9.6630  -15.7237   24.0873 N   0  0  0  0  0  0  0  0  0  0  0  0
   11.7160  -15.9036   25.2312 C   0  0  0  0  0  0  0  0  0  0  0  0
   12.8619  -16.3955   25.5180 O   0  0  0  0  0  0  0  0  0  0  0  0
   11.1931  -15.0675   26.2171 O   0  0  0  0  0  0  0  0  0  0  0  0
  2  3  1  0
  2  1  1  6
  4  3  1  0
  5  4  2  0
  6  5  1  0
  7  8  1  0
  7  6  2  0
  8  9  2  0
  9  4  1  0
 10 11  2  0
 10  2  1  0
 13 12  1  0
 14 13  1  0
 15 14  1  0
 16 15  1  1
 16 17  1  0
 17 10  1  0
 18 25  1  0
 18 16  1  0
 19 18  2  0
 20 21  1  0
 21 22  2  0
 23 21  1  0
 24 23  1  6
 24 25  1  0
 26 24  1  0
 26 28  1  0
 27 26  2  0
M  END
$$$$
