FMN.pdb
     RDKit          3D

 28 28  0  0  1  0  0  0  0  0999 V2000
   10.1703  -14.3402   22.1217 N   0  0  0  0  0  0  0  0  0  0  0  0
    9.1260  -15.3102   22.3458 C   0  0  1  0  0  0  0  0  0  0  0  0
    8.5755  -15.7617   21.0263 C   0  0  0  0  0  0  0  0  0  0  0  0
    8.1075  -14.5899   20.2665 C   0  0  0  0  0  0  0  0  0  0  0  0
    6.9011  -13.9704   20.5277 C   0  0  0  0  0  0  0  0  0  0  0  0
    6.4836  -12.8631   19.7931 C   0  0  0  0  0  0  0  0  0  0  0  0
    7.2732  -12.3571   18.7799 C   0  0  0  0  0  0  0  0  0  0  0  0
    8.4625  -12.9635   18.5183 C   0  0  0  0  0  0  0  0  0  0  0  0
    8.8735  -14.0578   19.2455 C   0  0  0  0  0  0  0  0  0  0  0  0
    9.6475  -16.3841   23.1913 C   0  0  0  0  0  0  0  0  0  0  0  0
   10.8668  -16.7071   23.0471 O   0  0  0  0  0  0  0  0  0  0  0  0
    7.6523  -11.6312   26.6237 C   0  0  0  0  0  0  0  0  0  0  0  0
    6.5892  -12.8994   25.8851 S   0  0  0  0  0  0  0  0  0  0  0  0
    7.2686  -14.5298   26.3206 C   0  0  0  0  0  0  0  0  0  0  0  0
    7.7137  -15.1880   25.0321 C   0  0  0  0  0  0  0  0  0  0  0  0
    8.4397  -16.4612   25.3648 C   0  0  2  0  0  0  0  0  0  0  0  0
    8.9132  -17.0952   24.1558 N   0  0  0  0  0  0  0  0  0  0  0  0
    7.6502  -17.3836   26.2078 C   0  0  0  0  0  0  0  0  0  0  0  0
    6.8245  -16.8771   27.0110 O   0  0  0  0  0  0  0  0  0  0  0  0
   10.2684  -20.4113   23.8138 N   0  0  0  0  0  0  0  0  0  0  0  0
   10.5367  -20.4220   25.2009 C   0  0  0  0  0  0  0  0  0  0  0  0
   11.0824  -21.3868   25.7719 O   0  0  0  0  0  0  0  0  0  0  0  0
   10.1367  -19.2185   25.9646 C   0  0  0  0  0  0  0  0  0  0  0  0
    8.8984  -19.5167   26.7459 C   0  0  2  0  0  0  0  0  0  0  0  0
    7.7809  -18.7854   26.1512 N   0  0  0  0  0  0  0  0  0  0  0  0
    8.9621  -19.1048   28.1657 C   0  0  0  0  0  0  0  0  0  0  0  0
    8.7931  -17.8872   28.5207 O   0  0  0  0  0  0  0  0  0  0  0  0
    9.2044  -19.9778   29.2257 O   0  0  0  0  0  0  0  0  0  0  0  0
  2  3  1  0
  2  1  1  6
  4  3  1  0
  5  4  2  0
  6  5  1  0
  7  8  1  0
  7  6  2  0
  8  9  2  0
  9  4  1  0
 10 11  2  0
 10  2  1  0
 13 12  1  0
 14 13  1  0
 15 14  1  0
 16 15  1  6
 16 17  1  0
 17 10  1  0
 18 25  1  0
 18 16  1  0
 19 18  2  0
 20 21  1  0
 21 22  2  0
 23 21  1  0
 24 23  1  6
 24 25  1  0
 26 24  1  0
 26 28  1  0
 27 26  2  0
M  END
$$$$
