FMN.pdb
     RDKit          3D

 28 28  0  0  1  0  0  0  0  0999 V2000
    9.1106  -16.8079   21.0301 N   0  0  0  0  0  0  0  0  0  0  0  0
    8.8323  -15.5448   21.6696 C   0  0  1  0  0  0  0  0  0  0  0  0
    7.3978  -15.1757   21.4378 C   0  0  0  0  0  0  0  0  0  0  0  0
    7.3134  -14.2305   20.3115 C   0  0  0  0  0  0  0  0  0  0  0  0
    6.9551  -14.6252   19.0374 C   0  0  0  0  0  0  0  0  0  0  0  0
    6.8830  -13.7090   17.9907 C   0  0  0  0  0  0  0  0  0  0  0  0
    7.1705  -12.3760   18.2062 C   0  0  0  0  0  0  0  0  0  0  0  0
    7.5240  -11.9817   19.4592 C   0  0  0  0  0  0  0  0  0  0  0  0
    7.5947  -12.8886   20.4925 C   0  0  0  0  0  0  0  0  0  0  0  0
    9.2236  -15.6276   23.0768 C   0  0  0  0  0  0  0  0  0  0  0  0
    9.9150  -14.6748   23.5523 O   0  0  0  0  0  0  0  0  0  0  0  0
    7.2979  -11.5544   27.0465 C   0  0  0  0  0  0  0  0  0  0  0  0
    6.6588  -13.1978   26.6283 S   0  0  0  0  0  0  0  0  0  0  0  0
    7.9633  -14.1018   25.7393 C   0  0  0  0  0  0  0  0  0  0  0  0
    7.4476  -15.5034   25.4917 C   0  0  0  0  0  0  0  0  0  0  0  0
    8.6203  -16.4329   25.3519 C   0  0  2  0  0  0  0  0  0  0  0  0
    8.8999  -16.6757   23.9553 N   0  0  0  0  0  0  0  0  0  0  0  0
    8.4691  -17.6876   26.1185 C   0  0  0  0  0  0  0  0  0  0  0  0
    7.3210  -18.1993   26.1788 O   0  0  0  0  0  0  0  0  0  0  0  0
    9.7032  -21.1399   24.9204 N   0  0  0  0  0  0  0  0  0  0  0  0
   10.7045  -20.4829   25.6701 C   0  0  0  0  0  0  0  0  0  0  0  0
   11.6859  -19.9273   25.1381 O   0  0  0  0  0  0  0  0  0  0  0  0
   10.5390  -20.4799   27.1412 C   0  0  0  0  0  0  0  0  0  0  0  0
    9.4029  -19.5821   27.5100 C   0  0  2  0  0  0  0  0  0  0  0  0
    9.5400  -18.3258   26.7749 N   0  0  0  0  0  0  0  0  0  0  0  0
    9.3516  -19.2257   28.9452 C   0  0  0  0  0  0  0  0  0  0  0  0
    9.6959  -18.0662   29.3628 O   0  0  0  0  0  0  0  0  0  0  0  0
    8.9341  -20.0927   29.9545 O   0  0  0  0  0  0  0  0  0  0  0  0
  2  3  1  0
  2  1  1  1
  4  3  1  0
  5  4  2  0
  6  5  1  0
  7  8  1  0
  7  6  2  0
  8  9  2  0
  9  4  1  0
 10 11  2  0
 10  2  1  0
 13 12  1  0
 14 13  1  0
 15 14  1  0
 16 15  1  6
 16 17  1  0
 17 10  1  0
 18 25  1  0
 18 16  1  0
 19 18  2  0
 20 21  1  0
 21 22  2  0
 23 21  1  0
 24 23  1  1
 24 25  1  0
 26 24  1  0
 26 28  1  0
 27 26  2  0
M  END
$$$$
