IKR.pdb
     RDKit          3D

 29 28  0  0  1  0  0  0  0  0999 V2000
   27.2849  -20.0055   -7.1825 C   0  0  0  0  0  0  0  0  0  0  0  0
   26.1806  -20.5022   -8.0796 C   0  0  0  0  0  0  0  0  0  0  0  0
   26.4135  -20.1766   -9.5195 C   0  0  2  0  0  0  0  0  0  0  0  0
   26.4523  -18.6599   -9.6549 C   0  0  0  0  0  0  0  0  0  0  0  0
   25.3895  -20.6875  -10.4658 C   0  0  2  0  0  0  0  0  0  0  0  0
   25.2462  -22.1211  -10.3699 N   0  0  0  0  0  0  0  0  0  0  0  0
   25.6488  -20.3366  -11.8846 C   0  0  0  0  0  0  0  0  0  0  0  0
   25.5374  -19.1662  -12.3356 O   0  0  0  0  0  0  0  0  0  0  0  0
   26.0409  -21.3411  -12.7997 N   0  0  0  0  0  0  0  0  0  0  0  0
   26.3557  -21.0818  -14.2034 C   0  0  1  0  0  0  0  0  0  0  0  0
   27.4652  -21.9407  -14.6781 C   0  0  0  0  0  0  0  0  0  0  0  0
   27.8972  -21.8000  -16.0820 C   0  0  0  0  0  0  0  0  0  0  0  0
   28.9178  -22.7410  -16.5999 C   0  0  0  0  0  0  0  0  0  0  0  0
   29.2105  -22.3918  -18.0456 C   0  0  0  0  0  0  0  0  0  0  0  0
   30.1751  -23.3825  -18.5417 N   0  0  0  0  0  0  0  0  0  0  0  0
   25.1687  -20.9772  -15.0386 C   0  0  0  0  0  0  0  0  0  0  0  0
   24.2972  -21.8837  -14.9549 O   0  0  0  0  0  0  0  0  0  0  0  0
   20.2904  -21.4141  -12.9563 N   0  0  0  0  0  0  0  0  0  0  0  0
   19.4106  -21.0697  -13.9977 C   0  0  0  0  0  0  0  0  0  0  0  0
   18.4060  -21.8362  -14.2982 N   0  0  0  0  0  0  0  0  0  0  0  0
   19.5872  -19.8766  -14.7549 N   0  0  0  0  0  0  0  0  0  0  0  0
   20.6617  -18.9409  -14.4714 C   0  0  0  0  0  0  0  0  0  0  0  0
   22.0224  -19.6220  -14.7224 C   0  0  0  0  0  0  0  0  0  0  0  0
   22.7196  -18.9437  -15.8425 C   0  0  0  0  0  0  0  0  0  0  0  0
   23.6166  -19.8743  -16.6781 C   0  0  2  0  0  0  0  0  0  0  0  0
   24.9024  -19.9245  -15.9437 N   0  0  0  0  0  0  0  0  0  0  0  0
   23.7582  -19.2480  -18.0033 C   0  0  0  0  0  0  0  0  0  0  0  0
   22.7443  -19.3615  -18.9434 O   0  0  0  0  0  0  0  0  0  0  0  0
   24.7639  -18.5949  -18.3660 O   0  0  0  0  0  0  0  0  0  0  0  0
  2  1  1  0
  3  5  1  0
  3  2  1  0
  3  4  1  1
  5  7  1  0
  5  6  1  6
  7  8  2  0
  9 10  1  0
  9  7  1  0
 11 12  1  0
 10 11  1  6
 12 13  1  0
 13 14  1  0
 14 15  1  0
 16 10  1  0
 16 17  2  0
 18 19  1  0
 19 21  1  0
 20 19  2  0
 21 22  1  0
 22 23  1  0
 23 24  1  0
 25 24  1  1
 25 26  1  0
 25 27  1  0
 26 16  1  0
 27 29  2  0
 27 28  1  0
M  END
$$$$
