IKR.pdb
     RDKit          3D

 29 28  0  0  1  0  0  0  0  0999 V2000
   26.5823  -21.9800  -10.0967 C   0  0  0  0  0  0  0  0  0  0  0  0
   27.1986  -20.7580  -10.7272 C   0  0  0  0  0  0  0  0  0  0  0  0
   26.4648  -20.3028  -11.9470 C   0  0  2  0  0  0  0  0  0  0  0  0
   26.3508  -21.4905  -12.8937 C   0  0  0  0  0  0  0  0  0  0  0  0
   27.0973  -19.1879  -12.6967 C   0  0  2  0  0  0  0  0  0  0  0  0
   27.4131  -18.0770  -11.8300 N   0  0  0  0  0  0  0  0  0  0  0  0
   26.2820  -18.6815  -13.8291 C   0  0  0  0  0  0  0  0  0  0  0  0
   25.2549  -17.9699  -13.6735 O   0  0  0  0  0  0  0  0  0  0  0  0
   26.6486  -18.9953  -15.1585 N   0  0  0  0  0  0  0  0  0  0  0  0
   25.9982  -18.4234  -16.3360 C   0  0  1  0  0  0  0  0  0  0  0  0
   26.9803  -17.7808  -17.2397 C   0  0  0  0  0  0  0  0  0  0  0  0
   26.4677  -17.0812  -18.4334 C   0  0  0  0  0  0  0  0  0  0  0  0
   27.4473  -16.5344  -19.4012 C   0  0  0  0  0  0  0  0  0  0  0  0
   26.6909  -15.8661  -20.5322 C   0  0  0  0  0  0  0  0  0  0  0  0
   27.6925  -15.3480  -21.4737 N   0  0  0  0  0  0  0  0  0  0  0  0
   25.0109  -19.3153  -16.9252 C   0  0  0  0  0  0  0  0  0  0  0  0
   25.3222  -20.5251  -17.0917 O   0  0  0  0  0  0  0  0  0  0  0  0
   21.1875  -20.8022  -10.4239 N   0  0  0  0  0  0  0  0  0  0  0  0
   20.6232  -21.7271  -11.3203 C   0  0  0  0  0  0  0  0  0  0  0  0
   19.9986  -22.7785  -10.8828 N   0  0  0  0  0  0  0  0  0  0  0  0
   20.7147  -21.5457  -12.7298 N   0  0  0  0  0  0  0  0  0  0  0  0
   21.3922  -20.4005  -13.3129 C   0  0  0  0  0  0  0  0  0  0  0  0
   21.3500  -20.5008  -14.8512 C   0  0  0  0  0  0  0  0  0  0  0  0
   22.4906  -19.7496  -15.4306 C   0  0  0  0  0  0  0  0  0  0  0  0
   22.5408  -19.7741  -16.9687 C   0  0  2  0  0  0  0  0  0  0  0  0
   23.7093  -18.9357  -17.3251 N   0  0  0  0  0  0  0  0  0  0  0  0
   21.2742  -19.1917  -17.4430 C   0  0  0  0  0  0  0  0  0  0  0  0
   21.0303  -17.8337  -17.2983 O   0  0  0  0  0  0  0  0  0  0  0  0
   20.3599  -19.8522  -17.9881 O   0  0  0  0  0  0  0  0  0  0  0  0
  2  1  1  0
  3  5  1  0
  3  2  1  0
  3  4  1  6
  5  7  1  0
  5  6  1  1
  7  8  2  0
  9 10  1  0
  9  7  1  0
 11 12  1  0
 10 11  1  6
 12 13  1  0
 13 14  1  0
 14 15  1  0
 16 10  1  0
 16 17  2  0
 18 19  1  0
 19 21  1  0
 20 19  2  0
 21 22  1  0
 22 23  1  0
 23 24  1  0
 25 24  1  1
 25 26  1  0
 25 27  1  0
 26 16  1  0
 27 29  2  0
 27 28  1  0
M  END
$$$$
