IKR.pdb
     RDKit          3D

 29 28  0  0  1  0  0  0  0  0999 V2000
   25.8609  -27.7594  -17.0657 C   0  0  0  0  0  0  0  0  0  0  0  0
   26.3807  -26.3552  -16.8958 C   0  0  0  0  0  0  0  0  0  0  0  0
   25.3026  -25.3746  -16.5641 C   0  0  2  0  0  0  0  0  0  0  0  0
   24.2924  -25.3880  -17.7039 C   0  0  0  0  0  0  0  0  0  0  0  0
   25.7491  -23.9712  -16.3740 C   0  0  2  0  0  0  0  0  0  0  0  0
   26.9631  -23.9011  -15.5954 N   0  0  0  0  0  0  0  0  0  0  0  0
   24.7338  -23.0946  -15.7385 C   0  0  0  0  0  0  0  0  0  0  0  0
   23.5188  -23.0966  -16.0692 O   0  0  0  0  0  0  0  0  0  0  0  0
   25.1162  -22.2027  -14.7096 N   0  0  0  0  0  0  0  0  0  0  0  0
   24.1927  -21.2818  -14.0494 C   0  0  1  0  0  0  0  0  0  0  0  0
   24.8291  -20.6130  -12.8911 C   0  0  0  0  0  0  0  0  0  0  0  0
   25.2376  -21.4506  -11.7471 C   0  0  0  0  0  0  0  0  0  0  0  0
   25.9876  -20.8108  -10.6410 C   0  0  0  0  0  0  0  0  0  0  0  0
   26.3960  -21.8813   -9.6486 C   0  0  0  0  0  0  0  0  0  0  0  0
   27.1561  -21.2141   -8.5831 N   0  0  0  0  0  0  0  0  0  0  0  0
   23.4491  -20.4567  -14.9894 C   0  0  0  0  0  0  0  0  0  0  0  0
   24.0971  -19.7589  -15.8148 O   0  0  0  0  0  0  0  0  0  0  0  0
   18.1009  -22.6538  -20.6516 N   0  0  0  0  0  0  0  0  0  0  0  0
   19.4295  -22.6407  -20.1910 C   0  0  0  0  0  0  0  0  0  0  0  0
   20.2535  -23.5909  -20.5156 N   0  0  0  0  0  0  0  0  0  0  0  0
   19.9166  -21.5928  -19.3588 N   0  0  0  0  0  0  0  0  0  0  0  0
   19.0543  -20.5206  -18.8927 C   0  0  0  0  0  0  0  0  0  0  0  0
   19.8662  -19.5461  -18.0155 C   0  0  0  0  0  0  0  0  0  0  0  0
   20.6085  -20.3076  -16.9811 C   0  0  0  0  0  0  0  0  0  0  0  0
   21.3893  -19.4242  -15.9919 C   0  0  2  0  0  0  0  0  0  0  0  0
   22.0396  -20.3768  -15.0618 N   0  0  0  0  0  0  0  0  0  0  0  0
   20.3988  -18.5728  -15.3118 C   0  0  0  0  0  0  0  0  0  0  0  0
   19.7277  -17.5819  -16.0135 O   0  0  0  0  0  0  0  0  0  0  0  0
   20.1023  -18.6743  -14.0989 O   0  0  0  0  0  0  0  0  0  0  0  0
  2  1  1  0
  3  5  1  0
  3  2  1  0
  3  4  1  6
  5  7  1  0
  5  6  1  1
  7  8  2  0
  9 10  1  0
  9  7  1  0
 11 12  1  0
 10 11  1  1
 12 13  1  0
 13 14  1  0
 14 15  1  0
 16 10  1  0
 16 17  2  0
 18 19  1  0
 19 21  1  0
 20 19  2  0
 21 22  1  0
 22 23  1  0
 23 24  1  0
 25 24  1  6
 25 26  1  0
 25 27  1  0
 26 16  1  0
 27 29  2  0
 27 28  1  0
M  END
$$$$
