IKR.pdb
     RDKit          3D

 29 28  0  0  1  0  0  0  0  0999 V2000
   27.6980  -21.0882   -8.1280 C   0  0  0  0  0  0  0  0  0  0  0  0
   27.9361  -20.9888   -9.6127 C   0  0  0  0  0  0  0  0  0  0  0  0
   26.7886  -20.3696  -10.3432 C   0  0  2  0  0  0  0  0  0  0  0  0
   25.9816  -19.5551   -9.3405 C   0  0  0  0  0  0  0  0  0  0  0  0
   25.8593  -21.3222  -11.0021 C   0  0  2  0  0  0  0  0  0  0  0  0
   26.5714  -22.2947  -11.7970 N   0  0  0  0  0  0  0  0  0  0  0  0
   24.8370  -20.6734  -11.8607 C   0  0  0  0  0  0  0  0  0  0  0  0
   23.9385  -19.9159  -11.4084 O   0  0  0  0  0  0  0  0  0  0  0  0
   24.8440  -20.8961  -13.2573 N   0  0  0  0  0  0  0  0  0  0  0  0
   23.9893  -20.1744  -14.1983 C   0  0  1  0  0  0  0  0  0  0  0  0
   24.7883  -19.4841  -15.2371 C   0  0  0  0  0  0  0  0  0  0  0  0
   24.0742  -18.6301  -16.2055 C   0  0  0  0  0  0  0  0  0  0  0  0
   24.8495  -18.0265  -17.3144 C   0  0  0  0  0  0  0  0  0  0  0  0
   23.9217  -17.1544  -18.1368 C   0  0  0  0  0  0  0  0  0  0  0  0
   24.7330  -16.5420  -19.1974 N   0  0  0  0  0  0  0  0  0  0  0  0
   22.8387  -20.9541  -14.6289 C   0  0  0  0  0  0  0  0  0  0  0  0
   22.9972  -22.1862  -14.8415 O   0  0  0  0  0  0  0  0  0  0  0  0
   17.8611  -23.7569   -9.1277 N   0  0  0  0  0  0  0  0  0  0  0  0
   19.2293  -23.5013   -8.9273 C   0  0  0  0  0  0  0  0  0  0  0  0
   19.7522  -23.5814   -7.7410 N   0  0  0  0  0  0  0  0  0  0  0  0
   20.0851  -23.1487  -10.0095 N   0  0  0  0  0  0  0  0  0  0  0  0
   19.5967  -23.0576  -11.3746 C   0  0  0  0  0  0  0  0  0  0  0  0
   20.7580  -22.6809  -12.3169 C   0  0  0  0  0  0  0  0  0  0  0  0
   20.5750  -21.2908  -12.8015 C   0  0  0  0  0  0  0  0  0  0  0  0
   20.3552  -21.1803  -14.3209 C   0  0  2  0  0  0  0  0  0  0  0  0
   21.5362  -20.4404  -14.8238 N   0  0  0  0  0  0  0  0  0  0  0  0
   19.1046  -20.4273  -14.5141 C   0  0  0  0  0  0  0  0  0  0  0  0
   17.8955  -21.0968  -14.6344 O   0  0  0  0  0  0  0  0  0  0  0  0
   19.0423  -19.1780  -14.5832 O   0  0  0  0  0  0  0  0  0  0  0  0
  2  1  1  0
  3  5  1  0
  3  2  1  0
  3  4  1  1
  5  7  1  0
  5  6  1  6
  7  8  2  0
  9 10  1  0
  9  7  1  0
 11 12  1  0
 10 11  1  6
 12 13  1  0
 13 14  1  0
 14 15  1  0
 16 10  1  0
 16 17  2  0
 18 19  1  0
 19 21  1  0
 20 19  2  0
 21 22  1  0
 22 23  1  0
 23 24  1  0
 25 24  1  1
 25 26  1  0
 25 27  1  0
 26 16  1  0
 27 29  2  0
 27 28  1  0
M  END
$$$$
