IKR.pdb
     RDKit          3D

 29 28  0  0  1  0  0  0  0  0999 V2000
   19.7168  -17.4318  -18.3824 C   0  0  0  0  0  0  0  0  0  0  0  0
   20.7827  -18.3110  -17.7812 C   0  0  0  0  0  0  0  0  0  0  0  0
   21.6257  -17.5947  -16.7762 C   0  0  2  0  0  0  0  0  0  0  0  0
   22.3260  -16.4449  -17.4887 C   0  0  0  0  0  0  0  0  0  0  0  0
   22.6697  -18.4166  -16.1130 C   0  0  2  0  0  0  0  0  0  0  0  0
   23.5740  -19.0028  -17.0740 N   0  0  0  0  0  0  0  0  0  0  0  0
   22.1307  -19.5012  -15.2548 C   0  0  0  0  0  0  0  0  0  0  0  0
   22.2259  -20.7221  -15.5477 O   0  0  0  0  0  0  0  0  0  0  0  0
   21.4730  -19.1821  -14.0441 N   0  0  0  0  0  0  0  0  0  0  0  0
   20.8362  -20.1750  -13.1807 C   0  0  1  0  0  0  0  0  0  0  0  0
   21.2678  -20.0250  -11.7717 C   0  0  0  0  0  0  0  0  0  0  0  0
   20.7327  -20.9766  -10.7790 C   0  0  0  0  0  0  0  0  0  0  0  0
   21.0374  -20.7436   -9.3480 C   0  0  0  0  0  0  0  0  0  0  0  0
   20.2723  -21.7552   -8.5179 C   0  0  0  0  0  0  0  0  0  0  0  0
   20.5900  -21.4856   -7.1092 N   0  0  0  0  0  0  0  0  0  0  0  0
   19.4133  -20.3248  -13.4459 C   0  0  0  0  0  0  0  0  0  0  0  0
   18.6500  -19.3589  -13.1764 O   0  0  0  0  0  0  0  0  0  0  0  0
   18.1493  -24.3299   -7.9406 N   0  0  0  0  0  0  0  0  0  0  0  0
   16.9070  -24.8394   -8.3584 C   0  0  0  0  0  0  0  0  0  0  0  0
   15.9192  -24.9478   -7.5220 N   0  0  0  0  0  0  0  0  0  0  0  0
   16.6881  -25.2516   -9.7038 N   0  0  0  0  0  0  0  0  0  0  0  0
   17.6133  -24.9096  -10.7703 C   0  0  0  0  0  0  0  0  0  0  0  0
   17.0074  -23.7929  -11.6445 C   0  0  0  0  0  0  0  0  0  0  0  0
   18.0837  -23.1269  -12.4182 C   0  0  0  0  0  0  0  0  0  0  0  0
   17.5801  -22.0422  -13.3872 C   0  0  2  0  0  0  0  0  0  0  0  0
   18.8065  -21.4767  -13.9966 N   0  0  0  0  0  0  0  0  0  0  0  0
   16.8564  -21.0508  -12.5737 C   0  0  0  0  0  0  0  0  0  0  0  0
   15.6748  -20.4918  -13.0386 O   0  0  0  0  0  0  0  0  0  0  0  0
   17.2390  -20.6533  -11.4490 O   0  0  0  0  0  0  0  0  0  0  0  0
  2  1  1  0
  3  5  1  0
  3  2  1  0
  3  4  1  6
  5  7  1  0
  5  6  1  6
  7  8  2  0
  9 10  1  0
  9  7  1  0
 11 12  1  0
 10 11  1  1
 12 13  1  0
 13 14  1  0
 14 15  1  0
 16 10  1  0
 16 17  2  0
 18 19  1  0
 19 21  1  0
 20 19  2  0
 21 22  1  0
 22 23  1  0
 23 24  1  0
 25 24  1  1
 25 26  1  0
 25 27  1  0
 26 16  1  0
 27 29  2  0
 27 28  1  0
M  END
$$$$
