IKR.pdb
     RDKit          3D

 29 28  0  0  1  0  0  0  0  0999 V2000
   17.7197  -12.9495  -22.4700 C   0  0  0  0  0  0  0  0  0  0  0  0
   18.8733  -13.3582  -21.5908 C   0  0  0  0  0  0  0  0  0  0  0  0
   18.9346  -14.8342  -21.3644 C   0  0  2  0  0  0  0  0  0  0  0  0
   17.6691  -15.2459  -20.6232 C   0  0  0  0  0  0  0  0  0  0  0  0
   20.0963  -15.3136  -20.5733 C   0  0  2  0  0  0  0  0  0  0  0  0
   21.3479  -14.9631  -21.2023 N   0  0  0  0  0  0  0  0  0  0  0  0
   20.0930  -16.7761  -20.3197 C   0  0  0  0  0  0  0  0  0  0  0  0
   19.0489  -17.4790  -20.3585 O   0  0  0  0  0  0  0  0  0  0  0  0
   21.3031  -17.4426  -20.0171 N   0  0  0  0  0  0  0  0  0  0  0  0
   21.3940  -18.8763  -19.7466 C   0  0  1  0  0  0  0  0  0  0  0  0
   22.7938  -19.3547  -19.8220 C   0  0  0  0  0  0  0  0  0  0  0  0
   23.4804  -19.2825  -21.1261 C   0  0  0  0  0  0  0  0  0  0  0  0
   24.8949  -19.7171  -21.1996 C   0  0  0  0  0  0  0  0  0  0  0  0
   25.3897  -19.5209  -22.6189 C   0  0  0  0  0  0  0  0  0  0  0  0
   26.7500  -20.0722  -22.6814 N   0  0  0  0  0  0  0  0  0  0  0  0
   20.5933  -19.2874  -18.6033 C   0  0  0  0  0  0  0  0  0  0  0  0
   20.5897  -18.5513  -17.5803 O   0  0  0  0  0  0  0  0  0  0  0  0
   13.0459  -17.4277  -16.7689 N   0  0  0  0  0  0  0  0  0  0  0  0
   13.2757  -18.4149  -15.7943 C   0  0  0  0  0  0  0  0  0  0  0  0
   12.4085  -18.6311  -14.8518 N   0  0  0  0  0  0  0  0  0  0  0  0
   14.4584  -19.2081  -15.8053 N   0  0  0  0  0  0  0  0  0  0  0  0
   15.4828  -19.0427  -16.8220 C   0  0  0  0  0  0  0  0  0  0  0  0
   16.6503  -20.0112  -16.5443 C   0  0  0  0  0  0  0  0  0  0  0  0
   17.7099  -19.8192  -17.5647 C   0  0  0  0  0  0  0  0  0  0  0  0
   18.9411  -20.7215  -17.3674 C   0  0  2  0  0  0  0  0  0  0  0  0
   19.8004  -20.4563  -18.5449 N   0  0  0  0  0  0  0  0  0  0  0  0
   18.4491  -22.1092  -17.3405 C   0  0  0  0  0  0  0  0  0  0  0  0
   18.8261  -23.0052  -18.3304 O   0  0  0  0  0  0  0  0  0  0  0  0
   17.6837  -22.5645  -16.4595 O   0  0  0  0  0  0  0  0  0  0  0  0
  2  1  1  0
  3  5  1  0
  3  2  1  0
  3  4  1  1
  5  7  1  0
  5  6  1  6
  7  8  2  0
  9 10  1  0
  9  7  1  0
 11 12  1  0
 10 11  1  1
 12 13  1  0
 13 14  1  0
 14 15  1  0
 16 10  1  0
 16 17  2  0
 18 19  1  0
 19 21  1  0
 20 19  2  0
 21 22  1  0
 22 23  1  0
 23 24  1  0
 25 24  1  6
 25 26  1  0
 25 27  1  0
 26 16  1  0
 27 29  2  0
 27 28  1  0
M  END
$$$$
