IKR.pdb
     RDKit          3D

 29 28  0  0  1  0  0  0  0  0999 V2000
   28.9912  -19.0122   -5.7955 C   0  0  0  0  0  0  0  0  0  0  0  0
   28.4172  -20.1827   -6.5513 C   0  0  0  0  0  0  0  0  0  0  0  0
   27.6506  -19.7686   -7.7655 C   0  0  2  0  0  0  0  0  0  0  0  0
   26.4603  -18.9371   -7.3051 C   0  0  0  0  0  0  0  0  0  0  0  0
   27.1283  -20.8781   -8.6031 C   0  0  2  0  0  0  0  0  0  0  0  0
   28.1755  -21.7992   -8.9772 N   0  0  0  0  0  0  0  0  0  0  0  0
   26.4358  -20.4298   -9.8370 C   0  0  0  0  0  0  0  0  0  0  0  0
   25.9808  -19.2653   -9.9865 O   0  0  0  0  0  0  0  0  0  0  0  0
   26.2618  -21.3288  -10.9149 N   0  0  0  0  0  0  0  0  0  0  0  0
   25.7757  -20.9292  -12.2343 C   0  0  1  0  0  0  0  0  0  0  0  0
   26.4398  -21.6976  -13.3125 C   0  0  0  0  0  0  0  0  0  0  0  0
   26.0822  -21.3813  -14.7087 C   0  0  0  0  0  0  0  0  0  0  0  0
   26.7632  -22.1258  -15.7936 C   0  0  0  0  0  0  0  0  0  0  0  0
   26.8945  -21.2156  -16.9986 C   0  0  0  0  0  0  0  0  0  0  0  0
   28.2962  -21.2764  -17.4342 N   0  0  0  0  0  0  0  0  0  0  0  0
   24.3278  -20.7935  -12.2856 C   0  0  0  0  0  0  0  0  0  0  0  0
   23.6247  -21.6710  -11.7166 O   0  0  0  0  0  0  0  0  0  0  0  0
   19.8430  -16.9824  -18.5596 N   0  0  0  0  0  0  0  0  0  0  0  0
   19.8442  -18.3646  -18.3009 C   0  0  0  0  0  0  0  0  0  0  0  0
   19.6435  -19.2188  -19.2586 N   0  0  0  0  0  0  0  0  0  0  0  0
   20.0644  -18.8744  -16.9896 N   0  0  0  0  0  0  0  0  0  0  0  0
   20.1565  -18.0004  -15.8330 C   0  0  0  0  0  0  0  0  0  0  0  0
   20.3699  -18.8449  -14.5603 C   0  0  0  0  0  0  0  0  0  0  0  0
   21.8227  -19.0154  -14.3137 C   0  0  0  0  0  0  0  0  0  0  0  0
   22.1538  -19.7622  -13.0092 C   0  0  2  0  0  0  0  0  0  0  0  0
   23.6327  -19.7401  -12.9225 N   0  0  0  0  0  0  0  0  0  0  0  0
   21.6267  -21.1291  -13.1584 C   0  0  0  0  0  0  0  0  0  0  0  0
   20.6060  -21.5798  -12.3340 O   0  0  0  0  0  0  0  0  0  0  0  0
   22.0448  -21.9530  -14.0045 O   0  0  0  0  0  0  0  0  0  0  0  0
  2  1  1  0
  3  5  1  0
  3  2  1  0
  3  4  1  1
  5  7  1  0
  5  6  1  6
  7  8  2  0
  9 10  1  0
  9  7  1  0
 11 12  1  0
 10 11  1  6
 12 13  1  0
 13 14  1  0
 14 15  1  0
 16 10  1  0
 16 17  2  0
 18 19  1  0
 19 21  1  0
 20 19  2  0
 21 22  1  0
 22 23  1  0
 23 24  1  0
 25 24  1  6
 25 26  1  0
 25 27  1  0
 26 16  1  0
 27 29  2  0
 27 28  1  0
M  END
$$$$
