DKQ.pdb
     RDKit          3D

 27 26  0  0  1  0  0  0  0  0999 V2000
   12.7846  -16.3318   18.7814 N   0  0  0  0  0  0  0  0  0  0  0  0
   13.5657  -15.5828   19.7333 C   0  0  1  0  0  0  0  0  0  0  0  0
   14.1782  -14.4044   19.0011 C   0  0  0  0  0  0  0  0  0  0  0  0
   15.2753  -14.8487   18.0969 C   0  0  0  0  0  0  0  0  0  0  0  0
   14.9930  -15.1901   16.9247 O   0  0  0  0  0  0  0  0  0  0  0  0
   12.6836  -15.0510   20.7868 C   0  0  0  0  0  0  0  0  0  0  0  0
   13.0988  -14.2497   21.6734 O   0  0  0  0  0  0  0  0  0  0  0  0
   16.5927  -14.8990   18.5007 O   0  0  0  0  0  0  0  0  0  0  0  0
   11.3353  -15.4310   20.8289 N   0  0  0  0  0  0  0  0  0  0  0  0
   10.3716  -14.8798   21.8248 C   0  0  1  0  0  0  0  0  0  0  0  0
    9.0353  -14.8816   21.1709 C   0  0  0  0  0  0  0  0  0  0  0  0
    8.8882  -13.8799   20.1006 C   0  0  0  0  0  0  0  0  0  0  0  0
    7.5457  -13.8998   19.4108 C   0  0  0  0  0  0  0  0  0  0  0  0
    7.4479  -12.9442   18.2639 C   0  0  0  0  0  0  0  0  0  0  0  0
    6.1479  -12.9548   17.6311 N   0  0  0  0  0  0  0  0  0  0  0  0
   10.5174  -15.5852   23.0859 C   0  0  0  0  0  0  0  0  0  0  0  0
   10.9628  -16.7886   23.0296 O   0  0  0  0  0  0  0  0  0  0  0  0
   10.7760  -15.5960   30.5304 N   0  0  0  0  0  0  0  0  0  0  0  0
   10.3530  -15.1114   29.2860 C   0  0  0  0  0  0  0  0  0  0  0  0
    9.8712  -13.9779   29.1726 O   0  0  0  0  0  0  0  0  0  0  0  0
   10.4702  -15.9520   28.0468 C   0  0  0  0  0  0  0  0  0  0  0  0
   10.2981  -15.1122   26.8132 C   0  0  0  0  0  0  0  0  0  0  0  0
   10.3739  -15.9407   25.5863 C   0  0  2  0  0  0  0  0  0  0  0  0
   10.2373  -15.1195   24.3800 N   0  0  0  0  0  0  0  0  0  0  0  0
    9.3868  -17.0090   25.5622 C   0  0  0  0  0  0  0  0  0  0  0  0
    9.6403  -18.0802   26.2298 O   0  0  0  0  0  0  0  0  0  0  0  0
    8.1737  -16.9640   24.8694 O   0  0  0  0  0  0  0  0  0  0  0  0
  2  1  1  6
  3  2  1  0
  4  3  1  0
  5  4  2  0
  6  7  2  0
  6  2  1  0
  8  4  1  0
  9  6  1  0
 10 11  1  6
 10  9  1  0
 11 12  1  0
 13 12  1  0
 14 13  1  0
 15 14  1  0
 16 17  2  0
 16 10  1  0
 18 19  1  0
 19 20  2  0
 19 21  1  0
 21 22  1  0
 23 22  1  1
 23 24  1  0
 24 16  1  0
 25 23  1  0
 25 27  1  0
 26 25  2  0
M  END
$$$$
