DKQ.pdb
     RDKit          3D

 27 26  0  0  1  0  0  0  0  0999 V2000
   15.8657  -16.1780   17.6522 N   0  0  0  0  0  0  0  0  0  0  0  0
   15.7633  -15.3503   18.8277 C   0  0  1  0  0  0  0  0  0  0  0  0
   15.1720  -14.0196   18.4041 C   0  0  0  0  0  0  0  0  0  0  0  0
   16.1235  -13.2612   17.5450 C   0  0  0  0  0  0  0  0  0  0  0  0
   17.2915  -13.6939   17.4067 O   0  0  0  0  0  0  0  0  0  0  0  0
   14.8358  -15.9708   19.7897 C   0  0  0  0  0  0  0  0  0  0  0  0
   14.5440  -15.4255   20.8934 O   0  0  0  0  0  0  0  0  0  0  0  0
   15.7683  -12.0986   16.8944 O   0  0  0  0  0  0  0  0  0  0  0  0
   14.2444  -17.2067   19.4945 N   0  0  0  0  0  0  0  0  0  0  0  0
   13.3447  -17.9193   20.4469 C   0  0  1  0  0  0  0  0  0  0  0  0
   12.7373  -19.0499   19.6944 C   0  0  0  0  0  0  0  0  0  0  0  0
   11.2916  -18.9032   19.4520 C   0  0  0  0  0  0  0  0  0  0  0  0
   10.6641  -20.0617   18.7153 C   0  0  0  0  0  0  0  0  0  0  0  0
    9.1975  -19.8931   18.4730 C   0  0  0  0  0  0  0  0  0  0  0  0
    8.6191  -20.9912   17.7314 N   0  0  0  0  0  0  0  0  0  0  0  0
   14.0694  -18.2212   21.6687 C   0  0  0  0  0  0  0  0  0  0  0  0
   14.2895  -17.2417   22.4699 O   0  0  0  0  0  0  0  0  0  0  0  0
   11.6458  -18.9105   26.3678 N   0  0  0  0  0  0  0  0  0  0  0  0
   12.5277  -19.9864   26.5319 C   0  0  0  0  0  0  0  0  0  0  0  0
   12.2838  -20.8948   27.3351 O   0  0  0  0  0  0  0  0  0  0  0  0
   13.7997  -20.0735   25.7379 C   0  0  0  0  0  0  0  0  0  0  0  0
   13.5722  -19.6465   24.3158 C   0  0  0  0  0  0  0  0  0  0  0  0
   14.8070  -19.7927   23.5086 C   0  0  2  0  0  0  0  0  0  0  0  0
   14.5657  -19.4606   22.1016 N   0  0  0  0  0  0  0  0  0  0  0  0
   15.3906  -21.1220   23.6018 C   0  0  0  0  0  0  0  0  0  0  0  0
   16.6564  -21.2115   23.8194 O   0  0  0  0  0  0  0  0  0  0  0  0
   14.6810  -22.3196   23.4762 O   0  0  0  0  0  0  0  0  0  0  0  0
  2  1  1  6
  3  2  1  0
  4  3  1  0
  5  4  2  0
  6  7  2  0
  6  2  1  0
  8  4  1  0
  9  6  1  0
 10 11  1  6
 10  9  1  0
 11 12  1  0
 13 12  1  0
 14 13  1  0
 15 14  1  0
 16 17  2  0
 16 10  1  0
 18 19  1  0
 19 20  2  0
 19 21  1  0
 21 22  1  0
 23 22  1  1
 23 24  1  0
 24 16  1  0
 25 23  1  0
 25 27  1  0
 26 25  2  0
M  END
$$$$
