DKQ.pdb
     RDKit          3D

 27 26  0  0  1  0  0  0  0  0999 V2000
   15.6699  -13.2375   16.6275 N   0  0  0  0  0  0  0  0  0  0  0  0
   15.1515  -14.5456   16.9397 C   0  0  1  0  0  0  0  0  0  0  0  0
   16.2314  -15.3025   17.6887 C   0  0  0  0  0  0  0  0  0  0  0  0
   17.3449  -15.6867   16.7771 C   0  0  0  0  0  0  0  0  0  0  0  0
   17.5345  -15.0149   15.7363 O   0  0  0  0  0  0  0  0  0  0  0  0
   13.9881  -14.4155   17.8343 C   0  0  0  0  0  0  0  0  0  0  0  0
   13.9653  -13.5940   18.7962 O   0  0  0  0  0  0  0  0  0  0  0  0
   18.1771  -16.7553   17.0345 O   0  0  0  0  0  0  0  0  0  0  0  0
   12.8568  -15.2179   17.6330 N   0  0  0  0  0  0  0  0  0  0  0  0
   11.6545  -15.1542   18.5132 C   0  0  1  0  0  0  0  0  0  0  0  0
   10.4763  -15.4220   17.6452 C   0  0  0  0  0  0  0  0  0  0  0  0
    9.9001  -14.2164   17.0247 C   0  0  0  0  0  0  0  0  0  0  0  0
    8.6722  -14.4754   16.1859 C   0  0  0  0  0  0  0  0  0  0  0  0
    8.1797  -13.2657   15.4563 C   0  0  0  0  0  0  0  0  0  0  0  0
    7.1301  -13.5676   14.5089 N   0  0  0  0  0  0  0  0  0  0  0  0
   11.8557  -16.0023   19.6749 C   0  0  0  0  0  0  0  0  0  0  0  0
   12.5980  -17.0383   19.5155 O   0  0  0  0  0  0  0  0  0  0  0  0
   10.2933  -15.3506   25.8561 N   0  0  0  0  0  0  0  0  0  0  0  0
   10.9177  -16.6032   25.7985 C   0  0  0  0  0  0  0  0  0  0  0  0
   11.1217  -17.2626   26.8247 O   0  0  0  0  0  0  0  0  0  0  0  0
   11.3608  -17.1882   24.4880 C   0  0  0  0  0  0  0  0  0  0  0  0
   11.0822  -16.2391   23.3575 C   0  0  0  0  0  0  0  0  0  0  0  0
   11.6182  -16.7590   22.0770 C   0  0  2  0  0  0  0  0  0  0  0  0
   11.3439  -15.8369   20.9713 N   0  0  0  0  0  0  0  0  0  0  0  0
   11.1102  -18.0812   21.7454 C   0  0  0  0  0  0  0  0  0  0  0  0
    9.9971  -18.1565   21.1028 O   0  0  0  0  0  0  0  0  0  0  0  0
   11.7405  -19.2862   22.0682 O   0  0  0  0  0  0  0  0  0  0  0  0
  2  1  1  1
  3  2  1  0
  4  3  1  0
  5  4  2  0
  6  7  2  0
  6  2  1  0
  8  4  1  0
  9  6  1  0
 10 11  1  6
 10  9  1  0
 11 12  1  0
 13 12  1  0
 14 13  1  0
 15 14  1  0
 16 17  2  0
 16 10  1  0
 18 19  1  0
 19 20  2  0
 19 21  1  0
 21 22  1  0
 23 22  1  1
 23 24  1  0
 24 16  1  0
 25 23  1  0
 25 27  1  0
 26 25  2  0
M  END
$$$$
