DKQ.pdb
     RDKit          3D

 27 26  0  0  1  0  0  0  0  0999 V2000
   11.8299  -14.0165   18.6113 N   0  0  0  0  0  0  0  0  0  0  0  0
   12.1665  -15.1264   19.4670 C   0  0  1  0  0  0  0  0  0  0  0  0
   13.5052  -14.8220   20.1113 C   0  0  0  0  0  0  0  0  0  0  0  0
   14.5998  -14.8349   19.1012 C   0  0  0  0  0  0  0  0  0  0  0  0
   14.4917  -15.5819   18.1008 O   0  0  0  0  0  0  0  0  0  0  0  0
   11.1647  -15.2439   20.5409 C   0  0  0  0  0  0  0  0  0  0  0  0
   10.6293  -14.2311   21.0778 O   0  0  0  0  0  0  0  0  0  0  0  0
   15.7301  -14.0551   19.2244 O   0  0  0  0  0  0  0  0  0  0  0  0
   10.7758  -16.5096   21.0001 N   0  0  0  0  0  0  0  0  0  0  0  0
    9.6856  -16.7065   21.9987 C   0  0  1  0  0  0  0  0  0  0  0  0
    8.9270  -17.9121   21.5693 C   0  0  0  0  0  0  0  0  0  0  0  0
    7.8484  -18.3044   22.4929 C   0  0  0  0  0  0  0  0  0  0  0  0
    7.0943  -19.5441   22.0771 C   0  0  0  0  0  0  0  0  0  0  0  0
    6.0556  -19.9724   23.0650 C   0  0  0  0  0  0  0  0  0  0  0  0
    5.3479  -21.1653   22.6570 N   0  0  0  0  0  0  0  0  0  0  0  0
   10.2441  -16.6908   23.3392 C   0  0  0  0  0  0  0  0  0  0  0  0
   11.3552  -17.3115   23.5123 O   0  0  0  0  0  0  0  0  0  0  0  0
   10.5361  -13.7093   30.1602 N   0  0  0  0  0  0  0  0  0  0  0  0
    9.8971  -14.0804   28.9702 C   0  0  0  0  0  0  0  0  0  0  0  0
    8.8028  -13.5972   28.6557 O   0  0  0  0  0  0  0  0  0  0  0  0
   10.5191  -15.0779   28.0353 C   0  0  0  0  0  0  0  0  0  0  0  0
    9.8175  -15.0753   26.7070 C   0  0  0  0  0  0  0  0  0  0  0  0
   10.4058  -16.0790   25.7885 C   0  0  2  0  0  0  0  0  0  0  0  0
    9.7273  -16.0743   24.4893 N   0  0  0  0  0  0  0  0  0  0  0  0
   10.3945  -17.4257   26.3385 C   0  0  0  0  0  0  0  0  0  0  0  0
   11.3919  -17.7884   27.0674 O   0  0  0  0  0  0  0  0  0  0  0  0
    9.3777  -18.3640   26.1403 O   0  0  0  0  0  0  0  0  0  0  0  0
  2  1  1  6
  3  2  1  0
  4  3  1  0
  5  4  2  0
  6  7  2  0
  6  2  1  0
  8  4  1  0
  9  6  1  0
 10 11  1  6
 10  9  1  0
 11 12  1  0
 13 12  1  0
 14 13  1  0
 15 14  1  0
 16 17  2  0
 16 10  1  0
 18 19  1  0
 19 20  2  0
 19 21  1  0
 21 22  1  0
 23 22  1  1
 23 24  1  0
 24 16  1  0
 25 23  1  0
 25 27  1  0
 26 25  2  0
M  END
$$$$
