DKQ.pdb
     RDKit          3D

 27 26  0  0  1  0  0  0  0  0999 V2000
   12.0677  -18.5060   17.6756 N   0  0  0  0  0  0  0  0  0  0  0  0
   12.0780  -19.7908   18.3286 C   0  0  1  0  0  0  0  0  0  0  0  0
   13.5034  -20.0769   18.7601 C   0  0  0  0  0  0  0  0  0  0  0  0
   14.4198  -20.1143   17.5864 C   0  0  0  0  0  0  0  0  0  0  0  0
   13.9308  -20.0524   16.4342 O   0  0  0  0  0  0  0  0  0  0  0  0
   11.2417  -19.7360   19.5403 C   0  0  0  0  0  0  0  0  0  0  0  0
   11.2106  -18.7197   20.2932 O   0  0  0  0  0  0  0  0  0  0  0  0
   15.7885  -20.2145   17.7188 O   0  0  0  0  0  0  0  0  0  0  0  0
   10.4452  -20.8344   19.8916 N   0  0  0  0  0  0  0  0  0  0  0  0
    9.5546  -20.8363   21.0879 C   0  0  1  0  0  0  0  0  0  0  0  0
    8.2774  -21.4729   20.6674 C   0  0  0  0  0  0  0  0  0  0  0  0
    7.2957  -21.6273   21.7550 C   0  0  0  0  0  0  0  0  0  0  0  0
    6.0186  -22.3202   21.3459 C   0  0  0  0  0  0  0  0  0  0  0  0
    5.0431  -22.4882   22.4676 C   0  0  0  0  0  0  0  0  0  0  0  0
    3.7793  -23.0429   22.0369 N   0  0  0  0  0  0  0  0  0  0  0  0
   10.2624  -21.4055   22.2213 C   0  0  0  0  0  0  0  0  0  0  0  0
   10.6894  -22.6101   22.0933 O   0  0  0  0  0  0  0  0  0  0  0  0
   10.2533  -19.7007   28.3228 N   0  0  0  0  0  0  0  0  0  0  0  0
   11.5979  -19.9096   27.9900 C   0  0  0  0  0  0  0  0  0  0  0  0
   12.5028  -19.6367   28.7878 O   0  0  0  0  0  0  0  0  0  0  0  0
   11.9865  -20.4724   26.6528 C   0  0  0  0  0  0  0  0  0  0  0  0
   10.7716  -20.8980   25.8786 C   0  0  0  0  0  0  0  0  0  0  0  0
   11.1500  -21.5200   24.5873 C   0  0  2  0  0  0  0  0  0  0  0  0
   10.5518  -20.8049   23.4563 N   0  0  0  0  0  0  0  0  0  0  0  0
   10.7982  -22.9296   24.5127 C   0  0  0  0  0  0  0  0  0  0  0  0
    9.5496  -23.2378   24.4543 O   0  0  0  0  0  0  0  0  0  0  0  0
   11.7148  -23.9846   24.4959 O   0  0  0  0  0  0  0  0  0  0  0  0
  2  1  1  1
  3  2  1  0
  4  3  1  0
  5  4  2  0
  6  7  2  0
  6  2  1  0
  8  4  1  0
  9  6  1  0
 10 11  1  6
 10  9  1  0
 11 12  1  0
 13 12  1  0
 14 13  1  0
 15 14  1  0
 16 17  2  0
 16 10  1  0
 18 19  1  0
 19 20  2  0
 19 21  1  0
 21 22  1  0
 23 22  1  1
 23 24  1  0
 24 16  1  0
 25 23  1  0
 25 27  1  0
 26 25  2  0
M  END
$$$$
