DKQ.pdb
     RDKit          3D

 27 26  0  0  1  0  0  0  0  0999 V2000
    9.0608  -13.7181   18.5354 N   0  0  0  0  0  0  0  0  0  0  0  0
    9.7947  -14.5403   19.4642 C   0  0  1  0  0  0  0  0  0  0  0  0
   11.0037  -13.7488   19.9244 C   0  0  0  0  0  0  0  0  0  0  0  0
   12.1478  -13.9277   18.9876 C   0  0  0  0  0  0  0  0  0  0  0  0
   12.0214  -14.7150   18.0208 O   0  0  0  0  0  0  0  0  0  0  0  0
    8.9596  -14.8170   20.6460 C   0  0  0  0  0  0  0  0  0  0  0  0
    8.0982  -13.9937   21.0711 O   0  0  0  0  0  0  0  0  0  0  0  0
   13.3435  -13.2590   19.1431 O   0  0  0  0  0  0  0  0  0  0  0  0
    9.1060  -16.0263   21.3392 N   0  0  0  0  0  0  0  0  0  0  0  0
    8.2004  -16.4341   22.4518 C   0  0  1  0  0  0  0  0  0  0  0  0
    7.9467  -17.8903   22.2828 C   0  0  0  0  0  0  0  0  0  0  0  0
    7.0947  -18.4779   23.3313 C   0  0  0  0  0  0  0  0  0  0  0  0
    6.8080  -19.9485   23.1475 C   0  0  0  0  0  0  0  0  0  0  0  0
    5.7819  -20.4814   24.0968 C   0  0  0  0  0  0  0  0  0  0  0  0
    5.3520  -21.8219   23.7674 N   0  0  0  0  0  0  0  0  0  0  0  0
    8.7469  -15.9769   23.7173 C   0  0  0  0  0  0  0  0  0  0  0  0
   10.0016  -16.1712   23.9116 O   0  0  0  0  0  0  0  0  0  0  0  0
    5.2053  -13.2856   26.7446 N   0  0  0  0  0  0  0  0  0  0  0  0
    6.2665  -12.3965   26.5315 C   0  0  0  0  0  0  0  0  0  0  0  0
    6.0596  -11.1993   26.2998 O   0  0  0  0  0  0  0  0  0  0  0  0
    7.6922  -12.8668   26.5773 C   0  0  0  0  0  0  0  0  0  0  0  0
    7.7643  -14.3175   26.9604 C   0  0  0  0  0  0  0  0  0  0  0  0
    8.6923  -15.0600   26.0743 C   0  0  2  0  0  0  0  0  0  0  0  0
    8.0786  -15.3362   24.7723 N   0  0  0  0  0  0  0  0  0  0  0  0
    9.1647  -16.3035   26.6633 C   0  0  0  0  0  0  0  0  0  0  0  0
   10.3180  -16.3004   27.2354 O   0  0  0  0  0  0  0  0  0  0  0  0
    8.4597  -17.5103   26.6607 O   0  0  0  0  0  0  0  0  0  0  0  0
  2  1  1  6
  3  2  1  0
  4  3  1  0
  5  4  2  0
  6  7  2  0
  6  2  1  0
  8  4  1  0
  9  6  1  0
 10 11  1  1
 10  9  1  0
 11 12  1  0
 13 12  1  0
 14 13  1  0
 15 14  1  0
 16 17  2  0
 16 10  1  0
 18 19  1  0
 19 20  2  0
 19 21  1  0
 21 22  1  0
 23 22  1  1
 23 24  1  0
 24 16  1  0
 25 23  1  0
 25 27  1  0
 26 25  2  0
M  END
$$$$
