DKQ.pdb
     RDKit          3D

 27 26  0  0  1  0  0  0  0  0999 V2000
    7.7965  -17.7088   17.5048 N   0  0  0  0  0  0  0  0  0  0  0  0
    8.4386  -18.9615   17.8141 C   0  0  1  0  0  0  0  0  0  0  0  0
    9.8644  -18.8871   17.3027 C   0  0  0  0  0  0  0  0  0  0  0  0
    9.8931  -18.6741   15.8288 C   0  0  0  0  0  0  0  0  0  0  0  0
    8.8084  -18.6209   15.2035 O   0  0  0  0  0  0  0  0  0  0  0  0
    8.4917  -19.1420   19.2754 C   0  0  0  0  0  0  0  0  0  0  0  0
    8.7178  -18.1806   20.0661 O   0  0  0  0  0  0  0  0  0  0  0  0
   11.0697  -18.5329   15.1241 O   0  0  0  0  0  0  0  0  0  0  0  0
    8.2882  -20.4121   19.8318 N   0  0  0  0  0  0  0  0  0  0  0  0
    8.2236  -20.6483   21.3030 C   0  0  1  0  0  0  0  0  0  0  0  0
    7.3950  -21.8677   21.5028 C   0  0  0  0  0  0  0  0  0  0  0  0
    5.9543  -21.6597   21.2757 C   0  0  0  0  0  0  0  0  0  0  0  0
    5.1262  -22.9199   21.3424 C   0  0  0  0  0  0  0  0  0  0  0  0
    3.6956  -22.7172   20.9545 C   0  0  0  0  0  0  0  0  0  0  0  0
    2.9157  -23.9327   21.0226 N   0  0  0  0  0  0  0  0  0  0  0  0
    9.5655  -20.6341   21.8581 C   0  0  0  0  0  0  0  0  0  0  0  0
   10.5291  -20.9068   21.0539 O   0  0  0  0  0  0  0  0  0  0  0  0
   12.6668  -16.4516   21.5597 N   0  0  0  0  0  0  0  0  0  0  0  0
   13.4968  -17.0195   22.5347 C   0  0  0  0  0  0  0  0  0  0  0  0
   14.5822  -16.5040   22.8281 O   0  0  0  0  0  0  0  0  0  0  0  0
   13.0969  -18.2740   23.2574 C   0  0  0  0  0  0  0  0  0  0  0  0
   11.7536  -18.7558   22.7884 C   0  0  0  0  0  0  0  0  0  0  0  0
   11.3169  -19.9500   23.5504 C   0  0  2  0  0  0  0  0  0  0  0  0
    9.9584  -20.3530   23.1759 N   0  0  0  0  0  0  0  0  0  0  0  0
   11.3886  -19.7603   24.9909 C   0  0  0  0  0  0  0  0  0  0  0  0
   12.5529  -19.6350   25.5260 O   0  0  0  0  0  0  0  0  0  0  0  0
   10.2857  -19.6994   25.8473 O   0  0  0  0  0  0  0  0  0  0  0  0
  2  1  1  1
  3  2  1  0
  4  3  1  0
  5  4  2  0
  6  7  2  0
  6  2  1  0
  8  4  1  0
  9  6  1  0
 10 11  1  6
 10  9  1  0
 11 12  1  0
 13 12  1  0
 14 13  1  0
 15 14  1  0
 16 17  2  0
 16 10  1  0
 18 19  1  0
 19 20  2  0
 19 21  1  0
 21 22  1  0
 23 22  1  6
 23 24  1  0
 24 16  1  0
 25 23  1  0
 25 27  1  0
 26 25  2  0
M  END
$$$$
