DKQ.pdb
     RDKit          3D

 27 26  0  0  1  0  0  0  0  0999 V2000
   11.4400  -16.2043   19.2107 N   0  0  0  0  0  0  0  0  0  0  0  0
   11.1212  -17.1168   20.2798 C   0  0  1  0  0  0  0  0  0  0  0  0
   12.4207  -17.7290   20.7659 C   0  0  0  0  0  0  0  0  0  0  0  0
   13.1407  -18.4083   19.6529 C   0  0  0  0  0  0  0  0  0  0  0  0
   14.3619  -18.6569   19.7843 O   0  0  0  0  0  0  0  0  0  0  0  0
   10.5245  -16.3728   21.4029 C   0  0  0  0  0  0  0  0  0  0  0  0
   11.2179  -15.9356   22.3666 O   0  0  0  0  0  0  0  0  0  0  0  0
   12.5141  -18.7750   18.4807 O   0  0  0  0  0  0  0  0  0  0  0  0
    9.1446  -16.1290   21.4268 N   0  0  0  0  0  0  0  0  0  0  0  0
    8.4985  -15.2433   22.4379 C   0  0  1  0  0  0  0  0  0  0  0  0
    7.3633  -14.5700   21.7514 C   0  0  0  0  0  0  0  0  0  0  0  0
    7.7737  -13.5713   20.7491 C   0  0  0  0  0  0  0  0  0  0  0  0
    7.6422  -14.0357   19.3189 C   0  0  0  0  0  0  0  0  0  0  0  0
    8.0631  -13.0092   18.3152 C   0  0  0  0  0  0  0  0  0  0  0  0
    8.0049  -13.4946   16.9546 N   0  0  0  0  0  0  0  0  0  0  0  0
    8.2159  -16.0041   23.6423 C   0  0  0  0  0  0  0  0  0  0  0  0
    6.9791  -16.2003   23.9279 O   0  0  0  0  0  0  0  0  0  0  0  0
   11.2092  -14.8064   28.3726 N   0  0  0  0  0  0  0  0  0  0  0  0
    9.9217  -14.3060   28.6050 C   0  0  0  0  0  0  0  0  0  0  0  0
    9.7296  -13.3875   29.4107 O   0  0  0  0  0  0  0  0  0  0  0  0
    8.7302  -14.8679   27.8834 C   0  0  0  0  0  0  0  0  0  0  0  0
    9.0125  -15.0089   26.4148 C   0  0  0  0  0  0  0  0  0  0  0  0
    9.0145  -16.4332   26.0039 C   0  0  2  0  0  0  0  0  0  0  0  0
    9.1274  -16.5675   24.5488 N   0  0  0  0  0  0  0  0  0  0  0  0
    7.8431  -17.1590   26.4702 C   0  0  0  0  0  0  0  0  0  0  0  0
    7.8180  -17.5378   27.7004 O   0  0  0  0  0  0  0  0  0  0  0  0
    6.7323  -17.4777   25.6842 O   0  0  0  0  0  0  0  0  0  0  0  0
  2  1  1  6
  3  2  1  0
  4  3  1  0
  5  4  2  0
  6  7  2  0
  6  2  1  0
  8  4  1  0
  9  6  1  0
 10 11  1  6
 10  9  1  0
 11 12  1  0
 13 12  1  0
 14 13  1  0
 15 14  1  0
 16 17  2  0
 16 10  1  0
 18 19  1  0
 19 20  2  0
 19 21  1  0
 21 22  1  0
 23 22  1  6
 23 24  1  0
 24 16  1  0
 25 23  1  0
 25 27  1  0
 26 25  2  0
M  END
$$$$
