DKQ.pdb
     RDKit          3D

 27 26  0  0  1  0  0  0  0  0999 V2000
   10.9550  -17.0564   18.2689 N   0  0  0  0  0  0  0  0  0  0  0  0
   11.3355  -17.7254   19.4875 C   0  0  1  0  0  0  0  0  0  0  0  0
   12.7297  -17.2554   19.8552 C   0  0  0  0  0  0  0  0  0  0  0  0
   13.7415  -17.7835   18.8982 C   0  0  0  0  0  0  0  0  0  0  0  0
   13.5080  -18.8619   18.3039 O   0  0  0  0  0  0  0  0  0  0  0  0
   10.4237  -17.3284   20.5745 C   0  0  0  0  0  0  0  0  0  0  0  0
   10.2155  -16.1163   20.8716 O   0  0  0  0  0  0  0  0  0  0  0  0
   14.9280  -17.1304   18.6401 O   0  0  0  0  0  0  0  0  0  0  0  0
    9.7530  -18.3084   21.3188 N   0  0  0  0  0  0  0  0  0  0  0  0
    8.7097  -17.9793   22.3325 C   0  0  1  0  0  0  0  0  0  0  0  0
    7.7304  -19.0992   22.3152 C   0  0  0  0  0  0  0  0  0  0  0  0
    6.3251  -18.6709   22.4253 C   0  0  0  0  0  0  0  0  0  0  0  0
    5.3289  -19.8049   22.4385 C   0  0  0  0  0  0  0  0  0  0  0  0
    3.9119  -19.3548   22.6046 C   0  0  0  0  0  0  0  0  0  0  0  0
    2.9657  -20.4474   22.5677 N   0  0  0  0  0  0  0  0  0  0  0  0
    9.3452  -17.6454   23.5950 C   0  0  0  0  0  0  0  0  0  0  0  0
   10.4557  -18.2342   23.8593 O   0  0  0  0  0  0  0  0  0  0  0  0
   10.1934  -13.0786   29.4021 N   0  0  0  0  0  0  0  0  0  0  0  0
    9.4745  -13.6541   28.3465 C   0  0  0  0  0  0  0  0  0  0  0  0
    8.4734  -13.0988   27.8784 O   0  0  0  0  0  0  0  0  0  0  0  0
    9.8952  -14.9655   27.7470 C   0  0  0  0  0  0  0  0  0  0  0  0
    9.1859  -15.2102   26.4457 C   0  0  0  0  0  0  0  0  0  0  0  0
    9.6397  -16.4740   25.8177 C   0  0  2  0  0  0  0  0  0  0  0  0
    8.9046  -16.7472   24.5794 N   0  0  0  0  0  0  0  0  0  0  0  0
    9.5346  -17.6190   26.7087 C   0  0  0  0  0  0  0  0  0  0  0  0
   10.4626  -17.7894   27.5847 O   0  0  0  0  0  0  0  0  0  0  0  0
    8.4966  -18.5549   26.6923 O   0  0  0  0  0  0  0  0  0  0  0  0
  2  1  1  6
  3  2  1  0
  4  3  1  0
  5  4  2  0
  6  7  2  0
  6  2  1  0
  8  4  1  0
  9  6  1  0
 10 11  1  1
 10  9  1  0
 11 12  1  0
 13 12  1  0
 14 13  1  0
 15 14  1  0
 16 17  2  0
 16 10  1  0
 18 19  1  0
 19 20  2  0
 19 21  1  0
 21 22  1  0
 23 22  1  1
 23 24  1  0
 24 16  1  0
 25 23  1  0
 25 27  1  0
 26 25  2  0
M  END
$$$$
