KVN.pdb
     RDKit          3D

 25 24  0  0  1  0  0  0  0  0999 V2000
    7.8141  -14.4744   20.4081 N   0  0  0  0  0  0  0  0  0  0  0  0
    7.1912  -14.9764   21.6450 C   0  0  1  0  0  0  0  0  0  0  0  0
    7.2252  -16.4981   21.4925 C   0  0  0  0  0  0  0  0  0  0  0  0
    6.5058  -16.9886   20.2922 C   0  0  0  0  0  0  0  0  0  0  0  0
    6.4786  -18.4673   20.1122 C   0  0  0  0  0  0  0  0  0  0  0  0
    5.7297  -18.9972   18.9391 C   0  0  0  0  0  0  0  0  0  0  0  0
    5.7563  -20.4320   18.8445 N   0  0  0  0  0  0  0  0  0  0  0  0
    8.0082  -14.6089   22.8180 C   0  0  0  0  0  0  0  0  0  0  0  0
    9.2393  -14.5536   22.7518 O   0  0  0  0  0  0  0  0  0  0  0  0
    6.8526  -11.7746   25.3830 C   0  0  0  0  0  0  0  0  0  0  0  0
    7.1996  -13.0634   26.0323 C   0  0  2  0  0  0  0  0  0  0  0  0
    7.7201  -12.7676   27.4224 C   0  0  0  0  0  0  0  0  0  0  0  0
    8.1008  -13.9781   25.2656 C   0  0  2  0  0  0  0  0  0  0  0  0
    7.3547  -14.3160   24.0391 N   0  0  0  0  0  0  0  0  0  0  0  0
    8.4702  -15.2208   25.9405 C   0  0  0  0  0  0  0  0  0  0  0  0
    7.6010  -16.0887   26.1962 O   0  0  0  0  0  0  0  0  0  0  0  0
   12.3620  -17.0276   24.1004 N   0  0  0  0  0  0  0  0  0  0  0  0
   11.3989  -17.5591   24.9913 C   0  0  0  0  0  0  0  0  0  0  0  0
   10.4855  -18.3515   24.5877 O   0  0  0  0  0  0  0  0  0  0  0  0
   11.3969  -17.2353   26.4110 C   0  0  0  0  0  0  0  0  0  0  0  0
   10.0690  -16.8057   26.9791 C   0  0  2  0  0  0  0  0  0  0  0  0
    9.8006  -15.5027   26.3313 N   0  0  0  0  0  0  0  0  0  0  0  0
   10.2064  -16.5926   28.4471 C   0  0  0  0  0  0  0  0  0  0  0  0
   10.1669  -17.5752   29.4092 O   0  0  0  0  0  0  0  0  0  0  0  0
   10.3772  -15.4050   28.8936 O   0  0  0  0  0  0  0  0  0  0  0  0
  2  1  1  6
  3  2  1  0
  4  5  1  0
  4  3  1  0
  5  6  1  0
  6  7  1  0
  8  2  1  0
  8 14  1  0
  9  8  2  0
 11 13  1  0
 11 10  1  6
 12 11  1  0
 13 14  1  6
 15 13  1  0
 16 15  2  0
 17 18  1  0
 18 19  2  0
 20 18  1  0
 21 20  1  6
 21 22  1  0
 21 23  1  0
 22 15  1  0
 23 24  1  0
 25 23  2  0
M  END
$$$$
