KVN.pdb
     RDKit          3D

 25 24  0  0  1  0  0  0  0  0999 V2000
    7.7238  -14.8670   20.5715 N   0  0  0  0  0  0  0  0  0  0  0  0
    6.9845  -15.2897   21.7734 C   0  0  1  0  0  0  0  0  0  0  0  0
    6.9575  -16.8163   21.6810 C   0  0  0  0  0  0  0  0  0  0  0  0
    6.2816  -17.3234   20.4625 C   0  0  0  0  0  0  0  0  0  0  0  0
    6.2003  -18.8057   20.3357 C   0  0  0  0  0  0  0  0  0  0  0  0
    5.5769  -19.3505   19.0979 C   0  0  0  0  0  0  0  0  0  0  0  0
    5.4629  -20.7841   19.0984 N   0  0  0  0  0  0  0  0  0  0  0  0
    7.7255  -14.9113   22.9925 C   0  0  0  0  0  0  0  0  0  0  0  0
    8.9582  -14.9507   23.0335 O   0  0  0  0  0  0  0  0  0  0  0  0
    6.6370  -11.7476   25.0085 C   0  0  0  0  0  0  0  0  0  0  0  0
    6.8029  -12.9319   25.8877 C   0  0  2  0  0  0  0  0  0  0  0  0
    7.2440  -12.4493   27.2528 C   0  0  0  0  0  0  0  0  0  0  0  0
    7.6628  -14.0384   25.3655 C   0  0  2  0  0  0  0  0  0  0  0  0
    6.9959  -14.4964   24.1324 N   0  0  0  0  0  0  0  0  0  0  0  0
    7.8327  -15.1862   26.2542 C   0  0  0  0  0  0  0  0  0  0  0  0
    6.9064  -16.0195   26.4015 O   0  0  0  0  0  0  0  0  0  0  0  0
    9.5544  -20.0110   26.3981 N   0  0  0  0  0  0  0  0  0  0  0  0
   10.3501  -18.8494   26.5445 C   0  0  0  0  0  0  0  0  0  0  0  0
   11.5679  -18.9198   26.9148 O   0  0  0  0  0  0  0  0  0  0  0  0
    9.8277  -17.5160   26.2805 C   0  0  0  0  0  0  0  0  0  0  0  0
    9.2843  -16.7806   27.4782 C   0  0  2  0  0  0  0  0  0  0  0  0
    9.0270  -15.4116   26.9787 N   0  0  0  0  0  0  0  0  0  0  0  0
   10.3323  -16.7168   28.5350 C   0  0  0  0  0  0  0  0  0  0  0  0
   10.5587  -17.6698   29.5011 O   0  0  0  0  0  0  0  0  0  0  0  0
   11.1112  -15.7020   28.5832 O   0  0  0  0  0  0  0  0  0  0  0  0
  2  1  1  6
  3  2  1  0
  4  5  1  0
  4  3  1  0
  5  6  1  0
  6  7  1  0
  8  2  1  0
  8 14  1  0
  9  8  2  0
 11 13  1  0
 11 10  1  6
 12 11  1  0
 13 14  1  6
 15 13  1  0
 16 15  2  0
 17 18  1  0
 18 19  2  0
 20 18  1  0
 21 20  1  6
 21 22  1  0
 21 23  1  0
 22 15  1  0
 23 24  1  0
 25 23  2  0
M  END
$$$$
