KVN.pdb
     RDKit          3D

 25 24  0  0  1  0  0  0  0  0999 V2000
    9.0033  -17.1127   16.0238 N   0  0  0  0  0  0  0  0  0  0  0  0
    8.2524  -17.2249   17.2861 C   0  0  1  0  0  0  0  0  0  0  0  0
    8.4314  -18.6862   17.7017 C   0  0  0  0  0  0  0  0  0  0  0  0
    8.0760  -19.6525   16.6347 C   0  0  0  0  0  0  0  0  0  0  0  0
    9.2113  -20.1555   15.8113 C   0  0  0  0  0  0  0  0  0  0  0  0
    8.9388  -21.3054   14.9052 C   0  0  0  0  0  0  0  0  0  0  0  0
   10.0820  -21.7057   14.1298 N   0  0  0  0  0  0  0  0  0  0  0  0
    8.8602  -16.3692   18.3238 C   0  0  0  0  0  0  0  0  0  0  0  0
   10.0847  -16.2557   18.4270 O   0  0  0  0  0  0  0  0  0  0  0  0
    7.0209  -12.9134   19.6833 C   0  0  0  0  0  0  0  0  0  0  0  0
    7.4178  -13.9281   20.6913 C   0  0  2  0  0  0  0  0  0  0  0  0
    7.6643  -13.2183   22.0052 C   0  0  0  0  0  0  0  0  0  0  0  0
    8.5395  -14.8428   20.3148 C   0  0  2  0  0  0  0  0  0  0  0  0
    8.0106  -15.6690   19.2136 N   0  0  0  0  0  0  0  0  0  0  0  0
    9.0186  -15.7311   21.3718 C   0  0  0  0  0  0  0  0  0  0  0  0
    8.3202  -16.7012   21.7530 O   0  0  0  0  0  0  0  0  0  0  0  0
   11.9697  -18.5925   21.7041 N   0  0  0  0  0  0  0  0  0  0  0  0
   12.7475  -17.5907   22.3327 C   0  0  0  0  0  0  0  0  0  0  0  0
   14.0208  -17.6016   22.2723 O   0  0  0  0  0  0  0  0  0  0  0  0
   12.1422  -16.4958   23.0781 C   0  0  0  0  0  0  0  0  0  0  0  0
   10.6356  -16.4758   23.0975 C   0  0  2  0  0  0  0  0  0  0  0  0
   10.2700  -15.5461   22.0059 N   0  0  0  0  0  0  0  0  0  0  0  0
   10.1666  -15.9050   24.3912 C   0  0  0  0  0  0  0  0  0  0  0  0
    9.7718  -14.6037   24.5995 O   0  0  0  0  0  0  0  0  0  0  0  0
   10.1120  -16.6589   25.4244 O   0  0  0  0  0  0  0  0  0  0  0  0
  2  1  1  6
  3  2  1  0
  4  5  1  0
  4  3  1  0
  5  6  1  0
  6  7  1  0
  8  2  1  0
  8 14  1  0
  9  8  2  0
 11 13  1  0
 11 10  1  6
 12 11  1  0
 13 14  1  6
 15 13  1  0
 16 15  2  0
 17 18  1  0
 18 19  2  0
 20 18  1  0
 21 20  1  1
 21 22  1  0
 21 23  1  0
 22 15  1  0
 23 24  1  0
 25 23  2  0
M  END
$$$$
