KVN.pdb
     RDKit          3D

 25 24  0  0  1  0  0  0  0  0999 V2000
    6.9870  -13.7218   20.5012 N   0  0  0  0  0  0  0  0  0  0  0  0
    6.7026  -14.2739   21.8369 C   0  0  1  0  0  0  0  0  0  0  0  0
    6.9575  -15.7747   21.6857 C   0  0  0  0  0  0  0  0  0  0  0  0
    7.9603  -16.1024   20.6437 C   0  0  0  0  0  0  0  0  0  0  0  0
    8.1827  -17.5539   20.3920 C   0  0  0  0  0  0  0  0  0  0  0  0
    9.2674  -17.9220   19.4404 C   0  0  0  0  0  0  0  0  0  0  0  0
   10.5810  -17.8719   20.0236 N   0  0  0  0  0  0  0  0  0  0  0  0
    7.6560  -13.7385   22.8283 C   0  0  0  0  0  0  0  0  0  0  0  0
    8.7840  -13.3630   22.4975 O   0  0  0  0  0  0  0  0  0  0  0  0
    6.3604  -13.3432   27.0165 C   0  0  0  0  0  0  0  0  0  0  0  0
    7.2622  -12.4716   26.2227 C   0  0  2  0  0  0  0  0  0  0  0  0
    6.4273  -11.3800   25.5886 C   0  0  0  0  0  0  0  0  0  0  0  0
    8.1568  -13.1542   25.2376 C   0  0  2  0  0  0  0  0  0  0  0  0
    7.2567  -13.6591   24.1841 N   0  0  0  0  0  0  0  0  0  0  0  0
    8.9374  -14.2755   25.7569 C   0  0  0  0  0  0  0  0  0  0  0  0
    9.7293  -14.1096   26.7158 O   0  0  0  0  0  0  0  0  0  0  0  0
    9.0335  -17.5387   28.3759 N   0  0  0  0  0  0  0  0  0  0  0  0
    8.5066  -18.2119   27.2476 C   0  0  0  0  0  0  0  0  0  0  0  0
    7.6869  -19.1800   27.3736 O   0  0  0  0  0  0  0  0  0  0  0  0
    8.8665  -17.8388   25.8867 C   0  0  0  0  0  0  0  0  0  0  0  0
    9.7431  -16.6202   25.7558 C   0  0  2  0  0  0  0  0  0  0  0  0
    8.8409  -15.5792   25.2155 N   0  0  0  0  0  0  0  0  0  0  0  0
   10.8164  -16.8897   24.7585 C   0  0  0  0  0  0  0  0  0  0  0  0
   10.9139  -16.3217   23.5092 O   0  0  0  0  0  0  0  0  0  0  0  0
   11.7487  -17.7169   25.0508 O   0  0  0  0  0  0  0  0  0  0  0  0
  2  1  1  6
  3  2  1  0
  4  5  1  0
  4  3  1  0
  5  6  1  0
  6  7  1  0
  8  2  1  0
  8 14  1  0
  9  8  2  0
 11 13  1  0
 11 10  1  6
 12 11  1  0
 13 14  1  6
 15 13  1  0
 16 15  2  0
 17 18  1  0
 18 19  2  0
 20 18  1  0
 21 20  1  6
 21 22  1  0
 21 23  1  0
 22 15  1  0
 23 24  1  0
 25 23  2  0
M  END
$$$$
