AIQ.pdb
     RDKit          3D

 23 22  0  0  1  0  0  0  0  0999 V2000
   26.9779  -17.6514  -17.1120 C   0  0  0  0  0  0  0  0  0  0  0  0
   27.8733  -18.7491  -16.6440 C   0  0  2  0  0  0  0  0  0  0  0  0
   28.5509  -19.4273  -17.7285 N   0  0  0  0  0  0  0  0  0  0  0  0
   27.1419  -19.7848  -15.8565 C   0  0  0  0  0  0  0  0  0  0  0  0
   26.6534  -20.7298  -16.4963 O   0  0  0  0  0  0  0  0  0  0  0  0
   29.0202  -20.5509  -11.1352 C   0  0  0  0  0  0  0  0  0  0  0  0
   28.3282  -21.1426  -12.3293 C   0  0  0  0  0  0  0  0  0  0  0  0
   26.8618  -20.7759  -12.2829 C   0  0  2  0  0  0  0  0  0  0  0  0
   26.2169  -21.7611  -11.3448 C   0  0  0  0  0  0  0  0  0  0  0  0
   26.2907  -20.7216  -13.6509 C   0  0  2  0  0  0  0  0  0  0  0  0
   27.0028  -19.7083  -14.4462 N   0  0  0  0  0  0  0  0  0  0  0  0
   24.8335  -20.4919  -13.7378 C   0  0  0  0  0  0  0  0  0  0  0  0
   24.4053  -19.2875  -13.6451 O   0  0  0  0  0  0  0  0  0  0  0  0
   20.0173  -21.2827  -11.4608 N   0  0  0  0  0  0  0  0  0  0  0  0
   19.6522  -20.2267  -12.3303 C   0  0  0  0  0  0  0  0  0  0  0  0
   18.4290  -19.9070  -12.4166 O   0  0  0  0  0  0  0  0  0  0  0  0
   20.7038  -19.5295  -13.1000 C   0  0  0  0  0  0  0  0  0  0  0  0
   22.0646  -20.1138  -12.9871 C   0  0  0  0  0  0  0  0  0  0  0  0
   22.4019  -21.0987  -14.0292 C   0  0  2  0  0  0  0  0  0  0  0  0
   23.8392  -21.4660  -13.9166 N   0  0  0  0  0  0  0  0  0  0  0  0
   22.1282  -20.7875  -15.4099 C   0  0  0  0  0  0  0  0  0  0  0  0
   20.8195  -20.9251  -15.9320 O   0  0  0  0  0  0  0  0  0  0  0  0
   22.9714  -20.3761  -16.2808 O   0  0  0  0  0  0  0  0  0  0  0  0
  2  1  1  6
  2  3  1  0
  4  5  2  0
  4  2  1  0
  7  6  1  0
  8  7  1  0
  8 10  1  0
  8  9  1  1
 10 12  1  0
 10 11  1  6
 11  4  1  0
 12 20  1  0
 13 12  2  0
 15 14  1  0
 16 15  2  0
 17 15  1  0
 18 17  1  0
 19 18  1  1
 20 19  1  0
 21 22  1  0
 21 19  1  0
 23 21  2  0
M  END
$$$$
