AIQ.pdb
     RDKit          3D

 23 22  0  0  1  0  0  0  0  0999 V2000
   16.6736  -12.3937  -13.8189 C   0  0  0  0  0  0  0  0  0  0  0  0
   15.3970  -12.2666  -13.0575 C   0  0  2  0  0  0  0  0  0  0  0  0
   14.2929  -12.9614  -13.6847 N   0  0  0  0  0  0  0  0  0  0  0  0
   14.9830  -10.8446  -12.8719 C   0  0  0  0  0  0  0  0  0  0  0  0
   14.4060  -10.3026  -13.8281 O   0  0  0  0  0  0  0  0  0  0  0  0
   12.2321   -9.3703   -8.7051 C   0  0  0  0  0  0  0  0  0  0  0  0
   12.8410   -9.4700  -10.0741 C   0  0  0  0  0  0  0  0  0  0  0  0
   14.1184   -8.6612  -10.1071 C   0  0  2  0  0  0  0  0  0  0  0  0
   13.7428   -7.2733   -9.6604 C   0  0  0  0  0  0  0  0  0  0  0  0
   14.7652   -8.7554  -11.4386 C   0  0  2  0  0  0  0  0  0  0  0  0
   15.2290  -10.1332  -11.6688 N   0  0  0  0  0  0  0  0  0  0  0  0
   15.8698   -7.8072  -11.6929 C   0  0  0  0  0  0  0  0  0  0  0  0
   17.0583   -8.1646  -11.3732 O   0  0  0  0  0  0  0  0  0  0  0  0
   20.2679   -7.6083  -12.7411 N   0  0  0  0  0  0  0  0  0  0  0  0
   20.2372   -6.6044  -13.7390 C   0  0  0  0  0  0  0  0  0  0  0  0
   21.3343   -6.1124  -14.1387 O   0  0  0  0  0  0  0  0  0  0  0  0
   18.9345   -6.1696  -14.2851 C   0  0  0  0  0  0  0  0  0  0  0  0
   17.7419   -6.7643  -13.6294 C   0  0  0  0  0  0  0  0  0  0  0  0
   16.9506   -5.8240  -12.8175 C   0  0  2  0  0  0  0  0  0  0  0  0
   15.7643   -6.5279  -12.2602 N   0  0  0  0  0  0  0  0  0  0  0  0
   16.4993   -4.5885  -13.4074 C   0  0  0  0  0  0  0  0  0  0  0  0
   17.3841   -3.4918  -13.5439 O   0  0  0  0  0  0  0  0  0  0  0  0
   15.3251   -4.3397  -13.8523 O   0  0  0  0  0  0  0  0  0  0  0  0
  2  1  1  6
  2  3  1  0
  4  5  2  0
  4  2  1  0
  7  6  1  0
  8  7  1  0
  8 10  1  0
  8  9  1  6
 10 12  1  0
 10 11  1  1
 11  4  1  0
 12 20  1  0
 13 12  2  0
 15 14  1  0
 16 15  2  0
 17 15  1  0
 18 17  1  0
 19 18  1  6
 20 19  1  0
 21 22  1  0
 21 19  1  0
 23 21  2  0
M  END
$$$$
