AIQ.pdb
     RDKit          3D

 23 22  0  0  1  0  0  0  0  0999 V2000
   15.2793  -10.6744  -15.1395 C   0  0  0  0  0  0  0  0  0  0  0  0
   16.7704  -10.7186  -15.1428 C   0  0  2  0  0  0  0  0  0  0  0  0
   17.2962  -12.0550  -15.3244 N   0  0  0  0  0  0  0  0  0  0  0  0
   17.3598  -10.1734  -13.8846 C   0  0  0  0  0  0  0  0  0  0  0  0
   17.3994  -10.9405  -12.9093 O   0  0  0  0  0  0  0  0  0  0  0  0
   21.7286   -6.4175  -12.1110 C   0  0  0  0  0  0  0  0  0  0  0  0
   20.4533   -7.0979  -11.7040 C   0  0  0  0  0  0  0  0  0  0  0  0
   19.7701   -7.6458  -12.9368 C   0  0  2  0  0  0  0  0  0  0  0  0
   19.6598   -6.4922  -13.8979 C   0  0  0  0  0  0  0  0  0  0  0  0
   18.4924   -8.3086  -12.5782 C   0  0  2  0  0  0  0  0  0  0  0  0
   17.8549   -8.8466  -13.7908 N   0  0  0  0  0  0  0  0  0  0  0  0
   17.5222   -7.4855  -11.8266 C   0  0  0  0  0  0  0  0  0  0  0  0
   16.8704   -6.5859  -12.4656 O   0  0  0  0  0  0  0  0  0  0  0  0
   13.1703   -9.2211   -8.0108 N   0  0  0  0  0  0  0  0  0  0  0  0
   13.0436   -7.8173   -7.8777 C   0  0  0  0  0  0  0  0  0  0  0  0
   12.0699   -7.3564   -7.2104 O   0  0  0  0  0  0  0  0  0  0  0  0
   14.0491   -6.9387   -8.5113 C   0  0  0  0  0  0  0  0  0  0  0  0
   15.1613   -7.6421   -9.2000 C   0  0  0  0  0  0  0  0  0  0  0  0
   16.1502   -6.7567   -9.8384 C   0  0  2  0  0  0  0  0  0  0  0  0
   17.2237   -7.5793  -10.4585 N   0  0  0  0  0  0  0  0  0  0  0  0
   16.7779   -5.7201   -9.0576 C   0  0  0  0  0  0  0  0  0  0  0  0
   16.0991   -4.5053   -8.7977 O   0  0  0  0  0  0  0  0  0  0  0  0
   17.9459   -5.7598   -8.5353 O   0  0  0  0  0  0  0  0  0  0  0  0
  2  1  1  1
  2  3  1  0
  4  5  2  0
  4  2  1  0
  7  6  1  0
  8  7  1  0
  8 10  1  0
  8  9  1  6
 10 12  1  0
 10 11  1  6
 11  4  1  0
 12 20  1  0
 13 12  2  0
 15 14  1  0
 16 15  2  0
 17 15  1  0
 18 17  1  0
 19 18  1  1
 20 19  1  0
 21 22  1  0
 21 19  1  0
 23 21  2  0
M  END
$$$$
