AIQ.pdb
     RDKit          3D

 23 22  0  0  1  0  0  0  0  0999 V2000
   24.5832  -35.4321    6.3679 C   0  0  0  0  0  0  0  0  0  0  0  0
   25.2003  -34.5672    5.3207 C   0  0  2  0  0  0  0  0  0  0  0  0
   26.1325  -35.2814    4.4745 N   0  0  0  0  0  0  0  0  0  0  0  0
   25.9271  -33.3997    5.9009 C   0  0  0  0  0  0  0  0  0  0  0  0
   27.0460  -33.6260    6.3888 O   0  0  0  0  0  0  0  0  0  0  0  0
   25.0786  -28.7692    3.5384 C   0  0  0  0  0  0  0  0  0  0  0  0
   25.9073  -29.7950    4.2566 C   0  0  0  0  0  0  0  0  0  0  0  0
   25.6420  -29.6931    5.7419 C   0  0  2  0  0  0  0  0  0  0  0  0
   26.2878  -28.4097    6.1920 C   0  0  0  0  0  0  0  0  0  0  0  0
   26.0941  -30.9205    6.4414 C   0  0  2  0  0  0  0  0  0  0  0  0
   25.3807  -32.0899    5.9029 N   0  0  0  0  0  0  0  0  0  0  0  0
   25.9875  -30.9049    7.9152 C   0  0  0  0  0  0  0  0  0  0  0  0
   24.8607  -31.2127    8.4425 O   0  0  0  0  0  0  0  0  0  0  0  0
   28.0842  -33.9694   11.5876 N   0  0  0  0  0  0  0  0  0  0  0  0
   27.0967  -33.4772   12.4747 C   0  0  0  0  0  0  0  0  0  0  0  0
   27.0601  -33.9342   13.6560 O   0  0  0  0  0  0  0  0  0  0  0  0
   26.1496  -32.4467   12.0000 C   0  0  0  0  0  0  0  0  0  0  0  0
   26.2626  -32.0965   10.5611 C   0  0  0  0  0  0  0  0  0  0  0  0
   26.8185  -30.7591   10.2931 C   0  0  2  0  0  0  0  0  0  0  0  0
   27.0050  -30.5852    8.8273 N   0  0  0  0  0  0  0  0  0  0  0  0
   28.0381  -30.3572   10.9483 C   0  0  0  0  0  0  0  0  0  0  0  0
   29.2396  -30.2242   10.2116 O   0  0  0  0  0  0  0  0  0  0  0  0
   28.1833  -30.0877   12.1912 O   0  0  0  0  0  0  0  0  0  0  0  0
  2  1  1  1
  2  3  1  0
  4  5  2  0
  4  2  1  0
  7  6  1  0
  8  7  1  0
  8 10  1  0
  8  9  1  1
 10 12  1  0
 10 11  1  6
 11  4  1  0
 12 20  1  0
 13 12  2  0
 15 14  1  0
 16 15  2  0
 17 15  1  0
 18 17  1  0
 19 18  1  6
 20 19  1  0
 21 22  1  0
 21 19  1  0
 23 21  2  0
M  END
$$$$
