AIQ.pdb
     RDKit          3D

 23 22  0  0  1  0  0  0  0  0999 V2000
   18.2232   -9.8821  -19.0709 C   0  0  0  0  0  0  0  0  0  0  0  0
   18.8032  -10.9798  -18.2436 C   0  0  2  0  0  0  0  0  0  0  0  0
   17.8073  -11.9167  -17.7688 N   0  0  0  0  0  0  0  0  0  0  0  0
   19.5392  -10.4668  -17.0507 C   0  0  0  0  0  0  0  0  0  0  0  0
   18.8592  -10.2080  -16.0449 O   0  0  0  0  0  0  0  0  0  0  0  0
   23.8323  -12.9037  -15.5696 C   0  0  0  0  0  0  0  0  0  0  0  0
   22.5954  -12.0672  -15.4117 C   0  0  0  0  0  0  0  0  0  0  0  0
   22.9317  -10.6248  -15.7172 C   0  0  2  0  0  0  0  0  0  0  0  0
   23.8723  -10.1784  -14.6297 C   0  0  0  0  0  0  0  0  0  0  0  0
   21.6960   -9.8185  -15.8698 C   0  0  2  0  0  0  0  0  0  0  0  0
   20.9458  -10.2785  -17.0497 N   0  0  0  0  0  0  0  0  0  0  0  0
   21.8799   -8.3537  -15.9342 C   0  0  0  0  0  0  0  0  0  0  0  0
   22.6434   -7.8804  -16.8483 O   0  0  0  0  0  0  0  0  0  0  0  0
   17.1278   -5.0003  -16.3666 N   0  0  0  0  0  0  0  0  0  0  0  0
   18.2404   -4.3117  -15.8259 C   0  0  0  0  0  0  0  0  0  0  0  0
   18.2870   -3.0505  -15.9390 O   0  0  0  0  0  0  0  0  0  0  0  0
   19.3027   -5.0803  -15.1439 C   0  0  0  0  0  0  0  0  0  0  0  0
   20.5586   -5.2504  -15.9184 C   0  0  0  0  0  0  0  0  0  0  0  0
   21.6364   -5.9520  -15.2003 C   0  0  2  0  0  0  0  0  0  0  0  0
   21.2983   -7.3965  -15.0886 N   0  0  0  0  0  0  0  0  0  0  0  0
   22.0358   -5.4857  -13.8960 C   0  0  0  0  0  0  0  0  0  0  0  0
   22.5752   -4.1872  -13.7311 O   0  0  0  0  0  0  0  0  0  0  0  0
   21.9606   -6.1373  -12.7968 O   0  0  0  0  0  0  0  0  0  0  0  0
  2  1  1  1
  2  3  1  0
  4  5  2  0
  4  2  1  0
  7  6  1  0
  8  7  1  0
  8 10  1  0
  8  9  1  1
 10 12  1  0
 10 11  1  6
 11  4  1  0
 12 20  1  0
 13 12  2  0
 15 14  1  0
 16 15  2  0
 17 15  1  0
 18 17  1  0
 19 18  1  1
 20 19  1  0
 21 22  1  0
 21 19  1  0
 23 21  2  0
M  END
$$$$
