AIQ.pdb
     RDKit          3D

 23 22  0  0  1  0  0  0  0  0999 V2000
   29.0853  -24.4013  -18.3566 C   0  0  0  0  0  0  0  0  0  0  0  0
   29.0916  -24.1365  -16.8885 C   0  0  2  0  0  0  0  0  0  0  0  0
   29.0483  -25.3466  -16.0954 N   0  0  0  0  0  0  0  0  0  0  0  0
   27.9478  -23.2791  -16.4589 C   0  0  0  0  0  0  0  0  0  0  0  0
   26.9598  -23.8634  -15.9862 O   0  0  0  0  0  0  0  0  0  0  0  0
   27.0605  -17.8248  -14.0142 C   0  0  0  0  0  0  0  0  0  0  0  0
   26.4192  -18.9483  -14.7766 C   0  0  0  0  0  0  0  0  0  0  0  0
   27.4987  -19.8624  -15.3114 C   0  0  2  0  0  0  0  0  0  0  0  0
   28.4380  -18.9829  -16.0929 C   0  0  0  0  0  0  0  0  0  0  0  0
   26.9033  -20.9947  -16.0622 C   0  0  2  0  0  0  0  0  0  0  0  0
   27.9725  -21.8651  -16.5778 N   0  0  0  0  0  0  0  0  0  0  0  0
   25.9804  -20.6337  -17.1584 C   0  0  0  0  0  0  0  0  0  0  0  0
   26.4844  -20.2029  -18.2551 O   0  0  0  0  0  0  0  0  0  0  0  0
   19.7585  -21.8949  -20.8696 N   0  0  0  0  0  0  0  0  0  0  0  0
   20.6219  -22.0068  -19.7532 C   0  0  0  0  0  0  0  0  0  0  0  0
   20.4078  -22.9287  -18.9106 O   0  0  0  0  0  0  0  0  0  0  0  0
   21.7436  -21.0552  -19.6102 C   0  0  0  0  0  0  0  0  0  0  0  0
   22.6645  -21.3264  -18.4770 C   0  0  0  0  0  0  0  0  0  0  0  0
   23.7617  -20.3552  -18.3270 C   0  0  2  0  0  0  0  0  0  0  0  0
   24.5794  -20.7120  -17.1364 N   0  0  0  0  0  0  0  0  0  0  0  0
   23.4542  -18.9488  -18.2513 C   0  0  0  0  0  0  0  0  0  0  0  0
   23.3498  -18.3025  -16.9961 O   0  0  0  0  0  0  0  0  0  0  0  0
   23.2502  -18.1584  -19.2373 O   0  0  0  0  0  0  0  0  0  0  0  0
  2  1  1  6
  2  3  1  0
  4  5  2  0
  4  2  1  0
  7  6  1  0
  8  7  1  0
  8 10  1  0
  8  9  1  6
 10 12  1  0
 10 11  1  6
 11  4  1  0
 12 20  1  0
 13 12  2  0
 15 14  1  0
 16 15  2  0
 17 15  1  0
 18 17  1  0
 19 18  1  1
 20 19  1  0
 21 22  1  0
 21 19  1  0
 23 21  2  0
M  END
$$$$
