DDC.pdb
     RDKit          3D

 23 22  0  0  1  0  0  0  0  0999 V2000
   14.4966   -9.7049  -12.0666 N   0  0  0  0  0  0  0  0  0  0  0  0
   15.6314   -9.6516  -11.1783 C   0  0  1  0  0  0  0  0  0  0  0  0
   16.5980  -10.7182  -11.5782 C   0  0  0  0  0  0  0  0  0  0  0  0
   15.9606  -12.0262  -11.3733 C   0  0  0  0  0  0  0  0  0  0  0  0
   15.3913  -12.2850  -10.3019 O   0  0  0  0  0  0  0  0  0  0  0  0
   16.2141   -8.2987  -11.0865 C   0  0  0  0  0  0  0  0  0  0  0  0
   16.4887   -7.7158  -12.1666 O   0  0  0  0  0  0  0  0  0  0  0  0
   15.9913  -12.9736  -12.3707 O   0  0  0  0  0  0  0  0  0  0  0  0
   16.4568   -7.6759   -9.8360 N   0  0  0  0  0  0  0  0  0  0  0  0
   16.9494   -6.3246   -9.6990 C   0  0  1  0  0  0  0  0  0  0  0  0
   16.4897   -5.6284   -8.4695 C   0  0  0  0  0  0  0  0  0  0  0  0
   15.0259   -5.4373   -8.4779 C   0  0  0  0  0  0  0  0  0  0  0  0
   14.5253   -4.5399   -9.1703 O   0  0  0  0  0  0  0  0  0  0  0  0
   18.4134   -6.2456   -9.9027 C   0  0  0  0  0  0  0  0  0  0  0  0
   19.1917   -6.5392   -8.9774 O   0  0  0  0  0  0  0  0  0  0  0  0
   14.2211   -6.2536   -7.7192 O   0  0  0  0  0  0  0  0  0  0  0  0
   18.9362   -5.8375  -11.1453 N   0  0  0  0  0  0  0  0  0  0  0  0
   20.3456   -5.8806  -11.4853 C   0  0  1  0  0  0  0  0  0  0  0  0
   20.6874   -7.3445  -11.6786 C   0  0  0  0  0  0  0  0  0  0  0  0
   19.7308   -8.0573  -13.0340 S   0  0  0  0  0  0  0  0  0  0  0  0
   20.6938   -5.0472  -12.6356 C   0  0  0  0  0  0  0  0  0  0  0  0
   21.8903   -4.9050  -12.9727 O   0  0  0  0  0  0  0  0  0  0  0  0
   19.6975   -4.4188  -13.3476 O   0  0  0  0  0  0  0  0  0  0  0  0
  2  1  1  6
  3  4  1  0
  3  2  1  0
  4  8  1  0
  5  4  2  0
  6  7  2  0
  6  2  1  0
  9  6  1  0
 10 14  1  0
 10  9  1  0
 10 11  1  1
 12 11  1  0
 13 12  2  0
 14 17  1  0
 15 14  2  0
 16 12  1  0
 17 18  1  0
 18 21  1  0
 18 19  1  6
 20 19  1  0
 21 22  2  0
 21 23  1  0
M  END
$$$$
