DDC.pdb
     RDKit          3D

 23 22  0  0  1  0  0  0  0  0999 V2000
   22.2964   -8.2535  -21.5268 N   0  0  0  0  0  0  0  0  0  0  0  0
   22.5344   -8.9284  -20.2748 C   0  0  1  0  0  0  0  0  0  0  0  0
   23.9874   -8.8185  -19.9449 C   0  0  0  0  0  0  0  0  0  0  0  0
   24.7609   -9.4277  -21.0357 C   0  0  0  0  0  0  0  0  0  0  0  0
   25.6768   -8.7955  -21.5836 O   0  0  0  0  0  0  0  0  0  0  0  0
   21.6262   -8.4715  -19.2049 C   0  0  0  0  0  0  0  0  0  0  0  0
   21.2216   -7.2821  -19.2624 O   0  0  0  0  0  0  0  0  0  0  0  0
   24.4733  -10.7059  -21.4564 O   0  0  0  0  0  0  0  0  0  0  0  0
   21.2223   -9.3324  -18.1531 N   0  0  0  0  0  0  0  0  0  0  0  0
   20.3751   -8.9147  -17.0599 C   0  0  1  0  0  0  0  0  0  0  0  0
   19.5587  -10.0061  -16.4681 C   0  0  0  0  0  0  0  0  0  0  0  0
   18.5495  -10.4995  -17.4258 C   0  0  0  0  0  0  0  0  0  0  0  0
   18.5181  -11.7019  -17.7235 O   0  0  0  0  0  0  0  0  0  0  0  0
   21.1202   -8.1290  -16.0508 C   0  0  0  0  0  0  0  0  0  0  0  0
   22.0851   -8.6351  -15.4499 O   0  0  0  0  0  0  0  0  0  0  0  0
   17.6472   -9.6264  -17.9853 O   0  0  0  0  0  0  0  0  0  0  0  0
   20.7426   -6.8029  -15.7631 N   0  0  0  0  0  0  0  0  0  0  0  0
   21.4452   -5.9446  -14.8285 C   0  0  1  0  0  0  0  0  0  0  0  0
   22.5294   -5.2501  -15.6281 C   0  0  0  0  0  0  0  0  0  0  0  0
   23.3192   -3.9517  -14.6530 S   0  0  0  0  0  0  0  0  0  0  0  0
   20.5675   -5.0177  -14.1148 C   0  0  0  0  0  0  0  0  0  0  0  0
   20.8100   -4.7067  -12.9273 O   0  0  0  0  0  0  0  0  0  0  0  0
   19.4712   -4.4876  -14.7562 O   0  0  0  0  0  0  0  0  0  0  0  0
  2  1  1  6
  3  4  1  0
  3  2  1  0
  4  8  1  0
  5  4  2  0
  6  7  2  0
  6  2  1  0
  9  6  1  0
 10 14  1  0
 10  9  1  0
 10 11  1  1
 12 11  1  0
 13 12  2  0
 14 17  1  0
 15 14  2  0
 16 12  1  0
 17 18  1  0
 18 21  1  0
 18 19  1  6
 20 19  1  0
 21 22  2  0
 21 23  1  0
M  END
$$$$
