DDC.pdb
     RDKit          3D

 23 22  0  0  1  0  0  0  0  0999 V2000
   18.5235  -11.7734  -15.5268 N   0  0  0  0  0  0  0  0  0  0  0  0
   17.9689  -10.4492  -15.3912 C   0  0  1  0  0  0  0  0  0  0  0  0
   16.4792  -10.5508  -15.4411 C   0  0  0  0  0  0  0  0  0  0  0  0
   16.0796  -10.8744  -16.8177 C   0  0  0  0  0  0  0  0  0  0  0  0
   15.3602  -11.8588  -17.0465 O   0  0  0  0  0  0  0  0  0  0  0  0
   18.4957   -9.7338  -14.2126 C   0  0  0  0  0  0  0  0  0  0  0  0
   18.4023  -10.3115  -13.0994 O   0  0  0  0  0  0  0  0  0  0  0  0
   16.5016  -10.0855  -17.8631 O   0  0  0  0  0  0  0  0  0  0  0  0
   19.0842   -8.4485  -14.3235 N   0  0  0  0  0  0  0  0  0  0  0  0
   19.5357   -7.6763  -13.1890 C   0  0  1  0  0  0  0  0  0  0  0  0
   20.7278   -6.8318  -13.4601 C   0  0  0  0  0  0  0  0  0  0  0  0
   21.1671   -6.1194  -12.2441 C   0  0  0  0  0  0  0  0  0  0  0  0
   21.3946   -6.7553  -11.2053 O   0  0  0  0  0  0  0  0  0  0  0  0
   18.4272   -6.9341  -12.5478 C   0  0  0  0  0  0  0  0  0  0  0  0
   17.7086   -6.1747  -13.2224 O   0  0  0  0  0  0  0  0  0  0  0  0
   21.3233   -4.7538  -12.2654 O   0  0  0  0  0  0  0  0  0  0  0  0
   18.1776   -7.0817  -11.1694 N   0  0  0  0  0  0  0  0  0  0  0  0
   17.1372   -6.3689  -10.4531 C   0  0  1  0  0  0  0  0  0  0  0  0
   16.0812   -7.4000  -10.1084 C   0  0  0  0  0  0  0  0  0  0  0  0
   14.8392   -6.7054   -8.9969 S   0  0  0  0  0  0  0  0  0  0  0  0
   17.6298   -5.6324   -9.2896 C   0  0  0  0  0  0  0  0  0  0  0  0
   18.7184   -5.9463   -8.7585 O   0  0  0  0  0  0  0  0  0  0  0  0
   16.8894   -4.5899   -8.7802 O   0  0  0  0  0  0  0  0  0  0  0  0
  2  1  1  1
  3  4  1  0
  3  2  1  0
  4  8  1  0
  5  4  2  0
  6  7  2  0
  6  2  1  0
  9  6  1  0
 10 14  1  0
 10  9  1  0
 10 11  1  6
 12 11  1  0
 13 12  2  0
 14 17  1  0
 15 14  2  0
 16 12  1  0
 17 18  1  0
 18 21  1  0
 18 19  1  1
 20 19  1  0
 21 22  2  0
 21 23  1  0
M  END
$$$$
