DDC.pdb
     RDKit          3D

 23 22  0  0  1  0  0  0  0  0999 V2000
   22.2243  -12.6931  -17.1005 N   0  0  0  0  0  0  0  0  0  0  0  0
   21.7886  -11.5576  -17.8753 C   0  0  1  0  0  0  0  0  0  0  0  0
   20.4816  -11.8933  -18.5162 C   0  0  0  0  0  0  0  0  0  0  0  0
   20.6655  -13.0865  -19.3539 C   0  0  0  0  0  0  0  0  0  0  0  0
   20.1392  -14.1636  -19.0347 O   0  0  0  0  0  0  0  0  0  0  0  0
   21.7843  -10.3068  -17.0918 C   0  0  0  0  0  0  0  0  0  0  0  0
   21.1420  -10.3073  -16.0104 O   0  0  0  0  0  0  0  0  0  0  0  0
   21.4240  -13.0159  -20.4998 O   0  0  0  0  0  0  0  0  0  0  0  0
   22.4734   -9.1491  -17.5336 N   0  0  0  0  0  0  0  0  0  0  0  0
   22.4479   -7.8873  -16.8303 C   0  0  1  0  0  0  0  0  0  0  0  0
   23.6760   -7.0682  -17.0000 C   0  0  0  0  0  0  0  0  0  0  0  0
   24.8814   -7.8216  -16.6019 C   0  0  0  0  0  0  0  0  0  0  0  0
   25.6883   -8.1946  -17.4651 O   0  0  0  0  0  0  0  0  0  0  0  0
   21.2014   -7.1330  -17.0913 C   0  0  0  0  0  0  0  0  0  0  0  0
   20.5643   -7.3200  -18.1436 O   0  0  0  0  0  0  0  0  0  0  0  0
   25.1072   -8.1080  -15.2766 O   0  0  0  0  0  0  0  0  0  0  0  0
   20.7274   -6.1979  -16.1506 N   0  0  0  0  0  0  0  0  0  0  0  0
   19.4729   -5.4817  -16.2812 C   0  0  1  0  0  0  0  0  0  0  0  0
   18.3864   -6.5379  -16.3130 C   0  0  0  0  0  0  0  0  0  0  0  0
   16.7489   -5.7826  -16.2211 S   0  0  0  0  0  0  0  0  0  0  0  0
   19.2680   -4.4704  -15.2445 C   0  0  0  0  0  0  0  0  0  0  0  0
   19.7393   -4.6380  -14.0976 O   0  0  0  0  0  0  0  0  0  0  0  0
   18.5533   -3.3310  -15.5367 O   0  0  0  0  0  0  0  0  0  0  0  0
  2  1  1  1
  3  4  1  0
  3  2  1  0
  4  8  1  0
  5  4  2  0
  6  7  2  0
  6  2  1  0
  9  6  1  0
 10 14  1  0
 10  9  1  0
 10 11  1  6
 12 11  1  0
 13 12  2  0
 14 17  1  0
 15 14  2  0
 16 12  1  0
 17 18  1  0
 18 21  1  0
 18 19  1  1
 20 19  1  0
 21 22  2  0
 21 23  1  0
M  END
$$$$
