DDC.pdb
     RDKit          3D

 23 22  0  0  1  0  0  0  0  0999 V2000
   18.9002  -12.0333  -17.3670 N   0  0  0  0  0  0  0  0  0  0  0  0
   18.1269  -11.6301  -16.2185 C   0  0  1  0  0  0  0  0  0  0  0  0
   18.1378  -12.7446  -15.2237 C   0  0  0  0  0  0  0  0  0  0  0  0
   17.4390  -13.8980  -15.8074 C   0  0  0  0  0  0  0  0  0  0  0  0
   17.0112  -13.8485  -16.9708 O   0  0  0  0  0  0  0  0  0  0  0  0
   18.5530  -10.3235  -15.6806 C   0  0  0  0  0  0  0  0  0  0  0  0
   17.9986   -9.9279  -14.6233 O   0  0  0  0  0  0  0  0  0  0  0  0
   17.2547  -15.0421  -15.0654 O   0  0  0  0  0  0  0  0  0  0  0  0
   19.5457   -9.5415  -16.3237 N   0  0  0  0  0  0  0  0  0  0  0  0
   19.9605   -8.2379  -15.8591 C   0  0  1  0  0  0  0  0  0  0  0  0
   21.3973   -7.9363  -16.0882 C   0  0  0  0  0  0  0  0  0  0  0  0
   22.2656   -8.9053  -15.3910 C   0  0  0  0  0  0  0  0  0  0  0  0
   22.9259   -9.7241  -16.0460 O   0  0  0  0  0  0  0  0  0  0  0  0
   19.0556   -7.1671  -16.3338 C   0  0  0  0  0  0  0  0  0  0  0  0
   18.5803   -7.2117  -17.4828 O   0  0  0  0  0  0  0  0  0  0  0  0
   22.3409   -8.8984  -14.0184 O   0  0  0  0  0  0  0  0  0  0  0  0
   18.7259   -6.0897  -15.4885 N   0  0  0  0  0  0  0  0  0  0  0  0
   17.8858   -4.9759  -15.8852 C   0  0  1  0  0  0  0  0  0  0  0  0
   16.5793   -5.1462  -15.1359 C   0  0  0  0  0  0  0  0  0  0  0  0
   15.5258   -3.6936  -15.3369 S   0  0  0  0  0  0  0  0  0  0  0  0
   18.5097   -3.6702  -15.6729 C   0  0  0  0  0  0  0  0  0  0  0  0
   19.2163   -3.4655  -14.6608 O   0  0  0  0  0  0  0  0  0  0  0  0
   18.3161   -2.6654  -16.5934 O   0  0  0  0  0  0  0  0  0  0  0  0
  2  1  1  6
  3  4  1  0
  3  2  1  0
  4  8  1  0
  5  4  2  0
  6  7  2  0
  6  2  1  0
  9  6  1  0
 10 14  1  0
 10  9  1  0
 10 11  1  6
 12 11  1  0
 13 12  2  0
 14 17  1  0
 15 14  2  0
 16 12  1  0
 17 18  1  0
 18 21  1  0
 18 19  1  1
 20 19  1  0
 21 22  2  0
 21 23  1  0
M  END
$$$$
