DDC.pdb
     RDKit          3D

 23 22  0  0  1  0  0  0  0  0999 V2000
   17.0076   -8.6520  -14.9330 N   0  0  0  0  0  0  0  0  0  0  0  0
   17.3007   -7.5187  -15.7752 C   0  0  1  0  0  0  0  0  0  0  0  0
   16.0357   -6.7578  -16.0046 C   0  0  0  0  0  0  0  0  0  0  0  0
   15.0995   -7.6196  -16.7394 C   0  0  0  0  0  0  0  0  0  0  0  0
   13.9736   -7.8593  -16.2771 O   0  0  0  0  0  0  0  0  0  0  0  0
   18.4204   -6.7065  -15.2604 C   0  0  0  0  0  0  0  0  0  0  0  0
   18.3120   -6.2511  -14.0931 O   0  0  0  0  0  0  0  0  0  0  0  0
   15.4669   -8.1668  -17.9473 O   0  0  0  0  0  0  0  0  0  0  0  0
   19.5735   -6.4468  -16.0437 N   0  0  0  0  0  0  0  0  0  0  0  0
   20.6597   -5.5990  -15.6092 C   0  0  1  0  0  0  0  0  0  0  0  0
   21.9978   -6.0220  -16.0975 C   0  0  0  0  0  0  0  0  0  0  0  0
   22.3312   -7.3833  -15.6341 C   0  0  0  0  0  0  0  0  0  0  0  0
   22.3791   -7.6269  -14.4202 O   0  0  0  0  0  0  0  0  0  0  0  0
   20.3751   -4.1667  -15.8509 C   0  0  0  0  0  0  0  0  0  0  0  0
   19.7867   -3.8109  -16.8879 O   0  0  0  0  0  0  0  0  0  0  0  0
   22.5876   -8.3777  -16.5480 O   0  0  0  0  0  0  0  0  0  0  0  0
   20.7684   -3.1960  -14.9091 N   0  0  0  0  0  0  0  0  0  0  0  0
   20.4595   -1.7835  -15.0238 C   0  0  1  0  0  0  0  0  0  0  0  0
   18.9547   -1.6931  -15.1809 C   0  0  0  0  0  0  0  0  0  0  0  0
   18.4605   -2.0498  -16.8806 S   0  0  0  0  0  0  0  0  0  0  0  0
   20.9757   -0.9817  -13.9148 C   0  0  0  0  0  0  0  0  0  0  0  0
   20.8321    0.2612  -13.9144 O   0  0  0  0  0  0  0  0  0  0  0  0
   21.6214   -1.6016  -12.8693 O   0  0  0  0  0  0  0  0  0  0  0  0
  2  1  1  1
  3  4  1  0
  3  2  1  0
  4  8  1  0
  5  4  2  0
  6  7  2  0
  6  2  1  0
  9  6  1  0
 10 14  1  0
 10  9  1  0
 10 11  1  6
 12 11  1  0
 13 12  2  0
 14 17  1  0
 15 14  2  0
 16 12  1  0
 17 18  1  0
 18 21  1  0
 18 19  1  1
 20 19  1  0
 21 22  2  0
 21 23  1  0
M  END
$$$$
