DDC.pdb
     RDKit          3D

 23 22  0  0  1  0  0  0  0  0999 V2000
   17.8155  -11.0799  -15.4571 N   0  0  0  0  0  0  0  0  0  0  0  0
   19.0196  -10.4751  -15.9710 C   0  0  1  0  0  0  0  0  0  0  0  0
   19.1914  -10.8944  -17.3946 C   0  0  0  0  0  0  0  0  0  0  0  0
   19.4326  -12.3435  -17.4282 C   0  0  0  0  0  0  0  0  0  0  0  0
   18.4873  -13.1390  -17.3159 O   0  0  0  0  0  0  0  0  0  0  0  0
   19.0567   -9.0159  -15.7526 C   0  0  0  0  0  0  0  0  0  0  0  0
   18.0076   -8.3694  -16.0042 O   0  0  0  0  0  0  0  0  0  0  0  0
   20.7110  -12.8277  -17.5851 O   0  0  0  0  0  0  0  0  0  0  0  0
   20.2230   -8.3634  -15.2789 N   0  0  0  0  0  0  0  0  0  0  0  0
   20.2768   -6.9553  -14.9603 C   0  0  1  0  0  0  0  0  0  0  0  0
   21.2622   -6.6048  -13.9048 C   0  0  0  0  0  0  0  0  0  0  0  0
   20.9075   -7.2262  -12.6136 C   0  0  0  0  0  0  0  0  0  0  0  0
   21.7309   -7.9430  -12.0275 O   0  0  0  0  0  0  0  0  0  0  0  0
   20.3977   -6.1171  -16.1743 C   0  0  0  0  0  0  0  0  0  0  0  0
   21.3379   -6.2971  -16.9692 O   0  0  0  0  0  0  0  0  0  0  0  0
   19.6665   -7.0094  -12.0636 O   0  0  0  0  0  0  0  0  0  0  0  0
   19.4496   -5.1095  -16.4386 N   0  0  0  0  0  0  0  0  0  0  0  0
   19.4914   -4.2417  -17.6000 C   0  0  1  0  0  0  0  0  0  0  0  0
   18.3154   -4.6429  -18.4679 C   0  0  0  0  0  0  0  0  0  0  0  0
   18.3046   -3.7082  -20.0127 S   0  0  0  0  0  0  0  0  0  0  0  0
   19.5052   -2.8183  -17.2643 C   0  0  0  0  0  0  0  0  0  0  0  0
   18.8660   -2.3971  -16.2745 O   0  0  0  0  0  0  0  0  0  0  0  0
   20.2259   -1.9419  -18.0434 O   0  0  0  0  0  0  0  0  0  0  0  0
  2  1  1  6
  3  4  1  0
  3  2  1  0
  4  8  1  0
  5  4  2  0
  6  7  2  0
  6  2  1  0
  9  6  1  0
 10 14  1  0
 10  9  1  0
 10 11  1  1
 12 11  1  0
 13 12  2  0
 14 17  1  0
 15 14  2  0
 16 12  1  0
 17 18  1  0
 18 21  1  0
 18 19  1  6
 20 19  1  0
 21 22  2  0
 21 23  1  0
M  END
$$$$
