DDC.pdb
     RDKit          3D

 23 22  0  0  1  0  0  0  0  0999 V2000
   14.2998   -9.6849  -11.8170 N   0  0  0  0  0  0  0  0  0  0  0  0
   15.2636   -9.5340  -10.7550 C   0  0  1  0  0  0  0  0  0  0  0  0
   16.1795  -10.7141  -10.7737 C   0  0  0  0  0  0  0  0  0  0  0  0
   15.3754  -11.9316  -10.5997 C   0  0  0  0  0  0  0  0  0  0  0  0
   15.6035  -12.9373  -11.2893 O   0  0  0  0  0  0  0  0  0  0  0  0
   15.9471   -8.2264  -10.7937 C   0  0  0  0  0  0  0  0  0  0  0  0
   16.3312   -7.8107  -11.9169 O   0  0  0  0  0  0  0  0  0  0  0  0
   14.3626  -11.9635   -9.6688 O   0  0  0  0  0  0  0  0  0  0  0  0
   16.1648   -7.4650   -9.6175 N   0  0  0  0  0  0  0  0  0  0  0  0
   16.7539   -6.1459   -9.6177 C   0  0  1  0  0  0  0  0  0  0  0  0
   16.2649   -5.2582   -8.5310 C   0  0  0  0  0  0  0  0  0  0  0  0
   14.8337   -4.9400   -8.7028 C   0  0  0  0  0  0  0  0  0  0  0  0
   14.0667   -5.0057   -7.7319 O   0  0  0  0  0  0  0  0  0  0  0  0
   18.2303   -6.1987   -9.7094 C   0  0  0  0  0  0  0  0  0  0  0  0
   18.9033   -6.6174   -8.7503 O   0  0  0  0  0  0  0  0  0  0  0  0
   14.3542   -4.5716   -9.9373 O   0  0  0  0  0  0  0  0  0  0  0  0
   18.8842   -5.7754  -10.8829 N   0  0  0  0  0  0  0  0  0  0  0  0
   20.3194   -5.8446  -11.0810 C   0  0  1  0  0  0  0  0  0  0  0  0
   20.6838   -7.3141  -11.0097 C   0  0  0  0  0  0  0  0  0  0  0  0
   20.2476   -8.1625  -12.5428 S   0  0  0  0  0  0  0  0  0  0  0  0
   20.7704   -5.1946  -12.3111 C   0  0  0  0  0  0  0  0  0  0  0  0
   19.9478   -4.8970  -13.2058 O   0  0  0  0  0  0  0  0  0  0  0  0
   22.1064   -4.9107  -12.4808 O   0  0  0  0  0  0  0  0  0  0  0  0
  2  1  1  6
  3  4  1  0
  3  2  1  0
  4  8  1  0
  5  4  2  0
  6  7  2  0
  6  2  1  0
  9  6  1  0
 10 14  1  0
 10  9  1  0
 10 11  1  1
 12 11  1  0
 13 12  2  0
 14 17  1  0
 15 14  2  0
 16 12  1  0
 17 18  1  0
 18 21  1  0
 18 19  1  6
 20 19  1  0
 21 22  2  0
 21 23  1  0
M  END
$$$$
