LQT.pdb
     RDKit          3D

 25 24  0  0  1  0  0  0  0  0999 V2000
   15.8835  -16.0611  -15.3533 C   0  0  0  0  0  0  0  0  0  0  0  0
   17.3410  -16.3322  -15.7045 C   0  0  2  0  0  0  0  0  0  0  0  0
   17.8137  -17.4421  -14.8190 C   0  0  0  0  0  0  0  0  0  0  0  0
   18.0970  -15.0579  -15.4964 C   0  0  0  0  0  0  0  0  0  0  0  0
   18.3685  -14.4128  -16.8165 C   0  0  2  0  0  0  0  0  0  0  0  0
   19.2475  -15.2140  -17.6295 N   0  0  0  0  0  0  0  0  0  0  0  0
   18.9317  -13.0454  -16.6190 C   0  0  0  0  0  0  0  0  0  0  0  0
   20.1402  -12.7905  -16.8710 O   0  0  0  0  0  0  0  0  0  0  0  0
   19.9518   -8.1582  -19.0055 N   0  0  0  0  0  0  0  0  0  0  0  0
   20.8585   -9.1671  -18.5977 C   0  0  0  0  0  0  0  0  0  0  0  0
   22.0767   -9.0850  -18.9328 O   0  0  0  0  0  0  0  0  0  0  0  0
   20.3780  -10.3031  -17.7875 C   0  0  0  0  0  0  0  0  0  0  0  0
   18.8847  -10.2078  -17.5493 C   0  0  0  0  0  0  0  0  0  0  0  0
   18.5724  -10.6065  -16.1245 C   0  0  2  0  0  0  0  0  0  0  0  0
   18.1213  -12.0062  -16.1443 N   0  0  0  0  0  0  0  0  0  0  0  0
   17.4863   -9.7368  -15.5841 C   0  0  0  0  0  0  0  0  0  0  0  0
   16.3182   -9.8830  -16.0069 O   0  0  0  0  0  0  0  0  0  0  0  0
   15.7947   -9.8609  -12.6903 C   0  0  0  0  0  0  0  0  0  0  0  0
   16.4395   -8.4971  -12.5642 C   0  0  1  0  0  0  0  0  0  0  0  0
   17.6853   -8.5754  -11.9086 O   0  0  0  0  0  0  0  0  0  0  0  0
   16.6737   -7.9751  -13.9808 C   0  0  2  0  0  0  0  0  0  0  0  0
   17.7303   -8.7444  -14.6031 N   0  0  0  0  0  0  0  0  0  0  0  0
   17.0604   -6.5443  -13.8855 C   0  0  0  0  0  0  0  0  0  0  0  0
   18.2183   -6.1726  -14.2042 O   0  0  0  0  0  0  0  0  0  0  0  0
   16.1823   -5.5624  -13.4487 O   0  0  0  0  0  0  0  0  0  0  0  0
  2  1  1  1
  2  3  1  0
  4  5  1  0
  4  2  1  0
  5  6  1  1
  7  8  2  0
  7  5  1  0
  9 10  1  0
 10 11  2  0
 12 10  1  0
 12 13  1  0
 14 13  1  6
 14 15  1  0
 15  7  1  0
 16 17  2  0
 16 14  1  0
 19 18  1  6
 20 19  1  0
 21 19  1  0
 21 22  1  1
 22 16  1  0
 23 21  1  0
 24 23  2  0
 25 23  1  0
M  END
$$$$
