LQT.pdb
     RDKit          3D

 25 24  0  0  1  0  0  0  0  0999 V2000
   27.2288  -14.4145  -15.8726 C   0  0  0  0  0  0  0  0  0  0  0  0
   25.9953  -15.0816  -16.4681 C   0  0  2  0  0  0  0  0  0  0  0  0
   26.4606  -15.9643  -17.5834 C   0  0  0  0  0  0  0  0  0  0  0  0
   25.0762  -13.9947  -16.9292 C   0  0  0  0  0  0  0  0  0  0  0  0
   24.5782  -13.2233  -15.7505 C   0  0  2  0  0  0  0  0  0  0  0  0
   24.2375  -14.0909  -14.6520 N   0  0  0  0  0  0  0  0  0  0  0  0
   23.4106  -12.3796  -16.1391 C   0  0  0  0  0  0  0  0  0  0  0  0
   23.4433  -11.6453  -17.1632 O   0  0  0  0  0  0  0  0  0  0  0  0
   17.5354  -13.2241  -14.0463 N   0  0  0  0  0  0  0  0  0  0  0  0
   17.4147  -12.0396  -14.8135 C   0  0  0  0  0  0  0  0  0  0  0  0
   16.2770  -11.5036  -14.9604 O   0  0  0  0  0  0  0  0  0  0  0  0
   18.6121  -11.4408  -15.4342 C   0  0  0  0  0  0  0  0  0  0  0  0
   19.8557  -12.2378  -15.0963 C   0  0  0  0  0  0  0  0  0  0  0  0
   21.0655  -11.5767  -15.7174 C   0  0  2  0  0  0  0  0  0  0  0  0
   22.2424  -12.3858  -15.3662 N   0  0  0  0  0  0  0  0  0  0  0  0
   21.2233  -10.1973  -15.1694 C   0  0  0  0  0  0  0  0  0  0  0  0
   21.5980  -10.0486  -13.9855 O   0  0  0  0  0  0  0  0  0  0  0  0
   23.0850   -7.2540  -16.8162 C   0  0  0  0  0  0  0  0  0  0  0  0
   21.6695   -6.7970  -16.5351 C   0  0  1  0  0  0  0  0  0  0  0  0
   20.8489   -6.9335  -17.6735 O   0  0  0  0  0  0  0  0  0  0  0  0
   21.1146   -7.6965  -15.4319 C   0  0  2  0  0  0  0  0  0  0  0  0
   20.9625   -9.0413  -15.9457 N   0  0  0  0  0  0  0  0  0  0  0  0
   19.7995   -7.1498  -15.0108 C   0  0  0  0  0  0  0  0  0  0  0  0
   19.7284   -6.0495  -14.4070 O   0  0  0  0  0  0  0  0  0  0  0  0
   18.6043   -7.8110  -15.2566 O   0  0  0  0  0  0  0  0  0  0  0  0
  2  1  1  6
  2  3  1  0
  4  5  1  0
  4  2  1  0
  5  6  1  1
  7  8  2  0
  7  5  1  0
  9 10  1  0
 10 11  2  0
 12 10  1  0
 12 13  1  0
 14 13  1  1
 14 15  1  0
 15  7  1  0
 16 17  2  0
 16 14  1  0
 19 18  1  6
 20 19  1  0
 21 19  1  0
 21 22  1  6
 22 16  1  0
 23 21  1  0
 24 23  2  0
 25 23  1  0
M  END
$$$$
