LQT.pdb
     RDKit          3D

 25 24  0  0  1  0  0  0  0  0999 V2000
   15.9749  -12.5572  -18.0218 C   0  0  0  0  0  0  0  0  0  0  0  0
   17.0386  -12.9239  -16.9947 C   0  0  2  0  0  0  0  0  0  0  0  0
   16.5221  -14.0927  -16.2158 C   0  0  0  0  0  0  0  0  0  0  0  0
   17.2765  -11.7158  -16.1445 C   0  0  0  0  0  0  0  0  0  0  0  0
   17.7378  -10.5813  -17.0004 C   0  0  2  0  0  0  0  0  0  0  0  0
   19.0120  -10.8601  -17.6122 N   0  0  0  0  0  0  0  0  0  0  0  0
   17.7990   -9.3220  -16.2027 C   0  0  0  0  0  0  0  0  0  0  0  0
   16.7962   -8.8981  -15.5673 O   0  0  0  0  0  0  0  0  0  0  0  0
   23.1027   -6.6940  -14.1167 N   0  0  0  0  0  0  0  0  0  0  0  0
   22.1033   -5.8357  -13.5963 C   0  0  0  0  0  0  0  0  0  0  0  0
   22.4341   -4.8859  -12.8272 O   0  0  0  0  0  0  0  0  0  0  0  0
   20.6882   -6.0541  -13.9534 C   0  0  0  0  0  0  0  0  0  0  0  0
   20.5391   -7.2418  -14.8824 C   0  0  0  0  0  0  0  0  0  0  0  0
   19.1007   -7.3535  -15.3351 C   0  0  2  0  0  0  0  0  0  0  0  0
   18.9837   -8.5769  -16.1429 N   0  0  0  0  0  0  0  0  0  0  0  0
   18.7400   -6.1671  -16.1660 C   0  0  0  0  0  0  0  0  0  0  0  0
   19.2139   -6.0607  -17.3186 O   0  0  0  0  0  0  0  0  0  0  0  0
   15.5056   -3.8609  -15.0654 C   0  0  0  0  0  0  0  0  0  0  0  0
   15.9594   -3.9030  -16.5090 C   0  0  1  0  0  0  0  0  0  0  0  0
   15.6029   -2.7241  -17.1952 O   0  0  0  0  0  0  0  0  0  0  0  0
   17.4832   -4.0124  -16.5009 C   0  0  2  0  0  0  0  0  0  0  0  0
   17.8746   -5.1494  -15.6948 N   0  0  0  0  0  0  0  0  0  0  0  0
   18.0313   -2.7566  -15.9280 C   0  0  0  0  0  0  0  0  0  0  0  0
   18.5548   -2.7506  -14.7850 O   0  0  0  0  0  0  0  0  0  0  0  0
   17.9955   -1.5484  -16.6098 O   0  0  0  0  0  0  0  0  0  0  0  0
  2  1  1  6
  2  3  1  0
  4  5  1  0
  4  2  1  0
  5  6  1  1
  7  8  2  0
  7  5  1  0
  9 10  1  0
 10 11  2  0
 12 10  1  0
 12 13  1  0
 14 13  1  6
 14 15  1  0
 15  7  1  0
 16 17  2  0
 16 14  1  0
 19 18  1  1
 20 19  1  0
 21 19  1  0
 21 22  1  1
 22 16  1  0
 23 21  1  0
 24 23  2  0
 25 23  1  0
M  END
$$$$
