LQT.pdb
     RDKit          3D

 25 24  0  0  1  0  0  0  0  0999 V2000
   24.4348  -24.8067  -18.7226 C   0  0  0  0  0  0  0  0  0  0  0  0
   25.3856  -23.9387  -17.9079 C   0  0  2  0  0  0  0  0  0  0  0  0
   25.5504  -22.6461  -18.6438 C   0  0  0  0  0  0  0  0  0  0  0  0
   26.6688  -24.6943  -17.7617 C   0  0  0  0  0  0  0  0  0  0  0  0
   26.4234  -25.9613  -17.0087 C   0  0  2  0  0  0  0  0  0  0  0  0
   26.0164  -25.7032  -15.6511 N   0  0  0  0  0  0  0  0  0  0  0  0
   27.6385  -26.8265  -17.0406 C   0  0  0  0  0  0  0  0  0  0  0  0
   28.4049  -26.9188  -16.0441 O   0  0  0  0  0  0  0  0  0  0  0  0
   28.5939  -31.5116  -15.2618 N   0  0  0  0  0  0  0  0  0  0  0  0
   29.7192  -31.6008  -16.1174 C   0  0  0  0  0  0  0  0  0  0  0  0
   30.5295  -32.5647  -15.9852 O   0  0  0  0  0  0  0  0  0  0  0  0
   29.9382  -30.5729  -17.1533 C   0  0  0  0  0  0  0  0  0  0  0  0
   28.8419  -29.5274  -17.1219 C   0  0  0  0  0  0  0  0  0  0  0  0
   29.0717  -28.5191  -18.2251 C   0  0  2  0  0  0  0  0  0  0  0  0
   27.9561  -27.5614  -18.1900 N   0  0  0  0  0  0  0  0  0  0  0  0
   29.0954  -29.2137  -19.5461 C   0  0  0  0  0  0  0  0  0  0  0  0
   28.0551  -29.7675  -19.9647 O   0  0  0  0  0  0  0  0  0  0  0  0
   29.8180  -27.7845  -22.8622 C   0  0  0  0  0  0  0  0  0  0  0  0
   30.8564  -28.8684  -22.6667 C   0  0  1  0  0  0  0  0  0  0  0  0
   32.0522  -28.3454  -22.1330 O   0  0  0  0  0  0  0  0  0  0  0  0
   30.2815  -29.8702  -21.6667 C   0  0  2  0  0  0  0  0  0  0  0  0
   30.2608  -29.2697  -20.3496 N   0  0  0  0  0  0  0  0  0  0  0  0
   31.1484  -31.0760  -21.6738 C   0  0  0  0  0  0  0  0  0  0  0  0
   31.1537  -31.8536  -22.6616 O   0  0  0  0  0  0  0  0  0  0  0  0
   31.9812  -31.4016  -20.6124 O   0  0  0  0  0  0  0  0  0  0  0  0
  2  1  1  6
  2  3  1  0
  4  5  1  0
  4  2  1  0
  5  6  1  1
  7  8  2  0
  7  5  1  0
  9 10  1  0
 10 11  2  0
 12 10  1  0
 12 13  1  0
 14 13  1  1
 14 15  1  0
 15  7  1  0
 16 17  2  0
 16 14  1  0
 19 18  1  1
 20 19  1  0
 21 19  1  0
 21 22  1  1
 22 16  1  0
 23 21  1  0
 24 23  2  0
 25 23  1  0
M  END
$$$$
