LQT.pdb
     RDKit          3D

 25 24  0  0  1  0  0  0  0  0999 V2000
   43.8243  -16.8013  -10.0778 C   0  0  0  0  0  0  0  0  0  0  0  0
   43.8595  -16.7843   -8.5548 C   0  0  2  0  0  0  0  0  0  0  0  0
   43.0209  -17.9278   -8.0768 C   0  0  0  0  0  0  0  0  0  0  0  0
   43.3400  -15.4538   -8.1090 C   0  0  0  0  0  0  0  0  0  0  0  0
   44.2049  -14.3663   -8.6585 C   0  0  2  0  0  0  0  0  0  0  0  0
   45.5819  -14.5338   -8.2695 N   0  0  0  0  0  0  0  0  0  0  0  0
   43.6936  -13.0316   -8.2306 C   0  0  0  0  0  0  0  0  0  0  0  0
   42.4853  -12.7097   -8.3897 O   0  0  0  0  0  0  0  0  0  0  0  0
   46.6774   -9.6075   -4.0455 N   0  0  0  0  0  0  0  0  0  0  0  0
   45.5316  -10.3739   -3.7199 C   0  0  0  0  0  0  0  0  0  0  0  0
   45.2780  -10.6341   -2.5070 O   0  0  0  0  0  0  0  0  0  0  0  0
   44.6444  -10.8618   -4.7934 C   0  0  0  0  0  0  0  0  0  0  0  0
   45.0467  -10.2846   -6.1354 C   0  0  0  0  0  0  0  0  0  0  0  0
   44.0931  -10.7718   -7.2029 C   0  0  2  0  0  0  0  0  0  0  0  0
   44.5543  -12.0990   -7.6375 N   0  0  0  0  0  0  0  0  0  0  0  0
   44.1097   -9.8307   -8.3614 C   0  0  0  0  0  0  0  0  0  0  0  0
   45.0924   -9.8302   -9.1351 O   0  0  0  0  0  0  0  0  0  0  0  0
   42.6568   -9.4627  -11.4891 C   0  0  0  0  0  0  0  0  0  0  0  0
   42.1113   -8.2571  -10.7541 C   0  0  1  0  0  0  0  0  0  0  0  0
   40.8649   -8.5382  -10.1578 O   0  0  0  0  0  0  0  0  0  0  0  0
   43.1071   -7.9135   -9.6474 C   0  0  2  0  0  0  0  0  0  0  0  0
   43.0462   -8.9311   -8.6196 N   0  0  0  0  0  0  0  0  0  0  0  0
   42.7349   -6.5887   -9.0890 C   0  0  0  0  0  0  0  0  0  0  0  0
   42.2734   -6.4931   -7.9235 O   0  0  0  0  0  0  0  0  0  0  0  0
   42.8740   -5.4105   -9.8091 O   0  0  0  0  0  0  0  0  0  0  0  0
  2  1  1  6
  2  3  1  0
  4  5  1  0
  4  2  1  0
  5  6  1  1
  7  8  2  0
  7  5  1  0
  9 10  1  0
 10 11  2  0
 12 10  1  0
 12 13  1  0
 14 13  1  1
 14 15  1  0
 15  7  1  0
 16 17  2  0
 16 14  1  0
 19 18  1  1
 20 19  1  0
 21 19  1  0
 21 22  1  1
 22 16  1  0
 23 21  1  0
 24 23  2  0
 25 23  1  0
M  END
$$$$
