LQT.pdb
     RDKit          3D

 25 24  0  0  1  0  0  0  0  0999 V2000
   37.3760   -5.3548   -3.1937 C   0  0  0  0  0  0  0  0  0  0  0  0
   37.6282   -4.5014   -4.4303 C   0  0  2  0  0  0  0  0  0  0  0  0
   36.3012   -3.9928   -4.8990 C   0  0  0  0  0  0  0  0  0  0  0  0
   38.3109   -5.3677   -5.4414 C   0  0  0  0  0  0  0  0  0  0  0  0
   39.6078   -5.8612   -4.8872 C   0  0  2  0  0  0  0  0  0  0  0  0
   40.4545   -4.7744   -4.4662 N   0  0  0  0  0  0  0  0  0  0  0  0
   40.3067   -6.7180   -5.8889 C   0  0  0  0  0  0  0  0  0  0  0  0
   40.9566   -6.2141   -6.8442 O   0  0  0  0  0  0  0  0  0  0  0  0
   43.6805  -11.1210   -5.5025 N   0  0  0  0  0  0  0  0  0  0  0  0
   43.1520  -11.6103   -6.7222 C   0  0  0  0  0  0  0  0  0  0  0  0
   43.8776  -12.3232   -7.4761 O   0  0  0  0  0  0  0  0  0  0  0  0
   41.7638  -11.2867   -7.1040 C   0  0  0  0  0  0  0  0  0  0  0  0
   41.1359  -10.3299   -6.1109 C   0  0  0  0  0  0  0  0  0  0  0  0
   40.8878   -8.9965   -6.7794 C   0  0  2  0  0  0  0  0  0  0  0  0
   40.2545   -8.1142   -5.7877 N   0  0  0  0  0  0  0  0  0  0  0  0
   39.9733   -9.1793   -7.9449 C   0  0  0  0  0  0  0  0  0  0  0  0
   38.8279   -9.6451   -7.7566 O   0  0  0  0  0  0  0  0  0  0  0  0
   38.4286   -6.8724  -10.3276 C   0  0  0  0  0  0  0  0  0  0  0  0
   39.3229   -7.7546  -11.1722 C   0  0  1  0  0  0  0  0  0  0  0  0
   40.5924   -7.1706  -11.3606 O   0  0  0  0  0  0  0  0  0  0  0  0
   39.5060   -9.0691  -10.4155 C   0  0  2  0  0  0  0  0  0  0  0  0
   40.3567   -8.8425   -9.2664 N   0  0  0  0  0  0  0  0  0  0  0  0
   40.1322  -10.0484  -11.3399 C   0  0  0  0  0  0  0  0  0  0  0  0
   41.3198  -10.4222  -11.1662 O   0  0  0  0  0  0  0  0  0  0  0  0
   39.4536  -10.5915  -12.4219 O   0  0  0  0  0  0  0  0  0  0  0  0
  2  1  1  1
  2  3  1  0
  4  5  1  0
  4  2  1  0
  5  6  1  6
  7  8  2  0
  7  5  1  0
  9 10  1  0
 10 11  2  0
 12 10  1  0
 12 13  1  0
 14 13  1  1
 14 15  1  0
 15  7  1  0
 16 17  2  0
 16 14  1  0
 19 18  1  1
 20 19  1  0
 21 19  1  0
 21 22  1  1
 22 16  1  0
 23 21  1  0
 24 23  2  0
 25 23  1  0
M  END
$$$$
