LQT.pdb
     RDKit          3D

 25 24  0  0  1  0  0  0  0  0999 V2000
   26.0802  -16.2002  -14.2871 C   0  0  0  0  0  0  0  0  0  0  0  0
   26.3847  -16.4694  -15.7554 C   0  0  2  0  0  0  0  0  0  0  0  0
   27.7237  -15.8696  -16.0502 C   0  0  0  0  0  0  0  0  0  0  0  0
   25.2819  -15.8587  -16.5614 C   0  0  0  0  0  0  0  0  0  0  0  0
   23.9838  -16.5117  -16.2137 C   0  0  2  0  0  0  0  0  0  0  0  0
   24.0114  -17.9270  -16.4816 N   0  0  0  0  0  0  0  0  0  0  0  0
   22.8616  -15.8570  -16.9472 C   0  0  0  0  0  0  0  0  0  0  0  0
   22.7309  -15.9825  -18.1946 O   0  0  0  0  0  0  0  0  0  0  0  0
   17.2573  -15.5399  -14.9422 N   0  0  0  0  0  0  0  0  0  0  0  0
   17.9601  -16.5346  -15.6652 C   0  0  0  0  0  0  0  0  0  0  0  0
   17.5311  -17.7258  -15.6673 O   0  0  0  0  0  0  0  0  0  0  0  0
   19.1836  -16.1763  -16.4085 C   0  0  0  0  0  0  0  0  0  0  0  0
   19.5424  -14.7197  -16.1950 C   0  0  0  0  0  0  0  0  0  0  0  0
   20.8150  -14.3962  -16.9447 C   0  0  2  0  0  0  0  0  0  0  0  0
   21.9207  -15.0811  -16.2580 N   0  0  0  0  0  0  0  0  0  0  0  0
   21.0497  -12.9222  -16.9271 C   0  0  0  0  0  0  0  0  0  0  0  0
   21.5081  -12.3881  -15.8932 O   0  0  0  0  0  0  0  0  0  0  0  0
   21.6490   -8.7142  -19.3479 C   0  0  0  0  0  0  0  0  0  0  0  0
   21.4537  -10.2140  -19.4112 C   0  0  1  0  0  0  0  0  0  0  0  0
   22.6650  -10.8795  -19.6903 O   0  0  0  0  0  0  0  0  0  0  0  0
   20.9636  -10.6644  -18.0360 C   0  0  2  0  0  0  0  0  0  0  0  0
   20.7707  -12.0991  -18.0458 N   0  0  0  0  0  0  0  0  0  0  0  0
   19.6812   -9.9703  -17.7548 C   0  0  0  0  0  0  0  0  0  0  0  0
   19.6744   -8.7846  -17.3371 O   0  0  0  0  0  0  0  0  0  0  0  0
   18.4480  -10.5809  -17.9346 O   0  0  0  0  0  0  0  0  0  0  0  0
  2  1  1  1
  2  3  1  0
  4  5  1  0
  4  2  1  0
  5  6  1  6
  7  8  2  0
  7  5  1  0
  9 10  1  0
 10 11  2  0
 12 10  1  0
 12 13  1  0
 14 13  1  1
 14 15  1  0
 15  7  1  0
 16 17  2  0
 16 14  1  0
 19 18  1  1
 20 19  1  0
 21 19  1  0
 21 22  1  6
 22 16  1  0
 23 21  1  0
 24 23  2  0
 25 23  1  0
M  END
$$$$
