LQT.pdb
     RDKit          3D

 25 24  0  0  1  0  0  0  0  0999 V2000
   18.8123  -15.8618  -17.9498 C   0  0  0  0  0  0  0  0  0  0  0  0
   17.4361  -15.2904  -18.2666 C   0  0  2  0  0  0  0  0  0  0  0  0
   17.0231  -15.8347  -19.5980 C   0  0  0  0  0  0  0  0  0  0  0  0
   17.5569  -13.7990  -18.2584 C   0  0  0  0  0  0  0  0  0  0  0  0
   18.1785  -13.3519  -16.9754 C   0  0  2  0  0  0  0  0  0  0  0  0
   17.5177  -13.9310  -15.8336 N   0  0  0  0  0  0  0  0  0  0  0  0
   18.1741  -11.8624  -16.8890 C   0  0  0  0  0  0  0  0  0  0  0  0
   18.7161  -11.1517  -17.7779 O   0  0  0  0  0  0  0  0  0  0  0  0
   13.7220   -8.9412  -13.8792 N   0  0  0  0  0  0  0  0  0  0  0  0
   13.7252   -9.2111  -15.2697 C   0  0  0  0  0  0  0  0  0  0  0  0
   12.6318   -9.2144  -15.9081 O   0  0  0  0  0  0  0  0  0  0  0  0
   14.9992   -9.4856  -15.9621 C   0  0  0  0  0  0  0  0  0  0  0  0
   16.1653   -9.4323  -14.9960 C   0  0  0  0  0  0  0  0  0  0  0  0
   17.4474   -9.7520  -15.7313 C   0  0  2  0  0  0  0  0  0  0  0  0
   17.5617  -11.2163  -15.8074 N   0  0  0  0  0  0  0  0  0  0  0  0
   18.6113   -9.1962  -14.9801 C   0  0  0  0  0  0  0  0  0  0  0  0
   18.8638   -9.6303  -13.8346 O   0  0  0  0  0  0  0  0  0  0  0  0
   22.1083   -9.4915  -15.0897 C   0  0  0  0  0  0  0  0  0  0  0  0
   21.8681   -8.0439  -15.4613 C   0  0  1  0  0  0  0  0  0  0  0  0
   21.7261   -7.8870  -16.8553 O   0  0  0  0  0  0  0  0  0  0  0  0
   20.5619   -7.6165  -14.7939 C   0  0  2  0  0  0  0  0  0  0  0  0
   19.4473   -8.1879  -15.5198 N   0  0  0  0  0  0  0  0  0  0  0  0
   20.4946   -6.1332  -14.8229 C   0  0  0  0  0  0  0  0  0  0  0  0
   19.6449   -5.5458  -15.5393 O   0  0  0  0  0  0  0  0  0  0  0  0
   21.3484   -5.3336  -14.0760 O   0  0  0  0  0  0  0  0  0  0  0  0
  2  1  1  6
  2  3  1  0
  4  5  1  0
  4  2  1  0
  5  6  1  1
  7  8  2  0
  7  5  1  0
  9 10  1  0
 10 11  2  0
 12 10  1  0
 12 13  1  0
 14 13  1  1
 14 15  1  0
 15  7  1  0
 16 17  2  0
 16 14  1  0
 19 18  1  6
 20 19  1  0
 21 19  1  0
 21 22  1  6
 22 16  1  0
 23 21  1  0
 24 23  2  0
 25 23  1  0
M  END
$$$$
