LQT.pdb
     RDKit          3D

 25 24  0  0  1  0  0  0  0  0999 V2000
   27.1234  -18.2216  -18.2210 C   0  0  0  0  0  0  0  0  0  0  0  0
   27.8326  -19.0783  -17.1797 C   0  0  2  0  0  0  0  0  0  0  0  0
   28.9633  -19.7742  -17.8702 C   0  0  0  0  0  0  0  0  0  0  0  0
   26.8220  -20.0264  -16.6152 C   0  0  0  0  0  0  0  0  0  0  0  0
   25.6848  -19.2570  -16.0258 C   0  0  2  0  0  0  0  0  0  0  0  0
   26.1432  -18.2648  -15.0873 N   0  0  0  0  0  0  0  0  0  0  0  0
   24.7110  -20.1849  -15.3802 C   0  0  0  0  0  0  0  0  0  0  0  0
   24.2533  -21.1866  -15.9933 O   0  0  0  0  0  0  0  0  0  0  0  0
   24.3535  -20.9071   -9.2192 N   0  0  0  0  0  0  0  0  0  0  0  0
   25.3834  -21.2566  -10.1268 C   0  0  0  0  0  0  0  0  0  0  0  0
   26.5276  -21.5685   -9.6835 O   0  0  0  0  0  0  0  0  0  0  0  0
   25.1159  -21.2545  -11.5781 C   0  0  0  0  0  0  0  0  0  0  0  0
   23.7120  -20.7656  -11.8714 C   0  0  0  0  0  0  0  0  0  0  0  0
   23.4221  -20.9136  -13.3480 C   0  0  2  0  0  0  0  0  0  0  0  0
   24.2806  -19.9596  -14.0663 N   0  0  0  0  0  0  0  0  0  0  0  0
   21.9879  -20.5971  -13.6144 C   0  0  0  0  0  0  0  0  0  0  0  0
   21.5490  -19.4611  -13.3292 O   0  0  0  0  0  0  0  0  0  0  0  0
   20.0617  -21.0518  -16.8813 C   0  0  0  0  0  0  0  0  0  0  0  0
   19.3341  -21.8477  -15.8190 C   0  0  1  0  0  0  0  0  0  0  0  0
   19.7304  -23.2008  -15.8279 O   0  0  0  0  0  0  0  0  0  0  0  0
   19.7100  -21.2457  -14.4661 C   0  0  2  0  0  0  0  0  0  0  0  0
   21.0983  -21.5420  -14.1824 N   0  0  0  0  0  0  0  0  0  0  0  0
   18.8291  -21.8487  -13.4337 C   0  0  0  0  0  0  0  0  0  0  0  0
   17.6174  -21.5227  -13.3578 O   0  0  0  0  0  0  0  0  0  0  0  0
   19.2874  -22.7845  -12.5170 O   0  0  0  0  0  0  0  0  0  0  0  0
  2  1  1  6
  2  3  1  0
  4  5  1  0
  4  2  1  0
  5  6  1  1
  7  8  2  0
  7  5  1  0
  9 10  1  0
 10 11  2  0
 12 10  1  0
 12 13  1  0
 14 13  1  1
 14 15  1  0
 15  7  1  0
 16 17  2  0
 16 14  1  0
 19 18  1  6
 20 19  1  0
 21 19  1  0
 21 22  1  1
 22 16  1  0
 23 21  1  0
 24 23  2  0
 25 23  1  0
M  END
$$$$
