LQT.pdb
     RDKit          3D

 25 24  0  0  1  0  0  0  0  0999 V2000
   29.0427  -17.1080  -18.3580 C   0  0  0  0  0  0  0  0  0  0  0  0
   27.7431  -16.4662  -18.8272 C   0  0  2  0  0  0  0  0  0  0  0  0
   28.0854  -15.1173  -19.3774 C   0  0  0  0  0  0  0  0  0  0  0  0
   26.8247  -16.3990  -17.6478 C   0  0  0  0  0  0  0  0  0  0  0  0
   26.6971  -17.7543  -17.0319 C   0  0  2  0  0  0  0  0  0  0  0  0
   26.3553  -18.7540  -18.0113 N   0  0  0  0  0  0  0  0  0  0  0  0
   25.6925  -17.7298  -15.9291 C   0  0  0  0  0  0  0  0  0  0  0  0
   25.7900  -16.9174  -14.9702 O   0  0  0  0  0  0  0  0  0  0  0  0
   19.8302  -18.4822  -16.7491 N   0  0  0  0  0  0  0  0  0  0  0  0
   20.6365  -17.3178  -16.7696 C   0  0  0  0  0  0  0  0  0  0  0  0
   20.1947  -16.2614  -17.3100 O   0  0  0  0  0  0  0  0  0  0  0  0
   21.9814  -17.3443  -16.1628 C   0  0  0  0  0  0  0  0  0  0  0  0
   22.2461  -18.6739  -15.4860 C   0  0  0  0  0  0  0  0  0  0  0  0
   23.6181  -18.6547  -14.8505 C   0  0  2  0  0  0  0  0  0  0  0  0
   24.6094  -18.6181  -15.9363 N   0  0  0  0  0  0  0  0  0  0  0  0
   23.8130  -19.8892  -14.0344 C   0  0  0  0  0  0  0  0  0  0  0  0
   24.1389  -20.9539  -14.6041 O   0  0  0  0  0  0  0  0  0  0  0  0
   24.8975  -19.7996  -10.1280 C   0  0  0  0  0  0  0  0  0  0  0  0
   24.9851  -21.0542  -10.9704 C   0  0  1  0  0  0  0  0  0  0  0  0
   25.0215  -22.2123  -10.1669 O   0  0  0  0  0  0  0  0  0  0  0  0
   23.7259  -21.1078  -11.8340 C   0  0  2  0  0  0  0  0  0  0  0  0
   23.6416  -19.9005  -12.6282 N   0  0  0  0  0  0  0  0  0  0  0  0
   22.5527  -21.2173  -10.9300 C   0  0  0  0  0  0  0  0  0  0  0  0
   21.7348  -20.2683  -10.8263 O   0  0  0  0  0  0  0  0  0  0  0  0
   22.3022  -22.3497  -10.1677 O   0  0  0  0  0  0  0  0  0  0  0  0
  2  1  1  1
  2  3  1  0
  4  5  1  0
  4  2  1  0
  5  6  1  6
  7  8  2  0
  7  5  1  0
  9 10  1  0
 10 11  2  0
 12 10  1  0
 12 13  1  0
 14 13  1  6
 14 15  1  0
 15  7  1  0
 16 17  2  0
 16 14  1  0
 19 18  1  1
 20 19  1  0
 21 19  1  0
 21 22  1  1
 22 16  1  0
 23 21  1  0
 24 23  2  0
 25 23  1  0
M  END
$$$$
