IWQ.pdb
     RDKit          3D

 32 33  0  0  1  0  0  0  0  0999 V2000
   27.1016  -22.4380  -20.3311 C   0  0  0  0  0  0  0  0  0  0  0  0
   28.0820  -22.4782  -19.1777 C   0  0  0  0  0  0  0  0  0  0  0  0
   27.3150  -22.5304  -17.9048 C   0  0  2  0  0  0  0  0  0  0  0  0
   26.3830  -21.3531  -17.8216 C   0  0  0  0  0  0  0  0  0  0  0  0
   28.1702  -22.6766  -16.6729 C   0  0  2  0  0  0  0  0  0  0  0  0
   28.9256  -23.9072  -16.8340 N   0  0  0  0  0  0  0  0  0  0  0  0
   27.4243  -22.6288  -15.4238 C   0  0  0  0  0  0  0  0  0  0  0  0
   26.6095  -23.5271  -15.1321 O   0  0  0  0  0  0  0  0  0  0  0  0
   27.6087  -21.5626  -14.5155 N   0  0  0  0  0  0  0  0  0  0  0  0
   26.8696  -21.4341  -13.2776 C   0  0  1  0  0  0  0  0  0  0  0  0
   27.4824  -20.3843  -12.3963 C   0  0  0  0  0  0  0  0  0  0  0  0
   26.7714  -20.2868  -11.0965 C   0  0  0  0  0  0  0  0  0  0  0  0
   25.4428  -20.0221  -10.8414 C   0  0  0  0  0  0  0  0  0  0  0  0
   25.2263  -20.0279   -9.5079 N   0  0  0  0  0  0  0  0  0  0  0  0
   26.3766  -20.2898   -8.8588 C   0  0  0  0  0  0  0  0  0  0  0  0
   26.6591  -20.3996   -7.5157 C   0  0  0  0  0  0  0  0  0  0  0  0
   27.9583  -20.6821   -7.1621 C   0  0  0  0  0  0  0  0  0  0  0  0
   28.9500  -20.8501   -8.1325 C   0  0  0  0  0  0  0  0  0  0  0  0
   28.6269  -20.7326   -9.4591 C   0  0  0  0  0  0  0  0  0  0  0  0
   27.3492  -20.4536   -9.8420 C   0  0  0  0  0  0  0  0  0  0  0  0
   25.4579  -21.0148  -13.5743 C   0  0  0  0  0  0  0  0  0  0  0  0
   25.2278  -19.9562  -14.2103 O   0  0  0  0  0  0  0  0  0  0  0  0
   20.9476  -25.1274  -13.9579 N   0  0  0  0  0  0  0  0  0  0  0  0
   20.1075  -23.9620  -14.1100 C   0  0  0  0  0  0  0  0  0  0  0  0
   18.8865  -24.1634  -14.3144 O   0  0  0  0  0  0  0  0  0  0  0  0
   20.7626  -22.6442  -14.0091 C   0  0  0  0  0  0  0  0  0  0  0  0
   22.2127  -22.7797  -13.6873 C   0  0  0  0  0  0  0  0  0  0  0  0
   22.9639  -21.4895  -13.5248 C   0  0  2  0  0  0  0  0  0  0  0  0
   24.3545  -21.7799  -13.1571 N   0  0  0  0  0  0  0  0  0  0  0  0
   22.3305  -20.6138  -12.5102 C   0  0  0  0  0  0  0  0  0  0  0  0
   21.4306  -19.6383  -12.8693 O   0  0  0  0  0  0  0  0  0  0  0  0
   22.6254  -20.7722  -11.3103 O   0  0  0  0  0  0  0  0  0  0  0  0
  2  1  1  0
  3  4  1  1
  3  2  1  0
  5  3  1  0
  5  6  1  6
  7  5  1  0
  7  8  2  0
  9  7  1  0
 10  9  1  0
 10 11  1  1
 12 11  1  0
 13 12  2  0
 14 13  1  0
 15 14  1  0
 15 20  2  0
 16 15  1  0
 17 16  2  0
 17 18  1  0
 18 19  2  0
 19 20  1  0
 20 12  1  0
 21 10  1  0
 22 21  2  0
 23 24  1  0
 24 25  2  0
 24 26  1  0
 26 27  1  0
 28 29  1  0
 28 27  1  1
 29 21  1  0
 30 28  1  0
 31 30  1  0
 32 30  2  0
M  END
$$$$
