IWQ.pdb
     RDKit          3D

 32 33  0  0  1  0  0  0  0  0999 V2000
   27.0856  -19.4839  -18.0666 C   0  0  0  0  0  0  0  0  0  0  0  0
   27.8714  -20.0991  -16.9275 C   0  0  0  0  0  0  0  0  0  0  0  0
   26.9218  -20.4848  -15.8502 C   0  0  2  0  0  0  0  0  0  0  0  0
   26.0152  -19.3283  -15.5304 C   0  0  0  0  0  0  0  0  0  0  0  0
   27.5798  -21.0580  -14.6218 C   0  0  2  0  0  0  0  0  0  0  0  0
   28.4003  -22.1703  -15.0695 N   0  0  0  0  0  0  0  0  0  0  0  0
   26.6470  -21.4299  -13.5680 C   0  0  0  0  0  0  0  0  0  0  0  0
   26.0503  -22.5248  -13.6008 O   0  0  0  0  0  0  0  0  0  0  0  0
   26.3986  -20.5570  -12.4853 N   0  0  0  0  0  0  0  0  0  0  0  0
   25.4996  -20.8748  -11.3962 C   0  0  1  0  0  0  0  0  0  0  0  0
   25.8274  -20.0602  -10.1784 C   0  0  0  0  0  0  0  0  0  0  0  0
   27.1032  -20.5011   -9.5598 C   0  0  0  0  0  0  0  0  0  0  0  0
   28.0751  -21.3418  -10.0588 C   0  0  0  0  0  0  0  0  0  0  0  0
   29.0725  -21.4689   -9.1566 N   0  0  0  0  0  0  0  0  0  0  0  0
   28.7961  -20.7345   -8.0624 C   0  0  0  0  0  0  0  0  0  0  0  0
   29.4973  -20.5445   -6.8928 C   0  0  0  0  0  0  0  0  0  0  0  0
   28.9389  -19.7171   -5.9461 C   0  0  0  0  0  0  0  0  0  0  0  0
   27.7068  -19.0955   -6.1674 C   0  0  0  0  0  0  0  0  0  0  0  0
   27.0410  -19.3112   -7.3456 C   0  0  0  0  0  0  0  0  0  0  0  0
   27.5674  -20.1251   -8.3035 C   0  0  0  0  0  0  0  0  0  0  0  0
   24.0883  -20.5512  -11.7965 C   0  0  0  0  0  0  0  0  0  0  0  0
   23.8339  -19.5069  -12.4466 O   0  0  0  0  0  0  0  0  0  0  0  0
   17.1435  -23.3851  -11.5200 N   0  0  0  0  0  0  0  0  0  0  0  0
   18.5811  -23.4111  -11.3788 C   0  0  0  0  0  0  0  0  0  0  0  0
   19.0953  -24.4870  -10.9899 O   0  0  0  0  0  0  0  0  0  0  0  0
   19.3105  -22.1715  -11.7065 C   0  0  0  0  0  0  0  0  0  0  0  0
   20.7751  -22.3218  -11.4676 C   0  0  0  0  0  0  0  0  0  0  0  0
   21.6179  -21.1365  -11.8421 C   0  0  2  0  0  0  0  0  0  0  0  0
   23.0122  -21.3926  -11.4632 N   0  0  0  0  0  0  0  0  0  0  0  0
   21.1257  -19.8934  -11.2019 C   0  0  0  0  0  0  0  0  0  0  0  0
   20.2669  -19.0432  -11.8576 O   0  0  0  0  0  0  0  0  0  0  0  0
   21.5030  -19.6217  -10.0463 O   0  0  0  0  0  0  0  0  0  0  0  0
  2  1  1  0
  3  4  1  1
  3  2  1  0
  5  3  1  0
  5  6  1  6
  7  5  1  0
  7  8  2  0
  9  7  1  0
 10  9  1  0
 10 11  1  1
 12 11  1  0
 13 12  2  0
 14 13  1  0
 15 14  1  0
 15 20  2  0
 16 15  1  0
 17 16  2  0
 17 18  1  0
 18 19  2  0
 19 20  1  0
 20 12  1  0
 21 10  1  0
 22 21  2  0
 23 24  1  0
 24 25  2  0
 24 26  1  0
 26 27  1  0
 28 29  1  0
 28 27  1  1
 29 21  1  0
 30 28  1  0
 31 30  1  0
 32 30  2  0
M  END
$$$$
