IWQ.pdb
     RDKit          3D

 32 33  0  0  1  0  0  0  0  0999 V2000
   28.6704  -21.8590  -19.6466 C   0  0  0  0  0  0  0  0  0  0  0  0
   29.6045  -21.8369  -18.4549 C   0  0  0  0  0  0  0  0  0  0  0  0
   28.8633  -22.3258  -17.2621 C   0  0  2  0  0  0  0  0  0  0  0  0
   28.3531  -23.7180  -17.5132 C   0  0  0  0  0  0  0  0  0  0  0  0
   27.7815  -21.3936  -16.7812 C   0  0  2  0  0  0  0  0  0  0  0  0
   28.3414  -20.0533  -16.8147 N   0  0  0  0  0  0  0  0  0  0  0  0
   27.2303  -21.7452  -15.4806 C   0  0  0  0  0  0  0  0  0  0  0  0
   26.7890  -22.8914  -15.2630 O   0  0  0  0  0  0  0  0  0  0  0  0
   27.1843  -20.7939  -14.4372 N   0  0  0  0  0  0  0  0  0  0  0  0
   26.5075  -21.0244  -13.1786 C   0  0  1  0  0  0  0  0  0  0  0  0
   26.9352  -20.0178  -12.1501 C   0  0  0  0  0  0  0  0  0  0  0  0
   26.2599  -20.2534  -10.8489 C   0  0  0  0  0  0  0  0  0  0  0  0
   24.9201  -20.4279  -10.5753 C   0  0  0  0  0  0  0  0  0  0  0  0
   24.7479  -20.6141   -9.2484 N   0  0  0  0  0  0  0  0  0  0  0  0
   25.9389  -20.5692   -8.6218 C   0  0  0  0  0  0  0  0  0  0  0  0
   26.2739  -20.7035   -7.2930 C   0  0  0  0  0  0  0  0  0  0  0  0
   27.6057  -20.6072   -6.9621 C   0  0  0  0  0  0  0  0  0  0  0  0
   28.5780  -20.3817   -7.9406 C   0  0  0  0  0  0  0  0  0  0  0  0
   28.2023  -20.2539   -9.2523 C   0  0  0  0  0  0  0  0  0  0  0  0
   26.8912  -20.3443   -9.6127 C   0  0  0  0  0  0  0  0  0  0  0  0
   25.0244  -20.8806  -13.3699 C   0  0  0  0  0  0  0  0  0  0  0  0
   24.5527  -19.8802  -13.9654 O   0  0  0  0  0  0  0  0  0  0  0  0
   21.8721  -26.0408  -13.7906 N   0  0  0  0  0  0  0  0  0  0  0  0
   20.7874  -25.1634  -14.1655 C   0  0  0  0  0  0  0  0  0  0  0  0
   19.7285  -25.7055  -14.5633 O   0  0  0  0  0  0  0  0  0  0  0  0
   21.0247  -23.7126  -14.0444 C   0  0  0  0  0  0  0  0  0  0  0  0
   22.4030  -23.4251  -13.5522 C   0  0  0  0  0  0  0  0  0  0  0  0
   22.7320  -21.9727  -13.3577 C   0  0  2  0  0  0  0  0  0  0  0  0
   24.1191  -21.8463  -12.8958 N   0  0  0  0  0  0  0  0  0  0  0  0
   21.8043  -21.3273  -12.3983 C   0  0  0  0  0  0  0  0  0  0  0  0
   20.5972  -20.8118  -12.8074 O   0  0  0  0  0  0  0  0  0  0  0  0
   22.1335  -21.2551  -11.1990 O   0  0  0  0  0  0  0  0  0  0  0  0
  2  1  1  0
  3  4  1  6
  3  2  1  0
  5  3  1  0
  5  6  1  1
  7  5  1  0
  7  8  2  0
  9  7  1  0
 10  9  1  0
 10 11  1  1
 12 11  1  0
 13 12  2  0
 14 13  1  0
 15 14  1  0
 15 20  2  0
 16 15  1  0
 17 16  2  0
 17 18  1  0
 18 19  2  0
 19 20  1  0
 20 12  1  0
 21 10  1  0
 22 21  2  0
 23 24  1  0
 24 25  2  0
 24 26  1  0
 26 27  1  0
 28 29  1  0
 28 27  1  1
 29 21  1  0
 30 28  1  0
 31 30  1  0
 32 30  2  0
M  END
$$$$
