IWQ.pdb
     RDKit          3D

 32 33  0  0  1  0  0  0  0  0999 V2000
   27.4375  -28.3888  -17.1061 C   0  0  0  0  0  0  0  0  0  0  0  0
   27.0692  -27.1024  -17.8152 C   0  0  0  0  0  0  0  0  0  0  0  0
   26.0623  -26.3795  -16.9937 C   0  0  2  0  0  0  0  0  0  0  0  0
   24.8677  -27.2619  -16.7572 C   0  0  0  0  0  0  0  0  0  0  0  0
   25.6808  -25.0254  -17.5334 C   0  0  2  0  0  0  0  0  0  0  0  0
   26.9156  -24.2757  -17.6880 N   0  0  0  0  0  0  0  0  0  0  0  0
   24.6890  -24.3248  -16.7308 C   0  0  0  0  0  0  0  0  0  0  0  0
   24.9999  -23.8108  -15.6376 O   0  0  0  0  0  0  0  0  0  0  0  0
   23.3524  -24.2127  -17.1745 N   0  0  0  0  0  0  0  0  0  0  0  0
   22.3373  -23.4648  -16.4636 C   0  0  1  0  0  0  0  0  0  0  0  0
   21.8048  -22.3469  -17.3126 C   0  0  0  0  0  0  0  0  0  0  0  0
   22.7974  -21.2511  -17.4490 C   0  0  0  0  0  0  0  0  0  0  0  0
   23.2977  -20.3968  -16.4897 C   0  0  0  0  0  0  0  0  0  0  0  0
   24.1840  -19.5482  -17.0548 N   0  0  0  0  0  0  0  0  0  0  0  0
   24.2927  -19.8101  -18.3712 C   0  0  0  0  0  0  0  0  0  0  0  0
   25.0573  -19.2249  -19.3555 C   0  0  0  0  0  0  0  0  0  0  0  0
   24.9442  -19.7298  -20.6302 C   0  0  0  0  0  0  0  0  0  0  0  0
   24.0849  -20.7957  -20.9107 C   0  0  0  0  0  0  0  0  0  0  0  0
   23.3411  -21.3499  -19.9020 C   0  0  0  0  0  0  0  0  0  0  0  0
   23.4304  -20.8729  -18.6286 C   0  0  0  0  0  0  0  0  0  0  0  0
   21.1872  -24.3705  -16.1262 C   0  0  0  0  0  0  0  0  0  0  0  0
   20.7338  -25.1705  -16.9819 O   0  0  0  0  0  0  0  0  0  0  0  0
   19.0453  -25.1981  -10.2893 N   0  0  0  0  0  0  0  0  0  0  0  0
   18.3164  -24.1645  -10.9875 C   0  0  0  0  0  0  0  0  0  0  0  0
   17.5547  -23.4423  -10.3007 O   0  0  0  0  0  0  0  0  0  0  0  0
   18.5365  -24.0531  -12.4418 C   0  0  0  0  0  0  0  0  0  0  0  0
   19.3314  -25.2028  -12.9623 C   0  0  0  0  0  0  0  0  0  0  0  0
   19.4935  -25.2561  -14.4544 C   0  0  2  0  0  0  0  0  0  0  0  0
   20.5816  -24.3576  -14.8573 N   0  0  0  0  0  0  0  0  0  0  0  0
   18.2366  -24.8952  -15.1526 C   0  0  0  0  0  0  0  0  0  0  0  0
   17.3216  -25.8538  -15.5189 O   0  0  0  0  0  0  0  0  0  0  0  0
   18.0133  -23.6967  -15.4086 O   0  0  0  0  0  0  0  0  0  0  0  0
  2  1  1  0
  3  4  1  6
  3  2  1  0
  5  3  1  0
  5  6  1  1
  7  5  1  0
  7  8  2  0
  9  7  1  0
 10  9  1  0
 10 11  1  6
 12 11  1  0
 13 12  2  0
 14 13  1  0
 15 14  1  0
 15 20  2  0
 16 15  1  0
 17 16  2  0
 17 18  1  0
 18 19  2  0
 19 20  1  0
 20 12  1  0
 21 10  1  0
 22 21  2  0
 23 24  1  0
 24 25  2  0
 24 26  1  0
 26 27  1  0
 28 29  1  0
 28 27  1  1
 29 21  1  0
 30 28  1  0
 31 30  1  0
 32 30  2  0
M  END
$$$$
