IWQ.pdb
     RDKit          3D

 32 33  0  0  1  0  0  0  0  0999 V2000
   27.2867  -20.0784  -18.5227 C   0  0  0  0  0  0  0  0  0  0  0  0
   28.2001  -20.5824  -17.4250 C   0  0  0  0  0  0  0  0  0  0  0  0
   27.3914  -20.7954  -16.1955 C   0  0  2  0  0  0  0  0  0  0  0  0
   26.6462  -19.5357  -15.8499 C   0  0  0  0  0  0  0  0  0  0  0  0
   28.1725  -21.3415  -15.0283 C   0  0  2  0  0  0  0  0  0  0  0  0
   28.7803  -22.5821  -15.4780 N   0  0  0  0  0  0  0  0  0  0  0  0
   27.3880  -21.5027  -13.8128 C   0  0  0  0  0  0  0  0  0  0  0  0
   26.4982  -22.3736  -13.7381 O   0  0  0  0  0  0  0  0  0  0  0  0
   27.6192  -20.6747  -12.6917 N   0  0  0  0  0  0  0  0  0  0  0  0
   26.9234  -20.8278  -11.4317 C   0  0  1  0  0  0  0  0  0  0  0  0
   27.6050  -20.0450  -10.3468 C   0  0  0  0  0  0  0  0  0  0  0  0
   26.9092  -20.2056   -9.0450 C   0  0  0  0  0  0  0  0  0  0  0  0
   25.6084  -20.5819   -8.7866 C   0  0  0  0  0  0  0  0  0  0  0  0
   25.3967  -20.5979   -7.4525 N   0  0  0  0  0  0  0  0  0  0  0  0
   26.5230  -20.2416   -6.8062 C   0  0  0  0  0  0  0  0  0  0  0  0
   26.8001  -20.1132   -5.4636 C   0  0  0  0  0  0  0  0  0  0  0  0
   28.0726  -19.7249   -5.1132 C   0  0  0  0  0  0  0  0  0  0  0  0
   29.0434  -19.4714   -6.0862 C   0  0  0  0  0  0  0  0  0  0  0  0
   28.7264  -19.6110   -7.4121 C   0  0  0  0  0  0  0  0  0  0  0  0
   27.4751  -19.9942   -7.7919 C   0  0  0  0  0  0  0  0  0  0  0  0
   25.5219  -20.3030  -11.5625 C   0  0  0  0  0  0  0  0  0  0  0  0
   25.3166  -19.0891  -11.8117 O   0  0  0  0  0  0  0  0  0  0  0  0
   20.7381  -23.0648  -15.5569 N   0  0  0  0  0  0  0  0  0  0  0  0
   21.0272  -22.9301  -14.1479 C   0  0  0  0  0  0  0  0  0  0  0  0
   20.3274  -23.6060  -13.3562 O   0  0  0  0  0  0  0  0  0  0  0  0
   22.1189  -22.0124  -13.7711 C   0  0  0  0  0  0  0  0  0  0  0  0
   22.2964  -21.9553  -12.2913 C   0  0  0  0  0  0  0  0  0  0  0  0
   23.0317  -20.7528  -11.7727 C   0  0  2  0  0  0  0  0  0  0  0  0
   24.4009  -21.1385  -11.4126 N   0  0  0  0  0  0  0  0  0  0  0  0
   22.3388  -20.1503  -10.6089 C   0  0  0  0  0  0  0  0  0  0  0  0
   21.2276  -19.3570  -10.7703 O   0  0  0  0  0  0  0  0  0  0  0  0
   22.7795  -20.3726   -9.4651 O   0  0  0  0  0  0  0  0  0  0  0  0
  2  1  1  0
  3  4  1  1
  3  2  1  0
  5  3  1  0
  5  6  1  6
  7  5  1  0
  7  8  2  0
  9  7  1  0
 10  9  1  0
 10 11  1  1
 12 11  1  0
 13 12  2  0
 14 13  1  0
 15 14  1  0
 15 20  2  0
 16 15  1  0
 17 16  2  0
 17 18  1  0
 18 19  2  0
 19 20  1  0
 20 12  1  0
 21 10  1  0
 22 21  2  0
 23 24  1  0
 24 25  2  0
 24 26  1  0
 26 27  1  0
 28 29  1  0
 28 27  1  1
 29 21  1  0
 30 28  1  0
 31 30  1  0
 32 30  2  0
M  END
$$$$
