IWQ.pdb
     RDKit          3D

 32 33  0  0  1  0  0  0  0  0999 V2000
   25.1928  -15.0204  -19.8131 C   0  0  0  0  0  0  0  0  0  0  0  0
   26.3671  -15.6501  -19.0936 C   0  0  0  0  0  0  0  0  0  0  0  0
   25.8512  -16.6859  -18.1597 C   0  0  2  0  0  0  0  0  0  0  0  0
   24.7596  -16.1040  -17.3045 C   0  0  0  0  0  0  0  0  0  0  0  0
   26.9179  -17.3710  -17.3454 C   0  0  2  0  0  0  0  0  0  0  0  0
   27.9390  -17.8095  -18.2813 N   0  0  0  0  0  0  0  0  0  0  0  0
   26.4206  -18.4489  -16.5030 C   0  0  0  0  0  0  0  0  0  0  0  0
   25.8459  -19.4365  -17.0030 O   0  0  0  0  0  0  0  0  0  0  0  0
   26.5793  -18.3979  -15.1000 N   0  0  0  0  0  0  0  0  0  0  0  0
   26.1201  -19.4414  -14.2082 C   0  0  1  0  0  0  0  0  0  0  0  0
   26.8601  -19.3921  -12.9028 C   0  0  0  0  0  0  0  0  0  0  0  0
   26.4781  -20.5241  -12.0212 C   0  0  0  0  0  0  0  0  0  0  0  0
   26.3822  -21.8682  -12.3120 C   0  0  0  0  0  0  0  0  0  0  0  0
   25.9993  -22.5456  -11.2077 N   0  0  0  0  0  0  0  0  0  0  0  0
   25.8349  -21.6906  -10.1805 C   0  0  0  0  0  0  0  0  0  0  0  0
   25.4586  -21.9006   -8.8728 C   0  0  0  0  0  0  0  0  0  0  0  0
   25.3817  -20.8002   -8.0507 C   0  0  0  0  0  0  0  0  0  0  0  0
   25.6750  -19.5202   -8.5290 C   0  0  0  0  0  0  0  0  0  0  0  0
   26.0459  -19.3544   -9.8378 C   0  0  0  0  0  0  0  0  0  0  0  0
   26.1316  -20.4241  -10.6777 C   0  0  0  0  0  0  0  0  0  0  0  0
   24.6599  -19.2468  -13.9138 C   0  0  0  0  0  0  0  0  0  0  0  0
   24.2358  -18.1400  -13.4978 O   0  0  0  0  0  0  0  0  0  0  0  0
   22.1429  -20.1413  -17.4867 N   0  0  0  0  0  0  0  0  0  0  0  0
   21.1759  -19.2029  -16.9657 C   0  0  0  0  0  0  0  0  0  0  0  0
   20.7723  -18.3087  -17.7473 O   0  0  0  0  0  0  0  0  0  0  0  0
   20.7518  -19.3840  -15.5645 C   0  0  0  0  0  0  0  0  0  0  0  0
   21.4633  -20.5273  -14.9233 C   0  0  0  0  0  0  0  0  0  0  0  0
   22.3054  -20.1793  -13.7295 C   0  0  2  0  0  0  0  0  0  0  0  0
   23.7243  -20.2815  -14.0892 N   0  0  0  0  0  0  0  0  0  0  0  0
   21.9987  -21.0538  -12.5724 C   0  0  0  0  0  0  0  0  0  0  0  0
   21.0444  -20.7056  -11.6460 O   0  0  0  0  0  0  0  0  0  0  0  0
   22.6233  -22.1241  -12.4450 O   0  0  0  0  0  0  0  0  0  0  0  0
  2  1  1  0
  3  4  1  1
  3  2  1  0
  5  3  1  0
  5  6  1  6
  7  5  1  0
  7  8  2  0
  9  7  1  0
 10  9  1  0
 10 11  1  1
 12 11  1  0
 13 12  2  0
 14 13  1  0
 15 14  1  0
 15 20  2  0
 16 15  1  0
 17 16  2  0
 17 18  1  0
 18 19  2  0
 19 20  1  0
 20 12  1  0
 21 10  1  0
 22 21  2  0
 23 24  1  0
 24 25  2  0
 24 26  1  0
 26 27  1  0
 28 29  1  0
 28 27  1  6
 29 21  1  0
 30 28  1  0
 31 30  1  0
 32 30  2  0
M  END
$$$$
