IWQ.pdb
     RDKit          3D

 32 33  0  0  1  0  0  0  0  0999 V2000
   30.8495  -23.1128  -19.0656 C   0  0  0  0  0  0  0  0  0  0  0  0
   29.7169  -22.1484  -18.7820 C   0  0  0  0  0  0  0  0  0  0  0  0
   29.1135  -22.4984  -17.4687 C   0  0  2  0  0  0  0  0  0  0  0  0
   28.8284  -23.9740  -17.4148 C   0  0  0  0  0  0  0  0  0  0  0  0
   27.9137  -21.6657  -17.0978 C   0  0  2  0  0  0  0  0  0  0  0  0
   28.2922  -20.2774  -17.2982 N   0  0  0  0  0  0  0  0  0  0  0  0
   27.4014  -21.9261  -15.7604 C   0  0  0  0  0  0  0  0  0  0  0  0
   27.0494  -23.0745  -15.4240 O   0  0  0  0  0  0  0  0  0  0  0  0
   27.2927  -20.8818  -14.8151 N   0  0  0  0  0  0  0  0  0  0  0  0
   26.6486  -21.0365  -13.5281 C   0  0  1  0  0  0  0  0  0  0  0  0
   26.9854  -19.8885  -12.6211 C   0  0  0  0  0  0  0  0  0  0  0  0
   26.3310  -20.0355  -11.2964 C   0  0  0  0  0  0  0  0  0  0  0  0
   24.9912  -20.0116  -10.9727 C   0  0  0  0  0  0  0  0  0  0  0  0
   24.8423  -20.1851   -9.6413 N   0  0  0  0  0  0  0  0  0  0  0  0
   26.0491  -20.3253   -9.0605 C   0  0  0  0  0  0  0  0  0  0  0  0
   26.4091  -20.5229   -7.7463 C   0  0  0  0  0  0  0  0  0  0  0  0
   27.7518  -20.6300   -7.4660 C   0  0  0  0  0  0  0  0  0  0  0  0
   28.7099  -20.5407   -8.4796 C   0  0  0  0  0  0  0  0  0  0  0  0
   28.3093  -20.3435   -9.7752 C   0  0  0  0  0  0  0  0  0  0  0  0
   26.9870  -20.2335  -10.0858 C   0  0  0  0  0  0  0  0  0  0  0  0
   25.1574  -21.0538  -13.7093 C   0  0  0  0  0  0  0  0  0  0  0  0
   24.5849  -20.1497  -14.3672 O   0  0  0  0  0  0  0  0  0  0  0  0
   22.4900  -26.0156  -14.7124 N   0  0  0  0  0  0  0  0  0  0  0  0
   21.2196  -25.3919  -14.4220 C   0  0  0  0  0  0  0  0  0  0  0  0
   20.1982  -25.9221  -14.9208 O   0  0  0  0  0  0  0  0  0  0  0  0
   21.2412  -24.1913  -13.5653 C   0  0  0  0  0  0  0  0  0  0  0  0
   22.6374  -23.7732  -13.2482 C   0  0  0  0  0  0  0  0  0  0  0  0
   22.9761  -22.3464  -13.5724 C   0  0  2  0  0  0  0  0  0  0  0  0
   24.3556  -22.0680  -13.1567 N   0  0  0  0  0  0  0  0  0  0  0  0
   22.0370  -21.4018  -12.9218 C   0  0  0  0  0  0  0  0  0  0  0  0
   21.9993  -21.2586  -11.5549 O   0  0  0  0  0  0  0  0  0  0  0  0
   21.2702  -20.7281  -13.6359 O   0  0  0  0  0  0  0  0  0  0  0  0
  2  1  1  0
  3  4  1  6
  3  2  1  0
  5  3  1  0
  5  6  1  1
  7  5  1  0
  7  8  2  0
  9  7  1  0
 10  9  1  0
 10 11  1  1
 12 11  1  0
 13 12  2  0
 14 13  1  0
 15 14  1  0
 15 20  2  0
 16 15  1  0
 17 16  2  0
 17 18  1  0
 18 19  2  0
 19 20  1  0
 20 12  1  0
 21 10  1  0
 22 21  2  0
 23 24  1  0
 24 25  2  0
 24 26  1  0
 26 27  1  0
 28 29  1  0
 28 27  1  1
 29 21  1  0
 30 28  1  0
 31 30  1  0
 32 30  2  0
M  END
$$$$
