IWQ.pdb
     RDKit          3D

 32 33  0  0  1  0  0  0  0  0999 V2000
   28.1186  -20.1940  -17.3787 C   0  0  0  0  0  0  0  0  0  0  0  0
   29.2264  -20.5131  -16.3968 C   0  0  0  0  0  0  0  0  0  0  0  0
   28.6222  -21.1175  -15.1799 C   0  0  2  0  0  0  0  0  0  0  0  0
   28.0972  -22.4903  -15.4985 C   0  0  0  0  0  0  0  0  0  0  0  0
   27.5926  -20.2493  -14.5042 C   0  0  2  0  0  0  0  0  0  0  0  0
   28.1983  -18.9395  -14.3356 N   0  0  0  0  0  0  0  0  0  0  0  0
   27.0772  -20.7999  -13.2592 C   0  0  0  0  0  0  0  0  0  0  0  0
   26.3610  -21.8212  -13.2609 O   0  0  0  0  0  0  0  0  0  0  0  0
   27.3784  -20.1877  -12.0221 N   0  0  0  0  0  0  0  0  0  0  0  0
   26.6695  -20.4815  -10.7947 C   0  0  1  0  0  0  0  0  0  0  0  0
   27.2427  -19.7013   -9.6472 C   0  0  0  0  0  0  0  0  0  0  0  0
   26.7233  -20.1925   -8.3458 C   0  0  0  0  0  0  0  0  0  0  0  0
   25.5743  -20.9035   -8.0724 C   0  0  0  0  0  0  0  0  0  0  0  0
   25.4929  -21.1423   -6.7452 N   0  0  0  0  0  0  0  0  0  0  0  0
   26.5589  -20.6094   -6.1183 C   0  0  0  0  0  0  0  0  0  0  0  0
   26.9180  -20.5917   -4.7892 C   0  0  0  0  0  0  0  0  0  0  0  0
   28.0914  -19.9545   -4.4580 C   0  0  0  0  0  0  0  0  0  0  0  0
   28.8851  -19.3495   -5.4365 C   0  0  0  0  0  0  0  0  0  0  0  0
   28.4916  -19.3898   -6.7485 C   0  0  0  0  0  0  0  0  0  0  0  0
   27.3347  -20.0133   -7.1092 C   0  0  0  0  0  0  0  0  0  0  0  0
   25.2267  -20.0886  -10.9392 C   0  0  0  0  0  0  0  0  0  0  0  0
   24.9107  -18.8926  -11.1573 O   0  0  0  0  0  0  0  0  0  0  0  0
   22.0090  -23.8995  -14.0780 N   0  0  0  0  0  0  0  0  0  0  0  0
   20.8733  -23.0622  -13.7679 C   0  0  0  0  0  0  0  0  0  0  0  0
   19.7846  -23.3530  -14.3188 O   0  0  0  0  0  0  0  0  0  0  0  0
   21.0986  -21.9449  -12.8315 C   0  0  0  0  0  0  0  0  0  0  0  0
   22.4959  -21.9444  -12.3099 C   0  0  0  0  0  0  0  0  0  0  0  0
   22.8349  -20.8268  -11.3656 C   0  0  2  0  0  0  0  0  0  0  0  0
   24.1884  -21.0311  -10.8368 N   0  0  0  0  0  0  0  0  0  0  0  0
   21.8536  -20.7320  -10.2585 C   0  0  0  0  0  0  0  0  0  0  0  0
   20.6231  -20.1467  -10.4418 O   0  0  0  0  0  0  0  0  0  0  0  0
   22.1587  -21.1947   -9.1429 O   0  0  0  0  0  0  0  0  0  0  0  0
  2  1  1  0
  3  4  1  6
  3  2  1  0
  5  3  1  0
  5  6  1  1
  7  5  1  0
  7  8  2  0
  9  7  1  0
 10  9  1  0
 10 11  1  1
 12 11  1  0
 13 12  2  0
 14 13  1  0
 15 14  1  0
 15 20  2  0
 16 15  1  0
 17 16  2  0
 17 18  1  0
 18 19  2  0
 19 20  1  0
 20 12  1  0
 21 10  1  0
 22 21  2  0
 23 24  1  0
 24 25  2  0
 24 26  1  0
 26 27  1  0
 28 29  1  0
 28 27  1  6
 29 21  1  0
 30 28  1  0
 31 30  1  0
 32 30  2  0
M  END
$$$$
