IWQ.pdb
     RDKit          3D

 32 33  0  0  1  0  0  0  0  0999 V2000
   19.5834  -19.5010  -14.4952 C   0  0  0  0  0  0  0  0  0  0  0  0
   20.5252  -20.4573  -13.7940 C   0  0  0  0  0  0  0  0  0  0  0  0
   21.9229  -20.0159  -14.0447 C   0  0  2  0  0  0  0  0  0  0  0  0
   22.1484  -19.8491  -15.5222 C   0  0  0  0  0  0  0  0  0  0  0  0
   22.9710  -20.8825  -13.3959 C   0  0  2  0  0  0  0  0  0  0  0  0
   22.4645  -21.2345  -12.0805 N   0  0  0  0  0  0  0  0  0  0  0  0
   24.2948  -20.2790  -13.3507 C   0  0  0  0  0  0  0  0  0  0  0  0
   24.5444  -19.2386  -13.9919 O   0  0  0  0  0  0  0  0  0  0  0  0
   25.3251  -20.8603  -12.5783 N   0  0  0  0  0  0  0  0  0  0  0  0
   26.7182  -20.8489  -12.9711 C   0  0  1  0  0  0  0  0  0  0  0  0
   27.6122  -20.9775  -11.7719 C   0  0  0  0  0  0  0  0  0  0  0  0
   26.8849  -20.6563  -10.5179 C   0  0  0  0  0  0  0  0  0  0  0  0
   25.5428  -20.4101  -10.3211 C   0  0  0  0  0  0  0  0  0  0  0  0
   25.3140  -20.1594   -9.0135 N   0  0  0  0  0  0  0  0  0  0  0  0
   26.4690  -20.2306   -8.3250 C   0  0  0  0  0  0  0  0  0  0  0  0
   26.7433  -20.0558   -6.9871 C   0  0  0  0  0  0  0  0  0  0  0  0
   28.0509  -20.1990   -6.5840 C   0  0  0  0  0  0  0  0  0  0  0  0
   29.0588  -20.5098   -7.5010 C   0  0  0  0  0  0  0  0  0  0  0  0
   28.7433  -20.6757   -8.8243 C   0  0  0  0  0  0  0  0  0  0  0  0
   27.4576  -20.5407   -9.2554 C   0  0  0  0  0  0  0  0  0  0  0  0
   26.9965  -22.0152  -13.8761 C   0  0  0  0  0  0  0  0  0  0  0  0
   26.4780  -23.1364  -13.6484 O   0  0  0  0  0  0  0  0  0  0  0  0
   23.4726  -22.8660  -16.9151 N   0  0  0  0  0  0  0  0  0  0  0  0
   24.2753  -23.1031  -18.0926 C   0  0  0  0  0  0  0  0  0  0  0  0
   23.6623  -23.2955  -19.1699 O   0  0  0  0  0  0  0  0  0  0  0  0
   25.7402  -23.0953  -17.9195 C   0  0  0  0  0  0  0  0  0  0  0  0
   26.1292  -22.5349  -16.5931 C   0  0  0  0  0  0  0  0  0  0  0  0
   27.5976  -22.5702  -16.2800 C   0  0  2  0  0  0  0  0  0  0  0  0
   27.8371  -21.8990  -14.9972 N   0  0  0  0  0  0  0  0  0  0  0  0
   28.3996  -21.9381  -17.3546 C   0  0  0  0  0  0  0  0  0  0  0  0
   29.2754  -22.6721  -18.1191 O   0  0  0  0  0  0  0  0  0  0  0  0
   28.2709  -20.7165  -17.5621 O   0  0  0  0  0  0  0  0  0  0  0  0
  2  1  1  0
  3  4  1  6
  3  2  1  0
  5  3  1  0
  5  6  1  1
  7  5  1  0
  7  8  2  0
  9  7  1  0
 10  9  1  0
 10 11  1  1
 12 11  1  0
 13 12  2  0
 14 13  1  0
 15 14  1  0
 15 20  2  0
 16 15  1  0
 17 16  2  0
 17 18  1  0
 18 19  2  0
 19 20  1  0
 20 12  1  0
 21 10  1  0
 22 21  2  0
 23 24  1  0
 24 25  2  0
 24 26  1  0
 26 27  1  0
 28 29  1  0
 28 27  1  6
 29 21  1  0
 30 28  1  0
 31 30  1  0
 32 30  2  0
M  END
$$$$
