IWQ.pdb
     RDKit          3D

 32 33  0  0  1  0  0  0  0  0999 V2000
   28.1139  -21.4205  -18.9584 C   0  0  0  0  0  0  0  0  0  0  0  0
   27.4811  -22.7860  -18.7902 C   0  0  0  0  0  0  0  0  0  0  0  0
   26.6998  -22.7942  -17.5251 C   0  0  2  0  0  0  0  0  0  0  0  0
   25.6231  -21.7458  -17.5832 C   0  0  0  0  0  0  0  0  0  0  0  0
   27.5398  -22.6891  -16.2786 C   0  0  2  0  0  0  0  0  0  0  0  0
   28.4348  -23.8336  -16.2819 N   0  0  0  0  0  0  0  0  0  0  0  0
   26.7670  -22.5774  -15.0501 C   0  0  0  0  0  0  0  0  0  0  0  0
   26.1096  -23.5459  -14.6192 O   0  0  0  0  0  0  0  0  0  0  0  0
   26.7463  -21.3681  -14.3201 N   0  0  0  0  0  0  0  0  0  0  0  0
   25.9869  -21.1865  -13.1013 C   0  0  1  0  0  0  0  0  0  0  0  0
   26.5240  -20.0331  -12.3043 C   0  0  0  0  0  0  0  0  0  0  0  0
   27.5813  -20.4740  -11.3596 C   0  0  0  0  0  0  0  0  0  0  0  0
   28.8640  -20.9071  -11.6192 C   0  0  0  0  0  0  0  0  0  0  0  0
   29.4848  -21.2101  -10.4583 N   0  0  0  0  0  0  0  0  0  0  0  0
   28.6515  -20.9917   -9.4233 C   0  0  0  0  0  0  0  0  0  0  0  0
   28.8243  -21.1504   -8.0665 C   0  0  0  0  0  0  0  0  0  0  0  0
   27.7623  -20.8346   -7.2510 C   0  0  0  0  0  0  0  0  0  0  0  0
   26.5562  -20.3710   -7.7837 C   0  0  0  0  0  0  0  0  0  0  0  0
   26.4255  -20.2272   -9.1403 C   0  0  0  0  0  0  0  0  0  0  0  0
   27.4587  -20.5313   -9.9751 C   0  0  0  0  0  0  0  0  0  0  0  0
   24.5554  -20.8811  -13.4398 C   0  0  0  0  0  0  0  0  0  0  0  0
   24.2766  -20.0906  -14.3754 O   0  0  0  0  0  0  0  0  0  0  0  0
   20.2708  -24.1610  -13.8588 N   0  0  0  0  0  0  0  0  0  0  0  0
   19.2925  -23.1969  -13.4111 C   0  0  0  0  0  0  0  0  0  0  0  0
   18.1192  -23.3398  -13.8310 O   0  0  0  0  0  0  0  0  0  0  0  0
   19.7632  -22.1356  -12.5011 C   0  0  0  0  0  0  0  0  0  0  0  0
   21.2347  -22.2250  -12.2746 C   0  0  0  0  0  0  0  0  0  0  0  0
   22.0728  -21.2691  -13.0741 C   0  0  2  0  0  0  0  0  0  0  0  0
   23.4871  -21.4596  -12.7322 N   0  0  0  0  0  0  0  0  0  0  0  0
   21.6672  -19.8624  -12.8414 C   0  0  0  0  0  0  0  0  0  0  0  0
   20.7788  -19.2269  -13.6763 O   0  0  0  0  0  0  0  0  0  0  0  0
   22.1462  -19.2514  -11.8672 O   0  0  0  0  0  0  0  0  0  0  0  0
  2  1  1  0
  3  4  1  6
  3  2  1  0
  5  3  1  0
  5  6  1  1
  7  5  1  0
  7  8  2  0
  9  7  1  0
 10  9  1  0
 10 11  1  6
 12 11  1  0
 13 12  2  0
 14 13  1  0
 15 14  1  0
 15 20  2  0
 16 15  1  0
 17 16  2  0
 17 18  1  0
 18 19  2  0
 19 20  1  0
 20 12  1  0
 21 10  1  0
 22 21  2  0
 23 24  1  0
 24 25  2  0
 24 26  1  0
 26 27  1  0
 28 29  1  0
 28 27  1  1
 29 21  1  0
 30 28  1  0
 31 30  1  0
 32 30  2  0
M  END
$$$$
