CHV.pdb
     RDKit          3D

 24 24  0  0  1  0  0  0  0  0999 V2000
    7.5508  -14.4268   18.1244 N   0  0  0  0  0  0  0  0  0  0  0  0
    8.5427  -14.6152   19.1518 C   0  0  1  0  0  0  0  0  0  0  0  0
    9.4388  -13.4219   19.1723 C   0  0  0  0  0  0  0  0  0  0  0  0
    8.4655  -11.9949   19.7433 S   0  0  0  0  0  0  0  0  0  0  0  0
    7.9420  -14.9711   20.4269 C   0  0  0  0  0  0  0  0  0  0  0  0
    6.7476  -14.6421   20.6430 O   0  0  0  0  0  0  0  0  0  0  0  0
    8.6165  -15.6740   21.4616 N   0  0  0  0  0  0  0  0  0  0  0  0
    7.9083  -16.0809   22.6816 C   0  0  1  0  0  0  0  0  0  0  0  0
    8.1538  -17.5435   22.8761 C   0  0  0  0  0  0  0  0  0  0  0  0
    7.5528  -18.1049   24.1048 C   0  0  0  0  0  0  0  0  0  0  0  0
    6.6894  -17.3526   24.8947 C   0  0  0  0  0  0  0  0  0  0  0  0
    6.3152  -18.1323   25.9286 N   0  0  0  0  0  0  0  0  0  0  0  0
    6.9157  -19.3294   25.8008 C   0  0  0  0  0  0  0  0  0  0  0  0
    7.6622  -19.3000   24.6926 N   0  0  0  0  0  0  0  0  0  0  0  0
    8.4311  -15.2438   23.8130 C   0  0  0  0  0  0  0  0  0  0  0  0
    9.6281  -14.9261   23.9491 O   0  0  0  0  0  0  0  0  0  0  0  0
    6.0353  -12.4385   25.2199 C   0  0  0  0  0  0  0  0  0  0  0  0
    6.7416  -13.0932   26.3626 C   0  0  2  0  0  0  0  0  0  0  0  0
    7.1338  -12.0770   27.4099 C   0  0  0  0  0  0  0  0  0  0  0  0
    7.9358  -13.8536   25.8410 C   0  0  2  0  0  0  0  0  0  0  0  0
    7.5124  -14.7671   24.8151 N   0  0  0  0  0  0  0  0  0  0  0  0
    8.5987  -14.5973   26.9574 C   0  0  0  0  0  0  0  0  0  0  0  0
    8.2450  -15.7707   27.2215 O   0  0  0  0  0  0  0  0  0  0  0  0
    9.6035  -14.0326   27.7231 O   0  0  0  0  0  0  0  0  0  0  0  0
  2  1  1  6
  2  5  1  0
  3  2  1  0
  4  3  1  0
  5  6  2  0
  7  5  1  0
  7  8  1  0
  9 10  1  0
  8  9  1  1
 10 14  1  0
 11 12  1  0
 11 10  2  0
 12 13  1  0
 13 14  2  0
 15  8  1  0
 15 21  1  0
 16 15  2  0
 18 19  1  1
 18 17  1  0
 20 21  1  6
 20 18  1  0
 22 20  1  0
 23 22  2  0
 24 22  1  0
M  END
$$$$
