CHV.pdb
     RDKit          3D

 24 24  0  0  1  0  0  0  0  0999 V2000
    8.1768  -15.5783   17.6536 N   0  0  0  0  0  0  0  0  0  0  0  0
    8.5230  -14.7402   18.7728 C   0  0  1  0  0  0  0  0  0  0  0  0
    8.2006  -13.3251   18.4249 C   0  0  0  0  0  0  0  0  0  0  0  0
    8.6393  -12.2800   19.8479 S   0  0  0  0  0  0  0  0  0  0  0  0
    7.9462  -15.2283   20.0148 C   0  0  0  0  0  0  0  0  0  0  0  0
    6.7313  -15.5528   20.0282 O   0  0  0  0  0  0  0  0  0  0  0  0
    8.6662  -15.3671   21.2321 N   0  0  0  0  0  0  0  0  0  0  0  0
    7.9948  -15.8185   22.4572 C   0  0  1  0  0  0  0  0  0  0  0  0
    8.3518  -17.2567   22.6606 C   0  0  0  0  0  0  0  0  0  0  0  0
    7.8928  -17.8232   23.9469 C   0  0  0  0  0  0  0  0  0  0  0  0
    6.5526  -17.7801   24.3172 C   0  0  0  0  0  0  0  0  0  0  0  0
    6.4548  -18.3693   25.5256 N   0  0  0  0  0  0  0  0  0  0  0  0
    7.6812  -18.7697   25.9068 C   0  0  0  0  0  0  0  0  0  0  0  0
    8.5431  -18.4332   24.9423 N   0  0  0  0  0  0  0  0  0  0  0  0
    8.4556  -14.9361   23.5812 C   0  0  0  0  0  0  0  0  0  0  0  0
    9.6494  -14.6568   23.8029 O   0  0  0  0  0  0  0  0  0  0  0  0
    7.2237  -11.7471   27.0920 C   0  0  0  0  0  0  0  0  0  0  0  0
    6.7563  -12.6492   25.9960 C   0  0  2  0  0  0  0  0  0  0  0  0
    5.5044  -13.3911   26.4030 C   0  0  0  0  0  0  0  0  0  0  0  0
    7.8713  -13.5921   25.6166 C   0  0  2  0  0  0  0  0  0  0  0  0
    7.4769  -14.3658   24.4712 N   0  0  0  0  0  0  0  0  0  0  0  0
    8.1948  -14.4938   26.7661 C   0  0  0  0  0  0  0  0  0  0  0  0
    7.6610  -15.6257   26.8401 O   0  0  0  0  0  0  0  0  0  0  0  0
    9.0742  -14.1224   27.7678 O   0  0  0  0  0  0  0  0  0  0  0  0
  2  1  1  6
  2  5  1  0
  3  2  1  0
  4  3  1  0
  5  6  2  0
  7  5  1  0
  7  8  1  0
  9 10  1  0
  8  9  1  1
 10 14  1  0
 11 12  1  0
 11 10  2  0
 12 13  1  0
 13 14  2  0
 15  8  1  0
 15 21  1  0
 16 15  2  0
 18 19  1  1
 18 17  1  0
 20 21  1  6
 20 18  1  0
 22 20  1  0
 23 22  2  0
 24 22  1  0
M  END
$$$$
