CHV.pdb
     RDKit          3D

 24 24  0  0  1  0  0  0  0  0999 V2000
    7.4049  -16.2525   18.1160 N   0  0  0  0  0  0  0  0  0  0  0  0
    7.9781  -15.3779   19.1066 C   0  0  1  0  0  0  0  0  0  0  0  0
    7.8312  -13.9683   18.6386 C   0  0  0  0  0  0  0  0  0  0  0  0
    8.5097  -12.8734   19.9233 S   0  0  0  0  0  0  0  0  0  0  0  0
    7.4628  -15.6544   20.4376 C   0  0  0  0  0  0  0  0  0  0  0  0
    6.2429  -15.9319   20.5657 O   0  0  0  0  0  0  0  0  0  0  0  0
    8.2491  -15.6335   21.6211 N   0  0  0  0  0  0  0  0  0  0  0  0
    7.6737  -16.0221   22.9147 C   0  0  1  0  0  0  0  0  0  0  0  0
    7.9739  -17.4728   23.1215 C   0  0  0  0  0  0  0  0  0  0  0  0
    7.6358  -17.9798   24.4687 C   0  0  0  0  0  0  0  0  0  0  0  0
    7.0287  -17.1619   25.4162 C   0  0  0  0  0  0  0  0  0  0  0  0
    6.8518  -17.9043   26.5273 N   0  0  0  0  0  0  0  0  0  0  0  0
    7.3265  -19.1415   26.2953 C   0  0  0  0  0  0  0  0  0  0  0  0
    7.7984  -19.1742   25.0453 N   0  0  0  0  0  0  0  0  0  0  0  0
    8.2832  -15.1422   23.9676 C   0  0  0  0  0  0  0  0  0  0  0  0
    9.4997  -14.8832   24.0402 O   0  0  0  0  0  0  0  0  0  0  0  0
    7.5007  -11.5574   27.1641 C   0  0  0  0  0  0  0  0  0  0  0  0
    6.9080  -12.5888   26.2596 C   0  0  2  0  0  0  0  0  0  0  0  0
    5.6686  -13.1980   26.8727 C   0  0  0  0  0  0  0  0  0  0  0  0
    7.9505  -13.6325   25.9426 C   0  0  2  0  0  0  0  0  0  0  0  0
    7.4301  -14.5497   24.9659 N   0  0  0  0  0  0  0  0  0  0  0  0
    8.3389  -14.3651   27.1881 C   0  0  0  0  0  0  0  0  0  0  0  0
    7.7742  -15.4465   27.4772 O   0  0  0  0  0  0  0  0  0  0  0  0
    9.3127  -13.8893   28.0483 O   0  0  0  0  0  0  0  0  0  0  0  0
  2  1  1  6
  2  5  1  0
  3  2  1  0
  4  3  1  0
  5  6  2  0
  7  5  1  0
  7  8  1  0
  9 10  1  0
  8  9  1  1
 10 14  1  0
 11 12  1  0
 11 10  2  0
 12 13  1  0
 13 14  2  0
 15  8  1  0
 15 21  1  0
 16 15  2  0
 18 19  1  1
 18 17  1  0
 20 21  1  6
 20 18  1  0
 22 20  1  0
 23 22  2  0
 24 22  1  0
M  END
$$$$
