CHV.pdb
     RDKit          3D

 24 24  0  0  1  0  0  0  0  0999 V2000
    7.3946  -14.5993   18.1277 N   0  0  0  0  0  0  0  0  0  0  0  0
    8.4143  -14.7686   19.1308 C   0  0  1  0  0  0  0  0  0  0  0  0
    9.3121  -13.5768   19.1021 C   0  0  0  0  0  0  0  0  0  0  0  0
    8.2911  -12.0945   19.3665 S   0  0  0  0  0  0  0  0  0  0  0  0
    7.8486  -15.0974   20.4291 C   0  0  0  0  0  0  0  0  0  0  0  0
    6.6345  -14.8452   20.6386 O   0  0  0  0  0  0  0  0  0  0  0  0
    8.5789  -15.6915   21.4936 N   0  0  0  0  0  0  0  0  0  0  0  0
    7.9095  -16.0814   22.7409 C   0  0  1  0  0  0  0  0  0  0  0  0
    8.2004  -17.5302   22.9721 C   0  0  0  0  0  0  0  0  0  0  0  0
    7.7067  -18.0530   24.2640 C   0  0  0  0  0  0  0  0  0  0  0  0
    6.3456  -18.2069   24.5075 C   0  0  0  0  0  0  0  0  0  0  0  0
    6.2182  -18.6971   25.7567 N   0  0  0  0  0  0  0  0  0  0  0  0
    7.4464  -18.8483   26.2843 C   0  0  0  0  0  0  0  0  0  0  0  0
    8.3389  -18.4548   25.3706 N   0  0  0  0  0  0  0  0  0  0  0  0
    8.4336  -15.1970   23.8352 C   0  0  0  0  0  0  0  0  0  0  0  0
    9.6258  -14.8511   23.9403 O   0  0  0  0  0  0  0  0  0  0  0  0
    6.0019  -12.4446   25.3973 C   0  0  0  0  0  0  0  0  0  0  0  0
    6.7774  -13.1169   26.4836 C   0  0  2  0  0  0  0  0  0  0  0  0
    7.1903  -12.1256   27.5465 C   0  0  0  0  0  0  0  0  0  0  0  0
    7.9661  -13.8254   25.8824 C   0  0  2  0  0  0  0  0  0  0  0  0
    7.5218  -14.7058   24.8366 N   0  0  0  0  0  0  0  0  0  0  0  0
    8.6915  -14.5981   26.9387 C   0  0  0  0  0  0  0  0  0  0  0  0
    9.6323  -14.0604   27.5692 O   0  0  0  0  0  0  0  0  0  0  0  0
    8.3604  -15.9044   27.2529 O   0  0  0  0  0  0  0  0  0  0  0  0
  2  1  1  6
  2  5  1  0
  3  2  1  0
  4  3  1  0
  5  6  2  0
  7  5  1  0
  7  8  1  0
  9 10  1  0
  8  9  1  1
 10 14  1  0
 11 12  1  0
 11 10  2  0
 12 13  1  0
 13 14  2  0
 15  8  1  0
 15 21  1  0
 16 15  2  0
 18 19  1  1
 18 17  1  0
 20 21  1  6
 20 18  1  0
 22 20  1  0
 23 22  2  0
 24 22  1  0
M  END
$$$$
