CHV.pdb
     RDKit          3D

 24 24  0  0  1  0  0  0  0  0999 V2000
    9.3108  -16.2847   18.8052 N   0  0  0  0  0  0  0  0  0  0  0  0
    9.7931  -16.5636   20.1336 C   0  0  1  0  0  0  0  0  0  0  0  0
   11.2020  -16.0826   20.2387 C   0  0  0  0  0  0  0  0  0  0  0  0
   11.8657  -16.6258   21.8431 S   0  0  0  0  0  0  0  0  0  0  0  0
    8.8837  -16.0710   21.1553 C   0  0  0  0  0  0  0  0  0  0  0  0
    8.3514  -14.9429   20.9949 O   0  0  0  0  0  0  0  0  0  0  0  0
    8.5481  -16.7821   22.3390 N   0  0  0  0  0  0  0  0  0  0  0  0
    7.5496  -16.2546   23.2772 C   0  0  1  0  0  0  0  0  0  0  0  0
    6.7392  -17.4122   23.7676 C   0  0  0  0  0  0  0  0  0  0  0  0
    5.7345  -17.9062   22.8018 C   0  0  0  0  0  0  0  0  0  0  0  0
    5.6090  -17.3394   21.5376 C   0  0  0  0  0  0  0  0  0  0  0  0
    4.6199  -17.9992   20.9025 N   0  0  0  0  0  0  0  0  0  0  0  0
    4.1376  -18.9452   21.7285 C   0  0  0  0  0  0  0  0  0  0  0  0
    4.8208  -18.8785   22.8752 N   0  0  0  0  0  0  0  0  0  0  0  0
    8.2869  -15.5479   24.3779 C   0  0  0  0  0  0  0  0  0  0  0  0
    9.4482  -15.8290   24.7306 O   0  0  0  0  0  0  0  0  0  0  0  0
    6.1434  -13.1242   27.1682 C   0  0  0  0  0  0  0  0  0  0  0  0
    7.4355  -12.6241   26.6080 C   0  0  2  0  0  0  0  0  0  0  0  0
    7.1945  -11.6541   25.4749 C   0  0  0  0  0  0  0  0  0  0  0  0
    8.2786  -13.7980   26.1746 C   0  0  2  0  0  0  0  0  0  0  0  0
    7.6328  -14.4761   25.0841 N   0  0  0  0  0  0  0  0  0  0  0  0
    8.4817  -14.7361   27.3225 C   0  0  0  0  0  0  0  0  0  0  0  0
    9.2547  -14.4193   28.2573 O   0  0  0  0  0  0  0  0  0  0  0  0
    7.8399  -15.9598   27.3951 O   0  0  0  0  0  0  0  0  0  0  0  0
  2  1  1  6
  2  5  1  0
  3  2  1  0
  4  3  1  0
  5  6  2  0
  7  5  1  0
  7  8  1  0
  9 10  1  0
  8  9  1  1
 10 14  1  0
 11 12  1  0
 11 10  2  0
 12 13  1  0
 13 14  2  0
 15  8  1  0
 15 21  1  0
 16 15  2  0
 18 19  1  6
 18 17  1  0
 20 21  1  6
 20 18  1  0
 22 20  1  0
 23 22  2  0
 24 22  1  0
M  END
$$$$
