CHV.pdb
     RDKit          3D

 24 24  0  0  1  0  0  0  0  0999 V2000
    6.3274  -18.1393   20.5829 N   0  0  0  0  0  0  0  0  0  0  0  0
    6.8932  -16.8428   20.8548 C   0  0  1  0  0  0  0  0  0  0  0  0
    5.7791  -15.8688   21.0480 C   0  0  0  0  0  0  0  0  0  0  0  0
    4.7829  -15.8417   19.5259 S   0  0  0  0  0  0  0  0  0  0  0  0
    7.8755  -16.8934   21.9254 C   0  0  0  0  0  0  0  0  0  0  0  0
    7.6566  -17.6461   22.9088 O   0  0  0  0  0  0  0  0  0  0  0  0
    9.0822  -16.1432   21.9412 N   0  0  0  0  0  0  0  0  0  0  0  0
   10.0074  -16.2282   23.0780 C   0  0  1  0  0  0  0  0  0  0  0  0
   11.3979  -16.2111   22.5270 C   0  0  0  0  0  0  0  0  0  0  0  0
   11.7757  -17.4336   21.7862 C   0  0  0  0  0  0  0  0  0  0  0  0
   11.7437  -18.6846   22.3939 C   0  0  0  0  0  0  0  0  0  0  0  0
   12.1374  -19.5850   21.4713 N   0  0  0  0  0  0  0  0  0  0  0  0
   12.4081  -18.9333   20.3259 C   0  0  0  0  0  0  0  0  0  0  0  0
   12.1851  -17.6314   20.5297 N   0  0  0  0  0  0  0  0  0  0  0  0
    9.7227  -15.0664   23.9855 C   0  0  0  0  0  0  0  0  0  0  0  0
   10.1127  -13.9029   23.7705 O   0  0  0  0  0  0  0  0  0  0  0  0
    7.1086  -13.2016   24.9353 C   0  0  0  0  0  0  0  0  0  0  0  0
    7.4919  -13.7212   26.2830 C   0  0  2  0  0  0  0  0  0  0  0  0
    7.3704  -12.6419   27.3335 C   0  0  0  0  0  0  0  0  0  0  0  0
    8.8878  -14.2903   26.2196 C   0  0  2  0  0  0  0  0  0  0  0  0
    8.9540  -15.2850   25.1840 N   0  0  0  0  0  0  0  0  0  0  0  0
    9.2587  -14.8892   27.5396 C   0  0  0  0  0  0  0  0  0  0  0  0
    9.0894  -16.1156   27.7375 O   0  0  0  0  0  0  0  0  0  0  0  0
    9.7900  -14.1314   28.5682 O   0  0  0  0  0  0  0  0  0  0  0  0
  2  1  1  1
  2  5  1  0
  3  2  1  0
  4  3  1  0
  5  6  2  0
  7  5  1  0
  7  8  1  0
  9 10  1  0
  8  9  1  6
 10 14  1  0
 11 12  1  0
 11 10  2  0
 12 13  1  0
 13 14  2  0
 15  8  1  0
 15 21  1  0
 16 15  2  0
 18 19  1  1
 18 17  1  0
 20 21  1  6
 20 18  1  0
 22 20  1  0
 23 22  2  0
 24 22  1  0
M  END
$$$$
