CHV.pdb
     RDKit          3D

 24 24  0  0  1  0  0  0  0  0999 V2000
    5.6478  -18.3646   23.6119 N   0  0  0  0  0  0  0  0  0  0  0  0
    6.1951  -17.0994   24.0298 C   0  0  1  0  0  0  0  0  0  0  0  0
    5.5887  -16.7292   25.3424 C   0  0  0  0  0  0  0  0  0  0  0  0
    6.1167  -15.0369   25.7508 S   0  0  0  0  0  0  0  0  0  0  0  0
    7.6482  -17.0961   23.9864 C   0  0  0  0  0  0  0  0  0  0  0  0
    8.2667  -18.0936   24.4379 O   0  0  0  0  0  0  0  0  0  0  0  0
    8.4313  -16.0319   23.4632 N   0  0  0  0  0  0  0  0  0  0  0  0
    9.8966  -16.0611   23.5510 C   0  0  1  0  0  0  0  0  0  0  0  0
   10.4335  -15.4542   22.2937 C   0  0  0  0  0  0  0  0  0  0  0  0
   10.4445  -16.3681   21.1315 C   0  0  0  0  0  0  0  0  0  0  0  0
   10.1688  -17.7239   21.2769 C   0  0  0  0  0  0  0  0  0  0  0  0
   10.2561  -18.2810   20.0525 N   0  0  0  0  0  0  0  0  0  0  0  0
   10.5738  -17.3195   19.1668 C   0  0  0  0  0  0  0  0  0  0  0  0
   10.6850  -16.1660   19.8327 N   0  0  0  0  0  0  0  0  0  0  0  0
   10.2947  -15.3023   24.7839 C   0  0  0  0  0  0  0  0  0  0  0  0
   10.3990  -14.0619   24.8349 O   0  0  0  0  0  0  0  0  0  0  0  0
    9.1145  -13.6882   26.5690 C   0  0  0  0  0  0  0  0  0  0  0  0
    9.5119  -14.6442   27.6467 C   0  0  2  0  0  0  0  0  0  0  0  0
    9.6572  -13.9345   28.9727 C   0  0  0  0  0  0  0  0  0  0  0  0
   10.7830  -15.3499   27.2435 C   0  0  2  0  0  0  0  0  0  0  0  0
   10.5787  -16.0305   25.9941 N   0  0  0  0  0  0  0  0  0  0  0  0
   11.1888  -16.3233   28.3050 C   0  0  0  0  0  0  0  0  0  0  0  0
   10.8294  -17.5216   28.2224 O   0  0  0  0  0  0  0  0  0  0  0  0
   11.9578  -15.9481   29.3924 O   0  0  0  0  0  0  0  0  0  0  0  0
  2  1  1  1
  2  5  1  0
  3  2  1  0
  4  3  1  0
  5  6  2  0
  7  5  1  0
  7  8  1  0
  9 10  1  0
  8  9  1  6
 10 14  1  0
 11 12  1  0
 11 10  2  0
 12 13  1  0
 13 14  2  0
 15  8  1  0
 15 21  1  0
 16 15  2  0
 18 19  1  1
 18 17  1  0
 20 21  1  6
 20 18  1  0
 22 20  1  0
 23 22  2  0
 24 22  1  0
M  END
$$$$
