CHV.pdb
     RDKit          3D

 24 24  0  0  1  0  0  0  0  0999 V2000
    7.6730  -15.6902   18.3975 N   0  0  0  0  0  0  0  0  0  0  0  0
    8.5801  -15.2789   19.4381 C   0  0  1  0  0  0  0  0  0  0  0  0
    8.9376  -13.8466   19.2185 C   0  0  0  0  0  0  0  0  0  0  0  0
    7.7010  -12.8192   20.0699 S   0  0  0  0  0  0  0  0  0  0  0  0
    8.0711  -15.6032   20.7607 C   0  0  0  0  0  0  0  0  0  0  0  0
    6.8280  -15.5825   20.9497 O   0  0  0  0  0  0  0  0  0  0  0  0
    8.8885  -15.9469   21.8713 N   0  0  0  0  0  0  0  0  0  0  0  0
    8.2914  -16.3047   23.1639 C   0  0  1  0  0  0  0  0  0  0  0  0
    8.8043  -17.6599   23.5351 C   0  0  0  0  0  0  0  0  0  0  0  0
    8.1414  -18.7775   22.8296 C   0  0  0  0  0  0  0  0  0  0  0  0
    7.1398  -18.5464   21.8923 C   0  0  0  0  0  0  0  0  0  0  0  0
    6.7408  -19.7489   21.4321 N   0  0  0  0  0  0  0  0  0  0  0  0
    7.4588  -20.7035   22.0511 C   0  0  0  0  0  0  0  0  0  0  0  0
    8.3032  -20.1023   22.8947 N   0  0  0  0  0  0  0  0  0  0  0  0
    8.6749  -15.2423   24.1531 C   0  0  0  0  0  0  0  0  0  0  0  0
    9.8257  -14.7783   24.2656 O   0  0  0  0  0  0  0  0  0  0  0  0
    5.9866  -12.5199   25.2809 C   0  0  0  0  0  0  0  0  0  0  0  0
    6.7282  -13.0268   26.4752 C   0  0  2  0  0  0  0  0  0  0  0  0
    7.0145  -11.9077   27.4493 C   0  0  0  0  0  0  0  0  0  0  0  0
    7.9917  -13.7158   26.0222 C   0  0  2  0  0  0  0  0  0  0  0  0
    7.6688  -14.7112   25.0368 N   0  0  0  0  0  0  0  0  0  0  0  0
    8.6803  -14.3464   27.1914 C   0  0  0  0  0  0  0  0  0  0  0  0
    8.4335  -15.5383   27.4918 O   0  0  0  0  0  0  0  0  0  0  0  0
    9.5940  -13.6555   27.9676 O   0  0  0  0  0  0  0  0  0  0  0  0
  2  1  1  6
  2  5  1  0
  3  2  1  0
  4  3  1  0
  5  6  2  0
  7  5  1  0
  7  8  1  0
  9 10  1  0
  8  9  1  1
 10 14  1  0
 11 12  1  0
 11 10  2  0
 12 13  1  0
 13 14  2  0
 15  8  1  0
 15 21  1  0
 16 15  2  0
 18 19  1  1
 18 17  1  0
 20 21  1  6
 20 18  1  0
 22 20  1  0
 23 22  2  0
 24 22  1  0
M  END
$$$$
