CHV.pdb
     RDKit          3D

 24 24  0  0  1  0  0  0  0  0999 V2000
    7.6214  -14.5673   18.3214 N   0  0  0  0  0  0  0  0  0  0  0  0
    8.3694  -14.0889   19.4556 C   0  0  1  0  0  0  0  0  0  0  0  0
    8.3057  -12.5979   19.4728 C   0  0  0  0  0  0  0  0  0  0  0  0
    9.1074  -11.9813   17.9606 S   0  0  0  0  0  0  0  0  0  0  0  0
    7.9680  -14.7486   20.6874 C   0  0  0  0  0  0  0  0  0  0  0  0
    6.7509  -15.0140   20.8596 O   0  0  0  0  0  0  0  0  0  0  0  0
    8.8643  -15.1204   21.7256 N   0  0  0  0  0  0  0  0  0  0  0  0
    8.3783  -15.8002   22.9328 C   0  0  1  0  0  0  0  0  0  0  0  0
    8.9113  -17.1975   22.9060 C   0  0  0  0  0  0  0  0  0  0  0  0
    8.3195  -18.0562   21.8579 C   0  0  0  0  0  0  0  0  0  0  0  0
    7.0479  -18.6012   22.0042 C   0  0  0  0  0  0  0  0  0  0  0  0
    6.7959  -19.3257   20.8958 N   0  0  0  0  0  0  0  0  0  0  0  0
    7.8624  -19.2443   20.0799 C   0  0  0  0  0  0  0  0  0  0  0  0
    8.7780  -18.4728   20.6739 N   0  0  0  0  0  0  0  0  0  0  0  0
    8.8538  -15.0148   24.1209 C   0  0  0  0  0  0  0  0  0  0  0  0
   10.0048  -14.5517   24.2343 O   0  0  0  0  0  0  0  0  0  0  0  0
    5.9875  -13.7929   27.0106 C   0  0  0  0  0  0  0  0  0  0  0  0
    7.2377  -13.0292   26.7152 C   0  0  2  0  0  0  0  0  0  0  0  0
    7.0034  -12.0085   25.6260 C   0  0  0  0  0  0  0  0  0  0  0  0
    8.3387  -13.9955   26.3539 C   0  0  2  0  0  0  0  0  0  0  0  0
    7.9421  -14.7687   25.2088 N   0  0  0  0  0  0  0  0  0  0  0  0
    8.6323  -14.8959   27.5123 C   0  0  0  0  0  0  0  0  0  0  0  0
    8.2364  -16.0853   27.4935 O   0  0  0  0  0  0  0  0  0  0  0  0
    9.3351  -14.4615   28.6222 O   0  0  0  0  0  0  0  0  0  0  0  0
  2  1  1  6
  2  5  1  0
  3  2  1  0
  4  3  1  0
  5  6  2  0
  7  5  1  0
  7  8  1  0
  9 10  1  0
  8  9  1  1
 10 14  1  0
 11 12  1  0
 11 10  2  0
 12 13  1  0
 13 14  2  0
 15  8  1  0
 15 21  1  0
 16 15  2  0
 18 19  1  6
 18 17  1  0
 20 21  1  6
 20 18  1  0
 22 20  1  0
 23 22  2  0
 24 22  1  0
M  END
$$$$
