ECE.pdb
     RDKit          3D

 25 24  0  0  1  0  0  0  0  0999 V2000
    7.7951  -14.2974   20.3300 N   0  0  0  0  0  0  0  0  0  0  0  0
    6.9892  -14.9286   21.3985 C   0  0  1  0  0  0  0  0  0  0  0  0
    7.1362  -16.4082   21.3406 C   0  0  0  0  0  0  0  0  0  0  0  0
    8.5121  -16.9507   21.4604 C   0  0  0  0  0  0  0  0  0  0  0  0
    8.5023  -18.4480   21.3024 C   0  0  0  0  0  0  0  0  0  0  0  0
    7.4163  -19.0021   21.0878 O   0  0  0  0  0  0  0  0  0  0  0  0
    7.5559  -14.4064   22.6646 C   0  0  0  0  0  0  0  0  0  0  0  0
    8.8078  -14.3153   22.7396 O   0  0  0  0  0  0  0  0  0  0  0  0
    9.6388  -19.2127   21.3864 O   0  0  0  0  0  0  0  0  0  0  0  0
    6.7330  -14.0168   23.7663 N   0  0  0  0  0  0  0  0  0  0  0  0
    7.3557  -13.5401   24.9551 C   0  0  1  0  0  0  0  0  0  0  0  0
    6.3759  -12.8825   25.9084 C   0  0  0  0  0  0  0  0  0  0  0  0
    7.2874  -12.2564   27.3166 S   0  0  0  0  0  0  0  0  0  0  0  0
    8.1295  -14.6125   25.6608 C   0  0  0  0  0  0  0  0  0  0  0  0
    7.6356  -15.7528   25.8524 O   0  0  0  0  0  0  0  0  0  0  0  0
    9.4482  -14.4140   26.1508 N   0  0  0  0  0  0  0  0  0  0  0  0
   10.2334  -15.4623   26.7742 C   0  0  1  0  0  0  0  0  0  0  0  0
   11.5388  -15.6972   26.0875 C   0  0  0  0  0  0  0  0  0  0  0  0
   12.3498  -16.8055   26.6976 C   0  0  0  0  0  0  0  0  0  0  0  0
   13.6655  -17.0185   26.0958 C   0  0  0  0  0  0  0  0  0  0  0  0
   14.2214  -16.3449   25.2168 O   0  0  0  0  0  0  0  0  0  0  0  0
   10.3987  -15.2213   28.2353 C   0  0  0  0  0  0  0  0  0  0  0  0
   10.1071  -14.1578   28.7938 O   0  0  0  0  0  0  0  0  0  0  0  0
   14.4028  -18.1247   26.5659 O   0  0  0  0  0  0  0  0  0  0  0  0
   10.9108  -16.2631   28.9936 O   0  0  0  0  0  0  0  0  0  0  0  0
  2  1  1  6
  2  7  1  0
  3  2  1  0
  4  3  1  0
  5  4  1  0
  6  5  2  0
  7 10  1  0
  7  8  2  0
  9  5  1  0
 10 11  1  0
 11 12  1  1
 13 12  1  0
 14 11  1  0
 14 16  1  0
 15 14  2  0
 17 18  1  6
 17 22  1  0
 17 16  1  0
 19 18  1  0
 19 20  1  0
 20 24  1  0
 21 20  2  0
 22 25  1  0
 23 22  2  0
M  END
$$$$
