ECE.pdb
     RDKit          3D

 25 24  0  0  1  0  0  0  0  0999 V2000
    8.2165  -18.4058   19.3856 N   0  0  0  0  0  0  0  0  0  0  0  0
    9.5826  -17.8771   19.1758 C   0  0  1  0  0  0  0  0  0  0  0  0
    9.8121  -17.6194   17.7283 C   0  0  0  0  0  0  0  0  0  0  0  0
    8.7042  -16.9791   16.9772 C   0  0  0  0  0  0  0  0  0  0  0  0
    9.0579  -16.8605   15.5184 C   0  0  0  0  0  0  0  0  0  0  0  0
    8.2076  -16.3904   14.7512 O   0  0  0  0  0  0  0  0  0  0  0  0
    9.6216  -16.6049   19.9354 C   0  0  0  0  0  0  0  0  0  0  0  0
   10.6852  -15.9363   19.8827 O   0  0  0  0  0  0  0  0  0  0  0  0
   10.2732  -17.2494   15.0133 O   0  0  0  0  0  0  0  0  0  0  0  0
    8.5090  -16.1387   20.7018 N   0  0  0  0  0  0  0  0  0  0  0  0
    8.7544  -15.4873   21.9443 C   0  0  1  0  0  0  0  0  0  0  0  0
    7.5249  -14.7899   22.4948 C   0  0  0  0  0  0  0  0  0  0  0  0
    7.9474  -14.0554   24.0720 S   0  0  0  0  0  0  0  0  0  0  0  0
    9.3290  -16.4172   22.9698 C   0  0  0  0  0  0  0  0  0  0  0  0
    8.8076  -17.5386   23.1969 O   0  0  0  0  0  0  0  0  0  0  0  0
   10.4802  -16.0979   23.7390 N   0  0  0  0  0  0  0  0  0  0  0  0
   11.1482  -17.0489   24.6069 C   0  0  1  0  0  0  0  0  0  0  0  0
   12.5367  -17.3687   24.1590 C   0  0  0  0  0  0  0  0  0  0  0  0
   13.5150  -16.2503   24.3840 C   0  0  0  0  0  0  0  0  0  0  0  0
   14.7877  -16.3845   23.6764 C   0  0  0  0  0  0  0  0  0  0  0  0
   15.1728  -17.3261   22.9689 O   0  0  0  0  0  0  0  0  0  0  0  0
   11.1001  -16.6120   26.0307 C   0  0  0  0  0  0  0  0  0  0  0  0
   10.6494  -15.5219   26.4002 O   0  0  0  0  0  0  0  0  0  0  0  0
   15.6984  -15.3159   23.8077 O   0  0  0  0  0  0  0  0  0  0  0  0
   11.5943  -17.4941   26.9793 O   0  0  0  0  0  0  0  0  0  0  0  0
  2  1  1  6
  2  7  1  0
  3  2  1  0
  4  3  1  0
  5  4  1  0
  6  5  2  0
  7 10  1  0
  7  8  2  0
  9  5  1  0
 10 11  1  0
 11 12  1  1
 13 12  1  0
 14 11  1  0
 14 16  1  0
 15 14  2  0
 17 18  1  6
 17 22  1  0
 17 16  1  0
 19 18  1  0
 19 20  1  0
 20 24  1  0
 21 20  2  0
 22 25  1  0
 23 22  2  0
M  END
$$$$
