ECE.pdb
     RDKit          3D

 25 24  0  0  1  0  0  0  0  0999 V2000
    8.4521  -16.7429   17.2777 N   0  0  0  0  0  0  0  0  0  0  0  0
    7.6762  -17.1840   18.4580 C   0  0  1  0  0  0  0  0  0  0  0  0
    7.8624  -18.6446   18.6730 C   0  0  0  0  0  0  0  0  0  0  0  0
    9.0965  -19.2524   18.1168 C   0  0  0  0  0  0  0  0  0  0  0  0
    9.1061  -20.7383   18.3599 C   0  0  0  0  0  0  0  0  0  0  0  0
    8.1555  -21.2312   18.9812 O   0  0  0  0  0  0  0  0  0  0  0  0
    8.2437  -16.4221   19.5957 C   0  0  0  0  0  0  0  0  0  0  0  0
    9.4607  -16.1129   19.5305 O   0  0  0  0  0  0  0  0  0  0  0  0
   10.1173  -21.5572   17.9237 O   0  0  0  0  0  0  0  0  0  0  0  0
    7.4590  -16.0442   20.7289 N   0  0  0  0  0  0  0  0  0  0  0  0
    8.0825  -15.3249   21.7882 C   0  0  1  0  0  0  0  0  0  0  0  0
    7.0823  -14.6788   22.7280 C   0  0  0  0  0  0  0  0  0  0  0  0
    7.9841  -13.8451   24.0309 S   0  0  0  0  0  0  0  0  0  0  0  0
    9.0494  -16.1724   22.5588 C   0  0  0  0  0  0  0  0  0  0  0  0
    8.7648  -17.3533   22.8838 O   0  0  0  0  0  0  0  0  0  0  0  0
   10.3281  -15.7051   22.9651 N   0  0  0  0  0  0  0  0  0  0  0  0
   11.3139  -16.5457   23.6175 C   0  0  1  0  0  0  0  0  0  0  0  0
   12.7138  -16.0681   23.4098 C   0  0  0  0  0  0  0  0  0  0  0  0
   13.7489  -16.9261   24.0812 C   0  0  0  0  0  0  0  0  0  0  0  0
   15.1239  -16.4391   23.9774 C   0  0  0  0  0  0  0  0  0  0  0  0
   15.5892  -15.6335   23.1589 O   0  0  0  0  0  0  0  0  0  0  0  0
   10.9918  -16.7420   25.0591 C   0  0  0  0  0  0  0  0  0  0  0  0
   10.2863  -15.9692   25.7172 O   0  0  0  0  0  0  0  0  0  0  0  0
   16.0440  -16.9413   24.9205 O   0  0  0  0  0  0  0  0  0  0  0  0
   11.5240  -17.8624   25.6786 O   0  0  0  0  0  0  0  0  0  0  0  0
  2  1  1  6
  2  7  1  0
  3  2  1  0
  4  3  1  0
  5  4  1  0
  6  5  2  0
  7 10  1  0
  7  8  2  0
  9  5  1  0
 10 11  1  0
 11 12  1  1
 13 12  1  0
 14 11  1  0
 14 16  1  0
 15 14  2  0
 17 18  1  1
 17 22  1  0
 17 16  1  0
 19 18  1  0
 19 20  1  0
 20 24  1  0
 21 20  2  0
 22 25  1  0
 23 22  2  0
M  END
$$$$
