ECE.pdb
     RDKit          3D

 25 24  0  0  1  0  0  0  0  0999 V2000
    8.0279  -17.6086   19.2034 N   0  0  0  0  0  0  0  0  0  0  0  0
    9.4906  -17.7092   19.4038 C   0  0  1  0  0  0  0  0  0  0  0  0
   10.2058  -17.1103   18.2445 C   0  0  0  0  0  0  0  0  0  0  0  0
   11.6887  -17.1168   18.2951 C   0  0  0  0  0  0  0  0  0  0  0  0
   12.2538  -17.7746   17.0642 C   0  0  0  0  0  0  0  0  0  0  0  0
   13.4305  -18.1577   17.0989 O   0  0  0  0  0  0  0  0  0  0  0  0
    9.7632  -16.9279   20.6335 C   0  0  0  0  0  0  0  0  0  0  0  0
   10.9662  -16.7912   20.9728 O   0  0  0  0  0  0  0  0  0  0  0  0
   11.5220  -17.9631   15.9186 O   0  0  0  0  0  0  0  0  0  0  0  0
    8.7182  -16.3457   21.4156 N   0  0  0  0  0  0  0  0  0  0  0  0
    9.0454  -15.7542   22.6691 C   0  0  1  0  0  0  0  0  0  0  0  0
    7.9072  -14.9343   23.2467 C   0  0  0  0  0  0  0  0  0  0  0  0
    8.5883  -13.7639   24.4180 S   0  0  0  0  0  0  0  0  0  0  0  0
    9.5185  -16.7658   23.6688 C   0  0  0  0  0  0  0  0  0  0  0  0
    8.8041  -17.7505   23.9868 O   0  0  0  0  0  0  0  0  0  0  0  0
   10.7829  -16.6799   24.3111 N   0  0  0  0  0  0  0  0  0  0  0  0
   11.2584  -17.6590   25.2698 C   0  0  1  0  0  0  0  0  0  0  0  0
   12.7380  -17.8553   25.2149 C   0  0  0  0  0  0  0  0  0  0  0  0
   13.2564  -18.8208   26.2433 C   0  0  0  0  0  0  0  0  0  0  0  0
   14.7033  -19.0319   26.2258 C   0  0  0  0  0  0  0  0  0  0  0  0
   15.3213  -20.0621   25.9223 O   0  0  0  0  0  0  0  0  0  0  0  0
   10.7802  -17.3482   26.6465 C   0  0  0  0  0  0  0  0  0  0  0  0
   10.2692  -16.2699   26.9695 O   0  0  0  0  0  0  0  0  0  0  0  0
   15.5057  -17.9339   26.5985 O   0  0  0  0  0  0  0  0  0  0  0  0
   10.9264  -18.3392   27.6050 O   0  0  0  0  0  0  0  0  0  0  0  0
  2  1  1  6
  2  7  1  0
  3  2  1  0
  4  3  1  0
  5  4  1  0
  6  5  2  0
  7 10  1  0
  7  8  2  0
  9  5  1  0
 10 11  1  0
 11 12  1  1
 13 12  1  0
 14 11  1  0
 14 16  1  0
 15 14  2  0
 17 18  1  1
 17 22  1  0
 17 16  1  0
 19 18  1  0
 19 20  1  0
 20 24  1  0
 21 20  2  0
 22 25  1  0
 23 22  2  0
M  END
$$$$
