TYN.pdb
     RDKit          3D

 28 28  0  0  1  0  0  0  0  0999 V2000
   25.7735  -20.0689  -17.2584 C   0  0  0  0  0  0  0  0  0  0  0  0
   27.2701  -20.0084  -17.0348 C   0  0  1  0  0  0  0  0  0  0  0  0
   27.4986  -18.8960  -16.2157 O   0  0  0  0  0  0  0  0  0  0  0  0
   27.6910  -21.2235  -16.2339 C   0  0  2  0  0  0  0  0  0  0  0  0
   27.5657  -22.3759  -17.0881 N   0  0  0  0  0  0  0  0  0  0  0  0
   26.9047  -21.3587  -14.9828 C   0  0  0  0  0  0  0  0  0  0  0  0
   25.7547  -21.8608  -15.0239 O   0  0  0  0  0  0  0  0  0  0  0  0
   24.4273  -20.8393   -6.5511 O   0  0  0  0  0  0  0  0  0  0  0  0
   25.1953  -20.6874   -7.6831 C   0  0  0  0  0  0  0  0  0  0  0  0
   24.8101  -21.3965   -8.8061 C   0  0  0  0  0  0  0  0  0  0  0  0
   25.5391  -21.2859   -9.9698 C   0  0  0  0  0  0  0  0  0  0  0  0
   26.6575  -20.4840  -10.0666 C   0  0  0  0  0  0  0  0  0  0  0  0
   27.4275  -20.3822  -11.3346 C   0  0  0  0  0  0  0  0  0  0  0  0
   26.6217  -20.9463  -12.4995 C   0  0  2  0  0  0  0  0  0  0  0  0
   27.3888  -20.9432  -13.7116 N   0  0  0  0  0  0  0  0  0  0  0  0
   25.3686  -20.1690  -12.5985 C   0  0  0  0  0  0  0  0  0  0  0  0
   25.3971  -18.9880  -13.0324 O   0  0  0  0  0  0  0  0  0  0  0  0
   27.0356  -19.7749   -8.9294 C   0  0  0  0  0  0  0  0  0  0  0  0
   26.3110  -19.8814   -7.7634 C   0  0  0  0  0  0  0  0  0  0  0  0
   20.4744  -19.0922  -13.8224 N   0  0  0  0  0  0  0  0  0  0  0  0
   21.4490  -19.6321  -14.6983 C   0  0  0  0  0  0  0  0  0  0  0  0
   21.2057  -19.6921  -15.9149 O   0  0  0  0  0  0  0  0  0  0  0  0
   22.7133  -20.1028  -14.1428 C   0  0  0  0  0  0  0  0  0  0  0  0
   22.8342  -20.0377  -12.6400 C   0  0  2  0  0  0  0  0  0  0  0  0
   24.1000  -20.6796  -12.2267 N   0  0  0  0  0  0  0  0  0  0  0  0
   21.7819  -20.7931  -11.9431 C   0  0  0  0  0  0  0  0  0  0  0  0
   20.6792  -20.1533  -11.4243 O   0  0  0  0  0  0  0  0  0  0  0  0
   21.8609  -22.0253  -11.8048 O   0  0  0  0  0  0  0  0  0  0  0  0
  2  1  1  1
  2  4  1  0
  3  2  1  0
  4  5  1  6
  6  4  1  0
  7  6  2  0
  9  8  1  0
  9 10  2  0
 10 11  1  0
 12 13  1  0
 12 11  2  0
 14 15  1  0
 14 13  1  1
 15  6  1  0
 16 14  1  0
 17 16  2  0
 18 12  1  0
 19 18  2  0
 19  9  1  0
 20 21  1  0
 21 22  2  0
 23 21  1  0
 24 23  1  6
 24 25  1  0
 25 16  1  0
 26 24  1  0
 26 27  1  0
 28 26  2  0
M  END
$$$$
