TYN.pdb
     RDKit          3D

 28 28  0  0  1  0  0  0  0  0999 V2000
   27.1793  -19.6046  -18.4722 C   0  0  0  0  0  0  0  0  0  0  0  0
   27.7779  -20.9251  -18.9099 C   0  0  1  0  0  0  0  0  0  0  0  0
   28.6937  -20.6222  -19.9248 O   0  0  0  0  0  0  0  0  0  0  0  0
   28.5843  -21.4970  -17.7621 C   0  0  2  0  0  0  0  0  0  0  0  0
   29.1725  -22.7318  -18.2126 N   0  0  0  0  0  0  0  0  0  0  0  0
   27.7578  -21.6760  -16.5429 C   0  0  0  0  0  0  0  0  0  0  0  0
   26.8976  -22.5896  -16.5050 O   0  0  0  0  0  0  0  0  0  0  0  0
   24.2832  -20.3933   -8.5036 O   0  0  0  0  0  0  0  0  0  0  0  0
   25.0862  -20.3866   -9.6214 C   0  0  0  0  0  0  0  0  0  0  0  0
   25.5631  -19.1606  -10.0477 C   0  0  0  0  0  0  0  0  0  0  0  0
   26.3717  -19.0893  -11.1608 C   0  0  0  0  0  0  0  0  0  0  0  0
   26.7337  -20.2077  -11.8828 C   0  0  0  0  0  0  0  0  0  0  0  0
   27.6077  -20.1038  -13.0814 C   0  0  0  0  0  0  0  0  0  0  0  0
   27.0356  -20.9188  -14.2360 C   0  0  2  0  0  0  0  0  0  0  0  0
   27.8864  -20.8544  -15.3889 N   0  0  0  0  0  0  0  0  0  0  0  0
   25.6638  -20.4330  -14.4937 C   0  0  0  0  0  0  0  0  0  0  0  0
   25.4887  -19.3195  -15.0533 O   0  0  0  0  0  0  0  0  0  0  0  0
   26.2475  -21.4366  -11.4440 C   0  0  0  0  0  0  0  0  0  0  0  0
   25.4389  -21.5141  -10.3322 C   0  0  0  0  0  0  0  0  0  0  0  0
   20.5283  -19.9791  -15.1790 N   0  0  0  0  0  0  0  0  0  0  0  0
   21.0691  -21.1710  -15.7223 C   0  0  0  0  0  0  0  0  0  0  0  0
   20.3717  -21.8635  -16.4818 O   0  0  0  0  0  0  0  0  0  0  0  0
   22.4337  -21.5503  -15.3719 C   0  0  0  0  0  0  0  0  0  0  0  0
   23.1362  -20.6417  -14.3931 C   0  0  2  0  0  0  0  0  0  0  0  0
   24.4982  -21.1587  -14.1426 N   0  0  0  0  0  0  0  0  0  0  0  0
   22.4938  -20.6118  -13.0701 C   0  0  0  0  0  0  0  0  0  0  0  0
   21.5047  -19.6977  -12.7860 O   0  0  0  0  0  0  0  0  0  0  0  0
   22.8265  -21.4088  -12.1769 O   0  0  0  0  0  0  0  0  0  0  0  0
  2  1  1  1
  2  4  1  0
  3  2  1  0
  4  5  1  6
  6  4  1  0
  7  6  2  0
  9  8  1  0
  9 10  2  0
 10 11  1  0
 12 13  1  0
 12 11  2  0
 14 15  1  0
 14 13  1  1
 15  6  1  0
 16 14  1  0
 17 16  2  0
 18 12  1  0
 19 18  2  0
 19  9  1  0
 20 21  1  0
 21 22  2  0
 23 21  1  0
 24 23  1  6
 24 25  1  0
 25 16  1  0
 26 24  1  0
 26 27  1  0
 28 26  2  0
M  END
$$$$
