TYN.pdb
     RDKit          3D

 28 28  0  0  1  0  0  0  0  0999 V2000
   24.0368   -9.2888  -23.2620 C   0  0  0  0  0  0  0  0  0  0  0  0
   22.9940   -9.1375  -22.1743 C   0  0  1  0  0  0  0  0  0  0  0  0
   22.6080  -10.4357  -21.8192 O   0  0  0  0  0  0  0  0  0  0  0  0
   23.6532   -8.5369  -20.9497 C   0  0  2  0  0  0  0  0  0  0  0  0
   24.7093   -9.4262  -20.5402 N   0  0  0  0  0  0  0  0  0  0  0  0
   22.6737   -8.2845  -19.8641 C   0  0  0  0  0  0  0  0  0  0  0  0
   21.6469   -7.6021  -20.1011 O   0  0  0  0  0  0  0  0  0  0  0  0
   18.6922   -8.1852  -11.9989 O   0  0  0  0  0  0  0  0  0  0  0  0
   19.5917   -8.4620  -13.0032 C   0  0  0  0  0  0  0  0  0  0  0  0
   19.0973   -9.0706  -14.1423 C   0  0  0  0  0  0  0  0  0  0  0  0
   19.9488   -9.3729  -15.1823 C   0  0  0  0  0  0  0  0  0  0  0  0
   21.2983   -9.0901  -15.1371 C   0  0  0  0  0  0  0  0  0  0  0  0
   22.1965   -9.4271  -16.2733 C   0  0  0  0  0  0  0  0  0  0  0  0
   21.9780   -8.4640  -17.4349 C   0  0  2  0  0  0  0  0  0  0  0  0
   22.8340   -8.7818  -18.5412 N   0  0  0  0  0  0  0  0  0  0  0  0
   22.1692   -7.0906  -16.9233 C   0  0  0  0  0  0  0  0  0  0  0  0
   23.3319   -6.6561  -16.7157 O   0  0  0  0  0  0  0  0  0  0  0  0
   21.7846   -8.4773  -13.9852 C   0  0  0  0  0  0  0  0  0  0  0  0
   20.9384   -8.1727  -12.9424 C   0  0  0  0  0  0  0  0  0  0  0  0
   21.8039   -2.1297  -15.5882 N   0  0  0  0  0  0  0  0  0  0  0  0
   22.2717   -2.6212  -16.8323 C   0  0  0  0  0  0  0  0  0  0  0  0
   22.8685   -1.8521  -17.6038 O   0  0  0  0  0  0  0  0  0  0  0  0
   22.0374   -4.0210  -17.1709 C   0  0  0  0  0  0  0  0  0  0  0  0
   21.3168   -4.8368  -16.1259 C   0  0  2  0  0  0  0  0  0  0  0  0
   21.0994   -6.2046  -16.6428 N   0  0  0  0  0  0  0  0  0  0  0  0
   19.9699   -4.3281  -15.8241 C   0  0  0  0  0  0  0  0  0  0  0  0
   19.7206   -3.6373  -14.6600 O   0  0  0  0  0  0  0  0  0  0  0  0
   19.0248   -4.5083  -16.6101 O   0  0  0  0  0  0  0  0  0  0  0  0
  2  1  1  6
  2  4  1  0
  3  2  1  0
  4  5  1  1
  6  4  1  0
  7  6  2  0
  9  8  1  0
  9 10  2  0
 10 11  1  0
 12 13  1  0
 12 11  2  0
 14 15  1  0
 14 13  1  1
 15  6  1  0
 16 14  1  0
 17 16  2  0
 18 12  1  0
 19 18  2  0
 19  9  1  0
 20 21  1  0
 21 22  2  0
 23 21  1  0
 24 23  1  6
 24 25  1  0
 25 16  1  0
 26 24  1  0
 26 27  1  0
 28 26  2  0
M  END
$$$$
