TYN.pdb
     RDKit          3D

 28 28  0  0  1  0  0  0  0  0999 V2000
   33.2565  -14.6687  -18.5365 C   0  0  0  0  0  0  0  0  0  0  0  0
   33.1659  -13.1575  -18.4964 C   0  0  1  0  0  0  0  0  0  0  0  0
   34.4835  -12.6854  -18.5322 O   0  0  0  0  0  0  0  0  0  0  0  0
   32.5039  -12.6766  -19.7714 C   0  0  2  0  0  0  0  0  0  0  0  0
   33.3331  -13.0842  -20.8759 N   0  0  0  0  0  0  0  0  0  0  0  0
   32.2681  -11.2118  -19.7516 C   0  0  0  0  0  0  0  0  0  0  0  0
   33.0898  -10.4434  -20.3091 O   0  0  0  0  0  0  0  0  0  0  0  0
   28.3139   -3.4793  -20.2308 O   0  0  0  0  0  0  0  0  0  0  0  0
   28.5407   -4.8065  -19.9453 C   0  0  0  0  0  0  0  0  0  0  0  0
   29.0874   -5.5831  -20.9504 C   0  0  0  0  0  0  0  0  0  0  0  0
   29.3375   -6.9190  -20.7250 C   0  0  0  0  0  0  0  0  0  0  0  0
   29.0616   -7.5280  -19.5183 C   0  0  0  0  0  0  0  0  0  0  0  0
   29.3407   -8.9723  -19.3003 C   0  0  0  0  0  0  0  0  0  0  0  0
   30.8379   -9.2122  -19.1409 C   0  0  2  0  0  0  0  0  0  0  0  0
   31.1403  -10.6143  -19.1239 N   0  0  0  0  0  0  0  0  0  0  0  0
   31.2802   -8.5038  -17.9215 C   0  0  0  0  0  0  0  0  0  0  0  0
   31.0683   -9.0126  -16.7902 O   0  0  0  0  0  0  0  0  0  0  0  0
   28.5113   -6.7360  -18.5138 C   0  0  0  0  0  0  0  0  0  0  0  0
   28.2591   -5.4002  -18.7332 C   0  0  0  0  0  0  0  0  0  0  0  0
   34.7502   -7.4084  -14.0654 N   0  0  0  0  0  0  0  0  0  0  0  0
   34.6079   -6.7683  -15.3218 C   0  0  0  0  0  0  0  0  0  0  0  0
   35.1915   -5.6907  -15.5242 O   0  0  0  0  0  0  0  0  0  0  0  0
   33.7772   -7.3967  -16.3435 C   0  0  0  0  0  0  0  0  0  0  0  0
   32.5269   -6.6436  -16.7267 C   0  0  2  0  0  0  0  0  0  0  0  0
   31.9465   -7.2532  -17.9419 N   0  0  0  0  0  0  0  0  0  0  0  0
   32.7863   -5.2428  -17.0932 C   0  0  0  0  0  0  0  0  0  0  0  0
   33.1606   -4.9059  -18.3742 O   0  0  0  0  0  0  0  0  0  0  0  0
   32.6747   -4.3297  -16.2581 O   0  0  0  0  0  0  0  0  0  0  0  0
  2  1  1  6
  2  4  1  0
  3  2  1  0
  4  5  1  6
  6  4  1  0
  7  6  2  0
  9  8  1  0
  9 10  2  0
 10 11  1  0
 12 13  1  0
 12 11  2  0
 14 15  1  0
 14 13  1  1
 15  6  1  0
 16 14  1  0
 17 16  2  0
 18 12  1  0
 19 18  2  0
 19  9  1  0
 20 21  1  0
 21 22  2  0
 23 21  1  0
 24 23  1  6
 24 25  1  0
 25 16  1  0
 26 24  1  0
 26 27  1  0
 28 26  2  0
M  END
$$$$
