TYN.pdb
     RDKit          3D

 28 28  0  0  1  0  0  0  0  0999 V2000
   21.7306  -30.4770  -14.2765 C   0  0  0  0  0  0  0  0  0  0  0  0
   21.2515  -29.1822  -13.6538 C   0  0  1  0  0  0  0  0  0  0  0  0
   22.1586  -28.1949  -14.0574 O   0  0  0  0  0  0  0  0  0  0  0  0
   19.9162  -28.8133  -14.2668 C   0  0  2  0  0  0  0  0  0  0  0  0
   20.1382  -28.5277  -15.6607 N   0  0  0  0  0  0  0  0  0  0  0  0
   19.2755  -27.6814  -13.5526 C   0  0  0  0  0  0  0  0  0  0  0  0
   19.6845  -26.5112  -13.7511 O   0  0  0  0  0  0  0  0  0  0  0  0
   15.5808  -23.9250  -17.2514 O   0  0  0  0  0  0  0  0  0  0  0  0
   15.6983  -24.6462  -16.0851 C   0  0  0  0  0  0  0  0  0  0  0  0
   15.8603  -23.9288  -14.9139 C   0  0  0  0  0  0  0  0  0  0  0  0
   15.9836  -24.5945  -13.7141 C   0  0  0  0  0  0  0  0  0  0  0  0
   15.9521  -25.9710  -13.6273 C   0  0  0  0  0  0  0  0  0  0  0  0
   16.0878  -26.6657  -12.3195 C   0  0  0  0  0  0  0  0  0  0  0  0
   17.5554  -26.7843  -11.9237 C   0  0  2  0  0  0  0  0  0  0  0  0
   18.2010  -27.8490  -12.6358 N   0  0  0  0  0  0  0  0  0  0  0  0
   17.6146  -26.9426  -10.4555 C   0  0  0  0  0  0  0  0  0  0  0  0
   17.6989  -28.0932   -9.9528 O   0  0  0  0  0  0  0  0  0  0  0  0
   15.7886  -26.6825  -14.8130 C   0  0  0  0  0  0  0  0  0  0  0  0
   15.6648  -26.0227  -16.0153 C   0  0  0  0  0  0  0  0  0  0  0  0
   17.9029  -25.8511   -5.2980 N   0  0  0  0  0  0  0  0  0  0  0  0
   18.5937  -24.8695   -6.0514 C   0  0  0  0  0  0  0  0  0  0  0  0
   19.2419  -23.9924   -5.4569 O   0  0  0  0  0  0  0  0  0  0  0  0
   18.5224  -24.9188   -7.5078 C   0  0  0  0  0  0  0  0  0  0  0  0
   17.6879  -26.0350   -8.0862 C   0  0  2  0  0  0  0  0  0  0  0  0
   17.5817  -25.8534   -9.5495 N   0  0  0  0  0  0  0  0  0  0  0  0
   16.2987  -26.0274   -7.6024 C   0  0  0  0  0  0  0  0  0  0  0  0
   15.8561  -26.9788   -6.7117 O   0  0  0  0  0  0  0  0  0  0  0  0
   15.4909  -25.1642   -7.9843 O   0  0  0  0  0  0  0  0  0  0  0  0
  2  1  1  6
  2  4  1  0
  3  2  1  0
  4  5  1  6
  6  4  1  0
  7  6  2  0
  9  8  1  0
  9 10  2  0
 10 11  1  0
 12 13  1  0
 12 11  2  0
 14 15  1  0
 14 13  1  6
 15  6  1  0
 16 14  1  0
 17 16  2  0
 18 12  1  0
 19 18  2  0
 19  9  1  0
 20 21  1  0
 21 22  2  0
 23 21  1  0
 24 23  1  1
 24 25  1  0
 25 16  1  0
 26 24  1  0
 26 27  1  0
 28 26  2  0
M  END
$$$$
