TYN.pdb
     RDKit          3D

 28 28  0  0  1  0  0  0  0  0999 V2000
   22.3571   -9.4554  -20.6641 C   0  0  0  0  0  0  0  0  0  0  0  0
   21.3994  -10.5910  -20.9589 C   0  0  1  0  0  0  0  0  0  0  0  0
   21.9942  -11.3511  -21.9732 O   0  0  0  0  0  0  0  0  0  0  0  0
   21.3210  -11.4887  -19.7411 C   0  0  2  0  0  0  0  0  0  0  0  0
   20.6355  -12.6942  -20.1290 N   0  0  0  0  0  0  0  0  0  0  0  0
   20.6660  -10.8090  -18.5963 C   0  0  0  0  0  0  0  0  0  0  0  0
   19.5731  -10.2160  -18.7695 O   0  0  0  0  0  0  0  0  0  0  0  0
   16.1307  -14.5860  -15.9329 O   0  0  0  0  0  0  0  0  0  0  0  0
   17.2201  -13.7712  -15.7242 C   0  0  0  0  0  0  0  0  0  0  0  0
   16.9785  -12.5224  -15.1816 C   0  0  0  0  0  0  0  0  0  0  0  0
   18.0286  -11.6613  -14.9494 C   0  0  0  0  0  0  0  0  0  0  0  0
   19.3351  -11.9958  -15.2397 C   0  0  0  0  0  0  0  0  0  0  0  0
   20.4511  -11.0479  -14.9798 C   0  0  0  0  0  0  0  0  0  0  0  0
   20.6421  -10.1054  -16.1629 C   0  0  2  0  0  0  0  0  0  0  0  0
   21.2165  -10.7899  -17.2849 N   0  0  0  0  0  0  0  0  0  0  0  0
   21.4524   -8.9595  -15.6996 C   0  0  0  0  0  0  0  0  0  0  0  0
   22.6534   -8.8553  -16.0608 O   0  0  0  0  0  0  0  0  0  0  0  0
   19.5661  -13.2558  -15.7857 C   0  0  0  0  0  0  0  0  0  0  0  0
   18.5206  -14.1207  -16.0200 C   0  0  0  0  0  0  0  0  0  0  0  0
   23.0672   -4.2753  -14.3115 N   0  0  0  0  0  0  0  0  0  0  0  0
   22.8664   -4.7800  -15.6203 C   0  0  0  0  0  0  0  0  0  0  0  0
   23.2874   -4.1318  -16.5927 O   0  0  0  0  0  0  0  0  0  0  0  0
   22.1686   -6.0505  -15.7871 C   0  0  0  0  0  0  0  0  0  0  0  0
   21.7371   -6.7340  -14.5128 C   0  0  2  0  0  0  0  0  0  0  0  0
   20.9527   -7.9405  -14.8510 N   0  0  0  0  0  0  0  0  0  0  0  0
   20.8325   -5.9118  -13.6946 C   0  0  0  0  0  0  0  0  0  0  0  0
   19.5510   -6.3320  -13.4197 O   0  0  0  0  0  0  0  0  0  0  0  0
   21.2009   -4.8193  -13.2315 O   0  0  0  0  0  0  0  0  0  0  0  0
  2  1  1  1
  2  4  1  0
  3  2  1  0
  4  5  1  6
  6  4  1  0
  7  6  2  0
  9  8  1  0
  9 10  2  0
 10 11  1  0
 12 13  1  0
 12 11  2  0
 14 15  1  0
 14 13  1  1
 15  6  1  0
 16 14  1  0
 17 16  2  0
 18 12  1  0
 19 18  2  0
 19  9  1  0
 20 21  1  0
 21 22  2  0
 23 21  1  0
 24 23  1  6
 24 25  1  0
 25 16  1  0
 26 24  1  0
 26 27  1  0
 28 26  2  0
M  END
$$$$
