TYN.pdb
     RDKit          3D

 28 28  0  0  1  0  0  0  0  0999 V2000
   34.1959  -11.8808  -18.6116 C   0  0  0  0  0  0  0  0  0  0  0  0
   33.7782  -12.9590  -19.5896 C   0  0  1  0  0  0  0  0  0  0  0  0
   34.8264  -13.8868  -19.6203 O   0  0  0  0  0  0  0  0  0  0  0  0
   32.5770  -13.6887  -19.0242 C   0  0  2  0  0  0  0  0  0  0  0  0
   32.3443  -14.8498  -19.8436 N   0  0  0  0  0  0  0  0  0  0  0  0
   31.3859  -12.8078  -18.9404 C   0  0  0  0  0  0  0  0  0  0  0  0
   30.7554  -12.5157  -19.9860 O   0  0  0  0  0  0  0  0  0  0  0  0
   25.6494  -16.1141  -18.3521 O   0  0  0  0  0  0  0  0  0  0  0  0
   26.4654  -15.1088  -17.8856 C   0  0  0  0  0  0  0  0  0  0  0  0
   26.0240  -13.8091  -18.0543 C   0  0  0  0  0  0  0  0  0  0  0  0
   26.7969  -12.7595  -17.6081 C   0  0  0  0  0  0  0  0  0  0  0  0
   28.0146  -12.9510  -16.9888 C   0  0  0  0  0  0  0  0  0  0  0  0
   28.8302  -11.8007  -16.5164 C   0  0  0  0  0  0  0  0  0  0  0  0
   29.8047  -11.3520  -17.5998 C   0  0  2  0  0  0  0  0  0  0  0  0
   30.9063  -12.2631  -17.7172 N   0  0  0  0  0  0  0  0  0  0  0  0
   30.2206   -9.9688  -17.2866 C   0  0  0  0  0  0  0  0  0  0  0  0
   31.0318   -9.7563  -16.3483 O   0  0  0  0  0  0  0  0  0  0  0  0
   28.4486  -14.2638  -16.8244 C   0  0  0  0  0  0  0  0  0  0  0  0
   27.6806  -15.3170  -17.2683 C   0  0  0  0  0  0  0  0  0  0  0  0
   32.2993   -5.4154  -16.8250 N   0  0  0  0  0  0  0  0  0  0  0  0
   32.4824   -6.2260  -17.9728 C   0  0  0  0  0  0  0  0  0  0  0  0
   33.2189   -5.8244  -18.8889 O   0  0  0  0  0  0  0  0  0  0  0  0
   31.7981   -7.5126  -18.0443 C   0  0  0  0  0  0  0  0  0  0  0  0
   30.3126   -7.4809  -17.7809 C   0  0  2  0  0  0  0  0  0  0  0  0
   29.7532   -8.8327  -17.9931 N   0  0  0  0  0  0  0  0  0  0  0  0
   29.5786   -6.6165  -18.7179 C   0  0  0  0  0  0  0  0  0  0  0  0
   28.8195   -7.1573  -19.7307 O   0  0  0  0  0  0  0  0  0  0  0  0
   29.6247   -5.3788  -18.6196 O   0  0  0  0  0  0  0  0  0  0  0  0
  2  1  1  1
  2  4  1  0
  3  2  1  0
  4  5  1  6
  6  4  1  0
  7  6  2  0
  9  8  1  0
  9 10  2  0
 10 11  1  0
 12 13  1  0
 12 11  2  0
 14 15  1  0
 14 13  1  1
 15  6  1  0
 16 14  1  0
 17 16  2  0
 18 12  1  0
 19 18  2  0
 19  9  1  0
 20 21  1  0
 21 22  2  0
 23 21  1  0
 24 23  1  6
 24 25  1  0
 25 16  1  0
 26 24  1  0
 26 27  1  0
 28 26  2  0
M  END
$$$$
