KWR.pdb
     RDKit          3D

 35 36  0  0  1  0  0  0  0  0999 V2000
    8.4679  -13.6087   18.0393 N   0  0  0  0  0  0  0  0  0  0  0  0
    8.8727  -14.8658   18.6307 C   0  0  1  0  0  0  0  0  0  0  0  0
   10.2367  -15.3013   18.1629 C   0  0  0  0  0  0  0  0  0  0  0  0
   10.2510  -15.6955   16.7068 C   0  0  0  0  0  0  0  0  0  0  0  0
   11.6083  -16.1840   16.2616 C   0  0  0  0  0  0  0  0  0  0  0  0
   11.5710  -16.6710   14.8298 C   0  0  0  0  0  0  0  0  0  0  0  0
   12.8968  -16.9944   14.3461 N   0  0  0  0  0  0  0  0  0  0  0  0
    8.9327  -14.6828   20.0993 C   0  0  0  0  0  0  0  0  0  0  0  0
    9.7282  -13.8618   20.6195 O   0  0  0  0  0  0  0  0  0  0  0  0
    8.0961  -15.4269   20.9723 N   0  0  0  0  0  0  0  0  0  0  0  0
    8.0960  -15.1770   22.3887 C   0  0  1  0  0  0  0  0  0  0  0  0
    6.7379  -15.2300   23.0247 C   0  0  0  0  0  0  0  0  0  0  0  0
    6.7615  -14.9873   24.4740 C   0  0  0  0  0  0  0  0  0  0  0  0
    6.7372  -15.9752   25.4597 C   0  0  0  0  0  0  0  0  0  0  0  0
    6.7995  -15.3799   26.6623 N   0  0  0  0  0  0  0  0  0  0  0  0
    6.8635  -14.0320   26.5013 C   0  0  0  0  0  0  0  0  0  0  0  0
    6.9331  -13.0358   27.4464 C   0  0  0  0  0  0  0  0  0  0  0  0
    6.9793  -11.7348   26.9937 C   0  0  0  0  0  0  0  0  0  0  0  0
    6.9577  -11.4199   25.6571 C   0  0  0  0  0  0  0  0  0  0  0  0
    6.8875  -12.4526   24.7460 C   0  0  0  0  0  0  0  0  0  0  0  0
    6.8390  -13.7909   25.1321 C   0  0  0  0  0  0  0  0  0  0  0  0
    8.9167  -16.2239   23.0532 C   0  0  0  0  0  0  0  0  0  0  0  0
    8.8004  -17.4124   22.6603 O   0  0  0  0  0  0  0  0  0  0  0  0
   15.5589  -14.6187   20.4462 N   0  0  0  0  0  0  0  0  0  0  0  0
   14.1648  -14.4758   20.2655 C   0  0  0  0  0  0  0  0  0  0  0  0
   13.7018  -13.5892   19.4371 N   0  0  0  0  0  0  0  0  0  0  0  0
   13.2161  -15.2690   20.9578 N   0  0  0  0  0  0  0  0  0  0  0  0
   13.6116  -15.9790   22.1547 C   0  0  0  0  0  0  0  0  0  0  0  0
   12.3758  -16.7812   22.6002 C   0  0  0  0  0  0  0  0  0  0  0  0
   12.1501  -16.4645   24.0401 C   0  0  0  0  0  0  0  0  0  0  0  0
   10.7812  -16.9194   24.5011 C   0  0  2  0  0  0  0  0  0  0  0  0
    9.8117  -15.9193   24.1006 N   0  0  0  0  0  0  0  0  0  0  0  0
   10.6602  -17.0931   25.9523 C   0  0  0  0  0  0  0  0  0  0  0  0
   10.4405  -16.1051   26.7357 O   0  0  0  0  0  0  0  0  0  0  0  0
   10.7710  -18.3225   26.5865 O   0  0  0  0  0  0  0  0  0  0  0  0
  2  1  1  6
  3  4  1  0
  3  2  1  0
  4  5  1  0
  5  6  1  0
  6  7  1  0
  8 10  1  0
  8  2  1  0
  9  8  2  0
 11 22  1  0
 11 10  1  0
 12 13  1  0
 11 12  1  1
 13 14  2  0
 13 21  1  0
 14 15  1  0
 15 16  1  0
 16 17  2  0
 17 18  1  0
 19 18  2  0
 20 19  1  0
 21 20  2  0
 21 16  1  0
 22 23  2  0
 24 25  1  0
 25 26  2  0
 25 27  1  0
 27 28  1  0
 29 28  1  0
 30 29  1  0
 31 30  1  1
 31 33  1  0
 32 31  1  0
 32 22  1  0
 33 34  2  0
 33 35  1  0
M  END
$$$$
