KWR.pdb
     RDKit          3D

 35 36  0  0  1  0  0  0  0  0999 V2000
    7.3608  -16.4159   20.7483 N   0  0  0  0  0  0  0  0  0  0  0  0
    8.3053  -15.3262   20.6284 C   0  0  1  0  0  0  0  0  0  0  0  0
    7.6337  -14.0296   20.2584 C   0  0  0  0  0  0  0  0  0  0  0  0
    8.1081  -13.4895   18.9323 C   0  0  0  0  0  0  0  0  0  0  0  0
    7.2174  -13.9169   17.7907 C   0  0  0  0  0  0  0  0  0  0  0  0
    7.7768  -13.4615   16.4611 C   0  0  0  0  0  0  0  0  0  0  0  0
    6.9335  -13.8796   15.3610 N   0  0  0  0  0  0  0  0  0  0  0  0
    8.9593  -15.1401   21.9442 C   0  0  0  0  0  0  0  0  0  0  0  0
    9.7686  -14.1998   22.1402 O   0  0  0  0  0  0  0  0  0  0  0  0
    8.6975  -16.0156   23.0309 N   0  0  0  0  0  0  0  0  0  0  0  0
    9.4410  -15.9149   24.2580 C   0  0  1  0  0  0  0  0  0  0  0  0
    8.6079  -16.0579   25.4979 C   0  0  0  0  0  0  0  0  0  0  0  0
    7.5159  -15.0782   25.5844 C   0  0  0  0  0  0  0  0  0  0  0  0
    6.1718  -15.3395   25.3136 C   0  0  0  0  0  0  0  0  0  0  0  0
    5.4672  -14.2158   25.5261 N   0  0  0  0  0  0  0  0  0  0  0  0
    6.3030  -13.2223   25.9275 C   0  0  0  0  0  0  0  0  0  0  0  0
    6.0246  -11.9144   26.2477 C   0  0  0  0  0  0  0  0  0  0  0  0
    7.0830  -11.1138   26.6195 C   0  0  0  0  0  0  0  0  0  0  0  0
    8.3737  -11.5799   26.6757 C   0  0  0  0  0  0  0  0  0  0  0  0
    8.6044  -12.8988   26.3459 C   0  0  0  0  0  0  0  0  0  0  0  0
    7.5826  -13.7654   25.9622 C   0  0  0  0  0  0  0  0  0  0  0  0
   10.4454  -17.0107   24.2932 C   0  0  0  0  0  0  0  0  0  0  0  0
   10.0895  -18.1588   23.9248 O   0  0  0  0  0  0  0  0  0  0  0  0
   16.1325  -14.0692   21.4367 N   0  0  0  0  0  0  0  0  0  0  0  0
   15.3333  -14.7796   20.5129 C   0  0  0  0  0  0  0  0  0  0  0  0
   15.0378  -14.2508   19.3641 N   0  0  0  0  0  0  0  0  0  0  0  0
   14.8214  -16.0743   20.7777 N   0  0  0  0  0  0  0  0  0  0  0  0
   15.1196  -16.7197   22.0377 C   0  0  0  0  0  0  0  0  0  0  0  0
   13.7685  -17.1957   22.6009 C   0  0  0  0  0  0  0  0  0  0  0  0
   13.9768  -17.4696   24.0521 C   0  0  0  0  0  0  0  0  0  0  0  0
   12.6940  -17.9136   24.7235 C   0  0  2  0  0  0  0  0  0  0  0  0
   11.7716  -16.7957   24.7243 N   0  0  0  0  0  0  0  0  0  0  0  0
   12.8600  -18.3481   26.1143 C   0  0  0  0  0  0  0  0  0  0  0  0
   12.3950  -17.6695   27.0949 O   0  0  0  0  0  0  0  0  0  0  0  0
   13.5230  -19.5119   26.4773 O   0  0  0  0  0  0  0  0  0  0  0  0
  2  1  1  1
  3  4  1  0
  3  2  1  0
  4  5  1  0
  5  6  1  0
  6  7  1  0
  8 10  1  0
  8  2  1  0
  9  8  2  0
 11 22  1  0
 11 10  1  0
 12 13  1  0
 11 12  1  1
 13 14  2  0
 13 21  1  0
 14 15  1  0
 15 16  1  0
 16 17  2  0
 17 18  1  0
 19 18  2  0
 20 19  1  0
 21 20  2  0
 21 16  1  0
 22 23  2  0
 24 25  1  0
 25 26  2  0
 25 27  1  0
 27 28  1  0
 29 28  1  0
 30 29  1  0
 31 30  1  1
 31 33  1  0
 32 31  1  0
 32 22  1  0
 33 34  2  0
 33 35  1  0
M  END
$$$$
