KWR.pdb
     RDKit          3D

 35 36  0  0  1  0  0  0  0  0999 V2000
    7.4861  -16.2669   19.0481 N   0  0  0  0  0  0  0  0  0  0  0  0
    8.5381  -15.2799   19.1622 C   0  0  1  0  0  0  0  0  0  0  0  0
    8.1695  -13.9770   18.5021 C   0  0  0  0  0  0  0  0  0  0  0  0
    7.5502  -14.1724   17.1405 C   0  0  0  0  0  0  0  0  0  0  0  0
    8.2714  -13.3915   16.0684 C   0  0  0  0  0  0  0  0  0  0  0  0
    7.5570  -13.4999   14.7395 C   0  0  0  0  0  0  0  0  0  0  0  0
    8.1980  -12.6882   13.7263 N   0  0  0  0  0  0  0  0  0  0  0  0
    8.7617  -15.0129   20.6017 C   0  0  0  0  0  0  0  0  0  0  0  0
    9.7112  -14.2871   20.9880 O   0  0  0  0  0  0  0  0  0  0  0  0
    7.9138  -15.5662   21.5972 N   0  0  0  0  0  0  0  0  0  0  0  0
    8.1952  -15.3808   22.9954 C   0  0  1  0  0  0  0  0  0  0  0  0
    6.9761  -15.3307   23.8689 C   0  0  0  0  0  0  0  0  0  0  0  0
    7.2559  -14.8729   25.2370 C   0  0  0  0  0  0  0  0  0  0  0  0
    7.6996  -15.6809   26.2852 C   0  0  0  0  0  0  0  0  0  0  0  0
    7.8725  -14.9121   27.3730 N   0  0  0  0  0  0  0  0  0  0  0  0
    7.5568  -13.6240   27.0763 C   0  0  0  0  0  0  0  0  0  0  0  0
    7.5787  -12.5064   27.8769 C   0  0  0  0  0  0  0  0  0  0  0  0
    7.1939  -11.3115   27.3078 C   0  0  0  0  0  0  0  0  0  0  0  0
    6.7998  -11.2149   25.9957 C   0  0  0  0  0  0  0  0  0  0  0  0
    6.7941  -12.3627   25.2314 C   0  0  0  0  0  0  0  0  0  0  0  0
    7.1715  -13.6041   25.7404 C   0  0  0  0  0  0  0  0  0  0  0  0
    9.0100  -16.5306   23.4698 C   0  0  0  0  0  0  0  0  0  0  0  0
    8.5735  -17.6931   23.2733 O   0  0  0  0  0  0  0  0  0  0  0  0
   14.2460  -21.0816   23.5614 N   0  0  0  0  0  0  0  0  0  0  0  0
   15.3218  -20.3813   22.9706 C   0  0  0  0  0  0  0  0  0  0  0  0
   16.5326  -20.8401   23.0712 N   0  0  0  0  0  0  0  0  0  0  0  0
   15.1482  -19.1713   22.2534 N   0  0  0  0  0  0  0  0  0  0  0  0
   13.8372  -18.5641   22.1779 C   0  0  0  0  0  0  0  0  0  0  0  0
   13.4559  -18.1965   23.6232 C   0  0  0  0  0  0  0  0  0  0  0  0
   12.4521  -17.0966   23.5395 C   0  0  0  0  0  0  0  0  0  0  0  0
   11.1542  -17.4758   24.2217 C   0  0  2  0  0  0  0  0  0  0  0  0
   10.2458  -16.3506   24.1267 N   0  0  0  0  0  0  0  0  0  0  0  0
   11.2947  -17.8092   25.6429 C   0  0  0  0  0  0  0  0  0  0  0  0
   11.9831  -18.8136   26.0371 O   0  0  0  0  0  0  0  0  0  0  0  0
   10.7040  -17.0753   26.6619 O   0  0  0  0  0  0  0  0  0  0  0  0
  2  1  1  1
  3  4  1  0
  3  2  1  0
  4  5  1  0
  5  6  1  0
  6  7  1  0
  8 10  1  0
  8  2  1  0
  9  8  2  0
 11 22  1  0
 11 10  1  0
 12 13  1  0
 11 12  1  1
 13 14  2  0
 13 21  1  0
 14 15  1  0
 15 16  1  0
 16 17  2  0
 17 18  1  0
 19 18  2  0
 20 19  1  0
 21 20  2  0
 21 16  1  0
 22 23  2  0
 24 25  1  0
 25 26  2  0
 25 27  1  0
 27 28  1  0
 29 28  1  0
 30 29  1  0
 31 30  1  1
 31 33  1  0
 32 31  1  0
 32 22  1  0
 33 34  2  0
 33 35  1  0
M  END
$$$$
