KWR.pdb
     RDKit          3D

 35 36  0  0  1  0  0  0  0  0999 V2000
    7.2296  -15.8772   20.4243 N   0  0  0  0  0  0  0  0  0  0  0  0
    8.2771  -14.8790   20.4070 C   0  0  1  0  0  0  0  0  0  0  0  0
    7.7486  -13.5055   20.0853 C   0  0  0  0  0  0  0  0  0  0  0  0
    7.1425  -13.4266   18.7062 C   0  0  0  0  0  0  0  0  0  0  0  0
    8.1930  -13.3318   17.6261 C   0  0  0  0  0  0  0  0  0  0  0  0
    7.5650  -13.3499   16.2500 C   0  0  0  0  0  0  0  0  0  0  0  0
    8.5699  -13.2990   15.2089 N   0  0  0  0  0  0  0  0  0  0  0  0
    8.8835  -14.8280   21.7573 C   0  0  0  0  0  0  0  0  0  0  0  0
    9.7369  -13.9554   22.0536 O   0  0  0  0  0  0  0  0  0  0  0  0
    8.5245  -15.7613   22.7653 N   0  0  0  0  0  0  0  0  0  0  0  0
    9.1897  -15.7658   24.0404 C   0  0  1  0  0  0  0  0  0  0  0  0
    8.3407  -16.2533   25.1777 C   0  0  0  0  0  0  0  0  0  0  0  0
    7.2311  -15.3483   25.5083 C   0  0  0  0  0  0  0  0  0  0  0  0
    5.8756  -15.6768   25.4521 C   0  0  0  0  0  0  0  0  0  0  0  0
    5.1613  -14.6111   25.8503 N   0  0  0  0  0  0  0  0  0  0  0  0
    6.0015  -13.5910   26.1666 C   0  0  0  0  0  0  0  0  0  0  0  0
    5.7155  -12.3215   26.6104 C   0  0  0  0  0  0  0  0  0  0  0  0
    6.7796  -11.4784   26.8480 C   0  0  0  0  0  0  0  0  0  0  0  0
    8.0829  -11.8668   26.6565 C   0  0  0  0  0  0  0  0  0  0  0  0
    8.3209  -13.1498   26.2105 C   0  0  0  0  0  0  0  0  0  0  0  0
    7.2942  -14.0558   25.9509 C   0  0  0  0  0  0  0  0  0  0  0  0
   10.3582  -16.6819   23.9605 C   0  0  0  0  0  0  0  0  0  0  0  0
   10.1432  -17.9164   23.8597 O   0  0  0  0  0  0  0  0  0  0  0  0
   14.8115  -14.0437   19.3588 N   0  0  0  0  0  0  0  0  0  0  0  0
   14.9660  -15.4314   19.1413 C   0  0  0  0  0  0  0  0  0  0  0  0
   14.5695  -15.9650   18.0256 N   0  0  0  0  0  0  0  0  0  0  0  0
   15.5464  -16.2984   20.1004 N   0  0  0  0  0  0  0  0  0  0  0  0
   15.4085  -16.0037   21.5101 C   0  0  0  0  0  0  0  0  0  0  0  0
   14.1133  -16.7003   21.9645 C   0  0  0  0  0  0  0  0  0  0  0  0
   14.0044  -16.4933   23.4375 C   0  0  0  0  0  0  0  0  0  0  0  0
   12.7708  -17.1656   24.0033 C   0  0  2  0  0  0  0  0  0  0  0  0
   11.6858  -16.2049   23.9941 N   0  0  0  0  0  0  0  0  0  0  0  0
   12.9231  -17.6444   25.3810 C   0  0  0  0  0  0  0  0  0  0  0  0
   13.5383  -18.7328   25.6546 O   0  0  0  0  0  0  0  0  0  0  0  0
   12.4222  -16.9683   26.4847 O   0  0  0  0  0  0  0  0  0  0  0  0
  2  1  1  1
  3  4  1  0
  3  2  1  0
  4  5  1  0
  5  6  1  0
  6  7  1  0
  8 10  1  0
  8  2  1  0
  9  8  2  0
 11 22  1  0
 11 10  1  0
 12 13  1  0
 11 12  1  1
 13 14  2  0
 13 21  1  0
 14 15  1  0
 15 16  1  0
 16 17  2  0
 17 18  1  0
 19 18  2  0
 20 19  1  0
 21 20  2  0
 21 16  1  0
 22 23  2  0
 24 25  1  0
 25 26  2  0
 25 27  1  0
 27 28  1  0
 29 28  1  0
 30 29  1  0
 31 30  1  1
 31 33  1  0
 32 31  1  0
 32 22  1  0
 33 34  2  0
 33 35  1  0
M  END
$$$$
