KWR.pdb
     RDKit          3D

 35 36  0  0  1  0  0  0  0  0999 V2000
    5.2907  -19.9333   23.4491 N   0  0  0  0  0  0  0  0  0  0  0  0
    4.9359  -18.9096   22.4899 C   0  0  1  0  0  0  0  0  0  0  0  0
    3.4904  -18.5010   22.6027 C   0  0  0  0  0  0  0  0  0  0  0  0
    2.6144  -19.1827   21.5812 C   0  0  0  0  0  0  0  0  0  0  0  0
    1.3334  -19.7048   22.1859 C   0  0  0  0  0  0  0  0  0  0  0  0
    0.4596  -20.3561   21.1367 C   0  0  0  0  0  0  0  0  0  0  0  0
   -0.6901  -21.0032   21.7329 N   0  0  0  0  0  0  0  0  0  0  0  0
    5.7686  -17.7160   22.7648 C   0  0  0  0  0  0  0  0  0  0  0  0
    5.6334  -16.6616   22.0958 O   0  0  0  0  0  0  0  0  0  0  0  0
    6.7490  -17.7185   23.7917 N   0  0  0  0  0  0  0  0  0  0  0  0
    7.6118  -16.5857   23.9938 C   0  0  1  0  0  0  0  0  0  0  0  0
    7.9464  -16.3132   25.4310 C   0  0  0  0  0  0  0  0  0  0  0  0
    7.1772  -15.2026   26.0096 C   0  0  0  0  0  0  0  0  0  0  0  0
    5.8818  -15.2962   26.5208 C   0  0  0  0  0  0  0  0  0  0  0  0
    5.5187  -14.0898   26.9869 N   0  0  0  0  0  0  0  0  0  0  0  0
    6.5322  -13.2042   26.7992 C   0  0  0  0  0  0  0  0  0  0  0  0
    6.6016  -11.8675   27.1136 C   0  0  0  0  0  0  0  0  0  0  0  0
    7.7662  -11.2017   26.7974 C   0  0  0  0  0  0  0  0  0  0  0  0
    8.8292  -11.8259   26.1919 C   0  0  0  0  0  0  0  0  0  0  0  0
    8.7136  -13.1677   25.8957 C   0  0  0  0  0  0  0  0  0  0  0  0
    7.5667  -13.9038   26.1877 C   0  0  0  0  0  0  0  0  0  0  0  0
    8.9013  -16.8442   23.2998 C   0  0  0  0  0  0  0  0  0  0  0  0
    9.3255  -18.0265   23.2494 O   0  0  0  0  0  0  0  0  0  0  0  0
    8.6194  -12.5092   16.3831 N   0  0  0  0  0  0  0  0  0  0  0  0
    8.3491  -13.8745   16.6274 C   0  0  0  0  0  0  0  0  0  0  0  0
    7.4516  -14.4976   15.9252 N   0  0  0  0  0  0  0  0  0  0  0  0
    9.0220  -14.6234   17.6246 N   0  0  0  0  0  0  0  0  0  0  0  0
   10.2330  -14.1008   18.2192 C   0  0  0  0  0  0  0  0  0  0  0  0
   10.7374  -15.1905   19.1823 C   0  0  0  0  0  0  0  0  0  0  0  0
    9.9995  -15.0090   20.4657 C   0  0  0  0  0  0  0  0  0  0  0  0
   10.3613  -16.0823   21.4711 C   0  0  2  0  0  0  0  0  0  0  0  0
    9.6505  -15.8076   22.7039 N   0  0  0  0  0  0  0  0  0  0  0  0
   11.7904  -16.1502   21.7930 C   0  0  0  0  0  0  0  0  0  0  0  0
   12.2391  -15.8329   22.9489 O   0  0  0  0  0  0  0  0  0  0  0  0
   12.7592  -16.5583   20.8869 O   0  0  0  0  0  0  0  0  0  0  0  0
  2  1  1  1
  3  4  1  0
  3  2  1  0
  4  5  1  0
  5  6  1  0
  6  7  1  0
  8 10  1  0
  8  2  1  0
  9  8  2  0
 11 22  1  0
 11 10  1  0
 12 13  1  0
 11 12  1  1
 13 14  2  0
 13 21  1  0
 14 15  1  0
 15 16  1  0
 16 17  2  0
 17 18  1  0
 19 18  2  0
 20 19  1  0
 21 20  2  0
 21 16  1  0
 22 23  2  0
 24 25  1  0
 25 26  2  0
 25 27  1  0
 27 28  1  0
 29 28  1  0
 30 29  1  0
 31 30  1  6
 31 33  1  0
 32 31  1  0
 32 22  1  0
 33 34  2  0
 33 35  1  0
M  END
$$$$
