KWR.pdb
     RDKit          3D

 35 36  0  0  1  0  0  0  0  0999 V2000
    8.1903  -17.9781   20.7956 N   0  0  0  0  0  0  0  0  0  0  0  0
    9.5967  -17.6468   20.7173 C   0  0  1  0  0  0  0  0  0  0  0  0
    9.8674  -16.5464   19.7249 C   0  0  0  0  0  0  0  0  0  0  0  0
    9.8640  -17.0387   18.2990 C   0  0  0  0  0  0  0  0  0  0  0  0
   11.2405  -17.4490   17.8340 C   0  0  0  0  0  0  0  0  0  0  0  0
   11.2318  -17.8293   16.3699 C   0  0  0  0  0  0  0  0  0  0  0  0
   10.4134  -16.9227   15.5925 N   0  0  0  0  0  0  0  0  0  0  0  0
   10.0305  -17.1726   22.0517 C   0  0  0  0  0  0  0  0  0  0  0  0
   11.1719  -16.6781   22.2258 O   0  0  0  0  0  0  0  0  0  0  0  0
    9.1753  -17.2592   23.1817 N   0  0  0  0  0  0  0  0  0  0  0  0
    9.6121  -16.8104   24.4764 C   0  0  1  0  0  0  0  0  0  0  0  0
    8.5011  -16.3716   25.3847 C   0  0  0  0  0  0  0  0  0  0  0  0
    7.8078  -15.1627   24.9181 C   0  0  0  0  0  0  0  0  0  0  0  0
    7.1692  -15.0220   23.6850 C   0  0  0  0  0  0  0  0  0  0  0  0
    6.6263  -13.7948   23.6230 N   0  0  0  0  0  0  0  0  0  0  0  0
    6.8866  -13.1221   24.7747 C   0  0  0  0  0  0  0  0  0  0  0  0
    6.5346  -11.8461   25.1466 C   0  0  0  0  0  0  0  0  0  0  0  0
    6.9459  -11.4116   26.3882 C   0  0  0  0  0  0  0  0  0  0  0  0
    7.6793  -12.2023   27.2386 C   0  0  0  0  0  0  0  0  0  0  0  0
    8.0086  -13.4751   26.8223 C   0  0  0  0  0  0  0  0  0  0  0  0
    7.6257  -13.9805   25.5812 C   0  0  0  0  0  0  0  0  0  0  0  0
   10.2988  -17.9380   25.1605 C   0  0  0  0  0  0  0  0  0  0  0  0
    9.7972  -19.0870   25.0675 O   0  0  0  0  0  0  0  0  0  0  0  0
   16.7532  -20.1603   30.2714 N   0  0  0  0  0  0  0  0  0  0  0  0
   17.3112  -19.4024   29.2174 C   0  0  0  0  0  0  0  0  0  0  0  0
   18.5626  -19.0567   29.2539 N   0  0  0  0  0  0  0  0  0  0  0  0
   16.5599  -18.9865   28.0900 N   0  0  0  0  0  0  0  0  0  0  0  0
   15.4811  -19.8172   27.6009 C   0  0  0  0  0  0  0  0  0  0  0  0
   14.1844  -19.0359   27.8788 C   0  0  0  0  0  0  0  0  0  0  0  0
   13.6055  -18.6723   26.5532 C   0  0  0  0  0  0  0  0  0  0  0  0
   12.1096  -18.9055   26.5174 C   0  0  2  0  0  0  0  0  0  0  0  0
   11.4849  -17.7518   25.9016 N   0  0  0  0  0  0  0  0  0  0  0  0
   11.4955  -19.0866   27.8368 C   0  0  0  0  0  0  0  0  0  0  0  0
   10.7663  -18.1818   28.3732 O   0  0  0  0  0  0  0  0  0  0  0  0
   11.6502  -20.2349   28.6005 O   0  0  0  0  0  0  0  0  0  0  0  0
  2  1  1  1
  3  4  1  0
  3  2  1  0
  4  5  1  0
  5  6  1  0
  6  7  1  0
  8 10  1  0
  8  2  1  0
  9  8  2  0
 11 22  1  0
 11 10  1  0
 12 13  1  0
 11 12  1  1
 13 14  2  0
 13 21  1  0
 14 15  1  0
 15 16  1  0
 16 17  2  0
 17 18  1  0
 19 18  2  0
 20 19  1  0
 21 20  2  0
 21 16  1  0
 22 23  2  0
 24 25  1  0
 25 26  2  0
 25 27  1  0
 27 28  1  0
 29 28  1  0
 30 29  1  0
 31 30  1  1
 31 33  1  0
 32 31  1  0
 32 22  1  0
 33 34  2  0
 33 35  1  0
M  END
$$$$
