KWR.pdb
     RDKit          3D

 35 36  0  0  1  0  0  0  0  0999 V2000
    6.8715  -16.4526   21.3227 N   0  0  0  0  0  0  0  0  0  0  0  0
    8.0917  -15.8834   20.7925 C   0  0  1  0  0  0  0  0  0  0  0  0
    7.8367  -14.6252   20.0044 C   0  0  0  0  0  0  0  0  0  0  0  0
    7.9015  -14.8519   18.5144 C   0  0  0  0  0  0  0  0  0  0  0  0
    8.2358  -13.5881   17.7592 C   0  0  0  0  0  0  0  0  0  0  0  0
    8.1972  -13.8184   16.2646 C   0  0  0  0  0  0  0  0  0  0  0  0
    8.5686  -12.6240   15.5354 N   0  0  0  0  0  0  0  0  0  0  0  0
    8.9684  -15.5349   21.9342 C   0  0  0  0  0  0  0  0  0  0  0  0
    9.9375  -14.7486   21.7926 O   0  0  0  0  0  0  0  0  0  0  0  0
    8.7477  -16.0753   23.2285 N   0  0  0  0  0  0  0  0  0  0  0  0
    9.6323  -15.7672   24.3198 C   0  0  1  0  0  0  0  0  0  0  0  0
    8.9788  -15.7938   25.6704 C   0  0  0  0  0  0  0  0  0  0  0  0
    7.7584  -14.9785   25.7452 C   0  0  0  0  0  0  0  0  0  0  0  0
    6.4564  -15.4554   25.5847 C   0  0  0  0  0  0  0  0  0  0  0  0
    5.6034  -14.4306   25.7476 N   0  0  0  0  0  0  0  0  0  0  0  0
    6.3006  -13.2939   26.0096 C   0  0  0  0  0  0  0  0  0  0  0  0
    5.8463  -12.0162   26.2367 C   0  0  0  0  0  0  0  0  0  0  0  0
    6.7907  -11.0401   26.4710 C   0  0  0  0  0  0  0  0  0  0  0  0
    8.1378  -11.3074   26.4823 C   0  0  0  0  0  0  0  0  0  0  0  0
    8.5461  -12.6038   26.2497 C   0  0  0  0  0  0  0  0  0  0  0  0
    7.6471  -13.6408   26.0067 C   0  0  0  0  0  0  0  0  0  0  0  0
   10.7150  -16.7859   24.3523 C   0  0  0  0  0  0  0  0  0  0  0  0
   10.4128  -17.9690   24.6514 O   0  0  0  0  0  0  0  0  0  0  0  0
   13.2990  -14.8733   18.7648 N   0  0  0  0  0  0  0  0  0  0  0  0
   14.6371  -14.7720   19.2073 C   0  0  0  0  0  0  0  0  0  0  0  0
   15.3525  -13.7354   18.8903 N   0  0  0  0  0  0  0  0  0  0  0  0
   15.2602  -15.7672   20.0010 N   0  0  0  0  0  0  0  0  0  0  0  0
   14.4837  -16.8867   20.4875 C   0  0  0  0  0  0  0  0  0  0  0  0
   14.2200  -16.6047   21.9775 C   0  0  0  0  0  0  0  0  0  0  0  0
   13.3643  -17.7164   22.4836 C   0  0  0  0  0  0  0  0  0  0  0  0
   13.0246  -17.5336   23.9482 C   0  0  2  0  0  0  0  0  0  0  0  0
   12.0564  -16.4609   24.0591 N   0  0  0  0  0  0  0  0  0  0  0  0
   14.1700  -17.1818   24.7937 C   0  0  0  0  0  0  0  0  0  0  0  0
   15.2430  -17.8794   24.8034 O   0  0  0  0  0  0  0  0  0  0  0  0
   14.1863  -16.0812   25.6389 O   0  0  0  0  0  0  0  0  0  0  0  0
  2  1  1  1
  3  4  1  0
  3  2  1  0
  4  5  1  0
  5  6  1  0
  6  7  1  0
  8 10  1  0
  8  2  1  0
  9  8  2  0
 11 22  1  0
 11 10  1  0
 12 13  1  0
 11 12  1  1
 13 14  2  0
 13 21  1  0
 14 15  1  0
 15 16  1  0
 16 17  2  0
 17 18  1  0
 19 18  2  0
 20 19  1  0
 21 20  2  0
 21 16  1  0
 22 23  2  0
 24 25  1  0
 25 26  2  0
 25 27  1  0
 27 28  1  0
 29 28  1  0
 30 29  1  0
 31 30  1  6
 31 33  1  0
 32 31  1  0
 32 22  1  0
 33 34  2  0
 33 35  1  0
M  END
$$$$
