KWR.pdb
     RDKit          3D

 35 36  0  0  1  0  0  0  0  0999 V2000
    5.8881  -19.8527   23.4848 N   0  0  0  0  0  0  0  0  0  0  0  0
    5.6915  -19.0299   22.3108 C   0  0  1  0  0  0  0  0  0  0  0  0
    4.2474  -18.6453   22.1212 C   0  0  0  0  0  0  0  0  0  0  0  0
    3.3414  -19.8442   21.9886 C   0  0  0  0  0  0  0  0  0  0  0  0
    2.4911  -19.7814   20.7427 C   0  0  0  0  0  0  0  0  0  0  0  0
    1.6441  -21.0261   20.5959 C   0  0  0  0  0  0  0  0  0  0  0  0
    0.3551  -20.8676   21.2360 N   0  0  0  0  0  0  0  0  0  0  0  0
    6.4741  -17.7850   22.4875 C   0  0  0  0  0  0  0  0  0  0  0  0
    6.4047  -16.8500   21.6518 O   0  0  0  0  0  0  0  0  0  0  0  0
    7.3306  -17.6019   23.6050 N   0  0  0  0  0  0  0  0  0  0  0  0
    8.1681  -16.4377   23.7126 C   0  0  1  0  0  0  0  0  0  0  0  0
    8.4175  -15.9847   25.1213 C   0  0  0  0  0  0  0  0  0  0  0  0
    7.3479  -15.1325   25.6591 C   0  0  0  0  0  0  0  0  0  0  0  0
    6.0699  -15.5666   26.0147 C   0  0  0  0  0  0  0  0  0  0  0  0
    5.3799  -14.5173   26.4915 N   0  0  0  0  0  0  0  0  0  0  0  0
    6.1611  -13.4058   26.4612 C   0  0  0  0  0  0  0  0  0  0  0  0
    5.8718  -12.1169   26.8426 C   0  0  0  0  0  0  0  0  0  0  0  0
    6.8650  -11.1733   26.6918 C   0  0  0  0  0  0  0  0  0  0  0  0
    8.1026  -11.4828   26.1831 C   0  0  0  0  0  0  0  0  0  0  0  0
    8.3468  -12.7889   25.8143 C   0  0  0  0  0  0  0  0  0  0  0  0
    7.3901  -13.7946   25.9398 C   0  0  0  0  0  0  0  0  0  0  0  0
    9.4976  -16.7565   23.1279 C   0  0  0  0  0  0  0  0  0  0  0  0
   10.0049  -17.8798   23.3756 O   0  0  0  0  0  0  0  0  0  0  0  0
    9.1241  -14.6140   17.6003 N   0  0  0  0  0  0  0  0  0  0  0  0
    9.0459  -13.2539   17.9756 C   0  0  0  0  0  0  0  0  0  0  0  0
    8.0427  -12.5266   17.5868 N   0  0  0  0  0  0  0  0  0  0  0  0
   10.0295  -12.6210   18.7758 N   0  0  0  0  0  0  0  0  0  0  0  0
   11.1854  -13.3703   19.2180 C   0  0  0  0  0  0  0  0  0  0  0  0
   10.6482  -14.4620   20.1608 C   0  0  0  0  0  0  0  0  0  0  0  0
   11.8307  -15.2162   20.6680 C   0  0  0  0  0  0  0  0  0  0  0  0
   11.4266  -16.2681   21.6798 C   0  0  2  0  0  0  0  0  0  0  0  0
   10.1946  -15.8403   22.3119 N   0  0  0  0  0  0  0  0  0  0  0  0
   12.4116  -16.4926   22.7428 C   0  0  0  0  0  0  0  0  0  0  0  0
   12.2014  -16.1204   23.9493 O   0  0  0  0  0  0  0  0  0  0  0  0
   13.6329  -17.1175   22.5333 O   0  0  0  0  0  0  0  0  0  0  0  0
  2  1  1  1
  3  4  1  0
  3  2  1  0
  4  5  1  0
  5  6  1  0
  6  7  1  0
  8 10  1  0
  8  2  1  0
  9  8  2  0
 11 22  1  0
 11 10  1  0
 12 13  1  0
 11 12  1  1
 13 14  2  0
 13 21  1  0
 14 15  1  0
 15 16  1  0
 16 17  2  0
 17 18  1  0
 19 18  2  0
 20 19  1  0
 21 20  2  0
 21 16  1  0
 22 23  2  0
 24 25  1  0
 25 26  2  0
 25 27  1  0
 27 28  1  0
 29 28  1  0
 30 29  1  0
 31 30  1  6
 31 33  1  0
 32 31  1  0
 32 22  1  0
 33 34  2  0
 33 35  1  0
M  END
$$$$
