KWR.pdb
     RDKit          3D

 35 36  0  0  1  0  0  0  0  0999 V2000
    8.2193  -13.4728   17.9384 N   0  0  0  0  0  0  0  0  0  0  0  0
    8.2499  -14.7968   18.5214 C   0  0  1  0  0  0  0  0  0  0  0  0
    9.3345  -15.6557   17.9256 C   0  0  0  0  0  0  0  0  0  0  0  0
    9.0449  -16.0465   16.4976 C   0  0  0  0  0  0  0  0  0  0  0  0
    9.8796  -15.2649   15.5119 C   0  0  0  0  0  0  0  0  0  0  0  0
    9.6113  -15.7133   14.0923 C   0  0  0  0  0  0  0  0  0  0  0  0
   10.3451  -14.9110   13.1362 N   0  0  0  0  0  0  0  0  0  0  0  0
    8.5274  -14.6535   19.9692 C   0  0  0  0  0  0  0  0  0  0  0  0
    9.4632  -13.9246   20.3822 O   0  0  0  0  0  0  0  0  0  0  0  0
    7.7486  -15.3331   20.9426 N   0  0  0  0  0  0  0  0  0  0  0  0
    8.0034  -15.1591   22.3474 C   0  0  1  0  0  0  0  0  0  0  0  0
    6.7726  -14.9274   23.1739 C   0  0  0  0  0  0  0  0  0  0  0  0
    7.0575  -14.7165   24.6001 C   0  0  0  0  0  0  0  0  0  0  0  0
    7.1727  -15.7241   25.5592 C   0  0  0  0  0  0  0  0  0  0  0  0
    7.4645  -15.1567   26.7413 N   0  0  0  0  0  0  0  0  0  0  0  0
    7.5449  -13.8083   26.5928 C   0  0  0  0  0  0  0  0  0  0  0  0
    7.8125  -12.8350   27.5264 C   0  0  0  0  0  0  0  0  0  0  0  0
    7.8227  -11.5267   27.0931 C   0  0  0  0  0  0  0  0  0  0  0  0
    7.5782  -11.1828   25.7861 C   0  0  0  0  0  0  0  0  0  0  0  0
    7.3149  -12.1933   24.8854 C   0  0  0  0  0  0  0  0  0  0  0  0
    7.2894  -13.5374   25.2531 C   0  0  0  0  0  0  0  0  0  0  0  0
    8.6378  -16.3985   22.8695 C   0  0  0  0  0  0  0  0  0  0  0  0
    8.1341  -16.9456   23.8831 O   0  0  0  0  0  0  0  0  0  0  0  0
   14.1698  -15.9189   18.7237 N   0  0  0  0  0  0  0  0  0  0  0  0
   13.5481  -14.6555   18.6050 C   0  0  0  0  0  0  0  0  0  0  0  0
   13.5816  -14.0155   17.4754 N   0  0  0  0  0  0  0  0  0  0  0  0
   12.8704  -14.0298   19.6809 N   0  0  0  0  0  0  0  0  0  0  0  0
   13.2757  -14.3064   21.0419 C   0  0  0  0  0  0  0  0  0  0  0  0
   12.6981  -15.6918   21.3833 C   0  0  0  0  0  0  0  0  0  0  0  0
   11.6552  -15.4803   22.4283 C   0  0  0  0  0  0  0  0  0  0  0  0
   11.0667  -16.7937   22.8998 C   0  0  2  0  0  0  0  0  0  0  0  0
    9.7770  -16.9681   22.2622 N   0  0  0  0  0  0  0  0  0  0  0  0
   10.8558  -16.8746   24.3488 C   0  0  0  0  0  0  0  0  0  0  0  0
   11.0468  -15.8691   25.1172 O   0  0  0  0  0  0  0  0  0  0  0  0
   10.4375  -18.0284   24.9968 O   0  0  0  0  0  0  0  0  0  0  0  0
  2  1  1  6
  3  4  1  0
  3  2  1  0
  4  5  1  0
  5  6  1  0
  6  7  1  0
  8 10  1  0
  8  2  1  0
  9  8  2  0
 11 22  1  0
 11 10  1  0
 12 13  1  0
 11 12  1  1
 13 14  2  0
 13 21  1  0
 14 15  1  0
 15 16  1  0
 16 17  2  0
 17 18  1  0
 19 18  2  0
 20 19  1  0
 21 20  2  0
 21 16  1  0
 22 23  2  0
 24 25  1  0
 25 26  2  0
 25 27  1  0
 27 28  1  0
 29 28  1  0
 30 29  1  0
 31 30  1  1
 31 33  1  0
 32 31  1  0
 32 22  1  0
 33 34  2  0
 33 35  1  0
M  END
$$$$
