NMH.pdb
     RDKit          3D

 27 27  0  0  1  0  0  0  0  0999 V2000
   23.1466  -14.1913  -23.2639 N   0  0  0  0  0  0  0  0  0  0  0  0
   24.0163  -14.7493  -22.2938 C   0  0  0  0  0  0  0  0  0  0  0  0
   24.4556  -15.9200  -22.4475 O   0  0  0  0  0  0  0  0  0  0  0  0
   24.4451  -14.0091  -21.0800 C   0  0  0  0  0  0  0  0  0  0  0  0
   23.8405  -12.6458  -21.0219 C   0  0  2  0  0  0  0  0  0  0  0  0
   24.5963  -11.7237  -21.8187 N   0  0  0  0  0  0  0  0  0  0  0  0
   23.6105  -12.1672  -19.6446 C   0  0  0  0  0  0  0  0  0  0  0  0
   22.9339  -12.8542  -18.8081 O   0  0  0  0  0  0  0  0  0  0  0  0
   26.5588  -10.0090  -12.9869 C   0  0  0  0  0  0  0  0  0  0  0  0
   26.7110  -10.4122  -14.7315 S   0  0  0  0  0  0  0  0  0  0  0  0
   25.1009  -10.2248  -15.5889 C   0  0  0  0  0  0  0  0  0  0  0  0
   25.2468  -10.6764  -17.0132 C   0  0  0  0  0  0  0  0  0  0  0  0
   23.9690  -10.5084  -17.7542 C   0  0  2  0  0  0  0  0  0  0  0  0
   24.1102  -10.9368  -19.1529 N   0  0  0  0  0  0  0  0  0  0  0  0
   23.3971   -9.1301  -17.7225 C   0  0  0  0  0  0  0  0  0  0  0  0
   23.8715   -8.1563  -18.3448 O   0  0  0  0  0  0  0  0  0  0  0  0
   22.2239   -8.8554  -16.9389 N   0  0  0  0  0  0  0  0  0  0  0  0
   21.6774   -7.4926  -16.9375 C   0  0  1  0  0  0  0  0  0  0  0  0
   20.2442   -7.4931  -17.3456 C   0  0  0  0  0  0  0  0  0  0  0  0
   20.1170   -7.7420  -18.7946 C   0  0  0  0  0  0  0  0  0  0  0  0
   21.1039   -7.9035  -19.7389 C   0  0  0  0  0  0  0  0  0  0  0  0
   20.5776   -8.0836  -20.9701 N   0  0  0  0  0  0  0  0  0  0  0  0
   19.2466   -8.0343  -20.7976 C   0  0  0  0  0  0  0  0  0  0  0  0
   18.9562   -7.8328  -19.5167 N   0  0  0  0  0  0  0  0  0  0  0  0
   21.8242   -6.9333  -15.5829 C   0  0  0  0  0  0  0  0  0  0  0  0
   22.3250   -7.5555  -14.5998 O   0  0  0  0  0  0  0  0  0  0  0  0
   21.3758   -5.6149  -15.3692 O   0  0  0  0  0  0  0  0  0  0  0  0
  2  1  1  0
  3  2  2  0
  4  2  1  0
  5  4  1  0
  5  6  1  1
  7  5  1  0
  7  8  2  0
  9 10  1  0
 10 11  1  0
 12 11  1  0
 13 12  1  6
 13 14  1  0
 14  7  1  0
 15 13  1  0
 16 15  2  0
 17 15  1  0
 18 17  1  0
 18 25  1  0
 19 20  1  0
 18 19  1  1
 20 21  2  0
 20 24  1  0
 21 22  1  0
 22 23  1  0
 24 23  2  0
 25 27  1  0
 26 25  2  0
M  END
$$$$
