NMH.pdb
     RDKit          3D

 27 27  0  0  1  0  0  0  0  0999 V2000
   21.9257  -34.1601   -2.2380 N   0  0  0  0  0  0  0  0  0  0  0  0
   21.1864  -33.5138   -3.2600 C   0  0  0  0  0  0  0  0  0  0  0  0
   21.3899  -33.8165   -4.4658 O   0  0  0  0  0  0  0  0  0  0  0  0
   20.1624  -32.4764   -2.9761 C   0  0  0  0  0  0  0  0  0  0  0  0
   20.6041  -31.1253   -3.4311 C   0  0  2  0  0  0  0  0  0  0  0  0
   21.9472  -30.8622   -3.0032 N   0  0  0  0  0  0  0  0  0  0  0  0
   19.6601  -30.0498   -3.0688 C   0  0  0  0  0  0  0  0  0  0  0  0
   18.4361  -30.0927   -3.4283 O   0  0  0  0  0  0  0  0  0  0  0  0
   18.9600  -25.8309    2.3259 C   0  0  0  0  0  0  0  0  0  0  0  0
   19.9301  -27.3080    1.9999 S   0  0  0  0  0  0  0  0  0  0  0  0
   19.3623  -28.1382    0.4665 C   0  0  0  0  0  0  0  0  0  0  0  0
   19.4829  -27.1815   -0.6842 C   0  0  0  0  0  0  0  0  0  0  0  0
   19.0898  -27.8367   -1.9593 C   0  0  2  0  0  0  0  0  0  0  0  0
   20.0285  -28.9114   -2.3112 N   0  0  0  0  0  0  0  0  0  0  0  0
   18.9457  -26.9153   -3.1247 C   0  0  0  0  0  0  0  0  0  0  0  0
   19.8993  -26.5012   -3.8173 O   0  0  0  0  0  0  0  0  0  0  0  0
   17.6442  -26.4459   -3.5145 N   0  0  0  0  0  0  0  0  0  0  0  0
   17.5438  -25.4537   -4.5922 C   0  0  1  0  0  0  0  0  0  0  0  0
   18.0760  -26.0015   -5.8718 C   0  0  0  0  0  0  0  0  0  0  0  0
   17.3092  -27.1926   -6.2853 C   0  0  0  0  0  0  0  0  0  0  0  0
   16.2713  -27.8252   -5.6416 C   0  0  0  0  0  0  0  0  0  0  0  0
   15.8537  -28.9075   -6.3340 N   0  0  0  0  0  0  0  0  0  0  0  0
   16.6374  -28.9556   -7.4236 C   0  0  0  0  0  0  0  0  0  0  0  0
   17.5044  -27.9488   -7.4111 N   0  0  0  0  0  0  0  0  0  0  0  0
   16.1287  -25.0750   -4.7462 C   0  0  0  0  0  0  0  0  0  0  0  0
   15.6911  -24.2764   -5.6266 O   0  0  0  0  0  0  0  0  0  0  0  0
   15.2003  -25.6420   -3.8509 O   0  0  0  0  0  0  0  0  0  0  0  0
  2  1  1  0
  3  2  2  0
  4  2  1  0
  5  4  1  0
  5  6  1  1
  7  5  1  0
  7  8  2  0
  9 10  1  0
 10 11  1  0
 12 11  1  0
 13 12  1  1
 13 14  1  0
 14  7  1  0
 15 13  1  0
 16 15  2  0
 17 15  1  0
 18 17  1  0
 18 25  1  0
 19 20  1  0
 18 19  1  6
 20 21  2  0
 20 24  1  0
 21 22  1  0
 22 23  1  0
 24 23  2  0
 25 27  1  0
 26 25  2  0
M  END
$$$$
