NMH.pdb
     RDKit          3D

 27 27  0  0  1  0  0  0  0  0999 V2000
   19.0606  -20.7820  -14.3532 N   0  0  0  0  0  0  0  0  0  0  0  0
   19.3061  -19.5167  -14.9427 C   0  0  0  0  0  0  0  0  0  0  0  0
   18.3576  -18.7008  -15.0898 O   0  0  0  0  0  0  0  0  0  0  0  0
   20.6525  -19.0947  -15.4055 C   0  0  0  0  0  0  0  0  0  0  0  0
   21.7095  -20.0603  -14.9835 C   0  0  2  0  0  0  0  0  0  0  0  0
   21.8508  -20.0627  -13.5565 N   0  0  0  0  0  0  0  0  0  0  0  0
   22.9906  -19.8699  -15.6916 C   0  0  0  0  0  0  0  0  0  0  0  0
   23.0692  -19.9786  -16.9610 O   0  0  0  0  0  0  0  0  0  0  0  0
   26.3628  -14.0806  -16.0572 C   0  0  0  0  0  0  0  0  0  0  0  0
   26.7708  -15.6091  -15.2049 S   0  0  0  0  0  0  0  0  0  0  0  0
   25.8731  -17.0284  -15.9415 C   0  0  0  0  0  0  0  0  0  0  0  0
   26.2756  -18.2876  -15.2299 C   0  0  0  0  0  0  0  0  0  0  0  0
   25.4957  -19.4498  -15.7308 C   0  0  2  0  0  0  0  0  0  0  0  0
   24.2060  -19.5589  -15.0347 N   0  0  0  0  0  0  0  0  0  0  0  0
   26.2014  -20.7630  -15.6570 C   0  0  0  0  0  0  0  0  0  0  0  0
   25.9669  -21.6414  -14.8001 O   0  0  0  0  0  0  0  0  0  0  0  0
   27.2258  -21.0843  -16.6125 N   0  0  0  0  0  0  0  0  0  0  0  0
   27.9055  -22.3819  -16.5113 C   0  0  1  0  0  0  0  0  0  0  0  0
   26.9207  -23.5003  -16.5094 C   0  0  0  0  0  0  0  0  0  0  0  0
   27.6134  -24.8018  -16.4466 C   0  0  0  0  0  0  0  0  0  0  0  0
   28.9582  -25.0664  -16.3309 C   0  0  0  0  0  0  0  0  0  0  0  0
   29.1971  -26.3961  -16.3381 N   0  0  0  0  0  0  0  0  0  0  0  0
   27.9904  -26.9727  -16.4600 C   0  0  0  0  0  0  0  0  0  0  0  0
   27.0418  -26.0446  -16.5256 N   0  0  0  0  0  0  0  0  0  0  0  0
   28.8288  -22.5142  -17.6513 C   0  0  0  0  0  0  0  0  0  0  0  0
   28.9426  -21.6660  -18.5850 O   0  0  0  0  0  0  0  0  0  0  0  0
   29.6402  -23.6649  -17.7037 O   0  0  0  0  0  0  0  0  0  0  0  0
  2  1  1  0
  3  2  2  0
  4  2  1  0
  5  4  1  0
  5  6  1  1
  7  5  1  0
  7  8  2  0
  9 10  1  0
 10 11  1  0
 12 11  1  0
 13 12  1  1
 13 14  1  0
 14  7  1  0
 15 13  1  0
 16 15  2  0
 17 15  1  0
 18 17  1  0
 18 25  1  0
 19 20  1  0
 18 19  1  6
 20 21  2  0
 20 24  1  0
 21 22  1  0
 22 23  1  0
 24 23  2  0
 25 27  1  0
 26 25  2  0
M  END
$$$$
