NMH.pdb
     RDKit          3D

 27 27  0  0  1  0  0  0  0  0999 V2000
   29.1928  -18.9971  -17.5513 N   0  0  0  0  0  0  0  0  0  0  0  0
   27.7840  -18.8424  -17.5590 C   0  0  0  0  0  0  0  0  0  0  0  0
   27.2560  -17.9582  -18.2845 O   0  0  0  0  0  0  0  0  0  0  0  0
   26.8795  -19.6871  -16.7382 C   0  0  0  0  0  0  0  0  0  0  0  0
   27.6425  -20.6207  -15.8587 C   0  0  2  0  0  0  0  0  0  0  0  0
   28.2745  -21.6455  -16.6377 N   0  0  0  0  0  0  0  0  0  0  0  0
   26.8412  -21.1552  -14.7402 C   0  0  0  0  0  0  0  0  0  0  0  0
   26.2110  -22.2604  -14.8445 O   0  0  0  0  0  0  0  0  0  0  0  0
   25.0150  -21.0133   -7.0338 C   0  0  0  0  0  0  0  0  0  0  0  0
   25.9146  -20.2759   -8.4036 S   0  0  0  0  0  0  0  0  0  0  0  0
   25.3887  -21.0075  -10.0008 C   0  0  0  0  0  0  0  0  0  0  0  0
   26.2944  -20.5117  -11.0906 C   0  0  0  0  0  0  0  0  0  0  0  0
   25.8180  -20.9692  -12.4223 C   0  0  2  0  0  0  0  0  0  0  0  0
   26.7106  -20.5001  -13.4915 N   0  0  0  0  0  0  0  0  0  0  0  0
   24.4146  -20.5863  -12.7568 C   0  0  0  0  0  0  0  0  0  0  0  0
   24.0641  -19.4441  -13.1217 O   0  0  0  0  0  0  0  0  0  0  0  0
   23.3620  -21.5610  -12.6683 N   0  0  0  0  0  0  0  0  0  0  0  0
   22.0043  -21.1744  -13.0721 C   0  0  1  0  0  0  0  0  0  0  0  0
   21.4419  -22.1479  -14.0502 C   0  0  0  0  0  0  0  0  0  0  0  0
   22.1278  -22.0312  -15.3516 C   0  0  0  0  0  0  0  0  0  0  0  0
   23.0343  -22.8844  -15.9363 C   0  0  0  0  0  0  0  0  0  0  0  0
   23.4580  -22.4065  -17.1268 N   0  0  0  0  0  0  0  0  0  0  0  0
   22.8114  -21.2410  -17.2916 C   0  0  0  0  0  0  0  0  0  0  0  0
   22.0202  -21.0031  -16.2509 N   0  0  0  0  0  0  0  0  0  0  0  0
   21.1597  -21.1131  -11.8670 C   0  0  0  0  0  0  0  0  0  0  0  0
   21.5648  -21.3625  -10.6930 O   0  0  0  0  0  0  0  0  0  0  0  0
   19.8083  -20.7518  -12.0349 O   0  0  0  0  0  0  0  0  0  0  0  0
  2  1  1  0
  3  2  2  0
  4  2  1  0
  5  4  1  0
  5  6  1  6
  7  5  1  0
  7  8  2  0
  9 10  1  0
 10 11  1  0
 12 11  1  0
 13 12  1  1
 13 14  1  0
 14  7  1  0
 15 13  1  0
 16 15  2  0
 17 15  1  0
 18 17  1  0
 18 25  1  0
 19 20  1  0
 18 19  1  6
 20 21  2  0
 20 24  1  0
 21 22  1  0
 22 23  1  0
 24 23  2  0
 25 27  1  0
 26 25  2  0
M  END
$$$$
