NMH.pdb
     RDKit          3D

 27 27  0  0  1  0  0  0  0  0999 V2000
   15.9580  -25.3311  -12.6636 N   0  0  0  0  0  0  0  0  0  0  0  0
   16.7614  -24.5423  -13.5244 C   0  0  0  0  0  0  0  0  0  0  0  0
   16.7296  -24.7431  -14.7677 O   0  0  0  0  0  0  0  0  0  0  0  0
   17.6577  -23.4686  -13.0253 C   0  0  0  0  0  0  0  0  0  0  0  0
   19.0242  -23.5703  -13.6167 C   0  0  2  0  0  0  0  0  0  0  0  0
   19.5706  -24.8789  -13.4039 N   0  0  0  0  0  0  0  0  0  0  0  0
   19.9297  -22.4877  -13.1842 C   0  0  0  0  0  0  0  0  0  0  0  0
   19.8707  -22.0058  -12.0037 O   0  0  0  0  0  0  0  0  0  0  0  0
   25.2827  -23.6817  -15.1963 C   0  0  0  0  0  0  0  0  0  0  0  0
   25.3941  -22.9167  -13.5741 S   0  0  0  0  0  0  0  0  0  0  0  0
   23.7453  -22.3541  -13.0017 C   0  0  0  0  0  0  0  0  0  0  0  0
   23.2579  -21.2595  -13.9063 C   0  0  0  0  0  0  0  0  0  0  0  0
   21.8595  -20.8817  -13.5724 C   0  0  2  0  0  0  0  0  0  0  0  0
   20.9129  -21.9110  -14.0246 N   0  0  0  0  0  0  0  0  0  0  0  0
   21.4218  -19.5541  -14.0956 C   0  0  0  0  0  0  0  0  0  0  0  0
   21.9961  -18.4737  -13.8439 O   0  0  0  0  0  0  0  0  0  0  0  0
   20.2691  -19.4614  -14.9493 N   0  0  0  0  0  0  0  0  0  0  0  0
   19.8792  -18.1453  -15.4706 C   0  0  1  0  0  0  0  0  0  0  0  0
   20.3283  -17.9769  -16.8816 C   0  0  0  0  0  0  0  0  0  0  0  0
   21.6927  -17.4166  -16.9287 C   0  0  0  0  0  0  0  0  0  0  0  0
   22.4901  -16.9814  -15.8959 C   0  0  0  0  0  0  0  0  0  0  0  0
   23.6685  -16.5062  -16.3550 N   0  0  0  0  0  0  0  0  0  0  0  0
   23.6107  -16.6438  -17.6897 C   0  0  0  0  0  0  0  0  0  0  0  0
   22.4489  -17.1807  -18.0466 N   0  0  0  0  0  0  0  0  0  0  0  0
   18.4140  -18.0245  -15.3815 C   0  0  0  0  0  0  0  0  0  0  0  0
   17.6132  -19.0055  -15.3548 O   0  0  0  0  0  0  0  0  0  0  0  0
   17.8686  -16.7268  -15.3219 O   0  0  0  0  0  0  0  0  0  0  0  0
  2  1  1  0
  3  2  2  0
  4  2  1  0
  5  4  1  0
  5  6  1  1
  7  5  1  0
  7  8  2  0
  9 10  1  0
 10 11  1  0
 12 11  1  0
 13 12  1  6
 13 14  1  0
 14  7  1  0
 15 13  1  0
 16 15  2  0
 17 15  1  0
 18 17  1  0
 18 25  1  0
 19 20  1  0
 18 19  1  6
 20 21  2  0
 20 24  1  0
 21 22  1  0
 22 23  1  0
 24 23  2  0
 25 27  1  0
 26 25  2  0
M  END
$$$$
