NMH.pdb
     RDKit          3D

 27 27  0  0  1  0  0  0  0  0999 V2000
   19.7622  -13.3827  -20.3789 N   0  0  0  0  0  0  0  0  0  0  0  0
   19.3316  -12.0863  -20.0010 C   0  0  0  0  0  0  0  0  0  0  0  0
   18.5077  -11.4655  -20.7240 O   0  0  0  0  0  0  0  0  0  0  0  0
   19.8122  -11.4081  -18.7704 C   0  0  0  0  0  0  0  0  0  0  0  0
   20.8133  -12.2376  -18.0375 C   0  0  2  0  0  0  0  0  0  0  0  0
   20.1934  -13.4070  -17.4857 N   0  0  0  0  0  0  0  0  0  0  0  0
   21.5913  -11.4716  -17.0441 C   0  0  0  0  0  0  0  0  0  0  0  0
   21.4206  -11.6452  -15.7911 O   0  0  0  0  0  0  0  0  0  0  0  0
   27.3149  -11.6419  -14.8738 C   0  0  0  0  0  0  0  0  0  0  0  0
   27.2552   -9.9062  -15.3357 S   0  0  0  0  0  0  0  0  0  0  0  0
   25.5241   -9.3042  -15.3944 C   0  0  0  0  0  0  0  0  0  0  0  0
   24.7545  -10.1171  -16.3949 C   0  0  0  0  0  0  0  0  0  0  0  0
   23.3208   -9.7244  -16.4036 C   0  0  2  0  0  0  0  0  0  0  0  0
   22.5661  -10.5056  -17.3936 N   0  0  0  0  0  0  0  0  0  0  0  0
   23.0652   -8.2717  -16.6324 C   0  0  0  0  0  0  0  0  0  0  0  0
   23.2746   -7.6814  -17.7133 O   0  0  0  0  0  0  0  0  0  0  0  0
   22.5440   -7.4565  -15.5696 N   0  0  0  0  0  0  0  0  0  0  0  0
   22.3727   -6.0167  -15.8015 C   0  0  1  0  0  0  0  0  0  0  0  0
   21.0154   -5.5674  -15.3815 C   0  0  0  0  0  0  0  0  0  0  0  0
   20.0209   -5.8714  -16.4284 C   0  0  0  0  0  0  0  0  0  0  0  0
   20.2111   -6.4192  -17.6756 C   0  0  0  0  0  0  0  0  0  0  0  0
   19.0453   -6.5111  -18.3521 N   0  0  0  0  0  0  0  0  0  0  0  0
   18.1133   -6.0156  -17.5218 C   0  0  0  0  0  0  0  0  0  0  0  0
   18.6726   -5.6323  -16.3791 N   0  0  0  0  0  0  0  0  0  0  0  0
   23.4088   -5.2962  -15.0419 C   0  0  0  0  0  0  0  0  0  0  0  0
   23.7750   -5.5943  -13.8666 O   0  0  0  0  0  0  0  0  0  0  0  0
   24.0338   -4.2001  -15.6688 O   0  0  0  0  0  0  0  0  0  0  0  0
  2  1  1  0
  3  2  2  0
  4  2  1  0
  5  4  1  0
  5  6  1  1
  7  5  1  0
  7  8  2  0
  9 10  1  0
 10 11  1  0
 12 11  1  0
 13 12  1  6
 13 14  1  0
 14  7  1  0
 15 13  1  0
 16 15  2  0
 17 15  1  0
 18 17  1  0
 18 25  1  0
 19 20  1  0
 18 19  1  1
 20 21  2  0
 20 24  1  0
 21 22  1  0
 22 23  1  0
 24 23  2  0
 25 27  1  0
 26 25  2  0
M  END
$$$$
