NMH.pdb
     RDKit          3D

 27 27  0  0  1  0  0  0  0  0999 V2000
   17.2579  -13.2561  -17.1674 N   0  0  0  0  0  0  0  0  0  0  0  0
   18.2371  -13.6060  -16.2044 C   0  0  0  0  0  0  0  0  0  0  0  0
   18.1853  -14.7313  -15.6403 O   0  0  0  0  0  0  0  0  0  0  0  0
   19.3443  -12.6949  -15.8181 C   0  0  0  0  0  0  0  0  0  0  0  0
   19.2449  -11.3785  -16.5143 C   0  0  2  0  0  0  0  0  0  0  0  0
   19.3488  -11.5490  -17.9344 N   0  0  0  0  0  0  0  0  0  0  0  0
   20.1776  -10.3652  -15.9832 C   0  0  0  0  0  0  0  0  0  0  0  0
   20.2945  -10.1645  -14.7281 O   0  0  0  0  0  0  0  0  0  0  0  0
   26.0628   -5.2386  -17.5718 C   0  0  0  0  0  0  0  0  0  0  0  0
   24.8439   -6.4122  -18.1768 S   0  0  0  0  0  0  0  0  0  0  0  0
   23.8662   -7.1119  -16.7922 C   0  0  0  0  0  0  0  0  0  0  0  0
   22.8930   -8.1174  -17.3362 C   0  0  0  0  0  0  0  0  0  0  0  0
   21.9639   -8.5822  -16.2729 C   0  0  2  0  0  0  0  0  0  0  0  0
   20.9979   -9.5539  -16.8044 N   0  0  0  0  0  0  0  0  0  0  0  0
   21.2234   -7.4979  -15.5631 C   0  0  0  0  0  0  0  0  0  0  0  0
   20.3221   -6.8049  -16.0808 O   0  0  0  0  0  0  0  0  0  0  0  0
   21.5316   -7.1938  -14.1925 N   0  0  0  0  0  0  0  0  0  0  0  0
   20.6101   -6.3393  -13.4332 C   0  0  1  0  0  0  0  0  0  0  0  0
   20.0545   -7.0678  -12.2579 C   0  0  0  0  0  0  0  0  0  0  0  0
   19.2703   -6.1546  -11.4043 C   0  0  0  0  0  0  0  0  0  0  0  0
   18.9232   -4.8420  -11.6244 C   0  0  0  0  0  0  0  0  0  0  0  0
   18.2217   -4.3409  -10.5842 N   0  0  0  0  0  0  0  0  0  0  0  0
   18.1274   -5.3486   -9.7015 C   0  0  0  0  0  0  0  0  0  0  0  0
   18.7423   -6.4293  -10.1702 N   0  0  0  0  0  0  0  0  0  0  0  0
   21.3429   -5.1399  -12.9928 C   0  0  0  0  0  0  0  0  0  0  0  0
   22.5708   -5.1226  -12.6824 O   0  0  0  0  0  0  0  0  0  0  0  0
   20.6258   -3.9299  -12.9126 O   0  0  0  0  0  0  0  0  0  0  0  0
  2  1  1  0
  3  2  2  0
  4  2  1  0
  5  4  1  0
  5  6  1  6
  7  5  1  0
  7  8  2  0
  9 10  1  0
 10 11  1  0
 12 11  1  0
 13 12  1  6
 13 14  1  0
 14  7  1  0
 15 13  1  0
 16 15  2  0
 17 15  1  0
 18 17  1  0
 18 25  1  0
 19 20  1  0
 18 19  1  1
 20 21  2  0
 20 24  1  0
 21 22  1  0
 22 23  1  0
 24 23  2  0
 25 27  1  0
 26 25  2  0
M  END
$$$$
