NMH.pdb
     RDKit          3D

 27 27  0  0  1  0  0  0  0  0999 V2000
   17.8489  -13.1028  -19.6711 N   0  0  0  0  0  0  0  0  0  0  0  0
   17.9635  -11.6913  -19.6145 C   0  0  0  0  0  0  0  0  0  0  0  0
   17.2883  -10.9770  -20.4025 O   0  0  0  0  0  0  0  0  0  0  0  0
   18.8576  -10.9966  -18.6536 C   0  0  0  0  0  0  0  0  0  0  0  0
   19.5590  -11.9606  -17.7557 C   0  0  2  0  0  0  0  0  0  0  0  0
   18.6152  -12.6774  -16.9484 N   0  0  0  0  0  0  0  0  0  0  0  0
   20.6427  -11.3417  -16.9673 C   0  0  0  0  0  0  0  0  0  0  0  0
   20.4183  -10.8278  -15.8206 O   0  0  0  0  0  0  0  0  0  0  0  0
   28.3585  -10.8186  -15.3920 C   0  0  0  0  0  0  0  0  0  0  0  0
   27.0136  -11.5760  -16.3123 S   0  0  0  0  0  0  0  0  0  0  0  0
   25.4538  -10.6401  -16.0802 C   0  0  0  0  0  0  0  0  0  0  0  0
   24.3640  -11.2948  -16.8788 C   0  0  0  0  0  0  0  0  0  0  0  0
   23.0581  -10.6270  -16.6373 C   0  0  2  0  0  0  0  0  0  0  0  0
   21.9860  -11.2702  -17.4098 N   0  0  0  0  0  0  0  0  0  0  0  0
   23.0397   -9.1592  -16.9077 C   0  0  0  0  0  0  0  0  0  0  0  0
   22.9119   -8.6537  -18.0430 O   0  0  0  0  0  0  0  0  0  0  0  0
   23.1744   -8.2258  -15.8231 N   0  0  0  0  0  0  0  0  0  0  0  0
   23.2027   -6.7892  -16.1257 C   0  0  1  0  0  0  0  0  0  0  0  0
   22.3465   -6.0273  -15.1733 C   0  0  0  0  0  0  0  0  0  0  0  0
   20.9350   -6.0621  -15.6022 C   0  0  0  0  0  0  0  0  0  0  0  0
   20.3870   -6.5911  -16.7475 C   0  0  0  0  0  0  0  0  0  0  0  0
   19.0509   -6.3950  -16.7858 N   0  0  0  0  0  0  0  0  0  0  0  0
   18.7564   -5.7358  -15.6534 C   0  0  0  0  0  0  0  0  0  0  0  0
   19.8591   -5.5303  -14.9411 N   0  0  0  0  0  0  0  0  0  0  0  0
   24.5979   -6.3238  -16.0454 C   0  0  0  0  0  0  0  0  0  0  0  0
   25.5875   -7.0656  -15.7719 O   0  0  0  0  0  0  0  0  0  0  0  0
   24.8454   -4.9586  -16.2903 O   0  0  0  0  0  0  0  0  0  0  0  0
  2  1  1  0
  3  2  2  0
  4  2  1  0
  5  4  1  0
  5  6  1  1
  7  5  1  0
  7  8  2  0
  9 10  1  0
 10 11  1  0
 12 11  1  0
 13 12  1  6
 13 14  1  0
 14  7  1  0
 15 13  1  0
 16 15  2  0
 17 15  1  0
 18 17  1  0
 18 25  1  0
 19 20  1  0
 18 19  1  1
 20 21  2  0
 20 24  1  0
 21 22  1  0
 22 23  1  0
 24 23  2  0
 25 27  1  0
 26 25  2  0
M  END
$$$$
