IAK.pdb
     RDKit          3D

 23 22  0  0  1  0  0  0  0  0999 V2000
   28.8225  -20.6470   -3.9858 C   0  0  0  0  0  0  0  0  0  0  0  0
   27.5914  -20.2889   -4.7495 C   0  0  0  0  0  0  0  0  0  0  0  0
   27.8426  -20.3078   -6.2186 C   0  0  2  0  0  0  0  0  0  0  0  0
   29.1580  -19.6342   -6.5762 C   0  0  0  0  0  0  0  0  0  0  0  0
   26.7190  -19.8639   -7.0920 C   0  0  2  0  0  0  0  0  0  0  0  0
   25.5609  -20.6733   -6.6456 N   0  0  0  0  0  0  0  0  0  0  0  0
   26.8738  -20.0761   -8.5262 C   0  0  0  0  0  0  0  0  0  0  0  0
   27.7391  -19.3902   -9.1856 O   0  0  0  0  0  0  0  0  0  0  0  0
   25.7890  -22.4649  -11.1848 C   0  0  0  0  0  0  0  0  0  0  0  0
   26.3272  -21.0939  -10.7716 C   0  0  2  0  0  0  0  0  0  0  0  0
   26.1566  -20.9929   -9.3402 N   0  0  0  0  0  0  0  0  0  0  0  0
   25.5493  -20.0899  -11.5146 C   0  0  0  0  0  0  0  0  0  0  0  0
   24.4533  -19.6058  -11.1359 O   0  0  0  0  0  0  0  0  0  0  0  0
   26.1095  -19.6455  -12.7680 N   0  0  0  0  0  0  0  0  0  0  0  0
   25.4681  -18.6454  -13.5751 C   0  0  1  0  0  0  0  0  0  0  0  0
   26.5055  -17.9260  -14.4105 C   0  0  0  0  0  0  0  0  0  0  0  0
   25.8984  -16.9181  -15.3346 C   0  0  0  0  0  0  0  0  0  0  0  0
   26.9857  -16.2575  -16.1576 C   0  0  0  0  0  0  0  0  0  0  0  0
   26.4522  -15.1322  -17.0003 C   0  0  0  0  0  0  0  0  0  0  0  0
   27.4592  -14.4685  -17.7766 N   0  0  0  0  0  0  0  0  0  0  0  0
   24.4724  -19.3125  -14.4522 C   0  0  0  0  0  0  0  0  0  0  0  0
   23.2839  -18.7089  -14.8414 O   0  0  0  0  0  0  0  0  0  0  0  0
   24.6675  -20.4864  -14.8933 O   0  0  0  0  0  0  0  0  0  0  0  0
  2  3  1  0
  2  1  1  0
  3  5  1  0
  3  4  1  1
  5  7  1  0
  5  6  1  1
  7  8  2  0
 10  9  1  6
 10 12  1  0
 11 10  1  0
 11  7  1  0
 12 13  2  0
 14 15  1  0
 14 12  1  0
 15 21  1  0
 15 16  1  6
 17 16  1  0
 18 17  1  0
 19 18  1  0
 20 19  1  0
 21 23  2  0
 21 22  1  0
M  END
$$$$
