IAK.pdb
     RDKit          3D

 23 22  0  0  1  0  0  0  0  0999 V2000
   17.1208  -13.3064  -18.9878 C   0  0  0  0  0  0  0  0  0  0  0  0
   18.6032  -13.3819  -18.8333 C   0  0  0  0  0  0  0  0  0  0  0  0
   19.1108  -12.2907  -17.9539 C   0  0  2  0  0  0  0  0  0  0  0  0
   18.5793  -10.9303  -18.3766 C   0  0  0  0  0  0  0  0  0  0  0  0
   20.5786  -12.2735  -17.6939 C   0  0  2  0  0  0  0  0  0  0  0  0
   20.9162  -13.6824  -17.3831 N   0  0  0  0  0  0  0  0  0  0  0  0
   21.0421  -11.4566  -16.5786 C   0  0  0  0  0  0  0  0  0  0  0  0
   20.1892  -10.8584  -15.8246 O   0  0  0  0  0  0  0  0  0  0  0  0
   24.2962  -10.3115  -15.0774 C   0  0  0  0  0  0  0  0  0  0  0  0
   22.7723  -10.2456  -15.1943 C   0  0  2  0  0  0  0  0  0  0  0  0
   22.3876  -11.2200  -16.1896 N   0  0  0  0  0  0  0  0  0  0  0  0
   22.4345   -8.8665  -15.5806 C   0  0  0  0  0  0  0  0  0  0  0  0
   22.1179   -8.5024  -16.7408 O   0  0  0  0  0  0  0  0  0  0  0  0
   22.4780   -7.8786  -14.5296 N   0  0  0  0  0  0  0  0  0  0  0  0
   22.0970   -6.5121  -14.7546 C   0  0  1  0  0  0  0  0  0  0  0  0
   20.6568   -6.4568  -15.2172 C   0  0  0  0  0  0  0  0  0  0  0  0
   20.1400   -5.0562  -15.3157 C   0  0  0  0  0  0  0  0  0  0  0  0
   18.7052   -5.0727  -15.8025 C   0  0  0  0  0  0  0  0  0  0  0  0
   18.1377   -3.6868  -15.9371 C   0  0  0  0  0  0  0  0  0  0  0  0
   16.7981   -3.6616  -16.4488 N   0  0  0  0  0  0  0  0  0  0  0  0
   22.2595   -5.7604  -13.4841 C   0  0  0  0  0  0  0  0  0  0  0  0
   22.5657   -4.4066  -13.4411 O   0  0  0  0  0  0  0  0  0  0  0  0
   22.1229   -6.3332  -12.3599 O   0  0  0  0  0  0  0  0  0  0  0  0
  2  3  1  0
  2  1  1  0
  3  5  1  0
  3  4  1  6
  5  7  1  0
  5  6  1  1
  7  8  2  0
 10  9  1  6
 10 12  1  0
 11 10  1  0
 11  7  1  0
 12 13  2  0
 14 15  1  0
 14 12  1  0
 15 21  1  0
 15 16  1  1
 17 16  1  0
 18 17  1  0
 19 18  1  0
 20 19  1  0
 21 23  2  0
 21 22  1  0
M  END
$$$$
