IAK.pdb
     RDKit          3D

 23 22  0  0  1  0  0  0  0  0999 V2000
   23.3953  -17.7938  -15.2383 C   0  0  0  0  0  0  0  0  0  0  0  0
   22.0078  -17.3232  -15.5219 C   0  0  0  0  0  0  0  0  0  0  0  0
   21.9532  -15.8375  -15.6307 C   0  0  2  0  0  0  0  0  0  0  0  0
   22.5622  -15.1587  -14.4140 C   0  0  0  0  0  0  0  0  0  0  0  0
   20.6403  -15.2459  -16.0160 C   0  0  2  0  0  0  0  0  0  0  0  0
   20.2637  -15.9583  -17.2595 N   0  0  0  0  0  0  0  0  0  0  0  0
   20.6196  -13.8174  -16.3072 C   0  0  0  0  0  0  0  0  0  0  0  0
   21.5279  -13.3035  -17.0588 O   0  0  0  0  0  0  0  0  0  0  0  0
   18.4471  -10.8237  -15.6382 C   0  0  0  0  0  0  0  0  0  0  0  0
   19.7227  -11.4596  -16.1937 C   0  0  2  0  0  0  0  0  0  0  0  0
   19.6754  -12.8615  -15.8465 N   0  0  0  0  0  0  0  0  0  0  0  0
   20.8550  -10.7528  -15.5745 C   0  0  0  0  0  0  0  0  0  0  0  0
   21.2804  -10.9587  -14.4102 O   0  0  0  0  0  0  0  0  0  0  0  0
   21.5074   -9.7541  -16.3864 N   0  0  0  0  0  0  0  0  0  0  0  0
   22.7030   -9.0856  -15.9544 C   0  0  1  0  0  0  0  0  0  0  0  0
   23.7989   -9.2948  -16.9774 C   0  0  0  0  0  0  0  0  0  0  0  0
   25.0469   -8.5406  -16.6425 C   0  0  0  0  0  0  0  0  0  0  0  0
   26.0994   -8.7956  -17.7023 C   0  0  0  0  0  0  0  0  0  0  0  0
   27.3765   -8.0534  -17.4211 C   0  0  0  0  0  0  0  0  0  0  0  0
   28.3110   -8.0853  -18.5087 N   0  0  0  0  0  0  0  0  0  0  0  0
   22.4075   -7.6378  -15.8045 C   0  0  0  0  0  0  0  0  0  0  0  0
   21.2927   -7.0318  -16.3686 O   0  0  0  0  0  0  0  0  0  0  0  0
   23.1758   -6.8758  -15.1414 O   0  0  0  0  0  0  0  0  0  0  0  0
  2  3  1  0
  2  1  1  0
  3  5  1  0
  3  4  1  1
  5  7  1  0
  5  6  1  6
  7  8  2  0
 10  9  1  1
 10 12  1  0
 11 10  1  0
 11  7  1  0
 12 13  2  0
 14 15  1  0
 14 12  1  0
 15 21  1  0
 15 16  1  6
 17 16  1  0
 18 17  1  0
 19 18  1  0
 20 19  1  0
 21 23  2  0
 21 22  1  0
M  END
$$$$
