IAK.pdb
     RDKit          3D

 23 22  0  0  1  0  0  0  0  0999 V2000
   28.8866  -11.7437  -17.2703 C   0  0  0  0  0  0  0  0  0  0  0  0
   27.8953  -12.2231  -16.2630 C   0  0  0  0  0  0  0  0  0  0  0  0
   26.6553  -11.3963  -16.2899 C   0  0  2  0  0  0  0  0  0  0  0  0
   26.9651   -9.9097  -16.2142 C   0  0  0  0  0  0  0  0  0  0  0  0
   25.5657  -11.7998  -15.3559 C   0  0  2  0  0  0  0  0  0  0  0  0
   25.3834  -13.2493  -15.6036 N   0  0  0  0  0  0  0  0  0  0  0  0
   24.2689  -11.1587  -15.5379 C   0  0  0  0  0  0  0  0  0  0  0  0
   23.6366  -11.2960  -16.6494 O   0  0  0  0  0  0  0  0  0  0  0  0
   21.7615   -9.1719  -13.5802 C   0  0  0  0  0  0  0  0  0  0  0  0
   22.3633   -9.6246  -14.9118 C   0  0  2  0  0  0  0  0  0  0  0  0
   23.5685  -10.3574  -14.5972 N   0  0  0  0  0  0  0  0  0  0  0  0
   22.6201   -8.4078  -15.6982 C   0  0  0  0  0  0  0  0  0  0  0  0
   23.6295   -8.2203  -16.4228 O   0  0  0  0  0  0  0  0  0  0  0  0
   21.6228   -7.3684  -15.6131 N   0  0  0  0  0  0  0  0  0  0  0  0
   21.3869   -6.4510  -16.6928 C   0  0  1  0  0  0  0  0  0  0  0  0
   21.0134   -7.2220  -17.9408 C   0  0  0  0  0  0  0  0  0  0  0  0
   20.6349   -6.3249  -19.0767 C   0  0  0  0  0  0  0  0  0  0  0  0
   20.3516   -7.1547  -20.3124 C   0  0  0  0  0  0  0  0  0  0  0  0
   20.0103   -6.3001  -21.5016 C   0  0  0  0  0  0  0  0  0  0  0  0
   19.8232   -7.0474  -22.7114 N   0  0  0  0  0  0  0  0  0  0  0  0
   20.2842   -5.5355  -16.3033 C   0  0  0  0  0  0  0  0  0  0  0  0
   19.1784   -5.9520  -15.5739 O   0  0  0  0  0  0  0  0  0  0  0  0
   20.3044   -4.3083  -16.6261 O   0  0  0  0  0  0  0  0  0  0  0  0
  2  3  1  0
  2  1  1  0
  3  5  1  0
  3  4  1  1
  5  7  1  0
  5  6  1  6
  7  8  2  0
 10  9  1  1
 10 12  1  0
 11 10  1  0
 11  7  1  0
 12 13  2  0
 14 15  1  0
 14 12  1  0
 15 21  1  0
 15 16  1  6
 17 16  1  0
 18 17  1  0
 19 18  1  0
 20 19  1  0
 21 23  2  0
 21 22  1  0
M  END
$$$$
