IAK.pdb
     RDKit          3D

 23 22  0  0  1  0  0  0  0  0999 V2000
   25.7978  -20.5909   -8.2608 C   0  0  0  0  0  0  0  0  0  0  0  0
   26.3478  -21.2407   -9.4865 C   0  0  0  0  0  0  0  0  0  0  0  0
   25.6138  -20.8004  -10.7068 C   0  0  2  0  0  0  0  0  0  0  0  0
   24.1099  -20.9624  -10.5515 C   0  0  0  0  0  0  0  0  0  0  0  0
   26.1121  -21.3263  -12.0096 C   0  0  2  0  0  0  0  0  0  0  0  0
   27.5871  -21.3281  -11.8685 N   0  0  0  0  0  0  0  0  0  0  0  0
   25.7881  -20.5519  -13.2018 C   0  0  0  0  0  0  0  0  0  0  0  0
   25.8549  -19.2679  -13.1695 O   0  0  0  0  0  0  0  0  0  0  0  0
   25.9323  -20.5499  -16.7381 C   0  0  0  0  0  0  0  0  0  0  0  0
   24.9973  -20.2114  -15.5756 C   0  0  2  0  0  0  0  0  0  0  0  0
   25.3865  -21.0543  -14.4682 N   0  0  0  0  0  0  0  0  0  0  0  0
   23.6266  -20.4732  -16.0421 C   0  0  0  0  0  0  0  0  0  0  0  0
   22.9481  -21.4883  -15.7452 O   0  0  0  0  0  0  0  0  0  0  0  0
   23.0418  -19.4738  -16.9034 N   0  0  0  0  0  0  0  0  0  0  0  0
   21.6210  -19.2815  -16.9891 C   0  0  1  0  0  0  0  0  0  0  0  0
   21.0893  -18.8237  -15.6478 C   0  0  0  0  0  0  0  0  0  0  0  0
   20.0735  -19.7655  -15.0824 C   0  0  0  0  0  0  0  0  0  0  0  0
   20.6115  -20.3989  -13.8155 C   0  0  0  0  0  0  0  0  0  0  0  0
   19.6365  -21.3709  -13.2110 C   0  0  0  0  0  0  0  0  0  0  0  0
   20.1271  -22.0161  -12.0278 N   0  0  0  0  0  0  0  0  0  0  0  0
   21.3441  -18.2585  -18.0297 C   0  0  0  0  0  0  0  0  0  0  0  0
   20.0941  -18.0912  -18.6108 O   0  0  0  0  0  0  0  0  0  0  0  0
   22.2554  -17.4771  -18.4415 O   0  0  0  0  0  0  0  0  0  0  0  0
  2  3  1  0
  2  1  1  0
  3  5  1  0
  3  4  1  1
  5  7  1  0
  5  6  1  1
  7  8  2  0
 10  9  1  6
 10 12  1  0
 11 10  1  0
 11  7  1  0
 12 13  2  0
 14 15  1  0
 14 12  1  0
 15 21  1  0
 15 16  1  1
 17 16  1  0
 18 17  1  0
 19 18  1  0
 20 19  1  0
 21 23  2  0
 21 22  1  0
M  END
$$$$
