IAK.pdb
     RDKit          3D

 23 22  0  0  1  0  0  0  0  0999 V2000
   27.3723  -20.4259   -8.2604 C   0  0  0  0  0  0  0  0  0  0  0  0
   27.1688  -20.9752   -9.6330 C   0  0  0  0  0  0  0  0  0  0  0  0
   25.7406  -20.8761  -10.0480 C   0  0  2  0  0  0  0  0  0  0  0  0
   24.8063  -21.4702   -9.0059 C   0  0  0  0  0  0  0  0  0  0  0  0
   25.4158  -21.3309  -11.4300 C   0  0  2  0  0  0  0  0  0  0  0  0
   26.5253  -20.8090  -12.2621 N   0  0  0  0  0  0  0  0  0  0  0  0
   24.1691  -20.8449  -12.0093 C   0  0  0  0  0  0  0  0  0  0  0  0
   23.5449  -19.8655  -11.4569 O   0  0  0  0  0  0  0  0  0  0  0  0
   22.1516  -20.6349  -15.0026 C   0  0  0  0  0  0  0  0  0  0  0  0
   22.1508  -21.0052  -13.5183 C   0  0  2  0  0  0  0  0  0  0  0  0
   23.5138  -21.3356  -13.1700 N   0  0  0  0  0  0  0  0  0  0  0  0
   21.2276  -22.1404  -13.3636 C   0  0  0  0  0  0  0  0  0  0  0  0
   21.5315  -23.3448  -13.5535 O   0  0  0  0  0  0  0  0  0  0  0  0
   19.8790  -21.8187  -12.9633 N   0  0  0  0  0  0  0  0  0  0  0  0
   18.9156  -22.8369  -12.6503 C   0  0  1  0  0  0  0  0  0  0  0  0
   18.4154  -22.6439  -11.2347 C   0  0  0  0  0  0  0  0  0  0  0  0
   19.0530  -23.5909  -10.2676 C   0  0  0  0  0  0  0  0  0  0  0  0
   18.5453  -23.3120   -8.8675 C   0  0  0  0  0  0  0  0  0  0  0  0
   19.0793  -24.2978   -7.8655 C   0  0  0  0  0  0  0  0  0  0  0  0
   18.7062  -24.0013   -6.5127 N   0  0  0  0  0  0  0  0  0  0  0  0
   17.7894  -22.7347  -13.6132 C   0  0  0  0  0  0  0  0  0  0  0  0
   17.0844  -23.8398  -14.0713 O   0  0  0  0  0  0  0  0  0  0  0  0
   17.4146  -21.6110  -14.0687 O   0  0  0  0  0  0  0  0  0  0  0  0
  2  3  1  0
  2  1  1  0
  3  5  1  0
  3  4  1  1
  5  7  1  0
  5  6  1  6
  7  8  2  0
 10  9  1  6
 10 12  1  0
 11 10  1  0
 11  7  1  0
 12 13  2  0
 14 15  1  0
 14 12  1  0
 15 21  1  0
 15 16  1  1
 17 16  1  0
 18 17  1  0
 19 18  1  0
 20 19  1  0
 21 23  2  0
 21 22  1  0
M  END
$$$$
