IAK.pdb
     RDKit          3D

 23 22  0  0  1  0  0  0  0  0999 V2000
   28.0574  -21.4985   -7.4226 C   0  0  0  0  0  0  0  0  0  0  0  0
   27.0087  -20.5719   -7.9409 C   0  0  0  0  0  0  0  0  0  0  0  0
   26.8634  -20.6937   -9.4195 C   0  0  2  0  0  0  0  0  0  0  0  0
   28.2125  -20.7133  -10.1205 C   0  0  0  0  0  0  0  0  0  0  0  0
   25.8954  -19.7667  -10.0720 C   0  0  2  0  0  0  0  0  0  0  0  0
   24.5728  -20.1859   -9.5517 N   0  0  0  0  0  0  0  0  0  0  0  0
   25.8242  -19.8038  -11.5278 C   0  0  0  0  0  0  0  0  0  0  0  0
   25.0163  -20.6183  -12.1092 O   0  0  0  0  0  0  0  0  0  0  0  0
   27.4406  -18.1332  -14.4856 C   0  0  0  0  0  0  0  0  0  0  0  0
   26.4448  -19.1236  -13.8791 C   0  0  2  0  0  0  0  0  0  0  0  0
   26.5697  -19.0144  -12.4436 N   0  0  0  0  0  0  0  0  0  0  0  0
   26.8072  -20.4561  -14.3871 C   0  0  0  0  0  0  0  0  0  0  0  0
   27.5312  -21.2843  -13.7796 O   0  0  0  0  0  0  0  0  0  0  0  0
   26.2785  -20.8132  -15.6815 N   0  0  0  0  0  0  0  0  0  0  0  0
   25.7743  -22.1289  -15.9600 C   0  0  1  0  0  0  0  0  0  0  0  0
   24.6660  -22.4642  -14.9850 C   0  0  0  0  0  0  0  0  0  0  0  0
   24.7525  -23.8700  -14.4804 C   0  0  0  0  0  0  0  0  0  0  0  0
   24.4456  -24.8377  -15.6053 C   0  0  0  0  0  0  0  0  0  0  0  0
   24.4496  -26.2670  -15.1385 C   0  0  0  0  0  0  0  0  0  0  0  0
   24.0892  -27.2063  -16.1607 N   0  0  0  0  0  0  0  0  0  0  0  0
   25.2599  -22.1532  -17.3531 C   0  0  0  0  0  0  0  0  0  0  0  0
   26.0781  -22.3523  -18.4572 O   0  0  0  0  0  0  0  0  0  0  0  0
   24.0259  -21.9901  -17.6006 O   0  0  0  0  0  0  0  0  0  0  0  0
  2  3  1  0
  2  1  1  0
  3  5  1  0
  3  4  1  6
  5  7  1  0
  5  6  1  1
  7  8  2  0
 10  9  1  6
 10 12  1  0
 11 10  1  0
 11  7  1  0
 12 13  2  0
 14 15  1  0
 14 12  1  0
 15 21  1  0
 15 16  1  1
 17 16  1  0
 18 17  1  0
 19 18  1  0
 20 19  1  0
 21 23  2  0
 21 22  1  0
M  END
$$$$
