IAK.pdb
     RDKit          3D

 23 22  0  0  1  0  0  0  0  0999 V2000
   24.6418  -12.7621  -18.9743 C   0  0  0  0  0  0  0  0  0  0  0  0
   24.2040  -12.6858  -17.5497 C   0  0  0  0  0  0  0  0  0  0  0  0
   23.3288  -11.5019  -17.3164 C   0  0  2  0  0  0  0  0  0  0  0  0
   23.9299  -10.2313  -17.8961 C   0  0  0  0  0  0  0  0  0  0  0  0
   22.8233  -11.3110  -15.9271 C   0  0  2  0  0  0  0  0  0  0  0  0
   22.1749  -12.5996  -15.5885 N   0  0  0  0  0  0  0  0  0  0  0  0
   21.8360  -10.2578  -15.7224 C   0  0  0  0  0  0  0  0  0  0  0  0
   20.9712  -10.0033  -16.6396 O   0  0  0  0  0  0  0  0  0  0  0  0
   20.7418   -7.8900  -13.0174 C   0  0  0  0  0  0  0  0  0  0  0  0
   20.6785   -8.4045  -14.4567 C   0  0  2  0  0  0  0  0  0  0  0  0
   21.6917   -9.4276  -14.5790 N   0  0  0  0  0  0  0  0  0  0  0  0
   20.9220   -7.2479  -15.3330 C   0  0  0  0  0  0  0  0  0  0  0  0
   22.0575   -6.8101  -15.6462 O   0  0  0  0  0  0  0  0  0  0  0  0
   19.7525   -6.5854  -15.8583 N   0  0  0  0  0  0  0  0  0  0  0  0
   19.8505   -5.4572  -16.7417 C   0  0  1  0  0  0  0  0  0  0  0  0
   18.8457   -5.6034  -17.8644 C   0  0  0  0  0  0  0  0  0  0  0  0
   18.8541   -4.4335  -18.7969 C   0  0  0  0  0  0  0  0  0  0  0  0
   17.8625   -4.6656  -19.9188 C   0  0  0  0  0  0  0  0  0  0  0  0
   17.8492   -3.5310  -20.9055 C   0  0  0  0  0  0  0  0  0  0  0  0
   16.8507   -3.6687  -21.9259 N   0  0  0  0  0  0  0  0  0  0  0  0
   19.5777   -4.2219  -15.9635 C   0  0  0  0  0  0  0  0  0  0  0  0
   18.7483   -4.1981  -14.8501 O   0  0  0  0  0  0  0  0  0  0  0  0
   20.1007   -3.1121  -16.2882 O   0  0  0  0  0  0  0  0  0  0  0  0
  2  3  1  0
  2  1  1  0
  3  5  1  0
  3  4  1  1
  5  7  1  0
  5  6  1  6
  7  8  2  0
 10  9  1  1
 10 12  1  0
 11 10  1  0
 11  7  1  0
 12 13  2  0
 14 15  1  0
 14 12  1  0
 15 21  1  0
 15 16  1  6
 17 16  1  0
 18 17  1  0
 19 18  1  0
 20 19  1  0
 21 23  2  0
 21 22  1  0
M  END
$$$$
