EIM.pdb
     RDKit          3D

 26 25  0  0  1  0  0  0  0  0999 V2000
    7.3417  -18.1076   21.9808 N   0  0  0  0  0  0  0  0  0  0  0  0
    8.4875  -17.4792   21.3250 C   0  0  1  0  0  0  0  0  0  0  0  0
    8.0620  -17.1281   19.9430 C   0  0  0  0  0  0  0  0  0  0  0  0
    8.6105  -17.9708   18.8447 C   0  0  0  0  0  0  0  0  0  0  0  0
    8.1481  -17.5728   17.4997 C   0  0  0  0  0  0  0  0  0  0  0  0
    8.9235  -17.0255   16.6907 O   0  0  0  0  0  0  0  0  0  0  0  0
    8.9859  -16.3340   22.1291 C   0  0  0  0  0  0  0  0  0  0  0  0
    9.9059  -15.5741   21.7444 O   0  0  0  0  0  0  0  0  0  0  0  0
    6.8445  -17.7920   17.0915 O   0  0  0  0  0  0  0  0  0  0  0  0
    5.4053  -13.7771   25.4277 C   0  0  0  0  0  0  0  0  0  0  0  0
    6.4844  -14.0763   24.4130 C   0  0  0  0  0  0  0  0  0  0  0  0
    7.7562  -14.4088   25.1243 C   0  0  2  0  0  0  0  0  0  0  0  0
    8.2741  -13.1787   25.8358 C   0  0  0  0  0  0  0  0  0  0  0  0
    8.8389  -14.8556   24.1700 C   0  0  2  0  0  0  0  0  0  0  0  0
    8.4314  -16.0259   23.4192 N   0  0  0  0  0  0  0  0  0  0  0  0
   10.1201  -15.1834   24.8762 C   0  0  0  0  0  0  0  0  0  0  0  0
   10.9559  -14.2786   25.1375 O   0  0  0  0  0  0  0  0  0  0  0  0
   11.6668  -13.3825   30.0350 C   0  0  0  0  0  0  0  0  0  0  0  0
   10.7579  -14.1518   28.6803 S   0  0  0  0  0  0  0  0  0  0  0  0
   10.7034  -15.9870   28.8912 C   0  0  0  0  0  0  0  0  0  0  0  0
    9.9735  -16.5674   27.7074 C   0  0  0  0  0  0  0  0  0  0  0  0
   10.8658  -16.9574   26.5580 C   0  0  2  0  0  0  0  0  0  0  0  0
   10.4540  -16.4806   25.2769 N   0  0  0  0  0  0  0  0  0  0  0  0
   10.8766  -18.4172   26.4740 C   0  0  0  0  0  0  0  0  0  0  0  0
   10.1945  -18.9896   25.5933 O   0  0  0  0  0  0  0  0  0  0  0  0
   11.6180  -19.1823   27.3392 O   0  0  0  0  0  0  0  0  0  0  0  0
  2  1  1  1
  3  2  1  0
  4  3  1  0
  5  6  2  0
  5  4  1  0
  7  2  1  0
  7  8  2  0
  9  5  1  0
 10 11  1  0
 11 12  1  0
 12 14  1  0
 12 13  1  6
 14 15  1  1
 15  7  1  0
 16 14  1  0
 17 16  2  0
 19 18  1  0
 19 20  1  0
 20 21  1  0
 22 21  1  1
 22 24  1  0
 22 23  1  0
 23 16  1  0
 24 26  1  0
 25 24  2  0
M  END
$$$$
