EIM.pdb
     RDKit          3D

 26 25  0  0  1  0  0  0  0  0999 V2000
    8.2277  -14.6738   19.7666 N   0  0  0  0  0  0  0  0  0  0  0  0
    7.5480  -15.2614   20.9202 C   0  0  1  0  0  0  0  0  0  0  0  0
    7.4288  -16.7217   20.6604 C   0  0  0  0  0  0  0  0  0  0  0  0
    7.9242  -17.2045   19.3418 C   0  0  0  0  0  0  0  0  0  0  0  0
    8.6074  -18.5124   19.4038 C   0  0  0  0  0  0  0  0  0  0  0  0
    9.8510  -18.5898   19.3493 O   0  0  0  0  0  0  0  0  0  0  0  0
    8.2574  -14.9122   22.1777 C   0  0  0  0  0  0  0  0  0  0  0  0
    9.4869  -14.6727   22.2284 O   0  0  0  0  0  0  0  0  0  0  0  0
    7.8956  -19.6926   19.5238 O   0  0  0  0  0  0  0  0  0  0  0  0
    5.8109  -11.8504   25.9978 C   0  0  0  0  0  0  0  0  0  0  0  0
    6.8623  -12.4335   25.0825 C   0  0  0  0  0  0  0  0  0  0  0  0
    7.3062  -13.7573   25.6161 C   0  0  2  0  0  0  0  0  0  0  0  0
    8.0672  -13.5525   26.9071 C   0  0  0  0  0  0  0  0  0  0  0  0
    8.2374  -14.4690   24.6628 C   0  0  2  0  0  0  0  0  0  0  0  0
    7.5611  -14.8277   23.4327 N   0  0  0  0  0  0  0  0  0  0  0  0
    8.8111  -15.7208   25.2560 C   0  0  0  0  0  0  0  0  0  0  0  0
    8.1931  -16.8139   25.1632 O   0  0  0  0  0  0  0  0  0  0  0  0
   11.1520  -13.7062   28.5509 C   0  0  0  0  0  0  0  0  0  0  0  0
   10.6586  -15.3745   29.0266 S   0  0  0  0  0  0  0  0  0  0  0  0
   11.9498  -16.6015   28.5340 C   0  0  0  0  0  0  0  0  0  0  0  0
   12.1123  -16.5268   27.0376 C   0  0  0  0  0  0  0  0  0  0  0  0
   10.8660  -16.8613   26.2603 C   0  0  2  0  0  0  0  0  0  0  0  0
   10.0359  -15.7477   25.9296 N   0  0  0  0  0  0  0  0  0  0  0  0
   10.0521  -17.7565   27.0813 C   0  0  0  0  0  0  0  0  0  0  0  0
    8.9169  -17.3859   27.4591 O   0  0  0  0  0  0  0  0  0  0  0  0
   10.5006  -18.9996   27.4520 O   0  0  0  0  0  0  0  0  0  0  0  0
  2  1  1  6
  3  2  1  0
  4  3  1  0
  5  6  2  0
  5  4  1  0
  7  2  1  0
  7  8  2  0
  9  5  1  0
 10 11  1  0
 11 12  1  0
 12 14  1  0
 12 13  1  1
 14 15  1  6
 15  7  1  0
 16 14  1  0
 17 16  2  0
 19 18  1  0
 19 20  1  0
 20 21  1  0
 22 21  1  1
 22 24  1  0
 22 23  1  0
 23 16  1  0
 24 26  1  0
 25 24  2  0
M  END
$$$$
