EIM.pdb
     RDKit          3D

 26 25  0  0  1  0  0  0  0  0999 V2000
    8.4729  -14.9928   19.6990 N   0  0  0  0  0  0  0  0  0  0  0  0
    7.8534  -15.6560   20.8454 C   0  0  1  0  0  0  0  0  0  0  0  0
    7.9343  -17.1212   20.5993 C   0  0  0  0  0  0  0  0  0  0  0  0
    9.2999  -17.6950   20.4473 C   0  0  0  0  0  0  0  0  0  0  0  0
    9.3101  -19.1464   20.1743 C   0  0  0  0  0  0  0  0  0  0  0  0
    9.8384  -19.9456   20.9729 O   0  0  0  0  0  0  0  0  0  0  0  0
    8.4840  -15.2055   22.1127 C   0  0  0  0  0  0  0  0  0  0  0  0
    9.6779  -14.8310   22.1900 O   0  0  0  0  0  0  0  0  0  0  0  0
    8.7369  -19.6686   19.0286 O   0  0  0  0  0  0  0  0  0  0  0  0
    5.7255  -12.1807   25.6817 C   0  0  0  0  0  0  0  0  0  0  0  0
    6.8091  -12.7768   24.8133 C   0  0  0  0  0  0  0  0  0  0  0  0
    7.3396  -14.0148   25.4612 C   0  0  2  0  0  0  0  0  0  0  0  0
    8.0494  -13.6488   26.7457 C   0  0  0  0  0  0  0  0  0  0  0  0
    8.3469  -14.7247   24.5871 C   0  0  2  0  0  0  0  0  0  0  0  0
    7.7470  -15.1728   23.3467 N   0  0  0  0  0  0  0  0  0  0  0  0
    8.9488  -15.9181   25.2663 C   0  0  0  0  0  0  0  0  0  0  0  0
    8.3634  -17.0325   25.2385 O   0  0  0  0  0  0  0  0  0  0  0  0
   10.7154  -13.2771   28.7426 C   0  0  0  0  0  0  0  0  0  0  0  0
   11.2510  -14.6217   29.8188 S   0  0  0  0  0  0  0  0  0  0  0  0
   10.8027  -16.2592   29.0886 C   0  0  0  0  0  0  0  0  0  0  0  0
   11.6420  -16.4604   27.8533 C   0  0  0  0  0  0  0  0  0  0  0  0
   10.8657  -16.9025   26.6404 C   0  0  2  0  0  0  0  0  0  0  0  0
   10.1657  -15.8655   25.9527 N   0  0  0  0  0  0  0  0  0  0  0  0
    9.8560  -17.8643   27.0803 C   0  0  0  0  0  0  0  0  0  0  0  0
    8.6754  -17.4836   27.2535 O   0  0  0  0  0  0  0  0  0  0  0  0
   10.1681  -19.1809   27.3102 O   0  0  0  0  0  0  0  0  0  0  0  0
  2  1  1  6
  3  2  1  0
  4  3  1  0
  5  6  2  0
  5  4  1  0
  7  2  1  0
  7  8  2  0
  9  5  1  0
 10 11  1  0
 11 12  1  0
 12 14  1  0
 12 13  1  1
 14 15  1  6
 15  7  1  0
 16 14  1  0
 17 16  2  0
 19 18  1  0
 19 20  1  0
 20 21  1  0
 22 21  1  1
 22 24  1  0
 22 23  1  0
 23 16  1  0
 24 26  1  0
 25 24  2  0
M  END
$$$$
