EIM.pdb
     RDKit          3D

 26 25  0  0  1  0  0  0  0  0999 V2000
    9.6976  -18.2996   18.6802 N   0  0  0  0  0  0  0  0  0  0  0  0
   11.0136  -18.0046   19.2449 C   0  0  1  0  0  0  0  0  0  0  0  0
   11.9192  -17.6955   18.1054 C   0  0  0  0  0  0  0  0  0  0  0  0
   13.2633  -18.3357   18.1324 C   0  0  0  0  0  0  0  0  0  0  0  0
   14.1388  -17.9322   17.0134 C   0  0  0  0  0  0  0  0  0  0  0  0
   14.4794  -18.7522   16.1376 O   0  0  0  0  0  0  0  0  0  0  0  0
   10.9148  -16.9303   20.2660 C   0  0  0  0  0  0  0  0  0  0  0  0
   11.9122  -16.4445   20.8499 O   0  0  0  0  0  0  0  0  0  0  0  0
   14.6099  -16.6367   16.8977 O   0  0  0  0  0  0  0  0  0  0  0  0
    5.9524  -14.1727   21.0549 C   0  0  0  0  0  0  0  0  0  0  0  0
    7.0943  -15.1551   21.1750 C   0  0  0  0  0  0  0  0  0  0  0  0
    8.3763  -14.4070   21.3510 C   0  0  2  0  0  0  0  0  0  0  0  0
    8.7124  -13.6722   20.0724 C   0  0  0  0  0  0  0  0  0  0  0  0
    9.5349  -15.3301   21.6473 C   0  0  2  0  0  0  0  0  0  0  0  0
    9.6453  -16.3761   20.6508 N   0  0  0  0  0  0  0  0  0  0  0  0
    9.4125  -15.9840   22.9910 C   0  0  0  0  0  0  0  0  0  0  0  0
    9.0209  -17.1767   23.0884 O   0  0  0  0  0  0  0  0  0  0  0  0
    9.6472  -12.4510   28.7699 C   0  0  0  0  0  0  0  0  0  0  0  0
   10.5211  -13.9856   29.1364 S   0  0  0  0  0  0  0  0  0  0  0  0
    9.9762  -15.3342   27.9962 C   0  0  0  0  0  0  0  0  0  0  0  0
   10.0411  -14.8035   26.5873 C   0  0  0  0  0  0  0  0  0  0  0  0
    9.6601  -15.8049   25.5283 C   0  0  2  0  0  0  0  0  0  0  0  0
    9.7188  -15.3247   24.1851 N   0  0  0  0  0  0  0  0  0  0  0  0
    8.2737  -16.2038   25.7665 C   0  0  0  0  0  0  0  0  0  0  0  0
    7.3439  -15.5415   25.2513 O   0  0  0  0  0  0  0  0  0  0  0  0
    7.9610  -17.2906   26.5442 O   0  0  0  0  0  0  0  0  0  0  0  0
  2  1  1  6
  3  2  1  0
  4  3  1  0
  5  6  2  0
  5  4  1  0
  7  2  1  0
  7  8  2  0
  9  5  1  0
 10 11  1  0
 11 12  1  0
 12 14  1  0
 12 13  1  6
 14 15  1  6
 15  7  1  0
 16 14  1  0
 17 16  2  0
 19 18  1  0
 19 20  1  0
 20 21  1  0
 22 21  1  1
 22 24  1  0
 22 23  1  0
 23 16  1  0
 24 26  1  0
 25 24  2  0
M  END
$$$$
