EIM.pdb
     RDKit          3D

 26 25  0  0  1  0  0  0  0  0999 V2000
   11.0583  -18.4034   18.5477 N   0  0  0  0  0  0  0  0  0  0  0  0
    9.7731  -18.1833   19.2091 C   0  0  1  0  0  0  0  0  0  0  0  0
    9.4513  -19.4247   19.9637 C   0  0  0  0  0  0  0  0  0  0  0  0
   10.6012  -20.1493   20.5720 C   0  0  0  0  0  0  0  0  0  0  0  0
   10.2148  -21.3689   21.3100 C   0  0  0  0  0  0  0  0  0  0  0  0
    9.6925  -22.3364   20.7214 O   0  0  0  0  0  0  0  0  0  0  0  0
    9.8158  -16.9499   20.0359 C   0  0  0  0  0  0  0  0  0  0  0  0
   10.8698  -16.5014   20.5455 O   0  0  0  0  0  0  0  0  0  0  0  0
   10.4176  -21.4808   22.6739 O   0  0  0  0  0  0  0  0  0  0  0  0
    7.2544  -12.3991   18.7229 C   0  0  0  0  0  0  0  0  0  0  0  0
    8.2288  -13.4245   19.2545 C   0  0  0  0  0  0  0  0  0  0  0  0
    7.7534  -13.9194   20.5823 C   0  0  2  0  0  0  0  0  0  0  0  0
    7.7631  -12.7817   21.5789 C   0  0  0  0  0  0  0  0  0  0  0  0
    8.6501  -15.0008   21.1381 C   0  0  2  0  0  0  0  0  0  0  0  0
    8.6281  -16.1856   20.3043 N   0  0  0  0  0  0  0  0  0  0  0  0
    8.2584  -15.4068   22.5272 C   0  0  0  0  0  0  0  0  0  0  0  0
    7.3156  -16.2202   22.7138 O   0  0  0  0  0  0  0  0  0  0  0  0
    7.5274  -11.6300   27.5285 C   0  0  0  0  0  0  0  0  0  0  0  0
    6.0724  -12.5802   27.0457 S   0  0  0  0  0  0  0  0  0  0  0  0
    6.5413  -14.3140   26.6102 C   0  0  0  0  0  0  0  0  0  0  0  0
    7.0364  -14.3159   25.1868 C   0  0  0  0  0  0  0  0  0  0  0  0
    8.4334  -14.8530   25.0161 C   0  0  2  0  0  0  0  0  0  0  0  0
    8.9013  -14.9189   23.6688 N   0  0  0  0  0  0  0  0  0  0  0  0
    8.4536  -16.2217   25.5301 C   0  0  0  0  0  0  0  0  0  0  0  0
    8.5611  -17.1797   24.7305 O   0  0  0  0  0  0  0  0  0  0  0  0
    8.3572  -16.4875   26.8732 O   0  0  0  0  0  0  0  0  0  0  0  0
  2  1  1  1
  3  2  1  0
  4  3  1  0
  5  6  2  0
  5  4  1  0
  7  2  1  0
  7  8  2  0
  9  5  1  0
 10 11  1  0
 11 12  1  0
 12 14  1  0
 12 13  1  1
 14 15  1  6
 15  7  1  0
 16 14  1  0
 17 16  2  0
 19 18  1  0
 19 20  1  0
 20 21  1  0
 22 21  1  6
 22 24  1  0
 22 23  1  0
 23 16  1  0
 24 26  1  0
 25 24  2  0
M  END
$$$$
