EIM.pdb
     RDKit          3D

 26 25  0  0  1  0  0  0  0  0999 V2000
    9.2022  -18.4606   18.8853 N   0  0  0  0  0  0  0  0  0  0  0  0
   10.5001  -18.0353   19.4073 C   0  0  1  0  0  0  0  0  0  0  0  0
   11.4410  -17.9894   18.2554 C   0  0  0  0  0  0  0  0  0  0  0  0
   10.8312  -17.8411   16.9051 C   0  0  0  0  0  0  0  0  0  0  0  0
   11.8120  -17.8703   15.8012 C   0  0  0  0  0  0  0  0  0  0  0  0
   11.4402  -17.9747   14.6154 O   0  0  0  0  0  0  0  0  0  0  0  0
   10.3699  -16.7564   20.1516 C   0  0  0  0  0  0  0  0  0  0  0  0
   11.3544  -16.0727   20.5189 O   0  0  0  0  0  0  0  0  0  0  0  0
   13.1715  -17.7833   16.0423 O   0  0  0  0  0  0  0  0  0  0  0  0
    7.5539  -12.6570   18.6239 C   0  0  0  0  0  0  0  0  0  0  0  0
    8.5429  -13.5982   19.2715 C   0  0  0  0  0  0  0  0  0  0  0  0
    8.0262  -14.0172   20.6100 C   0  0  2  0  0  0  0  0  0  0  0  0
    7.9360  -12.8104   21.5174 C   0  0  0  0  0  0  0  0  0  0  0  0
    8.9428  -15.0101   21.2858 C   0  0  2  0  0  0  0  0  0  0  0  0
    9.0826  -16.2194   20.5002 N   0  0  0  0  0  0  0  0  0  0  0  0
    8.4546  -15.3990   22.6489 C   0  0  0  0  0  0  0  0  0  0  0  0
    7.4051  -16.0820   22.7815 O   0  0  0  0  0  0  0  0  0  0  0  0
    7.4909  -11.7326   27.9413 C   0  0  0  0  0  0  0  0  0  0  0  0
    6.1920  -12.4937   26.9480 S   0  0  0  0  0  0  0  0  0  0  0  0
    6.5998  -14.2591   26.5838 C   0  0  0  0  0  0  0  0  0  0  0  0
    7.1810  -14.3227   25.1948 C   0  0  0  0  0  0  0  0  0  0  0  0
    8.5972  -14.8331   25.1371 C   0  0  2  0  0  0  0  0  0  0  0  0
    9.1195  -15.0361   23.8239 N   0  0  0  0  0  0  0  0  0  0  0  0
    8.6325  -16.1340   25.8037 C   0  0  0  0  0  0  0  0  0  0  0  0
    8.2103  -16.2371   26.9784 O   0  0  0  0  0  0  0  0  0  0  0  0
    9.1187  -17.2524   25.1740 O   0  0  0  0  0  0  0  0  0  0  0  0
  2  1  1  6
  3  2  1  0
  4  3  1  0
  5  6  2  0
  5  4  1  0
  7  2  1  0
  7  8  2  0
  9  5  1  0
 10 11  1  0
 11 12  1  0
 12 14  1  0
 12 13  1  1
 14 15  1  6
 15  7  1  0
 16 14  1  0
 17 16  2  0
 19 18  1  0
 19 20  1  0
 20 21  1  0
 22 21  1  6
 22 24  1  0
 22 23  1  0
 23 16  1  0
 24 26  1  0
 25 24  2  0
M  END
$$$$
