EIM.pdb
     RDKit          3D

 26 25  0  0  1  0  0  0  0  0999 V2000
   10.7713  -17.4745   18.1999 N   0  0  0  0  0  0  0  0  0  0  0  0
   11.2098  -17.8140   19.5527 C   0  0  1  0  0  0  0  0  0  0  0  0
   12.6674  -18.1043   19.4800 C   0  0  0  0  0  0  0  0  0  0  0  0
   13.1184  -18.9618   18.3493 C   0  0  0  0  0  0  0  0  0  0  0  0
   14.5578  -19.2907   18.3872 C   0  0  0  0  0  0  0  0  0  0  0  0
   15.4183  -18.3938   18.4891 O   0  0  0  0  0  0  0  0  0  0  0  0
   10.8399  -16.7375   20.5071 C   0  0  0  0  0  0  0  0  0  0  0  0
   11.6428  -15.8542   20.8903 O   0  0  0  0  0  0  0  0  0  0  0  0
   15.0004  -20.5992   18.3115 O   0  0  0  0  0  0  0  0  0  0  0  0
    6.7316  -13.5641   19.7738 C   0  0  0  0  0  0  0  0  0  0  0  0
    8.0599  -14.1088   20.2453 C   0  0  0  0  0  0  0  0  0  0  0  0
    7.8552  -14.9040   21.4942 C   0  0  2  0  0  0  0  0  0  0  0  0
    7.4118  -13.9857   22.6113 C   0  0  0  0  0  0  0  0  0  0  0  0
    9.1284  -15.5752   21.9536 C   0  0  2  0  0  0  0  0  0  0  0  0
    9.5146  -16.6455   21.0567 N   0  0  0  0  0  0  0  0  0  0  0  0
    9.0028  -16.1509   23.3322 C   0  0  0  0  0  0  0  0  0  0  0  0
    8.5851  -17.3271   23.4984 O   0  0  0  0  0  0  0  0  0  0  0  0
   11.4750  -12.6457   28.1394 C   0  0  0  0  0  0  0  0  0  0  0  0
   11.0064  -14.0305   29.1956 S   0  0  0  0  0  0  0  0  0  0  0  0
   10.1746  -15.3520   28.2070 C   0  0  0  0  0  0  0  0  0  0  0  0
   10.1384  -14.9010   26.7695 C   0  0  0  0  0  0  0  0  0  0  0  0
    9.5348  -15.9023   25.8196 C   0  0  2  0  0  0  0  0  0  0  0  0
    9.3345  -15.4341   24.4858 N   0  0  0  0  0  0  0  0  0  0  0  0
    8.2159  -16.2693   26.3333 C   0  0  0  0  0  0  0  0  0  0  0  0
    7.2158  -15.5894   26.0076 O   0  0  0  0  0  0  0  0  0  0  0  0
    8.0425  -17.3449   27.1680 O   0  0  0  0  0  0  0  0  0  0  0  0
  2  1  1  6
  3  2  1  0
  4  3  1  0
  5  6  2  0
  5  4  1  0
  7  2  1  0
  7  8  2  0
  9  5  1  0
 10 11  1  0
 11 12  1  0
 12 14  1  0
 12 13  1  1
 14 15  1  6
 15  7  1  0
 16 14  1  0
 17 16  2  0
 19 18  1  0
 19 20  1  0
 20 21  1  0
 22 21  1  1
 22 24  1  0
 22 23  1  0
 23 16  1  0
 24 26  1  0
 25 24  2  0
M  END
$$$$
