EIM.pdb
     RDKit          3D

 26 25  0  0  1  0  0  0  0  0999 V2000
    8.9257  -15.2980   19.8321 N   0  0  0  0  0  0  0  0  0  0  0  0
    8.4519  -16.0901   20.9661 C   0  0  1  0  0  0  0  0  0  0  0  0
    8.8482  -17.5013   20.7099 C   0  0  0  0  0  0  0  0  0  0  0  0
    8.3363  -18.1177   19.4549 C   0  0  0  0  0  0  0  0  0  0  0  0
    8.6191  -19.5629   19.3416 C   0  0  0  0  0  0  0  0  0  0  0  0
    8.1861  -20.3696   20.1884 O   0  0  0  0  0  0  0  0  0  0  0  0
    8.9582  -15.5272   22.2441 C   0  0  0  0  0  0  0  0  0  0  0  0
   10.0860  -14.9917   22.3592 O   0  0  0  0  0  0  0  0  0  0  0  0
    9.3709  -20.0706   18.2972 O   0  0  0  0  0  0  0  0  0  0  0  0
    5.8346  -12.6005   25.4953 C   0  0  0  0  0  0  0  0  0  0  0  0
    6.9969  -13.1804   24.7232 C   0  0  0  0  0  0  0  0  0  0  0  0
    7.5605  -14.3436   25.4738 C   0  0  2  0  0  0  0  0  0  0  0  0
    8.1690  -13.8609   26.7717 C   0  0  0  0  0  0  0  0  0  0  0  0
    8.6588  -15.0372   24.7023 C   0  0  2  0  0  0  0  0  0  0  0  0
    8.1690  -15.5653   23.4452 N   0  0  0  0  0  0  0  0  0  0  0  0
    9.2675  -16.1701   25.4730 C   0  0  0  0  0  0  0  0  0  0  0  0
    8.9478  -17.3612   25.2185 O   0  0  0  0  0  0  0  0  0  0  0  0
   10.0909  -13.6993   29.1470 C   0  0  0  0  0  0  0  0  0  0  0  0
   11.8897  -13.8048   29.2243 S   0  0  0  0  0  0  0  0  0  0  0  0
   12.5113  -15.1553   28.1263 C   0  0  0  0  0  0  0  0  0  0  0  0
   11.7075  -16.3961   28.4186 C   0  0  0  0  0  0  0  0  0  0  0  0
   10.9519  -16.9398   27.2343 C   0  0  2  0  0  0  0  0  0  0  0  0
   10.2030  -15.9760   26.4936 N   0  0  0  0  0  0  0  0  0  0  0  0
    9.9890  -17.9226   27.7294 C   0  0  0  0  0  0  0  0  0  0  0  0
    8.8782  -17.5356   28.1596 O   0  0  0  0  0  0  0  0  0  0  0  0
   10.2706  -19.2658   27.7361 O   0  0  0  0  0  0  0  0  0  0  0  0
  2  1  1  6
  3  2  1  0
  4  3  1  0
  5  6  2  0
  5  4  1  0
  7  2  1  0
  7  8  2  0
  9  5  1  0
 10 11  1  0
 11 12  1  0
 12 14  1  0
 12 13  1  1
 14 15  1  6
 15  7  1  0
 16 14  1  0
 17 16  2  0
 19 18  1  0
 19 20  1  0
 20 21  1  0
 22 21  1  1
 22 24  1  0
 22 23  1  0
 23 16  1  0
 24 26  1  0
 25 24  2  0
M  END
$$$$
