GTN.pdb
     RDKit          3D

 20 19  0  0  1  0  0  0  0  0999 V2000
    9.6399  -18.8579   14.8310 N   0  0  0  0  0  0  0  0  0  0  0  0
   10.7462  -18.2319   15.5284 C   0  0  0  0  0  0  0  0  0  0  0  0
   11.1577  -19.0884   16.6677 C   0  0  0  0  0  0  0  0  0  0  0  0
   10.3780  -19.8852   17.2393 O   0  0  0  0  0  0  0  0  0  0  0  0
   14.1227  -21.4503   16.4814 C   0  0  0  0  0  0  0  0  0  0  0  0
   14.3064  -20.5925   17.7147 C   0  0  1  0  0  0  0  0  0  0  0  0
   15.2846  -19.6741   17.4370 O   0  0  0  0  0  0  0  0  0  0  0  0
   12.9929  -19.9587   18.1134 C   0  0  2  0  0  0  0  0  0  0  0  0
   12.4897  -19.0293   17.1609 N   0  0  0  0  0  0  0  0  0  0  0  0
   13.0982  -19.3759   19.4859 C   0  0  0  0  0  0  0  0  0  0  0  0
   13.4569  -18.1849   19.6702 O   0  0  0  0  0  0  0  0  0  0  0  0
    9.4798  -20.8068   21.9681 N   0  0  0  0  0  0  0  0  0  0  0  0
   10.4174  -19.9485   22.5947 C   0  0  0  0  0  0  0  0  0  0  0  0
   10.0134  -18.8019   22.9432 O   0  0  0  0  0  0  0  0  0  0  0  0
   11.8021  -20.3738   22.8328 C   0  0  0  0  0  0  0  0  0  0  0  0
   12.8319  -19.6905   21.9880 C   0  0  2  0  0  0  0  0  0  0  0  0
   12.7853  -20.1872   20.6105 N   0  0  0  0  0  0  0  0  0  0  0  0
   14.1825  -20.0836   22.4842 C   0  0  0  0  0  0  0  0  0  0  0  0
   14.9471  -20.8577   21.8332 O   0  0  0  0  0  0  0  0  0  0  0  0
   14.6481  -19.6145   23.6765 O   0  0  0  0  0  0  0  0  0  0  0  0
  2  1  1  0
  3  2  1  0
  4  3  2  0
  6  5  1  6
  7  6  1  0
  8  9  1  6
  8  6  1  0
  9  3  1  0
 10  8  1  0
 11 10  2  0
 13 12  1  0
 13 14  2  0
 15 13  1  0
 16 15  1  1
 16 17  1  0
 17 10  1  0
 18 20  1  0
 18 16  1  0
 19 18  2  0
M  END
$$$$
