GTN.pdb
     RDKit          3D

 20 19  0  0  1  0  0  0  0  0999 V2000
    7.6143  -13.1080   17.3792 N   0  0  0  0  0  0  0  0  0  0  0  0
    8.5624  -14.1162   17.8117 C   0  0  0  0  0  0  0  0  0  0  0  0
    8.0602  -14.7664   19.0469 C   0  0  0  0  0  0  0  0  0  0  0  0
    7.3213  -14.1832   19.8735 O   0  0  0  0  0  0  0  0  0  0  0  0
    6.1420  -17.9521   19.3192 C   0  0  0  0  0  0  0  0  0  0  0  0
    7.3197  -18.1164   20.2555 C   0  0  1  0  0  0  0  0  0  0  0  0
    8.1715  -19.0293   19.6913 O   0  0  0  0  0  0  0  0  0  0  0  0
    7.9724  -16.7780   20.5172 C   0  0  2  0  0  0  0  0  0  0  0  0
    8.4128  -16.1122   19.3395 N   0  0  0  0  0  0  0  0  0  0  0  0
    9.0573  -16.9246   21.5350 C   0  0  0  0  0  0  0  0  0  0  0  0
   10.2722  -16.8748   21.2148 O   0  0  0  0  0  0  0  0  0  0  0  0
    7.7504  -14.5985   25.3521 N   0  0  0  0  0  0  0  0  0  0  0  0
    9.0239  -15.2173   25.2931 C   0  0  0  0  0  0  0  0  0  0  0  0
   10.0376  -14.4612   25.2808 O   0  0  0  0  0  0  0  0  0  0  0  0
    9.1621  -16.6782   25.2507 C   0  0  0  0  0  0  0  0  0  0  0  0
    9.7031  -17.2293   23.9682 C   0  0  2  0  0  0  0  0  0  0  0  0
    8.7077  -17.1251   22.8983 N   0  0  0  0  0  0  0  0  0  0  0  0
    9.9180  -18.6953   24.1407 C   0  0  0  0  0  0  0  0  0  0  0  0
    9.0717  -19.5565   23.7538 O   0  0  0  0  0  0  0  0  0  0  0  0
   11.0530  -19.1661   24.7310 O   0  0  0  0  0  0  0  0  0  0  0  0
  2  1  1  0
  3  2  1  0
  4  3  2  0
  6  5  1  6
  7  6  1  0
  8  9  1  6
  8  6  1  0
  9  3  1  0
 10  8  1  0
 11 10  2  0
 13 12  1  0
 13 14  2  0
 15 13  1  0
 16 15  1  1
 16 17  1  0
 17 10  1  0
 18 20  1  0
 18 16  1  0
 19 18  2  0
M  END
$$$$
