GTN.pdb
     RDKit          3D

 20 19  0  0  1  0  0  0  0  0999 V2000
    6.5701  -12.5763   18.7733 N   0  0  0  0  0  0  0  0  0  0  0  0
    7.8436  -13.2548   18.6313 C   0  0  0  0  0  0  0  0  0  0  0  0
    7.8754  -14.4350   19.5295 C   0  0  0  0  0  0  0  0  0  0  0  0
    7.0345  -14.6238   20.4387 O   0  0  0  0  0  0  0  0  0  0  0  0
    7.4870  -17.9265   18.9235 C   0  0  0  0  0  0  0  0  0  0  0  0
    8.8330  -17.8660   19.6130 C   0  0  1  0  0  0  0  0  0  0  0  0
    9.7908  -18.1463   18.6742 O   0  0  0  0  0  0  0  0  0  0  0  0
    9.0244  -16.5191   20.2727 C   0  0  2  0  0  0  0  0  0  0  0  0
    8.8920  -15.4178   19.3817 N   0  0  0  0  0  0  0  0  0  0  0  0
   10.3132  -16.4951   21.0296 C   0  0  0  0  0  0  0  0  0  0  0  0
   11.2681  -15.7549   20.6814 O   0  0  0  0  0  0  0  0  0  0  0  0
   11.3036  -15.0896   25.1411 N   0  0  0  0  0  0  0  0  0  0  0  0
   10.6659  -16.3550   25.1617 C   0  0  0  0  0  0  0  0  0  0  0  0
    9.5757  -16.4463   25.7960 O   0  0  0  0  0  0  0  0  0  0  0  0
   11.2458  -17.5139   24.4719 C   0  0  0  0  0  0  0  0  0  0  0  0
   11.6370  -17.2759   23.0466 C   0  0  2  0  0  0  0  0  0  0  0  0
   10.4635  -17.3291   22.1710 N   0  0  0  0  0  0  0  0  0  0  0  0
   12.4926  -18.4126   22.5983 C   0  0  0  0  0  0  0  0  0  0  0  0
   12.0450  -19.3601   21.8846 O   0  0  0  0  0  0  0  0  0  0  0  0
   13.8089  -18.4710   22.9480 O   0  0  0  0  0  0  0  0  0  0  0  0
  2  1  1  0
  3  2  1  0
  4  3  2  0
  6  5  1  6
  7  6  1  0
  8  9  1  6
  8  6  1  0
  9  3  1  0
 10  8  1  0
 11 10  2  0
 13 12  1  0
 13 14  2  0
 15 13  1  0
 16 15  1  1
 16 17  1  0
 17 10  1  0
 18 20  1  0
 18 16  1  0
 19 18  2  0
M  END
$$$$
