GTN.pdb
     RDKit          3D

 20 19  0  0  1  0  0  0  0  0999 V2000
    4.0159  -18.1994   21.2753 N   0  0  0  0  0  0  0  0  0  0  0  0
    4.5540  -16.9071   21.6529 C   0  0  0  0  0  0  0  0  0  0  0  0
    5.9781  -16.8286   21.2447 C   0  0  0  0  0  0  0  0  0  0  0  0
    6.6217  -17.8155   20.8190 O   0  0  0  0  0  0  0  0  0  0  0  0
    7.2903  -13.8446   19.1771 C   0  0  0  0  0  0  0  0  0  0  0  0
    8.3329  -14.1389   20.2340 C   0  0  1  0  0  0  0  0  0  0  0  0
    8.3543  -13.0772   21.0998 O   0  0  0  0  0  0  0  0  0  0  0  0
    8.0323  -15.4548   20.9152 C   0  0  2  0  0  0  0  0  0  0  0  0
    6.6775  -15.5936   21.3267 N   0  0  0  0  0  0  0  0  0  0  0  0
    8.9994  -15.6897   22.0306 C   0  0  0  0  0  0  0  0  0  0  0  0
    8.6660  -15.5411   23.2339 O   0  0  0  0  0  0  0  0  0  0  0  0
   10.6715  -19.0395   25.3060 N   0  0  0  0  0  0  0  0  0  0  0  0
   11.5224  -18.2476   24.4953 C   0  0  0  0  0  0  0  0  0  0  0  0
   12.6044  -17.8431   25.0100 O   0  0  0  0  0  0  0  0  0  0  0  0
   11.1641  -17.9119   23.1119 C   0  0  0  0  0  0  0  0  0  0  0  0
   11.3034  -16.4655   22.7515 C   0  0  2  0  0  0  0  0  0  0  0  0
   10.3283  -16.0908   21.7243 N   0  0  0  0  0  0  0  0  0  0  0  0
   12.6307  -16.2698   22.0995 C   0  0  0  0  0  0  0  0  0  0  0  0
   12.8067  -16.4309   20.8542 O   0  0  0  0  0  0  0  0  0  0  0  0
   13.7187  -15.9043   22.8351 O   0  0  0  0  0  0  0  0  0  0  0  0
  2  1  1  0
  3  2  1  0
  4  3  2  0
  6  5  1  6
  7  6  1  0
  8  9  1  1
  8  6  1  0
  9  3  1  0
 10  8  1  0
 11 10  2  0
 13 12  1  0
 13 14  2  0
 15 13  1  0
 16 15  1  6
 16 17  1  0
 17 10  1  0
 18 20  1  0
 18 16  1  0
 19 18  2  0
M  END
$$$$
