GTN.pdb
     RDKit          3D

 20 19  0  0  1  0  0  0  0  0999 V2000
    3.6483  -18.6897   21.0185 N   0  0  0  0  0  0  0  0  0  0  0  0
    3.7721  -17.2502   20.8963 C   0  0  0  0  0  0  0  0  0  0  0  0
    5.2030  -16.8697   20.9887 C   0  0  0  0  0  0  0  0  0  0  0  0
    6.1270  -17.7087   21.0972 O   0  0  0  0  0  0  0  0  0  0  0  0
    8.7148  -13.4141   20.7223 C   0  0  0  0  0  0  0  0  0  0  0  0
    7.2591  -13.7608   20.4960 C   0  0  1  0  0  0  0  0  0  0  0  0
    7.0443  -13.7785   19.1428 O   0  0  0  0  0  0  0  0  0  0  0  0
    6.9216  -15.0725   21.1679 C   0  0  2  0  0  0  0  0  0  0  0  0
    5.5812  -15.4996   20.9560 N   0  0  0  0  0  0  0  0  0  0  0  0
    7.2856  -15.0173   22.6167 C   0  0  0  0  0  0  0  0  0  0  0  0
    6.4755  -14.6023   23.4842 O   0  0  0  0  0  0  0  0  0  0  0  0
    7.8178  -18.4790   26.8535 N   0  0  0  0  0  0  0  0  0  0  0  0
    8.4354  -17.3376   26.2843 C   0  0  0  0  0  0  0  0  0  0  0  0
    9.3036  -16.7379   26.9816 O   0  0  0  0  0  0  0  0  0  0  0  0
    8.0842  -16.8706   24.9376 C   0  0  0  0  0  0  0  0  0  0  0  0
    8.9167  -15.7397   24.4189 C   0  0  2  0  0  0  0  0  0  0  0  0
    8.5789  -15.4441   23.0243 N   0  0  0  0  0  0  0  0  0  0  0  0
   10.3395  -16.1855   24.3750 C   0  0  0  0  0  0  0  0  0  0  0  0
   11.2706  -15.5451   24.9498 O   0  0  0  0  0  0  0  0  0  0  0  0
   10.6920  -17.3178   23.7025 O   0  0  0  0  0  0  0  0  0  0  0  0
  2  1  1  0
  3  2  1  0
  4  3  2  0
  6  5  1  6
  7  6  1  0
  8  9  1  1
  8  6  1  0
  9  3  1  0
 10  8  1  0
 11 10  2  0
 13 12  1  0
 13 14  2  0
 15 13  1  0
 16 15  1  6
 16 17  1  0
 17 10  1  0
 18 20  1  0
 18 16  1  0
 19 18  2  0
M  END
$$$$
