VSL.pdb
     RDKit          3D

 22 21  0  0  1  0  0  0  0  0999 V2000
   18.9583  -13.1128  -18.5152 C   0  0  0  0  0  0  0  0  0  0  0  0
   20.3339  -13.7309  -18.7135 C   0  0  2  0  0  0  0  0  0  0  0  0
   20.3233  -14.7393  -19.8130 C   0  0  0  0  0  0  0  0  0  0  0  0
   20.8011  -14.3104  -17.3940 C   0  0  2  0  0  0  0  0  0  0  0  0
   19.9582  -15.4280  -17.0089 N   0  0  0  0  0  0  0  0  0  0  0  0
   20.7917  -13.2303  -16.3959 C   0  0  0  0  0  0  0  0  0  0  0  0
   19.7493  -12.9028  -15.7392 O   0  0  0  0  0  0  0  0  0  0  0  0
   24.3837  -11.0007  -15.8030 O   0  0  0  0  0  0  0  0  0  0  0  0
   23.4883  -11.1686  -14.7563 C   0  0  0  0  0  0  0  0  0  0  0  0
   22.0873  -11.4118  -15.2746 C   0  0  2  0  0  0  0  0  0  0  0  0
   22.0104  -12.5317  -16.1673 N   0  0  0  0  0  0  0  0  0  0  0  0
   21.5063  -10.1849  -15.8764 C   0  0  0  0  0  0  0  0  0  0  0  0
   21.6430  -10.0214  -17.1292 O   0  0  0  0  0  0  0  0  0  0  0  0
   17.0068   -6.3432  -15.4385 C   0  0  0  0  0  0  0  0  0  0  0  0
   18.4282   -6.4346  -16.0081 C   0  0  2  0  0  0  0  0  0  0  0  0
   18.2668   -6.5049  -17.5111 C   0  0  0  0  0  0  0  0  0  0  0  0
   18.9977   -7.7208  -15.4694 C   0  0  0  0  0  0  0  0  0  0  0  0
   20.4530   -7.9334  -15.7963 C   0  0  2  0  0  0  0  0  0  0  0  0
   20.8213   -9.2030  -15.1528 N   0  0  0  0  0  0  0  0  0  0  0  0
   21.3414   -6.8492  -15.3775 C   0  0  0  0  0  0  0  0  0  0  0  0
   21.8347   -6.8155  -14.2147 O   0  0  0  0  0  0  0  0  0  0  0  0
   21.6872   -5.8120  -16.2239 O   0  0  0  0  0  0  0  0  0  0  0  0
  2  3  1  6
  2  1  1  0
  4  2  1  0
  4  5  1  1
  6  4  1  0
  7  6  2  0
  8  9  1  0
 10  9  1  6
 10 12  1  0
 10 11  1  0
 11  6  1  0
 12 19  1  0
 13 12  2  0
 15 14  1  1
 16 15  1  0
 17 15  1  0
 18 17  1  1
 18 20  1  0
 19 18  1  0
 20 22  1  0
 21 20  2  0
M  END
$$$$
