VSL.pdb
     RDKit          3D

 22 21  0  0  1  0  0  0  0  0999 V2000
   28.0113  -18.3842  -14.9553 C   0  0  0  0  0  0  0  0  0  0  0  0
   27.8842  -19.8993  -15.0013 C   0  0  2  0  0  0  0  0  0  0  0  0
   28.6075  -20.4701  -16.1747 C   0  0  0  0  0  0  0  0  0  0  0  0
   26.4138  -20.2642  -14.9875 C   0  0  2  0  0  0  0  0  0  0  0  0
   25.7802  -19.8461  -16.2249 N   0  0  0  0  0  0  0  0  0  0  0  0
   25.8028  -19.6391  -13.8049 C   0  0  0  0  0  0  0  0  0  0  0  0
   25.5199  -18.3974  -13.7458 O   0  0  0  0  0  0  0  0  0  0  0  0
   22.9024  -21.2536  -12.0277 O   0  0  0  0  0  0  0  0  0  0  0  0
   23.3516  -19.9992  -11.6403 C   0  0  0  0  0  0  0  0  0  0  0  0
   24.8597  -19.9775  -11.5160 C   0  0  2  0  0  0  0  0  0  0  0  0
   25.5223  -20.4741  -12.6871 N   0  0  0  0  0  0  0  0  0  0  0  0
   25.3170  -20.6728  -10.2861 C   0  0  0  0  0  0  0  0  0  0  0  0
   25.5611  -21.9171  -10.3687 O   0  0  0  0  0  0  0  0  0  0  0  0
   28.6632  -20.5200   -7.4632 C   0  0  0  0  0  0  0  0  0  0  0  0
   27.6938  -19.3363   -7.3523 C   0  0  2  0  0  0  0  0  0  0  0  0
   28.2931  -18.4073   -6.3191 C   0  0  0  0  0  0  0  0  0  0  0  0
   26.3963  -19.9211   -6.8589 C   0  0  0  0  0  0  0  0  0  0  0  0
   25.7279  -20.8492   -7.8396 C   0  0  2  0  0  0  0  0  0  0  0  0
   25.4945  -20.0454   -9.0484 N   0  0  0  0  0  0  0  0  0  0  0  0
   24.4875  -21.4592   -7.3607 C   0  0  0  0  0  0  0  0  0  0  0  0
   23.3581  -21.0230   -7.7220 O   0  0  0  0  0  0  0  0  0  0  0  0
   24.4835  -22.5371   -6.4947 O   0  0  0  0  0  0  0  0  0  0  0  0
  2  3  1  6
  2  1  1  0
  4  2  1  0
  4  5  1  6
  6  4  1  0
  7  6  2  0
  8  9  1  0
 10  9  1  6
 10 12  1  0
 10 11  1  0
 11  6  1  0
 12 19  1  0
 13 12  2  0
 15 14  1  1
 16 15  1  0
 17 15  1  0
 18 17  1  1
 18 20  1  0
 19 18  1  0
 20 22  1  0
 21 20  2  0
M  END
$$$$
