VSL.pdb
     RDKit          3D

 22 21  0  0  1  0  0  0  0  0999 V2000
   21.8835  -17.5739  -16.2875 C   0  0  0  0  0  0  0  0  0  0  0  0
   22.4420  -18.1186  -14.9817 C   0  0  2  0  0  0  0  0  0  0  0  0
   23.8156  -17.5985  -14.7191 C   0  0  0  0  0  0  0  0  0  0  0  0
   22.3888  -19.6320  -15.0241 C   0  0  2  0  0  0  0  0  0  0  0  0
   21.0458  -20.0792  -15.3467 N   0  0  0  0  0  0  0  0  0  0  0  0
   22.8517  -20.1384  -13.7234 C   0  0  0  0  0  0  0  0  0  0  0  0
   22.1797  -20.0038  -12.6485 O   0  0  0  0  0  0  0  0  0  0  0  0
   26.3022  -22.6377  -13.6430 O   0  0  0  0  0  0  0  0  0  0  0  0
   25.2649  -22.7505  -12.7282 C   0  0  0  0  0  0  0  0  0  0  0  0
   24.6098  -21.4085  -12.4827 C   0  0  2  0  0  0  0  0  0  0  0  0
   24.1082  -20.8057  -13.6836 N   0  0  0  0  0  0  0  0  0  0  0  0
   25.5073  -20.4902  -11.7370 C   0  0  0  0  0  0  0  0  0  0  0  0
   26.1618  -19.6320  -12.4079 O   0  0  0  0  0  0  0  0  0  0  0  0
   28.7966  -20.5769   -7.4454 C   0  0  0  0  0  0  0  0  0  0  0  0
   27.8246  -19.3905   -7.4761 C   0  0  2  0  0  0  0  0  0  0  0  0
   27.4290  -19.1437   -6.0365 C   0  0  0  0  0  0  0  0  0  0  0  0
   26.6424  -19.8573   -8.2844 C   0  0  0  0  0  0  0  0  0  0  0  0
   26.9356  -20.0461   -9.7501 C   0  0  2  0  0  0  0  0  0  0  0  0
   25.6758  -20.5115  -10.3484 N   0  0  0  0  0  0  0  0  0  0  0  0
   28.0339  -20.9669  -10.0431 C   0  0  0  0  0  0  0  0  0  0  0  0
   29.1402  -20.5500  -10.4890 O   0  0  0  0  0  0  0  0  0  0  0  0
   27.9225  -22.3314   -9.8493 O   0  0  0  0  0  0  0  0  0  0  0  0
  2  3  1  6
  2  1  1  0
  4  2  1  0
  4  5  1  1
  6  4  1  0
  7  6  2  0
  8  9  1  0
 10  9  1  6
 10 12  1  0
 10 11  1  0
 11  6  1  0
 12 19  1  0
 13 12  2  0
 15 14  1  1
 16 15  1  0
 17 15  1  0
 18 17  1  1
 18 20  1  0
 19 18  1  0
 20 22  1  0
 21 20  2  0
M  END
$$$$
