VSL.pdb
     RDKit          3D

 22 21  0  0  1  0  0  0  0  0999 V2000
   21.9516  -21.3520  -10.3311 C   0  0  0  0  0  0  0  0  0  0  0  0
   23.0454  -20.5829  -11.0561 C   0  0  2  0  0  0  0  0  0  0  0  0
   22.8200  -20.5778  -12.5310 C   0  0  0  0  0  0  0  0  0  0  0  0
   24.3883  -21.1700  -10.6725 C   0  0  2  0  0  0  0  0  0  0  0  0
   24.5430  -21.1707   -9.2290 N   0  0  0  0  0  0  0  0  0  0  0  0
   25.4344  -20.3883  -11.3487 C   0  0  0  0  0  0  0  0  0  0  0  0
   25.8358  -19.2550  -10.9247 O   0  0  0  0  0  0  0  0  0  0  0  0
   27.5960  -22.1325  -14.6385 O   0  0  0  0  0  0  0  0  0  0  0  0
   28.1235  -21.2020  -13.7546 C   0  0  0  0  0  0  0  0  0  0  0  0
   27.0494  -20.2622  -13.2511 C   0  0  2  0  0  0  0  0  0  0  0  0
   26.0123  -20.9386  -12.5272 N   0  0  0  0  0  0  0  0  0  0  0  0
   26.5010  -19.4221  -14.3458 C   0  0  0  0  0  0  0  0  0  0  0  0
   25.5149  -19.8806  -15.0033 O   0  0  0  0  0  0  0  0  0  0  0  0
   26.8836  -13.6722  -16.3212 C   0  0  0  0  0  0  0  0  0  0  0  0
   26.2601  -15.0359  -16.6445 C   0  0  2  0  0  0  0  0  0  0  0  0
   24.7647  -14.8489  -16.5077 C   0  0  0  0  0  0  0  0  0  0  0  0
   26.7809  -15.9786  -15.5914 C   0  0  0  0  0  0  0  0  0  0  0  0
   26.4105  -17.4209  -15.8198 C   0  0  2  0  0  0  0  0  0  0  0  0
   27.0006  -18.1632  -14.6961 N   0  0  0  0  0  0  0  0  0  0  0  0
   26.8440  -17.9704  -17.1044 C   0  0  0  0  0  0  0  0  0  0  0  0
   28.0376  -18.3398  -17.2923 O   0  0  0  0  0  0  0  0  0  0  0  0
   25.9787  -18.1150  -18.1731 O   0  0  0  0  0  0  0  0  0  0  0  0
  2  3  1  6
  2  1  1  0
  4  2  1  0
  4  5  1  1
  6  4  1  0
  7  6  2  0
  8  9  1  0
 10  9  1  6
 10 12  1  0
 10 11  1  0
 11  6  1  0
 12 19  1  0
 13 12  2  0
 15 14  1  1
 16 15  1  0
 17 15  1  0
 18 17  1  6
 18 20  1  0
 19 18  1  0
 20 22  1  0
 21 20  2  0
M  END
$$$$
