ING.pdb
     RDKit          3D

 21 20  0  0  1  0  0  0  0  0999 V2000
    7.2590  -11.4087   26.7894 C   0  0  0  0  0  0  0  0  0  0  0  0
    6.8056  -12.8749   26.7613 C   0  0  0  0  0  0  0  0  0  0  0  0
    7.1364  -13.4291   25.4149 C   0  0  2  0  0  0  0  0  0  0  0  0
    6.3909  -12.7333   24.2998 C   0  0  0  0  0  0  0  0  0  0  0  0
    6.9475  -14.9083   25.2680 C   0  0  2  0  0  0  0  0  0  0  0  0
    5.5919  -15.1966   25.7563 N   0  0  0  0  0  0  0  0  0  0  0  0
    7.9005  -15.6403   26.1072 C   0  0  0  0  0  0  0  0  0  0  0  0
    7.5824  -16.1318   27.2371 O   0  0  0  0  0  0  0  0  0  0  0  0
   11.2184  -19.4182   26.5552 N   0  0  0  0  0  0  0  0  0  0  0  0
   10.0803  -19.4298   25.7010 C   0  0  0  0  0  0  0  0  0  0  0  0
    9.6514  -20.5505   25.2448 O   0  0  0  0  0  0  0  0  0  0  0  0
    9.3910  -18.1793   25.3300 C   0  0  0  0  0  0  0  0  0  0  0  0
   10.0373  -16.9822   26.0451 C   0  0  2  0  0  0  0  0  0  0  0  0
    9.2537  -15.8318   25.6751 N   0  0  0  0  0  0  0  0  0  0  0  0
   11.4523  -16.8459   25.5356 C   0  0  0  0  0  0  0  0  0  0  0  0
   12.4526  -17.0673   26.2662 O   0  0  0  0  0  0  0  0  0  0  0  0
   11.6603  -16.4596   24.2008 N   0  0  0  0  0  0  0  0  0  0  0  0
   12.7236  -15.5714   23.7648 C   0  0  0  0  0  0  0  0  0  0  0  0
   14.0189  -16.2690   23.6148 C   0  0  0  0  0  0  0  0  0  0  0  0
   14.2037  -17.6092   23.8545 O   0  0  0  0  0  0  0  0  0  0  0  0
   15.0461  -15.6296   23.2431 O   0  0  0  0  0  0  0  0  0  0  0  0
  1  2  1  0
  3  2  1  0
  3  5  1  0
  3  4  1  6
  5  6  1  1
  5  7  1  0
  7 14  1  0
  7  8  2  0
 10  9  1  0
 10 12  1  0
 11 10  2  0
 13 12  1  6
 14 13  1  0
 15 13  1  0
 15 17  1  0
 16 15  2  0
 18 17  1  0
 18 19  1  0
 19 20  1  0
 21 19  2  0
M  END
$$$$
