ING.pdb
     RDKit          3D

 21 20  0  0  1  0  0  0  0  0999 V2000
    6.5459  -12.9889   19.1731 C   0  0  0  0  0  0  0  0  0  0  0  0
    7.7894  -13.8599   19.3990 C   0  0  0  0  0  0  0  0  0  0  0  0
    7.8955  -14.1330   20.8630 C   0  0  2  0  0  0  0  0  0  0  0  0
    7.9503  -12.8685   21.6885 C   0  0  0  0  0  0  0  0  0  0  0  0
    9.0339  -15.0195   21.2676 C   0  0  2  0  0  0  0  0  0  0  0  0
    8.8300  -16.2922   20.5619 N   0  0  0  0  0  0  0  0  0  0  0  0
    8.9992  -15.2856   22.7085 C   0  0  0  0  0  0  0  0  0  0  0  0
    9.1045  -14.3632   23.5788 O   0  0  0  0  0  0  0  0  0  0  0  0
    6.3812  -16.0950   24.5329 N   0  0  0  0  0  0  0  0  0  0  0  0
    6.5819  -17.4821   24.7793 C   0  0  0  0  0  0  0  0  0  0  0  0
    5.5607  -18.2453   24.9299 O   0  0  0  0  0  0  0  0  0  0  0  0
    7.9391  -18.0537   24.8678 C   0  0  0  0  0  0  0  0  0  0  0  0
    8.9928  -16.9702   24.5880 C   0  0  2  0  0  0  0  0  0  0  0  0
    8.8425  -16.6236   23.1982 N   0  0  0  0  0  0  0  0  0  0  0  0
   10.3550  -17.5714   24.8402 C   0  0  0  0  0  0  0  0  0  0  0  0
   10.7240  -17.9399   25.9853 O   0  0  0  0  0  0  0  0  0  0  0  0
   11.2407  -17.7256   23.7604 N   0  0  0  0  0  0  0  0  0  0  0  0
   12.5724  -18.2945   23.8726 C   0  0  0  0  0  0  0  0  0  0  0  0
   13.6051  -17.2710   24.1423 C   0  0  0  0  0  0  0  0  0  0  0  0
   14.6702  -17.0149   23.3131 O   0  0  0  0  0  0  0  0  0  0  0  0
   13.5408  -16.5637   25.1901 O   0  0  0  0  0  0  0  0  0  0  0  0
  1  2  1  0
  3  2  1  0
  3  5  1  0
  3  4  1  1
  5  6  1  6
  5  7  1  0
  7 14  1  0
  7  8  2  0
 10  9  1  0
 10 12  1  0
 11 10  2  0
 13 12  1  6
 14 13  1  0
 15 13  1  0
 15 17  1  0
 16 15  2  0
 18 17  1  0
 18 19  1  0
 19 20  1  0
 21 19  2  0
M  END
$$$$
