ING.pdb
     RDKit          3D

 21 20  0  0  1  0  0  0  0  0999 V2000
   10.3539  -13.2376   28.8284 C   0  0  0  0  0  0  0  0  0  0  0  0
   10.2799  -14.7513   28.5851 C   0  0  0  0  0  0  0  0  0  0  0  0
    9.8678  -14.9659   27.1662 C   0  0  2  0  0  0  0  0  0  0  0  0
    8.7083  -14.0873   26.7575 C   0  0  0  0  0  0  0  0  0  0  0  0
    9.5477  -16.3833   26.8003 C   0  0  2  0  0  0  0  0  0  0  0  0
   10.6312  -17.2033   27.3597 N   0  0  0  0  0  0  0  0  0  0  0  0
    9.5477  -16.5576   25.3450 C   0  0  0  0  0  0  0  0  0  0  0  0
    8.4991  -16.8608   24.6909 O   0  0  0  0  0  0  0  0  0  0  0  0
    8.3896  -16.4898   21.3851 N   0  0  0  0  0  0  0  0  0  0  0  0
    8.6232  -15.4598   22.3387 C   0  0  0  0  0  0  0  0  0  0  0  0
    7.6214  -14.8370   22.8454 O   0  0  0  0  0  0  0  0  0  0  0  0
    9.9925  -15.0955   22.7497 C   0  0  0  0  0  0  0  0  0  0  0  0
   10.7802  -16.3524   23.1520 C   0  0  2  0  0  0  0  0  0  0  0  0
   10.7554  -16.3893   24.5917 N   0  0  0  0  0  0  0  0  0  0  0  0
   12.1956  -16.1935   22.6502 C   0  0  0  0  0  0  0  0  0  0  0  0
   12.4562  -15.9517   21.4432 O   0  0  0  0  0  0  0  0  0  0  0  0
   13.2582  -16.3191   23.5609 N   0  0  0  0  0  0  0  0  0  0  0  0
   14.6613  -16.2496   23.1919 C   0  0  0  0  0  0  0  0  0  0  0  0
   15.5570  -16.2399   24.3685 C   0  0  0  0  0  0  0  0  0  0  0  0
   16.8794  -15.8697   24.3263 O   0  0  0  0  0  0  0  0  0  0  0  0
   15.1182  -16.5856   25.5044 O   0  0  0  0  0  0  0  0  0  0  0  0
  1  2  1  0
  3  2  1  0
  3  5  1  0
  3  4  1  1
  5  6  1  1
  5  7  1  0
  7 14  1  0
  7  8  2  0
 10  9  1  0
 10 12  1  0
 11 10  2  0
 13 12  1  1
 14 13  1  0
 15 13  1  0
 15 17  1  0
 16 15  2  0
 18 17  1  0
 18 19  1  0
 19 20  1  0
 21 19  2  0
M  END
$$$$
