ING.pdb
     RDKit          3D

 21 20  0  0  1  0  0  0  0  0999 V2000
    7.5979  -11.1776   27.4002 C   0  0  0  0  0  0  0  0  0  0  0  0
    7.4855  -12.7078   27.3591 C   0  0  0  0  0  0  0  0  0  0  0  0
    7.2256  -13.1085   25.9445 C   0  0  2  0  0  0  0  0  0  0  0  0
    5.9626  -12.4936   25.3879 C   0  0  0  0  0  0  0  0  0  0  0  0
    7.1905  -14.5855   25.6940 C   0  0  2  0  0  0  0  0  0  0  0  0
    8.4531  -15.1188   26.2241 N   0  0  0  0  0  0  0  0  0  0  0  0
    7.1429  -14.8684   24.2567 C   0  0  0  0  0  0  0  0  0  0  0  0
    6.1082  -14.6500   23.5489 O   0  0  0  0  0  0  0  0  0  0  0  0
    7.3118  -12.5930   19.8065 N   0  0  0  0  0  0  0  0  0  0  0  0
    7.8310  -13.8055   20.3405 C   0  0  0  0  0  0  0  0  0  0  0  0
    7.9295  -14.8337   19.5782 O   0  0  0  0  0  0  0  0  0  0  0  0
    8.2525  -13.9002   21.7512 C   0  0  0  0  0  0  0  0  0  0  0  0
    8.4432  -15.3715   22.1527 C   0  0  2  0  0  0  0  0  0  0  0  0
    8.2851  -15.4133   23.5837 N   0  0  0  0  0  0  0  0  0  0  0  0
    9.8430  -15.7816   21.7618 C   0  0  0  0  0  0  0  0  0  0  0  0
   10.1023  -16.3038   20.6468 O   0  0  0  0  0  0  0  0  0  0  0  0
   10.8923  -15.5728   22.6728 N   0  0  0  0  0  0  0  0  0  0  0  0
   11.4058  -16.5907   23.5727 C   0  0  0  0  0  0  0  0  0  0  0  0
   12.3818  -17.4871   22.9165 C   0  0  0  0  0  0  0  0  0  0  0  0
   13.7139  -17.1902   22.7575 O   0  0  0  0  0  0  0  0  0  0  0  0
   12.0093  -18.6074   22.4600 O   0  0  0  0  0  0  0  0  0  0  0  0
  1  2  1  0
  3  2  1  0
  3  5  1  0
  3  4  1  1
  5  6  1  6
  5  7  1  0
  7 14  1  0
  7  8  2  0
 10  9  1  0
 10 12  1  0
 11 10  2  0
 13 12  1  1
 14 13  1  0
 15 13  1  0
 15 17  1  0
 16 15  2  0
 18 17  1  0
 18 19  1  0
 19 20  1  0
 21 19  2  0
M  END
$$$$
