ING.pdb
     RDKit          3D

 21 20  0  0  1  0  0  0  0  0999 V2000
    7.8719  -11.5217   19.9469 C   0  0  0  0  0  0  0  0  0  0  0  0
    7.5956  -12.9640   20.3935 C   0  0  0  0  0  0  0  0  0  0  0  0
    8.5020  -13.8630   19.6192 C   0  0  2  0  0  0  0  0  0  0  0  0
    8.3557  -13.6905   18.1251 C   0  0  0  0  0  0  0  0  0  0  0  0
    8.3897  -15.3209   19.9469 C   0  0  2  0  0  0  0  0  0  0  0  0
    8.0051  -15.3917   21.3634 N   0  0  0  0  0  0  0  0  0  0  0  0
    9.6843  -15.9902   19.7911 C   0  0  0  0  0  0  0  0  0  0  0  0
   10.0145  -16.6052   18.7271 O   0  0  0  0  0  0  0  0  0  0  0  0
   12.8854  -13.7916   20.7357 N   0  0  0  0  0  0  0  0  0  0  0  0
   13.4177  -14.8141   19.9014 C   0  0  0  0  0  0  0  0  0  0  0  0
   14.6255  -14.7113   19.4784 O   0  0  0  0  0  0  0  0  0  0  0  0
   12.6059  -15.9833   19.5134 C   0  0  0  0  0  0  0  0  0  0  0  0
   11.9370  -16.6019   20.7512 C   0  0  2  0  0  0  0  0  0  0  0  0
   10.6443  -15.9753   20.8554 N   0  0  0  0  0  0  0  0  0  0  0  0
   12.7867  -16.2674   21.9539 C   0  0  0  0  0  0  0  0  0  0  0  0
   13.9697  -15.8529   21.8450 O   0  0  0  0  0  0  0  0  0  0  0  0
   12.2386  -16.4231   23.2383 N   0  0  0  0  0  0  0  0  0  0  0  0
   11.6280  -17.6492   23.7214 C   0  0  0  0  0  0  0  0  0  0  0  0
   12.6264  -18.6288   24.2013 C   0  0  0  0  0  0  0  0  0  0  0  0
   13.9776  -18.5241   23.9757 O   0  0  0  0  0  0  0  0  0  0  0  0
   12.2561  -19.6403   24.8661 O   0  0  0  0  0  0  0  0  0  0  0  0
  1  2  1  0
  3  2  1  0
  3  5  1  0
  3  4  1  6
  5  6  1  1
  5  7  1  0
  7 14  1  0
  7  8  2  0
 10  9  1  0
 10 12  1  0
 11 10  2  0
 13 12  1  6
 14 13  1  0
 15 13  1  0
 15 17  1  0
 16 15  2  0
 18 17  1  0
 18 19  1  0
 19 20  1  0
 21 19  2  0
M  END
$$$$
