ING.pdb
     RDKit          3D

 21 20  0  0  1  0  0  0  0  0999 V2000
    6.2483  -12.4649   18.7013 C   0  0  0  0  0  0  0  0  0  0  0  0
    7.4889  -13.3494   18.5162 C   0  0  0  0  0  0  0  0  0  0  0  0
    8.0533  -13.6330   19.8691 C   0  0  2  0  0  0  0  0  0  0  0  0
    8.5596  -12.3888   20.5611 C   0  0  0  0  0  0  0  0  0  0  0  0
    9.1295  -14.6749   19.9078 C   0  0  2  0  0  0  0  0  0  0  0  0
    8.5927  -15.8420   19.1943 N   0  0  0  0  0  0  0  0  0  0  0  0
    9.4162  -15.0757   21.2882 C   0  0  0  0  0  0  0  0  0  0  0  0
    9.8716  -14.2649   22.1569 O   0  0  0  0  0  0  0  0  0  0  0  0
    6.4920  -18.0282   22.1209 N   0  0  0  0  0  0  0  0  0  0  0  0
    7.8531  -18.4418   22.0824 C   0  0  0  0  0  0  0  0  0  0  0  0
    8.2987  -19.0313   21.0326 O   0  0  0  0  0  0  0  0  0  0  0  0
    8.7550  -18.2083   23.2262 C   0  0  0  0  0  0  0  0  0  0  0  0
    9.5275  -16.8932   23.0359 C   0  0  2  0  0  0  0  0  0  0  0  0
    9.1888  -16.4244   21.7168 N   0  0  0  0  0  0  0  0  0  0  0  0
   11.0025  -17.2041   23.1255 C   0  0  0  0  0  0  0  0  0  0  0  0
   11.5511  -18.0695   22.3952 O   0  0  0  0  0  0  0  0  0  0  0  0
   11.7899  -16.5037   24.0548 N   0  0  0  0  0  0  0  0  0  0  0  0
   13.0356  -15.8326   23.7267 C   0  0  0  0  0  0  0  0  0  0  0  0
   14.2212  -16.6735   23.9993 C   0  0  0  0  0  0  0  0  0  0  0  0
   15.5176  -16.2626   23.8041 O   0  0  0  0  0  0  0  0  0  0  0  0
   14.0775  -17.8506   24.4421 O   0  0  0  0  0  0  0  0  0  0  0  0
  1  2  1  0
  3  2  1  0
  3  5  1  0
  3  4  1  6
  5  6  1  6
  5  7  1  0
  7 14  1  0
  7  8  2  0
 10  9  1  0
 10 12  1  0
 11 10  2  0
 13 12  1  6
 14 13  1  0
 15 13  1  0
 15 17  1  0
 16 15  2  0
 18 17  1  0
 18 19  1  0
 19 20  1  0
 21 19  2  0
M  END
$$$$
