ING.pdb
     RDKit          3D

 21 20  0  0  1  0  0  0  0  0999 V2000
    8.6171  -11.5457   19.5384 C   0  0  0  0  0  0  0  0  0  0  0  0
    8.7519  -12.5345   20.7046 C   0  0  0  0  0  0  0  0  0  0  0  0
    8.9885  -13.8912   20.1277 C   0  0  2  0  0  0  0  0  0  0  0  0
    7.8924  -14.3201   19.1801 C   0  0  0  0  0  0  0  0  0  0  0  0
    9.2103  -14.9828   21.1299 C   0  0  2  0  0  0  0  0  0  0  0  0
   10.0292  -14.3944   22.1989 N   0  0  0  0  0  0  0  0  0  0  0  0
    9.9636  -16.0903   20.5347 C   0  0  0  0  0  0  0  0  0  0  0  0
    9.4190  -16.9694   19.7930 O   0  0  0  0  0  0  0  0  0  0  0  0
   12.9879  -14.6550   17.6926 N   0  0  0  0  0  0  0  0  0  0  0  0
   12.7860  -16.0042   18.0974 C   0  0  0  0  0  0  0  0  0  0  0  0
   12.1524  -16.8035   17.3177 O   0  0  0  0  0  0  0  0  0  0  0  0
   13.2879  -16.4958   19.3947 C   0  0  0  0  0  0  0  0  0  0  0  0
   12.1757  -17.2426   20.1480 C   0  0  2  0  0  0  0  0  0  0  0  0
   11.3706  -16.2248   20.7728 N   0  0  0  0  0  0  0  0  0  0  0  0
   12.8284  -18.1172   21.1917 C   0  0  0  0  0  0  0  0  0  0  0  0
   13.7250  -18.9513   20.9024 O   0  0  0  0  0  0  0  0  0  0  0  0
   12.4223  -17.9959   22.5313 N   0  0  0  0  0  0  0  0  0  0  0  0
   12.9913  -18.7589   23.6284 C   0  0  0  0  0  0  0  0  0  0  0  0
   12.3273  -20.0673   23.8132 C   0  0  0  0  0  0  0  0  0  0  0  0
   12.6304  -20.9485   24.8228 O   0  0  0  0  0  0  0  0  0  0  0  0
   11.4170  -20.4366   23.0150 O   0  0  0  0  0  0  0  0  0  0  0  0
  1  2  1  0
  3  2  1  0
  3  5  1  0
  3  4  1  1
  5  6  1  1
  5  7  1  0
  7 14  1  0
  7  8  2  0
 10  9  1  0
 10 12  1  0
 11 10  2  0
 13 12  1  1
 14 13  1  0
 15 13  1  0
 15 17  1  0
 16 15  2  0
 18 17  1  0
 18 19  1  0
 19 20  1  0
 21 19  2  0
M  END
$$$$
