YSF.pdb
     RDKit          3D

 30 31  0  0  1  0  0  0  0  0999 V2000
   12.3134   -6.5702   -6.1483 O   0  0  0  0  0  0  0  0  0  0  0  0
   13.2044   -6.9241   -7.1442 C   0  0  0  0  0  0  0  0  0  0  0  0
   13.9248   -5.9722   -7.8134 C   0  0  0  0  0  0  0  0  0  0  0  0
   14.8113   -6.3081   -8.8025 C   0  0  0  0  0  0  0  0  0  0  0  0
   14.9701   -7.6500   -9.1205 C   0  0  0  0  0  0  0  0  0  0  0  0
   15.9499   -7.9522  -10.2061 C   0  0  0  0  0  0  0  0  0  0  0  0
   15.2298   -8.1457  -11.5469 C   0  0  2  0  0  0  0  0  0  0  0  0
   14.8473   -9.5463  -11.6307 N   0  0  0  0  0  0  0  0  0  0  0  0
   16.2374   -7.8955  -12.6095 C   0  0  0  0  0  0  0  0  0  0  0  0
   17.0079   -8.8771  -12.8789 O   0  0  0  0  0  0  0  0  0  0  0  0
   14.2638   -8.6331   -8.4698 C   0  0  0  0  0  0  0  0  0  0  0  0
   13.3821   -8.2580   -7.4816 C   0  0  0  0  0  0  0  0  0  0  0  0
   15.7070   -5.0875  -15.1454 O   0  0  0  0  0  0  0  0  0  0  0  0
   16.6140   -6.0156  -15.5702 C   0  0  0  0  0  0  0  0  0  0  0  0
   17.3534   -6.5776  -14.3594 C   0  0  2  0  0  0  0  0  0  0  0  0
   16.3675   -6.6690  -13.2998 N   0  0  0  0  0  0  0  0  0  0  0  0
   18.4415   -5.6553  -14.0112 C   0  0  0  0  0  0  0  0  0  0  0  0
   18.3392   -4.8026  -13.0691 O   0  0  0  0  0  0  0  0  0  0  0  0
   19.6544   -5.7069  -14.7404 N   0  0  0  0  0  0  0  0  0  0  0  0
   20.7491   -4.7802  -14.4609 C   0  0  1  0  0  0  0  0  0  0  0  0
   22.0345   -5.5774  -14.4688 C   0  0  0  0  0  0  0  0  0  0  0  0
   21.9334   -6.7135  -13.5372 C   0  0  0  0  0  0  0  0  0  0  0  0
   21.9999   -8.0080  -14.0041 C   0  0  0  0  0  0  0  0  0  0  0  0
   21.9212   -9.1031  -13.1519 C   0  0  0  0  0  0  0  0  0  0  0  0
   21.7707   -8.9192  -11.7823 C   0  0  0  0  0  0  0  0  0  0  0  0
   21.7047   -7.6262  -11.3197 C   0  0  0  0  0  0  0  0  0  0  0  0
   21.7844   -6.5505  -12.1786 C   0  0  0  0  0  0  0  0  0  0  0  0
   20.7542   -3.6536  -15.3967 C   0  0  0  0  0  0  0  0  0  0  0  0
   21.5590   -2.6928  -15.1805 O   0  0  0  0  0  0  0  0  0  0  0  0
   19.9482   -3.5437  -16.5122 O   0  0  0  0  0  0  0  0  0  0  0  0
  2  1  1  0
  2  3  2  0
  4  3  1  0
  5  4  2  0
  6  5  1  0
  7  6  1  0
  7  8  1  1
  9 10  2  0
  9  7  1  0
 11 12  2  0
 11  5  1  0
 12  2  1  0
 13 14  1  0
 15 14  1  6
 15 16  1  0
 16  9  1  0
 17 18  2  0
 17 15  1  0
 19 17  1  0
 20 21  1  6
 20 19  1  0
 22 21  1  0
 22 23  2  0
 24 23  1  0
 25 24  2  0
 26 27  2  0
 26 25  1  0
 27 22  1  0
 28 20  1  0
 29 28  2  0
 30 28  1  0
M  END
$$$$
