YSF.pdb
     RDKit          3D

 30 31  0  0  1  0  0  0  0  0999 V2000
   25.3474  -15.9521  -22.8716 O   0  0  0  0  0  0  0  0  0  0  0  0
   24.9085  -14.7210  -22.4215 C   0  0  0  0  0  0  0  0  0  0  0  0
   24.4183  -14.5706  -21.1527 C   0  0  0  0  0  0  0  0  0  0  0  0
   23.9799  -13.3567  -20.6929 C   0  0  0  0  0  0  0  0  0  0  0  0
   24.0416  -12.2644  -21.5474 C   0  0  0  0  0  0  0  0  0  0  0  0
   23.5495  -10.9699  -20.9889 C   0  0  0  0  0  0  0  0  0  0  0  0
   22.0595  -11.0642  -20.6357 C   0  0  2  0  0  0  0  0  0  0  0  0
   21.3321  -11.2315  -21.8839 N   0  0  0  0  0  0  0  0  0  0  0  0
   21.6736   -9.7461  -20.0693 C   0  0  0  0  0  0  0  0  0  0  0  0
   21.2626   -8.8830  -20.9153 O   0  0  0  0  0  0  0  0  0  0  0  0
   24.5277  -12.3780  -22.8278 C   0  0  0  0  0  0  0  0  0  0  0  0
   24.9592  -13.6132  -23.2551 C   0  0  0  0  0  0  0  0  0  0  0  0
   19.1861   -9.1476  -17.7708 O   0  0  0  0  0  0  0  0  0  0  0  0
   19.7490   -8.1487  -18.5123 C   0  0  0  0  0  0  0  0  0  0  0  0
   21.2542   -8.1327  -18.2623 C   0  0  2  0  0  0  0  0  0  0  0  0
   21.7418   -9.4284  -18.6937 N   0  0  0  0  0  0  0  0  0  0  0  0
   21.4840   -7.9154  -16.8285 C   0  0  0  0  0  0  0  0  0  0  0  0
   21.1958   -8.7928  -15.9497 O   0  0  0  0  0  0  0  0  0  0  0  0
   22.0476   -6.6910  -16.3941 N   0  0  0  0  0  0  0  0  0  0  0  0
   22.3430   -6.4483  -14.9837 C   0  0  1  0  0  0  0  0  0  0  0  0
   23.8306   -6.2021  -14.8654 C   0  0  0  0  0  0  0  0  0  0  0  0
   24.5795   -7.3802  -15.3346 C   0  0  0  0  0  0  0  0  0  0  0  0
   25.2529   -7.3471  -16.5360 C   0  0  0  0  0  0  0  0  0  0  0  0
   25.9799   -8.4357  -17.0028 C   0  0  0  0  0  0  0  0  0  0  0  0
   26.0488   -9.6072  -16.2579 C   0  0  0  0  0  0  0  0  0  0  0  0
   25.3757   -9.6369  -15.0595 C   0  0  0  0  0  0  0  0  0  0  0  0
   24.6588   -8.5480  -14.6105 C   0  0  0  0  0  0  0  0  0  0  0  0
   21.5255   -5.3612  -14.4408 C   0  0  0  0  0  0  0  0  0  0  0  0
   20.7995   -4.6930  -15.2434 O   0  0  0  0  0  0  0  0  0  0  0  0
   21.4732   -4.9943  -13.1108 O   0  0  0  0  0  0  0  0  0  0  0  0
  2  1  1  0
  2  3  2  0
  4  3  1  0
  5  4  2  0
  6  5  1  0
  7  6  1  0
  7  8  1  6
  9 10  2  0
  9  7  1  0
 11 12  2  0
 11  5  1  0
 12  2  1  0
 13 14  1  0
 15 14  1  1
 15 16  1  0
 16  9  1  0
 17 18  2  0
 17 15  1  0
 19 17  1  0
 20 21  1  6
 20 19  1  0
 22 21  1  0
 22 23  2  0
 24 23  1  0
 25 24  2  0
 26 27  2  0
 26 25  1  0
 27 22  1  0
 28 20  1  0
 29 28  2  0
 30 28  1  0
M  END
$$$$
