YSF.pdb
     RDKit          3D

 30 31  0  0  1  0  0  0  0  0999 V2000
   19.2553  -21.1318  -16.1979 O   0  0  0  0  0  0  0  0  0  0  0  0
   18.8911  -21.9669  -15.1583 C   0  0  0  0  0  0  0  0  0  0  0  0
   19.8297  -22.4682  -14.2977 C   0  0  0  0  0  0  0  0  0  0  0  0
   19.4835  -23.2968  -13.2630 C   0  0  0  0  0  0  0  0  0  0  0  0
   18.1448  -23.6253  -13.0984 C   0  0  0  0  0  0  0  0  0  0  0  0
   17.8309  -24.5314  -11.9537 C   0  0  0  0  0  0  0  0  0  0  0  0
   18.4493  -25.9178  -12.1753 C   0  0  2  0  0  0  0  0  0  0  0  0
   17.7228  -26.5421  -13.2696 N   0  0  0  0  0  0  0  0  0  0  0  0
   18.1703  -26.7077  -10.9484 C   0  0  0  0  0  0  0  0  0  0  0  0
   17.0021  -26.5624  -10.4545 O   0  0  0  0  0  0  0  0  0  0  0  0
   17.1750  -23.1408  -13.9430 C   0  0  0  0  0  0  0  0  0  0  0  0
   17.5602  -22.3109  -14.9714 C   0  0  0  0  0  0  0  0  0  0  0  0
   21.0015  -28.8537   -9.2826 O   0  0  0  0  0  0  0  0  0  0  0  0
   19.7848  -29.2848   -8.8372 C   0  0  0  0  0  0  0  0  0  0  0  0
   18.7523  -28.1860   -9.0722 C   0  0  2  0  0  0  0  0  0  0  0  0
   19.1065  -27.5728  -10.3377 N   0  0  0  0  0  0  0  0  0  0  0  0
   18.8338  -27.2280   -7.9625 C   0  0  0  0  0  0  0  0  0  0  0  0
   19.5924  -26.2041   -7.9982 O   0  0  0  0  0  0  0  0  0  0  0  0
   18.0441  -27.4377   -6.8059 N   0  0  0  0  0  0  0  0  0  0  0  0
   18.1168  -26.5318   -5.6615 C   0  0  1  0  0  0  0  0  0  0  0  0
   16.7105  -26.0629   -5.3612 C   0  0  0  0  0  0  0  0  0  0  0  0
   16.1568  -25.3425   -6.5201 C   0  0  0  0  0  0  0  0  0  0  0  0
   15.3817  -26.0029   -7.4482 C   0  0  0  0  0  0  0  0  0  0  0  0
   14.8326  -25.3515   -8.5463 C   0  0  0  0  0  0  0  0  0  0  0  0
   15.0541  -23.9932   -8.7415 C   0  0  0  0  0  0  0  0  0  0  0  0
   15.8279  -23.3372   -7.8136 C   0  0  0  0  0  0  0  0  0  0  0  0
   16.3654  -23.9982   -6.7294 C   0  0  0  0  0  0  0  0  0  0  0  0
   18.7803  -27.1607   -4.5173 C   0  0  0  0  0  0  0  0  0  0  0  0
   18.9074  -28.4262   -4.5137 O   0  0  0  0  0  0  0  0  0  0  0  0
   19.2892  -26.4867   -3.4251 O   0  0  0  0  0  0  0  0  0  0  0  0
  2  1  1  0
  2  3  2  0
  4  3  1  0
  5  4  2  0
  6  5  1  0
  7  6  1  0
  7  8  1  6
  9 10  2  0
  9  7  1  0
 11 12  2  0
 11  5  1  0
 12  2  1  0
 13 14  1  0
 15 14  1  1
 15 16  1  0
 16  9  1  0
 17 18  2  0
 17 15  1  0
 19 17  1  0
 20 21  1  1
 20 19  1  0
 22 21  1  0
 22 23  2  0
 24 23  1  0
 25 24  2  0
 26 27  2  0
 26 25  1  0
 27 22  1  0
 28 20  1  0
 29 28  2  0
 30 28  1  0
M  END
$$$$
