YSF.pdb
     RDKit          3D

 30 31  0  0  1  0  0  0  0  0999 V2000
   10.5909  -26.1441    2.3517 O   0  0  0  0  0  0  0  0  0  0  0  0
   11.6316  -25.2366    2.4158 C   0  0  0  0  0  0  0  0  0  0  0  0
   12.5671  -25.3092    3.4119 C   0  0  0  0  0  0  0  0  0  0  0  0
   13.6039  -24.4168    3.4881 C   0  0  0  0  0  0  0  0  0  0  0  0
   13.6922  -23.4220    2.5239 C   0  0  0  0  0  0  0  0  0  0  0  0
   14.8433  -22.4806    2.6607 C   0  0  0  0  0  0  0  0  0  0  0  0
   14.7703  -21.3779    1.5966 C   0  0  2  0  0  0  0  0  0  0  0  0
   15.3914  -21.9028    0.3909 N   0  0  0  0  0  0  0  0  0  0  0  0
   15.6198  -20.2609    2.0843 C   0  0  0  0  0  0  0  0  0  0  0  0
   16.8479  -20.3130    1.7397 O   0  0  0  0  0  0  0  0  0  0  0  0
   12.7712  -23.3183    1.5092 C   0  0  0  0  0  0  0  0  0  0  0  0
   11.7432  -24.2326    1.4648 C   0  0  0  0  0  0  0  0  0  0  0  0
   14.2549  -17.3175    4.5046 O   0  0  0  0  0  0  0  0  0  0  0  0
   15.1992  -16.9310    3.5972 C   0  0  0  0  0  0  0  0  0  0  0  0
   16.0641  -18.1354    3.2372 C   0  0  2  0  0  0  0  0  0  0  0  0
   15.1404  -19.1940    2.8778 N   0  0  0  0  0  0  0  0  0  0  0  0
   16.8716  -18.4937    4.4099 C   0  0  0  0  0  0  0  0  0  0  0  0
   16.6618  -19.5540    5.0858 O   0  0  0  0  0  0  0  0  0  0  0  0
   17.9261  -17.6388    4.8134 N   0  0  0  0  0  0  0  0  0  0  0  0
   18.6493  -17.8619    6.0634 C   0  0  1  0  0  0  0  0  0  0  0  0
   20.0811  -17.4257    5.8457 C   0  0  0  0  0  0  0  0  0  0  0  0
   20.8684  -17.6363    7.0723 C   0  0  0  0  0  0  0  0  0  0  0  0
   22.1436  -17.1261    7.1804 C   0  0  0  0  0  0  0  0  0  0  0  0
   22.9094  -17.2946    8.3278 C   0  0  0  0  0  0  0  0  0  0  0  0
   22.4013  -17.9942    9.4162 C   0  0  0  0  0  0  0  0  0  0  0  0
   21.1285  -18.5020    9.3052 C   0  0  0  0  0  0  0  0  0  0  0  0
   20.3816  -18.3259    8.1595 C   0  0  0  0  0  0  0  0  0  0  0  0
   17.9984  -17.1901    7.1904 C   0  0  0  0  0  0  0  0  0  0  0  0
   17.5179  -16.0273    7.0043 O   0  0  0  0  0  0  0  0  0  0  0  0
   17.8580  -17.7198    8.4575 O   0  0  0  0  0  0  0  0  0  0  0  0
  2  1  1  0
  2  3  2  0
  4  3  1  0
  5  4  2  0
  6  5  1  0
  7  6  1  0
  7  8  1  6
  9 10  2  0
  9  7  1  0
 11 12  2  0
 11  5  1  0
 12  2  1  0
 13 14  1  0
 15 14  1  1
 15 16  1  0
 16  9  1  0
 17 18  2  0
 17 15  1  0
 19 17  1  0
 20 21  1  6
 20 19  1  0
 22 21  1  0
 22 23  2  0
 24 23  1  0
 25 24  2  0
 26 27  2  0
 26 25  1  0
 27 22  1  0
 28 20  1  0
 29 28  2  0
 30 28  1  0
M  END
$$$$
