YSF.pdb
     RDKit          3D

 30 31  0  0  1  0  0  0  0  0999 V2000
   28.4500  -21.1202   -6.7464 O   0  0  0  0  0  0  0  0  0  0  0  0
   27.9304  -20.9206   -8.0117 C   0  0  0  0  0  0  0  0  0  0  0  0
   26.5787  -20.8478   -8.2130 C   0  0  0  0  0  0  0  0  0  0  0  0
   26.0495  -20.6504   -9.4612 C   0  0  0  0  0  0  0  0  0  0  0  0
   26.9192  -20.5232  -10.5357 C   0  0  0  0  0  0  0  0  0  0  0  0
   26.2824  -20.3099  -11.8694 C   0  0  0  0  0  0  0  0  0  0  0  0
   26.0058  -21.6525  -12.5582 C   0  0  2  0  0  0  0  0  0  0  0  0
   27.1862  -21.9852  -13.3400 N   0  0  0  0  0  0  0  0  0  0  0  0
   24.8918  -21.4181  -13.5127 C   0  0  0  0  0  0  0  0  0  0  0  0
   25.1745  -20.6847  -14.5186 O   0  0  0  0  0  0  0  0  0  0  0  0
   28.2819  -20.5909  -10.3714 C   0  0  0  0  0  0  0  0  0  0  0  0
   28.7774  -20.7903   -9.1027 C   0  0  0  0  0  0  0  0  0  0  0  0
   21.0145  -22.6857  -12.9634 O   0  0  0  0  0  0  0  0  0  0  0  0
   21.5255  -22.7300  -14.2289 C   0  0  0  0  0  0  0  0  0  0  0  0
   22.5992  -21.6548  -14.3686 C   0  0  2  0  0  0  0  0  0  0  0  0
   23.5926  -21.9521  -13.3548 N   0  0  0  0  0  0  0  0  0  0  0  0
   21.9746  -20.3442  -14.1496 C   0  0  0  0  0  0  0  0  0  0  0  0
   22.4759  -19.4705  -13.3684 O   0  0  0  0  0  0  0  0  0  0  0  0
   20.7720  -20.0272  -14.8269 N   0  0  0  0  0  0  0  0  0  0  0  0
   20.1235  -18.7288  -14.6567 C   0  0  1  0  0  0  0  0  0  0  0  0
   21.0957  -17.6688  -15.1245 C   0  0  0  0  0  0  0  0  0  0  0  0
   21.2109  -17.6973  -16.5924 C   0  0  0  0  0  0  0  0  0  0  0  0
   20.2434  -17.1136  -17.3807 C   0  0  0  0  0  0  0  0  0  0  0  0
   20.3269  -17.1105  -18.7679 C   0  0  0  0  0  0  0  0  0  0  0  0
   21.4070  -17.7063  -19.4089 C   0  0  0  0  0  0  0  0  0  0  0  0
   22.3706  -18.2878  -18.6194 C   0  0  0  0  0  0  0  0  0  0  0  0
   22.2729  -18.2822  -17.2440 C   0  0  0  0  0  0  0  0  0  0  0  0
   18.8296  -18.6785  -15.3412 C   0  0  0  0  0  0  0  0  0  0  0  0
   18.5585  -19.5884  -16.1875 O   0  0  0  0  0  0  0  0  0  0  0  0
   17.8627  -17.7133  -15.1424 O   0  0  0  0  0  0  0  0  0  0  0  0
  2  1  1  0
  2  3  2  0
  4  3  1  0
  5  4  2  0
  6  5  1  0
  7  6  1  0
  7  8  1  6
  9 10  2  0
  9  7  1  0
 11 12  2  0
 11  5  1  0
 12  2  1  0
 13 14  1  0
 15 14  1  1
 15 16  1  0
 16  9  1  0
 17 18  2  0
 17 15  1  0
 19 17  1  0
 20 21  1  6
 20 19  1  0
 22 21  1  0
 22 23  2  0
 24 23  1  0
 25 24  2  0
 26 27  2  0
 26 25  1  0
 27 22  1  0
 28 20  1  0
 29 28  2  0
 30 28  1  0
M  END
$$$$
