YSF.pdb
     RDKit          3D

 30 31  0  0  1  0  0  0  0  0999 V2000
   12.6188  -11.4217  -22.4317 O   0  0  0  0  0  0  0  0  0  0  0  0
   13.4103  -10.4973  -21.7761 C   0  0  0  0  0  0  0  0  0  0  0  0
   14.4735  -10.8979  -21.0133 C   0  0  0  0  0  0  0  0  0  0  0  0
   15.2666   -9.9931  -20.3579 C   0  0  0  0  0  0  0  0  0  0  0  0
   14.9704   -8.6425  -20.4815 C   0  0  0  0  0  0  0  0  0  0  0  0
   15.8706   -7.7066  -19.7441 C   0  0  0  0  0  0  0  0  0  0  0  0
   15.4885   -7.6448  -18.2596 C   0  0  2  0  0  0  0  0  0  0  0  0
   14.2178   -6.9428  -18.1721 N   0  0  0  0  0  0  0  0  0  0  0  0
   16.5112   -6.7980  -17.5932 C   0  0  0  0  0  0  0  0  0  0  0  0
   16.2933   -5.5407  -17.6304 O   0  0  0  0  0  0  0  0  0  0  0  0
   13.9109   -8.2037  -21.2387 C   0  0  0  0  0  0  0  0  0  0  0  0
   13.1361   -9.1415  -21.8829 C   0  0  0  0  0  0  0  0  0  0  0  0
   17.7872   -6.5194  -14.1938 O   0  0  0  0  0  0  0  0  0  0  0  0
   17.8868   -5.6634  -15.2530 C   0  0  0  0  0  0  0  0  0  0  0  0
   18.6141   -6.3683  -16.3943 C   0  0  2  0  0  0  0  0  0  0  0  0
   17.6614   -7.3096  -16.9505 N   0  0  0  0  0  0  0  0  0  0  0  0
   19.7923   -7.0493  -15.8431 C   0  0  0  0  0  0  0  0  0  0  0  0
   19.8461   -8.3151  -15.7022 O   0  0  0  0  0  0  0  0  0  0  0  0
   20.9168   -6.2825  -15.4518 N   0  0  0  0  0  0  0  0  0  0  0  0
   22.1253   -6.9172  -14.9304 C   0  0  1  0  0  0  0  0  0  0  0  0
   22.5622   -7.9602  -15.9349 C   0  0  0  0  0  0  0  0  0  0  0  0
   23.8411   -8.5609  -15.5198 C   0  0  0  0  0  0  0  0  0  0  0  0
   23.8617   -9.6280  -14.6486 C   0  0  0  0  0  0  0  0  0  0  0  0
   25.0493  -10.2274  -14.2463 C   0  0  0  0  0  0  0  0  0  0  0  0
   26.2693   -9.7588  -14.7198 C   0  0  0  0  0  0  0  0  0  0  0  0
   26.2453   -8.6940  -15.5891 C   0  0  0  0  0  0  0  0  0  0  0  0
   25.0582   -8.1105  -15.9785 C   0  0  0  0  0  0  0  0  0  0  0  0
   23.1631   -5.9304  -14.6232 C   0  0  0  0  0  0  0  0  0  0  0  0
   23.8458   -6.0830  -13.5610 O   0  0  0  0  0  0  0  0  0  0  0  0
   23.4698   -4.8317  -15.4009 O   0  0  0  0  0  0  0  0  0  0  0  0
  2  1  1  0
  2  3  2  0
  4  3  1  0
  5  4  2  0
  6  5  1  0
  7  6  1  0
  7  8  1  6
  9 10  2  0
  9  7  1  0
 11 12  2  0
 11  5  1  0
 12  2  1  0
 13 14  1  0
 15 14  1  1
 15 16  1  0
 16  9  1  0
 17 18  2  0
 17 15  1  0
 19 17  1  0
 20 21  1  6
 20 19  1  0
 22 21  1  0
 22 23  2  0
 24 23  1  0
 25 24  2  0
 26 27  2  0
 26 25  1  0
 27 22  1  0
 28 20  1  0
 29 28  2  0
 30 28  1  0
M  END
$$$$
