YSF.pdb
     RDKit          3D

 30 31  0  0  1  0  0  0  0  0999 V2000
   17.7604  -18.5359  -14.5059 O   0  0  0  0  0  0  0  0  0  0  0  0
   18.8911  -19.2041  -14.0750 C   0  0  0  0  0  0  0  0  0  0  0  0
   20.0806  -18.5453  -13.9200 C   0  0  0  0  0  0  0  0  0  0  0  0
   21.2093  -19.1944  -13.4938 C   0  0  0  0  0  0  0  0  0  0  0  0
   21.1266  -20.5523  -13.2171 C   0  0  0  0  0  0  0  0  0  0  0  0
   22.3894  -21.2029  -12.7568 C   0  0  0  0  0  0  0  0  0  0  0  0
   23.4399  -21.1974  -13.8748 C   0  0  2  0  0  0  0  0  0  0  0  0
   23.1053  -22.2822  -14.7838 N   0  0  0  0  0  0  0  0  0  0  0  0
   24.7389  -21.5355  -13.2380 C   0  0  0  0  0  0  0  0  0  0  0  0
   24.9023  -22.7664  -12.9418 O   0  0  0  0  0  0  0  0  0  0  0  0
   19.9493  -21.2464  -13.3612 C   0  0  0  0  0  0  0  0  0  0  0  0
   18.8358  -20.5611  -13.7915 C   0  0  0  0  0  0  0  0  0  0  0  0
   27.5206  -18.7981  -12.6626 O   0  0  0  0  0  0  0  0  0  0  0  0
   28.0197  -20.0582  -12.4967 C   0  0  0  0  0  0  0  0  0  0  0  0
   26.8748  -21.0031  -12.1432 C   0  0  2  0  0  0  0  0  0  0  0  0
   25.7516  -20.5889  -12.9615 N   0  0  0  0  0  0  0  0  0  0  0  0
   26.5841  -20.8640  -10.7107 C   0  0  0  0  0  0  0  0  0  0  0  0
   25.4774  -20.4005  -10.2801 O   0  0  0  0  0  0  0  0  0  0  0  0
   27.5605  -21.2575   -9.7634 N   0  0  0  0  0  0  0  0  0  0  0  0
   27.4171  -20.9348   -8.3455 C   0  0  1  0  0  0  0  0  0  0  0  0
   28.7905  -21.0196   -7.7175 C   0  0  0  0  0  0  0  0  0  0  0  0
   28.7443  -20.5355   -6.3275 C   0  0  0  0  0  0  0  0  0  0  0  0
   29.1947  -19.2722   -6.0121 C   0  0  0  0  0  0  0  0  0  0  0  0
   29.1537  -18.7787   -4.7136 C   0  0  0  0  0  0  0  0  0  0  0  0
   28.6488  -19.5591   -3.6800 C   0  0  0  0  0  0  0  0  0  0  0  0
   28.2002  -20.8191   -3.9981 C   0  0  0  0  0  0  0  0  0  0  0  0
   28.2478  -21.2939   -5.2917 C   0  0  0  0  0  0  0  0  0  0  0  0
   26.7643  -19.6383   -8.1508 C   0  0  0  0  0  0  0  0  0  0  0  0
   27.2067  -18.6364   -8.7975 O   0  0  0  0  0  0  0  0  0  0  0  0
   25.6916  -19.4067   -7.3131 O   0  0  0  0  0  0  0  0  0  0  0  0
  2  1  1  0
  2  3  2  0
  4  3  1  0
  5  4  2  0
  6  5  1  0
  7  6  1  0
  7  8  1  6
  9 10  2  0
  9  7  1  0
 11 12  2  0
 11  5  1  0
 12  2  1  0
 13 14  1  0
 15 14  1  6
 15 16  1  0
 16  9  1  0
 17 18  2  0
 17 15  1  0
 19 17  1  0
 20 21  1  6
 20 19  1  0
 22 21  1  0
 22 23  2  0
 24 23  1  0
 25 24  2  0
 26 27  2  0
 26 25  1  0
 27 22  1  0
 28 20  1  0
 29 28  2  0
 30 28  1  0
M  END
$$$$
