YSF.pdb
     RDKit          3D

 30 31  0  0  1  0  0  0  0  0999 V2000
   18.7840  -17.0512  -16.0637 O   0  0  0  0  0  0  0  0  0  0  0  0
   19.6838  -17.7481  -15.2790 C   0  0  0  0  0  0  0  0  0  0  0  0
   19.2800  -18.8197  -14.5297 C   0  0  0  0  0  0  0  0  0  0  0  0
   20.1604  -19.5197  -13.7474 C   0  0  0  0  0  0  0  0  0  0  0  0
   21.4893  -19.1190  -13.7262 C   0  0  0  0  0  0  0  0  0  0  0  0
   22.3993  -19.9210  -12.8552 C   0  0  0  0  0  0  0  0  0  0  0  0
   23.4624  -20.6376  -13.6976 C   0  0  2  0  0  0  0  0  0  0  0  0
   22.8147  -21.7771  -14.3278 N   0  0  0  0  0  0  0  0  0  0  0  0
   24.4705  -21.1700  -12.7450 C   0  0  0  0  0  0  0  0  0  0  0  0
   24.0820  -22.1484  -12.0229 O   0  0  0  0  0  0  0  0  0  0  0  0
   21.9307  -18.0479  -14.4656 C   0  0  0  0  0  0  0  0  0  0  0  0
   21.0176  -17.3685  -15.2398 C   0  0  0  0  0  0  0  0  0  0  0  0
   28.0846  -19.4591  -12.2540 O   0  0  0  0  0  0  0  0  0  0  0  0
   28.0385  -20.7730  -11.8853 C   0  0  0  0  0  0  0  0  0  0  0  0
   26.6021  -21.1361  -11.5203 C   0  0  2  0  0  0  0  0  0  0  0  0
   25.7812  -20.6569  -12.6156 N   0  0  0  0  0  0  0  0  0  0  0  0
   26.2627  -20.4717  -10.2557 C   0  0  0  0  0  0  0  0  0  0  0  0
   25.6264  -19.3679  -10.2133 O   0  0  0  0  0  0  0  0  0  0  0  0
   26.6494  -21.0705   -9.0321 N   0  0  0  0  0  0  0  0  0  0  0  0
   26.5113  -20.3613   -7.7619 C   0  0  1  0  0  0  0  0  0  0  0  0
   26.8010  -21.3496   -6.6542 C   0  0  0  0  0  0  0  0  0  0  0  0
   28.0041  -20.9404   -5.9100 C   0  0  0  0  0  0  0  0  0  0  0  0
   27.9403  -19.9220   -4.9842 C   0  0  0  0  0  0  0  0  0  0  0  0
   29.0527  -19.5191   -4.2550 C   0  0  0  0  0  0  0  0  0  0  0  0
   30.2806  -20.1430   -4.4427 C   0  0  0  0  0  0  0  0  0  0  0  0
   30.3408  -21.1589   -5.3671 C   0  0  0  0  0  0  0  0  0  0  0  0
   29.2277  -21.5467   -6.0825 C   0  0  0  0  0  0  0  0  0  0  0  0
   27.3579  -19.1671   -7.7161 C   0  0  0  0  0  0  0  0  0  0  0  0
   28.4808  -19.1999   -8.3126 O   0  0  0  0  0  0  0  0  0  0  0  0
   27.0361  -17.9892   -7.0719 O   0  0  0  0  0  0  0  0  0  0  0  0
  2  1  1  0
  2  3  2  0
  4  3  1  0
  5  4  2  0
  6  5  1  0
  7  6  1  0
  7  8  1  1
  9 10  2  0
  9  7  1  0
 11 12  2  0
 11  5  1  0
 12  2  1  0
 13 14  1  0
 15 14  1  6
 15 16  1  0
 16  9  1  0
 17 18  2  0
 17 15  1  0
 19 17  1  0
 20 21  1  1
 20 19  1  0
 22 21  1  0
 22 23  2  0
 24 23  1  0
 25 24  2  0
 26 27  2  0
 26 25  1  0
 27 22  1  0
 28 20  1  0
 29 28  2  0
 30 28  1  0
M  END
$$$$
