YSF.pdb
     RDKit          3D

 30 31  0  0  1  0  0  0  0  0999 V2000
   25.8104   -9.0828  -24.0526 O   0  0  0  0  0  0  0  0  0  0  0  0
   25.1672  -10.2740  -23.7728 C   0  0  0  0  0  0  0  0  0  0  0  0
   24.1444  -10.3240  -22.8649 C   0  0  0  0  0  0  0  0  0  0  0  0
   23.4979  -11.4973  -22.5776 C   0  0  0  0  0  0  0  0  0  0  0  0
   23.9027  -12.6528  -23.2318 C   0  0  0  0  0  0  0  0  0  0  0  0
   23.1602  -13.8986  -22.8762 C   0  0  0  0  0  0  0  0  0  0  0  0
   23.8980  -14.6736  -21.7769 C   0  0  2  0  0  0  0  0  0  0  0  0
   25.0782  -15.2654  -22.3869 N   0  0  0  0  0  0  0  0  0  0  0  0
   23.0028  -15.7867  -21.3687 C   0  0  0  0  0  0  0  0  0  0  0  0
   23.2181  -16.9052  -21.9451 O   0  0  0  0  0  0  0  0  0  0  0  0
   24.9258  -12.6404  -24.1493 C   0  0  0  0  0  0  0  0  0  0  0  0
   25.5521  -11.4433  -24.4125 C   0  0  0  0  0  0  0  0  0  0  0  0
   22.5881  -17.3921  -18.3518 O   0  0  0  0  0  0  0  0  0  0  0  0
   22.0914  -17.8622  -19.5337 C   0  0  0  0  0  0  0  0  0  0  0  0
   21.1491  -16.8185  -20.1263 C   0  0  2  0  0  0  0  0  0  0  0  0
   21.9709  -15.6582  -20.4113 N   0  0  0  0  0  0  0  0  0  0  0  0
   20.1085  -16.5172  -19.1353 C   0  0  0  0  0  0  0  0  0  0  0  0
   20.3085  -15.7308  -18.1522 O   0  0  0  0  0  0  0  0  0  0  0  0
   18.8313  -17.1147  -19.2672 N   0  0  0  0  0  0  0  0  0  0  0  0
   17.7671  -16.8548  -18.3001 C   0  0  1  0  0  0  0  0  0  0  0  0
   16.6290  -16.1904  -19.0422 C   0  0  0  0  0  0  0  0  0  0  0  0
   16.1068  -17.0915  -20.0834 C   0  0  0  0  0  0  0  0  0  0  0  0
   16.5638  -17.0002  -21.3799 C   0  0  0  0  0  0  0  0  0  0  0  0
   16.1025  -17.8429  -22.3843 C   0  0  0  0  0  0  0  0  0  0  0  0
   15.1516  -18.8171  -22.1037 C   0  0  0  0  0  0  0  0  0  0  0  0
   14.6977  -18.9056  -20.8090 C   0  0  0  0  0  0  0  0  0  0  0  0
   15.1656  -18.0618  -19.8239 C   0  0  0  0  0  0  0  0  0  0  0  0
   17.3711  -18.0748  -17.5932 C   0  0  0  0  0  0  0  0  0  0  0  0
   17.9111  -19.1739  -17.9367 O   0  0  0  0  0  0  0  0  0  0  0  0
   16.4479  -18.1352  -16.5685 O   0  0  0  0  0  0  0  0  0  0  0  0
  2  1  1  0
  2  3  2  0
  4  3  1  0
  5  4  2  0
  6  5  1  0
  7  6  1  0
  7  8  1  6
  9 10  2  0
  9  7  1  0
 11 12  2  0
 11  5  1  0
 12  2  1  0
 13 14  1  0
 15 14  1  1
 15 16  1  0
 16  9  1  0
 17 18  2  0
 17 15  1  0
 19 17  1  0
 20 21  1  6
 20 19  1  0
 22 21  1  0
 22 23  2  0
 24 23  1  0
 25 24  2  0
 26 27  2  0
 26 25  1  0
 27 22  1  0
 28 20  1  0
 29 28  2  0
 30 28  1  0
M  END
$$$$
