YSF.pdb
     RDKit          3D

 30 31  0  0  1  0  0  0  0  0999 V2000
   22.7392  -14.5171  -22.9546 O   0  0  0  0  0  0  0  0  0  0  0  0
   22.2659  -13.6407  -21.9962 C   0  0  0  0  0  0  0  0  0  0  0  0
   23.1239  -12.8457  -21.2858 C   0  0  0  0  0  0  0  0  0  0  0  0
   22.6692  -11.9725  -20.3330 C   0  0  0  0  0  0  0  0  0  0  0  0
   21.3030  -11.9055  -20.0955 C   0  0  0  0  0  0  0  0  0  0  0  0
   20.8696  -10.9356  -19.0461 C   0  0  0  0  0  0  0  0  0  0  0  0
   21.0545  -11.5345  -17.6458 C   0  0  2  0  0  0  0  0  0  0  0  0
   20.0614  -12.5862  -17.4941 N   0  0  0  0  0  0  0  0  0  0  0  0
   20.7161  -10.4603  -16.6769 C   0  0  0  0  0  0  0  0  0  0  0  0
   19.4824  -10.1368  -16.6231 O   0  0  0  0  0  0  0  0  0  0  0  0
   20.4119  -12.6884  -20.7894 C   0  0  0  0  0  0  0  0  0  0  0  0
   20.9053  -13.5540  -21.7392 C   0  0  0  0  0  0  0  0  0  0  0  0
   22.8291   -9.6341  -13.4864 O   0  0  0  0  0  0  0  0  0  0  0  0
   21.5157   -9.2656  -13.5461 C   0  0  0  0  0  0  0  0  0  0  0  0
   21.2019   -8.7732  -14.9559 C   0  0  2  0  0  0  0  0  0  0  0  0
   21.6653   -9.8147  -15.8522 N   0  0  0  0  0  0  0  0  0  0  0  0
   21.9164   -7.5094  -15.1756 C   0  0  0  0  0  0  0  0  0  0  0  0
   22.8637   -7.3984  -16.0214 O   0  0  0  0  0  0  0  0  0  0  0  0
   21.5472   -6.3649  -14.4278 N   0  0  0  0  0  0  0  0  0  0  0  0
   22.2263   -5.0844  -14.6133 C   0  0  1  0  0  0  0  0  0  0  0  0
   22.2274   -4.7794  -16.0947 C   0  0  0  0  0  0  0  0  0  0  0  0
   22.7818   -3.4367  -16.3365 C   0  0  0  0  0  0  0  0  0  0  0  0
   21.9478   -2.3767  -16.6180 C   0  0  0  0  0  0  0  0  0  0  0  0
   22.4358   -1.0942  -16.8384 C   0  0  0  0  0  0  0  0  0  0  0  0
   23.8014   -0.8415  -16.7801 C   0  0  0  0  0  0  0  0  0  0  0  0
   24.6308   -1.9013  -16.4990 C   0  0  0  0  0  0  0  0  0  0  0  0
   24.1306   -3.1679  -16.2826 C   0  0  0  0  0  0  0  0  0  0  0  0
   21.6188   -4.0290  -13.7996 C   0  0  0  0  0  0  0  0  0  0  0  0
   22.3665   -3.0971  -13.3634 O   0  0  0  0  0  0  0  0  0  0  0  0
   20.2824   -3.9568  -13.4608 O   0  0  0  0  0  0  0  0  0  0  0  0
  2  1  1  0
  2  3  2  0
  4  3  1  0
  5  4  2  0
  6  5  1  0
  7  6  1  0
  7  8  1  6
  9 10  2  0
  9  7  1  0
 11 12  2  0
 11  5  1  0
 12  2  1  0
 13 14  1  0
 15 14  1  1
 15 16  1  0
 16  9  1  0
 17 18  2  0
 17 15  1  0
 19 17  1  0
 20 21  1  6
 20 19  1  0
 22 21  1  0
 22 23  2  0
 24 23  1  0
 25 24  2  0
 26 27  2  0
 26 25  1  0
 27 22  1  0
 28 20  1  0
 29 28  2  0
 30 28  1  0
M  END
$$$$
