YSF.pdb
     RDKit          3D

 30 31  0  0  1  0  0  0  0  0999 V2000
   19.5803  -16.1916  -17.0770 O   0  0  0  0  0  0  0  0  0  0  0  0
   20.3026  -17.0518  -16.2714 C   0  0  0  0  0  0  0  0  0  0  0  0
   21.2044  -16.5712  -15.3610 C   0  0  0  0  0  0  0  0  0  0  0  0
   21.9273  -17.4117  -14.5560 C   0  0  0  0  0  0  0  0  0  0  0  0
   21.7280  -18.7799  -14.6800 C   0  0  0  0  0  0  0  0  0  0  0  0
   22.5447  -19.6433  -13.7759 C   0  0  0  0  0  0  0  0  0  0  0  0
   23.9092  -19.9494  -14.4067 C   0  0  2  0  0  0  0  0  0  0  0  0
   23.6605  -20.7179  -15.6161 N   0  0  0  0  0  0  0  0  0  0  0  0
   24.6267  -20.8369  -13.4556 C   0  0  0  0  0  0  0  0  0  0  0  0
   24.5838  -22.0835  -13.7273 O   0  0  0  0  0  0  0  0  0  0  0  0
   20.8311  -19.2983  -15.5830 C   0  0  0  0  0  0  0  0  0  0  0  0
   20.1226  -18.4235  -16.3751 C   0  0  0  0  0  0  0  0  0  0  0  0
   28.0361  -20.6862  -12.6698 O   0  0  0  0  0  0  0  0  0  0  0  0
   27.2419  -21.7679  -12.4174 C   0  0  0  0  0  0  0  0  0  0  0  0
   26.0768  -21.3327  -11.5332 C   0  0  2  0  0  0  0  0  0  0  0  0
   25.3218  -20.3732  -12.3155 N   0  0  0  0  0  0  0  0  0  0  0  0
   26.6224  -20.7285  -10.3113 C   0  0  0  0  0  0  0  0  0  0  0  0
   27.5773  -19.8843  -10.3342 O   0  0  0  0  0  0  0  0  0  0  0  0
   26.0745  -21.0875   -9.0557 N   0  0  0  0  0  0  0  0  0  0  0  0
   26.9107  -21.1844   -7.8613 C   0  0  1  0  0  0  0  0  0  0  0  0
   27.6288  -19.8631   -7.6992 C   0  0  0  0  0  0  0  0  0  0  0  0
   28.2073  -19.7617   -6.3487 C   0  0  0  0  0  0  0  0  0  0  0  0
   27.7993  -18.7675   -5.4866 C   0  0  0  0  0  0  0  0  0  0  0  0
   28.3144  -18.6503   -4.2011 C   0  0  0  0  0  0  0  0  0  0  0  0
   29.2714  -19.5480   -3.7423 C   0  0  0  0  0  0  0  0  0  0  0  0
   29.6763  -20.5389   -4.6050 C   0  0  0  0  0  0  0  0  0  0  0  0
   29.1552  -20.6414   -5.8775 C   0  0  0  0  0  0  0  0  0  0  0  0
   26.1287  -21.5729   -6.6855 C   0  0  0  0  0  0  0  0  0  0  0  0
   24.8805  -21.3284   -6.6829 O   0  0  0  0  0  0  0  0  0  0  0  0
   26.6379  -22.1931   -5.5621 O   0  0  0  0  0  0  0  0  0  0  0  0
  2  1  1  0
  2  3  2  0
  4  3  1  0
  5  4  2  0
  6  5  1  0
  7  6  1  0
  7  8  1  6
  9 10  2  0
  9  7  1  0
 11 12  2  0
 11  5  1  0
 12  2  1  0
 13 14  1  0
 15 14  1  6
 15 16  1  0
 16  9  1  0
 17 18  2  0
 17 15  1  0
 19 17  1  0
 20 21  1  1
 20 19  1  0
 22 21  1  0
 22 23  2  0
 24 23  1  0
 25 24  2  0
 26 27  2  0
 26 25  1  0
 27 22  1  0
 28 20  1  0
 29 28  2  0
 30 28  1  0
M  END
$$$$
