NEP.pdb
     RDKit          3D

 25 25  0  0  1  0  0  0  0  0999 V2000
   46.8809   -9.7681   -3.1799 N   0  0  0  0  0  0  0  0  0  0  0  0
   45.5046   -9.4777   -3.2365 C   0  0  0  0  0  0  0  0  0  0  0  0
   44.9823   -8.7719   -2.3305 O   0  0  0  0  0  0  0  0  0  0  0  0
   44.6220   -9.9675   -4.3254 C   0  0  0  0  0  0  0  0  0  0  0  0
   45.3870  -10.7918   -5.3323 C   0  0  2  0  0  0  0  0  0  0  0  0
   46.2686   -9.9714   -6.1180 N   0  0  0  0  0  0  0  0  0  0  0  0
   44.5135  -11.6160   -6.1748 C   0  0  0  0  0  0  0  0  0  0  0  0
   43.7133  -12.4157   -5.6078 O   0  0  0  0  0  0  0  0  0  0  0  0
   44.5071  -11.5755   -7.5774 N   0  0  0  0  0  0  0  0  0  0  0  0
   43.6166  -12.4426   -8.3524 C   0  0  1  0  0  0  0  0  0  0  0  0
   42.9352  -11.4990   -9.3265 C   0  0  0  0  0  0  0  0  0  0  0  0
   42.1290  -10.5255   -8.4914 C   0  0  0  0  0  0  0  0  0  0  0  0
   41.3551   -9.5878   -9.3749 C   0  0  0  0  0  0  0  0  0  0  0  0
   40.6594   -8.6729   -8.8638 O   0  0  0  0  0  0  0  0  0  0  0  0
   44.3974  -13.5039   -9.0787 C   0  0  0  0  0  0  0  0  0  0  0  0
   45.4192  -13.0803   -9.6612 O   0  0  0  0  0  0  0  0  0  0  0  0
   41.4388   -9.7696  -10.7362 O   0  0  0  0  0  0  0  0  0  0  0  0
   44.0348  -14.8398   -9.1121 N   0  0  0  0  0  0  0  0  0  0  0  0
   43.4104  -15.5142   -7.9511 C   0  0  0  0  0  0  0  0  0  0  0  0
   42.3848  -16.4040   -8.6041 C   0  0  0  0  0  0  0  0  0  0  0  0
   42.7212  -16.4459  -10.0703 C   0  0  0  0  0  0  0  0  0  0  0  0
   44.1757  -15.8779  -10.0568 C   0  0  1  0  0  0  0  0  0  0  0  0
   44.6009  -15.5991  -11.4089 C   0  0  0  0  0  0  0  0  0  0  0  0
   45.3608  -16.4653  -11.9754 O   0  0  0  0  0  0  0  0  0  0  0  0
   44.2837  -14.5095  -12.1656 O   0  0  0  0  0  0  0  0  0  0  0  0
  1  2  1  0
  2  3  2  0
  4  5  1  0
  4  2  1  0
  5  6  1  6
  7  5  1  0
  8  7  2  0
  9  7  1  0
 10 11  1  6
 10  9  1  0
 11 12  1  0
 12 13  1  0
 13 17  1  0
 14 13  2  0
 15 10  1  0
 16 15  2  0
 18 15  1  0
 18 22  1  0
 19 20  1  0
 19 18  1  0
 20 21  1  0
 21 22  1  0
 22 23  1  6
 23 25  1  0
 24 23  2  0
M  END
$$$$
