NEP.pdb
     RDKit          3D

 25 25  0  0  1  0  0  0  0  0999 V2000
   27.4063  -21.2643  -17.1849 N   0  0  0  0  0  0  0  0  0  0  0  0
   27.7888  -19.9252  -16.9797 C   0  0  0  0  0  0  0  0  0  0  0  0
   27.9614  -19.1703  -17.9757 O   0  0  0  0  0  0  0  0  0  0  0  0
   28.0028  -19.3464  -15.6292 C   0  0  0  0  0  0  0  0  0  0  0  0
   27.8768  -20.3937  -14.5495 C   0  0  2  0  0  0  0  0  0  0  0  0
   27.5178  -21.6723  -15.1007 N   0  0  0  0  0  0  0  0  0  0  0  0
   26.9696  -19.9914  -13.4691 C   0  0  0  0  0  0  0  0  0  0  0  0
   26.4229  -18.8522  -13.5375 O   0  0  0  0  0  0  0  0  0  0  0  0
   26.6664  -20.7922  -12.3575 N   0  0  0  0  0  0  0  0  0  0  0  0
   25.6609  -20.3730  -11.3783 C   0  0  1  0  0  0  0  0  0  0  0  0
   24.3385  -20.5729  -12.0957 C   0  0  0  0  0  0  0  0  0  0  0  0
   24.2187  -19.4460  -13.1012 C   0  0  0  0  0  0  0  0  0  0  0  0
   22.8915  -19.5050  -13.8038 C   0  0  0  0  0  0  0  0  0  0  0  0
   21.9358  -20.1410  -13.2897 O   0  0  0  0  0  0  0  0  0  0  0  0
   25.7378  -21.2153  -10.1341 C   0  0  0  0  0  0  0  0  0  0  0  0
   25.3137  -22.3825  -10.2780 O   0  0  0  0  0  0  0  0  0  0  0  0
   22.7701  -18.8478  -15.0066 O   0  0  0  0  0  0  0  0  0  0  0  0
   26.2321  -20.7585   -8.9239 N   0  0  0  0  0  0  0  0  0  0  0  0
   27.4384  -19.9040   -8.8397 C   0  0  0  0  0  0  0  0  0  0  0  0
   27.0722  -18.9300   -7.7501 C   0  0  0  0  0  0  0  0  0  0  0  0
   25.8613  -19.4939   -7.0568 C   0  0  0  0  0  0  0  0  0  0  0  0
   25.8839  -20.9674   -7.5731 C   0  0  1  0  0  0  0  0  0  0  0  0
   24.6480  -21.6256   -7.2177 C   0  0  0  0  0  0  0  0  0  0  0  0
   23.6188  -21.3721   -7.9423 O   0  0  0  0  0  0  0  0  0  0  0  0
   24.4441  -22.4987   -6.1897 O   0  0  0  0  0  0  0  0  0  0  0  0
  1  2  1  0
  2  3  2  0
  4  5  1  0
  4  2  1  0
  5  6  1  6
  7  5  1  0
  8  7  2  0
  9  7  1  0
 10 11  1  6
 10  9  1  0
 11 12  1  0
 12 13  1  0
 13 17  1  0
 14 13  2  0
 15 10  1  0
 16 15  2  0
 18 15  1  0
 18 22  1  0
 19 20  1  0
 19 18  1  0
 20 21  1  0
 21 22  1  0
 22 23  1  6
 23 25  1  0
 24 23  2  0
M  END
$$$$
