NEP.pdb
     RDKit          3D

 25 25  0  0  1  0  0  0  0  0999 V2000
   18.6082  -14.4698  -18.1415 N   0  0  0  0  0  0  0  0  0  0  0  0
   19.1787  -14.6654  -16.8695 C   0  0  0  0  0  0  0  0  0  0  0  0
   19.3381  -15.8393  -16.4355 O   0  0  0  0  0  0  0  0  0  0  0  0
   19.6094  -13.5427  -15.9984 C   0  0  0  0  0  0  0  0  0  0  0  0
   19.3658  -12.2054  -16.6546 C   0  0  2  0  0  0  0  0  0  0  0  0
   20.3113  -11.9606  -17.7099 N   0  0  0  0  0  0  0  0  0  0  0  0
   19.3233  -11.0985  -15.6927 C   0  0  0  0  0  0  0  0  0  0  0  0
   18.4990  -11.1669  -14.7351 O   0  0  0  0  0  0  0  0  0  0  0  0
   20.1423   -9.9614  -15.7654 N   0  0  0  0  0  0  0  0  0  0  0  0
   19.9785   -8.8529  -14.8220 C   0  0  1  0  0  0  0  0  0  0  0  0
   21.2267   -8.0120  -15.0173 C   0  0  0  0  0  0  0  0  0  0  0  0
   21.1276   -6.8596  -14.0389 C   0  0  0  0  0  0  0  0  0  0  0  0
   22.2703   -5.9029  -14.2333 C   0  0  0  0  0  0  0  0  0  0  0  0
   23.2303   -6.2147  -14.9839 O   0  0  0  0  0  0  0  0  0  0  0  0
   18.7361   -8.0628  -15.1311 C   0  0  0  0  0  0  0  0  0  0  0  0
   18.7227   -7.5543  -16.2732 O   0  0  0  0  0  0  0  0  0  0  0  0
   22.2217   -4.6986  -13.5697 O   0  0  0  0  0  0  0  0  0  0  0  0
   17.6859   -7.8999  -14.2434 N   0  0  0  0  0  0  0  0  0  0  0  0
   17.4459   -8.8437  -13.1280 C   0  0  0  0  0  0  0  0  0  0  0  0
   17.0273   -7.9259  -12.0090 C   0  0  0  0  0  0  0  0  0  0  0  0
   16.7195   -6.5932  -12.6367 C   0  0  0  0  0  0  0  0  0  0  0  0
   16.6102   -6.9931  -14.1421 C   0  0  1  0  0  0  0  0  0  0  0  0
   16.5629   -5.8026  -14.9589 C   0  0  0  0  0  0  0  0  0  0  0  0
   17.6708   -5.1864  -15.1628 O   0  0  0  0  0  0  0  0  0  0  0  0
   15.4642   -5.2497  -15.5488 O   0  0  0  0  0  0  0  0  0  0  0  0
  1  2  1  0
  2  3  2  0
  4  5  1  0
  4  2  1  0
  5  6  1  6
  7  5  1  0
  8  7  2  0
  9  7  1  0
 10 11  1  6
 10  9  1  0
 11 12  1  0
 12 13  1  0
 13 17  1  0
 14 13  2  0
 15 10  1  0
 16 15  2  0
 18 15  1  0
 18 22  1  0
 19 20  1  0
 19 18  1  0
 20 21  1  0
 21 22  1  0
 22 23  1  6
 23 25  1  0
 24 23  2  0
M  END
$$$$
