NEP.pdb
     RDKit          3D

 25 25  0  0  1  0  0  0  0  0999 V2000
   28.9999  -16.1719  -20.1126 N   0  0  0  0  0  0  0  0  0  0  0  0
   29.1220  -16.8939  -18.9104 C   0  0  0  0  0  0  0  0  0  0  0  0
   30.1789  -17.5439  -18.6823 O   0  0  0  0  0  0  0  0  0  0  0  0
   28.0532  -16.9301  -17.8803 C   0  0  0  0  0  0  0  0  0  0  0  0
   27.7990  -18.3357  -17.3926 C   0  0  2  0  0  0  0  0  0  0  0  0
   27.3558  -19.1883  -18.4623 N   0  0  0  0  0  0  0  0  0  0  0  0
   26.8880  -18.3838  -16.2437 C   0  0  0  0  0  0  0  0  0  0  0  0
   27.0685  -17.5605  -15.2998 O   0  0  0  0  0  0  0  0  0  0  0  0
   25.8225  -19.2888  -16.1220 N   0  0  0  0  0  0  0  0  0  0  0  0
   24.9231  -19.2432  -14.9668 C   0  0  1  0  0  0  0  0  0  0  0  0
   23.5651  -18.9273  -15.5661 C   0  0  0  0  0  0  0  0  0  0  0  0
   22.5891  -18.8568  -14.4095 C   0  0  0  0  0  0  0  0  0  0  0  0
   21.1751  -18.7989  -14.9154 C   0  0  0  0  0  0  0  0  0  0  0  0
   20.9529  -18.6556  -16.1451 O   0  0  0  0  0  0  0  0  0  0  0  0
   24.9060  -20.5637  -14.2460 C   0  0  0  0  0  0  0  0  0  0  0  0
   24.3656  -21.4909  -14.8873 O   0  0  0  0  0  0  0  0  0  0  0  0
   20.1575  -18.9071  -13.9957 O   0  0  0  0  0  0  0  0  0  0  0  0
   25.4372  -20.7585  -12.9822 N   0  0  0  0  0  0  0  0  0  0  0  0
   26.4978  -19.8840  -12.4319 C   0  0  0  0  0  0  0  0  0  0  0  0
   26.0908  -19.7473  -10.9877 C   0  0  0  0  0  0  0  0  0  0  0  0
   25.0552  -20.8083  -10.7294 C   0  0  0  0  0  0  0  0  0  0  0  0
   25.2575  -21.7289  -11.9744 C   0  0  1  0  0  0  0  0  0  0  0  0
   24.1795  -22.6875  -12.0500 C   0  0  0  0  0  0  0  0  0  0  0  0
   24.4509  -23.9020  -11.7335 O   0  0  0  0  0  0  0  0  0  0  0  0
   22.8886  -22.4501  -12.4211 O   0  0  0  0  0  0  0  0  0  0  0  0
  1  2  1  0
  2  3  2  0
  4  5  1  0
  4  2  1  0
  5  6  1  6
  7  5  1  0
  8  7  2  0
  9  7  1  0
 10 11  1  6
 10  9  1  0
 11 12  1  0
 12 13  1  0
 13 17  1  0
 14 13  2  0
 15 10  1  0
 16 15  2  0
 18 15  1  0
 18 22  1  0
 19 20  1  0
 19 18  1  0
 20 21  1  0
 21 22  1  0
 22 23  1  6
 23 25  1  0
 24 23  2  0
M  END
$$$$
