NEP.pdb
     RDKit          3D

 25 25  0  0  1  0  0  0  0  0999 V2000
   13.6460   -9.1953   -9.5812 N   0  0  0  0  0  0  0  0  0  0  0  0
   14.0674  -10.1592  -10.5165 C   0  0  0  0  0  0  0  0  0  0  0  0
   13.2895  -11.1024  -10.8279 O   0  0  0  0  0  0  0  0  0  0  0  0
   15.4022  -10.1221  -11.1658 C   0  0  0  0  0  0  0  0  0  0  0  0
   15.2899  -10.1739  -12.6702 C   0  0  2  0  0  0  0  0  0  0  0  0
   14.8322  -11.4620  -13.1163 N   0  0  0  0  0  0  0  0  0  0  0  0
   16.5266   -9.7698  -13.3478 C   0  0  0  0  0  0  0  0  0  0  0  0
   17.4223  -10.6441  -13.5337 O   0  0  0  0  0  0  0  0  0  0  0  0
   16.7833   -8.4687  -13.8063 N   0  0  0  0  0  0  0  0  0  0  0  0
   17.9910   -8.1660  -14.5779 C   0  0  1  0  0  0  0  0  0  0  0  0
   17.4888   -7.3287  -15.7398 C   0  0  0  0  0  0  0  0  0  0  0  0
   16.8595   -8.2921  -16.7253 C   0  0  0  0  0  0  0  0  0  0  0  0
   16.3606   -7.5561  -17.9370 C   0  0  0  0  0  0  0  0  0  0  0  0
   16.4386   -6.3017  -17.9868 O   0  0  0  0  0  0  0  0  0  0  0  0
   18.9837   -7.4014  -13.7452 C   0  0  0  0  0  0  0  0  0  0  0  0
   18.4850   -6.4647  -13.0844 O   0  0  0  0  0  0  0  0  0  0  0  0
   15.8269   -8.2974  -18.9660 O   0  0  0  0  0  0  0  0  0  0  0  0
   20.3367   -7.6925  -13.6990 N   0  0  0  0  0  0  0  0  0  0  0  0
   20.8517   -9.0679  -13.8876 C   0  0  0  0  0  0  0  0  0  0  0  0
   22.0981   -8.8402  -14.7027 C   0  0  0  0  0  0  0  0  0  0  0  0
   22.3999   -7.3678  -14.6269 C   0  0  0  0  0  0  0  0  0  0  0  0
   21.4993   -6.9425  -13.4243 C   0  0  1  0  0  0  0  0  0  0  0  0
   21.4507   -5.5012  -13.3396 C   0  0  0  0  0  0  0  0  0  0  0  0
   20.6162   -4.8962  -14.1052 O   0  0  0  0  0  0  0  0  0  0  0  0
   22.1963   -4.6967  -12.5287 O   0  0  0  0  0  0  0  0  0  0  0  0
  1  2  1  0
  2  3  2  0
  4  5  1  0
  4  2  1  0
  5  6  1  1
  7  5  1  0
  8  7  2  0
  9  7  1  0
 10 11  1  6
 10  9  1  0
 11 12  1  0
 12 13  1  0
 13 17  1  0
 14 13  2  0
 15 10  1  0
 16 15  2  0
 18 15  1  0
 18 22  1  0
 19 20  1  0
 19 18  1  0
 20 21  1  0
 21 22  1  0
 22 23  1  6
 23 25  1  0
 24 23  2  0
M  END
$$$$
