NEP.pdb
     RDKit          3D

 25 25  0  0  1  0  0  0  0  0999 V2000
   16.2075  -13.6404  -16.4228 N   0  0  0  0  0  0  0  0  0  0  0  0
   16.2406  -12.8894  -15.2325 C   0  0  0  0  0  0  0  0  0  0  0  0
   15.3210  -13.0361  -14.3814 O   0  0  0  0  0  0  0  0  0  0  0  0
   17.3200  -11.9180  -14.9226 C   0  0  0  0  0  0  0  0  0  0  0  0
   18.3847  -11.9106  -15.9925 C   0  0  2  0  0  0  0  0  0  0  0  0
   19.2321  -13.0681  -15.8949 N   0  0  0  0  0  0  0  0  0  0  0  0
   19.1614  -10.6662  -16.0141 C   0  0  0  0  0  0  0  0  0  0  0  0
   20.1066  -10.5342  -15.1831 O   0  0  0  0  0  0  0  0  0  0  0  0
   18.9235   -9.6058  -16.9017 N   0  0  0  0  0  0  0  0  0  0  0  0
   19.7525   -8.3985  -16.8731 C   0  0  1  0  0  0  0  0  0  0  0  0
   19.4201   -7.6894  -18.1730 C   0  0  0  0  0  0  0  0  0  0  0  0
   20.2729   -6.4378  -18.2118 C   0  0  0  0  0  0  0  0  0  0  0  0
   20.2130   -5.8007  -19.5716 C   0  0  0  0  0  0  0  0  0  0  0  0
   19.1080   -5.4289  -20.0435 O   0  0  0  0  0  0  0  0  0  0  0  0
   19.4138   -7.5416  -15.6837 C   0  0  0  0  0  0  0  0  0  0  0  0
   18.1988   -7.2663  -15.5794 O   0  0  0  0  0  0  0  0  0  0  0  0
   21.3929   -5.6454  -20.2623 O   0  0  0  0  0  0  0  0  0  0  0  0
   20.3501   -7.0864  -14.7707 N   0  0  0  0  0  0  0  0  0  0  0  0
   21.6813   -7.7187  -14.6283 C   0  0  0  0  0  0  0  0  0  0  0  0
   22.5843   -6.5321  -14.4127 C   0  0  0  0  0  0  0  0  0  0  0  0
   21.6912   -5.3621  -14.0989 C   0  0  0  0  0  0  0  0  0  0  0  0
   20.3510   -6.0926  -13.7696 C   0  0  1  0  0  0  0  0  0  0  0  0
   19.2805   -5.1267  -13.6808 C   0  0  0  0  0  0  0  0  0  0  0  0
   18.7108   -4.9855  -12.5387 O   0  0  0  0  0  0  0  0  0  0  0  0
   18.7986   -4.3345  -14.6812 O   0  0  0  0  0  0  0  0  0  0  0  0
  1  2  1  0
  2  3  2  0
  4  5  1  0
  4  2  1  0
  5  6  1  1
  7  5  1  0
  8  7  2  0
  9  7  1  0
 10 11  1  6
 10  9  1  0
 11 12  1  0
 12 13  1  0
 13 17  1  0
 14 13  2  0
 15 10  1  0
 16 15  2  0
 18 15  1  0
 18 22  1  0
 19 20  1  0
 19 18  1  0
 20 21  1  0
 21 22  1  0
 22 23  1  6
 23 25  1  0
 24 23  2  0
M  END
$$$$
