NEP.pdb
     RDKit          3D

 25 25  0  0  1  0  0  0  0  0999 V2000
   14.8177  -10.7075  -17.8493 N   0  0  0  0  0  0  0  0  0  0  0  0
   14.9613   -9.3572  -17.4782 C   0  0  0  0  0  0  0  0  0  0  0  0
   14.1339   -8.5057  -17.9050 O   0  0  0  0  0  0  0  0  0  0  0  0
   16.0543   -8.8761  -16.5959 C   0  0  0  0  0  0  0  0  0  0  0  0
   16.9713  -10.0017  -16.1830 C   0  0  2  0  0  0  0  0  0  0  0  0
   16.3465  -10.8545  -15.2084 N   0  0  0  0  0  0  0  0  0  0  0  0
   18.2852   -9.5297  -15.7324 C   0  0  0  0  0  0  0  0  0  0  0  0
   18.4039   -9.1381  -14.5350 O   0  0  0  0  0  0  0  0  0  0  0  0
   19.4264   -9.4836  -16.5475 N   0  0  0  0  0  0  0  0  0  0  0  0
   20.7019   -8.9817  -16.0308 C   0  0  1  0  0  0  0  0  0  0  0  0
   21.7469   -9.8172  -16.7471 C   0  0  0  0  0  0  0  0  0  0  0  0
   23.0950   -9.3554  -16.2327 C   0  0  0  0  0  0  0  0  0  0  0  0
   24.2060  -10.0701  -16.9493 C   0  0  0  0  0  0  0  0  0  0  0  0
   24.8546  -10.9732  -16.3613 O   0  0  0  0  0  0  0  0  0  0  0  0
   20.8692   -7.5188  -16.3400 C   0  0  0  0  0  0  0  0  0  0  0  0
   20.8507   -7.2472  -17.5601 O   0  0  0  0  0  0  0  0  0  0  0  0
   24.4766   -9.7018  -18.2471 O   0  0  0  0  0  0  0  0  0  0  0  0
   21.0305   -6.5407  -15.3732 N   0  0  0  0  0  0  0  0  0  0  0  0
   20.6950   -6.7784  -13.9508 C   0  0  0  0  0  0  0  0  0  0  0  0
   21.8033   -6.0563  -13.2296 C   0  0  0  0  0  0  0  0  0  0  0  0
   22.4804   -5.1790  -14.2478 C   0  0  0  0  0  0  0  0  0  0  0  0
   21.4214   -5.1856  -15.3953 C   0  0  1  0  0  0  0  0  0  0  0  0
   21.9906   -4.5959  -16.5849 C   0  0  0  0  0  0  0  0  0  0  0  0
   22.6611   -5.3693  -17.3601 O   0  0  0  0  0  0  0  0  0  0  0  0
   21.8959   -3.2962  -16.9880 O   0  0  0  0  0  0  0  0  0  0  0  0
  1  2  1  0
  2  3  2  0
  4  5  1  0
  4  2  1  0
  5  6  1  1
  7  5  1  0
  8  7  2  0
  9  7  1  0
 10 11  1  6
 10  9  1  0
 11 12  1  0
 12 13  1  0
 13 17  1  0
 14 13  2  0
 15 10  1  0
 16 15  2  0
 18 15  1  0
 18 22  1  0
 19 20  1  0
 19 18  1  0
 20 21  1  0
 21 22  1  0
 22 23  1  6
 23 25  1  0
 24 23  2  0
M  END
$$$$
