RPL.pdb
     RDKit          3D

 27 27  0  0  1  0  0  0  0  0999 V2000
   14.8918  -20.0231   20.0560 N   0  0  0  0  0  0  0  0  0  0  0  0
   14.6813  -20.8092   21.2171 C   0  0  0  0  0  0  0  0  0  0  0  0
   15.6447  -21.4888   21.7343 N   0  0  0  0  0  0  0  0  0  0  0  0
   13.3989  -20.8555   21.8259 N   0  0  0  0  0  0  0  0  0  0  0  0
   12.1964  -20.4415   21.1220 C   0  0  0  0  0  0  0  0  0  0  0  0
   11.8336  -18.9960   21.4853 C   0  0  0  0  0  0  0  0  0  0  0  0
   10.6152  -18.6168   20.6797 C   0  0  0  0  0  0  0  0  0  0  0  0
   10.6990  -17.2014   20.1442 C   0  0  2  0  0  0  0  0  0  0  0  0
   12.0094  -16.8667   19.6673 N   0  0  0  0  0  0  0  0  0  0  0  0
   10.0699  -16.2267   21.0300 C   0  0  0  0  0  0  0  0  0  0  0  0
   10.8574  -15.4478   21.6556 O   0  0  0  0  0  0  0  0  0  0  0  0
   15.4970  -22.0576   22.5796 N   0  0  0  0  0  0  0  0  0  0  0  0
    8.6694  -16.0612   21.2650 C   0  0  0  0  0  0  0  0  0  0  0  0
    7.6267  -16.8682   20.7139 C   0  0  0  0  0  0  0  0  0  0  0  0
    6.3700  -16.0549   20.8333 C   0  0  0  0  0  0  0  0  0  0  0  0
    6.8244  -14.6830   21.3507 C   0  0  1  0  0  0  0  0  0  0  0  0
    8.0576  -15.0550   22.1032 C   0  0  0  0  0  0  0  0  0  0  0  0
    7.8258  -15.5267   23.4822 O   0  0  0  0  0  0  0  0  0  0  0  0
    7.9321  -16.7618   23.6950 C   0  0  0  0  0  0  0  0  0  0  0  0
    8.5650  -12.1095   26.7442 C   0  0  1  0  0  0  0  0  0  0  0  0
    7.1961  -12.5818   26.2309 C   0  0  0  0  0  0  0  0  0  0  0  0
    6.1830  -11.5914   26.7979 C   0  0  0  0  0  0  0  0  0  0  0  0
    6.9967  -13.9583   26.7729 C   0  0  2  0  0  0  0  0  0  0  0  0
    7.6203  -15.0592   25.9722 N   0  0  0  0  0  0  0  0  0  0  0  0
    7.4945  -14.6936   24.5734 C   0  0  0  0  0  0  0  0  0  0  0  0
    6.9839  -16.3784   26.2370 O   0  0  0  0  0  0  0  0  0  0  0  0
    6.0963  -16.8736   25.4765 O   0  0  0  0  0  0  0  0  0  0  0  0
  2  1  1  0
  3  2  2  0
  4  2  1  0
  5  6  1  0
  5  4  1  0
  6  7  1  0
  7  8  1  0
  8  9  1  1
 10  8  1  0
 11 10  2  0
 12 10  1  0
 12 16  1  0
 13 14  1  0
 13 12  1  0
 14 15  1  0
 15 16  1  0
 16 17  1  1
 17 18  2  0
 20 19  1  6
 20 22  1  0
 21 20  1  0
 23 22  1  1
 23 24  1  0
 24 17  1  0
 25 23  1  0
 25 27  1  0
 26 25  2  0
M  END
$$$$
