RPL.pdb
     RDKit          3D

 27 27  0  0  1  0  0  0  0  0999 V2000
    9.8180  -11.6334   19.1881 N   0  0  0  0  0  0  0  0  0  0  0  0
    8.9620  -12.7164   18.8644 C   0  0  0  0  0  0  0  0  0  0  0  0
    9.3066  -13.5845   17.9783 N   0  0  0  0  0  0  0  0  0  0  0  0
    7.7086  -12.8567   19.5178 N   0  0  0  0  0  0  0  0  0  0  0  0
    7.5185  -13.7706   20.6320 C   0  0  0  0  0  0  0  0  0  0  0  0
    6.7009  -14.9910   20.1905 C   0  0  0  0  0  0  0  0  0  0  0  0
    7.5177  -16.2216   20.4998 C   0  0  0  0  0  0  0  0  0  0  0  0
    6.7183  -17.2670   21.2518 C   0  0  2  0  0  0  0  0  0  0  0  0
    5.3930  -17.4319   20.7293 N   0  0  0  0  0  0  0  0  0  0  0  0
    6.8238  -17.1212   22.7003 C   0  0  0  0  0  0  0  0  0  0  0  0
    5.8682  -16.5069   23.2727 O   0  0  0  0  0  0  0  0  0  0  0  0
    8.6690  -14.3460   17.7072 N   0  0  0  0  0  0  0  0  0  0  0  0
    7.8848  -17.5938   23.5340 C   0  0  0  0  0  0  0  0  0  0  0  0
    9.0793  -18.2371   23.0851 C   0  0  0  0  0  0  0  0  0  0  0  0
    9.6303  -18.9617   24.2795 C   0  0  0  0  0  0  0  0  0  0  0  0
    8.5708  -18.7943   25.3776 C   0  0  1  0  0  0  0  0  0  0  0  0
    7.9432  -17.5021   24.9754 C   0  0  0  0  0  0  0  0  0  0  0  0
    8.6531  -16.2949   25.4408 O   0  0  0  0  0  0  0  0  0  0  0  0
    9.7172  -15.9859   24.8456 C   0  0  0  0  0  0  0  0  0  0  0  0
    7.6077  -12.3760   25.1843 C   0  0  2  0  0  0  0  0  0  0  0  0
    6.9500  -13.0664   26.3889 C   0  0  0  0  0  0  0  0  0  0  0  0
    5.8877  -12.0917   26.8889 C   0  0  0  0  0  0  0  0  0  0  0  0
    8.0330  -13.2780   27.3943 C   0  0  2  0  0  0  0  0  0  0  0  0
    8.9949  -14.3810   27.0781 N   0  0  0  0  0  0  0  0  0  0  0  0
    8.2242  -15.4672   26.5017 C   0  0  0  0  0  0  0  0  0  0  0  0
    9.7425  -14.8385   28.2812 O   0  0  0  0  0  0  0  0  0  0  0  0
   10.6235  -14.1238   28.8506 O   0  0  0  0  0  0  0  0  0  0  0  0
  2  1  1  0
  3  2  2  0
  4  2  1  0
  5  6  1  0
  5  4  1  0
  6  7  1  0
  7  8  1  0
  8  9  1  6
 10  8  1  0
 11 10  2  0
 12 10  1  0
 12 16  1  0
 13 14  1  0
 13 12  1  0
 14 15  1  0
 15 16  1  0
 16 17  1  1
 17 18  2  0
 20 19  1  6
 20 22  1  0
 21 20  1  0
 23 22  1  6
 23 24  1  0
 24 17  1  0
 25 23  1  0
 25 27  1  0
 26 25  2  0
M  END
$$$$
