RPL.pdb
     RDKit          3D

 27 27  0  0  1  0  0  0  0  0999 V2000
    6.0830  -20.9227   26.7030 N   0  0  0  0  0  0  0  0  0  0  0  0
    7.1552  -21.0160   25.7799 C   0  0  0  0  0  0  0  0  0  0  0  0
    7.9711  -22.0111   25.8186 N   0  0  0  0  0  0  0  0  0  0  0  0
    7.3417  -20.0077   24.7971 N   0  0  0  0  0  0  0  0  0  0  0  0
    8.0516  -20.2644   23.5549 C   0  0  0  0  0  0  0  0  0  0  0  0
    8.0850  -19.0009   22.6858 C   0  0  0  0  0  0  0  0  0  0  0  0
    8.8449  -19.3357   21.4258 C   0  0  0  0  0  0  0  0  0  0  0  0
    8.9446  -18.1522   20.4840 C   0  0  2  0  0  0  0  0  0  0  0  0
    9.7859  -18.4145   19.3527 N   0  0  0  0  0  0  0  0  0  0  0  0
    9.1846  -16.8946   21.1849 C   0  0  0  0  0  0  0  0  0  0  0  0
   10.3724  -16.7007   21.5971 O   0  0  0  0  0  0  0  0  0  0  0  0
    8.7256  -22.1043   25.1243 N   0  0  0  0  0  0  0  0  0  0  0  0
    8.2273  -15.8674   21.4540 C   0  0  0  0  0  0  0  0  0  0  0  0
    6.8448  -15.8959   21.0931 C   0  0  0  0  0  0  0  0  0  0  0  0
    6.3792  -14.4687   21.1345 C   0  0  0  0  0  0  0  0  0  0  0  0
    7.6438  -13.6388   21.3961 C   0  0  2  0  0  0  0  0  0  0  0  0
    8.4823  -14.6218   22.1416 C   0  0  0  0  0  0  0  0  0  0  0  0
    8.2056  -14.7035   23.5889 O   0  0  0  0  0  0  0  0  0  0  0  0
    7.1576  -15.3019   23.9431 C   0  0  0  0  0  0  0  0  0  0  0  0
    7.8279  -11.5192   26.5304 C   0  0  1  0  0  0  0  0  0  0  0  0
    6.9976  -12.5537   25.7555 C   0  0  0  0  0  0  0  0  0  0  0  0
    5.5402  -12.2197   26.0608 C   0  0  0  0  0  0  0  0  0  0  0  0
    7.3890  -13.8915   26.2898 C   0  0  2  0  0  0  0  0  0  0  0  0
    8.8055  -14.2982   26.0254 N   0  0  0  0  0  0  0  0  0  0  0  0
    9.0301  -14.1596   24.5985 C   0  0  0  0  0  0  0  0  0  0  0  0
    9.0858  -15.6889   26.4760 O   0  0  0  0  0  0  0  0  0  0  0  0
    8.7343  -16.7079   25.8056 O   0  0  0  0  0  0  0  0  0  0  0  0
  2  1  1  0
  3  2  2  0
  4  2  1  0
  5  6  1  0
  5  4  1  0
  6  7  1  0
  7  8  1  0
  8  9  1  6
 10  8  1  0
 11 10  2  0
 12 10  1  0
 12 16  1  0
 13 14  1  0
 13 12  1  0
 14 15  1  0
 15 16  1  0
 16 17  1  1
 17 18  2  0
 20 19  1  6
 20 22  1  0
 21 20  1  0
 23 22  1  1
 23 24  1  0
 24 17  1  0
 25 23  1  0
 25 27  1  0
 26 25  2  0
M  END
$$$$
