RPL.pdb
     RDKit          3D

 27 27  0  0  1  0  0  0  0  0999 V2000
   10.6948  -20.3868   17.0598 N   0  0  0  0  0  0  0  0  0  0  0  0
   12.0306  -19.9124   17.0275 C   0  0  0  0  0  0  0  0  0  0  0  0
   12.5517  -19.4901   15.9286 N   0  0  0  0  0  0  0  0  0  0  0  0
   12.8124  -19.8972   18.2132 N   0  0  0  0  0  0  0  0  0  0  0  0
   12.5681  -18.9465   19.2851 C   0  0  0  0  0  0  0  0  0  0  0  0
   12.3990  -17.5312   18.7181 C   0  0  0  0  0  0  0  0  0  0  0  0
   12.1440  -16.6032   19.8804 C   0  0  0  0  0  0  0  0  0  0  0  0
   11.9940  -15.1604   19.4406 C   0  0  2  0  0  0  0  0  0  0  0  0
   13.2520  -14.5378   19.1467 N   0  0  0  0  0  0  0  0  0  0  0  0
   11.0873  -14.4027   20.2975 C   0  0  0  0  0  0  0  0  0  0  0  0
   11.6324  -13.6949   21.2031 O   0  0  0  0  0  0  0  0  0  0  0  0
   13.5056  -19.1034   15.9093 N   0  0  0  0  0  0  0  0  0  0  0  0
    9.6597  -14.3769   20.2235 C   0  0  0  0  0  0  0  0  0  0  0  0
    8.8542  -15.1365   19.3200 C   0  0  0  0  0  0  0  0  0  0  0  0
    7.5221  -14.4445   19.2749 C   0  0  0  0  0  0  0  0  0  0  0  0
    7.7041  -13.1640   20.1016 C   0  0  1  0  0  0  0  0  0  0  0  0
    8.7764  -13.5849   21.0493 C   0  0  0  0  0  0  0  0  0  0  0  0
    8.3018  -14.3165   22.2398 O   0  0  0  0  0  0  0  0  0  0  0  0
    8.6491  -15.5200   22.3539 C   0  0  0  0  0  0  0  0  0  0  0  0
    5.5911  -12.2322   27.3399 C   0  0  1  0  0  0  0  0  0  0  0  0
    6.9213  -12.8118   26.8351 C   0  0  0  0  0  0  0  0  0  0  0  0
    7.9947  -11.8261   27.2879 C   0  0  0  0  0  0  0  0  0  0  0  0
    6.8132  -12.8773   25.3477 C   0  0  2  0  0  0  0  0  0  0  0  0
    7.7917  -13.7881   24.6732 N   0  0  0  0  0  0  0  0  0  0  0  0
    7.4893  -13.7636   23.2541 C   0  0  0  0  0  0  0  0  0  0  0  0
    7.7295  -15.1762   25.2069 O   0  0  0  0  0  0  0  0  0  0  0  0
    6.7898  -15.9785   24.9158 O   0  0  0  0  0  0  0  0  0  0  0  0
  2  1  1  0
  3  2  2  0
  4  2  1  0
  5  6  1  0
  5  4  1  0
  6  7  1  0
  7  8  1  0
  8  9  1  1
 10  8  1  0
 11 10  2  0
 12 10  1  0
 12 16  1  0
 13 14  1  0
 13 12  1  0
 14 15  1  0
 15 16  1  0
 16 17  1  1
 17 18  2  0
 20 19  1  1
 20 22  1  0
 21 20  1  0
 23 22  1  6
 23 24  1  0
 24 17  1  0
 25 23  1  0
 25 27  1  0
 26 25  2  0
M  END
$$$$
