RPL.pdb
     RDKit          3D

 27 27  0  0  1  0  0  0  0  0999 V2000
    4.7745  -21.1541   24.7878 N   0  0  0  0  0  0  0  0  0  0  0  0
    6.1917  -21.1635   24.7428 C   0  0  0  0  0  0  0  0  0  0  0  0
    6.8716  -21.8582   25.5869 N   0  0  0  0  0  0  0  0  0  0  0  0
    6.8804  -20.4031   23.7606 N   0  0  0  0  0  0  0  0  0  0  0  0
    6.1887  -19.4811   22.8750 C   0  0  0  0  0  0  0  0  0  0  0  0
    7.1826  -18.8077   21.9201 C   0  0  0  0  0  0  0  0  0  0  0  0
    6.3845  -17.9802   20.9426 C   0  0  0  0  0  0  0  0  0  0  0  0
    7.2657  -17.2947   19.9174 C   0  0  2  0  0  0  0  0  0  0  0  0
    7.7759  -18.2021   18.9310 N   0  0  0  0  0  0  0  0  0  0  0  0
    8.2395  -16.3935   20.5256 C   0  0  0  0  0  0  0  0  0  0  0  0
    9.4256  -16.8406   20.6338 O   0  0  0  0  0  0  0  0  0  0  0  0
    7.8943  -21.9403   25.5030 N   0  0  0  0  0  0  0  0  0  0  0  0
    7.9970  -15.0702   21.0095 C   0  0  0  0  0  0  0  0  0  0  0  0
    6.7209  -14.4337   21.1033 C   0  0  0  0  0  0  0  0  0  0  0  0
    7.0010  -12.9609   21.1895 C   0  0  0  0  0  0  0  0  0  0  0  0
    8.5160  -12.8251   20.9830 C   0  0  2  0  0  0  0  0  0  0  0  0
    8.9939  -14.1425   21.4942 C   0  0  0  0  0  0  0  0  0  0  0  0
    9.1739  -14.2133   22.9572 O   0  0  0  0  0  0  0  0  0  0  0  0
   10.1993  -13.6673   23.4394 C   0  0  0  0  0  0  0  0  0  0  0  0
    7.9580  -12.0881   26.3213 C   0  0  2  0  0  0  0  0  0  0  0  0
    6.9432  -12.9592   25.5651 C   0  0  0  0  0  0  0  0  0  0  0  0
    5.5716  -12.5212   26.0708 C   0  0  0  0  0  0  0  0  0  0  0  0
    7.2491  -14.3737   25.9311 C   0  0  2  0  0  0  0  0  0  0  0  0
    8.4682  -14.9541   25.2840 N   0  0  0  0  0  0  0  0  0  0  0  0
    8.2811  -14.8478   23.8489 C   0  0  0  0  0  0  0  0  0  0  0  0
    8.7010  -16.3679   25.6873 O   0  0  0  0  0  0  0  0  0  0  0  0
    8.4664  -17.3464   24.9135 O   0  0  0  0  0  0  0  0  0  0  0  0
  2  1  1  0
  3  2  2  0
  4  2  1  0
  5  6  1  0
  5  4  1  0
  6  7  1  0
  7  8  1  0
  8  9  1  1
 10  8  1  0
 11 10  2  0
 12 10  1  0
 12 16  1  0
 13 14  1  0
 13 12  1  0
 14 15  1  0
 15 16  1  0
 16 17  1  1
 17 18  2  0
 20 19  1  6
 20 22  1  0
 21 20  1  0
 23 22  1  1
 23 24  1  0
 24 17  1  0
 25 23  1  0
 25 27  1  0
 26 25  2  0
M  END
$$$$
