RPL.pdb
     RDKit          3D

 27 27  0  0  1  0  0  0  0  0999 V2000
    5.5681  -21.5858   17.9790 N   0  0  0  0  0  0  0  0  0  0  0  0
    5.2426  -20.2063   17.9398 C   0  0  0  0  0  0  0  0  0  0  0  0
    4.7555  -19.6761   16.8726 N   0  0  0  0  0  0  0  0  0  0  0  0
    5.4510  -19.3901   19.0833 N   0  0  0  0  0  0  0  0  0  0  0  0
    6.4732  -19.6940   20.0710 C   0  0  0  0  0  0  0  0  0  0  0  0
    7.8222  -19.0999   19.6463 C   0  0  0  0  0  0  0  0  0  0  0  0
    7.8605  -17.6698   20.1265 C   0  0  0  0  0  0  0  0  0  0  0  0
    9.1751  -16.9897   19.7998 C   0  0  2  0  0  0  0  0  0  0  0  0
   10.2199  -17.9230   19.4935 N   0  0  0  0  0  0  0  0  0  0  0  0
    9.5143  -15.9355   20.7506 C   0  0  0  0  0  0  0  0  0  0  0  0
   10.6879  -15.9784   21.2398 O   0  0  0  0  0  0  0  0  0  0  0  0
    4.5791  -18.6633   16.8177 N   0  0  0  0  0  0  0  0  0  0  0  0
    8.6674  -14.8688   21.1855 C   0  0  0  0  0  0  0  0  0  0  0  0
    7.2904  -14.7000   20.8426 C   0  0  0  0  0  0  0  0  0  0  0  0
    6.9746  -13.2558   21.1067 C   0  0  0  0  0  0  0  0  0  0  0  0
    8.3174  -12.6096   21.4749 C   0  0  1  0  0  0  0  0  0  0  0  0
    9.0478  -13.7756   22.0512 C   0  0  0  0  0  0  0  0  0  0  0  0
    8.7603  -14.0484   23.4727 O   0  0  0  0  0  0  0  0  0  0  0  0
    9.1266  -13.1855   24.3113 C   0  0  0  0  0  0  0  0  0  0  0  0
    7.9276  -12.7833   26.8864 C   0  0  2  0  0  0  0  0  0  0  0  0
    7.0599  -13.0285   25.6425 C   0  0  0  0  0  0  0  0  0  0  0  0
    5.8597  -12.0979   25.7913 C   0  0  0  0  0  0  0  0  0  0  0  0
    6.6618  -14.4666   25.6852 C   0  0  2  0  0  0  0  0  0  0  0  0
    7.7439  -15.4420   25.3396 N   0  0  0  0  0  0  0  0  0  0  0  0
    8.1069  -15.2039   23.9549 C   0  0  0  0  0  0  0  0  0  0  0  0
    7.3162  -16.8531   25.5429 O   0  0  0  0  0  0  0  0  0  0  0  0
    6.9225  -17.2924   26.6668 O   0  0  0  0  0  0  0  0  0  0  0  0
  2  1  1  0
  3  2  2  0
  4  2  1  0
  5  6  1  0
  5  4  1  0
  6  7  1  0
  7  8  1  0
  8  9  1  1
 10  8  1  0
 11 10  2  0
 12 10  1  0
 12 16  1  0
 13 14  1  0
 13 12  1  0
 14 15  1  0
 15 16  1  0
 16 17  1  1
 17 18  2  0
 20 19  1  6
 20 22  1  0
 21 20  1  0
 23 22  1  1
 23 24  1  0
 24 17  1  0
 25 23  1  0
 25 27  1  0
 26 25  2  0
M  END
$$$$
