THT.pdb
     RDKit          3D

 25 25  0  0  1  0  0  0  0  0999 V2000
    8.5579  -12.3384   20.4429 C   0  0  0  0  0  0  0  0  0  0  0  0
    8.1272  -13.0610   19.2014 C   0  0  1  0  0  0  0  0  0  0  0  0
    8.4901  -12.3606   18.0546 O   0  0  0  0  0  0  0  0  0  0  0  0
    8.6816  -14.4530   19.1096 C   0  0  2  0  0  0  0  0  0  0  0  0
    8.3286  -15.1473   17.9122 N   0  0  0  0  0  0  0  0  0  0  0  0
    8.2840  -15.2109   20.3358 C   0  0  0  0  0  0  0  0  0  0  0  0
    7.1678  -15.7752   20.4566 O   0  0  0  0  0  0  0  0  0  0  0  0
    9.1793  -15.3097   21.4107 N   0  0  0  0  0  0  0  0  0  0  0  0
    8.8246  -16.1361   22.5948 C   0  0  1  0  0  0  0  0  0  0  0  0
    9.8875  -17.1552   22.7733 C   0  0  0  0  0  0  0  0  0  0  0  0
    9.8518  -18.3737   21.9859 C   0  0  0  0  0  0  0  0  0  0  0  0
    8.8549  -18.7332   21.0565 C   0  0  0  0  0  0  0  0  0  0  0  0
    9.1505  -19.9195   20.5225 N   0  0  0  0  0  0  0  0  0  0  0  0
   10.2996  -20.3256   21.0801 C   0  0  0  0  0  0  0  0  0  0  0  0
   10.6983  -19.3885   21.9485 N   0  0  0  0  0  0  0  0  0  0  0  0
    8.8804  -15.1516   23.7094 C   0  0  0  0  0  0  0  0  0  0  0  0
    9.8530  -14.2953   23.6595 O   0  0  0  0  0  0  0  0  0  0  0  0
    6.4175  -12.5929   24.9518 C   0  0  0  0  0  0  0  0  0  0  0  0
    6.8547  -13.4349   26.1105 C   0  0  1  0  0  0  0  0  0  0  0  0
    5.9212  -14.4876   26.2451 O   0  0  0  0  0  0  0  0  0  0  0  0
    8.2216  -14.0355   25.8246 C   0  0  2  0  0  0  0  0  0  0  0  0
    8.0009  -15.0528   24.7864 N   0  0  0  0  0  0  0  0  0  0  0  0
    8.8131  -14.6508   27.0262 C   0  0  0  0  0  0  0  0  0  0  0  0
    9.1598  -13.8970   28.1136 O   0  0  0  0  0  0  0  0  0  0  0  0
    9.0054  -15.8935   27.0581 O   0  0  0  0  0  0  0  0  0  0  0  0
  2  1  1  1
  3  2  1  0
  4  2  1  0
  4  5  1  6
  4  6  1  0
  6  7  2  0
  8  6  1  0
  8  9  1  0
  9 16  1  0
 10 11  1  0
  9 10  1  1
 11 15  1  0
 12 11  2  0
 12 13  1  0
 13 14  1  0
 15 14  2  0
 16 17  2  0
 19 18  1  6
 19 21  1  0
 20 19  1  0
 21 23  1  0
 22 16  1  0
 21 22  1  6
 23 25  2  0
 23 24  1  0
M  END
$$$$
