THT.pdb
     RDKit          3D

 25 25  0  0  1  0  0  0  0  0999 V2000
   10.1578  -13.7608   18.5906 C   0  0  0  0  0  0  0  0  0  0  0  0
    9.4785  -13.9825   19.9090 C   0  0  1  0  0  0  0  0  0  0  0  0
    9.4600  -12.8189   20.6727 O   0  0  0  0  0  0  0  0  0  0  0  0
    8.0717  -14.4866   19.7677 C   0  0  2  0  0  0  0  0  0  0  0  0
    7.2112  -13.6235   19.0226 N   0  0  0  0  0  0  0  0  0  0  0  0
    7.5278  -14.7828   21.1287 C   0  0  0  0  0  0  0  0  0  0  0  0
    6.5217  -14.1982   21.6030 O   0  0  0  0  0  0  0  0  0  0  0  0
    8.1510  -15.7513   21.9289 N   0  0  0  0  0  0  0  0  0  0  0  0
    7.5081  -16.1886   23.1962 C   0  0  1  0  0  0  0  0  0  0  0  0
    7.9795  -17.5630   23.4950 C   0  0  0  0  0  0  0  0  0  0  0  0
    7.6337  -18.1797   24.7623 C   0  0  0  0  0  0  0  0  0  0  0  0
    6.6456  -17.7314   25.6621 C   0  0  0  0  0  0  0  0  0  0  0  0
    6.6051  -18.5432   26.7199 N   0  0  0  0  0  0  0  0  0  0  0  0
    7.5324  -19.4908   26.5235 C   0  0  0  0  0  0  0  0  0  0  0  0
    8.1322  -19.2535   25.3508 N   0  0  0  0  0  0  0  0  0  0  0  0
    8.0696  -15.2372   24.1932 C   0  0  0  0  0  0  0  0  0  0  0  0
    9.3046  -14.8875   24.0083 O   0  0  0  0  0  0  0  0  0  0  0  0
    6.5417  -11.8937   25.4254 C   0  0  0  0  0  0  0  0  0  0  0  0
    7.0021  -12.7240   26.5836 C   0  0  1  0  0  0  0  0  0  0  0  0
    5.8935  -13.4777   27.0315 O   0  0  0  0  0  0  0  0  0  0  0  0
    8.0878  -13.6859   26.1290 C   0  0  2  0  0  0  0  0  0  0  0  0
    7.4098  -14.6848   25.2899 N   0  0  0  0  0  0  0  0  0  0  0  0
    8.7527  -14.3419   27.2692 C   0  0  0  0  0  0  0  0  0  0  0  0
    9.4767  -13.6226   28.1798 O   0  0  0  0  0  0  0  0  0  0  0  0
    8.6560  -15.5877   27.4128 O   0  0  0  0  0  0  0  0  0  0  0  0
  2  1  1  6
  3  2  1  0
  4  2  1  0
  4  5  1  1
  4  6  1  0
  6  7  2  0
  8  6  1  0
  8  9  1  0
  9 16  1  0
 10 11  1  0
  9 10  1  1
 11 15  1  0
 12 11  2  0
 12 13  1  0
 13 14  1  0
 15 14  2  0
 16 17  2  0
 19 18  1  6
 19 21  1  0
 20 19  1  0
 21 23  1  0
 22 16  1  0
 21 22  1  6
 23 25  2  0
 23 24  1  0
M  END
$$$$
