THT.pdb
     RDKit          3D

 25 25  0  0  1  0  0  0  0  0999 V2000
    9.0516  -21.3667   17.5420 C   0  0  0  0  0  0  0  0  0  0  0  0
    9.7175  -20.2197   18.2420 C   0  0  1  0  0  0  0  0  0  0  0  0
   11.0998  -20.2619   18.0839 O   0  0  0  0  0  0  0  0  0  0  0  0
    9.2216  -18.8808   17.7787 C   0  0  2  0  0  0  0  0  0  0  0  0
    9.3955  -18.6424   16.3810 N   0  0  0  0  0  0  0  0  0  0  0  0
    9.8594  -17.8165   18.6132 C   0  0  0  0  0  0  0  0  0  0  0  0
   10.8223  -17.1181   18.2084 O   0  0  0  0  0  0  0  0  0  0  0  0
    9.3789  -17.5690   19.9073 N   0  0  0  0  0  0  0  0  0  0  0  0
    9.9613  -16.4637   20.7134 C   0  0  1  0  0  0  0  0  0  0  0  0
    8.8424  -15.6347   21.2244 C   0  0  0  0  0  0  0  0  0  0  0  0
    8.2556  -14.6180   20.3711 C   0  0  0  0  0  0  0  0  0  0  0  0
    8.7072  -14.2488   19.0879 C   0  0  0  0  0  0  0  0  0  0  0  0
    7.9264  -13.2823   18.6019 N   0  0  0  0  0  0  0  0  0  0  0  0
    6.9955  -13.0252   19.5311 C   0  0  0  0  0  0  0  0  0  0  0  0
    7.2118  -13.8331   20.5760 N   0  0  0  0  0  0  0  0  0  0  0  0
   10.6068  -17.1871   21.8424 C   0  0  0  0  0  0  0  0  0  0  0  0
    9.8471  -18.0118   22.4939 O   0  0  0  0  0  0  0  0  0  0  0  0
   12.5921  -19.7723   21.7085 C   0  0  0  0  0  0  0  0  0  0  0  0
   13.3619  -18.9352   22.6828 C   0  0  1  0  0  0  0  0  0  0  0  0
   14.3400  -18.2247   21.9504 O   0  0  0  0  0  0  0  0  0  0  0  0
   12.4331  -17.9318   23.3471 C   0  0  2  0  0  0  0  0  0  0  0  0
   11.9311  -17.0748   22.2631 N   0  0  0  0  0  0  0  0  0  0  0  0
   13.1343  -17.1202   24.3580 C   0  0  0  0  0  0  0  0  0  0  0  0
   13.3294  -15.7779   24.1815 O   0  0  0  0  0  0  0  0  0  0  0  0
   13.5640  -17.6672   25.4059 O   0  0  0  0  0  0  0  0  0  0  0  0
  2  1  1  6
  3  2  1  0
  4  2  1  0
  4  5  1  6
  4  6  1  0
  6  7  2  0
  8  6  1  0
  8  9  1  0
  9 16  1  0
 10 11  1  0
  9 10  1  1
 11 15  1  0
 12 11  2  0
 12 13  1  0
 13 14  1  0
 15 14  2  0
 16 17  2  0
 19 18  1  6
 19 21  1  0
 20 19  1  0
 21 23  1  0
 22 16  1  0
 21 22  1  6
 23 25  2  0
 23 24  1  0
M  END
$$$$
