THT.pdb
     RDKit          3D

 25 25  0  0  1  0  0  0  0  0999 V2000
   15.6628  -28.7733   29.4640 C   0  0  0  0  0  0  0  0  0  0  0  0
   14.9532  -27.4850   29.1713 C   0  0  1  0  0  0  0  0  0  0  0  0
   15.8448  -26.4935   28.7722 O   0  0  0  0  0  0  0  0  0  0  0  0
   13.8896  -27.6255   28.1214 C   0  0  2  0  0  0  0  0  0  0  0  0
   14.3750  -28.0545   26.8483 N   0  0  0  0  0  0  0  0  0  0  0  0
   13.1321  -26.3396   28.0290 C   0  0  0  0  0  0  0  0  0  0  0  0
   13.1556  -25.6062   27.0091 O   0  0  0  0  0  0  0  0  0  0  0  0
   12.3546  -25.9132   29.1155 N   0  0  0  0  0  0  0  0  0  0  0  0
   11.5198  -24.6890   28.9920 C   0  0  1  0  0  0  0  0  0  0  0  0
   10.1634  -25.0101   29.4992 C   0  0  0  0  0  0  0  0  0  0  0  0
    9.0995  -25.3121   28.5595 C   0  0  0  0  0  0  0  0  0  0  0  0
    9.1765  -25.2072   27.1560 C   0  0  0  0  0  0  0  0  0  0  0  0
    8.0099  -25.5667   26.6177 N   0  0  0  0  0  0  0  0  0  0  0  0
    7.1954  -25.8960   27.6298 C   0  0  0  0  0  0  0  0  0  0  0  0
    7.8665  -25.7364   28.7768 N   0  0  0  0  0  0  0  0  0  0  0  0
   12.1916  -23.7398   29.9207 C   0  0  0  0  0  0  0  0  0  0  0  0
   12.7411  -24.2683   30.9697 O   0  0  0  0  0  0  0  0  0  0  0  0
   14.8265  -21.1189   29.0593 C   0  0  0  0  0  0  0  0  0  0  0  0
   13.7789  -20.4974   29.9305 C   0  0  1  0  0  0  0  0  0  0  0  0
   12.8283  -19.8880   29.0805 O   0  0  0  0  0  0  0  0  0  0  0  0
   13.0791  -21.5744   30.7435 C   0  0  2  0  0  0  0  0  0  0  0  0
   12.2948  -22.3571   29.7772 N   0  0  0  0  0  0  0  0  0  0  0  0
   12.1951  -20.9981   31.7726 C   0  0  0  0  0  0  0  0  0  0  0  0
   12.7030  -20.3359   32.8562 O   0  0  0  0  0  0  0  0  0  0  0  0
   10.9480  -21.1145   31.6573 O   0  0  0  0  0  0  0  0  0  0  0  0
  2  1  1  6
  3  2  1  0
  4  2  1  0
  4  5  1  6
  4  6  1  0
  6  7  2  0
  8  6  1  0
  8  9  1  0
  9 16  1  0
 10 11  1  0
  9 10  1  1
 11 15  1  0
 12 11  2  0
 12 13  1  0
 13 14  1  0
 15 14  2  0
 16 17  2  0
 19 18  1  6
 19 21  1  0
 20 19  1  0
 21 23  1  0
 22 16  1  0
 21 22  1  6
 23 25  2  0
 23 24  1  0
M  END
$$$$
