THT.pdb
     RDKit          3D

 25 25  0  0  1  0  0  0  0  0999 V2000
   10.8059  -20.5598   19.7411 C   0  0  0  0  0  0  0  0  0  0  0  0
   11.1083  -20.0582   18.3605 C   0  0  1  0  0  0  0  0  0  0  0  0
   10.8960  -21.0465   17.4035 O   0  0  0  0  0  0  0  0  0  0  0  0
   10.3048  -18.8468   17.9864 C   0  0  2  0  0  0  0  0  0  0  0  0
   10.4599  -18.4367   16.6269 N   0  0  0  0  0  0  0  0  0  0  0  0
   10.6224  -17.7440   18.9450 C   0  0  0  0  0  0  0  0  0  0  0  0
   11.7173  -17.1276   18.9366 O   0  0  0  0  0  0  0  0  0  0  0  0
    9.6725  -17.3638   19.9041 N   0  0  0  0  0  0  0  0  0  0  0  0
    9.9724  -16.2479   20.8398 C   0  0  1  0  0  0  0  0  0  0  0  0
    8.7092  -15.5116   21.0896 C   0  0  0  0  0  0  0  0  0  0  0  0
    8.2494  -14.5291   20.1256 C   0  0  0  0  0  0  0  0  0  0  0  0
    8.9340  -14.1235   18.9621 C   0  0  0  0  0  0  0  0  0  0  0  0
    8.2116  -13.2059   18.3172 N   0  0  0  0  0  0  0  0  0  0  0  0
    7.0930  -13.0147   19.0302 C   0  0  0  0  0  0  0  0  0  0  0  0
    7.1379  -13.8138   20.1029 N   0  0  0  0  0  0  0  0  0  0  0  0
   10.3908  -16.9616   22.0768 C   0  0  0  0  0  0  0  0  0  0  0  0
    9.4506  -17.5874   22.7142 O   0  0  0  0  0  0  0  0  0  0  0  0
   12.2046  -19.8619   22.5655 C   0  0  0  0  0  0  0  0  0  0  0  0
   12.8786  -18.8937   23.4880 C   0  0  1  0  0  0  0  0  0  0  0  0
   13.9710  -18.3325   22.7884 O   0  0  0  0  0  0  0  0  0  0  0  0
   11.9157  -17.7764   23.8558 C   0  0  2  0  0  0  0  0  0  0  0  0
   11.6763  -17.0307   22.6115 N   0  0  0  0  0  0  0  0  0  0  0  0
   12.4771  -16.8849   24.8866 C   0  0  0  0  0  0  0  0  0  0  0  0
   12.6908  -17.3222   26.1648 O   0  0  0  0  0  0  0  0  0  0  0  0
   12.7672  -15.6973   24.5908 O   0  0  0  0  0  0  0  0  0  0  0  0
  2  1  1  1
  3  2  1  0
  4  2  1  0
  4  5  1  6
  4  6  1  0
  6  7  2  0
  8  6  1  0
  8  9  1  0
  9 16  1  0
 10 11  1  0
  9 10  1  1
 11 15  1  0
 12 11  2  0
 12 13  1  0
 13 14  1  0
 15 14  2  0
 16 17  2  0
 19 18  1  6
 19 21  1  0
 20 19  1  0
 21 23  1  0
 22 16  1  0
 21 22  1  6
 23 25  2  0
 23 24  1  0
M  END
$$$$
