THT.pdb
     RDKit          3D

 25 25  0  0  1  0  0  0  0  0999 V2000
    7.2198  -12.7444   19.5281 C   0  0  0  0  0  0  0  0  0  0  0  0
    7.7714  -14.1305   19.3747 C   0  0  1  0  0  0  0  0  0  0  0  0
    8.4373  -14.2805   18.1616 O   0  0  0  0  0  0  0  0  0  0  0  0
    8.7036  -14.5181   20.4855 C   0  0  2  0  0  0  0  0  0  0  0  0
    9.5468  -15.6307   20.1824 N   0  0  0  0  0  0  0  0  0  0  0  0
    7.9035  -14.7425   21.7286 C   0  0  0  0  0  0  0  0  0  0  0  0
    6.9653  -13.9849   22.0817 O   0  0  0  0  0  0  0  0  0  0  0  0
    8.1947  -15.8397   22.5522 N   0  0  0  0  0  0  0  0  0  0  0  0
    7.3881  -16.0786   23.7781 C   0  0  1  0  0  0  0  0  0  0  0  0
    7.6384  -17.4713   24.2233 C   0  0  0  0  0  0  0  0  0  0  0  0
    7.0924  -18.5773   23.4587 C   0  0  0  0  0  0  0  0  0  0  0  0
    6.2443  -18.4735   22.3377 C   0  0  0  0  0  0  0  0  0  0  0  0
    5.9429  -19.6945   21.8925 N   0  0  0  0  0  0  0  0  0  0  0  0
    6.5696  -20.5694   22.6912 C   0  0  0  0  0  0  0  0  0  0  0  0
    7.2480  -19.8806   23.6167 N   0  0  0  0  0  0  0  0  0  0  0  0
    7.9841  -15.1250   24.7529 C   0  0  0  0  0  0  0  0  0  0  0  0
    9.2535  -14.8970   24.6173 O   0  0  0  0  0  0  0  0  0  0  0  0
    6.9361  -11.5584   25.6633 C   0  0  0  0  0  0  0  0  0  0  0  0
    7.1155  -12.3657   26.9118 C   0  0  1  0  0  0  0  0  0  0  0  0
    5.8512  -12.8927   27.2606 O   0  0  0  0  0  0  0  0  0  0  0  0
    8.0641  -13.5232   26.6455 C   0  0  2  0  0  0  0  0  0  0  0  0
    7.3240  -14.4546   25.7815 N   0  0  0  0  0  0  0  0  0  0  0  0
    8.4727  -14.1961   27.8915 C   0  0  0  0  0  0  0  0  0  0  0  0
    8.1672  -15.5090   28.1236 O   0  0  0  0  0  0  0  0  0  0  0  0
    9.1152  -13.5553   28.7625 O   0  0  0  0  0  0  0  0  0  0  0  0
  2  1  1  1
  3  2  1  0
  4  2  1  0
  4  5  1  6
  4  6  1  0
  6  7  2  0
  8  6  1  0
  8  9  1  0
  9 16  1  0
 10 11  1  0
  9 10  1  1
 11 15  1  0
 12 11  2  0
 12 13  1  0
 13 14  1  0
 15 14  2  0
 16 17  2  0
 19 18  1  6
 19 21  1  0
 20 19  1  0
 21 23  1  0
 22 16  1  0
 21 22  1  6
 23 25  2  0
 23 24  1  0
M  END
$$$$
