THT.pdb
     RDKit          3D

 25 25  0  0  1  0  0  0  0  0999 V2000
   12.1500  -17.1156   20.1721 C   0  0  0  0  0  0  0  0  0  0  0  0
   10.9937  -16.6204   20.9885 C   0  0  1  0  0  0  0  0  0  0  0  0
   10.8253  -15.2457   20.8488 O   0  0  0  0  0  0  0  0  0  0  0  0
    9.6996  -17.3000   20.6470 C   0  0  2  0  0  0  0  0  0  0  0  0
    9.2994  -17.1490   19.2840 N   0  0  0  0  0  0  0  0  0  0  0  0
    8.6445  -16.8307   21.5969 C   0  0  0  0  0  0  0  0  0  0  0  0
    7.7397  -16.0237   21.2667 O   0  0  0  0  0  0  0  0  0  0  0  0
    8.6444  -17.2979   22.9193 N   0  0  0  0  0  0  0  0  0  0  0  0
    7.5301  -16.9313   23.8329 C   0  0  1  0  0  0  0  0  0  0  0  0
    7.2058  -18.1222   24.6557 C   0  0  0  0  0  0  0  0  0  0  0  0
    6.3571  -19.1634   24.1066 C   0  0  0  0  0  0  0  0  0  0  0  0
    5.7160  -19.1367   22.8515 C   0  0  0  0  0  0  0  0  0  0  0  0
    5.0207  -20.2626   22.6824 N   0  0  0  0  0  0  0  0  0  0  0  0
    5.1977  -21.0029   23.7855 C   0  0  0  0  0  0  0  0  0  0  0  0
    5.9974  -20.3275   24.6196 N   0  0  0  0  0  0  0  0  0  0  0  0
    8.1422  -15.8801   24.6901 C   0  0  0  0  0  0  0  0  0  0  0  0
    9.4355  -15.9068   24.7813 O   0  0  0  0  0  0  0  0  0  0  0  0
    7.2605  -11.9687   25.1912 C   0  0  0  0  0  0  0  0  0  0  0  0
    7.3388  -12.7522   26.4650 C   0  0  1  0  0  0  0  0  0  0  0  0
    6.0323  -13.1974   26.7693 O   0  0  0  0  0  0  0  0  0  0  0  0
    8.2295  -13.9682   26.2685 C   0  0  2  0  0  0  0  0  0  0  0  0
    7.4758  -14.8771   25.3925 N   0  0  0  0  0  0  0  0  0  0  0  0
    8.5425  -14.6320   27.5467 C   0  0  0  0  0  0  0  0  0  0  0  0
    9.1950  -13.9703   28.5502 O   0  0  0  0  0  0  0  0  0  0  0  0
    8.2052  -15.8307   27.7239 O   0  0  0  0  0  0  0  0  0  0  0  0
  2  1  1  6
  3  2  1  0
  4  2  1  0
  4  5  1  6
  4  6  1  0
  6  7  2  0
  8  6  1  0
  8  9  1  0
  9 16  1  0
 10 11  1  0
  9 10  1  1
 11 15  1  0
 12 11  2  0
 12 13  1  0
 13 14  1  0
 15 14  2  0
 16 17  2  0
 19 18  1  6
 19 21  1  0
 20 19  1  0
 21 23  1  0
 22 16  1  0
 21 22  1  6
 23 25  2  0
 23 24  1  0
M  END
$$$$
