THT.pdb
     RDKit          3D

 25 25  0  0  1  0  0  0  0  0999 V2000
    7.1740  -11.9701   18.7912 C   0  0  0  0  0  0  0  0  0  0  0  0
    8.2745  -12.9237   19.1499 C   0  0  1  0  0  0  0  0  0  0  0  0
    7.8984  -13.7632   20.1945 O   0  0  0  0  0  0  0  0  0  0  0  0
    8.7208  -13.7681   17.9918 C   0  0  2  0  0  0  0  0  0  0  0  0
    7.6769  -14.5325   17.3864 N   0  0  0  0  0  0  0  0  0  0  0  0
    9.8614  -14.6276   18.4347 C   0  0  0  0  0  0  0  0  0  0  0  0
    9.7487  -15.8642   18.6271 O   0  0  0  0  0  0  0  0  0  0  0  0
   11.1212  -14.0508   18.6511 N   0  0  0  0  0  0  0  0  0  0  0  0
   12.2877  -14.9181   18.9640 C   0  0  1  0  0  0  0  0  0  0  0  0
   13.5193  -14.1637   18.6259 C   0  0  0  0  0  0  0  0  0  0  0  0
   14.8144  -14.8005   18.7780 C   0  0  0  0  0  0  0  0  0  0  0  0
   15.0487  -16.0977   19.2773 C   0  0  0  0  0  0  0  0  0  0  0  0
   16.3593  -16.3469   19.2728 N   0  0  0  0  0  0  0  0  0  0  0  0
   16.9651  -15.2539   18.7884 C   0  0  0  0  0  0  0  0  0  0  0  0
   16.0245  -14.3462   18.5006 N   0  0  0  0  0  0  0  0  0  0  0  0
   12.1877  -15.0811   20.4398 C   0  0  0  0  0  0  0  0  0  0  0  0
   12.3475  -14.0014   21.1402 O   0  0  0  0  0  0  0  0  0  0  0  0
    9.4403  -16.0472   22.6860 C   0  0  0  0  0  0  0  0  0  0  0  0
   10.6015  -16.9417   22.9928 C   0  0  1  0  0  0  0  0  0  0  0  0
   10.4606  -18.1048   22.2022 O   0  0  0  0  0  0  0  0  0  0  0  0
   11.9000  -16.2511   22.6083 C   0  0  2  0  0  0  0  0  0  0  0  0
   11.9367  -16.2609   21.1385 N   0  0  0  0  0  0  0  0  0  0  0  0
   13.0767  -16.9510   23.1541 C   0  0  0  0  0  0  0  0  0  0  0  0
   13.3008  -17.0201   24.5016 O   0  0  0  0  0  0  0  0  0  0  0  0
   13.8944  -17.4974   22.3700 O   0  0  0  0  0  0  0  0  0  0  0  0
  2  1  1  6
  3  2  1  0
  4  2  1  0
  4  5  1  1
  4  6  1  0
  6  7  2  0
  8  6  1  0
  8  9  1  0
  9 16  1  0
 10 11  1  0
  9 10  1  1
 11 15  1  0
 12 11  2  0
 12 13  1  0
 13 14  1  0
 15 14  2  0
 16 17  2  0
 19 18  1  6
 19 21  1  0
 20 19  1  0
 21 23  1  0
 22 16  1  0
 21 22  1  6
 23 25  2  0
 23 24  1  0
M  END
$$$$
