IKD.pdb
     RDKit          3D

 26 25  0  0  1  0  0  0  0  0999 V2000
   18.2983  -27.4573  -11.4858 C   0  0  0  0  0  0  0  0  0  0  0  0
   19.5072  -27.5869  -10.5814 C   0  0  0  0  0  0  0  0  0  0  0  0
   19.8942  -29.0383  -10.3720 C   0  0  2  0  0  0  0  0  0  0  0  0
   18.7534  -29.7527   -9.7364 C   0  0  0  0  0  0  0  0  0  0  0  0
   21.1666  -29.0621   -9.5664 C   0  0  2  0  0  0  0  0  0  0  0  0
   22.1939  -28.3731  -10.2717 N   0  0  0  0  0  0  0  0  0  0  0  0
   21.6226  -30.4338   -9.2579 C   0  0  0  0  0  0  0  0  0  0  0  0
   20.8348  -31.2111   -8.6694 O   0  0  0  0  0  0  0  0  0  0  0  0
   22.9134  -30.8532   -9.6187 N   0  0  0  0  0  0  0  0  0  0  0  0
   23.4212  -32.2119   -9.3339 C   0  0  1  0  0  0  0  0  0  0  0  0
   24.5151  -32.5453  -10.2779 C   0  0  0  0  0  0  0  0  0  0  0  0
   25.1382  -33.8875  -10.0617 C   0  0  0  0  0  0  0  0  0  0  0  0
   26.2401  -34.1138  -11.0460 C   0  0  0  0  0  0  0  0  0  0  0  0
   26.8177  -35.4944  -10.8026 C   0  0  0  0  0  0  0  0  0  0  0  0
   27.8393  -35.7672  -11.7733 N   0  0  0  0  0  0  0  0  0  0  0  0
   23.8039  -32.1876   -7.9026 C   0  0  0  0  0  0  0  0  0  0  0  0
   24.3431  -31.1086   -7.4590 O   0  0  0  0  0  0  0  0  0  0  0  0
   23.6233  -33.2428   -6.9875 N   0  0  0  0  0  0  0  0  0  0  0  0
   24.0790  -33.0349   -5.5922 C   0  0  1  0  0  0  0  0  0  0  0  0
   22.9476  -33.3717   -4.6569 C   0  0  0  0  0  0  0  0  0  0  0  0
   23.3970  -33.3299   -3.2678 C   0  0  0  0  0  0  0  0  0  0  0  0
   24.3966  -32.6717   -2.9323 O   0  0  0  0  0  0  0  0  0  0  0  0
   25.2096  -33.9860   -5.3755 C   0  0  0  0  0  0  0  0  0  0  0  0
   25.2364  -35.0645   -6.0440 O   0  0  0  0  0  0  0  0  0  0  0  0
   22.7432  -34.0179   -2.2321 O   0  0  0  0  0  0  0  0  0  0  0  0
   26.2193  -33.7599   -4.4968 O   0  0  0  0  0  0  0  0  0  0  0  0
  1  2  1  0
  2  3  1  0
  3  4  1  1
  5  3  1  0
  5  6  1  6
  7  5  1  0
  8  7  2  0
  9  7  1  0
 10  9  1  0
 11 12  1  0
 10 11  1  6
 13 12  1  0
 13 14  1  0
 14 15  1  0
 16 10  1  0
 16 18  1  0
 17 16  2  0
 19 18  1  0
 19 20  1  1
 20 21  1  0
 21 22  2  0
 23 19  1  0
 24 23  2  0
 25 21  1  0
 26 23  1  0
M  END
$$$$
