IKD.pdb
     RDKit          3D

 26 25  0  0  1  0  0  0  0  0999 V2000
   16.6476  -14.5658  -16.5865 C   0  0  0  0  0  0  0  0  0  0  0  0
   18.1316  -14.4528  -16.8710 C   0  0  0  0  0  0  0  0  0  0  0  0
   18.7304  -13.2164  -16.2282 C   0  0  2  0  0  0  0  0  0  0  0  0
   17.9877  -12.0186  -16.7071 C   0  0  0  0  0  0  0  0  0  0  0  0
   20.2025  -13.2012  -16.5467 C   0  0  2  0  0  0  0  0  0  0  0  0
   20.7807  -14.4560  -16.2027 N   0  0  0  0  0  0  0  0  0  0  0  0
   20.9281  -12.1212  -15.8452 C   0  0  0  0  0  0  0  0  0  0  0  0
   20.9848  -12.1496  -14.5935 O   0  0  0  0  0  0  0  0  0  0  0  0
   21.5400  -11.0863  -16.5711 N   0  0  0  0  0  0  0  0  0  0  0  0
   22.2568   -9.9692  -15.9205 C   0  0  1  0  0  0  0  0  0  0  0  0
   23.6503   -9.9081  -16.4238 C   0  0  0  0  0  0  0  0  0  0  0  0
   24.5817  -10.9001  -15.8034 C   0  0  0  0  0  0  0  0  0  0  0  0
   25.9755  -10.6850  -16.2986 C   0  0  0  0  0  0  0  0  0  0  0  0
   26.8745  -11.7194  -15.6499 C   0  0  0  0  0  0  0  0  0  0  0  0
   28.2033  -11.6030  -16.1800 N   0  0  0  0  0  0  0  0  0  0  0  0
   21.4304   -8.7702  -16.1942 C   0  0  0  0  0  0  0  0  0  0  0  0
   21.0009   -8.6171  -17.3959 O   0  0  0  0  0  0  0  0  0  0  0  0
   21.0723   -7.7882  -15.2504 N   0  0  0  0  0  0  0  0  0  0  0  0
   20.3371   -6.5961  -15.7364 C   0  0  1  0  0  0  0  0  0  0  0  0
   19.1483   -6.3611  -14.8421 C   0  0  0  0  0  0  0  0  0  0  0  0
   18.4404   -5.1451  -15.2341 C   0  0  0  0  0  0  0  0  0  0  0  0
   18.4575   -4.1291  -14.5183 O   0  0  0  0  0  0  0  0  0  0  0  0
   21.2840   -5.4468  -15.6251 C   0  0  0  0  0  0  0  0  0  0  0  0
   22.3828   -5.6184  -15.0136 O   0  0  0  0  0  0  0  0  0  0  0  0
   17.7041   -5.0400  -16.4259 O   0  0  0  0  0  0  0  0  0  0  0  0
   21.0340   -4.2185  -16.1462 O   0  0  0  0  0  0  0  0  0  0  0  0
  1  2  1  0
  2  3  1  0
  3  4  1  6
  5  3  1  0
  5  6  1  1
  7  5  1  0
  8  7  2  0
  9  7  1  0
 10  9  1  0
 11 12  1  0
 10 11  1  6
 13 12  1  0
 13 14  1  0
 14 15  1  0
 16 10  1  0
 16 18  1  0
 17 16  2  0
 19 18  1  0
 19 20  1  1
 20 21  1  0
 21 22  2  0
 23 19  1  0
 24 23  2  0
 25 21  1  0
 26 23  1  0
M  END
$$$$
