IKD.pdb
     RDKit          3D

 26 25  0  0  1  0  0  0  0  0999 V2000
   16.1834  -12.7013  -16.9953 C   0  0  0  0  0  0  0  0  0  0  0  0
   17.6434  -12.6268  -17.3942 C   0  0  0  0  0  0  0  0  0  0  0  0
   18.4255  -11.7041  -16.4792 C   0  0  2  0  0  0  0  0  0  0  0  0
   17.7991  -10.3541  -16.5091 C   0  0  0  0  0  0  0  0  0  0  0  0
   19.8645  -11.7296  -16.9232 C   0  0  2  0  0  0  0  0  0  0  0  0
   20.2920  -13.0778  -17.0877 N   0  0  0  0  0  0  0  0  0  0  0  0
   20.7677  -11.0439  -15.9751 C   0  0  0  0  0  0  0  0  0  0  0  0
   20.4737  -11.0455  -14.7567 O   0  0  0  0  0  0  0  0  0  0  0  0
   21.9306  -10.4047  -16.4350 N   0  0  0  0  0  0  0  0  0  0  0  0
   22.7997   -9.5960  -15.5544 C   0  0  1  0  0  0  0  0  0  0  0  0
   24.2113   -9.7236  -15.9904 C   0  0  0  0  0  0  0  0  0  0  0  0
   24.8507  -11.0341  -15.6584 C   0  0  0  0  0  0  0  0  0  0  0  0
   26.2800  -11.0409  -16.0957 C   0  0  0  0  0  0  0  0  0  0  0  0
   26.8971  -12.3621  -15.6802 C   0  0  0  0  0  0  0  0  0  0  0  0
   28.2841  -12.3829  -16.0490 N   0  0  0  0  0  0  0  0  0  0  0  0
   22.2390   -8.2257  -15.6133 C   0  0  0  0  0  0  0  0  0  0  0  0
   21.8177   -7.8142  -16.7557 O   0  0  0  0  0  0  0  0  0  0  0  0
   22.1244   -7.3391  -14.5251 N   0  0  0  0  0  0  0  0  0  0  0  0
   21.6697   -5.9558  -14.8039 C   0  0  1  0  0  0  0  0  0  0  0  0
   20.1654   -5.9177  -14.7422 C   0  0  0  0  0  0  0  0  0  0  0  0
   19.6755   -4.5558  -14.9387 C   0  0  0  0  0  0  0  0  0  0  0  0
   20.3672   -3.6976  -15.5132 O   0  0  0  0  0  0  0  0  0  0  0  0
   22.2385   -5.1021  -13.7187 C   0  0  0  0  0  0  0  0  0  0  0  0
   22.6956   -5.6640  -12.6766 O   0  0  0  0  0  0  0  0  0  0  0  0
   18.4114   -4.1277  -14.5003 O   0  0  0  0  0  0  0  0  0  0  0  0
   22.2951   -3.7474  -13.7849 O   0  0  0  0  0  0  0  0  0  0  0  0
  1  2  1  0
  2  3  1  0
  3  4  1  6
  5  3  1  0
  5  6  1  1
  7  5  1  0
  8  7  2  0
  9  7  1  0
 10  9  1  0
 11 12  1  0
 10 11  1  6
 13 12  1  0
 13 14  1  0
 14 15  1  0
 16 10  1  0
 16 18  1  0
 17 16  2  0
 19 18  1  0
 19 20  1  1
 20 21  1  0
 21 22  2  0
 23 19  1  0
 24 23  2  0
 25 21  1  0
 26 23  1  0
M  END
$$$$
