IKD.pdb
     RDKit          3D

 26 25  0  0  1  0  0  0  0  0999 V2000
   25.3958  -15.8572  -16.3707 C   0  0  0  0  0  0  0  0  0  0  0  0
   24.2791  -15.1543  -15.6257 C   0  0  0  0  0  0  0  0  0  0  0  0
   24.0243  -13.7666  -16.1820 C   0  0  2  0  0  0  0  0  0  0  0  0
   25.2924  -12.9886  -16.1317 C   0  0  0  0  0  0  0  0  0  0  0  0
   22.8924  -13.1582  -15.3963 C   0  0  2  0  0  0  0  0  0  0  0  0
   21.7733  -14.0384  -15.4073 N   0  0  0  0  0  0  0  0  0  0  0  0
   22.4795  -11.8380  -15.9172 C   0  0  0  0  0  0  0  0  0  0  0  0
   23.3672  -11.0036  -16.2119 O   0  0  0  0  0  0  0  0  0  0  0  0
   21.1188  -11.5293  -16.0769 N   0  0  0  0  0  0  0  0  0  0  0  0
   20.6520  -10.2760  -16.7064 C   0  0  1  0  0  0  0  0  0  0  0  0
   19.2615  -10.4476  -17.1920 C   0  0  0  0  0  0  0  0  0  0  0  0
   19.0890  -11.5139  -18.2264 C   0  0  0  0  0  0  0  0  0  0  0  0
   18.0626  -12.5063  -17.7839 C   0  0  0  0  0  0  0  0  0  0  0  0
   17.9551  -13.5832  -18.8459 C   0  0  0  0  0  0  0  0  0  0  0  0
   16.9756  -14.5546  -18.4494 N   0  0  0  0  0  0  0  0  0  0  0  0
   20.8381   -9.2326  -15.6709 C   0  0  0  0  0  0  0  0  0  0  0  0
   20.5978   -9.5667  -14.4534 O   0  0  0  0  0  0  0  0  0  0  0  0
   21.2596   -7.9095  -15.9065 N   0  0  0  0  0  0  0  0  0  0  0  0
   21.4594   -7.0271  -14.7320 C   0  0  1  0  0  0  0  0  0  0  0  0
   22.3634   -5.8895  -15.1281 C   0  0  0  0  0  0  0  0  0  0  0  0
   22.4951   -4.9306  -14.0342 C   0  0  0  0  0  0  0  0  0  0  0  0
   22.8016   -5.2981  -12.8870 O   0  0  0  0  0  0  0  0  0  0  0  0
   20.1107   -6.4955  -14.3742 C   0  0  0  0  0  0  0  0  0  0  0  0
   19.2924   -6.2296  -15.3071 O   0  0  0  0  0  0  0  0  0  0  0  0
   22.2884   -3.5508  -14.1985 O   0  0  0  0  0  0  0  0  0  0  0  0
   19.7068   -6.2795  -13.0963 O   0  0  0  0  0  0  0  0  0  0  0  0
  1  2  1  0
  2  3  1  0
  3  4  1  1
  5  3  1  0
  5  6  1  6
  7  5  1  0
  8  7  2  0
  9  7  1  0
 10  9  1  0
 11 12  1  0
 10 11  1  1
 13 12  1  0
 13 14  1  0
 14 15  1  0
 16 10  1  0
 16 18  1  0
 17 16  2  0
 19 18  1  0
 19 20  1  6
 20 21  1  0
 21 22  2  0
 23 19  1  0
 24 23  2  0
 25 21  1  0
 26 23  1  0
M  END
$$$$
