IKD.pdb
     RDKit          3D

 26 25  0  0  1  0  0  0  0  0999 V2000
   16.9679  -13.3245  -16.6562 C   0  0  0  0  0  0  0  0  0  0  0  0
   18.4402  -13.5164  -16.9592 C   0  0  0  0  0  0  0  0  0  0  0  0
   19.2966  -12.4956  -16.2348 C   0  0  2  0  0  0  0  0  0  0  0  0
   18.8772  -11.1309  -16.6564 C   0  0  0  0  0  0  0  0  0  0  0  0
   20.7389  -12.8181  -16.5251 C   0  0  2  0  0  0  0  0  0  0  0  0
   21.0087  -14.1705  -16.1708 N   0  0  0  0  0  0  0  0  0  0  0  0
   21.6787  -11.9296  -15.8095 C   0  0  0  0  0  0  0  0  0  0  0  0
   21.7529  -12.0135  -14.5611 O   0  0  0  0  0  0  0  0  0  0  0  0
   22.4705  -11.0115  -16.5184 N   0  0  0  0  0  0  0  0  0  0  0  0
   23.4317  -10.1055  -15.8550 C   0  0  1  0  0  0  0  0  0  0  0  0
   24.7545  -10.2073  -16.5174 C   0  0  0  0  0  0  0  0  0  0  0  0
   25.6458  -11.2760  -15.9697 C   0  0  0  0  0  0  0  0  0  0  0  0
   26.9175  -11.3439  -16.7522 C   0  0  0  0  0  0  0  0  0  0  0  0
   27.7584  -12.4753  -16.1939 C   0  0  0  0  0  0  0  0  0  0  0  0
   28.9555  -12.6158  -16.9734 N   0  0  0  0  0  0  0  0  0  0  0  0
   22.7977   -8.7673  -15.9065 C   0  0  0  0  0  0  0  0  0  0  0  0
   22.1282   -8.4770  -16.9645 O   0  0  0  0  0  0  0  0  0  0  0  0
   22.8625   -7.7896  -14.8947 N   0  0  0  0  0  0  0  0  0  0  0  0
   22.1907   -6.4915  -15.1422 C   0  0  1  0  0  0  0  0  0  0  0  0
   21.9153   -5.8275  -13.8188 C   0  0  0  0  0  0  0  0  0  0  0  0
   21.2964   -4.5195  -14.0170 C   0  0  0  0  0  0  0  0  0  0  0  0
   20.2474   -4.3942  -14.6719 O   0  0  0  0  0  0  0  0  0  0  0  0
   23.1548   -5.6648  -15.9277 C   0  0  0  0  0  0  0  0  0  0  0  0
   24.3985   -5.8388  -15.7443 O   0  0  0  0  0  0  0  0  0  0  0  0
   21.8332   -3.3325  -13.4910 O   0  0  0  0  0  0  0  0  0  0  0  0
   22.7728   -4.7301  -16.8350 O   0  0  0  0  0  0  0  0  0  0  0  0
  1  2  1  0
  2  3  1  0
  3  4  1  6
  5  3  1  0
  5  6  1  1
  7  5  1  0
  8  7  2  0
  9  7  1  0
 10  9  1  0
 11 12  1  0
 10 11  1  6
 13 12  1  0
 13 14  1  0
 14 15  1  0
 16 10  1  0
 16 18  1  0
 17 16  2  0
 19 18  1  0
 19 20  1  1
 20 21  1  0
 21 22  2  0
 23 19  1  0
 24 23  2  0
 25 21  1  0
 26 23  1  0
M  END
$$$$
