IKD.pdb
     RDKit          3D

 26 25  0  0  1  0  0  0  0  0999 V2000
   10.2729  -13.7094   -9.8372 C   0  0  0  0  0  0  0  0  0  0  0  0
   11.3022  -14.0069  -10.9087 C   0  0  0  0  0  0  0  0  0  0  0  0
   12.5477  -13.1586  -10.7368 C   0  0  2  0  0  0  0  0  0  0  0  0
   12.1506  -11.7245  -10.6993 C   0  0  0  0  0  0  0  0  0  0  0  0
   13.4989  -13.5094  -11.8507 C   0  0  2  0  0  0  0  0  0  0  0  0
   13.7599  -14.9090  -11.8357 N   0  0  0  0  0  0  0  0  0  0  0  0
   14.7780  -12.7739  -11.7632 C   0  0  0  0  0  0  0  0  0  0  0  0
   15.6635  -13.1983  -10.9843 O   0  0  0  0  0  0  0  0  0  0  0  0
   14.9922  -11.6231  -12.5392 N   0  0  0  0  0  0  0  0  0  0  0  0
   16.2684  -10.8774  -12.5277 C   0  0  1  0  0  0  0  0  0  0  0  0
   16.8026  -10.7785  -13.9075 C   0  0  0  0  0  0  0  0  0  0  0  0
   17.4875  -12.0128  -14.4013 C   0  0  0  0  0  0  0  0  0  0  0  0
   18.0354  -11.7895  -15.7740 C   0  0  0  0  0  0  0  0  0  0  0  0
   18.7023  -13.0716  -16.2330 C   0  0  0  0  0  0  0  0  0  0  0  0
   19.2413  -12.8890  -17.5508 N   0  0  0  0  0  0  0  0  0  0  0  0
   15.9533   -9.5850  -11.8753 C   0  0  0  0  0  0  0  0  0  0  0  0
   14.8725   -8.9930  -12.2405 O   0  0  0  0  0  0  0  0  0  0  0  0
   16.7335   -8.9532  -10.8876 N   0  0  0  0  0  0  0  0  0  0  0  0
   16.2111   -7.7021  -10.2878 C   0  0  1  0  0  0  0  0  0  0  0  0
   16.6567   -7.6298   -8.8509 C   0  0  0  0  0  0  0  0  0  0  0  0
   16.2615   -6.3577   -8.2519 C   0  0  0  0  0  0  0  0  0  0  0  0
   15.1436   -5.8604   -8.4713 O   0  0  0  0  0  0  0  0  0  0  0  0
   16.8235   -6.5806  -11.0604 C   0  0  0  0  0  0  0  0  0  0  0  0
   17.9031   -6.7932  -11.6928 O   0  0  0  0  0  0  0  0  0  0  0  0
   17.1014   -5.6201   -7.4010 O   0  0  0  0  0  0  0  0  0  0  0  0
   16.2856   -5.3359  -11.1256 O   0  0  0  0  0  0  0  0  0  0  0  0
  1  2  1  0
  2  3  1  0
  3  4  1  6
  5  3  1  0
  5  6  1  1
  7  5  1  0
  8  7  2  0
  9  7  1  0
 10  9  1  0
 11 12  1  0
 10 11  1  6
 13 12  1  0
 13 14  1  0
 14 15  1  0
 16 10  1  0
 16 18  1  0
 17 16  2  0
 19 18  1  0
 19 20  1  1
 20 21  1  0
 21 22  2  0
 23 19  1  0
 24 23  2  0
 25 21  1  0
 26 23  1  0
M  END
$$$$
