QIC.pdb
     RDKit          3D

 24 23  0  0  1  0  0  0  0  0999 V2000
    5.4301  -19.0206   22.3610 N   0  0  0  0  0  0  0  0  0  0  0  0
    5.5422  -18.6869   20.9615 C   0  0  0  0  0  0  0  0  0  0  0  0
    4.7097  -19.2069   20.1849 O   0  0  0  0  0  0  0  0  0  0  0  0
    6.5996  -17.7757   20.5281 C   0  0  0  0  0  0  0  0  0  0  0  0
    7.4177  -17.2432   21.6566 C   0  0  0  0  0  0  0  0  0  0  0  0
    7.5627  -15.7591   21.6389 C   0  0  2  0  0  0  0  0  0  0  0  0
    8.3340  -15.3320   20.4615 N   0  0  0  0  0  0  0  0  0  0  0  0
    8.2525  -15.2532   22.8704 C   0  0  0  0  0  0  0  0  0  0  0  0
    9.4992  -15.0945   22.8151 O   0  0  0  0  0  0  0  0  0  0  0  0
    5.7373  -11.7046   25.8931 C   0  0  0  0  0  0  0  0  0  0  0  0
    6.8034  -12.5273   25.2056 C   0  0  0  0  0  0  0  0  0  0  0  0
    7.2704  -13.6895   26.0089 C   0  0  2  0  0  0  0  0  0  0  0  0
    7.7363  -13.2878   27.3967 C   0  0  0  0  0  0  0  0  0  0  0  0
    8.2552  -14.5737   25.3187 C   0  0  2  0  0  0  0  0  0  0  0  0
    7.5724  -14.9566   24.0577 N   0  0  0  0  0  0  0  0  0  0  0  0
    8.5871  -15.8278   25.9949 C   0  0  0  0  0  0  0  0  0  0  0  0
    7.6671  -16.6752   26.2995 O   0  0  0  0  0  0  0  0  0  0  0  0
    9.8904  -16.2545   26.3796 N   0  0  0  0  0  0  0  0  0  0  0  0
   10.1405  -17.5593   26.9653 C   0  0  1  0  0  0  0  0  0  0  0  0
   11.5130  -18.0156   26.4543 C   0  0  0  0  0  0  0  0  0  0  0  0
   11.6500  -17.7699   24.6623 S   0  0  0  0  0  0  0  0  0  0  0  0
   10.2469  -17.4909   28.4372 C   0  0  0  0  0  0  0  0  0  0  0  0
   10.3934  -18.6214   29.2090 O   0  0  0  0  0  0  0  0  0  0  0  0
   10.2021  -16.3742   28.9929 O   0  0  0  0  0  0  0  0  0  0  0  0
  1  2  1  0
  2  3  2  0
  4  5  1  0
  4  2  1  0
  5  6  1  0
  6  7  1  6
  8  6  1  0
  9  8  2  0
 11 10  1  0
 11 12  1  0
 12 14  1  0
 12 13  1  1
 14 15  1  6
 15  8  1  0
 16 17  2  0
 16 14  1  0
 18 16  1  0
 19 18  1  0
 19 20  1  6
 21 20  1  0
 22 19  1  0
 23 22  1  0
 24 22  2  0
M  END
$$$$
