QIC.pdb
     RDKit          3D

 24 23  0  0  1  0  0  0  0  0999 V2000
    6.8266  -19.5455   20.6982 N   0  0  0  0  0  0  0  0  0  0  0  0
    6.0913  -18.7179   19.7725 C   0  0  0  0  0  0  0  0  0  0  0  0
    5.4108  -19.3055   18.9018 O   0  0  0  0  0  0  0  0  0  0  0  0
    6.1741  -17.2638   19.8952 C   0  0  0  0  0  0  0  0  0  0  0  0
    6.9473  -16.8163   21.0902 C   0  0  0  0  0  0  0  0  0  0  0  0
    6.9993  -15.3341   21.2454 C   0  0  2  0  0  0  0  0  0  0  0  0
    7.4628  -14.7029   20.0003 N   0  0  0  0  0  0  0  0  0  0  0  0
    7.9163  -14.9235   22.3586 C   0  0  0  0  0  0  0  0  0  0  0  0
    9.1211  -14.7057   22.0693 O   0  0  0  0  0  0  0  0  0  0  0  0
    5.9266  -11.7226   26.0706 C   0  0  0  0  0  0  0  0  0  0  0  0
    6.9146  -12.4047   25.1516 C   0  0  0  0  0  0  0  0  0  0  0  0
    7.5189  -13.6341   25.7324 C   0  0  2  0  0  0  0  0  0  0  0  0
    8.1938  -13.3756   27.0674 C   0  0  0  0  0  0  0  0  0  0  0  0
    8.3935  -14.4039   24.7996 C   0  0  2  0  0  0  0  0  0  0  0  0
    7.4886  -14.7765   23.6836 N   0  0  0  0  0  0  0  0  0  0  0  0
    8.9415  -15.6601   25.3113 C   0  0  0  0  0  0  0  0  0  0  0  0
    8.1630  -16.5974   25.7267 O   0  0  0  0  0  0  0  0  0  0  0  0
   10.3224  -15.9953   25.4091 N   0  0  0  0  0  0  0  0  0  0  0  0
   10.7762  -17.3094   25.8279 C   0  0  1  0  0  0  0  0  0  0  0  0
   12.1924  -17.4860   25.2655 C   0  0  0  0  0  0  0  0  0  0  0  0
   12.9356  -19.0306   25.8589 S   0  0  0  0  0  0  0  0  0  0  0  0
   10.8973  -17.4078   27.2969 C   0  0  0  0  0  0  0  0  0  0  0  0
   10.6866  -18.5922   27.9662 O   0  0  0  0  0  0  0  0  0  0  0  0
   11.1993  -16.3854   27.9461 O   0  0  0  0  0  0  0  0  0  0  0  0
  1  2  1  0
  2  3  2  0
  4  5  1  0
  4  2  1  0
  5  6  1  0
  6  7  1  6
  8  6  1  0
  9  8  2  0
 11 10  1  0
 11 12  1  0
 12 14  1  0
 12 13  1  1
 14 15  1  6
 15  8  1  0
 16 17  2  0
 16 14  1  0
 18 16  1  0
 19 18  1  0
 19 20  1  6
 21 20  1  0
 22 19  1  0
 23 22  1  0
 24 22  2  0
M  END
$$$$
