QIC.pdb
     RDKit          3D

 24 23  0  0  1  0  0  0  0  0999 V2000
   10.5009  -15.5928   13.5539 N   0  0  0  0  0  0  0  0  0  0  0  0
   10.1483  -16.9668   13.8193 C   0  0  0  0  0  0  0  0  0  0  0  0
    9.4341  -17.5446   12.9693 O   0  0  0  0  0  0  0  0  0  0  0  0
   10.6336  -17.6041   15.0419 C   0  0  0  0  0  0  0  0  0  0  0  0
   10.5741  -16.7110   16.2356 C   0  0  0  0  0  0  0  0  0  0  0  0
   10.0736  -17.3915   17.4644 C   0  0  2  0  0  0  0  0  0  0  0  0
    8.6428  -17.7054   17.3315 N   0  0  0  0  0  0  0  0  0  0  0  0
   10.2646  -16.5435   18.6864 C   0  0  0  0  0  0  0  0  0  0  0  0
   11.4430  -16.2395   19.0049 O   0  0  0  0  0  0  0  0  0  0  0  0
    6.9576  -12.5728   19.3125 C   0  0  0  0  0  0  0  0  0  0  0  0
    8.2313  -13.3744   19.4575 C   0  0  0  0  0  0  0  0  0  0  0  0
    8.2286  -14.2917   20.6292 C   0  0  2  0  0  0  0  0  0  0  0  0
    8.0354  -13.5564   21.9431 C   0  0  0  0  0  0  0  0  0  0  0  0
    9.3754  -15.2456   20.6815 C   0  0  2  0  0  0  0  0  0  0  0  0
    9.1991  -16.0864   19.4711 N   0  0  0  0  0  0  0  0  0  0  0  0
    9.3997  -16.1701   21.8150 C   0  0  0  0  0  0  0  0  0  0  0  0
    8.4351  -17.0003   22.0085 O   0  0  0  0  0  0  0  0  0  0  0  0
   10.4302  -16.2720   22.7931 N   0  0  0  0  0  0  0  0  0  0  0  0
   10.3541  -17.1969   23.9097 C   0  0  1  0  0  0  0  0  0  0  0  0
   11.4935  -18.2069   23.7232 C   0  0  0  0  0  0  0  0  0  0  0  0
   13.0487  -17.3613   23.3277 S   0  0  0  0  0  0  0  0  0  0  0  0
   10.6034  -16.5231   25.2006 C   0  0  0  0  0  0  0  0  0  0  0  0
   10.5406  -17.1995   26.3980 O   0  0  0  0  0  0  0  0  0  0  0  0
   10.8785  -15.3056   25.2012 O   0  0  0  0  0  0  0  0  0  0  0  0
  1  2  1  0
  2  3  2  0
  4  5  1  0
  4  2  1  0
  5  6  1  0
  6  7  1  6
  8  6  1  0
  9  8  2  0
 11 10  1  0
 11 12  1  0
 12 14  1  0
 12 13  1  1
 14 15  1  6
 15  8  1  0
 16 17  2  0
 16 14  1  0
 18 16  1  0
 19 18  1  0
 19 20  1  6
 21 20  1  0
 22 19  1  0
 23 22  1  0
 24 22  2  0
M  END
$$$$
