QIC.pdb
     RDKit          3D

 24 23  0  0  1  0  0  0  0  0999 V2000
    7.8991  -21.1881   18.6079 N   0  0  0  0  0  0  0  0  0  0  0  0
    8.7271  -21.2076   17.4261 C   0  0  0  0  0  0  0  0  0  0  0  0
    8.5434  -22.1465   16.6190 O   0  0  0  0  0  0  0  0  0  0  0  0
    9.7182  -20.1510   17.2322 C   0  0  0  0  0  0  0  0  0  0  0  0
    9.7641  -19.1725   18.3577 C   0  0  0  0  0  0  0  0  0  0  0  0
    9.8521  -17.7529   17.9096 C   0  0  2  0  0  0  0  0  0  0  0  0
   10.9413  -17.5881   16.9349 N   0  0  0  0  0  0  0  0  0  0  0  0
   10.0955  -16.8212   19.0591 C   0  0  0  0  0  0  0  0  0  0  0  0
   11.2864  -16.6494   19.4264 O   0  0  0  0  0  0  0  0  0  0  0  0
    6.9167  -12.4746   19.5748 C   0  0  0  0  0  0  0  0  0  0  0  0
    8.1562  -13.3352   19.6700 C   0  0  0  0  0  0  0  0  0  0  0  0
    8.1340  -14.2887   20.8122 C   0  0  2  0  0  0  0  0  0  0  0  0
    7.8929  -13.5976   22.1421 C   0  0  0  0  0  0  0  0  0  0  0  0
    9.2929  -15.2275   20.8679 C   0  0  2  0  0  0  0  0  0  0  0  0
    9.0649  -16.1481   19.7261 N   0  0  0  0  0  0  0  0  0  0  0  0
    9.3855  -16.0747   22.0570 C   0  0  0  0  0  0  0  0  0  0  0  0
    8.5043  -16.9843   22.2878 O   0  0  0  0  0  0  0  0  0  0  0  0
   10.4007  -16.0135   23.0542 N   0  0  0  0  0  0  0  0  0  0  0  0
   10.4458  -16.9342   24.1760 C   0  0  1  0  0  0  0  0  0  0  0  0
   11.7354  -16.6257   24.9472 C   0  0  0  0  0  0  0  0  0  0  0  0
   11.8209  -17.5951   26.4779 S   0  0  0  0  0  0  0  0  0  0  0  0
    9.3326  -16.7068   25.1201 C   0  0  0  0  0  0  0  0  0  0  0  0
    8.7350  -17.7422   25.8028 O   0  0  0  0  0  0  0  0  0  0  0  0
    8.9252  -15.5409   25.3011 O   0  0  0  0  0  0  0  0  0  0  0  0
  1  2  1  0
  2  3  2  0
  4  5  1  0
  4  2  1  0
  5  6  1  0
  6  7  1  6
  8  6  1  0
  9  8  2  0
 11 10  1  0
 11 12  1  0
 12 14  1  0
 12 13  1  1
 14 15  1  6
 15  8  1  0
 16 17  2  0
 16 14  1  0
 18 16  1  0
 19 18  1  0
 19 20  1  1
 21 20  1  0
 22 19  1  0
 23 22  1  0
 24 22  2  0
M  END
$$$$
