QIC.pdb
     RDKit          3D

 24 23  0  0  1  0  0  0  0  0999 V2000
    9.8466  -16.6923   18.1645 N   0  0  0  0  0  0  0  0  0  0  0  0
    8.4074  -16.7809   18.2218 C   0  0  0  0  0  0  0  0  0  0  0  0
    7.8376  -17.3869   17.2864 O   0  0  0  0  0  0  0  0  0  0  0  0
    7.6996  -16.1727   19.3467 C   0  0  0  0  0  0  0  0  0  0  0  0
    8.6130  -15.5705   20.3613 C   0  0  0  0  0  0  0  0  0  0  0  0
    8.6524  -16.3227   21.6483 C   0  0  2  0  0  0  0  0  0  0  0  0
    7.3189  -16.8492   21.9771 N   0  0  0  0  0  0  0  0  0  0  0  0
    9.1176  -15.4594   22.7827 C   0  0  0  0  0  0  0  0  0  0  0  0
   10.1797  -14.8057   22.6185 O   0  0  0  0  0  0  0  0  0  0  0  0
    5.6145  -12.6481   25.4743 C   0  0  0  0  0  0  0  0  0  0  0  0
    6.9470  -13.0752   24.9014 C   0  0  0  0  0  0  0  0  0  0  0  0
    7.6995  -14.0138   25.7772 C   0  0  2  0  0  0  0  0  0  0  0  0
    7.9637  -13.4372   27.1563 C   0  0  0  0  0  0  0  0  0  0  0  0
    8.9309  -14.5928   25.1640 C   0  0  2  0  0  0  0  0  0  0  0  0
    8.4257  -15.3562   23.9955 N   0  0  0  0  0  0  0  0  0  0  0  0
    9.6741  -15.5516   25.9817 C   0  0  0  0  0  0  0  0  0  0  0  0
    9.4844  -16.8177   25.8478 O   0  0  0  0  0  0  0  0  0  0  0  0
   10.6485  -15.2334   26.9707 N   0  0  0  0  0  0  0  0  0  0  0  0
   11.3309  -16.2532   27.7468 C   0  0  1  0  0  0  0  0  0  0  0  0
   12.2209  -15.5165   28.7559 C   0  0  0  0  0  0  0  0  0  0  0  0
   11.3306  -14.1276   29.5098 S   0  0  0  0  0  0  0  0  0  0  0  0
   10.3861  -17.0649   28.5411 C   0  0  0  0  0  0  0  0  0  0  0  0
   10.7700  -18.2370   29.1527 O   0  0  0  0  0  0  0  0  0  0  0  0
    9.2068  -16.6731   28.6586 O   0  0  0  0  0  0  0  0  0  0  0  0
  1  2  1  0
  2  3  2  0
  4  5  1  0
  4  2  1  0
  5  6  1  0
  6  7  1  1
  8  6  1  0
  9  8  2  0
 11 10  1  0
 11 12  1  0
 12 14  1  0
 12 13  1  1
 14 15  1  6
 15  8  1  0
 16 17  2  0
 16 14  1  0
 18 16  1  0
 19 18  1  0
 19 20  1  1
 21 20  1  0
 22 19  1  0
 23 22  1  0
 24 22  2  0
M  END
$$$$
