QIC.pdb
     RDKit          3D

 24 23  0  0  1  0  0  0  0  0999 V2000
    9.6959  -21.0100   21.5777 N   0  0  0  0  0  0  0  0  0  0  0  0
   10.6906  -21.1546   20.5421 C   0  0  0  0  0  0  0  0  0  0  0  0
   10.7168  -22.2448   19.9277 O   0  0  0  0  0  0  0  0  0  0  0  0
   11.5991  -20.0435   20.2657 C   0  0  0  0  0  0  0  0  0  0  0  0
   11.3211  -18.8348   21.0952 C   0  0  0  0  0  0  0  0  0  0  0  0
   11.2800  -17.5688   20.3081 C   0  0  2  0  0  0  0  0  0  0  0  0
   12.6126  -17.2540   19.7711 N   0  0  0  0  0  0  0  0  0  0  0  0
   10.8154  -16.4115   21.1408 C   0  0  0  0  0  0  0  0  0  0  0  0
   11.6953  -15.7025   21.6937 O   0  0  0  0  0  0  0  0  0  0  0  0
    7.0797  -13.1684   19.3927 C   0  0  0  0  0  0  0  0  0  0  0  0
    8.2524  -13.7032   20.1832 C   0  0  0  0  0  0  0  0  0  0  0  0
    7.8589  -14.3896   21.4435 C   0  0  2  0  0  0  0  0  0  0  0  0
    6.9773  -13.5246   22.3260 C   0  0  0  0  0  0  0  0  0  0  0  0
    8.9885  -15.0012   22.2035 C   0  0  2  0  0  0  0  0  0  0  0  0
    9.4633  -16.0969   21.3219 N   0  0  0  0  0  0  0  0  0  0  0  0
    8.6473  -15.6294   23.4799 C   0  0  0  0  0  0  0  0  0  0  0  0
    8.3314  -16.8760   23.5367 O   0  0  0  0  0  0  0  0  0  0  0  0
    8.6238  -14.9878   24.7514 N   0  0  0  0  0  0  0  0  0  0  0  0
    8.2504  -15.6861   25.9683 C   0  0  1  0  0  0  0  0  0  0  0  0
    8.1921  -14.6316   27.0808 C   0  0  0  0  0  0  0  0  0  0  0  0
    9.5144  -13.4063   26.8800 S   0  0  0  0  0  0  0  0  0  0  0  0
    6.8956  -16.2678   25.8757 C   0  0  0  0  0  0  0  0  0  0  0  0
    6.4428  -17.2036   26.7782 O   0  0  0  0  0  0  0  0  0  0  0  0
    6.1431  -15.8974   24.9513 O   0  0  0  0  0  0  0  0  0  0  0  0
  1  2  1  0
  2  3  2  0
  4  5  1  0
  4  2  1  0
  5  6  1  0
  6  7  1  1
  8  6  1  0
  9  8  2  0
 11 10  1  0
 11 12  1  0
 12 14  1  0
 12 13  1  1
 14 15  1  6
 15  8  1  0
 16 17  2  0
 16 14  1  0
 18 16  1  0
 19 18  1  0
 19 20  1  1
 21 20  1  0
 22 19  1  0
 23 22  1  0
 24 22  2  0
M  END
$$$$
