QIC.pdb
     RDKit          3D

 24 23  0  0  1  0  0  0  0  0999 V2000
    6.4808  -20.1750   25.3455 N   0  0  0  0  0  0  0  0  0  0  0  0
    6.0996  -20.4904   23.9899 C   0  0  0  0  0  0  0  0  0  0  0  0
    5.3125  -21.4503   23.8296 O   0  0  0  0  0  0  0  0  0  0  0  0
    6.6387  -19.6892   22.8927 C   0  0  0  0  0  0  0  0  0  0  0  0
    7.5364  -18.5895   23.3519 C   0  0  0  0  0  0  0  0  0  0  0  0
    7.2764  -17.2863   22.6752 C   0  0  2  0  0  0  0  0  0  0  0  0
    7.6976  -17.3452   21.2672 N   0  0  0  0  0  0  0  0  0  0  0  0
    8.0032  -16.1579   23.3439 C   0  0  0  0  0  0  0  0  0  0  0  0
    9.1858  -15.9310   22.9798 O   0  0  0  0  0  0  0  0  0  0  0  0
    6.6324  -11.1828   26.6682 C   0  0  0  0  0  0  0  0  0  0  0  0
    7.6898  -12.1988   26.3000 C   0  0  0  0  0  0  0  0  0  0  0  0
    7.1640  -13.3502   25.5176 C   0  0  2  0  0  0  0  0  0  0  0  0
    5.9372  -13.9757   26.1565 C   0  0  0  0  0  0  0  0  0  0  0  0
    8.1853  -14.3717   25.1416 C   0  0  2  0  0  0  0  0  0  0  0  0
    7.4245  -15.3625   24.3401 N   0  0  0  0  0  0  0  0  0  0  0  0
    8.7893  -15.1217   26.2429 C   0  0  0  0  0  0  0  0  0  0  0  0
    8.1300  -16.0458   26.8499 O   0  0  0  0  0  0  0  0  0  0  0  0
   10.1059  -14.9443   26.7567 N   0  0  0  0  0  0  0  0  0  0  0  0
   10.6477  -15.7795   27.8135 C   0  0  1  0  0  0  0  0  0  0  0  0
   12.1309  -15.9954   27.4873 C   0  0  0  0  0  0  0  0  0  0  0  0
   12.3386  -16.5938   25.7877 S   0  0  0  0  0  0  0  0  0  0  0  0
   10.6051  -15.1032   29.1262 C   0  0  0  0  0  0  0  0  0  0  0  0
   10.9807  -15.7425   30.2862 O   0  0  0  0  0  0  0  0  0  0  0  0
   10.2168  -13.9182   29.1809 O   0  0  0  0  0  0  0  0  0  0  0  0
  1  2  1  0
  2  3  2  0
  4  5  1  0
  4  2  1  0
  5  6  1  0
  6  7  1  6
  8  6  1  0
  9  8  2  0
 11 10  1  0
 11 12  1  0
 12 14  1  0
 12 13  1  1
 14 15  1  6
 15  8  1  0
 16 17  2  0
 16 14  1  0
 18 16  1  0
 19 18  1  0
 19 20  1  6
 21 20  1  0
 22 19  1  0
 23 22  1  0
 24 22  2  0
M  END
$$$$
