ADP.pdb
     RDKit          3D

 21 21  0  0  1  0  0  0  0  0999 V2000
   15.7810   -6.0815   -8.1049 C   0  0  0  0  0  0  0  0  0  0  0  0
   15.1059   -6.8896   -9.2117 C   0  0  2  0  0  0  0  0  0  0  0  0
   14.7287   -8.1562   -8.5458 N   0  0  0  0  0  0  0  0  0  0  0  0
   16.1208   -7.2551  -10.2345 C   0  0  0  0  0  0  0  0  0  0  0  0
   17.0852   -8.0417   -9.9427 O   0  0  0  0  0  0  0  0  0  0  0  0
   16.1103   -6.7883  -11.5791 N   0  0  0  0  0  0  0  0  0  0  0  0
   17.2333   -7.0825  -12.4683 C   0  0  1  0  0  0  0  0  0  0  0  0
   16.6701   -7.4352  -13.8361 C   0  0  0  0  0  0  0  0  0  0  0  0
   17.7111   -7.7156  -14.8077 C   0  0  0  0  0  0  0  0  0  0  0  0
   18.1945   -6.8838  -15.6029 O   0  0  0  0  0  0  0  0  0  0  0  0
   18.2273   -5.9874  -12.5181 C   0  0  0  0  0  0  0  0  0  0  0  0
   17.8203   -4.7747  -12.2733 O   0  0  0  0  0  0  0  0  0  0  0  0
   18.2791   -9.0139  -14.9286 O   0  0  0  0  0  0  0  0  0  0  0  0
   19.6070   -6.0920  -12.8052 N   0  0  0  0  0  0  0  0  0  0  0  0
   20.2570   -7.4131  -13.0381 C   0  0  0  0  0  0  0  0  0  0  0  0
   21.4391   -7.2533  -12.0693 C   0  0  0  0  0  0  0  0  0  0  0  0
   21.9434   -5.8929  -12.5247 C   0  0  0  0  0  0  0  0  0  0  0  0
   20.6624   -5.1422  -12.9461 C   0  0  1  0  0  0  0  0  0  0  0  0
   20.8744   -4.8053  -14.3943 C   0  0  0  0  0  0  0  0  0  0  0  0
   20.4649   -5.5259  -15.3333 O   0  0  0  0  0  0  0  0  0  0  0  0
   21.5546   -3.6438  -14.7180 O   0  0  0  0  0  0  0  0  0  0  0  0
  2  1  1  1
  2  3  1  0
  4  2  1  0
  5  4  2  0
  6  4  1  0
  7 11  1  0
  7  6  1  0
  7  8  1  6
  9 10  2  0
  9  8  1  0
 11 14  1  0
 12 11  2  0
 13  9  1  0
 14 15  1  0
 14 18  1  0
 15 16  1  0
 16 17  1  0
 18 17  1  0
 18 19  1  6
 19 21  1  0
 20 19  2  0
M  END
$$$$
