ADP.pdb
     RDKit          3D

 21 21  0  0  1  0  0  0  0  0999 V2000
   20.6981  -12.3802  -19.3807 C   0  0  0  0  0  0  0  0  0  0  0  0
   21.6253  -11.9572  -18.2427 C   0  0  2  0  0  0  0  0  0  0  0  0
   21.3593  -12.9526  -17.1804 N   0  0  0  0  0  0  0  0  0  0  0  0
   21.1649  -10.6519  -17.7005 C   0  0  0  0  0  0  0  0  0  0  0  0
   21.3323   -9.5743  -18.3675 O   0  0  0  0  0  0  0  0  0  0  0  0
   20.5164  -10.4876  -16.4441 N   0  0  0  0  0  0  0  0  0  0  0  0
   20.0849   -9.1606  -16.0074 C   0  0  1  0  0  0  0  0  0  0  0  0
   18.9323   -9.3385  -15.0315 C   0  0  0  0  0  0  0  0  0  0  0  0
   17.6382   -9.2665  -15.6844 C   0  0  0  0  0  0  0  0  0  0  0  0
   17.2951   -9.9429  -16.6758 O   0  0  0  0  0  0  0  0  0  0  0  0
   21.1925   -8.3517  -15.4515 C   0  0  0  0  0  0  0  0  0  0  0  0
   22.1444   -8.9684  -14.8115 O   0  0  0  0  0  0  0  0  0  0  0  0
   16.6250   -8.3821  -15.2219 O   0  0  0  0  0  0  0  0  0  0  0  0
   21.3559   -6.9502  -15.5297 N   0  0  0  0  0  0  0  0  0  0  0  0
   20.4373   -6.1022  -16.3415 C   0  0  0  0  0  0  0  0  0  0  0  0
   21.4977   -5.3164  -17.1288 C   0  0  0  0  0  0  0  0  0  0  0  0
   22.3746   -4.8659  -15.9711 C   0  0  0  0  0  0  0  0  0  0  0  0
   22.2869   -6.0301  -14.9617 C   0  0  1  0  0  0  0  0  0  0  0  0
   21.7206   -5.4143  -13.7144 C   0  0  0  0  0  0  0  0  0  0  0  0
   22.4059   -4.7447  -12.9077 O   0  0  0  0  0  0  0  0  0  0  0  0
   20.3765   -5.5892  -13.4332 O   0  0  0  0  0  0  0  0  0  0  0  0
  2  1  1  6
  2  3  1  0
  4  2  1  0
  5  4  2  0
  6  4  1  0
  7 11  1  0
  7  6  1  0
  7  8  1  1
  9 10  2  0
  9  8  1  0
 11 14  1  0
 12 11  2  0
 13  9  1  0
 14 15  1  0
 14 18  1  0
 15 16  1  0
 16 17  1  0
 18 17  1  0
 18 19  1  1
 19 21  1  0
 20 19  2  0
M  END
$$$$
