ADP.pdb
     RDKit          3D

 21 21  0  0  1  0  0  0  0  0999 V2000
   22.2367  -11.3276  -17.2876 C   0  0  0  0  0  0  0  0  0  0  0  0
   22.8383  -10.1871  -16.4684 C   0  0  2  0  0  0  0  0  0  0  0  0
   22.8101  -10.6957  -15.0789 N   0  0  0  0  0  0  0  0  0  0  0  0
   21.9091   -9.0270  -16.4951 C   0  0  0  0  0  0  0  0  0  0  0  0
   21.7358   -8.3562  -17.5694 O   0  0  0  0  0  0  0  0  0  0  0  0
   21.1526   -8.5778  -15.3762 N   0  0  0  0  0  0  0  0  0  0  0  0
   20.3489   -7.3601  -15.4732 C   0  0  1  0  0  0  0  0  0  0  0  0
   19.0457   -7.5962  -14.7260 C   0  0  0  0  0  0  0  0  0  0  0  0
   18.1773   -6.4335  -14.7469 C   0  0  0  0  0  0  0  0  0  0  0  0
   17.5641   -6.0127  -15.7493 O   0  0  0  0  0  0  0  0  0  0  0  0
   21.0726   -6.1568  -15.0060 C   0  0  0  0  0  0  0  0  0  0  0  0
   21.8899   -6.2818  -13.9997 O   0  0  0  0  0  0  0  0  0  0  0  0
   17.9536   -5.6568  -13.5766 O   0  0  0  0  0  0  0  0  0  0  0  0
   20.9890   -4.8469  -15.5294 N   0  0  0  0  0  0  0  0  0  0  0  0
   20.0950   -4.5213  -16.6769 C   0  0  0  0  0  0  0  0  0  0  0  0
   21.1197   -3.7872  -17.5559 C   0  0  0  0  0  0  0  0  0  0  0  0
   21.6733   -2.8172  -16.5239 C   0  0  0  0  0  0  0  0  0  0  0  0
   21.6168   -3.6086  -15.2001 C   0  0  1  0  0  0  0  0  0  0  0  0
   20.7295   -2.7932  -14.3037 C   0  0  0  0  0  0  0  0  0  0  0  0
   21.1170   -1.7608  -13.7098 O   0  0  0  0  0  0  0  0  0  0  0  0
   19.4175   -3.1937  -14.1177 O   0  0  0  0  0  0  0  0  0  0  0  0
  2  1  1  6
  2  3  1  0
  4  2  1  0
  5  4  2  0
  6  4  1  0
  7 11  1  0
  7  6  1  0
  7  8  1  1
  9 10  2  0
  9  8  1  0
 11 14  1  0
 12 11  2  0
 13  9  1  0
 14 15  1  0
 14 18  1  0
 15 16  1  0
 16 17  1  0
 18 17  1  0
 18 19  1  1
 19 21  1  0
 20 19  2  0
M  END
$$$$
