ADP.pdb
     RDKit          3D

 21 21  0  0  1  0  0  0  0  0999 V2000
   28.7916  -20.7808  -13.0901 C   0  0  0  0  0  0  0  0  0  0  0  0
   27.2912  -20.9962  -12.9003 C   0  0  2  0  0  0  0  0  0  0  0  0
   26.6758  -20.1290  -13.9296 N   0  0  0  0  0  0  0  0  0  0  0  0
   26.8803  -20.4260  -11.5904 C   0  0  0  0  0  0  0  0  0  0  0  0
   26.8352  -19.1604  -11.4166 O   0  0  0  0  0  0  0  0  0  0  0  0
   26.5083  -21.2029  -10.4573 N   0  0  0  0  0  0  0  0  0  0  0  0
   26.2077  -20.5493   -9.1843 C   0  0  1  0  0  0  0  0  0  0  0  0
   24.7868  -20.9202   -8.7893 C   0  0  0  0  0  0  0  0  0  0  0  0
   23.8158  -20.5466   -9.8011 C   0  0  0  0  0  0  0  0  0  0  0  0
   23.4063  -19.3861  -10.0102 O   0  0  0  0  0  0  0  0  0  0  0  0
   27.1998  -20.8611   -8.1314 C   0  0  0  0  0  0  0  0  0  0  0  0
   27.8533  -21.9845   -8.2144 O   0  0  0  0  0  0  0  0  0  0  0  0
   23.2361  -21.5176  -10.6637 O   0  0  0  0  0  0  0  0  0  0  0  0
   27.5411  -20.0699   -7.0114 N   0  0  0  0  0  0  0  0  0  0  0  0
   27.0004  -18.6918   -6.8362 C   0  0  0  0  0  0  0  0  0  0  0  0
   28.3265  -17.9660   -6.5603 C   0  0  0  0  0  0  0  0  0  0  0  0
   28.8797  -18.8762   -5.4750 C   0  0  0  0  0  0  0  0  0  0  0  0
   28.3701  -20.2788   -5.8689 C   0  0  1  0  0  0  0  0  0  0  0  0
   27.5448  -20.7296   -4.6980 C   0  0  0  0  0  0  0  0  0  0  0  0
   28.0433  -21.1309   -3.6213 O   0  0  0  0  0  0  0  0  0  0  0  0
   26.1647  -20.7046   -4.8033 O   0  0  0  0  0  0  0  0  0  0  0  0
  2  1  1  1
  2  3  1  0
  4  2  1  0
  5  4  2  0
  6  4  1  0
  7 11  1  0
  7  6  1  0
  7  8  1  1
  9 10  2  0
  9  8  1  0
 11 14  1  0
 12 11  2  0
 13  9  1  0
 14 15  1  0
 14 18  1  0
 15 16  1  0
 16 17  1  0
 18 17  1  0
 18 19  1  1
 19 21  1  0
 20 19  2  0
M  END
$$$$
