ADP.pdb
     RDKit          3D

 21 21  0  0  1  0  0  0  0  0999 V2000
   18.8085  -14.8486  -18.4389 C   0  0  0  0  0  0  0  0  0  0  0  0
   18.3964  -13.3929  -18.2267 C   0  0  2  0  0  0  0  0  0  0  0  0
   18.1928  -12.8787  -19.5994 N   0  0  0  0  0  0  0  0  0  0  0  0
   19.5515  -12.6360  -17.6768 C   0  0  0  0  0  0  0  0  0  0  0  0
   19.9815  -12.8715  -16.4962 O   0  0  0  0  0  0  0  0  0  0  0  0
   20.2607  -11.6258  -18.3855 N   0  0  0  0  0  0  0  0  0  0  0  0
   21.3322  -10.8800  -17.7268 C   0  0  1  0  0  0  0  0  0  0  0  0
   22.2354  -10.3029  -18.8056 C   0  0  0  0  0  0  0  0  0  0  0  0
   23.0818  -11.3113  -19.4164 C   0  0  0  0  0  0  0  0  0  0  0  0
   23.8794  -12.0485  -18.8012 O   0  0  0  0  0  0  0  0  0  0  0  0
   20.8240   -9.8537  -16.7894 C   0  0  0  0  0  0  0  0  0  0  0  0
   19.6712   -9.3039  -17.0442 O   0  0  0  0  0  0  0  0  0  0  0  0
   23.0626  -11.5414  -20.8198 O   0  0  0  0  0  0  0  0  0  0  0  0
   21.4488   -9.3791  -15.6142 N   0  0  0  0  0  0  0  0  0  0  0  0
   22.7689   -9.9066  -15.1654 C   0  0  0  0  0  0  0  0  0  0  0  0
   22.3996  -10.2180  -13.7065 C   0  0  0  0  0  0  0  0  0  0  0  0
   21.7694   -8.8872  -13.3268 C   0  0  0  0  0  0  0  0  0  0  0  0
   21.0964   -8.4076  -14.6303 C   0  0  1  0  0  0  0  0  0  0  0  0
   21.7497   -7.0905  -14.9369 C   0  0  0  0  0  0  0  0  0  0  0  0
   22.6367   -6.9514  -15.8102 O   0  0  0  0  0  0  0  0  0  0  0  0
   21.3598   -5.9690  -14.2251 O   0  0  0  0  0  0  0  0  0  0  0  0
  2  1  1  6
  2  3  1  0
  4  2  1  0
  5  4  2  0
  6  4  1  0
  7 11  1  0
  7  6  1  0
  7  8  1  6
  9 10  2  0
  9  8  1  0
 11 14  1  0
 12 11  2  0
 13  9  1  0
 14 15  1  0
 14 18  1  0
 15 16  1  0
 16 17  1  0
 18 17  1  0
 18 19  1  6
 19 21  1  0
 20 19  2  0
M  END
$$$$
