QFT.pdb
     RDKit          3D

 28 28  0  0  1  0  0  0  0  0999 V2000
    6.8784  -20.1644   21.5900 N   0  0  0  0  0  0  0  0  0  0  0  0
    7.2745  -20.2637   20.2181 C   0  0  0  0  0  0  0  0  0  0  0  0
    6.7295  -21.1848   19.5676 O   0  0  0  0  0  0  0  0  0  0  0  0
    8.2628  -19.3019   19.7124 C   0  0  0  0  0  0  0  0  0  0  0  0
    8.6804  -18.3050   20.7240 C   0  0  0  0  0  0  0  0  0  0  0  0
    8.3209  -16.8763   20.4539 C   0  0  2  0  0  0  0  0  0  0  0  0
    8.9659  -16.3093   19.3052 N   0  0  0  0  0  0  0  0  0  0  0  0
    8.6543  -16.0709   21.6867 C   0  0  0  0  0  0  0  0  0  0  0  0
    9.8288  -15.6812   21.8370 O   0  0  0  0  0  0  0  0  0  0  0  0
    7.6596  -15.7625   22.6529 N   0  0  0  0  0  0  0  0  0  0  0  0
    8.0205  -15.1098   23.8960 C   0  0  1  0  0  0  0  0  0  0  0  0
    6.8111  -14.4956   24.5667 C   0  0  0  0  0  0  0  0  0  0  0  0
    7.1664  -13.7210   25.7760 C   0  0  0  0  0  0  0  0  0  0  0  0
    7.5773  -12.4026   25.7305 C   0  0  0  0  0  0  0  0  0  0  0  0
    7.9045  -11.6962   26.8683 C   0  0  0  0  0  0  0  0  0  0  0  0
    7.8252  -12.3085   28.0998 C   0  0  0  0  0  0  0  0  0  0  0  0
    7.4192  -13.6213   28.1795 C   0  0  0  0  0  0  0  0  0  0  0  0
    7.0960  -14.3078   27.0175 C   0  0  0  0  0  0  0  0  0  0  0  0
    8.5788  -16.1101   24.8386 C   0  0  0  0  0  0  0  0  0  0  0  0
    7.9314  -17.1207   25.2099 O   0  0  0  0  0  0  0  0  0  0  0  0
   11.9039  -17.7388   24.1158 C   0  0  0  0  0  0  0  0  0  0  0  0
   11.8968  -17.3171   25.5490 C   0  0  1  0  0  0  0  0  0  0  0  0
   12.7453  -16.2210   25.6703 O   0  0  0  0  0  0  0  0  0  0  0  0
   10.5149  -17.0123   26.0902 C   0  0  2  0  0  0  0  0  0  0  0  0
    9.8890  -15.9365   25.3501 N   0  0  0  0  0  0  0  0  0  0  0  0
   10.5567  -16.6931   27.5391 C   0  0  0  0  0  0  0  0  0  0  0  0
   10.1839  -15.5761   27.9746 O   0  0  0  0  0  0  0  0  0  0  0  0
   11.0124  -17.6197   28.4861 O   0  0  0  0  0  0  0  0  0  0  0  0
  2  1  1  0
  2  3  2  0
  4  5  1  0
  4  2  1  0
  5  6  1  0
  6  8  1  0
  6  7  1  6
  8  9  2  0
 10 11  1  0
 10  8  1  0
 11 12  1  1
 13 12  1  0
 14 13  2  0
 15 14  1  0
 16 17  1  0
 16 15  2  0
 17 18  2  0
 18 13  1  0
 19 20  2  0
 19 11  1  0
 22 21  1  6
 22 24  1  0
 23 22  1  0
 24 26  1  0
 24 25  1  6
 25 19  1  0
 26 28  1  0
 27 26  2  0
M  END
$$$$
