QFT.pdb
     RDKit          3D

 28 28  0  0  1  0  0  0  0  0999 V2000
   10.3275  -18.5760   16.8331 N   0  0  0  0  0  0  0  0  0  0  0  0
   10.8375  -17.4319   17.5259 C   0  0  0  0  0  0  0  0  0  0  0  0
   10.6005  -16.3275   16.9848 O   0  0  0  0  0  0  0  0  0  0  0  0
   11.5774  -17.6531   18.7753 C   0  0  0  0  0  0  0  0  0  0  0  0
   11.1340  -16.7751   19.8816 C   0  0  0  0  0  0  0  0  0  0  0  0
   10.0597  -17.3083   20.7789 C   0  0  2  0  0  0  0  0  0  0  0  0
    8.7723  -17.4256   20.1579 N   0  0  0  0  0  0  0  0  0  0  0  0
    9.9729  -16.4077   21.9877 C   0  0  0  0  0  0  0  0  0  0  0  0
   11.0334  -16.0693   22.5487 O   0  0  0  0  0  0  0  0  0  0  0  0
    8.7184  -15.9550   22.4769 N   0  0  0  0  0  0  0  0  0  0  0  0
    8.6392  -15.2121   23.7193 C   0  0  1  0  0  0  0  0  0  0  0  0
    7.4000  -14.3448   23.7641 C   0  0  0  0  0  0  0  0  0  0  0  0
    7.2825  -13.5900   25.0310 C   0  0  0  0  0  0  0  0  0  0  0  0
    8.1718  -12.5995   25.4014 C   0  0  0  0  0  0  0  0  0  0  0  0
    8.0464  -11.9064   26.5865 C   0  0  0  0  0  0  0  0  0  0  0  0
    7.0065  -12.1972   27.4420 C   0  0  0  0  0  0  0  0  0  0  0  0
    6.1032  -13.1786   27.1024 C   0  0  0  0  0  0  0  0  0  0  0  0
    6.2542  -13.8601   25.9030 C   0  0  0  0  0  0  0  0  0  0  0  0
    8.5490  -16.1576   24.8588 C   0  0  0  0  0  0  0  0  0  0  0  0
    7.4918  -16.7757   25.1394 O   0  0  0  0  0  0  0  0  0  0  0  0
    9.9660  -19.3314   25.0852 C   0  0  0  0  0  0  0  0  0  0  0  0
   10.4772  -18.6144   26.2920 C   0  0  1  0  0  0  0  0  0  0  0  0
   11.7982  -18.2559   26.0415 O   0  0  0  0  0  0  0  0  0  0  0  0
    9.6422  -17.4145   26.6902 C   0  0  2  0  0  0  0  0  0  0  0  0
    9.6868  -16.3854   25.6725 N   0  0  0  0  0  0  0  0  0  0  0  0
   10.0670  -16.8681   28.0032 C   0  0  0  0  0  0  0  0  0  0  0  0
   10.4726  -15.6857   28.1202 O   0  0  0  0  0  0  0  0  0  0  0  0
   10.0356  -17.6430   29.1700 O   0  0  0  0  0  0  0  0  0  0  0  0
  2  1  1  0
  2  3  2  0
  4  5  1  0
  4  2  1  0
  5  6  1  0
  6  8  1  0
  6  7  1  6
  8  9  2  0
 10 11  1  0
 10  8  1  0
 11 12  1  6
 13 12  1  0
 14 13  2  0
 15 14  1  0
 16 17  1  0
 16 15  2  0
 17 18  2  0
 18 13  1  0
 19 20  2  0
 19 11  1  0
 22 21  1  6
 22 24  1  0
 23 22  1  0
 24 26  1  0
 24 25  1  6
 25 19  1  0
 26 28  1  0
 27 26  2  0
M  END
$$$$
