QFT.pdb
     RDKit          3D

 28 28  0  0  1  0  0  0  0  0999 V2000
    9.0841  -17.0480   17.9042 N   0  0  0  0  0  0  0  0  0  0  0  0
    8.1705  -16.1445   17.2733 C   0  0  0  0  0  0  0  0  0  0  0  0
    7.8961  -16.4058   16.0795 O   0  0  0  0  0  0  0  0  0  0  0  0
    7.6543  -15.0192   18.0635 C   0  0  0  0  0  0  0  0  0  0  0  0
    8.0570  -15.0698   19.4871 C   0  0  0  0  0  0  0  0  0  0  0  0
    7.5830  -13.9519   20.3640 C   0  0  2  0  0  0  0  0  0  0  0  0
    7.9044  -12.6408   19.8795 N   0  0  0  0  0  0  0  0  0  0  0  0
    8.1725  -14.1562   21.7389 C   0  0  0  0  0  0  0  0  0  0  0  0
    9.3534  -13.8068   21.9323 O   0  0  0  0  0  0  0  0  0  0  0  0
    7.4062  -14.7309   22.7879 N   0  0  0  0  0  0  0  0  0  0  0  0
    7.9906  -14.9321   24.0993 C   0  0  1  0  0  0  0  0  0  0  0  0
    6.9569  -14.7736   25.1929 C   0  0  0  0  0  0  0  0  0  0  0  0
    6.9614  -13.4176   25.7845 C   0  0  0  0  0  0  0  0  0  0  0  0
    5.8082  -12.7618   26.1705 C   0  0  0  0  0  0  0  0  0  0  0  0
    5.8318  -11.4977   26.7202 C   0  0  0  0  0  0  0  0  0  0  0  0
    7.0355  -10.8517   26.8981 C   0  0  0  0  0  0  0  0  0  0  0  0
    8.2027  -11.4777   26.5239 C   0  0  0  0  0  0  0  0  0  0  0  0
    8.1488  -12.7503   25.9731 C   0  0  0  0  0  0  0  0  0  0  0  0
    8.5213  -16.3137   24.2002 C   0  0  0  0  0  0  0  0  0  0  0  0
    7.7867  -17.3272   24.0928 O   0  0  0  0  0  0  0  0  0  0  0  0
   11.2955  -17.9212   22.1737 C   0  0  0  0  0  0  0  0  0  0  0  0
   11.6114  -18.0757   23.6256 C   0  0  1  0  0  0  0  0  0  0  0  0
   12.6446  -17.1942   23.9285 O   0  0  0  0  0  0  0  0  0  0  0  0
   10.4190  -17.8676   24.5368 C   0  0  2  0  0  0  0  0  0  0  0  0
    9.9054  -16.5182   24.4260 N   0  0  0  0  0  0  0  0  0  0  0  0
   10.7512  -18.1849   25.9481 C   0  0  0  0  0  0  0  0  0  0  0  0
   10.6787  -17.3141   26.8496 O   0  0  0  0  0  0  0  0  0  0  0  0
   11.1601  -19.4664   26.3399 O   0  0  0  0  0  0  0  0  0  0  0  0
  2  1  1  0
  2  3  2  0
  4  5  1  0
  4  2  1  0
  5  6  1  0
  6  8  1  0
  6  7  1  6
  8  9  2  0
 10 11  1  0
 10  8  1  0
 11 12  1  1
 13 12  1  0
 14 13  2  0
 15 14  1  0
 16 17  1  0
 16 15  2  0
 17 18  2  0
 18 13  1  0
 19 20  2  0
 19 11  1  0
 22 21  1  6
 22 24  1  0
 23 22  1  0
 24 26  1  0
 24 25  1  1
 25 19  1  0
 26 28  1  0
 27 26  2  0
M  END
$$$$
