QFT.pdb
     RDKit          3D

 28 28  0  0  1  0  0  0  0  0999 V2000
    8.8044  -18.9620   16.9066 N   0  0  0  0  0  0  0  0  0  0  0  0
    9.1414  -17.6587   17.3931 C   0  0  0  0  0  0  0  0  0  0  0  0
    8.3154  -16.7560   17.1254 O   0  0  0  0  0  0  0  0  0  0  0  0
   10.3963  -17.5026   18.1403 C   0  0  0  0  0  0  0  0  0  0  0  0
   10.2439  -16.7113   19.3820 C   0  0  0  0  0  0  0  0  0  0  0  0
    9.7121  -17.4324   20.5824 C   0  0  2  0  0  0  0  0  0  0  0  0
    8.4024  -17.9900   20.4072 N   0  0  0  0  0  0  0  0  0  0  0  0
    9.7148  -16.4682   21.7442 C   0  0  0  0  0  0  0  0  0  0  0  0
   10.7943  -15.9336   22.0647 O   0  0  0  0  0  0  0  0  0  0  0  0
    8.5214  -16.1744   22.4567 N   0  0  0  0  0  0  0  0  0  0  0  0
    8.5572  -15.3245   23.6306 C   0  0  1  0  0  0  0  0  0  0  0  0
    7.2986  -14.4926   23.7466 C   0  0  0  0  0  0  0  0  0  0  0  0
    7.2989  -13.6293   24.9481 C   0  0  0  0  0  0  0  0  0  0  0  0
    8.1899  -12.5884   25.1257 C   0  0  0  0  0  0  0  0  0  0  0  0
    8.1753  -11.7941   26.2525 C   0  0  0  0  0  0  0  0  0  0  0  0
    7.2491  -12.0312   27.2443 C   0  0  0  0  0  0  0  0  0  0  0  0
    6.3474  -13.0607   27.0979 C   0  0  0  0  0  0  0  0  0  0  0  0
    6.3853  -13.8440   25.9530 C   0  0  0  0  0  0  0  0  0  0  0  0
    8.6361  -16.1651   24.8504 C   0  0  0  0  0  0  0  0  0  0  0  0
    7.7014  -16.9253   25.2065 O   0  0  0  0  0  0  0  0  0  0  0  0
   10.7594  -18.9404   25.2204 C   0  0  0  0  0  0  0  0  0  0  0  0
   11.0559  -18.0823   26.4067 C   0  0  1  0  0  0  0  0  0  0  0  0
   12.2733  -17.4492   26.1754 O   0  0  0  0  0  0  0  0  0  0  0  0
    9.9628  -17.0836   26.7280 C   0  0  2  0  0  0  0  0  0  0  0  0
    9.8009  -16.1229   25.6567 N   0  0  0  0  0  0  0  0  0  0  0  0
   10.2205  -16.3909   28.0151 C   0  0  0  0  0  0  0  0  0  0  0  0
   10.3779  -15.1464   28.0690 O   0  0  0  0  0  0  0  0  0  0  0  0
   10.3000  -17.0902   29.2265 O   0  0  0  0  0  0  0  0  0  0  0  0
  2  1  1  0
  2  3  2  0
  4  5  1  0
  4  2  1  0
  5  6  1  0
  6  8  1  0
  6  7  1  6
  8  9  2  0
 10 11  1  0
 10  8  1  0
 11 12  1  1
 13 12  1  0
 14 13  2  0
 15 14  1  0
 16 17  1  0
 16 15  2  0
 17 18  2  0
 18 13  1  0
 19 20  2  0
 19 11  1  0
 22 21  1  6
 22 24  1  0
 23 22  1  0
 24 26  1  0
 24 25  1  6
 25 19  1  0
 26 28  1  0
 27 26  2  0
M  END
$$$$
