QFT.pdb
     RDKit          3D

 28 28  0  0  1  0  0  0  0  0999 V2000
    8.4380  -12.3325   17.7578 N   0  0  0  0  0  0  0  0  0  0  0  0
    8.2297  -13.6967   17.3777 C   0  0  0  0  0  0  0  0  0  0  0  0
    8.2824  -13.9248   16.1474 O   0  0  0  0  0  0  0  0  0  0  0  0
    7.9757  -14.6793   18.4395 C   0  0  0  0  0  0  0  0  0  0  0  0
    9.1683  -15.4824   18.7916 C   0  0  0  0  0  0  0  0  0  0  0  0
    9.0065  -16.4872   19.8906 C   0  0  2  0  0  0  0  0  0  0  0  0
    7.7807  -17.2300   19.8394 N   0  0  0  0  0  0  0  0  0  0  0  0
    9.1171  -15.7583   21.2082 C   0  0  0  0  0  0  0  0  0  0  0  0
   10.1988  -15.2054   21.4875 O   0  0  0  0  0  0  0  0  0  0  0  0
    8.0205  -15.7011   22.1095 N   0  0  0  0  0  0  0  0  0  0  0  0
    8.1596  -15.0454   23.3949 C   0  0  1  0  0  0  0  0  0  0  0  0
    6.8883  -14.3237   23.7854 C   0  0  0  0  0  0  0  0  0  0  0  0
    7.0121  -13.6184   25.0799 C   0  0  0  0  0  0  0  0  0  0  0  0
    6.3891  -14.0514   26.2347 C   0  0  0  0  0  0  0  0  0  0  0  0
    6.5159  -13.3809   27.4326 C   0  0  0  0  0  0  0  0  0  0  0  0
    7.2848  -12.2398   27.4995 C   0  0  0  0  0  0  0  0  0  0  0  0
    7.9187  -11.7820   26.3668 C   0  0  0  0  0  0  0  0  0  0  0  0
    7.7733  -12.4772   25.1746 C   0  0  0  0  0  0  0  0  0  0  0  0
    8.4229  -16.0603   24.4445 C   0  0  0  0  0  0  0  0  0  0  0  0
    7.6331  -17.0090   24.6775 O   0  0  0  0  0  0  0  0  0  0  0  0
   10.7976  -18.5440   24.2980 C   0  0  0  0  0  0  0  0  0  0  0  0
   11.0878  -17.8783   25.6035 C   0  0  1  0  0  0  0  0  0  0  0  0
   12.2380  -17.1124   25.4398 O   0  0  0  0  0  0  0  0  0  0  0  0
    9.9382  -17.0471   26.1354 C   0  0  2  0  0  0  0  0  0  0  0  0
    9.6037  -15.9731   25.2234 N   0  0  0  0  0  0  0  0  0  0  0  0
   10.2352  -16.5101   27.4868 C   0  0  0  0  0  0  0  0  0  0  0  0
   10.2783  -15.2745   27.7056 O   0  0  0  0  0  0  0  0  0  0  0  0
   10.4806  -17.3533   28.5784 O   0  0  0  0  0  0  0  0  0  0  0  0
  2  1  1  0
  2  3  2  0
  4  5  1  0
  4  2  1  0
  5  6  1  0
  6  8  1  0
  6  7  1  6
  8  9  2  0
 10 11  1  0
 10  8  1  0
 11 12  1  1
 13 12  1  0
 14 13  2  0
 15 14  1  0
 16 17  1  0
 16 15  2  0
 17 18  2  0
 18 13  1  0
 19 20  2  0
 19 11  1  0
 22 21  1  6
 22 24  1  0
 23 22  1  0
 24 26  1  0
 24 25  1  6
 25 19  1  0
 26 28  1  0
 27 26  2  0
M  END
$$$$
