QFT.pdb
     RDKit          3D

 28 28  0  0  1  0  0  0  0  0999 V2000
   10.8713  -20.9860   20.1813 N   0  0  0  0  0  0  0  0  0  0  0  0
   10.5061  -20.0247   19.1856 C   0  0  0  0  0  0  0  0  0  0  0  0
    9.8484  -20.4760   18.2201 O   0  0  0  0  0  0  0  0  0  0  0  0
   10.9293  -18.6318   19.3812 C   0  0  0  0  0  0  0  0  0  0  0  0
   10.4966  -18.0651   20.6785 C   0  0  0  0  0  0  0  0  0  0  0  0
    9.3472  -17.1051   20.6473 C   0  0  2  0  0  0  0  0  0  0  0  0
    9.2791  -16.2996   19.4627 N   0  0  0  0  0  0  0  0  0  0  0  0
    9.4429  -16.2239   21.8696 C   0  0  0  0  0  0  0  0  0  0  0  0
   10.5750  -15.9635   22.3220 O   0  0  0  0  0  0  0  0  0  0  0  0
    8.2769  -15.7026   22.4915 N   0  0  0  0  0  0  0  0  0  0  0  0
    8.3778  -14.9457   23.7239 C   0  0  1  0  0  0  0  0  0  0  0  0
    7.1236  -14.1382   23.9782 C   0  0  0  0  0  0  0  0  0  0  0  0
    7.2150  -13.3223   25.2088 C   0  0  0  0  0  0  0  0  0  0  0  0
    6.4121  -13.5346   26.3130 C   0  0  0  0  0  0  0  0  0  0  0  0
    6.5115  -12.7638   27.4517 C   0  0  0  0  0  0  0  0  0  0  0  0
    7.4360  -11.7440   27.5087 C   0  0  0  0  0  0  0  0  0  0  0  0
    8.2512  -11.5066   26.4254 C   0  0  0  0  0  0  0  0  0  0  0  0
    8.1290  -12.2984   25.2923 C   0  0  0  0  0  0  0  0  0  0  0  0
    8.5340  -15.8773   24.8678 C   0  0  0  0  0  0  0  0  0  0  0  0
    7.6569  -16.7236   25.1722 O   0  0  0  0  0  0  0  0  0  0  0  0
   10.7469  -18.6227   25.1152 C   0  0  0  0  0  0  0  0  0  0  0  0
   11.0516  -17.7655   26.3003 C   0  0  1  0  0  0  0  0  0  0  0  0
   12.2251  -17.0696   26.0268 O   0  0  0  0  0  0  0  0  0  0  0  0
    9.9254  -16.8267   26.6821 C   0  0  2  0  0  0  0  0  0  0  0  0
    9.7092  -15.8258   25.6583 N   0  0  0  0  0  0  0  0  0  0  0  0
   10.1758  -16.1833   27.9959 C   0  0  0  0  0  0  0  0  0  0  0  0
   10.2339  -14.9346   28.1130 O   0  0  0  0  0  0  0  0  0  0  0  0
   10.3585  -16.9359   29.1634 O   0  0  0  0  0  0  0  0  0  0  0  0
  2  1  1  0
  2  3  2  0
  4  5  1  0
  4  2  1  0
  5  6  1  0
  6  8  1  0
  6  7  1  6
  8  9  2  0
 10 11  1  0
 10  8  1  0
 11 12  1  1
 13 12  1  0
 14 13  2  0
 15 14  1  0
 16 17  1  0
 16 15  2  0
 17 18  2  0
 18 13  1  0
 19 20  2  0
 19 11  1  0
 22 21  1  6
 22 24  1  0
 23 22  1  0
 24 26  1  0
 24 25  1  6
 25 19  1  0
 26 28  1  0
 27 26  2  0
M  END
$$$$
