QFT.pdb
     RDKit          3D

 28 28  0  0  1  0  0  0  0  0999 V2000
    8.3118  -12.6164   17.1289 N   0  0  0  0  0  0  0  0  0  0  0  0
    8.2423  -13.8989   16.4970 C   0  0  0  0  0  0  0  0  0  0  0  0
    7.7280  -13.9072   15.3551 O   0  0  0  0  0  0  0  0  0  0  0  0
    8.7644  -15.0599   17.2298 C   0  0  0  0  0  0  0  0  0  0  0  0
    9.2743  -14.7208   18.5775 C   0  0  0  0  0  0  0  0  0  0  0  0
    9.2176  -15.8011   19.6135 C   0  0  2  0  0  0  0  0  0  0  0  0
    8.0741  -16.6607   19.5121 N   0  0  0  0  0  0  0  0  0  0  0  0
    9.2553  -15.1454   20.9730 C   0  0  0  0  0  0  0  0  0  0  0  0
   10.2492  -14.4527   21.2666 O   0  0  0  0  0  0  0  0  0  0  0  0
    8.1888  -15.3101   21.8969 N   0  0  0  0  0  0  0  0  0  0  0  0
    8.3022  -14.7980   23.2484 C   0  0  1  0  0  0  0  0  0  0  0  0
    7.0295  -14.1043   23.6829 C   0  0  0  0  0  0  0  0  0  0  0  0
    7.1272  -13.5451   25.0491 C   0  0  0  0  0  0  0  0  0  0  0  0
    6.4755  -14.0965   26.1355 C   0  0  0  0  0  0  0  0  0  0  0  0
    6.5783  -13.5615   27.4020 C   0  0  0  0  0  0  0  0  0  0  0  0
    7.3516  -12.4405   27.6101 C   0  0  0  0  0  0  0  0  0  0  0  0
    8.0139  -11.8670   26.5485 C   0  0  0  0  0  0  0  0  0  0  0  0
    7.8922  -12.4271   25.2847 C   0  0  0  0  0  0  0  0  0  0  0  0
    8.5264  -15.9231   24.1889 C   0  0  0  0  0  0  0  0  0  0  0  0
    7.7680  -16.9236   24.2357 O   0  0  0  0  0  0  0  0  0  0  0  0
   11.7914  -18.8005   26.1675 C   0  0  0  0  0  0  0  0  0  0  0  0
   11.3239  -17.6257   25.3721 C   0  0  1  0  0  0  0  0  0  0  0  0
   11.2927  -18.0075   24.0344 O   0  0  0  0  0  0  0  0  0  0  0  0
    9.9868  -17.0741   25.8234 C   0  0  2  0  0  0  0  0  0  0  0  0
    9.6318  -15.8863   25.0752 N   0  0  0  0  0  0  0  0  0  0  0  0
    9.9781  -16.7943   27.2809 C   0  0  0  0  0  0  0  0  0  0  0  0
   10.1330  -15.6303   27.7252 O   0  0  0  0  0  0  0  0  0  0  0  0
    9.7974  -17.8121   28.2267 O   0  0  0  0  0  0  0  0  0  0  0  0
  2  1  1  0
  2  3  2  0
  4  5  1  0
  4  2  1  0
  5  6  1  0
  6  8  1  0
  6  7  1  1
  8  9  2  0
 10 11  1  0
 10  8  1  0
 11 12  1  1
 13 12  1  0
 14 13  2  0
 15 14  1  0
 16 17  1  0
 16 15  2  0
 17 18  2  0
 18 13  1  0
 19 20  2  0
 19 11  1  0
 22 21  1  1
 22 24  1  0
 23 22  1  0
 24 26  1  0
 24 25  1  6
 25 19  1  0
 26 28  1  0
 27 26  2  0
M  END
$$$$
