QFT.pdb
     RDKit          3D

 28 28  0  0  1  0  0  0  0  0999 V2000
   13.3605  -18.3790   19.4738 N   0  0  0  0  0  0  0  0  0  0  0  0
   12.4407  -18.5087   18.3847 C   0  0  0  0  0  0  0  0  0  0  0  0
   12.7889  -19.3019   17.4802 O   0  0  0  0  0  0  0  0  0  0  0  0
   11.2048  -17.7160   18.4252 C   0  0  0  0  0  0  0  0  0  0  0  0
   11.0312  -16.9665   19.6899 C   0  0  0  0  0  0  0  0  0  0  0  0
    9.9253  -17.4150   20.5953 C   0  0  2  0  0  0  0  0  0  0  0  0
    8.6478  -17.5382   19.9551 N   0  0  0  0  0  0  0  0  0  0  0  0
    9.8385  -16.4386   21.7437 C   0  0  0  0  0  0  0  0  0  0  0  0
   10.9003  -15.9902   22.2183 O   0  0  0  0  0  0  0  0  0  0  0  0
    8.5825  -16.0382   22.2730 N   0  0  0  0  0  0  0  0  0  0  0  0
    8.5150  -15.2496   23.4876 C   0  0  1  0  0  0  0  0  0  0  0  0
    7.2332  -14.4482   23.5532 C   0  0  0  0  0  0  0  0  0  0  0  0
    7.1553  -13.6024   24.7645 C   0  0  0  0  0  0  0  0  0  0  0  0
    7.8917  -12.4438   24.9211 C   0  0  0  0  0  0  0  0  0  0  0  0
    7.8063  -11.6679   26.0574 C   0  0  0  0  0  0  0  0  0  0  0  0
    6.9643  -12.0444   27.0808 C   0  0  0  0  0  0  0  0  0  0  0  0
    6.2169  -13.1934   26.9560 C   0  0  0  0  0  0  0  0  0  0  0  0
    6.3232  -13.9550   25.8008 C   0  0  0  0  0  0  0  0  0  0  0  0
    8.5249  -16.1505   24.6662 C   0  0  0  0  0  0  0  0  0  0  0  0
    7.5869  -16.9495   24.9114 O   0  0  0  0  0  0  0  0  0  0  0  0
   10.8368  -18.7780   24.9900 C   0  0  0  0  0  0  0  0  0  0  0  0
   10.9247  -18.0585   26.2962 C   0  0  1  0  0  0  0  0  0  0  0  0
   12.1251  -17.3548   26.3102 O   0  0  0  0  0  0  0  0  0  0  0  0
    9.7449  -17.1495   26.5747 C   0  0  2  0  0  0  0  0  0  0  0  0
    9.6244  -16.1235   25.5600 N   0  0  0  0  0  0  0  0  0  0  0  0
    9.8353  -16.5397   27.9248 C   0  0  0  0  0  0  0  0  0  0  0  0
    9.9531  -15.2989   28.0764 O   0  0  0  0  0  0  0  0  0  0  0  0
    9.7935  -17.3167   29.0899 O   0  0  0  0  0  0  0  0  0  0  0  0
  2  1  1  0
  2  3  2  0
  4  5  1  0
  4  2  1  0
  5  6  1  0
  6  8  1  0
  6  7  1  6
  8  9  2  0
 10 11  1  0
 10  8  1  0
 11 12  1  6
 13 12  1  0
 14 13  2  0
 15 14  1  0
 16 17  1  0
 16 15  2  0
 17 18  2  0
 18 13  1  0
 19 20  2  0
 19 11  1  0
 22 21  1  6
 22 24  1  0
 23 22  1  0
 24 26  1  0
 24 25  1  6
 25 19  1  0
 26 28  1  0
 27 26  2  0
M  END
$$$$
