MTN.pdb
     RDKit          3D

 24 23  0  0  1  0  0  0  0  0999 V2000
    7.0180  -11.2030   27.4686 C   0  0  0  0  0  0  0  0  0  0  0  0
    7.3142  -12.3277   26.0972 S   0  0  0  0  0  0  0  0  0  0  0  0
    6.3050  -13.8112   26.1844 C   0  0  0  0  0  0  0  0  0  0  0  0
    6.5625  -14.7338   25.0107 C   0  0  0  0  0  0  0  0  0  0  0  0
    7.9481  -14.5879   24.4649 C   0  0  2  0  0  0  0  0  0  0  0  0
    7.8909  -13.7907   23.2595 N   0  0  0  0  0  0  0  0  0  0  0  0
    8.6019  -15.9050   24.2118 C   0  0  0  0  0  0  0  0  0  0  0  0
    8.6498  -16.7281   25.1367 O   0  0  0  0  0  0  0  0  0  0  0  0
    8.5673  -17.8356   20.5576 C   0  0  0  0  0  0  0  0  0  0  0  0
    9.9012  -17.7079   21.2116 C   0  0  1  0  0  0  0  0  0  0  0  0
   10.6876  -16.7020   20.6480 O   0  0  0  0  0  0  0  0  0  0  0  0
    9.8377  -17.4835   22.6894 C   0  0  2  0  0  0  0  0  0  0  0  0
    9.1599  -16.2138   22.9367 N   0  0  0  0  0  0  0  0  0  0  0  0
   11.2382  -17.3341   23.1888 C   0  0  0  0  0  0  0  0  0  0  0  0
   11.6623  -16.2545   23.6957 O   0  0  0  0  0  0  0  0  0  0  0  0
   13.1183  -19.2101   27.4523 N   0  0  0  0  0  0  0  0  0  0  0  0
   12.6849  -20.1054   26.4098 C   0  0  0  0  0  0  0  0  0  0  0  0
   12.9861  -21.3060   26.5528 O   0  0  0  0  0  0  0  0  0  0  0  0
   11.9303  -19.5279   25.2766 C   0  0  0  0  0  0  0  0  0  0  0  0
   12.8793  -18.9014   24.3162 C   0  0  2  0  0  0  0  0  0  0  0  0
   12.1749  -18.4024   23.1213 N   0  0  0  0  0  0  0  0  0  0  0  0
   13.8315  -19.9179   23.8080 C   0  0  0  0  0  0  0  0  0  0  0  0
   13.5108  -20.7873   22.9471 O   0  0  0  0  0  0  0  0  0  0  0  0
   15.1688  -19.9906   24.2479 O   0  0  0  0  0  0  0  0  0  0  0  0
  1  2  1  0
  2  3  1  0
  4  5  1  0
  4  3  1  0
  5  6  1  6
  7  5  1  0
  8  7  2  0
 10  9  1  6
 10 11  1  0
 10 12  1  0
 12 14  1  0
 12 13  1  6
 13  7  1  0
 14 15  2  0
 16 17  1  0
 17 19  1  0
 18 17  2  0
 20 19  1  1
 21 20  1  0
 21 14  1  0
 22 20  1  0
 23 22  2  0
 24 22  1  0
M  END
$$$$
