MTN.pdb
     RDKit          3D

 24 23  0  0  1  0  0  0  0  0999 V2000
    7.6008  -11.3351   26.3049 C   0  0  0  0  0  0  0  0  0  0  0  0
    6.6523  -12.5574   27.2213 S   0  0  0  0  0  0  0  0  0  0  0  0
    6.8755  -14.2251   26.5921 C   0  0  0  0  0  0  0  0  0  0  0  0
    6.5782  -14.3087   25.1089 C   0  0  0  0  0  0  0  0  0  0  0  0
    6.3891  -15.7186   24.6446 C   0  0  2  0  0  0  0  0  0  0  0  0
    5.7260  -16.4667   25.6897 N   0  0  0  0  0  0  0  0  0  0  0  0
    7.6745  -16.3649   24.2491 C   0  0  0  0  0  0  0  0  0  0  0  0
    8.1572  -17.2265   24.9974 O   0  0  0  0  0  0  0  0  0  0  0  0
    8.4494  -16.7589   20.2265 C   0  0  0  0  0  0  0  0  0  0  0  0
    9.6372  -16.4506   21.0735 C   0  0  1  0  0  0  0  0  0  0  0  0
   10.0430  -15.1188   20.9745 O   0  0  0  0  0  0  0  0  0  0  0  0
    9.4571  -16.7816   22.5213 C   0  0  2  0  0  0  0  0  0  0  0  0
    8.3355  -16.0027   23.0389 N   0  0  0  0  0  0  0  0  0  0  0  0
   10.6788  -16.3228   23.2496 C   0  0  0  0  0  0  0  0  0  0  0  0
   10.7486  -15.1853   23.8005 O   0  0  0  0  0  0  0  0  0  0  0  0
   12.3557  -19.6869   25.9801 N   0  0  0  0  0  0  0  0  0  0  0  0
   12.7879  -18.3126   25.9521 C   0  0  0  0  0  0  0  0  0  0  0  0
   12.3969  -17.5919   26.8903 O   0  0  0  0  0  0  0  0  0  0  0  0
   13.6466  -17.8842   24.8268 C   0  0  0  0  0  0  0  0  0  0  0  0
   13.0181  -16.7249   24.1364 C   0  0  2  0  0  0  0  0  0  0  0  0
   11.8348  -17.1437   23.3636 N   0  0  0  0  0  0  0  0  0  0  0  0
   13.9554  -16.1622   23.1348 C   0  0  0  0  0  0  0  0  0  0  0  0
   13.7805  -16.2846   21.8881 O   0  0  0  0  0  0  0  0  0  0  0  0
   15.1141  -15.4468   23.4991 O   0  0  0  0  0  0  0  0  0  0  0  0
  1  2  1  0
  2  3  1  0
  4  5  1  0
  4  3  1  0
  5  6  1  1
  7  5  1  0
  8  7  2  0
 10  9  1  6
 10 11  1  0
 10 12  1  0
 12 14  1  0
 12 13  1  1
 13  7  1  0
 14 15  2  0
 16 17  1  0
 17 19  1  0
 18 17  2  0
 20 19  1  6
 21 20  1  0
 21 14  1  0
 22 20  1  0
 23 22  2  0
 24 22  1  0
M  END
$$$$
