MTN.pdb
     RDKit          3D

 24 23  0  0  1  0  0  0  0  0999 V2000
    7.1357  -10.9438   26.4663 C   0  0  0  0  0  0  0  0  0  0  0  0
    6.4927  -12.5660   26.9005 S   0  0  0  0  0  0  0  0  0  0  0  0
    7.4134  -13.9059   26.1365 C   0  0  0  0  0  0  0  0  0  0  0  0
    6.8462  -15.2600   26.5106 C   0  0  0  0  0  0  0  0  0  0  0  0
    6.4443  -16.0601   25.3117 C   0  0  2  0  0  0  0  0  0  0  0  0
    5.7988  -17.2746   25.7590 N   0  0  0  0  0  0  0  0  0  0  0  0
    7.5981  -16.3597   24.4144 C   0  0  0  0  0  0  0  0  0  0  0  0
    8.4307  -17.1999   24.7833 O   0  0  0  0  0  0  0  0  0  0  0  0
    7.2385  -15.2856   20.3618 C   0  0  0  0  0  0  0  0  0  0  0  0
    8.6040  -15.2749   20.9606 C   0  0  1  0  0  0  0  0  0  0  0  0
    9.0517  -13.9891   21.2675 O   0  0  0  0  0  0  0  0  0  0  0  0
    8.7409  -16.1255   22.1838 C   0  0  2  0  0  0  0  0  0  0  0  0
    7.7433  -15.6970   23.1604 N   0  0  0  0  0  0  0  0  0  0  0  0
   10.0825  -15.8512   22.7824 C   0  0  0  0  0  0  0  0  0  0  0  0
   10.3211  -14.8036   23.4517 O   0  0  0  0  0  0  0  0  0  0  0  0
   11.5857  -19.5657   24.7090 N   0  0  0  0  0  0  0  0  0  0  0  0
   12.3183  -18.3381   24.8893 C   0  0  0  0  0  0  0  0  0  0  0  0
   12.2500  -17.8154   26.0183 O   0  0  0  0  0  0  0  0  0  0  0  0
   13.0771  -17.8136   23.7334 C   0  0  0  0  0  0  0  0  0  0  0  0
   12.4716  -16.5306   23.2832 C   0  0  2  0  0  0  0  0  0  0  0  0
   11.1688  -16.7570   22.6318 N   0  0  0  0  0  0  0  0  0  0  0  0
   13.3220  -15.9065   22.2412 C   0  0  0  0  0  0  0  0  0  0  0  0
   14.4854  -15.4698   22.4772 O   0  0  0  0  0  0  0  0  0  0  0  0
   12.8955  -15.7535   20.9063 O   0  0  0  0  0  0  0  0  0  0  0  0
  1  2  1  0
  2  3  1  0
  4  5  1  0
  4  3  1  0
  5  6  1  1
  7  5  1  0
  8  7  2  0
 10  9  1  1
 10 11  1  0
 10 12  1  0
 12 14  1  0
 12 13  1  1
 13  7  1  0
 14 15  2  0
 16 17  1  0
 17 19  1  0
 18 17  2  0
 20 19  1  6
 21 20  1  0
 21 14  1  0
 22 20  1  0
 23 22  2  0
 24 22  1  0
M  END
$$$$
