MTN.pdb
     RDKit          3D

 24 23  0  0  1  0  0  0  0  0999 V2000
    6.7527  -11.2167   28.0285 C   0  0  0  0  0  0  0  0  0  0  0  0
    7.0656  -12.0132   26.4470 S   0  0  0  0  0  0  0  0  0  0  0  0
    6.0317  -13.4577   26.1795 C   0  0  0  0  0  0  0  0  0  0  0  0
    6.3090  -14.1043   24.8378 C   0  0  0  0  0  0  0  0  0  0  0  0
    7.7653  -14.1008   24.4939 C   0  0  2  0  0  0  0  0  0  0  0  0
    7.9868  -13.1565   23.4211 N   0  0  0  0  0  0  0  0  0  0  0  0
    8.2681  -15.4582   24.1322 C   0  0  0  0  0  0  0  0  0  0  0  0
    7.9952  -16.4078   24.8799 O   0  0  0  0  0  0  0  0  0  0  0  0
    8.8244  -16.7723   20.2094 C   0  0  0  0  0  0  0  0  0  0  0  0
    9.9588  -16.9644   21.1577 C   0  0  1  0  0  0  0  0  0  0  0  0
   10.9668  -16.0123   20.9977 O   0  0  0  0  0  0  0  0  0  0  0  0
    9.5541  -16.9841   22.5979 C   0  0  2  0  0  0  0  0  0  0  0  0
    9.0450  -15.6626   22.9544 N   0  0  0  0  0  0  0  0  0  0  0  0
   10.7847  -17.2118   23.4146 C   0  0  0  0  0  0  0  0  0  0  0  0
   11.4302  -16.2592   23.9421 O   0  0  0  0  0  0  0  0  0  0  0  0
   11.4927  -17.8042   26.8572 N   0  0  0  0  0  0  0  0  0  0  0  0
   11.5159  -19.2418   26.7620 C   0  0  0  0  0  0  0  0  0  0  0  0
   11.0418  -19.8666   27.7303 O   0  0  0  0  0  0  0  0  0  0  0  0
   12.0927  -19.8413   25.5394 C   0  0  0  0  0  0  0  0  0  0  0  0
   12.4228  -18.7641   24.5667 C   0  0  2  0  0  0  0  0  0  0  0  0
   11.2995  -18.5177   23.6445 N   0  0  0  0  0  0  0  0  0  0  0  0
   13.5482  -19.1904   23.7006 C   0  0  0  0  0  0  0  0  0  0  0  0
   13.3891  -19.9200   22.6797 O   0  0  0  0  0  0  0  0  0  0  0  0
   14.8830  -18.8126   23.9517 O   0  0  0  0  0  0  0  0  0  0  0  0
  1  2  1  0
  2  3  1  0
  4  5  1  0
  4  3  1  0
  5  6  1  6
  7  5  1  0
  8  7  2  0
 10  9  1  6
 10 11  1  0
 10 12  1  0
 12 14  1  0
 12 13  1  1
 13  7  1  0
 14 15  2  0
 16 17  1  0
 17 19  1  0
 18 17  2  0
 20 19  1  1
 21 20  1  0
 21 14  1  0
 22 20  1  0
 23 22  2  0
 24 22  1  0
M  END
$$$$
