MTN.pdb
     RDKit          3D

 24 23  0  0  1  0  0  0  0  0999 V2000
    7.5674  -10.8292   19.7705 C   0  0  0  0  0  0  0  0  0  0  0  0
    7.2657  -12.5553   19.3668 S   0  0  0  0  0  0  0  0  0  0  0  0
    8.5208  -13.6546   20.0325 C   0  0  0  0  0  0  0  0  0  0  0  0
    8.2487  -15.1002   19.6700 C   0  0  0  0  0  0  0  0  0  0  0  0
    9.2603  -16.0343   20.2558 C   0  0  2  0  0  0  0  0  0  0  0  0
    8.9406  -17.3831   19.8432 N   0  0  0  0  0  0  0  0  0  0  0  0
    9.3401  -15.9279   21.7419 C   0  0  0  0  0  0  0  0  0  0  0  0
    9.6455  -14.8353   22.2403 O   0  0  0  0  0  0  0  0  0  0  0  0
    6.7022  -16.6954   24.4215 C   0  0  0  0  0  0  0  0  0  0  0  0
    7.9140  -17.5418   24.6177 C   0  0  1  0  0  0  0  0  0  0  0  0
    7.7547  -18.8391   24.1283 O   0  0  0  0  0  0  0  0  0  0  0  0
    9.1628  -16.9662   24.0282 C   0  0  2  0  0  0  0  0  0  0  0  0
    9.0720  -17.0546   22.5733 N   0  0  0  0  0  0  0  0  0  0  0  0
   10.3063  -17.8325   24.4467 C   0  0  0  0  0  0  0  0  0  0  0  0
   10.5714  -18.9263   23.8673 O   0  0  0  0  0  0  0  0  0  0  0  0
   14.2103  -15.6940   24.3962 N   0  0  0  0  0  0  0  0  0  0  0  0
   13.9193  -17.0901   24.6024 C   0  0  0  0  0  0  0  0  0  0  0  0
   13.9920  -17.8233   23.5975 O   0  0  0  0  0  0  0  0  0  0  0  0
   13.5647  -17.5242   25.9709 C   0  0  0  0  0  0  0  0  0  0  0  0
   12.3035  -18.3136   25.9300 C   0  0  2  0  0  0  0  0  0  0  0  0
   11.1627  -17.4729   25.5239 N   0  0  0  0  0  0  0  0  0  0  0  0
   11.9634  -18.7969   27.2898 C   0  0  0  0  0  0  0  0  0  0  0  0
   10.9283  -18.4206   27.9119 O   0  0  0  0  0  0  0  0  0  0  0  0
   12.7710  -19.7145   27.9920 O   0  0  0  0  0  0  0  0  0  0  0  0
  1  2  1  0
  2  3  1  0
  4  5  1  0
  4  3  1  0
  5  6  1  1
  7  5  1  0
  8  7  2  0
 10  9  1  6
 10 11  1  0
 10 12  1  0
 12 14  1  0
 12 13  1  6
 13  7  1  0
 14 15  2  0
 16 17  1  0
 17 19  1  0
 18 17  2  0
 20 19  1  1
 21 20  1  0
 21 14  1  0
 22 20  1  0
 23 22  2  0
 24 22  1  0
M  END
$$$$
