MTN.pdb
     RDKit          3D

 24 23  0  0  1  0  0  0  0  0999 V2000
    7.5091  -12.2128   22.3344 C   0  0  0  0  0  0  0  0  0  0  0  0
    7.9187  -11.3527   20.8093 S   0  0  0  0  0  0  0  0  0  0  0  0
    8.3036  -12.4747   19.4603 C   0  0  0  0  0  0  0  0  0  0  0  0
    8.5547  -13.8835   19.9576 C   0  0  0  0  0  0  0  0  0  0  0  0
    8.8891  -14.8285   18.8467 C   0  0  2  0  0  0  0  0  0  0  0  0
    7.8060  -14.8205   17.8882 N   0  0  0  0  0  0  0  0  0  0  0  0
    9.1662  -16.2097   19.3382 C   0  0  0  0  0  0  0  0  0  0  0  0
    8.2273  -17.0165   19.3936 O   0  0  0  0  0  0  0  0  0  0  0  0
   11.3604  -18.7135   17.8567 C   0  0  0  0  0  0  0  0  0  0  0  0
   11.8126  -18.5360   19.2664 C   0  0  1  0  0  0  0  0  0  0  0  0
   12.9669  -17.7586   19.3721 O   0  0  0  0  0  0  0  0  0  0  0  0
   10.7719  -17.9592   20.1734 C   0  0  2  0  0  0  0  0  0  0  0  0
   10.4794  -16.5969   19.7360 N   0  0  0  0  0  0  0  0  0  0  0  0
   11.3639  -17.8597   21.5420 C   0  0  0  0  0  0  0  0  0  0  0  0
   11.7757  -16.7627   22.0208 O   0  0  0  0  0  0  0  0  0  0  0  0
   10.8575  -19.2450   26.9385 N   0  0  0  0  0  0  0  0  0  0  0  0
   11.6516  -19.9760   25.9839 C   0  0  0  0  0  0  0  0  0  0  0  0
   12.6826  -20.5195   26.4248 O   0  0  0  0  0  0  0  0  0  0  0  0
   11.1792  -20.0163   24.5831 C   0  0  0  0  0  0  0  0  0  0  0  0
   11.7649  -18.8745   23.8288 C   0  0  2  0  0  0  0  0  0  0  0  0
   11.4971  -18.9979   22.3845 N   0  0  0  0  0  0  0  0  0  0  0  0
   13.2424  -18.8904   23.9512 C   0  0  0  0  0  0  0  0  0  0  0  0
   13.8436  -18.6201   25.0308 O   0  0  0  0  0  0  0  0  0  0  0  0
   14.0890  -19.2090   22.8700 O   0  0  0  0  0  0  0  0  0  0  0  0
  1  2  1  0
  2  3  1  0
  4  5  1  0
  4  3  1  0
  5  6  1  6
  7  5  1  0
  8  7  2  0
 10  9  1  6
 10 11  1  0
 10 12  1  0
 12 14  1  0
 12 13  1  6
 13  7  1  0
 14 15  2  0
 16 17  1  0
 17 19  1  0
 18 17  2  0
 20 19  1  1
 21 20  1  0
 21 14  1  0
 22 20  1  0
 23 22  2  0
 24 22  1  0
M  END
$$$$
