MTN.pdb
     RDKit          3D

 24 23  0  0  1  0  0  0  0  0999 V2000
    7.1597  -12.6073   20.7395 C   0  0  0  0  0  0  0  0  0  0  0  0
    7.0171  -12.2926   18.9748 S   0  0  0  0  0  0  0  0  0  0  0  0
    7.7464  -13.5948   17.9753 C   0  0  0  0  0  0  0  0  0  0  0  0
    8.4730  -14.6150   18.8276 C   0  0  0  0  0  0  0  0  0  0  0  0
    8.9669  -15.7783   18.0265 C   0  0  2  0  0  0  0  0  0  0  0  0
    7.8464  -16.3730   17.3319 N   0  0  0  0  0  0  0  0  0  0  0  0
    9.6797  -16.7856   18.8653 C   0  0  0  0  0  0  0  0  0  0  0  0
    9.0297  -17.7315   19.3325 O   0  0  0  0  0  0  0  0  0  0  0  0
   12.0429  -19.3852   18.2189 C   0  0  0  0  0  0  0  0  0  0  0  0
   12.7166  -18.4179   19.1321 C   0  0  1  0  0  0  0  0  0  0  0  0
   13.5572  -17.5308   18.4580 O   0  0  0  0  0  0  0  0  0  0  0  0
   11.7755  -17.6224   19.9805 C   0  0  2  0  0  0  0  0  0  0  0  0
   11.0763  -16.6665   19.1260 N   0  0  0  0  0  0  0  0  0  0  0  0
   12.5932  -16.8267   20.9458 C   0  0  0  0  0  0  0  0  0  0  0  0
   13.0060  -15.6602   20.6792 O   0  0  0  0  0  0  0  0  0  0  0  0
   11.2469  -15.5609   23.8874 N   0  0  0  0  0  0  0  0  0  0  0  0
   11.8644  -16.3973   24.8850 C   0  0  0  0  0  0  0  0  0  0  0  0
   11.1898  -16.6269   25.9072 O   0  0  0  0  0  0  0  0  0  0  0  0
   13.2268  -16.9033   24.6114 C   0  0  0  0  0  0  0  0  0  0  0  0
   13.6343  -16.5119   23.2344 C   0  0  2  0  0  0  0  0  0  0  0  0
   12.9533  -17.3399   22.2226 N   0  0  0  0  0  0  0  0  0  0  0  0
   15.0805  -16.7743   23.0396 C   0  0  0  0  0  0  0  0  0  0  0  0
   15.9814  -16.1501   23.6710 O   0  0  0  0  0  0  0  0  0  0  0  0
   15.5598  -17.7420   22.1334 O   0  0  0  0  0  0  0  0  0  0  0  0
  1  2  1  0
  2  3  1  0
  4  5  1  0
  4  3  1  0
  5  6  1  1
  7  5  1  0
  8  7  2  0
 10  9  1  6
 10 11  1  0
 10 12  1  0
 12 14  1  0
 12 13  1  6
 13  7  1  0
 14 15  2  0
 16 17  1  0
 17 19  1  0
 18 17  2  0
 20 19  1  1
 21 20  1  0
 21 14  1  0
 22 20  1  0
 23 22  2  0
 24 22  1  0
M  END
$$$$
