MTN.pdb
     RDKit          3D

 24 23  0  0  1  0  0  0  0  0999 V2000
    7.0461  -10.9616   26.7094 C   0  0  0  0  0  0  0  0  0  0  0  0
    6.4846  -12.3283   27.7342 S   0  0  0  0  0  0  0  0  0  0  0  0
    5.8721  -13.7145   26.7698 C   0  0  0  0  0  0  0  0  0  0  0  0
    6.9910  -14.4227   26.0337 C   0  0  0  0  0  0  0  0  0  0  0  0
    6.4998  -15.5929   25.2409 C   0  0  2  0  0  0  0  0  0  0  0  0
    5.9437  -16.5698   26.1510 N   0  0  0  0  0  0  0  0  0  0  0  0
    7.5686  -16.1931   24.3903 C   0  0  0  0  0  0  0  0  0  0  0  0
    8.1128  -17.2378   24.7749 O   0  0  0  0  0  0  0  0  0  0  0  0
    7.5102  -15.3105   20.3907 C   0  0  0  0  0  0  0  0  0  0  0  0
    8.8793  -15.5063   20.9479 C   0  0  1  0  0  0  0  0  0  0  0  0
    9.5839  -14.3098   21.0887 O   0  0  0  0  0  0  0  0  0  0  0  0
    8.9076  -16.2265   22.2589 C   0  0  2  0  0  0  0  0  0  0  0  0
    7.9581  -15.5823   23.1623 N   0  0  0  0  0  0  0  0  0  0  0  0
   10.2670  -16.0417   22.8517 C   0  0  0  0  0  0  0  0  0  0  0  0
   10.5346  -15.0898   23.6421 O   0  0  0  0  0  0  0  0  0  0  0  0
   13.4019  -17.1948   25.7932 N   0  0  0  0  0  0  0  0  0  0  0  0
   13.5472  -18.3592   24.9568 C   0  0  0  0  0  0  0  0  0  0  0  0
   13.9958  -19.3824   25.5086 O   0  0  0  0  0  0  0  0  0  0  0  0
   13.1562  -18.2387   23.5357 C   0  0  0  0  0  0  0  0  0  0  0  0
   12.6216  -16.8729   23.2821 C   0  0  2  0  0  0  0  0  0  0  0  0
   11.3386  -16.9298   22.5585 N   0  0  0  0  0  0  0  0  0  0  0  0
   13.5384  -16.1277   22.3863 C   0  0  0  0  0  0  0  0  0  0  0  0
   14.6213  -15.6127   22.7889 O   0  0  0  0  0  0  0  0  0  0  0  0
   13.2702  -15.9376   21.0155 O   0  0  0  0  0  0  0  0  0  0  0  0
  1  2  1  0
  2  3  1  0
  4  5  1  0
  4  3  1  0
  5  6  1  1
  7  5  1  0
  8  7  2  0
 10  9  1  1
 10 11  1  0
 10 12  1  0
 12 14  1  0
 12 13  1  1
 13  7  1  0
 14 15  2  0
 16 17  1  0
 17 19  1  0
 18 17  2  0
 20 19  1  6
 21 20  1  0
 21 14  1  0
 22 20  1  0
 23 22  2  0
 24 22  1  0
M  END
$$$$
