MTN.pdb
     RDKit          3D

 24 23  0  0  1  0  0  0  0  0999 V2000
    7.5214  -11.9918   27.0981 C   0  0  0  0  0  0  0  0  0  0  0  0
    6.4727  -11.3384   25.7917 S   0  0  0  0  0  0  0  0  0  0  0  0
    6.5411  -12.3202   24.2889 C   0  0  0  0  0  0  0  0  0  0  0  0
    7.3418  -13.5911   24.4860 C   0  0  0  0  0  0  0  0  0  0  0  0
    7.5407  -14.3429   23.2076 C   0  0  2  0  0  0  0  0  0  0  0  0
    6.2503  -14.5626   22.5925 N   0  0  0  0  0  0  0  0  0  0  0  0
    8.2690  -15.6291   23.4110 C   0  0  0  0  0  0  0  0  0  0  0  0
    7.6215  -16.6853   23.3839 O   0  0  0  0  0  0  0  0  0  0  0  0
    9.9579  -17.3784   21.2403 C   0  0  0  0  0  0  0  0  0  0  0  0
   10.9901  -17.1425   22.2901 C   0  0  1  0  0  0  0  0  0  0  0  0
   11.8521  -16.0905   21.9766 O   0  0  0  0  0  0  0  0  0  0  0  0
   10.4282  -16.8998   23.6553 C   0  0  2  0  0  0  0  0  0  0  0  0
    9.6774  -15.6475   23.6316 N   0  0  0  0  0  0  0  0  0  0  0  0
   11.5754  -16.7023   24.5925 C   0  0  0  0  0  0  0  0  0  0  0  0
   12.1109  -15.5698   24.7741 O   0  0  0  0  0  0  0  0  0  0  0  0
   11.3194  -16.4790   29.6389 N   0  0  0  0  0  0  0  0  0  0  0  0
   11.0444  -17.6909   28.9096 C   0  0  0  0  0  0  0  0  0  0  0  0
   10.9460  -18.7322   29.5868 O   0  0  0  0  0  0  0  0  0  0  0  0
   10.9049  -17.5934   27.4406 C   0  0  0  0  0  0  0  0  0  0  0  0
   12.2418  -17.7442   26.8040 C   0  0  2  0  0  0  0  0  0  0  0  0
   12.1301  -17.7816   25.3346 N   0  0  0  0  0  0  0  0  0  0  0  0
   12.8384  -19.0485   27.1800 C   0  0  0  0  0  0  0  0  0  0  0  0
   12.6280  -20.1117   26.5279 O   0  0  0  0  0  0  0  0  0  0  0  0
   13.6867  -19.2003   28.2956 O   0  0  0  0  0  0  0  0  0  0  0  0
  1  2  1  0
  2  3  1  0
  4  5  1  0
  4  3  1  0
  5  6  1  1
  7  5  1  0
  8  7  2  0
 10  9  1  6
 10 11  1  0
 10 12  1  0
 12 14  1  0
 12 13  1  6
 13  7  1  0
 14 15  2  0
 16 17  1  0
 17 19  1  0
 18 17  2  0
 20 19  1  1
 21 20  1  0
 21 14  1  0
 22 20  1  0
 23 22  2  0
 24 22  1  0
M  END
$$$$
