MCH.pdb
     RDKit          3D

 25 25  0  0  1  0  0  0  0  0999 V2000
   25.5188  -24.7471  -15.1815 C   0  0  0  0  0  0  0  0  0  0  0  0
   26.8202  -24.4001  -16.4081 S   0  0  0  0  0  0  0  0  0  0  0  0
   26.7507  -22.5823  -16.6897 C   0  0  0  0  0  0  0  0  0  0  0  0
   26.0004  -21.9599  -15.5210 C   0  0  0  0  0  0  0  0  0  0  0  0
   24.6734  -21.3720  -15.9990 C   0  0  2  0  0  0  0  0  0  0  0  0
   24.8904  -19.9532  -16.3118 N   0  0  0  0  0  0  0  0  0  0  0  0
   23.7856  -21.3738  -14.8005 C   0  0  0  0  0  0  0  0  0  0  0  0
   24.0304  -22.0940  -13.8512 O   0  0  0  0  0  0  0  0  0  0  0  0
   22.6470  -20.5157  -14.7801 N   0  0  0  0  0  0  0  0  0  0  0  0
   21.6923  -20.4807  -13.7246 C   0  0  1  0  0  0  0  0  0  0  0  0
   21.3702  -19.0673  -13.2588 C   0  0  0  0  0  0  0  0  0  0  0  0
   20.2378  -19.1456  -11.8649 S   0  0  0  0  0  0  0  0  0  0  0  0
   20.4196  -21.1356  -14.0280 C   0  0  0  0  0  0  0  0  0  0  0  0
   19.6888  -20.7616  -14.9573 O   0  0  0  0  0  0  0  0  0  0  0  0
   19.9731  -22.2506  -13.2506 N   0  0  0  0  0  0  0  0  0  0  0  0
   18.7040  -22.9090  -13.6018 C   0  0  1  0  0  0  0  0  0  0  0  0
   18.8006  -24.2821  -12.9256 C   0  0  0  0  0  0  0  0  0  0  0  0
   17.6340  -25.1208  -13.1887 C   0  0  0  0  0  0  0  0  0  0  0  0
   16.5017  -24.7615  -13.9187 C   0  0  0  0  0  0  0  0  0  0  0  0
   15.6549  -25.8209  -13.9012 N   0  0  0  0  0  0  0  0  0  0  0  0
   16.2375  -26.7884  -13.1942 C   0  0  0  0  0  0  0  0  0  0  0  0
   17.4356  -26.3604  -12.7642 N   0  0  0  0  0  0  0  0  0  0  0  0
   17.5678  -22.1304  -13.1134 C   0  0  0  0  0  0  0  0  0  0  0  0
   16.3599  -22.0952  -13.7684 O   0  0  0  0  0  0  0  0  0  0  0  0
   17.7074  -21.4624  -12.0430 O   0  0  0  0  0  0  0  0  0  0  0  0
  1  2  1  0
  2  3  1  0
  3  4  1  0
  4  5  1  0
  5  7  1  0
  5  6  1  1
  7  9  1  0
  7  8  2  0
  9 10  1  0
 10 11  1  6
 11 12  1  0
 13 10  1  0
 13 14  2  0
 15 13  1  0
 16 15  1  0
 16 17  1  1
 18 17  1  0
 18 19  2  0
 20 19  1  0
 21 20  1  0
 22 21  2  0
 22 18  1  0
 23 16  1  0
 24 23  1  0
 25 23  2  0
M  END
$$$$
