MCH.pdb
     RDKit          3D

 25 25  0  0  1  0  0  0  0  0999 V2000
   28.0847  -13.9390  -14.5819 C   0  0  0  0  0  0  0  0  0  0  0  0
   27.9978  -12.6353  -15.8513 S   0  0  0  0  0  0  0  0  0  0  0  0
   26.6897  -13.1848  -17.0238 C   0  0  0  0  0  0  0  0  0  0  0  0
   25.3521  -12.6901  -16.4923 C   0  0  0  0  0  0  0  0  0  0  0  0
   24.2219  -13.1176  -17.4277 C   0  0  2  0  0  0  0  0  0  0  0  0
   24.8104  -13.4436  -18.7335 N   0  0  0  0  0  0  0  0  0  0  0  0
   23.4153  -11.8852  -17.6623 C   0  0  0  0  0  0  0  0  0  0  0  0
   23.7771  -11.0550  -18.4745 O   0  0  0  0  0  0  0  0  0  0  0  0
   22.2101  -11.6947  -16.9242 N   0  0  0  0  0  0  0  0  0  0  0  0
   21.2852  -10.6395  -17.1643 C   0  0  1  0  0  0  0  0  0  0  0  0
   19.8440  -11.0311  -16.8673 C   0  0  0  0  0  0  0  0  0  0  0  0
   18.7521   -9.6889  -17.3547 S   0  0  0  0  0  0  0  0  0  0  0  0
   21.5581   -9.4061  -16.4262 C   0  0  0  0  0  0  0  0  0  0  0  0
   21.7598   -9.3989  -15.2027 O   0  0  0  0  0  0  0  0  0  0  0  0
   21.6059   -8.1482  -17.1060 N   0  0  0  0  0  0  0  0  0  0  0  0
   21.9515   -6.9344  -16.3479 C   0  0  1  0  0  0  0  0  0  0  0  0
   22.1292   -5.8615  -17.4292 C   0  0  0  0  0  0  0  0  0  0  0  0
   22.6021   -4.5905  -16.8866 C   0  0  0  0  0  0  0  0  0  0  0  0
   23.4371   -4.4190  -15.7831 C   0  0  0  0  0  0  0  0  0  0  0  0
   23.6102   -3.0851  -15.6089 N   0  0  0  0  0  0  0  0  0  0  0  0
   22.9151   -2.4629  -16.5603 C   0  0  0  0  0  0  0  0  0  0  0  0
   22.3058   -3.3779  -17.3316 N   0  0  0  0  0  0  0  0  0  0  0  0
   20.8885   -6.5975  -15.4034 C   0  0  0  0  0  0  0  0  0  0  0  0
   21.1463   -6.1587  -14.1266 O   0  0  0  0  0  0  0  0  0  0  0  0
   19.6826   -6.7167  -15.7817 O   0  0  0  0  0  0  0  0  0  0  0  0
  1  2  1  0
  2  3  1  0
  3  4  1  0
  4  5  1  0
  5  7  1  0
  5  6  1  6
  7  9  1  0
  7  8  2  0
  9 10  1  0
 10 11  1  1
 11 12  1  0
 13 10  1  0
 13 14  2  0
 15 13  1  0
 16 15  1  0
 16 17  1  6
 18 17  1  0
 18 19  2  0
 20 19  1  0
 21 20  1  0
 22 21  2  0
 22 18  1  0
 23 16  1  0
 24 23  1  0
 25 23  2  0
M  END
$$$$
