MCH.pdb
     RDKit          3D

 25 25  0  0  1  0  0  0  0  0999 V2000
   17.4172  -13.4359  -18.4323 C   0  0  0  0  0  0  0  0  0  0  0  0
   18.5560  -14.7668  -18.9327 S   0  0  0  0  0  0  0  0  0  0  0  0
   20.1624  -13.9324  -19.2662 C   0  0  0  0  0  0  0  0  0  0  0  0
   20.4236  -12.9562  -18.1281 C   0  0  0  0  0  0  0  0  0  0  0  0
   21.7119  -12.1763  -18.3870 C   0  0  2  0  0  0  0  0  0  0  0  0
   22.8467  -13.0520  -18.0655 N   0  0  0  0  0  0  0  0  0  0  0  0
   21.7414  -11.1058  -17.3490 C   0  0  0  0  0  0  0  0  0  0  0  0
   21.8897  -11.3873  -16.1748 O   0  0  0  0  0  0  0  0  0  0  0  0
   21.5981   -9.7455  -17.7519 N   0  0  0  0  0  0  0  0  0  0  0  0
   21.5947   -8.6423  -16.8521 C   0  0  1  0  0  0  0  0  0  0  0  0
   21.9404   -7.3217  -17.5269 C   0  0  0  0  0  0  0  0  0  0  0  0
   23.6159   -7.4061  -18.1724 S   0  0  0  0  0  0  0  0  0  0  0  0
   20.3366   -8.4428  -16.1324 C   0  0  0  0  0  0  0  0  0  0  0  0
   19.2332   -8.5496  -16.6881 O   0  0  0  0  0  0  0  0  0  0  0  0
   20.3405   -8.1169  -14.7394 N   0  0  0  0  0  0  0  0  0  0  0  0
   19.0574   -7.9445  -14.0383 C   0  0  1  0  0  0  0  0  0  0  0  0
   19.2632   -8.6757  -12.7060 C   0  0  0  0  0  0  0  0  0  0  0  0
   18.1007   -8.5787  -11.8269 C   0  0  0  0  0  0  0  0  0  0  0  0
   16.7647   -8.7210  -12.1997 C   0  0  0  0  0  0  0  0  0  0  0  0
   16.0113   -8.5361  -11.0870 N   0  0  0  0  0  0  0  0  0  0  0  0
   16.8433   -8.2917  -10.0755 C   0  0  0  0  0  0  0  0  0  0  0  0
   18.1076   -8.3180  -10.5276 N   0  0  0  0  0  0  0  0  0  0  0  0
   18.7600   -6.5261  -13.8508 C   0  0  0  0  0  0  0  0  0  0  0  0
   17.4780   -6.0534  -13.7016 O   0  0  0  0  0  0  0  0  0  0  0  0
   19.7263   -5.7032  -13.8260 O   0  0  0  0  0  0  0  0  0  0  0  0
  1  2  1  0
  2  3  1  0
  3  4  1  0
  4  5  1  0
  5  7  1  0
  5  6  1  1
  7  9  1  0
  7  8  2  0
  9 10  1  0
 10 11  1  6
 11 12  1  0
 13 10  1  0
 13 14  2  0
 15 13  1  0
 16 15  1  0
 16 17  1  1
 18 17  1  0
 18 19  2  0
 20 19  1  0
 21 20  1  0
 22 21  2  0
 22 18  1  0
 23 16  1  0
 24 23  1  0
 25 23  2  0
M  END
$$$$
