MCH.pdb
     RDKit          3D

 25 25  0  0  1  0  0  0  0  0999 V2000
   21.5574  -19.2264   -8.6198 C   0  0  0  0  0  0  0  0  0  0  0  0
   22.1356  -20.8550   -8.0437 S   0  0  0  0  0  0  0  0  0  0  0  0
   23.9213  -20.9212   -8.4855 C   0  0  0  0  0  0  0  0  0  0  0  0
   24.0346  -20.7275   -9.9908 C   0  0  0  0  0  0  0  0  0  0  0  0
   25.4877  -20.8881  -10.4356 C   0  0  2  0  0  0  0  0  0  0  0  0
   26.2875  -19.8590   -9.7579 N   0  0  0  0  0  0  0  0  0  0  0  0
   25.5045  -20.5059  -11.8772 C   0  0  0  0  0  0  0  0  0  0  0  0
   25.3351  -19.3487  -12.2118 O   0  0  0  0  0  0  0  0  0  0  0  0
   25.7267  -21.5156  -12.8593 N   0  0  0  0  0  0  0  0  0  0  0  0
   25.6958  -21.2840  -14.2636 C   0  0  1  0  0  0  0  0  0  0  0  0
   26.6022  -22.2269  -15.0433 C   0  0  0  0  0  0  0  0  0  0  0  0
   28.2656  -22.1451  -14.3669 S   0  0  0  0  0  0  0  0  0  0  0  0
   24.3661  -21.3651  -14.8686 C   0  0  0  0  0  0  0  0  0  0  0  0
   23.4409  -22.0056  -14.3477 O   0  0  0  0  0  0  0  0  0  0  0  0
   24.0860  -20.6921  -16.0996 N   0  0  0  0  0  0  0  0  0  0  0  0
   22.8445  -19.9106  -16.2249 C   0  0  1  0  0  0  0  0  0  0  0  0
   23.0077  -18.7896  -15.1911 C   0  0  0  0  0  0  0  0  0  0  0  0
   21.8756  -17.8667  -15.1804 C   0  0  0  0  0  0  0  0  0  0  0  0
   20.7080  -17.9774  -15.9343 C   0  0  0  0  0  0  0  0  0  0  0  0
   19.9319  -16.9046  -15.6400 N   0  0  0  0  0  0  0  0  0  0  0  0
   20.5897  -16.1670  -14.7463 C   0  0  0  0  0  0  0  0  0  0  0  0
   21.7663  -16.7527  -14.4708 N   0  0  0  0  0  0  0  0  0  0  0  0
   22.6971  -19.3931  -17.5836 C   0  0  0  0  0  0  0  0  0  0  0  0
   23.7697  -18.9799  -18.3373 O   0  0  0  0  0  0  0  0  0  0  0  0
   21.5316  -19.3245  -18.0820 O   0  0  0  0  0  0  0  0  0  0  0  0
  1  2  1  0
  2  3  1  0
  3  4  1  0
  4  5  1  0
  5  7  1  0
  5  6  1  1
  7  9  1  0
  7  8  2  0
  9 10  1  0
 10 11  1  6
 11 12  1  0
 13 10  1  0
 13 14  2  0
 15 13  1  0
 16 15  1  0
 16 17  1  1
 18 17  1  0
 18 19  2  0
 20 19  1  0
 21 20  1  0
 22 21  2  0
 22 18  1  0
 23 16  1  0
 24 23  1  0
 25 23  2  0
M  END
$$$$
