MCH.pdb
     RDKit          3D

 25 25  0  0  1  0  0  0  0  0999 V2000
   11.0371  -11.2305  -13.9058 C   0  0  0  0  0  0  0  0  0  0  0  0
   11.8082  -12.5356  -12.8954 S   0  0  0  0  0  0  0  0  0  0  0  0
   13.6224  -12.2905  -13.0867 C   0  0  0  0  0  0  0  0  0  0  0  0
   13.9371  -10.8472  -12.7204 C   0  0  0  0  0  0  0  0  0  0  0  0
   15.4302  -10.5723  -12.8940 C   0  0  2  0  0  0  0  0  0  0  0  0
   16.1404  -11.1849  -11.7634 N   0  0  0  0  0  0  0  0  0  0  0  0
   15.5867   -9.1018  -12.6999 C   0  0  0  0  0  0  0  0  0  0  0  0
   14.9559   -8.3176  -13.3832 O   0  0  0  0  0  0  0  0  0  0  0  0
   16.4832   -8.6265  -11.6980 N   0  0  0  0  0  0  0  0  0  0  0  0
   16.7088   -7.2492  -11.4168 C   0  0  1  0  0  0  0  0  0  0  0  0
   16.5116   -6.9007   -9.9478 C   0  0  0  0  0  0  0  0  0  0  0  0
   16.0583   -8.3856   -9.0415 S   0  0  0  0  0  0  0  0  0  0  0  0
   18.0296   -6.7534  -11.8044 C   0  0  0  0  0  0  0  0  0  0  0  0
   19.0743   -7.3480  -11.5001 O   0  0  0  0  0  0  0  0  0  0  0  0
   18.1587   -5.5479  -12.5639 N   0  0  0  0  0  0  0  0  0  0  0  0
   19.2282   -5.4439  -13.5705 C   0  0  1  0  0  0  0  0  0  0  0  0
   18.9574   -6.6174  -14.5199 C   0  0  0  0  0  0  0  0  0  0  0  0
   20.0178   -7.6215  -14.4882 C   0  0  0  0  0  0  0  0  0  0  0  0
   21.2046   -7.5517  -13.7597 C   0  0  0  0  0  0  0  0  0  0  0  0
   21.9132   -8.6762  -14.0302 N   0  0  0  0  0  0  0  0  0  0  0  0
   21.1971   -9.4055  -14.8849 C   0  0  0  0  0  0  0  0  0  0  0  0
   20.0502   -8.7633  -15.1600 N   0  0  0  0  0  0  0  0  0  0  0  0
   19.1677   -4.1537  -14.2541 C   0  0  0  0  0  0  0  0  0  0  0  0
   20.2859   -3.3909  -14.4928 O   0  0  0  0  0  0  0  0  0  0  0  0
   18.0366   -3.7256  -14.6399 O   0  0  0  0  0  0  0  0  0  0  0  0
  1  2  1  0
  2  3  1  0
  3  4  1  0
  4  5  1  0
  5  7  1  0
  5  6  1  1
  7  9  1  0
  7  8  2  0
  9 10  1  0
 10 11  1  1
 11 12  1  0
 13 10  1  0
 13 14  2  0
 15 13  1  0
 16 15  1  0
 16 17  1  6
 18 17  1  0
 18 19  2  0
 20 19  1  0
 21 20  1  0
 22 21  2  0
 22 18  1  0
 23 16  1  0
 24 23  1  0
 25 23  2  0
M  END
$$$$
