MCH.pdb
     RDKit          3D

 25 25  0  0  1  0  0  0  0  0999 V2000
   26.6324  -21.6882  -19.1519 C   0  0  0  0  0  0  0  0  0  0  0  0
   25.7310  -20.8560  -20.4985 S   0  0  0  0  0  0  0  0  0  0  0  0
   25.4041  -19.1518  -19.8842 C   0  0  0  0  0  0  0  0  0  0  0  0
   25.2281  -19.2284  -18.3744 C   0  0  0  0  0  0  0  0  0  0  0  0
   24.9781  -17.8342  -17.8010 C   0  0  2  0  0  0  0  0  0  0  0  0
   26.2248  -17.3671  -17.1800 N   0  0  0  0  0  0  0  0  0  0  0  0
   24.0317  -18.0372  -16.6663 C   0  0  0  0  0  0  0  0  0  0  0  0
   24.4491  -18.2185  -15.5382 O   0  0  0  0  0  0  0  0  0  0  0  0
   22.6288  -18.0114  -16.9208 N   0  0  0  0  0  0  0  0  0  0  0  0
   21.6339  -18.2753  -15.9373 C   0  0  1  0  0  0  0  0  0  0  0  0
   20.4003  -17.3953  -16.0863 C   0  0  0  0  0  0  0  0  0  0  0  0
   19.3049  -18.1129  -17.3178 S   0  0  0  0  0  0  0  0  0  0  0  0
   21.1714  -19.6626  -15.8911 C   0  0  0  0  0  0  0  0  0  0  0  0
   21.4924  -20.4954  -16.7519 O   0  0  0  0  0  0  0  0  0  0  0  0
   20.3228  -20.1103  -14.8299 N   0  0  0  0  0  0  0  0  0  0  0  0
   20.2942  -21.5421  -14.4882 C   0  0  1  0  0  0  0  0  0  0  0  0
   21.6346  -21.7804  -13.7821 C   0  0  0  0  0  0  0  0  0  0  0  0
   22.6124  -22.4419  -14.6422 C   0  0  0  0  0  0  0  0  0  0  0  0
   22.4078  -22.8720  -15.9527 C   0  0  0  0  0  0  0  0  0  0  0  0
   23.5600  -23.4504  -16.3743 N   0  0  0  0  0  0  0  0  0  0  0  0
   24.4343  -23.3799  -15.3713 C   0  0  0  0  0  0  0  0  0  0  0  0
   23.8567  -22.7689  -14.3243 N   0  0  0  0  0  0  0  0  0  0  0  0
   19.1534  -21.8426  -13.6257 C   0  0  0  0  0  0  0  0  0  0  0  0
   18.5787  -23.0899  -13.5684 O   0  0  0  0  0  0  0  0  0  0  0  0
   18.6786  -20.9123  -12.9041 O   0  0  0  0  0  0  0  0  0  0  0  0
  1  2  1  0
  2  3  1  0
  3  4  1  0
  4  5  1  0
  5  7  1  0
  5  6  1  1
  7  9  1  0
  7  8  2  0
  9 10  1  0
 10 11  1  6
 11 12  1  0
 13 10  1  0
 13 14  2  0
 15 13  1  0
 16 15  1  0
 16 17  1  1
 18 17  1  0
 18 19  2  0
 20 19  1  0
 21 20  1  0
 22 21  2  0
 22 18  1  0
 23 16  1  0
 24 23  1  0
 25 23  2  0
M  END
$$$$
