MCH.pdb
     RDKit          3D

 25 25  0  0  1  0  0  0  0  0999 V2000
   16.5942  -24.0519  -15.1233 C   0  0  0  0  0  0  0  0  0  0  0  0
   17.2736  -22.9896  -16.4380 S   0  0  0  0  0  0  0  0  0  0  0  0
   18.6500  -22.0576  -15.6473 C   0  0  0  0  0  0  0  0  0  0  0  0
   18.8801  -22.6527  -14.2656 C   0  0  0  0  0  0  0  0  0  0  0  0
   19.8823  -21.8030  -13.4853 C   0  0  2  0  0  0  0  0  0  0  0  0
   21.1704  -21.8571  -14.1895 N   0  0  0  0  0  0  0  0  0  0  0  0
   20.1086  -22.5344  -12.2053 C   0  0  0  0  0  0  0  0  0  0  0  0
   20.2189  -23.7458  -12.1969 O   0  0  0  0  0  0  0  0  0  0  0  0
   20.1988  -21.7934  -10.9903 N   0  0  0  0  0  0  0  0  0  0  0  0
   20.3940  -22.3819   -9.7088 C   0  0  1  0  0  0  0  0  0  0  0  0
   21.0206  -21.4257   -8.7030 C   0  0  0  0  0  0  0  0  0  0  0  0
   22.6264  -20.8939   -9.3110 S   0  0  0  0  0  0  0  0  0  0  0  0
   19.1825  -22.9234   -9.0926 C   0  0  0  0  0  0  0  0  0  0  0  0
   18.0807  -22.3644   -9.1981 O   0  0  0  0  0  0  0  0  0  0  0  0
   19.2316  -24.1388   -8.3396 N   0  0  0  0  0  0  0  0  0  0  0  0
   17.9790  -24.7162   -7.8247 C   0  0  1  0  0  0  0  0  0  0  0  0
   18.1526  -26.2250   -8.0377 C   0  0  0  0  0  0  0  0  0  0  0  0
   18.1926  -26.5915   -9.4511 C   0  0  0  0  0  0  0  0  0  0  0  0
   17.2418  -26.2695  -10.4188 C   0  0  0  0  0  0  0  0  0  0  0  0
   17.6517  -26.8196  -11.5889 N   0  0  0  0  0  0  0  0  0  0  0  0
   18.8013  -27.4509  -11.3542 C   0  0  0  0  0  0  0  0  0  0  0  0
   19.1253  -27.3108  -10.0586 N   0  0  0  0  0  0  0  0  0  0  0  0
   17.7953  -24.3738   -6.4160 C   0  0  0  0  0  0  0  0  0  0  0  0
   16.6276  -24.6326   -5.7388 O   0  0  0  0  0  0  0  0  0  0  0  0
   18.7541  -23.8157   -5.7988 O   0  0  0  0  0  0  0  0  0  0  0  0
  1  2  1  0
  2  3  1  0
  3  4  1  0
  4  5  1  0
  5  7  1  0
  5  6  1  6
  7  9  1  0
  7  8  2  0
  9 10  1  0
 10 11  1  1
 11 12  1  0
 13 10  1  0
 13 14  2  0
 15 13  1  0
 16 15  1  0
 16 17  1  1
 18 17  1  0
 18 19  2  0
 20 19  1  0
 21 20  1  0
 22 21  2  0
 22 18  1  0
 23 16  1  0
 24 23  1  0
 25 23  2  0
M  END
$$$$
