MCH.pdb
     RDKit          3D

 25 25  0  0  1  0  0  0  0  0999 V2000
   26.8533  -19.5516   -7.2754 C   0  0  0  0  0  0  0  0  0  0  0  0
   25.4462  -20.5822   -7.8012 S   0  0  0  0  0  0  0  0  0  0  0  0
   25.9782  -21.3619   -9.3815 C   0  0  0  0  0  0  0  0  0  0  0  0
   26.2742  -20.2459  -10.3732 C   0  0  0  0  0  0  0  0  0  0  0  0
   26.7136  -20.8338  -11.7134 C   0  0  2  0  0  0  0  0  0  0  0  0
   28.0379  -21.4429  -11.5311 N   0  0  0  0  0  0  0  0  0  0  0  0
   26.9456  -19.6596  -12.6033 C   0  0  0  0  0  0  0  0  0  0  0  0
   27.4528  -18.6438  -12.1665 O   0  0  0  0  0  0  0  0  0  0  0  0
   26.5687  -19.7450  -13.9759 N   0  0  0  0  0  0  0  0  0  0  0  0
   26.2872  -18.6175  -14.7982 C   0  0  1  0  0  0  0  0  0  0  0  0
   27.4206  -18.2822  -15.7583 C   0  0  0  0  0  0  0  0  0  0  0  0
   26.9971  -16.7986  -16.6808 S   0  0  0  0  0  0  0  0  0  0  0  0
   25.0656  -18.7306  -15.5954 C   0  0  0  0  0  0  0  0  0  0  0  0
   24.8858  -19.6553  -16.4018 O   0  0  0  0  0  0  0  0  0  0  0  0
   24.0201  -17.7630  -15.4635 N   0  0  0  0  0  0  0  0  0  0  0  0
   22.8276  -17.8726  -16.3200 C   0  0  1  0  0  0  0  0  0  0  0  0
   21.8427  -16.8661  -15.7125 C   0  0  0  0  0  0  0  0  0  0  0  0
   20.5526  -16.8596  -16.3975 C   0  0  0  0  0  0  0  0  0  0  0  0
   19.7402  -17.9651  -16.6468 C   0  0  0  0  0  0  0  0  0  0  0  0
   18.6502  -17.5231  -17.3224 N   0  0  0  0  0  0  0  0  0  0  0  0
   18.7837  -16.2071  -17.4819 C   0  0  0  0  0  0  0  0  0  0  0  0
   19.9370  -15.8092  -16.9209 N   0  0  0  0  0  0  0  0  0  0  0  0
   23.1592  -17.5540  -17.7071 C   0  0  0  0  0  0  0  0  0  0  0  0
   22.6693  -18.2767  -18.7686 O   0  0  0  0  0  0  0  0  0  0  0  0
   23.9299  -16.5713  -17.9347 O   0  0  0  0  0  0  0  0  0  0  0  0
  1  2  1  0
  2  3  1  0
  3  4  1  0
  4  5  1  0
  5  7  1  0
  5  6  1  1
  7  9  1  0
  7  8  2  0
  9 10  1  0
 10 11  1  6
 11 12  1  0
 13 10  1  0
 13 14  2  0
 15 13  1  0
 16 15  1  0
 16 17  1  1
 18 17  1  0
 18 19  2  0
 20 19  1  0
 21 20  1  0
 22 21  2  0
 22 18  1  0
 23 16  1  0
 24 23  1  0
 25 23  2  0
M  END
$$$$
