MCH.pdb
     RDKit          3D

 25 25  0  0  1  0  0  0  0  0999 V2000
   27.4163  -18.7360   -4.2095 C   0  0  0  0  0  0  0  0  0  0  0  0
   28.8786  -19.8139   -4.3442 S   0  0  0  0  0  0  0  0  0  0  0  0
   29.4639  -19.6248   -6.0791 C   0  0  0  0  0  0  0  0  0  0  0  0
   28.6384  -20.5591   -6.9521 C   0  0  0  0  0  0  0  0  0  0  0  0
   28.1510  -19.8228   -8.1992 C   0  0  2  0  0  0  0  0  0  0  0  0
   27.2625  -18.7354   -7.7677 N   0  0  0  0  0  0  0  0  0  0  0  0
   27.2646  -20.7901   -8.9083 C   0  0  0  0  0  0  0  0  0  0  0  0
   27.6523  -21.9161   -9.1568 O   0  0  0  0  0  0  0  0  0  0  0  0
   25.9530  -20.3788   -9.2877 N   0  0  0  0  0  0  0  0  0  0  0  0
   25.0596  -21.1728  -10.0612 C   0  0  1  0  0  0  0  0  0  0  0  0
   23.8256  -21.6103   -9.2838 C   0  0  0  0  0  0  0  0  0  0  0  0
   23.8780  -20.8945   -7.6357 S   0  0  0  0  0  0  0  0  0  0  0  0
   24.5910  -20.5415  -11.2951 C   0  0  0  0  0  0  0  0  0  0  0  0
   24.2546  -19.3489  -11.3409 O   0  0  0  0  0  0  0  0  0  0  0  0
   24.5091  -21.2931  -12.5097 N   0  0  0  0  0  0  0  0  0  0  0  0
   24.1457  -20.6030  -13.7584 C   0  0  1  0  0  0  0  0  0  0  0  0
   25.2637  -20.9911  -14.7338 C   0  0  0  0  0  0  0  0  0  0  0  0
   26.5275  -20.3231  -14.4337 C   0  0  0  0  0  0  0  0  0  0  0  0
   27.6651  -20.9099  -13.8808 C   0  0  0  0  0  0  0  0  0  0  0  0
   28.6003  -19.9363  -13.7488 N   0  0  0  0  0  0  0  0  0  0  0  0
   28.0650  -18.8025  -14.1996 C   0  0  0  0  0  0  0  0  0  0  0  0
   26.8098  -19.0407  -14.6130 N   0  0  0  0  0  0  0  0  0  0  0  0
   22.8303  -21.0383  -14.2229 C   0  0  0  0  0  0  0  0  0  0  0  0
   22.1904  -20.4495  -15.2874 O   0  0  0  0  0  0  0  0  0  0  0  0
   22.2612  -21.9973  -13.6163 O   0  0  0  0  0  0  0  0  0  0  0  0
  1  2  1  0
  2  3  1  0
  3  4  1  0
  4  5  1  0
  5  7  1  0
  5  6  1  1
  7  9  1  0
  7  8  2  0
  9 10  1  0
 10 11  1  1
 11 12  1  0
 13 10  1  0
 13 14  2  0
 15 13  1  0
 16 15  1  0
 16 17  1  6
 18 17  1  0
 18 19  2  0
 20 19  1  0
 21 20  1  0
 22 21  2  0
 22 18  1  0
 23 16  1  0
 24 23  1  0
 25 23  2  0
M  END
$$$$
