MCH.pdb
     RDKit          3D

 25 25  0  0  1  0  0  0  0  0999 V2000
   29.9691  -28.3558  -23.3902 C   0  0  0  0  0  0  0  0  0  0  0  0
   31.0709  -26.9704  -22.9599 S   0  0  0  0  0  0  0  0  0  0  0  0
   31.4812  -27.2097  -21.1815 C   0  0  0  0  0  0  0  0  0  0  0  0
   32.3934  -26.0674  -20.7577 C   0  0  0  0  0  0  0  0  0  0  0  0
   31.5747  -24.7995  -20.5182 C   0  0  2  0  0  0  0  0  0  0  0  0
   32.5083  -23.7022  -20.2318 N   0  0  0  0  0  0  0  0  0  0  0  0
   30.8474  -25.0346  -19.2375 C   0  0  0  0  0  0  0  0  0  0  0  0
   31.4155  -24.8995  -18.1703 O   0  0  0  0  0  0  0  0  0  0  0  0
   29.4740  -25.4157  -19.2802 N   0  0  0  0  0  0  0  0  0  0  0  0
   28.6786  -25.6662  -18.1264 C   0  0  1  0  0  0  0  0  0  0  0  0
   27.5771  -24.6341  -17.9264 C   0  0  0  0  0  0  0  0  0  0  0  0
   26.7400  -24.9543  -16.3681 S   0  0  0  0  0  0  0  0  0  0  0  0
   28.0455  -26.9848  -18.0934 C   0  0  0  0  0  0  0  0  0  0  0  0
   27.2565  -27.3614  -18.9727 O   0  0  0  0  0  0  0  0  0  0  0  0
   28.3258  -27.8985  -17.0288 N   0  0  0  0  0  0  0  0  0  0  0  0
   27.5996  -29.1779  -16.9703 C   0  0  1  0  0  0  0  0  0  0  0  0
   28.1648  -29.8667  -15.7220 C   0  0  0  0  0  0  0  0  0  0  0  0
   27.6442  -31.2197  -15.5431 C   0  0  0  0  0  0  0  0  0  0  0  0
   26.8033  -31.9073  -16.4174 C   0  0  0  0  0  0  0  0  0  0  0  0
   26.5450  -33.1181  -15.8635 N   0  0  0  0  0  0  0  0  0  0  0  0
   27.1961  -33.1750  -14.7024 C   0  0  0  0  0  0  0  0  0  0  0  0
   27.8602  -32.0235  -14.5119 N   0  0  0  0  0  0  0  0  0  0  0  0
   26.1598  -28.9484  -16.8715 C   0  0  0  0  0  0  0  0  0  0  0  0
   25.2400  -29.7321  -17.5265 O   0  0  0  0  0  0  0  0  0  0  0  0
   25.7482  -27.9868  -16.1522 O   0  0  0  0  0  0  0  0  0  0  0  0
  1  2  1  0
  2  3  1  0
  3  4  1  0
  4  5  1  0
  5  7  1  0
  5  6  1  1
  7  9  1  0
  7  8  2  0
  9 10  1  0
 10 11  1  6
 11 12  1  0
 13 10  1  0
 13 14  2  0
 15 13  1  0
 16 15  1  0
 16 17  1  1
 18 17  1  0
 18 19  2  0
 20 19  1  0
 21 20  1  0
 22 21  2  0
 22 18  1  0
 23 16  1  0
 24 23  1  0
 25 23  2  0
M  END
$$$$
