MCH.pdb
     RDKit          3D

 25 25  0  0  1  0  0  0  0  0999 V2000
   32.0284  -22.9824  -11.3066 C   0  0  0  0  0  0  0  0  0  0  0  0
   31.7058  -21.2028  -11.0881 S   0  0  0  0  0  0  0  0  0  0  0  0
   30.7918  -20.6852  -12.5997 C   0  0  0  0  0  0  0  0  0  0  0  0
   29.3991  -21.2954  -12.5318 C   0  0  0  0  0  0  0  0  0  0  0  0
   28.8384  -21.1744  -11.1155 C   0  0  2  0  0  0  0  0  0  0  0  0
   29.4112  -22.2574  -10.3050 N   0  0  0  0  0  0  0  0  0  0  0  0
   27.3887  -21.5038  -11.2347 C   0  0  0  0  0  0  0  0  0  0  0  0
   27.0340  -22.6047  -11.6116 O   0  0  0  0  0  0  0  0  0  0  0  0
   26.4223  -20.5115  -10.8961 N   0  0  0  0  0  0  0  0  0  0  0  0
   25.0164  -20.7357  -10.8888 C   0  0  1  0  0  0  0  0  0  0  0  0
   24.3223  -20.1287   -9.6771 C   0  0  0  0  0  0  0  0  0  0  0  0
   22.6073  -20.6663   -9.6448 S   0  0  0  0  0  0  0  0  0  0  0  0
   24.3129  -20.2514  -12.0767 C   0  0  0  0  0  0  0  0  0  0  0  0
   24.3733  -19.0688  -12.4444 O   0  0  0  0  0  0  0  0  0  0  0  0
   23.5228  -21.1444  -12.8674 N   0  0  0  0  0  0  0  0  0  0  0  0
   22.7719  -20.6132  -14.0170 C   0  0  1  0  0  0  0  0  0  0  0  0
   22.2832  -21.8680  -14.7508 C   0  0  0  0  0  0  0  0  0  0  0  0
   21.4714  -21.5523  -15.9233 C   0  0  0  0  0  0  0  0  0  0  0  0
   21.7969  -20.6564  -16.9409 C   0  0  0  0  0  0  0  0  0  0  0  0
   20.7633  -20.6471  -17.8191 N   0  0  0  0  0  0  0  0  0  0  0  0
   19.8436  -21.4975  -17.3650 C   0  0  0  0  0  0  0  0  0  0  0  0
   20.2759  -22.0433  -16.2167 N   0  0  0  0  0  0  0  0  0  0  0  0
   21.6667  -19.7708  -13.5649 C   0  0  0  0  0  0  0  0  0  0  0  0
   21.1166  -18.7880  -14.3527 O   0  0  0  0  0  0  0  0  0  0  0  0
   21.2007  -19.9580  -12.3990 O   0  0  0  0  0  0  0  0  0  0  0  0
  1  2  1  0
  2  3  1  0
  3  4  1  0
  4  5  1  0
  5  7  1  0
  5  6  1  1
  7  9  1  0
  7  8  2  0
  9 10  1  0
 10 11  1  1
 11 12  1  0
 13 10  1  0
 13 14  2  0
 15 13  1  0
 16 15  1  0
 16 17  1  1
 18 17  1  0
 18 19  2  0
 20 19  1  0
 21 20  1  0
 22 21  2  0
 22 18  1  0
 23 16  1  0
 24 23  1  0
 25 23  2  0
M  END
$$$$
