MCH.pdb
     RDKit          3D

 25 25  0  0  1  0  0  0  0  0999 V2000
   26.8395  -33.8369  -15.9146 C   0  0  0  0  0  0  0  0  0  0  0  0
   26.6416  -32.0486  -15.6290 S   0  0  0  0  0  0  0  0  0  0  0  0
   27.5675  -31.2327  -16.9948 C   0  0  0  0  0  0  0  0  0  0  0  0
   28.8144  -32.0610  -17.2700 C   0  0  0  0  0  0  0  0  0  0  0  0
   30.0027  -31.5011  -16.4894 C   0  0  2  0  0  0  0  0  0  0  0  0
   30.4293  -30.2556  -17.1410 N   0  0  0  0  0  0  0  0  0  0  0  0
   31.1180  -32.4633  -16.7232 C   0  0  0  0  0  0  0  0  0  0  0  0
   31.9551  -32.2432  -17.5781 O   0  0  0  0  0  0  0  0  0  0  0  0
   31.1932  -33.6440  -15.9272 N   0  0  0  0  0  0  0  0  0  0  0  0
   32.2179  -34.6248  -16.0485 C   0  0  1  0  0  0  0  0  0  0  0  0
   33.6168  -34.0505  -15.8705 C   0  0  0  0  0  0  0  0  0  0  0  0
   34.8305  -35.3449  -16.1581 S   0  0  0  0  0  0  0  0  0  0  0  0
   32.0953  -35.7556  -15.1281 C   0  0  0  0  0  0  0  0  0  0  0  0
   32.2159  -35.6250  -13.9009 O   0  0  0  0  0  0  0  0  0  0  0  0
   31.8232  -37.0696  -15.6242 N   0  0  0  0  0  0  0  0  0  0  0  0
   31.6331  -38.1732  -14.6684 C   0  0  1  0  0  0  0  0  0  0  0  0
   30.9295  -39.2585  -15.4925 C   0  0  0  0  0  0  0  0  0  0  0  0
   29.4981  -39.0097  -15.6429 C   0  0  0  0  0  0  0  0  0  0  0  0
   28.9077  -37.8888  -16.2254 C   0  0  0  0  0  0  0  0  0  0  0  0
   27.5634  -38.0485  -16.1409 N   0  0  0  0  0  0  0  0  0  0  0  0
   27.3352  -39.2132  -15.5353 C   0  0  0  0  0  0  0  0  0  0  0  0
   28.5092  -39.7919  -15.2350 N   0  0  0  0  0  0  0  0  0  0  0  0
   32.9191  -38.6250  -14.1416 C   0  0  0  0  0  0  0  0  0  0  0  0
   34.1079  -38.0221  -14.4769 O   0  0  0  0  0  0  0  0  0  0  0  0
   32.9332  -39.6129  -13.3444 O   0  0  0  0  0  0  0  0  0  0  0  0
  1  2  1  0
  2  3  1  0
  3  4  1  0
  4  5  1  0
  5  7  1  0
  5  6  1  6
  7  9  1  0
  7  8  2  0
  9 10  1  0
 10 11  1  1
 11 12  1  0
 13 10  1  0
 13 14  2  0
 15 13  1  0
 16 15  1  0
 16 17  1  6
 18 17  1  0
 18 19  2  0
 20 19  1  0
 21 20  1  0
 22 21  2  0
 22 18  1  0
 23 16  1  0
 24 23  1  0
 25 23  2  0
M  END
$$$$
