MCH.pdb
     RDKit          3D

 25 25  0  0  1  0  0  0  0  0999 V2000
   30.8973  -31.4293  -23.3613 C   0  0  0  0  0  0  0  0  0  0  0  0
   30.5978  -31.9001  -21.6271 S   0  0  0  0  0  0  0  0  0  0  0  0
   29.5837  -30.5358  -20.9212 C   0  0  0  0  0  0  0  0  0  0  0  0
   29.2708  -30.8905  -19.4746 C   0  0  0  0  0  0  0  0  0  0  0  0
   30.1606  -30.0845  -18.5293 C   0  0  2  0  0  0  0  0  0  0  0  0
   30.8642  -31.0285  -17.6508 N   0  0  0  0  0  0  0  0  0  0  0  0
   29.2219  -29.3476  -17.6348 C   0  0  0  0  0  0  0  0  0  0  0  0
   28.7984  -29.8680  -16.6201 O   0  0  0  0  0  0  0  0  0  0  0  0
   28.8303  -28.0213  -17.9827 N   0  0  0  0  0  0  0  0  0  0  0  0
   27.7751  -27.3076  -17.3471 C   0  0  1  0  0  0  0  0  0  0  0  0
   27.9417  -25.7965  -17.4323 C   0  0  0  0  0  0  0  0  0  0  0  0
   29.4728  -25.3217  -16.6189 S   0  0  0  0  0  0  0  0  0  0  0  0
   26.4359  -27.6229  -17.8447 C   0  0  0  0  0  0  0  0  0  0  0  0
   26.2530  -28.2486  -18.8996 O   0  0  0  0  0  0  0  0  0  0  0  0
   25.2751  -27.2155  -17.1143 N   0  0  0  0  0  0  0  0  0  0  0  0
   24.1531  -28.1570  -16.9652 C   0  0  1  0  0  0  0  0  0  0  0  0
   24.7321  -29.2892  -16.1080 C   0  0  0  0  0  0  0  0  0  0  0  0
   23.7707  -30.3634  -15.8729 C   0  0  0  0  0  0  0  0  0  0  0  0
   22.4625  -30.4252  -16.3515 C   0  0  0  0  0  0  0  0  0  0  0  0
   21.9138  -31.5745  -15.8847 N   0  0  0  0  0  0  0  0  0  0  0  0
   22.8400  -32.1927  -15.1531 C   0  0  0  0  0  0  0  0  0  0  0  0
   23.9628  -31.4561  -15.1481 N   0  0  0  0  0  0  0  0  0  0  0  0
   23.0148  -27.5033  -16.3228 C   0  0  0  0  0  0  0  0  0  0  0  0
   23.1296  -26.8158  -15.1381 O   0  0  0  0  0  0  0  0  0  0  0  0
   21.8787  -27.5766  -16.8844 O   0  0  0  0  0  0  0  0  0  0  0  0
  1  2  1  0
  2  3  1  0
  3  4  1  0
  4  5  1  0
  5  7  1  0
  5  6  1  1
  7  9  1  0
  7  8  2  0
  9 10  1  0
 10 11  1  6
 11 12  1  0
 13 10  1  0
 13 14  2  0
 15 13  1  0
 16 15  1  0
 16 17  1  1
 18 17  1  0
 18 19  2  0
 20 19  1  0
 21 20  1  0
 22 21  2  0
 22 18  1  0
 23 16  1  0
 24 23  1  0
 25 23  2  0
M  END
$$$$
