LQS.pdb
     RDKit          3D

 24 23  0  0  1  0  0  0  0  0999 V2000
   22.2319   -8.1441  -14.6790 C   0  0  0  0  0  0  0  0  0  0  0  0
   21.1871   -8.8091  -13.8081 C   0  0  2  0  0  0  0  0  0  0  0  0
   21.8944   -9.7147  -12.8490 C   0  0  0  0  0  0  0  0  0  0  0  0
   20.1191   -9.4843  -14.6179 C   0  0  0  0  0  0  0  0  0  0  0  0
   19.0507  -10.0164  -13.7179 C   0  0  2  0  0  0  0  0  0  0  0  0
   18.8800  -11.4262  -13.9037 N   0  0  0  0  0  0  0  0  0  0  0  0
   17.7722   -9.2672  -13.8424 C   0  0  0  0  0  0  0  0  0  0  0  0
   17.3224   -9.0082  -14.9879 O   0  0  0  0  0  0  0  0  0  0  0  0
   13.3519   -9.6307   -9.5253 N   0  0  0  0  0  0  0  0  0  0  0  0
   13.5313  -10.3583  -10.7317 C   0  0  0  0  0  0  0  0  0  0  0  0
   13.0333  -11.5087  -10.7759 O   0  0  0  0  0  0  0  0  0  0  0  0
   14.2573   -9.8282  -11.8926 C   0  0  0  0  0  0  0  0  0  0  0  0
   14.9417   -8.5230  -11.6677 C   0  0  0  0  0  0  0  0  0  0  0  0
   15.8441   -8.0472  -12.7547 C   0  0  2  0  0  0  0  0  0  0  0  0
   17.0645   -8.8474  -12.6855 N   0  0  0  0  0  0  0  0  0  0  0  0
   16.1459   -6.6117  -12.5564 C   0  0  0  0  0  0  0  0  0  0  0  0
   16.9975   -6.1363  -11.7930 O   0  0  0  0  0  0  0  0  0  0  0  0
   16.4312   -2.4107  -14.5365 O   0  0  0  0  0  0  0  0  0  0  0  0
   16.1593   -3.7581  -14.5475 C   0  0  0  0  0  0  0  0  0  0  0  0
   15.5920   -4.2430  -13.2077 C   0  0  2  0  0  0  0  0  0  0  0  0
   15.3815   -5.6527  -13.3204 N   0  0  0  0  0  0  0  0  0  0  0  0
   14.3587   -3.4808  -12.9687 C   0  0  0  0  0  0  0  0  0  0  0  0
   14.3763   -2.2633  -12.3215 O   0  0  0  0  0  0  0  0  0  0  0  0
   13.2637   -3.9409  -13.3585 O   0  0  0  0  0  0  0  0  0  0  0  0
  2  1  1  6
  3  2  1  0
  4  2  1  0
  4  5  1  0
  5  6  1  6
  7  5  1  0
  7  8  2  0
  9 10  1  0
 10 12  1  0
 11 10  2  0
 12 13  1  0
 14 13  1  1
 14 15  1  0
 15  7  1  0
 16 14  1  0
 17 16  2  0
 18 19  1  0
 20 19  1  6
 20 21  1  0
 21 16  1  0
 22 23  1  0
 22 20  1  0
 24 22  2  0
M  END
$$$$
