LQS.pdb
     RDKit          3D

 24 23  0  0  1  0  0  0  0  0999 V2000
   19.5670  -28.4787  -16.5656 C   0  0  0  0  0  0  0  0  0  0  0  0
   20.6616  -28.8591  -15.5912 C   0  0  2  0  0  0  0  0  0  0  0  0
   20.6509  -30.3486  -15.4438 C   0  0  0  0  0  0  0  0  0  0  0  0
   20.5521  -28.1120  -14.2942 C   0  0  0  0  0  0  0  0  0  0  0  0
   20.8754  -26.6677  -14.5042 C   0  0  2  0  0  0  0  0  0  0  0  0
   22.2702  -26.4898  -14.7770 N   0  0  0  0  0  0  0  0  0  0  0  0
   20.3996  -25.8069  -13.3888 C   0  0  0  0  0  0  0  0  0  0  0  0
   20.8194  -26.0252  -12.2237 O   0  0  0  0  0  0  0  0  0  0  0  0
   21.0031  -20.0513  -12.9491 N   0  0  0  0  0  0  0  0  0  0  0  0
   20.2449  -20.5812  -14.0266 C   0  0  0  0  0  0  0  0  0  0  0  0
   20.1584  -19.8722  -15.0578 O   0  0  0  0  0  0  0  0  0  0  0  0
   19.5785  -21.8886  -13.9773 C   0  0  0  0  0  0  0  0  0  0  0  0
   19.6544  -22.5873  -12.6626 C   0  0  0  0  0  0  0  0  0  0  0  0
   18.9577  -23.9015  -12.5646 C   0  0  2  0  0  0  0  0  0  0  0  0
   19.4827  -24.7504  -13.6314 N   0  0  0  0  0  0  0  0  0  0  0  0
   17.4993  -23.7029  -12.7217 C   0  0  0  0  0  0  0  0  0  0  0  0
   16.8556  -23.7720  -13.7776 O   0  0  0  0  0  0  0  0  0  0  0  0
   13.2564  -23.7858  -10.6103 O   0  0  0  0  0  0  0  0  0  0  0  0
   14.6191  -23.9636  -10.5789 C   0  0  0  0  0  0  0  0  0  0  0  0
   15.3416  -23.0655  -11.5905 C   0  0  2  0  0  0  0  0  0  0  0  0
   16.7314  -23.3968  -11.5367 N   0  0  0  0  0  0  0  0  0  0  0  0
   15.0521  -21.6768  -11.2071 C   0  0  0  0  0  0  0  0  0  0  0  0
   13.7838  -21.1468  -11.3173 O   0  0  0  0  0  0  0  0  0  0  0  0
   15.9725  -20.9528  -10.7699 O   0  0  0  0  0  0  0  0  0  0  0  0
  2  1  1  6
  3  2  1  0
  4  2  1  0
  4  5  1  0
  5  6  1  1
  7  5  1  0
  7  8  2  0
  9 10  1  0
 10 12  1  0
 11 10  2  0
 12 13  1  0
 14 13  1  6
 14 15  1  0
 15  7  1  0
 16 14  1  0
 17 16  2  0
 18 19  1  0
 20 19  1  1
 20 21  1  0
 21 16  1  0
 22 23  1  0
 22 20  1  0
 24 22  2  0
M  END
$$$$
