LQS.pdb
     RDKit          3D

 24 23  0  0  1  0  0  0  0  0999 V2000
   26.7732  -21.1626  -15.5567 C   0  0  0  0  0  0  0  0  0  0  0  0
   26.8750  -22.3943  -14.6821 C   0  0  2  0  0  0  0  0  0  0  0  0
   27.3731  -23.5225  -15.5304 C   0  0  0  0  0  0  0  0  0  0  0  0
   25.5915  -22.6868  -13.9616 C   0  0  0  0  0  0  0  0  0  0  0  0
   25.1478  -21.4839  -13.1930 C   0  0  2  0  0  0  0  0  0  0  0  0
   25.7772  -21.4370  -11.9073 N   0  0  0  0  0  0  0  0  0  0  0  0
   23.6673  -21.3745  -13.1060 C   0  0  0  0  0  0  0  0  0  0  0  0
   22.9539  -22.2303  -13.6894 O   0  0  0  0  0  0  0  0  0  0  0  0
   19.3797  -21.3867  -10.6002 N   0  0  0  0  0  0  0  0  0  0  0  0
   20.2974  -21.0516   -9.5695 C   0  0  0  0  0  0  0  0  0  0  0  0
   20.1812  -21.6738   -8.4866 O   0  0  0  0  0  0  0  0  0  0  0  0
   21.3441  -20.0333   -9.7217 C   0  0  0  0  0  0  0  0  0  0  0  0
   21.3601  -19.3356  -11.0391 C   0  0  0  0  0  0  0  0  0  0  0  0
   21.6138  -20.1826  -12.2393 C   0  0  2  0  0  0  0  0  0  0  0  0
   23.0621  -20.3189  -12.3747 N   0  0  0  0  0  0  0  0  0  0  0  0
   21.0336  -19.5334  -13.4364 C   0  0  0  0  0  0  0  0  0  0  0  0
   21.3060  -18.4047  -13.8676 O   0  0  0  0  0  0  0  0  0  0  0  0
   18.5756  -20.5199  -17.4862 O   0  0  0  0  0  0  0  0  0  0  0  0
   19.1121  -20.9273  -16.2880 C   0  0  0  0  0  0  0  0  0  0  0  0
   19.4287  -19.7437  -15.3655 C   0  0  2  0  0  0  0  0  0  0  0  0
   20.0490  -20.2737  -14.1914 N   0  0  0  0  0  0  0  0  0  0  0  0
   18.1552  -19.0599  -15.1009 C   0  0  0  0  0  0  0  0  0  0  0  0
   17.4297  -19.3035  -13.9538 O   0  0  0  0  0  0  0  0  0  0  0  0
   17.7128  -18.2367  -15.9309 O   0  0  0  0  0  0  0  0  0  0  0  0
  2  1  1  6
  3  2  1  0
  4  2  1  0
  4  5  1  0
  5  6  1  1
  7  5  1  0
  7  8  2  0
  9 10  1  0
 10 12  1  0
 11 10  2  0
 12 13  1  0
 14 13  1  1
 14 15  1  0
 15  7  1  0
 16 14  1  0
 17 16  2  0
 18 19  1  0
 20 19  1  6
 20 21  1  0
 21 16  1  0
 22 23  1  0
 22 20  1  0
 24 22  2  0
M  END
$$$$
