LQS.pdb
     RDKit          3D

 24 23  0  0  1  0  0  0  0  0999 V2000
   24.9661  -13.5833  -15.4918 C   0  0  0  0  0  0  0  0  0  0  0  0
   24.1245  -13.5749  -16.7503 C   0  0  2  0  0  0  0  0  0  0  0  0
   24.8793  -14.3079  -17.8149 C   0  0  0  0  0  0  0  0  0  0  0  0
   23.7002  -12.1893  -17.1405 C   0  0  0  0  0  0  0  0  0  0  0  0
   23.0272  -11.5144  -15.9888 C   0  0  2  0  0  0  0  0  0  0  0  0
   21.8738  -12.2510  -15.5666 N   0  0  0  0  0  0  0  0  0  0  0  0
   22.7207  -10.0853  -16.2628 C   0  0  0  0  0  0  0  0  0  0  0  0
   23.6406   -9.3265  -16.6622 O   0  0  0  0  0  0  0  0  0  0  0  0
   17.0540   -8.3783  -18.2963 N   0  0  0  0  0  0  0  0  0  0  0  0
   18.1966   -8.8390  -19.0027 C   0  0  0  0  0  0  0  0  0  0  0  0
   18.0012   -9.2965  -20.1542 O   0  0  0  0  0  0  0  0  0  0  0  0
   19.5561   -8.8008  -18.4496 C   0  0  0  0  0  0  0  0  0  0  0  0
   19.6543   -8.3018  -17.0482 C   0  0  0  0  0  0  0  0  0  0  0  0
   21.0230   -8.2233  -16.4626 C   0  0  2  0  0  0  0  0  0  0  0  0
   21.4073   -9.5791  -16.0771 N   0  0  0  0  0  0  0  0  0  0  0  0
   21.0080   -7.3271  -15.2846 C   0  0  0  0  0  0  0  0  0  0  0  0
   20.5116   -7.5740  -14.1771 O   0  0  0  0  0  0  0  0  0  0  0  0
   23.0034   -3.6420  -15.7472 O   0  0  0  0  0  0  0  0  0  0  0  0
   22.9414   -4.2511  -14.5164 C   0  0  0  0  0  0  0  0  0  0  0  0
   21.6644   -5.0834  -14.3483 C   0  0  2  0  0  0  0  0  0  0  0  0
   21.6296   -6.0298  -15.4195 N   0  0  0  0  0  0  0  0  0  0  0  0
   20.5384   -4.1394  -14.3600 C   0  0  0  0  0  0  0  0  0  0  0  0
   20.3576   -3.2187  -13.3494 O   0  0  0  0  0  0  0  0  0  0  0  0
   19.7209   -4.1657  -15.3052 O   0  0  0  0  0  0  0  0  0  0  0  0
  2  1  1  1
  3  2  1  0
  4  2  1  0
  4  5  1  0
  5  6  1  6
  7  5  1  0
  7  8  2  0
  9 10  1  0
 10 12  1  0
 11 10  2  0
 12 13  1  0
 14 13  1  1
 14 15  1  0
 15  7  1  0
 16 14  1  0
 17 16  2  0
 18 19  1  0
 20 19  1  6
 20 21  1  0
 21 16  1  0
 22 23  1  0
 22 20  1  0
 24 22  2  0
M  END
$$$$
