LQS.pdb
     RDKit          3D

 24 23  0  0  1  0  0  0  0  0999 V2000
   16.9727  -24.6337  -15.5353 C   0  0  0  0  0  0  0  0  0  0  0  0
   18.0854  -24.1389  -14.6357 C   0  0  2  0  0  0  0  0  0  0  0  0
   18.1876  -22.6549  -14.8019 C   0  0  0  0  0  0  0  0  0  0  0  0
   19.3730  -24.8740  -14.8685 C   0  0  0  0  0  0  0  0  0  0  0  0
   20.1948  -24.8791  -13.6198 C   0  0  2  0  0  0  0  0  0  0  0  0
   21.5500  -25.2479  -13.9004 N   0  0  0  0  0  0  0  0  0  0  0  0
   19.5918  -25.7067  -12.5414 C   0  0  0  0  0  0  0  0  0  0  0  0
   19.6585  -26.9600  -12.6203 O   0  0  0  0  0  0  0  0  0  0  0  0
   17.7944  -24.5417   -5.5969 N   0  0  0  0  0  0  0  0  0  0  0  0
   18.7014  -25.0312   -6.5739 C   0  0  0  0  0  0  0  0  0  0  0  0
   19.9216  -24.8349   -6.3594 O   0  0  0  0  0  0  0  0  0  0  0  0
   18.2745  -25.7363   -7.7890 C   0  0  0  0  0  0  0  0  0  0  0  0
   18.7195  -25.1154   -9.0691 C   0  0  0  0  0  0  0  0  0  0  0  0
   18.3970  -25.8606  -10.3193 C   0  0  2  0  0  0  0  0  0  0  0  0
   18.9476  -25.0940  -11.4345 N   0  0  0  0  0  0  0  0  0  0  0  0
   16.9290  -25.9975  -10.4507 C   0  0  0  0  0  0  0  0  0  0  0  0
   16.1228  -25.0889  -10.6925 O   0  0  0  0  0  0  0  0  0  0  0  0
   13.7127  -29.4195  -11.3496 O   0  0  0  0  0  0  0  0  0  0  0  0
   14.7807  -29.0858  -10.5510 C   0  0  0  0  0  0  0  0  0  0  0  0
   14.9600  -27.5674  -10.4322 C   0  0  2  0  0  0  0  0  0  0  0  0
   16.3594  -27.3149  -10.2835 N   0  0  0  0  0  0  0  0  0  0  0  0
   14.1580  -27.1345   -9.2796 C   0  0  0  0  0  0  0  0  0  0  0  0
   14.7468  -26.6357   -8.1368 O   0  0  0  0  0  0  0  0  0  0  0  0
   12.9117  -27.2176   -9.3290 O   0  0  0  0  0  0  0  0  0  0  0  0
  2  1  1  6
  3  2  1  0
  4  2  1  0
  4  5  1  0
  5  6  1  6
  7  5  1  0
  7  8  2  0
  9 10  1  0
 10 12  1  0
 11 10  2  0
 12 13  1  0
 14 13  1  1
 14 15  1  0
 15  7  1  0
 16 14  1  0
 17 16  2  0
 18 19  1  0
 20 19  1  1
 20 21  1  0
 21 16  1  0
 22 23  1  0
 22 20  1  0
 24 22  2  0
M  END
$$$$
