LQS.pdb
     RDKit          3D

 24 23  0  0  1  0  0  0  0  0999 V2000
   27.4973  -17.5391  -17.8250 C   0  0  0  0  0  0  0  0  0  0  0  0
   28.3137  -18.0046  -16.6379 C   0  0  2  0  0  0  0  0  0  0  0  0
   29.6925  -18.3258  -17.1239 C   0  0  0  0  0  0  0  0  0  0  0  0
   27.6470  -19.1250  -15.8946 C   0  0  0  0  0  0  0  0  0  0  0  0
   26.2133  -18.7893  -15.6368 C   0  0  2  0  0  0  0  0  0  0  0  0
   26.1006  -17.6158  -14.8234 N   0  0  0  0  0  0  0  0  0  0  0  0
   25.4466  -19.9386  -15.0866 C   0  0  0  0  0  0  0  0  0  0  0  0
   25.4689  -21.0385  -15.6959 O   0  0  0  0  0  0  0  0  0  0  0  0
   24.9864  -20.9202   -9.0928 N   0  0  0  0  0  0  0  0  0  0  0  0
   25.8963  -20.4263  -10.0649 C   0  0  0  0  0  0  0  0  0  0  0  0
   26.9930  -19.9897   -9.6405 O   0  0  0  0  0  0  0  0  0  0  0  0
   25.6070  -20.4081  -11.5043 C   0  0  0  0  0  0  0  0  0  0  0  0
   24.3150  -21.0397  -11.8971 C   0  0  0  0  0  0  0  0  0  0  0  0
   23.9067  -20.8914  -13.3232 C   0  0  2  0  0  0  0  0  0  0  0  0
   24.6973  -19.8007  -13.8887 N   0  0  0  0  0  0  0  0  0  0  0  0
   22.4606  -20.5839  -13.3959 C   0  0  0  0  0  0  0  0  0  0  0  0
   21.9342  -19.4743  -13.2358 O   0  0  0  0  0  0  0  0  0  0  0  0
   18.2252  -22.3233  -14.9364 O   0  0  0  0  0  0  0  0  0  0  0  0
   19.5964  -22.3730  -14.8526 C   0  0  0  0  0  0  0  0  0  0  0  0
   20.1366  -21.5005  -13.7129 C   0  0  2  0  0  0  0  0  0  0  0  0
   21.5555  -21.6735  -13.6809 N   0  0  0  0  0  0  0  0  0  0  0  0
   19.4618  -21.9420  -12.4845 C   0  0  0  0  0  0  0  0  0  0  0  0
   18.3216  -21.3187  -12.0232 O   0  0  0  0  0  0  0  0  0  0  0  0
   19.9268  -22.9049  -11.8372 O   0  0  0  0  0  0  0  0  0  0  0  0
  2  1  1  6
  3  2  1  0
  4  2  1  0
  4  5  1  0
  5  6  1  1
  7  5  1  0
  7  8  2  0
  9 10  1  0
 10 12  1  0
 11 10  2  0
 12 13  1  0
 14 13  1  1
 14 15  1  0
 15  7  1  0
 16 14  1  0
 17 16  2  0
 18 19  1  0
 20 19  1  6
 20 21  1  0
 21 16  1  0
 22 23  1  0
 22 20  1  0
 24 22  2  0
M  END
$$$$
