LQS.pdb
     RDKit          3D

 24 23  0  0  1  0  0  0  0  0999 V2000
   22.5871  -14.9948  -17.0896 C   0  0  0  0  0  0  0  0  0  0  0  0
   22.3672  -14.3295  -18.4317 C   0  0  2  0  0  0  0  0  0  0  0  0
   23.7033  -14.1503  -19.0822 C   0  0  0  0  0  0  0  0  0  0  0  0
   21.5658  -13.0660  -18.3146 C   0  0  0  0  0  0  0  0  0  0  0  0
   22.4285  -11.9553  -17.8079 C   0  0  2  0  0  0  0  0  0  0  0  0
   23.0145  -12.2970  -16.5465 N   0  0  0  0  0  0  0  0  0  0  0  0
   21.7169  -10.6501  -17.7697 C   0  0  0  0  0  0  0  0  0  0  0  0
   21.2248  -10.1887  -18.8310 O   0  0  0  0  0  0  0  0  0  0  0  0
   17.1005   -9.2658  -14.3969 N   0  0  0  0  0  0  0  0  0  0  0  0
   17.4430   -7.9871  -14.9110 C   0  0  0  0  0  0  0  0  0  0  0  0
   16.6059   -7.0684  -14.7417 O   0  0  0  0  0  0  0  0  0  0  0  0
   18.7029   -7.7113  -15.6128 C   0  0  0  0  0  0  0  0  0  0  0  0
   19.5692   -8.9016  -15.8474 C   0  0  0  0  0  0  0  0  0  0  0  0
   20.9022   -8.6453  -16.4635 C   0  0  2  0  0  0  0  0  0  0  0  0
   21.5922   -9.9299  -16.5525 N   0  0  0  0  0  0  0  0  0  0  0  0
   21.6646   -7.6974  -15.6202 C   0  0  0  0  0  0  0  0  0  0  0  0
   22.2552   -7.9613  -14.5640 O   0  0  0  0  0  0  0  0  0  0  0  0
   22.9035   -2.9547  -15.4221 O   0  0  0  0  0  0  0  0  0  0  0  0
   22.3216   -4.0062  -16.0893 C   0  0  0  0  0  0  0  0  0  0  0  0
   22.4106   -5.3144  -15.2938 C   0  0  2  0  0  0  0  0  0  0  0  0
   21.7394   -6.3215  -16.0550 N   0  0  0  0  0  0  0  0  0  0  0  0
   21.7942   -5.0573  -13.9848 C   0  0  0  0  0  0  0  0  0  0  0  0
   22.5571   -4.7891  -12.8678 O   0  0  0  0  0  0  0  0  0  0  0  0
   20.5494   -5.0808  -13.8737 O   0  0  0  0  0  0  0  0  0  0  0  0
  2  1  1  1
  3  2  1  0
  4  2  1  0
  4  5  1  0
  5  6  1  1
  7  5  1  0
  7  8  2  0
  9 10  1  0
 10 12  1  0
 11 10  2  0
 12 13  1  0
 14 13  1  1
 14 15  1  0
 15  7  1  0
 16 14  1  0
 17 16  2  0
 18 19  1  0
 20 19  1  6
 20 21  1  0
 21 16  1  0
 22 23  1  0
 22 20  1  0
 24 22  2  0
M  END
$$$$
