LRV.pdb
     RDKit          3D

 27 26  0  0  1  0  0  0  0  0999 V2000
   14.8955  -13.7415  -16.2512 C   0  0  0  0  0  0  0  0  0  0  0  0
   16.1688  -14.0868  -17.0161 C   0  0  1  0  0  0  0  0  0  0  0  0
   15.9148  -13.9575  -18.5086 C   0  0  0  0  0  0  0  0  0  0  0  0
   17.2159  -13.0988  -16.5498 C   0  0  0  0  0  0  0  0  0  0  0  0
   18.5428  -13.3724  -17.2709 C   0  0  2  0  0  0  0  0  0  0  0  0
   19.1864  -14.5399  -16.7625 N   0  0  0  0  0  0  0  0  0  0  0  0
   19.3963  -12.1719  -16.9030 C   0  0  0  0  0  0  0  0  0  0  0  0
   19.8970  -12.1867  -15.7653 O   0  0  0  0  0  0  0  0  0  0  0  0
   22.8811   -7.1850  -22.9084 N   0  0  0  0  0  0  0  0  0  0  0  0
   22.3550   -6.6869  -21.6910 C   0  0  0  0  0  0  0  0  0  0  0  0
   22.1108   -5.4399  -21.4833 N   0  0  0  0  0  0  0  0  0  0  0  0
   22.0743   -7.5967  -20.6276 N   0  0  0  0  0  0  0  0  0  0  0  0
   22.3371   -8.9991  -20.7515 C   0  0  0  0  0  0  0  0  0  0  0  0
   22.0006   -9.7342  -19.4554 C   0  0  0  0  0  0  0  0  0  0  0  0
   20.7291   -9.2204  -18.8530 C   0  0  0  0  0  0  0  0  0  0  0  0
   20.3708   -9.9699  -17.5629 C   0  0  2  0  0  0  0  0  0  0  0  0
   19.5820  -11.1306  -17.8224 N   0  0  0  0  0  0  0  0  0  0  0  0
   19.7045   -9.0503  -16.6279 C   0  0  0  0  0  0  0  0  0  0  0  0
   18.4978   -8.7005  -16.7670 O   0  0  0  0  0  0  0  0  0  0  0  0
   21.7095   -5.1934  -20.5515 C   0  0  0  0  0  0  0  0  0  0  0  0
   19.2298   -9.3602  -12.9657 C   0  0  2  0  0  0  0  0  0  0  0  0
   19.9546   -8.0504  -13.1445 C   0  0  0  0  0  0  0  0  0  0  0  0
   21.3952   -8.2657  -12.7416 C   0  0  2  0  0  0  0  0  0  0  0  0
   19.8165   -7.5710  -14.5760 N   0  0  0  0  0  0  0  0  0  0  0  0
   20.4020   -8.5055  -15.5062 C   0  0  0  0  0  0  0  0  0  0  0  0
   20.4149   -6.2455  -14.7815 O   0  0  0  0  0  0  0  0  0  0  0  0
   19.8442   -5.1405  -14.1859 O   0  0  0  0  0  0  0  0  0  0  0  0
  2  3  1  6
  2  1  1  0
  4  2  1  0
  4  5  1  0
  5  7  1  0
  5  6  1  1
  7  8  2  0
 10 12  1  0
 10  9  1  0
 11 10  2  0
 13 14  1  0
 13 12  1  0
 14 15  1  0
 16 15  1  6
 17 16  1  0
 17  7  1  0
 18 19  2  0
 18 16  1  0
 21 20  1  1
 21 23  1  0
 22 21  1  0
 23 25  1  0
 23 24  1  1
 24 18  1  0
 25 26  1  0
 27 25  2  0
M  END
$$$$
