LRV.pdb
     RDKit          3D

 27 26  0  0  1  0  0  0  0  0999 V2000
   26.1564  -19.1518   -7.6569 C   0  0  0  0  0  0  0  0  0  0  0  0
   26.1324  -20.4766   -8.4119 C   0  0  1  0  0  0  0  0  0  0  0  0
   24.9148  -21.2804   -7.9875 C   0  0  0  0  0  0  0  0  0  0  0  0
   26.0687  -20.1180   -9.8808 C   0  0  0  0  0  0  0  0  0  0  0  0
   26.1527  -21.3943  -10.7290 C   0  0  2  0  0  0  0  0  0  0  0  0
   27.5005  -21.8381  -10.8789 N   0  0  0  0  0  0  0  0  0  0  0  0
   25.6559  -20.9439  -12.0911 C   0  0  0  0  0  0  0  0  0  0  0  0
   26.4558  -20.2779  -12.7706 O   0  0  0  0  0  0  0  0  0  0  0  0
   20.2036  -24.6390  -14.2808 N   0  0  0  0  0  0  0  0  0  0  0  0
   19.4981  -23.4550  -13.9528 C   0  0  0  0  0  0  0  0  0  0  0  0
   18.5218  -23.4225  -13.1141 N   0  0  0  0  0  0  0  0  0  0  0  0
   19.8727  -22.2248  -14.5722 N   0  0  0  0  0  0  0  0  0  0  0  0
   20.7122  -22.1943  -15.7320 C   0  0  0  0  0  0  0  0  0  0  0  0
   21.9990  -21.4192  -15.4543 C   0  0  0  0  0  0  0  0  0  0  0  0
   22.5067  -21.6858  -14.0706 C   0  0  0  0  0  0  0  0  0  0  0  0
   23.8567  -21.0004  -13.8213 C   0  0  2  0  0  0  0  0  0  0  0  0
   24.3642  -21.2814  -12.5173 N   0  0  0  0  0  0  0  0  0  0  0  0
   23.7269  -19.5549  -14.0609 C   0  0  0  0  0  0  0  0  0  0  0  0
   22.9982  -18.8126  -13.3427 O   0  0  0  0  0  0  0  0  0  0  0  0
   18.0421  -22.5029  -12.9940 C   0  0  0  0  0  0  0  0  0  0  0  0
   26.9027  -17.5735  -14.9043 C   0  0  2  0  0  0  0  0  0  0  0  0
   25.8250  -17.0263  -15.8054 C   0  0  0  0  0  0  0  0  0  0  0  0
   26.1311  -17.4811  -17.2137 C   0  0  2  0  0  0  0  0  0  0  0  0
   24.4629  -17.4898  -15.3277 N   0  0  0  0  0  0  0  0  0  0  0  0
   24.4290  -18.9185  -15.1302 C   0  0  0  0  0  0  0  0  0  0  0  0
   23.3864  -17.1036  -16.2492 O   0  0  0  0  0  0  0  0  0  0  0  0
   22.9551  -15.7944  -16.2826 O   0  0  0  0  0  0  0  0  0  0  0  0
  2  3  1  1
  2  1  1  0
  4  2  1  0
  4  5  1  0
  5  7  1  0
  5  6  1  6
  7  8  2  0
 10 12  1  0
 10  9  1  0
 11 10  2  0
 13 14  1  0
 13 12  1  0
 14 15  1  0
 16 15  1  1
 17 16  1  0
 17  7  1  0
 18 19  2  0
 18 16  1  0
 21 20  1  6
 21 23  1  0
 22 21  1  0
 23 25  1  0
 23 24  1  1
 24 18  1  0
 25 26  1  0
 27 25  2  0
M  END
$$$$
