LRV.pdb
     RDKit          3D

 27 26  0  0  1  0  0  0  0  0999 V2000
   25.4298  -12.8952  -17.1278 C   0  0  0  0  0  0  0  0  0  0  0  0
   26.4894  -13.9502  -16.8283 C   0  0  1  0  0  0  0  0  0  0  0  0
   27.1223  -13.6641  -15.4768 C   0  0  0  0  0  0  0  0  0  0  0  0
   25.7653  -15.2790  -16.8252 C   0  0  0  0  0  0  0  0  0  0  0  0
   26.7254  -16.3903  -16.3795 C   0  0  2  0  0  0  0  0  0  0  0  0
   27.6002  -16.7842  -17.4357 N   0  0  0  0  0  0  0  0  0  0  0  0
   25.7992  -17.5559  -16.0820 C   0  0  0  0  0  0  0  0  0  0  0  0
   25.3006  -18.1223  -17.0698 O   0  0  0  0  0  0  0  0  0  0  0  0
   24.4327  -23.3821  -12.6690 N   0  0  0  0  0  0  0  0  0  0  0  0
   25.4665  -23.0227  -11.7696 C   0  0  0  0  0  0  0  0  0  0  0  0
   26.5756  -23.6695  -11.6715 N   0  0  0  0  0  0  0  0  0  0  0  0
   25.2901  -21.8895  -10.9200 N   0  0  0  0  0  0  0  0  0  0  0  0
   24.1946  -20.9840  -11.0954 C   0  0  0  0  0  0  0  0  0  0  0  0
   24.0281  -20.6070  -12.5664 C   0  0  0  0  0  0  0  0  0  0  0  0
   24.9148  -19.4583  -12.9373 C   0  0  0  0  0  0  0  0  0  0  0  0
   24.6832  -19.0094  -14.3862 C   0  0  2  0  0  0  0  0  0  0  0  0
   25.5491  -17.9371  -14.7568 N   0  0  0  0  0  0  0  0  0  0  0  0
   23.2662  -18.6615  -14.5735 C   0  0  0  0  0  0  0  0  0  0  0  0
   22.7003  -17.7470  -13.9092 O   0  0  0  0  0  0  0  0  0  0  0  0
   27.2912  -23.2703  -11.0244 C   0  0  0  0  0  0  0  0  0  0  0  0
   21.3928  -18.4590  -18.0880 C   0  0  2  0  0  0  0  0  0  0  0  0
   20.6263  -19.3570  -17.1504 C   0  0  0  0  0  0  0  0  0  0  0  0
   20.8755  -20.7849  -17.5781 C   0  0  2  0  0  0  0  0  0  0  0  0
   21.0501  -19.0965  -15.7184 N   0  0  0  0  0  0  0  0  0  0  0  0
   22.4573  -19.3515  -15.5279 C   0  0  0  0  0  0  0  0  0  0  0  0
   20.2797  -19.8926  -14.7540 O   0  0  0  0  0  0  0  0  0  0  0  0
   18.9550  -19.5878  -14.5230 O   0  0  0  0  0  0  0  0  0  0  0  0
  2  3  1  1
  2  1  1  0
  4  2  1  0
  4  5  1  0
  5  7  1  0
  5  6  1  6
  7  8  2  0
 10 12  1  0
 10  9  1  0
 11 10  2  0
 13 14  1  0
 13 12  1  0
 14 15  1  0
 16 15  1  1
 17 16  1  0
 17  7  1  0
 18 19  2  0
 18 16  1  0
 21 20  1  6
 21 23  1  0
 22 21  1  0
 23 25  1  0
 23 24  1  1
 24 18  1  0
 25 26  1  0
 27 25  2  0
M  END
$$$$
