LRV.pdb
     RDKit          3D

 27 26  0  0  1  0  0  0  0  0999 V2000
   27.7636  -18.3773   -5.0618 C   0  0  0  0  0  0  0  0  0  0  0  0
   28.7333  -19.5062   -5.3950 C   0  0  1  0  0  0  0  0  0  0  0  0
   28.5430  -20.6460   -4.4084 C   0  0  0  0  0  0  0  0  0  0  0  0
   28.3991  -19.9397   -6.8058 C   0  0  0  0  0  0  0  0  0  0  0  0
   26.8846  -19.8394   -7.0329 C   0  0  2  0  0  0  0  0  0  0  0  0
   26.2177  -21.0479   -6.6717 N   0  0  0  0  0  0  0  0  0  0  0  0
   26.7655  -19.6728   -8.5373 C   0  0  0  0  0  0  0  0  0  0  0  0
   26.8629  -18.5104   -8.9668 O   0  0  0  0  0  0  0  0  0  0  0  0
   31.9265  -20.5481  -10.0714 N   0  0  0  0  0  0  0  0  0  0  0  0
   31.7294  -21.9187  -10.3706 C   0  0  0  0  0  0  0  0  0  0  0  0
   32.3863  -22.8686   -9.8014 N   0  0  0  0  0  0  0  0  0  0  0  0
   30.7582  -22.2870  -11.3495 N   0  0  0  0  0  0  0  0  0  0  0  0
   30.0116  -21.3020  -12.0728 C   0  0  0  0  0  0  0  0  0  0  0  0
   28.8864  -20.7295  -11.2126 C   0  0  0  0  0  0  0  0  0  0  0  0
   27.5827  -21.4088  -11.4998 C   0  0  0  0  0  0  0  0  0  0  0  0
   26.4163  -20.7246  -10.7747 C   0  0  2  0  0  0  0  0  0  0  0  0
   26.5581  -20.7912   -9.3561 N   0  0  0  0  0  0  0  0  0  0  0  0
   25.1444  -21.3081  -11.2279 C   0  0  0  0  0  0  0  0  0  0  0  0
   24.8280  -22.5088  -10.9910 O   0  0  0  0  0  0  0  0  0  0  0  0
   32.1795  -23.8383  -10.1289 C   0  0  0  0  0  0  0  0  0  0  0  0
   21.7412  -19.4429  -10.9139 C   0  0  2  0  0  0  0  0  0  0  0  0
   21.8449  -19.9672  -12.3236 C   0  0  0  0  0  0  0  0  0  0  0  0
   22.1274  -18.7912  -13.2298 C   0  0  2  0  0  0  0  0  0  0  0  0
   22.9187  -21.0343  -12.4038 N   0  0  0  0  0  0  0  0  0  0  0  0
   24.1981  -20.5320  -11.9653 C   0  0  0  0  0  0  0  0  0  0  0  0
   23.0552  -21.5890  -13.7569 O   0  0  0  0  0  0  0  0  0  0  0  0
   22.0389  -22.3575  -14.2839 O   0  0  0  0  0  0  0  0  0  0  0  0
  2  3  1  1
  2  1  1  0
  4  2  1  0
  4  5  1  0
  5  7  1  0
  5  6  1  6
  7  8  2  0
 10 12  1  0
 10  9  1  0
 11 10  2  0
 13 14  1  0
 13 12  1  0
 14 15  1  0
 16 15  1  6
 17 16  1  0
 17  7  1  0
 18 19  2  0
 18 16  1  0
 21 20  1  6
 21 23  1  0
 22 21  1  0
 23 25  1  0
 23 24  1  6
 24 18  1  0
 25 26  1  0
 27 25  2  0
M  END
$$$$
