YWE.pdb
     RDKit          3D

 36 38  0  0  1  0  0  0  0  0999 V2000
   28.3802  -19.6099  -22.3096 O   0  0  0  0  0  0  0  0  0  0  0  0
   27.8120  -19.9462  -21.0845 C   0  0  0  0  0  0  0  0  0  0  0  0
   26.8143  -20.9363  -21.0604 C   0  0  0  0  0  0  0  0  0  0  0  0
   26.2502  -21.2707  -19.8479 C   0  0  0  0  0  0  0  0  0  0  0  0
   26.6341  -20.6629  -18.6509 C   0  0  0  0  0  0  0  0  0  0  0  0
   25.9793  -21.0602  -17.4061 C   0  0  0  0  0  0  0  0  0  0  0  0
   26.9565  -21.8532  -16.5442 C   0  0  2  0  0  0  0  0  0  0  0  0
   27.0399  -23.1565  -17.1535 N   0  0  0  0  0  0  0  0  0  0  0  0
   26.4623  -21.9823  -15.1660 C   0  0  0  0  0  0  0  0  0  0  0  0
   25.5296  -22.7935  -14.9143 O   0  0  0  0  0  0  0  0  0  0  0  0
   27.6125  -19.6975  -18.7058 C   0  0  0  0  0  0  0  0  0  0  0  0
   28.2067  -19.3330  -19.9191 C   0  0  0  0  0  0  0  0  0  0  0  0
   26.9601  -21.2491  -14.0425 N   0  0  0  0  0  0  0  0  0  0  0  0
   26.3041  -21.2746  -12.7599 C   0  0  1  0  0  0  0  0  0  0  0  0
   27.1624  -20.7548  -11.6538 C   0  0  0  0  0  0  0  0  0  0  0  0
   26.4896  -20.4136  -10.4032 C   0  0  0  0  0  0  0  0  0  0  0  0
   25.1640  -20.1748  -10.1231 C   0  0  0  0  0  0  0  0  0  0  0  0
   25.0689  -19.8919   -8.8127 N   0  0  0  0  0  0  0  0  0  0  0  0
   26.2914  -19.9414   -8.2422 C   0  0  0  0  0  0  0  0  0  0  0  0
   26.7443  -19.7342   -6.9402 C   0  0  0  0  0  0  0  0  0  0  0  0
   28.0807  -19.8478   -6.6107 C   0  0  0  0  0  0  0  0  0  0  0  0
   28.9669  -20.1793   -7.6329 C   0  0  0  0  0  0  0  0  0  0  0  0
   28.5486  -20.3877   -8.9143 C   0  0  0  0  0  0  0  0  0  0  0  0
   27.2108  -20.2673   -9.2102 C   0  0  0  0  0  0  0  0  0  0  0  0
   24.9449  -20.7006  -12.8071 C   0  0  0  0  0  0  0  0  0  0  0  0
   24.8123  -19.4599  -13.0861 O   0  0  0  0  0  0  0  0  0  0  0  0
   23.7754  -21.4470  -12.5630 N   0  0  0  0  0  0  0  0  0  0  0  0
   22.4571  -20.8059  -12.6592 C   0  0  1  0  0  0  0  0  0  0  0  0
   21.6553  -21.4165  -13.7555 C   0  0  0  0  0  0  0  0  0  0  0  0
   21.5961  -20.5233  -14.9573 C   0  0  0  0  0  0  0  0  0  0  0  0
   20.7355  -21.1886  -16.0181 C   0  0  0  0  0  0  0  0  0  0  0  0
   20.2709  -22.3168  -15.7442 O   0  0  0  0  0  0  0  0  0  0  0  0
   21.7875  -20.8133  -11.3609 C   0  0  0  0  0  0  0  0  0  0  0  0
   22.0598  -21.6101  -10.4443 O   0  0  0  0  0  0  0  0  0  0  0  0
   20.5092  -20.5338  -17.2125 O   0  0  0  0  0  0  0  0  0  0  0  0
   20.7583  -19.8923  -11.0521 O   0  0  0  0  0  0  0  0  0  0  0  0
  2 12  2  0
  2  1  1  0
  3  2  1  0
  4  5  1  0
  4  3  2  0
  5 11  2  0
  6  7  1  0
  6  5  1  0
  7  8  1  6
  9  7  1  0
  9 13  1  0
 10  9  2  0
 11 12  1  0
 14 13  1  0
 14 15  1  1
 15 16  1  0
 16 17  2  0
 18 17  1  0
 19 18  1  0
 20 19  2  0
 21 20  1  0
 22 21  2  0
 22 23  1  0
 23 24  2  0
 24 19  1  0
 24 16  1  0
 25 14  1  0
 25 26  2  0
 27 25  1  0
 28 27  1  0
 28 33  1  0
 28 29  1  6
 30 29  1  0
 30 31  1  0
 31 32  2  0
 31 35  1  0
 33 34  2  0
 33 36  1  0
M  END
$$$$
