YWE.pdb
     RDKit          3D

 36 38  0  0  1  0  0  0  0  0999 V2000
   20.6274  -25.3549  -20.4507 O   0  0  0  0  0  0  0  0  0  0  0  0
   21.8103  -26.0649  -20.6337 C   0  0  0  0  0  0  0  0  0  0  0  0
   22.8312  -25.4758  -21.3998 C   0  0  0  0  0  0  0  0  0  0  0  0
   24.0035  -26.1777  -21.5823 C   0  0  0  0  0  0  0  0  0  0  0  0
   24.2094  -27.4458  -21.0354 C   0  0  0  0  0  0  0  0  0  0  0  0
   25.4741  -28.1345  -21.2851 C   0  0  0  0  0  0  0  0  0  0  0  0
   26.2153  -28.3374  -19.9675 C   0  0  2  0  0  0  0  0  0  0  0  0
   26.5790  -27.0163  -19.5211 N   0  0  0  0  0  0  0  0  0  0  0  0
   27.4277  -29.1452  -20.1613 C   0  0  0  0  0  0  0  0  0  0  0  0
   27.3252  -30.3234  -20.6005 O   0  0  0  0  0  0  0  0  0  0  0  0
   23.1925  -27.9967  -20.2906 C   0  0  0  0  0  0  0  0  0  0  0  0
   21.9892  -27.3128  -20.0851 C   0  0  0  0  0  0  0  0  0  0  0  0
   28.7616  -28.7032  -19.8910 N   0  0  0  0  0  0  0  0  0  0  0  0
   29.9090  -29.5422  -20.1269 C   0  0  1  0  0  0  0  0  0  0  0  0
   31.0413  -28.8154  -20.7747 C   0  0  0  0  0  0  0  0  0  0  0  0
   32.2181  -29.6070  -21.1236 C   0  0  0  0  0  0  0  0  0  0  0  0
   32.3813  -30.9628  -21.2908 C   0  0  0  0  0  0  0  0  0  0  0  0
   33.6701  -31.1829  -21.6016 N   0  0  0  0  0  0  0  0  0  0  0  0
   34.3400  -30.0115  -21.6395 C   0  0  0  0  0  0  0  0  0  0  0  0
   35.6680  -29.6815  -21.9053 C   0  0  0  0  0  0  0  0  0  0  0  0
   36.1096  -28.3732  -21.8777 C   0  0  0  0  0  0  0  0  0  0  0  0
   35.1741  -27.3873  -21.5725 C   0  0  0  0  0  0  0  0  0  0  0  0
   33.8692  -27.6844  -21.3093 C   0  0  0  0  0  0  0  0  0  0  0  0
   33.4607  -28.9973  -21.3452 C   0  0  0  0  0  0  0  0  0  0  0  0
   30.2844  -30.3357  -18.9400 C   0  0  0  0  0  0  0  0  0  0  0  0
   30.5559  -29.7213  -17.8521 O   0  0  0  0  0  0  0  0  0  0  0  0
   30.3592  -31.7424  -18.9355 N   0  0  0  0  0  0  0  0  0  0  0  0
   30.6857  -32.4602  -17.6961 C   0  0  1  0  0  0  0  0  0  0  0  0
   30.0835  -33.8222  -17.7042 C   0  0  0  0  0  0  0  0  0  0  0  0
   30.9242  -34.8003  -16.9411 C   0  0  0  0  0  0  0  0  0  0  0  0
   30.7995  -36.1659  -17.5954 C   0  0  0  0  0  0  0  0  0  0  0  0
   29.9531  -36.2807  -18.5086 O   0  0  0  0  0  0  0  0  0  0  0  0
   32.1278  -32.4517  -17.4635 C   0  0  0  0  0  0  0  0  0  0  0  0
   32.9770  -32.4106  -18.3725 O   0  0  0  0  0  0  0  0  0  0  0  0
   31.6076  -37.1985  -17.1625 O   0  0  0  0  0  0  0  0  0  0  0  0
   32.6683  -32.4914  -16.1561 O   0  0  0  0  0  0  0  0  0  0  0  0
  2 12  2  0
  2  1  1  0
  3  2  1  0
  4  5  1  0
  4  3  2  0
  5 11  2  0
  6  7  1  0
  6  5  1  0
  7  8  1  6
  9  7  1  0
  9 13  1  0
 10  9  2  0
 11 12  1  0
 14 13  1  0
 14 15  1  1
 15 16  1  0
 16 17  2  0
 18 17  1  0
 19 18  1  0
 20 19  2  0
 21 20  1  0
 22 21  2  0
 22 23  1  0
 23 24  2  0
 24 19  1  0
 24 16  1  0
 25 14  1  0
 25 26  2  0
 27 25  1  0
 28 27  1  0
 28 33  1  0
 28 29  1  6
 30 29  1  0
 30 31  1  0
 31 32  2  0
 31 35  1  0
 33 34  2  0
 33 36  1  0
M  END
$$$$
