YWE.pdb
     RDKit          3D

 36 38  0  0  1  0  0  0  0  0999 V2000
   29.9637  -17.0184  -19.1034 O   0  0  0  0  0  0  0  0  0  0  0  0
   29.1894  -17.5188  -18.0608 C   0  0  0  0  0  0  0  0  0  0  0  0
   29.7929  -17.6888  -16.8026 C   0  0  0  0  0  0  0  0  0  0  0  0
   29.0275  -18.1846  -15.7689 C   0  0  0  0  0  0  0  0  0  0  0  0
   27.6819  -18.5212  -15.9286 C   0  0  0  0  0  0  0  0  0  0  0  0
   26.9391  -19.0553  -14.7887 C   0  0  0  0  0  0  0  0  0  0  0  0
   27.6224  -20.3205  -14.2800 C   0  0  2  0  0  0  0  0  0  0  0  0
   27.3945  -21.3178  -15.2950 N   0  0  0  0  0  0  0  0  0  0  0  0
   27.0339  -20.7652  -13.0087 C   0  0  0  0  0  0  0  0  0  0  0  0
   25.9046  -21.3275  -13.0104 O   0  0  0  0  0  0  0  0  0  0  0  0
   27.1188  -18.3441  -17.1711 C   0  0  0  0  0  0  0  0  0  0  0  0
   27.8659  -17.8434  -18.2430 C   0  0  0  0  0  0  0  0  0  0  0  0
   27.6454  -20.6167  -11.7236 N   0  0  0  0  0  0  0  0  0  0  0  0
   26.9326  -20.8853  -10.5006 C   0  0  1  0  0  0  0  0  0  0  0  0
   27.7329  -20.5781   -9.2779 C   0  0  0  0  0  0  0  0  0  0  0  0
   27.0377  -20.6668   -7.9965 C   0  0  0  0  0  0  0  0  0  0  0  0
   25.7749  -21.1113   -7.6794 C   0  0  0  0  0  0  0  0  0  0  0  0
   25.6165  -20.9755   -6.3517 N   0  0  0  0  0  0  0  0  0  0  0  0
   26.7374  -20.4579   -5.8059 C   0  0  0  0  0  0  0  0  0  0  0  0
   27.0950  -20.1236   -4.5007 C   0  0  0  0  0  0  0  0  0  0  0  0
   28.3353  -19.5951   -4.2015 C   0  0  0  0  0  0  0  0  0  0  0  0
   29.2234  -19.4064   -5.2578 C   0  0  0  0  0  0  0  0  0  0  0  0
   28.8977  -19.7260   -6.5431 C   0  0  0  0  0  0  0  0  0  0  0  0
   27.6544  -20.2509   -6.8084 C   0  0  0  0  0  0  0  0  0  0  0  0
   25.5693  -20.3191  -10.5034 C   0  0  0  0  0  0  0  0  0  0  0  0
   25.4328  -19.0485  -10.5435 O   0  0  0  0  0  0  0  0  0  0  0  0
   24.3999  -21.1039  -10.4663 N   0  0  0  0  0  0  0  0  0  0  0  0
   23.1176  -20.5390  -10.9076 C   0  0  1  0  0  0  0  0  0  0  0  0
   22.8211  -20.9429  -12.3099 C   0  0  0  0  0  0  0  0  0  0  0  0
   21.4780  -20.4476  -12.7530 C   0  0  0  0  0  0  0  0  0  0  0  0
   21.2354  -20.9059  -14.1812 C   0  0  0  0  0  0  0  0  0  0  0  0
   20.0890  -21.3239  -14.4544 O   0  0  0  0  0  0  0  0  0  0  0  0
   22.0577  -20.8710   -9.9589 C   0  0  0  0  0  0  0  0  0  0  0  0
   21.9159  -21.9943   -9.4420 O   0  0  0  0  0  0  0  0  0  0  0  0
   22.2684  -20.8430  -15.0953 O   0  0  0  0  0  0  0  0  0  0  0  0
   21.0971  -19.9133   -9.5552 O   0  0  0  0  0  0  0  0  0  0  0  0
  2 12  2  0
  2  1  1  0
  3  2  1  0
  4  5  1  0
  4  3  2  0
  5 11  2  0
  6  7  1  0
  6  5  1  0
  7  8  1  6
  9  7  1  0
  9 13  1  0
 10  9  2  0
 11 12  1  0
 14 13  1  0
 14 15  1  1
 15 16  1  0
 16 17  2  0
 18 17  1  0
 19 18  1  0
 20 19  2  0
 21 20  1  0
 22 21  2  0
 22 23  1  0
 23 24  2  0
 24 19  1  0
 24 16  1  0
 25 14  1  0
 25 26  2  0
 27 25  1  0
 28 27  1  0
 28 33  1  0
 28 29  1  6
 30 29  1  0
 30 31  1  0
 31 32  2  0
 31 35  1  0
 33 34  2  0
 33 36  1  0
M  END
$$$$
