YWE.pdb
     RDKit          3D

 36 38  0  0  1  0  0  0  0  0999 V2000
   30.5295  -17.6953  -21.2951 O   0  0  0  0  0  0  0  0  0  0  0  0
   29.7542  -18.1907  -20.2509 C   0  0  0  0  0  0  0  0  0  0  0  0
   28.6837  -19.0471  -20.5619 C   0  0  0  0  0  0  0  0  0  0  0  0
   27.9146  -19.5386  -19.5288 C   0  0  0  0  0  0  0  0  0  0  0  0
   28.1616  -19.2164  -18.1929 C   0  0  0  0  0  0  0  0  0  0  0  0
   27.2929  -19.7651  -17.1535 C   0  0  0  0  0  0  0  0  0  0  0  0
   28.0228  -20.8811  -16.4129 C   0  0  2  0  0  0  0  0  0  0  0  0
   27.9362  -22.0356  -17.2710 N   0  0  0  0  0  0  0  0  0  0  0  0
   27.3768  -21.1723  -15.1252 C   0  0  0  0  0  0  0  0  0  0  0  0
   26.3345  -21.8825  -15.1001 O   0  0  0  0  0  0  0  0  0  0  0  0
   29.2159  -18.3760  -17.9194 C   0  0  0  0  0  0  0  0  0  0  0  0
   30.0172  -17.8585  -18.9431 C   0  0  0  0  0  0  0  0  0  0  0  0
   27.8380  -20.7111  -13.8516 N   0  0  0  0  0  0  0  0  0  0  0  0
   27.0621  -20.8796  -12.6492 C   0  0  1  0  0  0  0  0  0  0  0  0
   27.7422  -20.3400  -11.4341 C   0  0  0  0  0  0  0  0  0  0  0  0
   26.9528  -20.2876  -10.2064 C   0  0  0  0  0  0  0  0  0  0  0  0
   25.6214  -20.0121   -9.9961 C   0  0  0  0  0  0  0  0  0  0  0  0
   25.3942  -20.0848   -8.6735 N   0  0  0  0  0  0  0  0  0  0  0  0
   26.5374  -20.3983   -8.0275 C   0  0  0  0  0  0  0  0  0  0  0  0
   26.8497  -20.5917   -6.6828 C   0  0  0  0  0  0  0  0  0  0  0  0
   28.1295  -20.9123   -6.2745 C   0  0  0  0  0  0  0  0  0  0  0  0
   29.1048  -21.0365   -7.2612 C   0  0  0  0  0  0  0  0  0  0  0  0
   28.8244  -20.8529   -8.5833 C   0  0  0  0  0  0  0  0  0  0  0  0
   27.5398  -20.5347   -8.9577 C   0  0  0  0  0  0  0  0  0  0  0  0
   25.6603  -20.4471  -12.8142 C   0  0  0  0  0  0  0  0  0  0  0  0
   25.4273  -19.2334  -13.1417 O   0  0  0  0  0  0  0  0  0  0  0  0
   24.5552  -21.3016  -12.6325 N   0  0  0  0  0  0  0  0  0  0  0  0
   23.1900  -20.7932  -12.8224 C   0  0  1  0  0  0  0  0  0  0  0  0
   22.5084  -21.5202  -13.9290 C   0  0  0  0  0  0  0  0  0  0  0  0
   21.9962  -22.8542  -13.4778 C   0  0  0  0  0  0  0  0  0  0  0  0
   20.5192  -22.9514  -13.8205 C   0  0  0  0  0  0  0  0  0  0  0  0
   19.7257  -23.1046  -12.8661 O   0  0  0  0  0  0  0  0  0  0  0  0
   22.4555  -20.8131  -11.5599 C   0  0  0  0  0  0  0  0  0  0  0  0
   22.8097  -21.4659  -10.5612 O   0  0  0  0  0  0  0  0  0  0  0  0
   20.1254  -22.8690  -15.1414 O   0  0  0  0  0  0  0  0  0  0  0  0
   21.2618  -20.0732  -11.3848 O   0  0  0  0  0  0  0  0  0  0  0  0
  2 12  2  0
  2  1  1  0
  3  2  1  0
  4  5  1  0
  4  3  2  0
  5 11  2  0
  6  7  1  0
  6  5  1  0
  7  8  1  6
  9  7  1  0
  9 13  1  0
 10  9  2  0
 11 12  1  0
 14 13  1  0
 14 15  1  1
 15 16  1  0
 16 17  2  0
 18 17  1  0
 19 18  1  0
 20 19  2  0
 21 20  1  0
 22 21  2  0
 22 23  1  0
 23 24  2  0
 24 19  1  0
 24 16  1  0
 25 14  1  0
 25 26  2  0
 27 25  1  0
 28 27  1  0
 28 33  1  0
 28 29  1  6
 30 29  1  0
 30 31  1  0
 31 32  2  0
 31 35  1  0
 33 34  2  0
 33 36  1  0
M  END
$$$$
