YWE.pdb
     RDKit          3D

 36 38  0  0  1  0  0  0  0  0999 V2000
   21.2948  -14.2047  -24.5591 O   0  0  0  0  0  0  0  0  0  0  0  0
   21.4375  -13.4452  -23.4016 C   0  0  0  0  0  0  0  0  0  0  0  0
   21.1203  -14.0410  -22.1685 C   0  0  0  0  0  0  0  0  0  0  0  0
   21.2609  -13.2901  -21.0210 C   0  0  0  0  0  0  0  0  0  0  0  0
   21.7048  -11.9665  -21.0424 C   0  0  0  0  0  0  0  0  0  0  0  0
   21.8144  -11.2295  -19.7850 C   0  0  0  0  0  0  0  0  0  0  0  0
   23.2607  -10.7950  -19.5708 C   0  0  2  0  0  0  0  0  0  0  0  0
   23.9697  -11.9884  -19.1835 N   0  0  0  0  0  0  0  0  0  0  0  0
   23.3591   -9.7922  -18.5008 C   0  0  0  0  0  0  0  0  0  0  0  0
   23.1574  -10.1387  -17.3046 O   0  0  0  0  0  0  0  0  0  0  0  0
   22.0075  -11.4104  -22.2637 C   0  0  0  0  0  0  0  0  0  0  0  0
   21.8763  -12.1431  -23.4485 C   0  0  0  0  0  0  0  0  0  0  0  0
   23.6761   -8.4105  -18.6961 N   0  0  0  0  0  0  0  0  0  0  0  0
   23.7456   -7.4784  -17.5996 C   0  0  1  0  0  0  0  0  0  0  0  0
   25.0842   -6.8296  -17.4677 C   0  0  0  0  0  0  0  0  0  0  0  0
   26.2415   -7.7173  -17.3923 C   0  0  0  0  0  0  0  0  0  0  0  0
   27.3905   -7.7745  -18.1469 C   0  0  0  0  0  0  0  0  0  0  0  0
   28.1391   -8.7853  -17.6736 N   0  0  0  0  0  0  0  0  0  0  0  0
   27.5074   -9.3794  -16.6389 C   0  0  0  0  0  0  0  0  0  0  0  0
   27.8362  -10.4511  -15.8104 C   0  0  0  0  0  0  0  0  0  0  0  0
   26.9935  -10.8717  -14.8003 C   0  0  0  0  0  0  0  0  0  0  0  0
   25.7943  -10.1822  -14.6372 C   0  0  0  0  0  0  0  0  0  0  0  0
   25.4501   -9.1302  -15.4342 C   0  0  0  0  0  0  0  0  0  0  0  0
   26.3113   -8.7354  -16.4313 C   0  0  0  0  0  0  0  0  0  0  0  0
   22.6030   -6.5440  -17.5768 C   0  0  0  0  0  0  0  0  0  0  0  0
   22.3488   -5.8601  -18.6268 O   0  0  0  0  0  0  0  0  0  0  0  0
   21.7678   -6.3621  -16.4571 N   0  0  0  0  0  0  0  0  0  0  0  0
   20.6730   -5.3837  -16.5040 C   0  0  1  0  0  0  0  0  0  0  0  0
   19.4099   -5.9846  -15.9931 C   0  0  0  0  0  0  0  0  0  0  0  0
   19.0366   -7.2165  -16.7604 C   0  0  0  0  0  0  0  0  0  0  0  0
   17.7220   -7.7505  -16.2171 C   0  0  0  0  0  0  0  0  0  0  0  0
   17.2253   -7.1456  -15.2419 O   0  0  0  0  0  0  0  0  0  0  0  0
   21.0590   -4.1496  -15.8244 C   0  0  0  0  0  0  0  0  0  0  0  0
   22.1460   -3.9905  -15.2394 O   0  0  0  0  0  0  0  0  0  0  0  0
   17.1456   -8.8564  -16.8100 O   0  0  0  0  0  0  0  0  0  0  0  0
   20.2005   -3.0253  -15.7846 O   0  0  0  0  0  0  0  0  0  0  0  0
  2 12  2  0
  2  1  1  0
  3  2  1  0
  4  5  1  0
  4  3  2  0
  5 11  2  0
  6  7  1  0
  6  5  1  0
  7  8  1  1
  9  7  1  0
  9 13  1  0
 10  9  2  0
 11 12  1  0
 14 13  1  0
 14 15  1  6
 15 16  1  0
 16 17  2  0
 18 17  1  0
 19 18  1  0
 20 19  2  0
 21 20  1  0
 22 21  2  0
 22 23  1  0
 23 24  2  0
 24 19  1  0
 24 16  1  0
 25 14  1  0
 25 26  2  0
 27 25  1  0
 28 27  1  0
 28 33  1  0
 28 29  1  1
 30 29  1  0
 30 31  1  0
 31 32  2  0
 31 35  1  0
 33 34  2  0
 33 36  1  0
M  END
$$$$
