YWE.pdb
     RDKit          3D

 36 38  0  0  1  0  0  0  0  0999 V2000
   18.2317  -11.9433  -22.6183 O   0  0  0  0  0  0  0  0  0  0  0  0
   18.3944  -11.0814  -21.5377 C   0  0  0  0  0  0  0  0  0  0  0  0
   19.5427  -10.2716  -21.4963 C   0  0  0  0  0  0  0  0  0  0  0  0
   19.7056   -9.4175  -20.4266 C   0  0  0  0  0  0  0  0  0  0  0  0
   18.7744   -9.3304  -19.3899 C   0  0  0  0  0  0  0  0  0  0  0  0
   19.0237   -8.4113  -18.2812 C   0  0  0  0  0  0  0  0  0  0  0  0
   20.2407   -8.8810  -17.4907 C   0  0  2  0  0  0  0  0  0  0  0  0
   19.8472  -10.1243  -16.8775 N   0  0  0  0  0  0  0  0  0  0  0  0
   20.6029   -7.9089  -16.4495 C   0  0  0  0  0  0  0  0  0  0  0  0
   19.9256   -7.8563  -15.3865 O   0  0  0  0  0  0  0  0  0  0  0  0
   17.6608  -10.1352  -19.4577 C   0  0  0  0  0  0  0  0  0  0  0  0
   17.4633  -11.0140  -20.5285 C   0  0  0  0  0  0  0  0  0  0  0  0
   21.6927   -6.9851  -16.5311 N   0  0  0  0  0  0  0  0  0  0  0  0
   21.9848   -6.0501  -15.4744 C   0  0  1  0  0  0  0  0  0  0  0  0
   23.3089   -6.2931  -14.8282 C   0  0  0  0  0  0  0  0  0  0  0  0
   23.6037   -7.6662  -14.4271 C   0  0  0  0  0  0  0  0  0  0  0  0
   22.9701   -8.5078  -13.5422 C   0  0  0  0  0  0  0  0  0  0  0  0
   23.6478   -9.6682  -13.5269 N   0  0  0  0  0  0  0  0  0  0  0  0
   24.6967   -9.5989  -14.3740 C   0  0  0  0  0  0  0  0  0  0  0  0
   25.6971  -10.5028  -14.7278 C   0  0  0  0  0  0  0  0  0  0  0  0
   26.6794  -10.1760  -15.6419 C   0  0  0  0  0  0  0  0  0  0  0  0
   26.6351   -8.9016  -16.2022 C   0  0  0  0  0  0  0  0  0  0  0  0
   25.6665   -7.9995  -15.8731 C   0  0  0  0  0  0  0  0  0  0  0  0
   24.7020   -8.3556  -14.9595 C   0  0  0  0  0  0  0  0  0  0  0  0
   21.7415   -4.6499  -15.8736 C   0  0  0  0  0  0  0  0  0  0  0  0
   22.5554   -4.0938  -16.6878 O   0  0  0  0  0  0  0  0  0  0  0  0
   20.6542   -3.8849  -15.4075 N   0  0  0  0  0  0  0  0  0  0  0  0
   20.4898   -2.4924  -15.8457 C   0  0  1  0  0  0  0  0  0  0  0  0
   19.0636   -2.2079  -16.1661 C   0  0  0  0  0  0  0  0  0  0  0  0
   18.5262   -3.1674  -17.1840 C   0  0  0  0  0  0  0  0  0  0  0  0
   18.7910   -2.6067  -18.5711 C   0  0  0  0  0  0  0  0  0  0  0  0
   18.7682   -1.3623  -18.6923 O   0  0  0  0  0  0  0  0  0  0  0  0
   21.0716   -1.5755  -14.8686 C   0  0  0  0  0  0  0  0  0  0  0  0
   21.0779   -0.3375  -14.9967 O   0  0  0  0  0  0  0  0  0  0  0  0
   19.0391   -3.4759  -19.6149 O   0  0  0  0  0  0  0  0  0  0  0  0
   21.6826   -2.0463  -13.6821 O   0  0  0  0  0  0  0  0  0  0  0  0
  2 12  2  0
  2  1  1  0
  3  2  1  0
  4  5  1  0
  4  3  2  0
  5 11  2  0
  6  7  1  0
  6  5  1  0
  7  8  1  1
  9  7  1  0
  9 13  1  0
 10  9  2  0
 11 12  1  0
 14 13  1  0
 14 15  1  6
 15 16  1  0
 16 17  2  0
 18 17  1  0
 19 18  1  0
 20 19  2  0
 21 20  1  0
 22 21  2  0
 22 23  1  0
 23 24  2  0
 24 19  1  0
 24 16  1  0
 25 14  1  0
 25 26  2  0
 27 25  1  0
 28 27  1  0
 28 33  1  0
 28 29  1  1
 30 29  1  0
 30 31  1  0
 31 32  2  0
 31 35  1  0
 33 34  2  0
 33 36  1  0
M  END
$$$$
