YWE.pdb
     RDKit          3D

 36 38  0  0  1  0  0  0  0  0999 V2000
   29.8104  -16.3417  -18.7885 O   0  0  0  0  0  0  0  0  0  0  0  0
   29.0562  -17.0474  -17.8557 C   0  0  0  0  0  0  0  0  0  0  0  0
   28.8921  -16.4945  -16.5737 C   0  0  0  0  0  0  0  0  0  0  0  0
   28.1456  -17.1922  -15.6484 C   0  0  0  0  0  0  0  0  0  0  0  0
   27.5509  -18.4214  -15.9400 C   0  0  0  0  0  0  0  0  0  0  0  0
   26.7859  -19.1089  -14.9016 C   0  0  0  0  0  0  0  0  0  0  0  0
   27.6012  -20.2753  -14.3528 C   0  0  2  0  0  0  0  0  0  0  0  0
   27.5806  -21.2810  -15.3848 N   0  0  0  0  0  0  0  0  0  0  0  0
   26.9961  -20.8130  -13.1260 C   0  0  0  0  0  0  0  0  0  0  0  0
   25.9330  -21.4879  -13.2023 O   0  0  0  0  0  0  0  0  0  0  0  0
   27.7290  -18.9374  -17.2027 C   0  0  0  0  0  0  0  0  0  0  0  0
   28.4807  -18.2566  -18.1667 C   0  0  0  0  0  0  0  0  0  0  0  0
   27.5207  -20.6384  -11.8062 N   0  0  0  0  0  0  0  0  0  0  0  0
   26.7465  -20.9382  -10.6286 C   0  0  1  0  0  0  0  0  0  0  0  0
   27.5290  -20.8014   -9.3640 C   0  0  0  0  0  0  0  0  0  0  0  0
   26.7699  -20.8046   -8.1163 C   0  0  0  0  0  0  0  0  0  0  0  0
   25.4966  -21.2409   -7.8313 C   0  0  0  0  0  0  0  0  0  0  0  0
   25.2689  -21.0097   -6.5271 N   0  0  0  0  0  0  0  0  0  0  0  0
   26.3556  -20.4387   -5.9653 C   0  0  0  0  0  0  0  0  0  0  0  0
   26.6425  -20.0045   -4.6721 C   0  0  0  0  0  0  0  0  0  0  0  0
   27.8609  -19.4393   -4.3507 C   0  0  0  0  0  0  0  0  0  0  0  0
   28.8003  -19.3174   -5.3719 C   0  0  0  0  0  0  0  0  0  0  0  0
   28.5440  -19.7351   -6.6447 C   0  0  0  0  0  0  0  0  0  0  0  0
   27.3208  -20.2943   -6.9327 C   0  0  0  0  0  0  0  0  0  0  0  0
   25.4384  -20.2542  -10.6210 C   0  0  0  0  0  0  0  0  0  0  0  0
   25.4053  -18.9960  -10.3956 O   0  0  0  0  0  0  0  0  0  0  0  0
   24.2142  -20.9119  -10.8518 N   0  0  0  0  0  0  0  0  0  0  0  0
   22.9571  -20.1519  -10.8543 C   0  0  1  0  0  0  0  0  0  0  0  0
   22.3976  -20.0674  -12.2319 C   0  0  0  0  0  0  0  0  0  0  0  0
   22.4522  -21.3921  -12.9303 C   0  0  0  0  0  0  0  0  0  0  0  0
   21.8759  -21.2318  -14.3269 C   0  0  0  0  0  0  0  0  0  0  0  0
   22.6920  -21.0746  -15.2613 O   0  0  0  0  0  0  0  0  0  0  0  0
   22.0263  -20.6976   -9.8696 C   0  0  0  0  0  0  0  0  0  0  0  0
   22.2194  -21.7564   -9.2445 O   0  0  0  0  0  0  0  0  0  0  0  0
   20.5064  -21.2652  -14.5004 O   0  0  0  0  0  0  0  0  0  0  0  0
   20.8123  -20.0422   -9.5539 O   0  0  0  0  0  0  0  0  0  0  0  0
  2 12  2  0
  2  1  1  0
  3  2  1  0
  4  5  1  0
  4  3  2  0
  5 11  2  0
  6  7  1  0
  6  5  1  0
  7  8  1  6
  9  7  1  0
  9 13  1  0
 10  9  2  0
 11 12  1  0
 14 13  1  0
 14 15  1  1
 15 16  1  0
 16 17  2  0
 18 17  1  0
 19 18  1  0
 20 19  2  0
 21 20  1  0
 22 21  2  0
 22 23  1  0
 23 24  2  0
 24 19  1  0
 24 16  1  0
 25 14  1  0
 25 26  2  0
 27 25  1  0
 28 27  1  0
 28 33  1  0
 28 29  1  6
 30 29  1  0
 30 31  1  0
 31 32  2  0
 31 35  1  0
 33 34  2  0
 33 36  1  0
M  END
$$$$
