YWE.pdb
     RDKit          3D

 36 38  0  0  1  0  0  0  0  0999 V2000
   30.2644  -17.2014  -19.0291 O   0  0  0  0  0  0  0  0  0  0  0  0
   29.4614  -17.6803  -17.9981 C   0  0  0  0  0  0  0  0  0  0  0  0
   30.0083  -17.7547  -16.7052 C   0  0  0  0  0  0  0  0  0  0  0  0
   29.2145  -18.2290  -15.6829 C   0  0  0  0  0  0  0  0  0  0  0  0
   27.8943  -18.6351  -15.8872 C   0  0  0  0  0  0  0  0  0  0  0  0
   27.1195  -19.1409  -14.7558 C   0  0  0  0  0  0  0  0  0  0  0  0
   27.7090  -20.4659  -14.2832 C   0  0  2  0  0  0  0  0  0  0  0  0
   27.4012  -21.4180  -15.3203 N   0  0  0  0  0  0  0  0  0  0  0  0
   27.0962  -20.8968  -13.0186 C   0  0  0  0  0  0  0  0  0  0  0  0
   25.9910  -21.5047  -13.0397 O   0  0  0  0  0  0  0  0  0  0  0  0
   27.3867  -18.5509  -17.1630 C   0  0  0  0  0  0  0  0  0  0  0  0
   28.1640  -18.0747  -18.2245 C   0  0  0  0  0  0  0  0  0  0  0  0
   27.6577  -20.6856  -11.7195 N   0  0  0  0  0  0  0  0  0  0  0  0
   26.8933  -20.8812  -10.5139 C   0  0  1  0  0  0  0  0  0  0  0  0
   27.6675  -20.5736   -9.2745 C   0  0  0  0  0  0  0  0  0  0  0  0
   26.9523  -20.6873   -8.0062 C   0  0  0  0  0  0  0  0  0  0  0  0
   25.6794  -21.1235   -7.7195 C   0  0  0  0  0  0  0  0  0  0  0  0
   25.5029  -21.0209   -6.3912 N   0  0  0  0  0  0  0  0  0  0  0  0
   26.6221  -20.5327   -5.8154 C   0  0  0  0  0  0  0  0  0  0  0  0
   26.9643  -20.2378   -4.4967 C   0  0  0  0  0  0  0  0  0  0  0  0
   28.2067  -19.7337   -4.1654 C   0  0  0  0  0  0  0  0  0  0  0  0
   29.1127  -19.5286   -5.2032 C   0  0  0  0  0  0  0  0  0  0  0  0
   28.8021  -19.8097   -6.5013 C   0  0  0  0  0  0  0  0  0  0  0  0
   27.5564  -20.3112   -6.7985 C   0  0  0  0  0  0  0  0  0  0  0  0
   25.5599  -20.2513  -10.5799 C   0  0  0  0  0  0  0  0  0  0  0  0
   25.4856  -18.9934  -10.7969 O   0  0  0  0  0  0  0  0  0  0  0  0
   24.3541  -20.9617  -10.4188 N   0  0  0  0  0  0  0  0  0  0  0  0
   23.0767  -20.3431  -10.7976 C   0  0  1  0  0  0  0  0  0  0  0  0
   23.0084  -20.1403  -12.2713 C   0  0  0  0  0  0  0  0  0  0  0  0
   21.6968  -19.5450  -12.6848 C   0  0  0  0  0  0  0  0  0  0  0  0
   21.5661  -19.6529  -14.1947 C   0  0  0  0  0  0  0  0  0  0  0  0
   22.1693  -20.5977  -14.7489 O   0  0  0  0  0  0  0  0  0  0  0  0
   21.9563  -21.1054  -10.2521 C   0  0  0  0  0  0  0  0  0  0  0  0
   21.9930  -22.3293  -10.0290 O   0  0  0  0  0  0  0  0  0  0  0  0
   20.8044  -18.7234  -14.8748 O   0  0  0  0  0  0  0  0  0  0  0  0
   20.7237  -20.4871   -9.9341 O   0  0  0  0  0  0  0  0  0  0  0  0
  2 12  2  0
  2  1  1  0
  3  2  1  0
  4  5  1  0
  4  3  2  0
  5 11  2  0
  6  7  1  0
  6  5  1  0
  7  8  1  6
  9  7  1  0
  9 13  1  0
 10  9  2  0
 11 12  1  0
 14 13  1  0
 14 15  1  1
 15 16  1  0
 16 17  2  0
 18 17  1  0
 19 18  1  0
 20 19  2  0
 21 20  1  0
 22 21  2  0
 22 23  1  0
 23 24  2  0
 24 19  1  0
 24 16  1  0
 25 14  1  0
 25 26  2  0
 27 25  1  0
 28 27  1  0
 28 33  1  0
 28 29  1  6
 30 29  1  0
 30 31  1  0
 31 32  2  0
 31 35  1  0
 33 34  2  0
 33 36  1  0
M  END
$$$$
