YRD.pdb
     RDKit          3D

 32 32  0  0  1  0  0  0  0  0999 V2000
   21.8546  -18.7121  -13.9514 O   0  0  0  0  0  0  0  0  0  0  0  0
   21.1539  -19.6270  -13.1735 C   0  0  0  0  0  0  0  0  0  0  0  0
   19.9193  -19.2975  -12.6817 C   0  0  0  0  0  0  0  0  0  0  0  0
   19.2140  -20.2067  -11.9038 C   0  0  0  0  0  0  0  0  0  0  0  0
   19.7317  -21.4507  -11.6098 C   0  0  0  0  0  0  0  0  0  0  0  0
   18.9800  -22.4203  -10.7814 C   0  0  0  0  0  0  0  0  0  0  0  0
   18.7600  -23.7188  -11.5381 C   0  0  2  0  0  0  0  0  0  0  0  0
   17.8437  -23.5249  -12.6343 N   0  0  0  0  0  0  0  0  0  0  0  0
   18.0927  -24.6534  -10.5587 C   0  0  0  0  0  0  0  0  0  0  0  0
   16.9216  -24.4504  -10.2058 O   0  0  0  0  0  0  0  0  0  0  0  0
   20.9720  -21.7641  -12.1118 C   0  0  0  0  0  0  0  0  0  0  0  0
   21.6984  -20.8697  -12.8937 C   0  0  0  0  0  0  0  0  0  0  0  0
   20.9867  -32.3833   -8.2541 N   0  0  0  0  0  0  0  0  0  0  0  0
   20.9579  -31.2868   -9.1541 C   0  0  0  0  0  0  0  0  0  0  0  0
   21.7132  -31.2549  -10.1876 N   0  0  0  0  0  0  0  0  0  0  0  0
   20.0779  -30.2046   -8.9046 N   0  0  0  0  0  0  0  0  0  0  0  0
   19.1804  -30.2035   -7.7491 C   0  0  0  0  0  0  0  0  0  0  0  0
   18.3280  -28.9251   -7.8969 C   0  0  0  0  0  0  0  0  0  0  0  0
   18.9973  -27.9531   -8.8221 C   0  0  0  0  0  0  0  0  0  0  0  0
   18.2713  -26.6818   -9.0961 C   0  0  2  0  0  0  0  0  0  0  0  0
   18.7615  -25.7638  -10.0226 N   0  0  0  0  0  0  0  0  0  0  0  0
   17.9472  -26.0137   -7.8273 C   0  0  0  0  0  0  0  0  0  0  0  0
   18.9255  -25.4400   -7.2253 O   0  0  0  0  0  0  0  0  0  0  0  0
   21.7368  -30.5190  -10.9077 N   0  0  0  0  0  0  0  0  0  0  0  0
   16.6695  -25.9727   -7.2615 C   0  0  2  0  0  0  0  0  0  0  0  0
   16.5004  -25.1108   -6.0611 C   0  0  0  0  0  0  0  0  0  0  0  0
   15.3600  -24.1412   -6.3393 C   0  0  0  0  0  0  0  0  0  0  0  0
   15.0157  -23.4213   -5.1163 O   0  0  0  0  0  0  0  0  0  0  0  0
   15.6835  -23.4946   -4.0819 C   0  0  0  0  0  0  0  0  0  0  0  0
   16.1607  -26.0336   -4.9709 O   0  0  0  0  0  0  0  0  0  0  0  0
   15.4609  -27.0716   -5.2252 O   0  0  0  0  0  0  0  0  0  0  0  0
   13.8793  -22.6019   -5.0886 O   0  0  0  0  0  0  0  0  0  0  0  0
  2  1  1  0
  2 12  2  0
  3  2  1  0
  4  3  2  0
  4  5  1  0
  5 11  2  0
  6  5  1  0
  7  9  1  0
  7  6  1  0
  7  8  1  6
  9 10  2  0
 11 12  1  0
 14 15  2  0
 14 13  1  0
 16 14  1  0
 17 16  1  0
 18 17  1  0
 19 18  1  0
 20 19  1  1
 21 20  1  0
 21  9  1  0
 22 20  1  0
 23 22  2  0
 24 22  1  0
 25 26  1  1
 25 24  1  0
 26 27  1  0
 27 28  2  0
 27 31  1  0
 29 32  1  0
 29 25  1  0
 30 29  2  0
M  END
$$$$
