QRQ.pdb
     RDKit          3D

 30 29  0  0  1  0  0  0  0  0999 V2000
   26.9815  -18.7314   -7.8589 N   0  0  0  0  0  0  0  0  0  0  0  0
   26.9905  -20.1452   -8.0927 C   0  0  0  0  0  0  0  0  0  0  0  0
   28.0362  -20.8097   -7.8853 O   0  0  0  0  0  0  0  0  0  0  0  0
   25.7895  -20.8566   -8.5774 C   0  0  0  0  0  0  0  0  0  0  0  0
   25.0987  -20.0817   -9.6546 C   0  0  0  0  0  0  0  0  0  0  0  0
   24.9178  -20.9803  -10.8797 C   0  0  2  0  0  0  0  0  0  0  0  0
   26.0107  -21.8904  -11.0227 N   0  0  0  0  0  0  0  0  0  0  0  0
   24.6793  -20.1668  -12.0994 C   0  0  0  0  0  0  0  0  0  0  0  0
   23.7440  -19.3262  -12.1194 O   0  0  0  0  0  0  0  0  0  0  0  0
   29.7263  -22.1067  -15.4033 N   0  0  0  0  0  0  0  0  0  0  0  0
   29.0795  -21.6239  -16.5602 C   0  0  0  0  0  0  0  0  0  0  0  0
   28.8438  -22.4381  -17.5290 N   0  0  0  0  0  0  0  0  0  0  0  0
   28.6898  -20.2394  -16.6537 N   0  0  0  0  0  0  0  0  0  0  0  0
   28.8734  -19.3313  -15.5727 C   0  0  0  0  0  0  0  0  0  0  0  0
   27.6512  -19.1872  -14.7101 C   0  0  0  0  0  0  0  0  0  0  0  0
   26.3954  -19.5814  -15.4312 C   0  0  0  0  0  0  0  0  0  0  0  0
   25.2040  -19.5819  -14.5089 C   0  0  2  0  0  0  0  0  0  0  0  0
   25.4661  -20.2858  -13.2739 N   0  0  0  0  0  0  0  0  0  0  0  0
   24.0751  -20.3142  -15.1892 C   0  0  0  0  0  0  0  0  0  0  0  0
   23.9583  -21.5578  -15.0702 O   0  0  0  0  0  0  0  0  0  0  0  0
   28.3559  -22.1056  -18.3800 N   0  0  0  0  0  0  0  0  0  0  0  0
   19.1869  -19.5006  -12.7135 C   0  0  0  0  0  0  0  0  0  0  0  0
   19.7814  -20.8065  -12.8595 O   0  0  0  0  0  0  0  0  0  0  0  0
   19.3042  -21.6992  -12.1466 C   0  0  0  0  0  0  0  0  0  0  0  0
   20.8702  -20.9212  -13.8252 C   0  0  0  0  0  0  0  0  0  0  0  0
   21.2821  -19.6432  -14.4761 C   0  0  2  0  0  0  0  0  0  0  0  0
   21.7202  -19.7847  -15.8984 N   0  0  0  0  0  0  0  0  0  0  0  0
   23.1470  -19.5501  -15.9702 C   0  0  0  0  0  0  0  0  0  0  0  0
   21.0453  -18.8648  -16.8204 O   0  0  0  0  0  0  0  0  0  0  0  0
   21.3392  -17.5217  -16.7970 O   0  0  0  0  0  0  0  0  0  0  0  0
  1  2  1  0
  2  3  2  0
  4  2  1  0
  4  5  1  0
  6  5  1  0
  6  8  1  0
  6  7  1  6
  8  9  2  0
 10 11  1  0
 11 12  2  0
 11 13  1  0
 13 14  1  0
 14 15  1  0
 16 15  1  0
 17 19  1  0
 17 16  1  6
 18  8  1  0
 18 17  1  0
 19 20  2  0
 21 22  1  0
 22 23  2  0
 24 22  1  0
 24 25  1  0
 26 25  1  1
 27 26  1  0
 27 19  1  0
 28 26  1  0
 29 28  1  0
 30 28  2  0
M  END
$$$$
