QRQ.pdb
     RDKit          3D

 30 29  0  0  1  0  0  0  0  0999 V2000
   26.7399  -24.3408  -16.6996 N   0  0  0  0  0  0  0  0  0  0  0  0
   28.1337  -24.2340  -17.0150 C   0  0  0  0  0  0  0  0  0  0  0  0
   28.7118  -25.1643  -17.6303 O   0  0  0  0  0  0  0  0  0  0  0  0
   28.9242  -23.0454  -16.6333 C   0  0  0  0  0  0  0  0  0  0  0  0
   28.0881  -22.0562  -15.8848 C   0  0  0  0  0  0  0  0  0  0  0  0
   27.4651  -21.0740  -16.8789 C   0  0  2  0  0  0  0  0  0  0  0  0
   28.4695  -20.3387  -17.5818 N   0  0  0  0  0  0  0  0  0  0  0  0
   26.4735  -20.1983  -16.2037 C   0  0  0  0  0  0  0  0  0  0  0  0
   26.7523  -19.6739  -15.0950 O   0  0  0  0  0  0  0  0  0  0  0  0
   18.8224  -16.7227  -15.5802 N   0  0  0  0  0  0  0  0  0  0  0  0
   19.6381  -15.6151  -15.8922 C   0  0  0  0  0  0  0  0  0  0  0  0
   19.3384  -14.4623  -15.4041 N   0  0  0  0  0  0  0  0  0  0  0  0
   20.7890  -15.7743  -16.7452 N   0  0  0  0  0  0  0  0  0  0  0  0
   21.2006  -17.0506  -17.2233 C   0  0  0  0  0  0  0  0  0  0  0  0
   22.1311  -17.7610  -16.2809 C   0  0  0  0  0  0  0  0  0  0  0  0
   23.3071  -18.3664  -16.9903 C   0  0  0  0  0  0  0  0  0  0  0  0
   24.1511  -19.1943  -16.0564 C   0  0  2  0  0  0  0  0  0  0  0  0
   25.1966  -19.9111  -16.7510 N   0  0  0  0  0  0  0  0  0  0  0  0
   23.2698  -20.2360  -15.4146 C   0  0  0  0  0  0  0  0  0  0  0  0
   22.7352  -21.1343  -16.1085 O   0  0  0  0  0  0  0  0  0  0  0  0
   19.9187  -13.6350  -15.6315 N   0  0  0  0  0  0  0  0  0  0  0  0
   23.3813  -21.0643   -9.1959 C   0  0  0  0  0  0  0  0  0  0  0  0
   22.1999  -20.3208   -9.5590 O   0  0  0  0  0  0  0  0  0  0  0  0
   21.6137  -19.7516   -8.6288 C   0  0  0  0  0  0  0  0  0  0  0  0
   21.8362  -20.3272  -10.9728 C   0  0  0  0  0  0  0  0  0  0  0  0
   22.7082  -21.1605  -11.8514 C   0  0  1  0  0  0  0  0  0  0  0  0
   22.3039  -21.1766  -13.2906 N   0  0  0  0  0  0  0  0  0  0  0  0
   23.0639  -20.1674  -13.9975 C   0  0  0  0  0  0  0  0  0  0  0  0
   20.8749  -20.9271  -13.5074 O   0  0  0  0  0  0  0  0  0  0  0  0
   19.9618  -21.9418  -13.3414 O   0  0  0  0  0  0  0  0  0  0  0  0
  1  2  1  0
  2  3  2  0
  4  2  1  0
  4  5  1  0
  6  5  1  0
  6  8  1  0
  6  7  1  1
  8  9  2  0
 10 11  1  0
 11 12  2  0
 11 13  1  0
 13 14  1  0
 14 15  1  0
 16 15  1  0
 17 19  1  0
 17 16  1  6
 18  8  1  0
 18 17  1  0
 19 20  2  0
 21 22  1  0
 22 23  2  0
 24 22  1  0
 24 25  1  0
 26 25  1  6
 27 26  1  0
 27 19  1  0
 28 26  1  0
 29 28  1  0
 30 28  2  0
M  END
$$$$
