QRQ.pdb
     RDKit          3D

 30 29  0  0  1  0  0  0  0  0999 V2000
   23.6554  -21.3916  -19.5223 N   0  0  0  0  0  0  0  0  0  0  0  0
   24.8175  -21.0210  -20.2745 C   0  0  0  0  0  0  0  0  0  0  0  0
   24.6927  -20.5529  -21.4336 O   0  0  0  0  0  0  0  0  0  0  0  0
   26.1787  -21.1745  -19.7206 C   0  0  0  0  0  0  0  0  0  0  0  0
   26.1410  -21.7638  -18.3461 C   0  0  0  0  0  0  0  0  0  0  0  0
   26.1629  -20.6327  -17.3160 C   0  0  2  0  0  0  0  0  0  0  0  0
   27.3836  -19.8921  -17.3831 N   0  0  0  0  0  0  0  0  0  0  0  0
   25.8766  -21.1538  -15.9549 C   0  0  0  0  0  0  0  0  0  0  0  0
   25.0644  -22.1023  -15.8046 O   0  0  0  0  0  0  0  0  0  0  0  0
   30.2598  -20.9842   -8.5325 N   0  0  0  0  0  0  0  0  0  0  0  0
   30.1416  -21.6246   -9.7838 C   0  0  0  0  0  0  0  0  0  0  0  0
   31.1448  -22.2882  -10.2423 N   0  0  0  0  0  0  0  0  0  0  0  0
   28.9152  -21.5355  -10.5357 N   0  0  0  0  0  0  0  0  0  0  0  0
   27.7893  -20.8083  -10.0555 C   0  0  0  0  0  0  0  0  0  0  0  0
   26.6317  -20.8140  -11.0139 C   0  0  0  0  0  0  0  0  0  0  0  0
   27.0420  -20.4269  -12.4048 C   0  0  0  0  0  0  0  0  0  0  0  0
   26.0896  -20.9747  -13.4359 C   0  0  2  0  0  0  0  0  0  0  0  0
   26.4822  -20.6304  -14.7837 N   0  0  0  0  0  0  0  0  0  0  0  0
   24.7346  -20.3525  -13.2111 C   0  0  0  0  0  0  0  0  0  0  0  0
   24.5191  -19.1594  -13.5345 O   0  0  0  0  0  0  0  0  0  0  0  0
   31.0939  -22.7250  -11.1802 N   0  0  0  0  0  0  0  0  0  0  0  0
   18.4224  -22.4291  -14.2522 C   0  0  0  0  0  0  0  0  0  0  0  0
   19.2261  -21.2712  -14.5576 O   0  0  0  0  0  0  0  0  0  0  0  0
   19.1112  -20.8223  -15.7057 C   0  0  0  0  0  0  0  0  0  0  0  0
   20.0762  -20.7676  -13.4828 C   0  0  0  0  0  0  0  0  0  0  0  0
   21.5102  -21.1727  -13.5616 C   0  0  1  0  0  0  0  0  0  0  0  0
   22.3603  -20.6661  -12.4410 N   0  0  0  0  0  0  0  0  0  0  0  0
   23.7087  -21.1613  -12.6208 C   0  0  0  0  0  0  0  0  0  0  0  0
   21.8863  -21.0643  -11.1112 O   0  0  0  0  0  0  0  0  0  0  0  0
   20.7203  -20.5390  -10.6058 O   0  0  0  0  0  0  0  0  0  0  0  0
  1  2  1  0
  2  3  2  0
  4  2  1  0
  4  5  1  0
  6  5  1  0
  6  8  1  0
  6  7  1  1
  8  9  2  0
 10 11  1  0
 11 12  2  0
 11 13  1  0
 13 14  1  0
 14 15  1  0
 16 15  1  0
 17 19  1  0
 17 16  1  1
 18  8  1  0
 18 17  1  0
 19 20  2  0
 21 22  1  0
 22 23  2  0
 24 22  1  0
 24 25  1  0
 26 25  1  6
 27 26  1  0
 27 19  1  0
 28 26  1  0
 29 28  1  0
 30 28  2  0
M  END
$$$$
