QRQ.pdb
     RDKit          3D

 30 29  0  0  1  0  0  0  0  0999 V2000
   16.0261  -14.3834    2.3769 N   0  0  0  0  0  0  0  0  0  0  0  0
   15.5192  -13.4142    3.3029 C   0  0  0  0  0  0  0  0  0  0  0  0
   14.5500  -12.6833    2.9796 O   0  0  0  0  0  0  0  0  0  0  0  0
   16.1100  -13.2456    4.6467 C   0  0  0  0  0  0  0  0  0  0  0  0
   17.3107  -14.1201    4.8243 C   0  0  0  0  0  0  0  0  0  0  0  0
   17.8253  -13.9781    6.2582 C   0  0  2  0  0  0  0  0  0  0  0  0
   18.8896  -13.0271    6.3366 N   0  0  0  0  0  0  0  0  0  0  0  0
   18.1912  -15.3032    6.8205 C   0  0  0  0  0  0  0  0  0  0  0  0
   19.2903  -15.8325    6.5142 O   0  0  0  0  0  0  0  0  0  0  0  0
   15.0022  -21.6128   11.2704 N   0  0  0  0  0  0  0  0  0  0  0  0
   16.2622  -21.6824   11.9007 C   0  0  0  0  0  0  0  0  0  0  0  0
   16.6207  -22.7858   12.4586 N   0  0  0  0  0  0  0  0  0  0  0  0
   17.1331  -20.5341   11.9187 N   0  0  0  0  0  0  0  0  0  0  0  0
   16.7350  -19.2791   11.3770 C   0  0  0  0  0  0  0  0  0  0  0  0
   17.3238  -19.0091   10.0209 C   0  0  0  0  0  0  0  0  0  0  0  0
   16.9566  -17.6499    9.5009 C   0  0  0  0  0  0  0  0  0  0  0  0
   17.6189  -17.3656    8.1777 C   0  0  2  0  0  0  0  0  0  0  0  0
   17.3512  -16.0255    7.7066 N   0  0  0  0  0  0  0  0  0  0  0  0
   17.0466  -18.3054    7.1468 C   0  0  0  0  0  0  0  0  0  0  0  0
   16.0825  -17.9511    6.4262 O   0  0  0  0  0  0  0  0  0  0  0  0
   17.5504  -22.8621   12.9089 N   0  0  0  0  0  0  0  0  0  0  0  0
   18.1754  -19.8930    1.9246 C   0  0  0  0  0  0  0  0  0  0  0  0
   16.9168  -19.3259    2.3421 O   0  0  0  0  0  0  0  0  0  0  0  0
   16.1478  -18.9903    1.4317 C   0  0  0  0  0  0  0  0  0  0  0  0
   16.6990  -19.2146    3.7814 C   0  0  0  0  0  0  0  0  0  0  0  0
   17.8169  -19.7120    4.6354 C   0  0  2  0  0  0  0  0  0  0  0  0
   17.3807  -20.4436    5.8640 N   0  0  0  0  0  0  0  0  0  0  0  0
   17.6347  -19.6064    7.0175 C   0  0  0  0  0  0  0  0  0  0  0  0
   18.0571  -21.7305    6.0587 O   0  0  0  0  0  0  0  0  0  0  0  0
   17.7345  -22.8087    5.2686 O   0  0  0  0  0  0  0  0  0  0  0  0
  1  2  1  0
  2  3  2  0
  4  2  1  0
  4  5  1  0
  6  5  1  0
  6  8  1  0
  6  7  1  6
  8  9  2  0
 10 11  1  0
 11 12  2  0
 11 13  1  0
 13 14  1  0
 14 15  1  0
 16 15  1  0
 17 19  1  0
 17 16  1  1
 18  8  1  0
 18 17  1  0
 19 20  2  0
 21 22  1  0
 22 23  2  0
 24 22  1  0
 24 25  1  0
 26 25  1  6
 27 26  1  0
 27 19  1  0
 28 26  1  0
 29 28  1  0
 30 28  2  0
M  END
$$$$
