QRQ.pdb
     RDKit          3D

 30 29  0  0  1  0  0  0  0  0999 V2000
   26.1440  -18.2477  -16.3842 N   0  0  0  0  0  0  0  0  0  0  0  0
   27.1430  -18.6230  -17.3406 C   0  0  0  0  0  0  0  0  0  0  0  0
   27.7782  -17.7378  -17.9659 O   0  0  0  0  0  0  0  0  0  0  0  0
   27.4541  -20.0406  -17.6183 C   0  0  0  0  0  0  0  0  0  0  0  0
   26.6012  -20.9536  -16.7956 C   0  0  0  0  0  0  0  0  0  0  0  0
   27.3670  -21.3499  -15.5317 C   0  0  2  0  0  0  0  0  0  0  0  0
   28.2566  -22.4401  -15.7833 N   0  0  0  0  0  0  0  0  0  0  0  0
   26.4309  -21.6146  -14.4093 C   0  0  0  0  0  0  0  0  0  0  0  0
   25.2983  -22.1100  -14.6411 O   0  0  0  0  0  0  0  0  0  0  0  0
   28.4086  -20.5014   -6.3057 N   0  0  0  0  0  0  0  0  0  0  0  0
   27.6139  -19.5160   -6.9278 C   0  0  0  0  0  0  0  0  0  0  0  0
   27.6558  -18.3085   -6.4836 N   0  0  0  0  0  0  0  0  0  0  0  0
   26.7683  -19.8585   -8.0437 N   0  0  0  0  0  0  0  0  0  0  0  0
   26.1439  -21.1335   -8.1511 C   0  0  0  0  0  0  0  0  0  0  0  0
   25.5022  -21.3644   -9.4903 C   0  0  0  0  0  0  0  0  0  0  0  0
   26.4678  -21.1787  -10.6242 C   0  0  0  0  0  0  0  0  0  0  0  0
   25.8173  -21.4500  -11.9558 C   0  0  2  0  0  0  0  0  0  0  0  0
   26.7483  -21.3340  -13.0554 N   0  0  0  0  0  0  0  0  0  0  0  0
   24.7499  -20.4100  -12.1854 C   0  0  0  0  0  0  0  0  0  0  0  0
   25.0245  -19.3315  -12.7649 O   0  0  0  0  0  0  0  0  0  0  0  0
   27.0953  -17.5670   -6.9406 N   0  0  0  0  0  0  0  0  0  0  0  0
   22.6328  -22.5723  -16.2026 C   0  0  0  0  0  0  0  0  0  0  0  0
   21.3837  -21.8805  -15.9992 O   0  0  0  0  0  0  0  0  0  0  0  0
   20.5525  -21.9886  -16.9104 C   0  0  0  0  0  0  0  0  0  0  0  0
   21.2473  -21.1381  -14.7496 C   0  0  0  0  0  0  0  0  0  0  0  0
   22.4237  -21.2092  -13.8344 C   0  0  1  0  0  0  0  0  0  0  0  0
   22.2620  -20.4506  -12.5563 N   0  0  0  0  0  0  0  0  0  0  0  0
   23.4220  -20.6908  -11.7241 C   0  0  0  0  0  0  0  0  0  0  0  0
   21.0579  -20.8126  -11.8009 O   0  0  0  0  0  0  0  0  0  0  0  0
   19.8263  -20.3455  -12.1958 O   0  0  0  0  0  0  0  0  0  0  0  0
  1  2  1  0
  2  3  2  0
  4  2  1  0
  4  5  1  0
  6  5  1  0
  6  8  1  0
  6  7  1  6
  8  9  2  0
 10 11  1  0
 11 12  2  0
 11 13  1  0
 13 14  1  0
 14 15  1  0
 16 15  1  0
 17 19  1  0
 17 16  1  1
 18  8  1  0
 18 17  1  0
 19 20  2  0
 21 22  1  0
 22 23  2  0
 24 22  1  0
 24 25  1  0
 26 25  1  6
 27 26  1  0
 27 19  1  0
 28 26  1  0
 29 28  1  0
 30 28  2  0
M  END
$$$$
