QRQ.pdb
     RDKit          3D

 30 29  0  0  1  0  0  0  0  0999 V2000
   28.0528  -17.3537  -17.4407 N   0  0  0  0  0  0  0  0  0  0  0  0
   27.2561  -18.4796  -17.8297 C   0  0  0  0  0  0  0  0  0  0  0  0
   27.7699  -19.6248  -17.8821 O   0  0  0  0  0  0  0  0  0  0  0  0
   25.8272  -18.3331  -18.1763 C   0  0  0  0  0  0  0  0  0  0  0  0
   25.3621  -16.9258  -17.9738 C   0  0  0  0  0  0  0  0  0  0  0  0
   23.9320  -16.7908  -18.5007 C   0  0  2  0  0  0  0  0  0  0  0  0
   23.8146  -17.3148  -19.8255 N   0  0  0  0  0  0  0  0  0  0  0  0
   23.4598  -15.3869  -18.3901 C   0  0  0  0  0  0  0  0  0  0  0  0
   23.9732  -14.4940  -19.1120 O   0  0  0  0  0  0  0  0  0  0  0  0
   15.9744  -11.4941  -15.2489 N   0  0  0  0  0  0  0  0  0  0  0  0
   16.7916  -10.4659  -15.7632 C   0  0  0  0  0  0  0  0  0  0  0  0
   16.3076   -9.2776  -15.8678 N   0  0  0  0  0  0  0  0  0  0  0  0
   18.1476  -10.7441  -16.1650 N   0  0  0  0  0  0  0  0  0  0  0  0
   18.6896  -12.0599  -16.1240 C   0  0  0  0  0  0  0  0  0  0  0  0
   20.0724  -12.1461  -16.7063 C   0  0  0  0  0  0  0  0  0  0  0  0
   20.5697  -13.5599  -16.7861 C   0  0  0  0  0  0  0  0  0  0  0  0
   21.9667  -13.6249  -17.3467 C   0  0  2  0  0  0  0  0  0  0  0  0
   22.4363  -14.9839  -17.4943 N   0  0  0  0  0  0  0  0  0  0  0  0
   22.9019  -12.9507  -16.3749 C   0  0  0  0  0  0  0  0  0  0  0  0
   23.1643  -13.4823  -15.2690 O   0  0  0  0  0  0  0  0  0  0  0  0
   16.9046   -8.5014  -16.2053 N   0  0  0  0  0  0  0  0  0  0  0  0
   28.2434  -11.1715  -17.8665 C   0  0  0  0  0  0  0  0  0  0  0  0
   28.1872  -10.4092  -16.6434 O   0  0  0  0  0  0  0  0  0  0  0  0
   29.2542   -9.9003  -16.2756 C   0  0  0  0  0  0  0  0  0  0  0  0
   26.8859  -10.3280  -15.9867 C   0  0  0  0  0  0  0  0  0  0  0  0
   25.7917  -11.1020  -16.6425 C   0  0  1  0  0  0  0  0  0  0  0  0
   24.4767  -11.0389  -15.9341 N   0  0  0  0  0  0  0  0  0  0  0  0
   23.4770  -11.6928  -16.7520 C   0  0  0  0  0  0  0  0  0  0  0  0
   24.0261   -9.6740  -15.6420 O   0  0  0  0  0  0  0  0  0  0  0  0
   24.5400   -8.9908  -14.5649 O   0  0  0  0  0  0  0  0  0  0  0  0
  1  2  1  0
  2  3  2  0
  4  2  1  0
  4  5  1  0
  6  5  1  0
  6  8  1  0
  6  7  1  6
  8  9  2  0
 10 11  1  0
 11 12  2  0
 11 13  1  0
 13 14  1  0
 14 15  1  0
 16 15  1  0
 17 19  1  0
 17 16  1  1
 18  8  1  0
 18 17  1  0
 19 20  2  0
 21 22  1  0
 22 23  2  0
 24 22  1  0
 24 25  1  0
 26 25  1  1
 27 26  1  0
 27 19  1  0
 28 26  1  0
 29 28  1  0
 30 28  2  0
M  END
$$$$
