QRQ.pdb
     RDKit          3D

 30 29  0  0  1  0  0  0  0  0999 V2000
   11.3131  -19.8176    4.1528 N   0  0  0  0  0  0  0  0  0  0  0  0
   11.3955  -19.9278    2.7264 C   0  0  0  0  0  0  0  0  0  0  0  0
   10.3846  -20.2687    2.0631 O   0  0  0  0  0  0  0  0  0  0  0  0
   12.6518  -19.6484    2.0004 C   0  0  0  0  0  0  0  0  0  0  0  0
   13.7414  -19.2399    2.9405 C   0  0  0  0  0  0  0  0  0  0  0  0
   15.0051  -18.9277    2.1362 C   0  0  2  0  0  0  0  0  0  0  0  0
   15.4533  -20.0726    1.4071 N   0  0  0  0  0  0  0  0  0  0  0  0
   16.0576  -18.3508    3.0112 C   0  0  0  0  0  0  0  0  0  0  0  0
   16.9997  -19.0765    3.4207 O   0  0  0  0  0  0  0  0  0  0  0  0
   18.5706  -11.4004    7.5638 N   0  0  0  0  0  0  0  0  0  0  0  0
   19.6055  -11.5323    6.6145 C   0  0  0  0  0  0  0  0  0  0  0  0
   20.7539  -11.0082    6.8665 N   0  0  0  0  0  0  0  0  0  0  0  0
   19.3780  -12.2435    5.3816 N   0  0  0  0  0  0  0  0  0  0  0  0
   18.1072  -12.7963    5.0552 C   0  0  0  0  0  0  0  0  0  0  0  0
   18.0796  -14.2969    5.1338 C   0  0  0  0  0  0  0  0  0  0  0  0
   17.0274  -14.8944    4.2459 C   0  0  0  0  0  0  0  0  0  0  0  0
   17.0674  -16.4003    4.2756 C   0  0  2  0  0  0  0  0  0  0  0  0
   16.0625  -16.9931    3.4224 N   0  0  0  0  0  0  0  0  0  0  0  0
   16.7624  -16.8574    5.6798 C   0  0  0  0  0  0  0  0  0  0  0  0
   15.5870  -16.8303    6.1181 O   0  0  0  0  0  0  0  0  0  0  0  0
   21.5303  -11.1070    6.1881 N   0  0  0  0  0  0  0  0  0  0  0  0
   17.1815  -22.0144    7.8012 C   0  0  0  0  0  0  0  0  0  0  0  0
   17.1513  -21.3889    9.1005 O   0  0  0  0  0  0  0  0  0  0  0  0
   16.9863  -22.1508   10.0623 C   0  0  0  0  0  0  0  0  0  0  0  0
   17.3178  -19.9388    9.1283 C   0  0  0  0  0  0  0  0  0  0  0  0
   17.5549  -19.2989    7.8014 C   0  0  2  0  0  0  0  0  0  0  0  0
   17.6387  -17.8067    7.8384 N   0  0  0  0  0  0  0  0  0  0  0  0
   17.8498  -17.3201    6.4914 C   0  0  0  0  0  0  0  0  0  0  0  0
   18.7121  -17.2948    8.6971 O   0  0  0  0  0  0  0  0  0  0  0  0
   18.5401  -17.2365   10.0601 O   0  0  0  0  0  0  0  0  0  0  0  0
  1  2  1  0
  2  3  2  0
  4  2  1  0
  4  5  1  0
  6  5  1  0
  6  8  1  0
  6  7  1  1
  8  9  2  0
 10 11  1  0
 11 12  2  0
 11 13  1  0
 13 14  1  0
 14 15  1  0
 16 15  1  0
 17 19  1  0
 17 16  1  1
 18  8  1  0
 18 17  1  0
 19 20  2  0
 21 22  1  0
 22 23  2  0
 24 22  1  0
 24 25  1  0
 26 25  1  6
 27 26  1  0
 27 19  1  0
 28 26  1  0
 29 28  1  0
 30 28  2  0
M  END
$$$$
