QRQ.pdb
     RDKit          3D

 30 29  0  0  1  0  0  0  0  0999 V2000
   26.4842  -14.6512  -18.2940 N   0  0  0  0  0  0  0  0  0  0  0  0
   25.8216  -15.6820  -19.0371 C   0  0  0  0  0  0  0  0  0  0  0  0
   24.8979  -15.3863  -19.8354 O   0  0  0  0  0  0  0  0  0  0  0  0
   26.1972  -17.1037  -18.8913 C   0  0  0  0  0  0  0  0  0  0  0  0
   27.3236  -17.2697  -17.9211 C   0  0  0  0  0  0  0  0  0  0  0  0
   27.6645  -18.7564  -17.7999 C   0  0  2  0  0  0  0  0  0  0  0  0
   27.8669  -19.3497  -19.0845 N   0  0  0  0  0  0  0  0  0  0  0  0
   26.6428  -19.4671  -16.9891 C   0  0  0  0  0  0  0  0  0  0  0  0
   25.5658  -19.8376  -17.5225 O   0  0  0  0  0  0  0  0  0  0  0  0
   27.2721  -20.9626   -8.5524 N   0  0  0  0  0  0  0  0  0  0  0  0
   25.9011  -20.8849   -8.8752 C   0  0  0  0  0  0  0  0  0  0  0  0
   25.0358  -20.8674   -7.9223 N   0  0  0  0  0  0  0  0  0  0  0  0
   25.4782  -20.8264  -10.2519 N   0  0  0  0  0  0  0  0  0  0  0  0
   25.8875  -21.7998  -11.2068 C   0  0  0  0  0  0  0  0  0  0  0  0
   25.3809  -21.5150  -12.5928 C   0  0  0  0  0  0  0  0  0  0  0  0
   26.3379  -20.6753  -13.3875 C   0  0  0  0  0  0  0  0  0  0  0  0
   25.8535  -20.4693  -14.7993 C   0  0  2  0  0  0  0  0  0  0  0  0
   26.8159  -19.7603  -15.6120 N   0  0  0  0  0  0  0  0  0  0  0  0
   24.6132  -19.6129  -14.7573 C   0  0  0  0  0  0  0  0  0  0  0  0
   24.6979  -18.3635  -14.8361 O   0  0  0  0  0  0  0  0  0  0  0  0
   24.0250  -20.8044   -8.1396 N   0  0  0  0  0  0  0  0  0  0  0  0
   21.1507  -18.5457  -18.5374 C   0  0  0  0  0  0  0  0  0  0  0  0
   20.3281  -17.8911  -17.5500 O   0  0  0  0  0  0  0  0  0  0  0  0
   19.3532  -17.2664  -17.9885 C   0  0  0  0  0  0  0  0  0  0  0  0
   20.7397  -18.0412  -16.1574 C   0  0  0  0  0  0  0  0  0  0  0  0
   22.0205  -18.7772  -15.9472 C   0  0  1  0  0  0  0  0  0  0  0  0
   22.1010  -19.5256  -14.6555 N   0  0  0  0  0  0  0  0  0  0  0  0
   23.3442  -20.2668  -14.6253 C   0  0  0  0  0  0  0  0  0  0  0  0
   20.9908  -20.4602  -14.4423 O   0  0  0  0  0  0  0  0  0  0  0  0
   19.7271  -19.9858  -14.1800 O   0  0  0  0  0  0  0  0  0  0  0  0
  1  2  1  0
  2  3  2  0
  4  2  1  0
  4  5  1  0
  6  5  1  0
  6  8  1  0
  6  7  1  6
  8  9  2  0
 10 11  1  0
 11 12  2  0
 11 13  1  0
 13 14  1  0
 14 15  1  0
 16 15  1  0
 17 19  1  0
 17 16  1  1
 18  8  1  0
 18 17  1  0
 19 20  2  0
 21 22  1  0
 22 23  2  0
 24 22  1  0
 24 25  1  0
 26 25  1  1
 27 26  1  0
 27 19  1  0
 28 26  1  0
 29 28  1  0
 30 28  2  0
M  END
$$$$
