DYI.pdb
     RDKit          3D

 29 29  0  0  1  0  0  0  0  0999 V2000
    8.4333  -18.6155   21.1511 N   0  0  0  0  0  0  0  0  0  0  0  0
    9.8265  -18.2901   20.9962 C   0  0  1  0  0  0  0  0  0  0  0  0
   10.3647  -18.5651   19.6085 C   0  0  0  0  0  0  0  0  0  0  0  0
    9.8511  -19.8769   19.1489 C   0  0  0  0  0  0  0  0  0  0  0  0
    9.9572  -20.9046   19.8482 O   0  0  0  0  0  0  0  0  0  0  0  0
   10.0232  -16.8768   21.3930 C   0  0  0  0  0  0  0  0  0  0  0  0
   11.1512  -16.3523   21.2355 O   0  0  0  0  0  0  0  0  0  0  0  0
    9.2156  -20.0507   17.9046 O   0  0  0  0  0  0  0  0  0  0  0  0
    7.2856  -13.1000   16.3441 O   0  0  0  0  0  0  0  0  0  0  0  0
    7.4440  -13.3300   17.7062 C   0  0  0  0  0  0  0  0  0  0  0  0
    6.9389  -14.4584   18.3153 C   0  0  0  0  0  0  0  0  0  0  0  0
    7.1156  -14.6496   19.6625 C   0  0  0  0  0  0  0  0  0  0  0  0
    7.7941  -13.7275   20.4238 C   0  0  0  0  0  0  0  0  0  0  0  0
    7.8967  -13.9579   21.8641 C   0  0  0  0  0  0  0  0  0  0  0  0
    9.1370  -14.6786   22.3106 C   0  0  2  0  0  0  0  0  0  0  0  0
    8.9583  -16.1246   21.9423 N   0  0  0  0  0  0  0  0  0  0  0  0
    9.2590  -14.6880   23.7634 C   0  0  0  0  0  0  0  0  0  0  0  0
   10.0853  -13.9117   24.3132 O   0  0  0  0  0  0  0  0  0  0  0  0
    8.2895  -12.6109   19.7949 C   0  0  0  0  0  0  0  0  0  0  0  0
    8.1271  -12.3963   18.4558 C   0  0  0  0  0  0  0  0  0  0  0  0
    7.4251  -12.0369   27.7318 C   0  0  0  0  0  0  0  0  0  0  0  0
    7.7061  -13.5404   27.6700 C   0  0  0  0  0  0  0  0  0  0  0  0
    7.6935  -13.9187   26.2221 C   0  0  2  0  0  0  0  0  0  0  0  0
    6.2803  -14.1586   25.7191 C   0  0  0  0  0  0  0  0  0  0  0  0
    8.4581  -15.2262   26.0380 C   0  0  2  0  0  0  0  0  0  0  0  0
    8.4758  -15.5316   24.5892 N   0  0  0  0  0  0  0  0  0  0  0  0
    7.7518  -16.3234   26.7061 C   0  0  0  0  0  0  0  0  0  0  0  0
    7.3027  -17.4653   26.0335 O   0  0  0  0  0  0  0  0  0  0  0  0
    7.5042  -16.2956   27.9391 O   0  0  0  0  0  0  0  0  0  0  0  0
  2  1  1  6
  2  3  1  0
  4  8  1  0
  4  3  1  0
  5  4  2  0
  6  2  1  0
  7  6  2  0
  9 10  1  0
 10 11  2  0
 10 20  1  0
 11 12  1  0
 12 13  2  0
 13 14  1  0
 15 14  1  1
 15 16  1  0
 16  6  1  0
 17 15  1  0
 17 18  2  0
 19 13  1  0
 20 19  2  0
 21 22  1  0
 23 25  1  0
 23 22  1  0
 23 24  1  1
 25 26  1  6
 26 17  1  0
 27 25  1  0
 28 27  1  0
 29 27  2  0
M  END
$$$$
