DYI.pdb
     RDKit          3D

 29 29  0  0  1  0  0  0  0  0999 V2000
    8.4802  -17.3824   19.6485 N   0  0  0  0  0  0  0  0  0  0  0  0
    7.8335  -16.1700   20.0761 C   0  0  1  0  0  0  0  0  0  0  0  0
    6.6877  -15.7444   19.1833 C   0  0  0  0  0  0  0  0  0  0  0  0
    7.0883  -15.9347   17.7694 C   0  0  0  0  0  0  0  0  0  0  0  0
    7.6101  -16.9961   17.3726 O   0  0  0  0  0  0  0  0  0  0  0  0
    7.4016  -16.3416   21.4822 C   0  0  0  0  0  0  0  0  0  0  0  0
    6.4335  -15.6676   21.9076 O   0  0  0  0  0  0  0  0  0  0  0  0
    6.9095  -14.9407   16.7883 O   0  0  0  0  0  0  0  0  0  0  0  0
    7.6461  -20.0235   29.6586 O   0  0  0  0  0  0  0  0  0  0  0  0
    7.7485  -19.7060   28.3088 C   0  0  0  0  0  0  0  0  0  0  0  0
    6.6651  -19.7838   27.4605 C   0  0  0  0  0  0  0  0  0  0  0  0
    6.8063  -19.4624   26.1341 C   0  0  0  0  0  0  0  0  0  0  0  0
    8.0206  -19.0600   25.6303 C   0  0  0  0  0  0  0  0  0  0  0  0
    8.1215  -18.7898   24.1968 C   0  0  0  0  0  0  0  0  0  0  0  0
    7.6319  -17.4369   23.7641 C   0  0  2  0  0  0  0  0  0  0  0  0
    8.0672  -17.2507   22.3378 N   0  0  0  0  0  0  0  0  0  0  0  0
    8.3033  -16.3653   24.4898 C   0  0  0  0  0  0  0  0  0  0  0  0
    9.5306  -16.1645   24.2872 O   0  0  0  0  0  0  0  0  0  0  0  0
    9.0862  -18.9890   26.4946 C   0  0  0  0  0  0  0  0  0  0  0  0
    8.9727  -19.3038   27.8188 C   0  0  0  0  0  0  0  0  0  0  0  0
    5.9919  -11.6182   25.5873 C   0  0  0  0  0  0  0  0  0  0  0  0
    6.9737  -12.7159   25.1696 C   0  0  0  0  0  0  0  0  0  0  0  0
    7.4875  -13.3334   26.4323 C   0  0  2  0  0  0  0  0  0  0  0  0
    8.2878  -12.3390   27.2558 C   0  0  0  0  0  0  0  0  0  0  0  0
    8.4304  -14.4809   26.0826 C   0  0  2  0  0  0  0  0  0  0  0  0
    7.6275  -15.5286   25.4119 N   0  0  0  0  0  0  0  0  0  0  0  0
    8.9833  -15.0713   27.3053 C   0  0  0  0  0  0  0  0  0  0  0  0
   10.2554  -14.7589   27.7976 O   0  0  0  0  0  0  0  0  0  0  0  0
    8.3353  -15.9066   27.9869 O   0  0  0  0  0  0  0  0  0  0  0  0
  2  1  1  6
  2  3  1  0
  4  8  1  0
  4  3  1  0
  5  4  2  0
  6  2  1  0
  7  6  2  0
  9 10  1  0
 10 11  2  0
 10 20  1  0
 11 12  1  0
 12 13  2  0
 13 14  1  0
 15 14  1  1
 15 16  1  0
 16  6  1  0
 17 15  1  0
 17 18  2  0
 19 13  1  0
 20 19  2  0
 21 22  1  0
 23 25  1  0
 23 22  1  0
 23 24  1  6
 25 26  1  1
 26 17  1  0
 27 25  1  0
 28 27  1  0
 29 27  2  0
M  END
$$$$
