DYI.pdb
     RDKit          3D

 29 29  0  0  1  0  0  0  0  0999 V2000
   10.4957  -18.3339   20.2946 N   0  0  0  0  0  0  0  0  0  0  0  0
   11.5680  -17.4169   20.5782 C   0  0  1  0  0  0  0  0  0  0  0  0
   12.1146  -16.7218   19.3497 C   0  0  0  0  0  0  0  0  0  0  0  0
   12.5530  -17.7488   18.3757 C   0  0  0  0  0  0  0  0  0  0  0  0
   12.1085  -17.7800   17.2105 O   0  0  0  0  0  0  0  0  0  0  0  0
   11.0980  -16.4487   21.5955 C   0  0  0  0  0  0  0  0  0  0  0  0
   11.8365  -15.4830   21.9027 O   0  0  0  0  0  0  0  0  0  0  0  0
   13.4908  -18.7490   18.6961 O   0  0  0  0  0  0  0  0  0  0  0  0
    5.4420  -11.9406   26.6844 O   0  0  0  0  0  0  0  0  0  0  0  0
    6.0237  -12.8426   25.8004 C   0  0  0  0  0  0  0  0  0  0  0  0
    5.8306  -14.2020   25.9188 C   0  0  0  0  0  0  0  0  0  0  0  0
    6.4222  -15.0604   25.0266 C   0  0  0  0  0  0  0  0  0  0  0  0
    7.2117  -14.5849   24.0064 C   0  0  0  0  0  0  0  0  0  0  0  0
    7.8633  -15.5526   23.1250 C   0  0  0  0  0  0  0  0  0  0  0  0
    9.3573  -15.6374   23.2601 C   0  0  2  0  0  0  0  0  0  0  0  0
    9.8360  -16.6056   22.2152 N   0  0  0  0  0  0  0  0  0  0  0  0
    9.7484  -16.2480   24.5250 C   0  0  0  0  0  0  0  0  0  0  0  0
   10.1259  -17.4501   24.5334 O   0  0  0  0  0  0  0  0  0  0  0  0
    7.3892  -13.2261   23.9076 C   0  0  0  0  0  0  0  0  0  0  0  0
    6.8123  -12.3502   24.7826 C   0  0  0  0  0  0  0  0  0  0  0  0
   10.3822  -12.9959   28.9332 C   0  0  0  0  0  0  0  0  0  0  0  0
   10.6916  -13.9161   27.7497 C   0  0  0  0  0  0  0  0  0  0  0  0
   10.1827  -15.2741   28.1192 C   0  0  2  0  0  0  0  0  0  0  0  0
   10.9817  -15.8791   29.2607 C   0  0  0  0  0  0  0  0  0  0  0  0
   10.3368  -16.2105   26.9244 C   0  0  2  0  0  0  0  0  0  0  0  0
    9.7311  -15.5394   25.7517 N   0  0  0  0  0  0  0  0  0  0  0  0
    9.5871  -17.4493   27.1530 C   0  0  0  0  0  0  0  0  0  0  0  0
   10.1656  -18.7204   27.0642 O   0  0  0  0  0  0  0  0  0  0  0  0
    8.3630  -17.4368   27.4425 O   0  0  0  0  0  0  0  0  0  0  0  0
  2  1  1  6
  2  3  1  0
  4  8  1  0
  4  3  1  0
  5  4  2  0
  6  2  1  0
  7  6  2  0
  9 10  1  0
 10 11  2  0
 10 20  1  0
 11 12  1  0
 12 13  2  0
 13 14  1  0
 15 14  1  1
 15 16  1  0
 16  6  1  0
 17 15  1  0
 17 18  2  0
 19 13  1  0
 20 19  2  0
 21 22  1  0
 23 25  1  0
 23 22  1  0
 23 24  1  1
 25 26  1  6
 26 17  1  0
 27 25  1  0
 28 27  1  0
 29 27  2  0
M  END
$$$$
