DYI.pdb
     RDKit          3D

 29 29  0  0  1  0  0  0  0  0999 V2000
    9.0788  -17.1757   19.7266 N   0  0  0  0  0  0  0  0  0  0  0  0
    7.8103  -16.5248   19.9220 C   0  0  1  0  0  0  0  0  0  0  0  0
    6.7304  -17.0000   18.9739 C   0  0  0  0  0  0  0  0  0  0  0  0
    7.3495  -17.3149   17.6649 C   0  0  0  0  0  0  0  0  0  0  0  0
    8.5847  -17.2709   17.4958 O   0  0  0  0  0  0  0  0  0  0  0  0
    7.4123  -16.6928   21.3386 C   0  0  0  0  0  0  0  0  0  0  0  0
    6.2700  -16.3204   21.6976 O   0  0  0  0  0  0  0  0  0  0  0  0
    6.5933  -17.6807   16.5349 O   0  0  0  0  0  0  0  0  0  0  0  0
    7.8942  -19.7678   29.6640 O   0  0  0  0  0  0  0  0  0  0  0  0
    8.0593  -19.5295   28.3041 C   0  0  0  0  0  0  0  0  0  0  0  0
    9.3072  -19.3710   27.7411 C   0  0  0  0  0  0  0  0  0  0  0  0
    9.4290  -19.1369   26.3946 C   0  0  0  0  0  0  0  0  0  0  0  0
    8.3183  -19.0569   25.5884 C   0  0  0  0  0  0  0  0  0  0  0  0
    8.5100  -18.7451   24.1727 C   0  0  0  0  0  0  0  0  0  0  0  0
    7.9043  -17.4486   23.7148 C   0  0  2  0  0  0  0  0  0  0  0  0
    8.3031  -17.2639   22.2776 N   0  0  0  0  0  0  0  0  0  0  0  0
    8.4949  -16.3071   24.4033 C   0  0  0  0  0  0  0  0  0  0  0  0
    9.6114  -15.8697   24.0164 O   0  0  0  0  0  0  0  0  0  0  0  0
    7.0848  -19.2190   26.1714 C   0  0  0  0  0  0  0  0  0  0  0  0
    6.9359  -19.4524   27.5088 C   0  0  0  0  0  0  0  0  0  0  0  0
    5.4904  -12.2022   26.1760 C   0  0  0  0  0  0  0  0  0  0  0  0
    6.5988  -13.0304   25.5212 C   0  0  0  0  0  0  0  0  0  0  0  0
    7.4511  -13.5588   26.6321 C   0  0  2  0  0  0  0  0  0  0  0  0
    8.1642  -12.4392   27.3707 C   0  0  0  0  0  0  0  0  0  0  0  0
    8.5316  -14.4646   26.0490 C   0  0  2  0  0  0  0  0  0  0  0  0
    7.8578  -15.6586   25.4898 N   0  0  0  0  0  0  0  0  0  0  0  0
    9.4299  -14.9282   27.1107 C   0  0  0  0  0  0  0  0  0  0  0  0
   10.5945  -14.2454   27.4790 O   0  0  0  0  0  0  0  0  0  0  0  0
    9.2007  -15.9834   27.7559 O   0  0  0  0  0  0  0  0  0  0  0  0
  2  1  1  1
  2  3  1  0
  4  8  1  0
  4  3  1  0
  5  4  2  0
  6  2  1  0
  7  6  2  0
  9 10  1  0
 10 11  2  0
 10 20  1  0
 11 12  1  0
 12 13  2  0
 13 14  1  0
 15 14  1  1
 15 16  1  0
 16  6  1  0
 17 15  1  0
 17 18  2  0
 19 13  1  0
 20 19  2  0
 21 22  1  0
 23 25  1  0
 23 22  1  0
 23 24  1  6
 25 26  1  1
 26 17  1  0
 27 25  1  0
 28 27  1  0
 29 27  2  0
M  END
$$$$
