DYI.pdb
     RDKit          3D

 29 29  0  0  1  0  0  0  0  0999 V2000
   10.2981  -18.0559   20.1577 N   0  0  0  0  0  0  0  0  0  0  0  0
   11.4800  -17.4025   20.6550 C   0  0  1  0  0  0  0  0  0  0  0  0
   12.2548  -16.6548   19.5913 C   0  0  0  0  0  0  0  0  0  0  0  0
   12.7565  -17.6285   18.5933 C   0  0  0  0  0  0  0  0  0  0  0  0
   12.2730  -17.6997   17.4455 O   0  0  0  0  0  0  0  0  0  0  0  0
   11.0879  -16.5170   21.7755 C   0  0  0  0  0  0  0  0  0  0  0  0
   11.9356  -15.7233   22.2486 O   0  0  0  0  0  0  0  0  0  0  0  0
   13.8017  -18.5304   18.8702 O   0  0  0  0  0  0  0  0  0  0  0  0
    5.6659  -11.8455   26.9821 O   0  0  0  0  0  0  0  0  0  0  0  0
    6.1951  -12.7302   26.0491 C   0  0  0  0  0  0  0  0  0  0  0  0
    5.9973  -14.0907   26.1452 C   0  0  0  0  0  0  0  0  0  0  0  0
    6.5363  -14.9316   25.2045 C   0  0  0  0  0  0  0  0  0  0  0  0
    7.2773  -14.4375   24.1571 C   0  0  0  0  0  0  0  0  0  0  0  0
    7.8759  -15.3885   23.2216 C   0  0  0  0  0  0  0  0  0  0  0  0
    9.3501  -15.6187   23.3980 C   0  0  2  0  0  0  0  0  0  0  0  0
    9.7783  -16.5613   22.3087 N   0  0  0  0  0  0  0  0  0  0  0  0
    9.6373  -16.3388   24.6328 C   0  0  0  0  0  0  0  0  0  0  0  0
    9.6760  -17.5981   24.6119 O   0  0  0  0  0  0  0  0  0  0  0  0
    7.4604  -13.0780   24.0813 C   0  0  0  0  0  0  0  0  0  0  0  0
    6.9354  -12.2192   25.0045 C   0  0  0  0  0  0  0  0  0  0  0  0
   10.7371  -13.6779   29.4878 C   0  0  0  0  0  0  0  0  0  0  0  0
   10.0357  -14.6353   28.5209 C   0  0  0  0  0  0  0  0  0  0  0  0
   11.0971  -15.5266   27.9562 C   0  0  2  0  0  0  0  0  0  0  0  0
   12.1497  -14.7334   27.2009 C   0  0  0  0  0  0  0  0  0  0  0  0
   10.4644  -16.4896   26.9561 C   0  0  2  0  0  0  0  0  0  0  0  0
    9.8861  -15.6780   25.8610 N   0  0  0  0  0  0  0  0  0  0  0  0
    9.3610  -17.2204   27.5865 C   0  0  0  0  0  0  0  0  0  0  0  0
    9.5552  -18.2131   28.5535 O   0  0  0  0  0  0  0  0  0  0  0  0
    8.1609  -16.9936   27.2851 O   0  0  0  0  0  0  0  0  0  0  0  0
  2  1  1  6
  2  3  1  0
  4  8  1  0
  4  3  1  0
  5  4  2  0
  6  2  1  0
  7  6  2  0
  9 10  1  0
 10 11  2  0
 10 20  1  0
 11 12  1  0
 12 13  2  0
 13 14  1  0
 15 14  1  6
 15 16  1  0
 16  6  1  0
 17 15  1  0
 17 18  2  0
 19 13  1  0
 20 19  2  0
 21 22  1  0
 23 25  1  0
 23 22  1  0
 23 24  1  6
 25 26  1  6
 26 17  1  0
 27 25  1  0
 28 27  1  0
 29 27  2  0
M  END
$$$$
