DYI.pdb
     RDKit          3D

 29 29  0  0  1  0  0  0  0  0999 V2000
    9.0817  -17.8049   19.1803 N   0  0  0  0  0  0  0  0  0  0  0  0
    8.4516  -16.5506   19.4976 C   0  0  1  0  0  0  0  0  0  0  0  0
    7.4010  -16.1266   18.4939 C   0  0  0  0  0  0  0  0  0  0  0  0
    7.8845  -16.4508   17.1312 C   0  0  0  0  0  0  0  0  0  0  0  0
    9.0158  -16.9390   16.9354 O   0  0  0  0  0  0  0  0  0  0  0  0
    7.8993  -16.6389   20.8689 C   0  0  0  0  0  0  0  0  0  0  0  0
    6.6908  -16.3622   21.0567 O   0  0  0  0  0  0  0  0  0  0  0  0
    7.1083  -16.2317   15.9771 O   0  0  0  0  0  0  0  0  0  0  0  0
    7.8161  -19.2021   29.3834 O   0  0  0  0  0  0  0  0  0  0  0  0
    8.0351  -19.0421   28.0197 C   0  0  0  0  0  0  0  0  0  0  0  0
    9.3045  -18.9164   27.4981 C   0  0  0  0  0  0  0  0  0  0  0  0
    9.4796  -18.7597   26.1463 C   0  0  0  0  0  0  0  0  0  0  0  0
    8.4017  -18.7257   25.2937 C   0  0  0  0  0  0  0  0  0  0  0  0
    8.6495  -18.4955   23.8712 C   0  0  0  0  0  0  0  0  0  0  0  0
    8.1525  -17.1813   23.3390 C   0  0  2  0  0  0  0  0  0  0  0  0
    8.7179  -17.0288   21.9549 N   0  0  0  0  0  0  0  0  0  0  0  0
    8.7074  -16.0564   24.0822 C   0  0  0  0  0  0  0  0  0  0  0  0
    9.8861  -15.6838   23.8385 O   0  0  0  0  0  0  0  0  0  0  0  0
    7.1459  -18.8540   25.8360 C   0  0  0  0  0  0  0  0  0  0  0  0
    6.9439  -19.0104   27.1778 C   0  0  0  0  0  0  0  0  0  0  0  0
    5.6119  -12.4563   27.1401 C   0  0  0  0  0  0  0  0  0  0  0  0
    6.5444  -13.6398   26.8701 C   0  0  0  0  0  0  0  0  0  0  0  0
    7.6325  -13.1319   25.9769 C   0  0  2  0  0  0  0  0  0  0  0  0
    7.0978  -12.7449   24.6087 C   0  0  0  0  0  0  0  0  0  0  0  0
    8.6585  -14.2393   25.7556 C   0  0  2  0  0  0  0  0  0  0  0  0
    7.9692  -15.3538   25.0663 N   0  0  0  0  0  0  0  0  0  0  0  0
    9.1352  -14.7517   27.0437 C   0  0  0  0  0  0  0  0  0  0  0  0
   10.0289  -14.0514   27.8616 O   0  0  0  0  0  0  0  0  0  0  0  0
    8.7635  -15.8680   27.4890 O   0  0  0  0  0  0  0  0  0  0  0  0
  2  1  1  6
  2  3  1  0
  4  8  1  0
  4  3  1  0
  5  4  2  0
  6  2  1  0
  7  6  2  0
  9 10  1  0
 10 11  2  0
 10 20  1  0
 11 12  1  0
 12 13  2  0
 13 14  1  0
 15 14  1  1
 15 16  1  0
 16  6  1  0
 17 15  1  0
 17 18  2  0
 19 13  1  0
 20 19  2  0
 21 22  1  0
 23 25  1  0
 23 22  1  0
 23 24  1  6
 25 26  1  1
 26 17  1  0
 27 25  1  0
 28 27  1  0
 29 27  2  0
M  END
$$$$
