DYI.pdb
     RDKit          3D

 29 29  0  0  1  0  0  0  0  0999 V2000
   10.9403  -18.6189   20.6072 N   0  0  0  0  0  0  0  0  0  0  0  0
   11.9396  -17.5901   20.7260 C   0  0  1  0  0  0  0  0  0  0  0  0
   12.2852  -16.9233   19.4118 C   0  0  0  0  0  0  0  0  0  0  0  0
   13.5799  -17.4599   18.9305 C   0  0  0  0  0  0  0  0  0  0  0  0
   13.9875  -18.5899   19.2670 O   0  0  0  0  0  0  0  0  0  0  0  0
   11.4828  -16.6096   21.7376 C   0  0  0  0  0  0  0  0  0  0  0  0
   12.2538  -15.6802   22.0752 O   0  0  0  0  0  0  0  0  0  0  0  0
   14.4292  -16.7381   18.0702 O   0  0  0  0  0  0  0  0  0  0  0  0
    7.0309  -13.1838   18.0684 O   0  0  0  0  0  0  0  0  0  0  0  0
    7.3142  -13.7512   19.3058 C   0  0  0  0  0  0  0  0  0  0  0  0
    7.8673  -13.0159   20.3318 C   0  0  0  0  0  0  0  0  0  0  0  0
    8.1329  -13.6120   21.5389 C   0  0  0  0  0  0  0  0  0  0  0  0
    7.8545  -14.9423   21.7460 C   0  0  0  0  0  0  0  0  0  0  0  0
    8.2163  -15.5343   23.0331 C   0  0  0  0  0  0  0  0  0  0  0  0
    9.6913  -15.6771   23.2804 C   0  0  2  0  0  0  0  0  0  0  0  0
   10.1970  -16.7148   22.3182 N   0  0  0  0  0  0  0  0  0  0  0  0
    9.9630  -16.2419   24.5969 C   0  0  0  0  0  0  0  0  0  0  0  0
   10.4277  -17.4103   24.6774 O   0  0  0  0  0  0  0  0  0  0  0  0
    7.3026  -15.6551   20.7092 C   0  0  0  0  0  0  0  0  0  0  0  0
    7.0290  -15.0861   19.4980 C   0  0  0  0  0  0  0  0  0  0  0  0
    9.9910  -12.8466   28.9286 C   0  0  0  0  0  0  0  0  0  0  0  0
   10.4480  -13.7979   27.8198 C   0  0  0  0  0  0  0  0  0  0  0  0
    9.9379  -15.1567   28.1848 C   0  0  2  0  0  0  0  0  0  0  0  0
   10.6264  -15.6975   29.4262 C   0  0  0  0  0  0  0  0  0  0  0  0
   10.2421  -16.1292   27.0492 C   0  0  2  0  0  0  0  0  0  0  0  0
    9.7342  -15.5243   25.7967 N   0  0  0  0  0  0  0  0  0  0  0  0
    9.5158  -17.3863   27.2519 C   0  0  0  0  0  0  0  0  0  0  0  0
   10.0848  -18.5075   27.8662 O   0  0  0  0  0  0  0  0  0  0  0  0
    8.3240  -17.5287   26.8755 O   0  0  0  0  0  0  0  0  0  0  0  0
  2  1  1  6
  2  3  1  0
  4  8  1  0
  4  3  1  0
  5  4  2  0
  6  2  1  0
  7  6  2  0
  9 10  1  0
 10 11  2  0
 10 20  1  0
 11 12  1  0
 12 13  2  0
 13 14  1  0
 15 14  1  6
 15 16  1  0
 16  6  1  0
 17 15  1  0
 17 18  2  0
 19 13  1  0
 20 19  2  0
 21 22  1  0
 23 25  1  0
 23 22  1  0
 23 24  1  1
 25 26  1  6
 26 17  1  0
 27 25  1  0
 28 27  1  0
 29 27  2  0
M  END
$$$$
