DYI.pdb
     RDKit          3D

 29 29  0  0  1  0  0  0  0  0999 V2000
   10.5046  -18.7750   21.5694 N   0  0  0  0  0  0  0  0  0  0  0  0
   11.5210  -17.8484   21.1459 C   0  0  1  0  0  0  0  0  0  0  0  0
   11.5380  -17.6052   19.6520 C   0  0  0  0  0  0  0  0  0  0  0  0
   12.6090  -18.4311   19.0463 C   0  0  0  0  0  0  0  0  0  0  0  0
   13.5457  -18.8935   19.7281 O   0  0  0  0  0  0  0  0  0  0  0  0
   11.3518  -16.5892   21.9069 C   0  0  0  0  0  0  0  0  0  0  0  0
   12.2869  -15.7538   21.9160 O   0  0  0  0  0  0  0  0  0  0  0  0
   12.6417  -18.7461   17.6744 O   0  0  0  0  0  0  0  0  0  0  0  0
    6.1630  -13.5985   18.1863 O   0  0  0  0  0  0  0  0  0  0  0  0
    6.7306  -13.8997   19.4194 C   0  0  0  0  0  0  0  0  0  0  0  0
    6.5912  -15.1424   19.9985 C   0  0  0  0  0  0  0  0  0  0  0  0
    7.1661  -15.4011   21.2173 C   0  0  0  0  0  0  0  0  0  0  0  0
    7.8861  -14.4340   21.8780 C   0  0  0  0  0  0  0  0  0  0  0  0
    8.4228  -14.7513   23.2006 C   0  0  0  0  0  0  0  0  0  0  0  0
    9.9056  -14.9880   23.2502 C   0  0  2  0  0  0  0  0  0  0  0  0
   10.1555  -16.3270   22.6151 N   0  0  0  0  0  0  0  0  0  0  0  0
   10.3792  -15.1437   24.6203 C   0  0  0  0  0  0  0  0  0  0  0  0
   11.2391  -14.3376   25.0658 O   0  0  0  0  0  0  0  0  0  0  0  0
    8.0124  -13.2030   21.2811 C   0  0  0  0  0  0  0  0  0  0  0  0
    7.4498  -12.9195   20.0693 C   0  0  0  0  0  0  0  0  0  0  0  0
   10.1000  -12.5199   27.8986 C   0  0  0  0  0  0  0  0  0  0  0  0
   10.6540  -13.7200   27.1265 C   0  0  0  0  0  0  0  0  0  0  0  0
    9.8556  -14.9107   27.5561 C   0  0  2  0  0  0  0  0  0  0  0  0
    9.9608  -15.1437   29.0535 C   0  0  0  0  0  0  0  0  0  0  0  0
   10.4073  -16.1584   26.8728 C   0  0  2  0  0  0  0  0  0  0  0  0
    9.9031  -16.1635   25.4806 N   0  0  0  0  0  0  0  0  0  0  0  0
    9.8906  -17.3638   27.5280 C   0  0  0  0  0  0  0  0  0  0  0  0
    8.9437  -18.2084   26.9379 O   0  0  0  0  0  0  0  0  0  0  0  0
   10.2740  -17.7077   28.6756 O   0  0  0  0  0  0  0  0  0  0  0  0
  2  1  1  6
  2  3  1  0
  4  8  1  0
  4  3  1  0
  5  4  2  0
  6  2  1  0
  7  6  2  0
  9 10  1  0
 10 11  2  0
 10 20  1  0
 11 12  1  0
 12 13  2  0
 13 14  1  0
 15 14  1  1
 15 16  1  0
 16  6  1  0
 17 15  1  0
 17 18  2  0
 19 13  1  0
 20 19  2  0
 21 22  1  0
 23 25  1  0
 23 22  1  0
 23 24  1  1
 25 26  1  6
 26 17  1  0
 27 25  1  0
 28 27  1  0
 29 27  2  0
M  END
$$$$
