SQY.pdb
     RDKit          3D

 28 28  0  0  1  0  0  0  0  0999 V2000
   24.9288  -15.8719  -17.3804 O   0  0  0  0  0  0  0  0  0  0  0  0
   24.4537  -14.5940  -17.5880 C   0  0  0  0  0  0  0  0  0  0  0  0
   23.1259  -14.5817  -18.3312 C   0  0  2  0  0  0  0  0  0  0  0  0
   23.2769  -15.0495  -19.6741 N   0  0  0  0  0  0  0  0  0  0  0  0
   22.5751  -13.2079  -18.2537 C   0  0  0  0  0  0  0  0  0  0  0  0
   22.9535  -12.3764  -19.1172 O   0  0  0  0  0  0  0  0  0  0  0  0
   16.8624  -11.9156  -16.6994 N   0  0  0  0  0  0  0  0  0  0  0  0
   17.4219  -10.6177  -16.7275 C   0  0  0  0  0  0  0  0  0  0  0  0
   16.6382   -9.6446  -16.6172 O   0  0  0  0  0  0  0  0  0  0  0  0
   18.8689  -10.3475  -16.8785 C   0  0  0  0  0  0  0  0  0  0  0  0
   19.6102  -11.6276  -17.0472 C   0  0  0  0  0  0  0  0  0  0  0  0
   21.0881  -11.4616  -17.2752 C   0  0  2  0  0  0  0  0  0  0  0  0
   21.6620  -12.8046  -17.2700 N   0  0  0  0  0  0  0  0  0  0  0  0
   21.7704  -10.6728  -16.2443 C   0  0  0  0  0  0  0  0  0  0  0  0
   22.0568  -11.1444  -15.0973 O   0  0  0  0  0  0  0  0  0  0  0  0
   28.0187  -11.7690  -16.8513 O   0  0  0  0  0  0  0  0  0  0  0  0
   27.0279  -10.8086  -16.5866 C   0  0  0  0  0  0  0  0  0  0  0  0
   26.5410  -10.0505  -17.6260 C   0  0  0  0  0  0  0  0  0  0  0  0
   25.5806   -9.1139  -17.3932 C   0  0  0  0  0  0  0  0  0  0  0  0
   25.0810   -8.9069  -16.1262 C   0  0  0  0  0  0  0  0  0  0  0  0
   24.0439   -7.8914  -15.8858 C   0  0  0  0  0  0  0  0  0  0  0  0
   22.7559   -8.4866  -15.4423 C   0  0  2  0  0  0  0  0  0  0  0  0
   22.1550   -9.3277  -16.4650 N   0  0  0  0  0  0  0  0  0  0  0  0
   21.7783   -7.4974  -14.9287 C   0  0  0  0  0  0  0  0  0  0  0  0
   21.8654   -6.8732  -13.7051 O   0  0  0  0  0  0  0  0  0  0  0  0
   25.5814   -9.6765  -15.0969 C   0  0  0  0  0  0  0  0  0  0  0  0
   26.5442  -10.6217  -15.3057 C   0  0  0  0  0  0  0  0  0  0  0  0
   20.7747   -7.1815  -15.6441 O   0  0  0  0  0  0  0  0  0  0  0  0
  1  2  1  0
  3  4  1  6
  3  2  1  0
  5  3  1  0
  6  5  2  0
  8 10  1  0
  8  7  1  0
  9  8  2  0
 11 10  1  0
 12 11  1  1
 12 13  1  0
 13  5  1  0
 14 12  1  0
 14 15  2  0
 16 17  1  0
 17 18  2  0
 18 19  1  0
 20 19  2  0
 20 21  1  0
 22 21  1  6
 22 23  1  0
 23 14  1  0
 24 22  1  0
 25 24  1  0
 26 20  1  0
 27 17  1  0
 27 26  2  0
 28 24  2  0
M  END
$$$$
