SQY.pdb
     RDKit          3D

 28 28  0  0  1  0  0  0  0  0999 V2000
   18.9199  -13.5669  -15.8571 O   0  0  0  0  0  0  0  0  0  0  0  0
   18.4697  -12.2634  -15.8377 C   0  0  0  0  0  0  0  0  0  0  0  0
   17.2419  -12.0861  -14.9564 C   0  0  2  0  0  0  0  0  0  0  0  0
   16.0800  -12.6600  -15.5612 N   0  0  0  0  0  0  0  0  0  0  0  0
   17.0931  -10.6394  -14.6711 C   0  0  0  0  0  0  0  0  0  0  0  0
   16.4246   -9.9491  -15.4815 O   0  0  0  0  0  0  0  0  0  0  0  0
   14.4649   -8.6419  -10.1462 N   0  0  0  0  0  0  0  0  0  0  0  0
   15.7978   -9.0003   -9.8409 C   0  0  0  0  0  0  0  0  0  0  0  0
   16.0628   -9.2925   -8.6503 O   0  0  0  0  0  0  0  0  0  0  0  0
   16.8875   -9.0490  -10.8410 C   0  0  0  0  0  0  0  0  0  0  0  0
   16.3889   -8.5706  -12.1597 C   0  0  0  0  0  0  0  0  0  0  0  0
   17.4144   -8.6087  -13.2599 C   0  0  2  0  0  0  0  0  0  0  0  0
   17.6598  -10.0190  -13.5495 N   0  0  0  0  0  0  0  0  0  0  0  0
   18.6959   -7.9880  -12.9090 C   0  0  0  0  0  0  0  0  0  0  0  0
   19.6197   -8.6185  -12.3015 O   0  0  0  0  0  0  0  0  0  0  0  0
   25.7677   -4.8402  -16.5569 O   0  0  0  0  0  0  0  0  0  0  0  0
   24.5627   -5.4010  -16.1011 C   0  0  0  0  0  0  0  0  0  0  0  0
   23.7608   -4.6636  -15.2614 C   0  0  0  0  0  0  0  0  0  0  0  0
   22.5887   -5.1865  -14.8072 C   0  0  0  0  0  0  0  0  0  0  0  0
   22.1844   -6.4514  -15.1742 C   0  0  0  0  0  0  0  0  0  0  0  0
   20.9162   -7.0071  -14.6767 C   0  0  0  0  0  0  0  0  0  0  0  0
   20.3069   -6.1697  -13.6102 C   0  0  2  0  0  0  0  0  0  0  0  0
   18.9848   -6.6386  -13.2276 N   0  0  0  0  0  0  0  0  0  0  0  0
   20.2856   -4.7197  -13.9188 C   0  0  0  0  0  0  0  0  0  0  0  0
   21.1685   -3.7970  -13.4056 O   0  0  0  0  0  0  0  0  0  0  0  0
   23.0017   -7.1755  -16.0167 C   0  0  0  0  0  0  0  0  0  0  0  0
   24.1813   -6.6724  -16.4851 C   0  0  0  0  0  0  0  0  0  0  0  0
   19.4000   -4.2623  -14.7095 O   0  0  0  0  0  0  0  0  0  0  0  0
  1  2  1  0
  3  4  1  6
  3  2  1  0
  5  3  1  0
  6  5  2  0
  8 10  1  0
  8  7  1  0
  9  8  2  0
 11 10  1  0
 12 11  1  1
 12 13  1  0
 13  5  1  0
 14 12  1  0
 14 15  2  0
 16 17  1  0
 17 18  2  0
 18 19  1  0
 20 19  2  0
 20 21  1  0
 22 21  1  6
 22 23  1  0
 23 14  1  0
 24 22  1  0
 25 24  1  0
 26 20  1  0
 27 17  1  0
 27 26  2  0
 28 24  2  0
M  END
$$$$
