SQY.pdb
     RDKit          3D

 28 28  0  0  1  0  0  0  0  0999 V2000
   28.5141  -12.7769  -15.4853 O   0  0  0  0  0  0  0  0  0  0  0  0
   27.4808  -12.0504  -16.0389 C   0  0  0  0  0  0  0  0  0  0  0  0
   26.3154  -12.9307  -16.4657 C   0  0  2  0  0  0  0  0  0  0  0  0
   26.7098  -13.8621  -17.4767 N   0  0  0  0  0  0  0  0  0  0  0  0
   25.2091  -12.0427  -16.8947 C   0  0  0  0  0  0  0  0  0  0  0  0
   25.0124  -11.9076  -18.1289 O   0  0  0  0  0  0  0  0  0  0  0  0
   19.7286  -12.2335  -14.6929 N   0  0  0  0  0  0  0  0  0  0  0  0
   19.6276  -11.0357  -15.4368 C   0  0  0  0  0  0  0  0  0  0  0  0
   18.4881  -10.5291  -15.5707 O   0  0  0  0  0  0  0  0  0  0  0  0
   20.7833  -10.3535  -16.0605 C   0  0  0  0  0  0  0  0  0  0  0  0
   22.0240  -11.1442  -15.8326 C   0  0  0  0  0  0  0  0  0  0  0  0
   23.2585  -10.5522  -16.4566 C   0  0  2  0  0  0  0  0  0  0  0  0
   24.3850  -11.3573  -15.9919 N   0  0  0  0  0  0  0  0  0  0  0  0
   23.5122   -9.1575  -16.0810 C   0  0  0  0  0  0  0  0  0  0  0  0
   24.0818   -8.8339  -14.9898 O   0  0  0  0  0  0  0  0  0  0  0  0
   24.0713   -0.3688  -16.4413 O   0  0  0  0  0  0  0  0  0  0  0  0
   23.9386   -1.7280  -16.7718 C   0  0  0  0  0  0  0  0  0  0  0  0
   22.6804   -2.2425  -16.9816 C   0  0  0  0  0  0  0  0  0  0  0  0
   22.5276   -3.5567  -17.3028 C   0  0  0  0  0  0  0  0  0  0  0  0
   23.6173   -4.3909  -17.4234 C   0  0  0  0  0  0  0  0  0  0  0  0
   23.4407   -5.8098  -17.7701 C   0  0  0  0  0  0  0  0  0  0  0  0
   23.3482   -6.6821  -16.5699 C   0  0  2  0  0  0  0  0  0  0  0  0
   23.1355   -8.0781  -16.9169 N   0  0  0  0  0  0  0  0  0  0  0  0
   22.3540   -6.2281  -15.5682 C   0  0  0  0  0  0  0  0  0  0  0  0
   22.6387   -5.4133  -14.4962 O   0  0  0  0  0  0  0  0  0  0  0  0
   24.8708   -3.8571  -17.2093 C   0  0  0  0  0  0  0  0  0  0  0  0
   25.0490   -2.5426  -16.8862 C   0  0  0  0  0  0  0  0  0  0  0  0
   21.1425   -6.6014  -15.6770 O   0  0  0  0  0  0  0  0  0  0  0  0
  1  2  1  0
  3  4  1  6
  3  2  1  0
  5  3  1  0
  6  5  2  0
  8 10  1  0
  8  7  1  0
  9  8  2  0
 11 10  1  0
 12 11  1  1
 12 13  1  0
 13  5  1  0
 14 12  1  0
 14 15  2  0
 16 17  1  0
 17 18  2  0
 18 19  1  0
 20 19  2  0
 20 21  1  0
 22 21  1  6
 22 23  1  0
 23 14  1  0
 24 22  1  0
 25 24  1  0
 26 20  1  0
 27 17  1  0
 27 26  2  0
 28 24  2  0
M  END
$$$$
