SQY.pdb
     RDKit          3D

 28 28  0  0  1  0  0  0  0  0999 V2000
   27.4779  -25.0795  -19.5183 O   0  0  0  0  0  0  0  0  0  0  0  0
   27.6792  -24.5611  -18.2563 C   0  0  0  0  0  0  0  0  0  0  0  0
   29.0372  -23.8895  -18.1141 C   0  0  2  0  0  0  0  0  0  0  0  0
   30.0458  -24.8300  -17.7357 N   0  0  0  0  0  0  0  0  0  0  0  0
   28.8929  -22.7737  -17.1493 C   0  0  0  0  0  0  0  0  0  0  0  0
   29.5998  -22.8038  -16.1102 O   0  0  0  0  0  0  0  0  0  0  0  0
   27.0133  -17.0746  -18.6676 N   0  0  0  0  0  0  0  0  0  0  0  0
   27.0484  -16.9992  -17.2564 C   0  0  0  0  0  0  0  0  0  0  0  0
   26.8360  -15.8814  -16.7287 O   0  0  0  0  0  0  0  0  0  0  0  0
   27.3198  -18.1573  -16.3761 C   0  0  0  0  0  0  0  0  0  0  0  0
   27.6010  -19.3661  -17.1985 C   0  0  0  0  0  0  0  0  0  0  0  0
   27.9456  -20.5927  -16.3981 C   0  0  2  0  0  0  0  0  0  0  0  0
   28.0123  -21.7014  -17.3465 N   0  0  0  0  0  0  0  0  0  0  0  0
   26.9593  -20.9352  -15.3684 C   0  0  0  0  0  0  0  0  0  0  0  0
   25.8584  -21.5139  -15.6387 O   0  0  0  0  0  0  0  0  0  0  0  0
   22.6497  -21.0126   -7.6862 O   0  0  0  0  0  0  0  0  0  0  0  0
   23.6339  -20.8157   -8.6695 C   0  0  0  0  0  0  0  0  0  0  0  0
   23.2825  -20.2036   -9.8501 C   0  0  0  0  0  0  0  0  0  0  0  0
   24.2194  -20.0023  -10.8173 C   0  0  0  0  0  0  0  0  0  0  0  0
   25.5252  -20.4028  -10.6371 C   0  0  0  0  0  0  0  0  0  0  0  0
   26.5293  -20.1811  -11.6893 C   0  0  0  0  0  0  0  0  0  0  0  0
   26.1750  -20.8554  -12.9659 C   0  0  2  0  0  0  0  0  0  0  0  0
   27.1744  -20.6403  -14.0000 N   0  0  0  0  0  0  0  0  0  0  0  0
   24.8178  -20.5290  -13.4652 C   0  0  0  0  0  0  0  0  0  0  0  0
   24.4799  -19.3590  -14.1065 O   0  0  0  0  0  0  0  0  0  0  0  0
   25.8586  -21.0147   -9.4470 C   0  0  0  0  0  0  0  0  0  0  0  0
   24.9367  -21.2273   -8.4626 C   0  0  0  0  0  0  0  0  0  0  0  0
   23.8745  -21.3675  -13.3043 O   0  0  0  0  0  0  0  0  0  0  0  0
  1  2  1  0
  3  4  1  1
  3  2  1  0
  5  3  1  0
  6  5  2  0
  8 10  1  0
  8  7  1  0
  9  8  2  0
 11 10  1  0
 12 11  1  6
 12 13  1  0
 13  5  1  0
 14 12  1  0
 14 15  2  0
 16 17  1  0
 17 18  2  0
 18 19  1  0
 20 19  2  0
 20 21  1  0
 22 21  1  1
 22 23  1  0
 23 14  1  0
 24 22  1  0
 25 24  1  0
 26 20  1  0
 27 17  1  0
 27 26  2  0
 28 24  2  0
M  END
$$$$
