SQY.pdb
     RDKit          3D

 28 28  0  0  1  0  0  0  0  0999 V2000
   24.8150   -6.2853  -21.1169 O   0  0  0  0  0  0  0  0  0  0  0  0
   25.8363   -5.4312  -20.7570 C   0  0  0  0  0  0  0  0  0  0  0  0
   26.8302   -6.0825  -19.8065 C   0  0  2  0  0  0  0  0  0  0  0  0
   27.5095   -7.1744  -20.4319 N   0  0  0  0  0  0  0  0  0  0  0  0
   26.0942   -6.4809  -18.5833 C   0  0  0  0  0  0  0  0  0  0  0  0
   26.1873   -7.6771  -18.2082 O   0  0  0  0  0  0  0  0  0  0  0  0
   22.6385   -4.4275  -13.6964 N   0  0  0  0  0  0  0  0  0  0  0  0
   22.3911   -3.8243  -14.9507 C   0  0  0  0  0  0  0  0  0  0  0  0
   21.3411   -3.1493  -15.0739 O   0  0  0  0  0  0  0  0  0  0  0  0
   23.2957   -3.9450  -16.1156 C   0  0  0  0  0  0  0  0  0  0  0  0
   24.4660   -4.7957  -15.7644 C   0  0  0  0  0  0  0  0  0  0  0  0
   24.6212   -6.0203  -16.6246 C   0  0  2  0  0  0  0  0  0  0  0  0
   25.3097   -5.5898  -17.8387 N   0  0  0  0  0  0  0  0  0  0  0  0
   23.3532   -6.6427  -17.0187 C   0  0  0  0  0  0  0  0  0  0  0  0
   22.7077   -6.2866  -18.0563 O   0  0  0  0  0  0  0  0  0  0  0  0
   16.5162  -12.2180  -16.0594 O   0  0  0  0  0  0  0  0  0  0  0  0
   17.7799  -11.6148  -16.1751 C   0  0  0  0  0  0  0  0  0  0  0  0
   18.1866  -11.1520  -17.4049 C   0  0  0  0  0  0  0  0  0  0  0  0
   19.4071  -10.5640  -17.5408 C   0  0  0  0  0  0  0  0  0  0  0  0
   20.2521  -10.4212  -16.4622 C   0  0  0  0  0  0  0  0  0  0  0  0
   21.5692   -9.7850  -16.6206 C   0  0  0  0  0  0  0  0  0  0  0  0
   21.4913   -8.3007  -16.5967 C   0  0  2  0  0  0  0  0  0  0  0  0
   22.7660   -7.6861  -16.2622 N   0  0  0  0  0  0  0  0  0  0  0  0
   20.4051   -7.7664  -15.7408 C   0  0  0  0  0  0  0  0  0  0  0  0
   19.1250   -7.5038  -16.1730 O   0  0  0  0  0  0  0  0  0  0  0  0
   19.8269  -10.8913  -15.2373 C   0  0  0  0  0  0  0  0  0  0  0  0
   18.6077  -11.4843  -15.0764 C   0  0  0  0  0  0  0  0  0  0  0  0
   20.6397   -7.5205  -14.5146 O   0  0  0  0  0  0  0  0  0  0  0  0
  1  2  1  0
  3  4  1  6
  3  2  1  0
  5  3  1  0
  6  5  2  0
  8 10  1  0
  8  7  1  0
  9  8  2  0
 11 10  1  0
 12 11  1  1
 12 13  1  0
 13  5  1  0
 14 12  1  0
 14 15  2  0
 16 17  1  0
 17 18  2  0
 18 19  1  0
 20 19  2  0
 20 21  1  0
 22 21  1  1
 22 23  1  0
 23 14  1  0
 24 22  1  0
 25 24  1  0
 26 20  1  0
 27 17  1  0
 27 26  2  0
 28 24  2  0
M  END
$$$$
