SQY.pdb
     RDKit          3D

 28 28  0  0  1  0  0  0  0  0999 V2000
   26.9387  -19.8660  -18.6219 O   0  0  0  0  0  0  0  0  0  0  0  0
   26.1798  -20.5570  -17.7006 C   0  0  0  0  0  0  0  0  0  0  0  0
   27.0321  -21.2383  -16.6401 C   0  0  2  0  0  0  0  0  0  0  0  0
   27.5844  -22.4649  -17.1254 N   0  0  0  0  0  0  0  0  0  0  0  0
   26.1944  -21.4175  -15.4307 C   0  0  0  0  0  0  0  0  0  0  0  0
   25.4439  -22.4249  -15.3829 O   0  0  0  0  0  0  0  0  0  0  0  0
   26.3375  -22.4965  -10.6052 N   0  0  0  0  0  0  0  0  0  0  0  0
   25.4739  -21.4970  -10.1016 C   0  0  0  0  0  0  0  0  0  0  0  0
   24.8409  -21.7521   -9.0493 O   0  0  0  0  0  0  0  0  0  0  0  0
   25.2782  -20.1779  -10.7431 C   0  0  0  0  0  0  0  0  0  0  0  0
   26.0442  -20.1140  -12.0182 C   0  0  0  0  0  0  0  0  0  0  0  0
   25.3314  -20.7147  -13.1992 C   0  0  2  0  0  0  0  0  0  0  0  0
   26.2053  -20.5213  -14.3533 N   0  0  0  0  0  0  0  0  0  0  0  0
   24.0379  -20.0929  -13.5005 C   0  0  0  0  0  0  0  0  0  0  0  0
   23.9319  -18.8886  -13.8985 O   0  0  0  0  0  0  0  0  0  0  0  0
   21.7192  -23.7867  -18.8878 O   0  0  0  0  0  0  0  0  0  0  0  0
   21.6636  -22.7565  -17.9339 C   0  0  0  0  0  0  0  0  0  0  0  0
   20.6193  -22.7333  -17.0391 C   0  0  0  0  0  0  0  0  0  0  0  0
   20.5448  -21.7447  -16.1060 C   0  0  0  0  0  0  0  0  0  0  0  0
   21.5026  -20.7568  -16.0381 C   0  0  0  0  0  0  0  0  0  0  0  0
   21.4118  -19.6926  -15.0262 C   0  0  0  0  0  0  0  0  0  0  0  0
   21.5161  -20.2157  -13.6387 C   0  0  2  0  0  0  0  0  0  0  0  0
   22.8188  -20.8011  -13.3656 N   0  0  0  0  0  0  0  0  0  0  0  0
   20.4270  -21.1481  -13.2611 C   0  0  0  0  0  0  0  0  0  0  0  0
   20.6184  -22.4369  -12.8175 O   0  0  0  0  0  0  0  0  0  0  0  0
   22.5421  -20.7967  -16.9437 C   0  0  0  0  0  0  0  0  0  0  0  0
   22.6381  -21.7778  -17.8882 C   0  0  0  0  0  0  0  0  0  0  0  0
   19.2175  -20.7617  -13.3427 O   0  0  0  0  0  0  0  0  0  0  0  0
  1  2  1  0
  3  4  1  6
  3  2  1  0
  5  3  1  0
  6  5  2  0
  8 10  1  0
  8  7  1  0
  9  8  2  0
 11 10  1  0
 12 11  1  1
 12 13  1  0
 13  5  1  0
 14 12  1  0
 14 15  2  0
 16 17  1  0
 17 18  2  0
 18 19  1  0
 20 19  2  0
 20 21  1  0
 22 21  1  6
 22 23  1  0
 23 14  1  0
 24 22  1  0
 25 24  1  0
 26 20  1  0
 27 17  1  0
 27 26  2  0
 28 24  2  0
M  END
$$$$
