SQY.pdb
     RDKit          3D

 28 28  0  0  1  0  0  0  0  0999 V2000
   20.2574  -17.3825  -15.6017 O   0  0  0  0  0  0  0  0  0  0  0  0
   20.8606  -16.3062  -16.2178 C   0  0  0  0  0  0  0  0  0  0  0  0
   21.7158  -16.7214  -17.4059 C   0  0  2  0  0  0  0  0  0  0  0  0
   22.6306  -17.7616  -17.0504 N   0  0  0  0  0  0  0  0  0  0  0  0
   22.3901  -15.5084  -17.9259 C   0  0  0  0  0  0  0  0  0  0  0  0
   23.2730  -15.6623  -18.8074 O   0  0  0  0  0  0  0  0  0  0  0  0
   20.5791  -12.5117  -21.9974 N   0  0  0  0  0  0  0  0  0  0  0  0
   21.3743  -11.5992  -21.2672 C   0  0  0  0  0  0  0  0  0  0  0  0
   21.0597  -10.3860  -21.3158 O   0  0  0  0  0  0  0  0  0  0  0  0
   22.5472  -11.9943  -20.4561 C   0  0  0  0  0  0  0  0  0  0  0  0
   22.2079  -13.1731  -19.6123 C   0  0  0  0  0  0  0  0  0  0  0  0
   22.6072  -13.0360  -18.1682 C   0  0  2  0  0  0  0  0  0  0  0  0
   22.0869  -14.2147  -17.4803 N   0  0  0  0  0  0  0  0  0  0  0  0
   22.0634  -11.8467  -17.5045 C   0  0  0  0  0  0  0  0  0  0  0  0
   21.4121  -11.9080  -16.4127 O   0  0  0  0  0  0  0  0  0  0  0  0
   21.8247   -4.7012  -12.9274 O   0  0  0  0  0  0  0  0  0  0  0  0
   22.0566   -5.8596  -13.6881 C   0  0  0  0  0  0  0  0  0  0  0  0
   23.0320   -5.8353  -14.6576 C   0  0  0  0  0  0  0  0  0  0  0  0
   23.2742   -6.9459  -15.4069 C   0  0  0  0  0  0  0  0  0  0  0  0
   22.5559   -8.1055  -15.2130 C   0  0  0  0  0  0  0  0  0  0  0  0
   22.8253   -9.2996  -16.0291 C   0  0  0  0  0  0  0  0  0  0  0  0
   22.0213   -9.3286  -17.2791 C   0  0  2  0  0  0  0  0  0  0  0  0
   22.2318  -10.5477  -18.0431 N   0  0  0  0  0  0  0  0  0  0  0  0
   22.1928   -8.1307  -18.1356 C   0  0  0  0  0  0  0  0  0  0  0  0
   21.3814   -7.0195  -18.0993 O   0  0  0  0  0  0  0  0  0  0  0  0
   21.5821   -8.1106  -14.2364 C   0  0  0  0  0  0  0  0  0  0  0  0
   21.3212   -7.0095  -13.4726 C   0  0  0  0  0  0  0  0  0  0  0  0
   23.1472   -8.0953  -18.9763 O   0  0  0  0  0  0  0  0  0  0  0  0
  1  2  1  0
  3  4  1  1
  3  2  1  0
  5  3  1  0
  6  5  2  0
  8 10  1  0
  8  7  1  0
  9  8  2  0
 11 10  1  0
 12 11  1  6
 12 13  1  0
 13  5  1  0
 14 12  1  0
 14 15  2  0
 16 17  1  0
 17 18  2  0
 18 19  1  0
 20 19  2  0
 20 21  1  0
 22 21  1  1
 22 23  1  0
 23 14  1  0
 24 22  1  0
 25 24  1  0
 26 20  1  0
 27 17  1  0
 27 26  2  0
 28 24  2  0
M  END
$$$$
