SQY.pdb
     RDKit          3D

 28 28  0  0  1  0  0  0  0  0999 V2000
   25.4399  -12.8789  -19.2653 O   0  0  0  0  0  0  0  0  0  0  0  0
   24.2887  -12.1197  -19.2480 C   0  0  0  0  0  0  0  0  0  0  0  0
   23.0352  -12.9690  -19.0966 C   0  0  2  0  0  0  0  0  0  0  0  0
   22.7988  -13.7605  -20.2639 N   0  0  0  0  0  0  0  0  0  0  0  0
   21.9087  -12.0619  -18.7728 C   0  0  0  0  0  0  0  0  0  0  0  0
   21.4029  -11.3985  -19.7131 O   0  0  0  0  0  0  0  0  0  0  0  0
   17.2511  -13.6491  -15.4743 N   0  0  0  0  0  0  0  0  0  0  0  0
   17.0098  -12.2579  -15.5438 C   0  0  0  0  0  0  0  0  0  0  0  0
   15.9032  -11.8385  -15.1280 O   0  0  0  0  0  0  0  0  0  0  0  0
   17.9833  -11.2786  -16.0759 C   0  0  0  0  0  0  0  0  0  0  0  0
   19.2099  -11.9825  -16.5410 C   0  0  0  0  0  0  0  0  0  0  0  0
   20.2138  -11.0923  -17.2217 C   0  0  2  0  0  0  0  0  0  0  0  0
   21.3922  -11.9162  -17.4781 N   0  0  0  0  0  0  0  0  0  0  0  0
   20.6334   -9.9374  -16.4212 C   0  0  0  0  0  0  0  0  0  0  0  0
   21.7285   -9.9137  -15.7729 O   0  0  0  0  0  0  0  0  0  0  0  0
   22.7985   -1.9209  -14.2095 O   0  0  0  0  0  0  0  0  0  0  0  0
   22.5117   -3.2339  -14.6192 C   0  0  0  0  0  0  0  0  0  0  0  0
   22.1990   -3.4665  -15.9383 C   0  0  0  0  0  0  0  0  0  0  0  0
   21.9176   -4.7307  -16.3581 C   0  0  0  0  0  0  0  0  0  0  0  0
   21.9394   -5.7929  -15.4810 C   0  0  0  0  0  0  0  0  0  0  0  0
   21.6327   -7.1549  -15.9452 C   0  0  0  0  0  0  0  0  0  0  0  0
   20.2510   -7.5780  -15.5962 C   0  0  2  0  0  0  0  0  0  0  0  0
   19.8387   -8.7695  -16.3207 N   0  0  0  0  0  0  0  0  0  0  0  0
   19.2389   -6.5025  -15.7263 C   0  0  0  0  0  0  0  0  0  0  0  0
   18.2316   -6.4845  -16.6642 O   0  0  0  0  0  0  0  0  0  0  0  0
   22.2550   -5.5402  -14.1625 C   0  0  0  0  0  0  0  0  0  0  0  0
   22.5409   -4.2812  -13.7182 C   0  0  0  0  0  0  0  0  0  0  0  0
   19.2762   -5.5100  -14.9311 O   0  0  0  0  0  0  0  0  0  0  0  0
  1  2  1  0
  3  4  1  6
  3  2  1  0
  5  3  1  0
  6  5  2  0
  8 10  1  0
  8  7  1  0
  9  8  2  0
 11 10  1  0
 12 11  1  1
 12 13  1  0
 13  5  1  0
 14 12  1  0
 14 15  2  0
 16 17  1  0
 17 18  2  0
 18 19  1  0
 20 19  2  0
 20 21  1  0
 22 21  1  6
 22 23  1  0
 23 14  1  0
 24 22  1  0
 25 24  1  0
 26 20  1  0
 27 17  1  0
 27 26  2  0
 28 24  2  0
M  END
$$$$
