VQC.pdb
     RDKit          3D

 23 22  0  0  1  0  0  0  0  0999 V2000
    8.9150  -14.3735   18.3145 C   0  0  0  0  0  0  0  0  0  0  0  0
    7.5521  -14.1634   18.9886 C   0  0  2  0  0  0  0  0  0  0  0  0
    7.0454  -12.8301   18.4809 C   0  0  0  0  0  0  0  0  0  0  0  0
    7.8090  -14.1404   20.4706 C   0  0  2  0  0  0  0  0  0  0  0  0
    8.4983  -12.9428   20.8890 N   0  0  0  0  0  0  0  0  0  0  0  0
    8.5304  -15.3244   20.9638 C   0  0  0  0  0  0  0  0  0  0  0  0
    7.8763  -16.4250   20.9199 O   0  0  0  0  0  0  0  0  0  0  0  0
   12.8494  -19.2783   19.3721 N   0  0  0  0  0  0  0  0  0  0  0  0
   11.9521  -18.2955   18.8700 C   0  0  0  0  0  0  0  0  0  0  0  0
   12.1199  -17.9262   17.6845 O   0  0  0  0  0  0  0  0  0  0  0  0
   10.8583  -17.7207   19.6993 C   0  0  0  0  0  0  0  0  0  0  0  0
   11.4417  -17.1146   20.9288 C   0  0  0  0  0  0  0  0  0  0  0  0
   10.4615  -16.5104   21.8805 C   0  0  2  0  0  0  0  0  0  0  0  0
    9.8606  -15.2938   21.4627 N   0  0  0  0  0  0  0  0  0  0  0  0
   11.1018  -16.3499   23.2229 C   0  0  0  0  0  0  0  0  0  0  0  0
   11.6980  -15.2710   23.4497 O   0  0  0  0  0  0  0  0  0  0  0  0
   11.0772  -17.3241   24.2371 N   0  0  0  0  0  0  0  0  0  0  0  0
   10.9454  -17.0411   25.6445 C   0  0  1  0  0  0  0  0  0  0  0  0
    9.6848  -16.2651   25.9554 C   0  0  0  0  0  0  0  0  0  0  0  0
    9.6909  -15.8608   27.7112 S   0  0  0  0  0  0  0  0  0  0  0  0
   10.8408  -18.3398   26.3559 C   0  0  0  0  0  0  0  0  0  0  0  0
    9.9813  -19.1998   26.0402 O   0  0  0  0  0  0  0  0  0  0  0  0
   11.7028  -18.6562   27.4130 O   0  0  0  0  0  0  0  0  0  0  0  0
  2  1  1  6
  2  3  1  0
  4  6  1  0
  4  2  1  0
  4  5  1  6
  6 14  1  0
  6  7  2  0
  9  8  1  0
 10  9  2  0
 11  9  1  0
 12 11  1  0
 13 12  1  6
 14 13  1  0
 15 17  1  0
 15 13  1  0
 16 15  2  0
 18 21  1  0
 18 17  1  0
 18 19  1  6
 20 19  1  0
 21 23  1  0
 22 21  2  0
M  END
$$$$
