VQC.pdb
     RDKit          3D

 23 22  0  0  1  0  0  0  0  0999 V2000
    8.5678  -13.6093   18.2180 C   0  0  0  0  0  0  0  0  0  0  0  0
    7.6361  -13.8535   19.4131 C   0  0  2  0  0  0  0  0  0  0  0  0
    7.8769  -12.6991   20.3626 C   0  0  0  0  0  0  0  0  0  0  0  0
    8.0480  -15.1703   20.0123 C   0  0  2  0  0  0  0  0  0  0  0  0
    7.8260  -16.2761   19.1110 N   0  0  0  0  0  0  0  0  0  0  0  0
    7.4130  -15.4539   21.3091 C   0  0  0  0  0  0  0  0  0  0  0  0
    6.3366  -16.1463   21.2549 O   0  0  0  0  0  0  0  0  0  0  0  0
    6.9098  -19.1768   25.3945 N   0  0  0  0  0  0  0  0  0  0  0  0
    8.1010  -18.8972   24.6691 C   0  0  0  0  0  0  0  0  0  0  0  0
    9.0364  -19.7243   24.7731 O   0  0  0  0  0  0  0  0  0  0  0  0
    8.2482  -17.6834   23.8206 C   0  0  0  0  0  0  0  0  0  0  0  0
    7.0320  -16.8349   23.9632 C   0  0  0  0  0  0  0  0  0  0  0  0
    7.2349  -15.3710   23.7458 C   0  0  2  0  0  0  0  0  0  0  0  0
    7.9244  -15.0100   22.5584 N   0  0  0  0  0  0  0  0  0  0  0  0
    7.9007  -14.7749   24.9456 C   0  0  0  0  0  0  0  0  0  0  0  0
    9.1456  -14.8934   25.0299 O   0  0  0  0  0  0  0  0  0  0  0  0
    7.2242  -14.0963   25.9752 N   0  0  0  0  0  0  0  0  0  0  0  0
    7.8500  -13.2082   26.9226 C   0  0  1  0  0  0  0  0  0  0  0  0
    6.8395  -12.3663   27.6698 C   0  0  0  0  0  0  0  0  0  0  0  0
    5.6997  -11.6564   26.4684 S   0  0  0  0  0  0  0  0  0  0  0  0
    8.5461  -14.0457   27.9315 C   0  0  0  0  0  0  0  0  0  0  0  0
    9.2397  -13.5384   28.8476 O   0  0  0  0  0  0  0  0  0  0  0  0
    8.4541  -15.4424   27.8987 O   0  0  0  0  0  0  0  0  0  0  0  0
  2  1  1  6
  2  3  1  0
  4  6  1  0
  4  2  1  0
  4  5  1  6
  6 14  1  0
  6  7  2  0
  9  8  1  0
 10  9  2  0
 11  9  1  0
 12 11  1  0
 13 12  1  1
 14 13  1  0
 15 17  1  0
 15 13  1  0
 16 15  2  0
 18 21  1  0
 18 17  1  0
 18 19  1  1
 20 19  1  0
 21 23  1  0
 22 21  2  0
M  END
$$$$
