VQC.pdb
     RDKit          3D

 23 22  0  0  1  0  0  0  0  0999 V2000
    6.6480  -14.7254   19.5454 C   0  0  0  0  0  0  0  0  0  0  0  0
    7.5195  -13.4824   19.7716 C   0  0  2  0  0  0  0  0  0  0  0  0
    8.0109  -13.0717   18.3997 C   0  0  0  0  0  0  0  0  0  0  0  0
    8.6483  -13.9110   20.6687 C   0  0  2  0  0  0  0  0  0  0  0  0
    9.5070  -14.8873   20.0409 N   0  0  0  0  0  0  0  0  0  0  0  0
    8.2043  -14.4124   21.9789 C   0  0  0  0  0  0  0  0  0  0  0  0
    7.3640  -13.6685   22.5967 O   0  0  0  0  0  0  0  0  0  0  0  0
    5.2978  -18.9477   22.5962 N   0  0  0  0  0  0  0  0  0  0  0  0
    6.3196  -18.7554   23.5670 C   0  0  0  0  0  0  0  0  0  0  0  0
    5.9874  -18.8649   24.7702 O   0  0  0  0  0  0  0  0  0  0  0  0
    7.7239  -18.4382   23.1902 C   0  0  0  0  0  0  0  0  0  0  0  0
    8.2867  -17.4664   24.1691 C   0  0  0  0  0  0  0  0  0  0  0  0
    8.1250  -16.0241   23.8153 C   0  0  2  0  0  0  0  0  0  0  0  0
    8.6510  -15.6316   22.5563 N   0  0  0  0  0  0  0  0  0  0  0  0
    8.6869  -15.1745   24.9109 C   0  0  0  0  0  0  0  0  0  0  0  0
    9.9260  -14.9859   24.9136 O   0  0  0  0  0  0  0  0  0  0  0  0
    7.9197  -14.5796   25.9286 N   0  0  0  0  0  0  0  0  0  0  0  0
    8.4540  -13.7588   26.9863 C   0  0  1  0  0  0  0  0  0  0  0  0
    7.4083  -12.8418   27.5812 C   0  0  0  0  0  0  0  0  0  0  0  0
    6.5274  -12.0401   26.2292 S   0  0  0  0  0  0  0  0  0  0  0  0
    8.9047  -14.6639   28.0733 C   0  0  0  0  0  0  0  0  0  0  0  0
    8.7582  -15.9093   28.0006 O   0  0  0  0  0  0  0  0  0  0  0  0
    9.5144  -14.1587   29.2281 O   0  0  0  0  0  0  0  0  0  0  0  0
  2  1  1  6
  2  3  1  0
  4  6  1  0
  4  2  1  0
  4  5  1  6
  6 14  1  0
  6  7  2  0
  9  8  1  0
 10  9  2  0
 11  9  1  0
 12 11  1  0
 13 12  1  1
 14 13  1  0
 15 17  1  0
 15 13  1  0
 16 15  2  0
 18 21  1  0
 18 17  1  0
 18 19  1  1
 20 19  1  0
 21 23  1  0
 22 21  2  0
M  END
$$$$
