VQC.pdb
     RDKit          3D

 23 22  0  0  1  0  0  0  0  0999 V2000
    7.2178  -13.0793   20.4762 C   0  0  0  0  0  0  0  0  0  0  0  0
    8.4173  -13.5641   19.6504 C   0  0  2  0  0  0  0  0  0  0  0  0
    8.1667  -13.0767   18.2391 C   0  0  0  0  0  0  0  0  0  0  0  0
    8.4144  -15.0659   19.7359 C   0  0  2  0  0  0  0  0  0  0  0  0
    7.2990  -15.6528   19.0317 N   0  0  0  0  0  0  0  0  0  0  0  0
    8.4547  -15.5795   21.1143 C   0  0  0  0  0  0  0  0  0  0  0  0
    7.3271  -15.9487   21.5971 O   0  0  0  0  0  0  0  0  0  0  0  0
   13.0292  -18.2642   25.0629 N   0  0  0  0  0  0  0  0  0  0  0  0
   11.6652  -18.6316   25.2296 C   0  0  0  0  0  0  0  0  0  0  0  0
   11.4340  -19.8116   25.5819 O   0  0  0  0  0  0  0  0  0  0  0  0
   10.5505  -17.6726   25.0008 C   0  0  0  0  0  0  0  0  0  0  0  0
   10.6450  -17.1321   23.6158 C   0  0  0  0  0  0  0  0  0  0  0  0
    9.5520  -16.1983   23.2093 C   0  0  2  0  0  0  0  0  0  0  0  0
    9.6401  -15.6764   21.8920 N   0  0  0  0  0  0  0  0  0  0  0  0
    9.4418  -15.0918   24.2100 C   0  0  0  0  0  0  0  0  0  0  0  0
   10.1652  -14.0836   24.0336 O   0  0  0  0  0  0  0  0  0  0  0  0
    8.5857  -15.1113   25.3258 N   0  0  0  0  0  0  0  0  0  0  0  0
    8.3853  -14.0036   26.2263 C   0  0  1  0  0  0  0  0  0  0  0  0
    6.9742  -13.4627   26.1610 C   0  0  0  0  0  0  0  0  0  0  0  0
    6.8261  -12.1291   27.3637 S   0  0  0  0  0  0  0  0  0  0  0  0
    8.5932  -14.5048   27.6081 C   0  0  0  0  0  0  0  0  0  0  0  0
    8.4908  -15.7241   27.8920 O   0  0  0  0  0  0  0  0  0  0  0  0
    8.9134  -13.6302   28.6535 O   0  0  0  0  0  0  0  0  0  0  0  0
  2  1  1  1
  2  3  1  0
  4  6  1  0
  4  2  1  0
  4  5  1  1
  6 14  1  0
  6  7  2  0
  9  8  1  0
 10  9  2  0
 11  9  1  0
 12 11  1  0
 13 12  1  1
 14 13  1  0
 15 17  1  0
 15 13  1  0
 16 15  2  0
 18 21  1  0
 18 17  1  0
 18 19  1  1
 20 19  1  0
 21 23  1  0
 22 21  2  0
M  END
$$$$
