VQC.pdb
     RDKit          3D

 23 22  0  0  1  0  0  0  0  0999 V2000
    6.0303  -11.0495   26.3158 C   0  0  0  0  0  0  0  0  0  0  0  0
    6.9994  -12.2366   26.2286 C   0  0  2  0  0  0  0  0  0  0  0  0
    8.1410  -11.7695   25.3507 C   0  0  0  0  0  0  0  0  0  0  0  0
    6.2323  -13.3675   25.5997 C   0  0  2  0  0  0  0  0  0  0  0  0
    5.0633  -13.7296   26.3658 N   0  0  0  0  0  0  0  0  0  0  0  0
    7.0479  -14.5656   25.3456 C   0  0  0  0  0  0  0  0  0  0  0  0
    7.1173  -15.3997   26.3154 O   0  0  0  0  0  0  0  0  0  0  0  0
   11.8322  -17.3950   20.9399 N   0  0  0  0  0  0  0  0  0  0  0  0
   10.4549  -17.6337   21.2036 C   0  0  0  0  0  0  0  0  0  0  0  0
    9.7312  -17.9244   20.2230 O   0  0  0  0  0  0  0  0  0  0  0  0
    9.8818  -17.5468   22.5743 C   0  0  0  0  0  0  0  0  0  0  0  0
    8.9930  -16.3543   22.6596 C   0  0  0  0  0  0  0  0  0  0  0  0
    8.5747  -15.9559   24.0372 C   0  0  2  0  0  0  0  0  0  0  0  0
    7.7283  -14.8194   24.1241 N   0  0  0  0  0  0  0  0  0  0  0  0
    9.7867  -15.7793   24.8962 C   0  0  0  0  0  0  0  0  0  0  0  0
   10.6481  -14.9540   24.5117 O   0  0  0  0  0  0  0  0  0  0  0  0
   10.0184  -16.4742   26.0969 N   0  0  0  0  0  0  0  0  0  0  0  0
   11.1816  -16.3061   26.9316 C   0  0  1  0  0  0  0  0  0  0  0  0
   10.8270  -15.7881   28.3078 C   0  0  0  0  0  0  0  0  0  0  0  0
   10.0439  -14.1764   28.1183 S   0  0  0  0  0  0  0  0  0  0  0  0
   11.7977  -17.6438   27.1182 C   0  0  0  0  0  0  0  0  0  0  0  0
   11.2769  -18.6840   26.6443 O   0  0  0  0  0  0  0  0  0  0  0  0
   12.9909  -17.7963   27.8348 O   0  0  0  0  0  0  0  0  0  0  0  0
  2  1  1  6
  2  3  1  0
  4  6  1  0
  4  2  1  0
  4  5  1  1
  6 14  1  0
  6  7  2  0
  9  8  1  0
 10  9  2  0
 11  9  1  0
 12 11  1  0
 13 12  1  6
 14 13  1  0
 15 17  1  0
 15 13  1  0
 16 15  2  0
 18 21  1  0
 18 17  1  0
 18 19  1  1
 20 19  1  0
 21 23  1  0
 22 21  2  0
M  END
$$$$
