VQC.pdb
     RDKit          3D

 23 22  0  0  1  0  0  0  0  0999 V2000
    7.0692  -13.1090   21.0615 C   0  0  0  0  0  0  0  0  0  0  0  0
    8.2858  -13.3410   20.1549 C   0  0  2  0  0  0  0  0  0  0  0  0
    7.9321  -12.7089   18.8253 C   0  0  0  0  0  0  0  0  0  0  0  0
    8.4550  -14.8315   20.0421 C   0  0  2  0  0  0  0  0  0  0  0  0
    7.3852  -15.4496   19.2950 N   0  0  0  0  0  0  0  0  0  0  0  0
    8.6081  -15.5087   21.3394 C   0  0  0  0  0  0  0  0  0  0  0  0
    7.5567  -16.0899   21.7841 O   0  0  0  0  0  0  0  0  0  0  0  0
   12.0759  -19.5714   24.3702 N   0  0  0  0  0  0  0  0  0  0  0  0
   11.6246  -19.5131   23.0225 C   0  0  0  0  0  0  0  0  0  0  0  0
   11.7792  -20.5438   22.3270 O   0  0  0  0  0  0  0  0  0  0  0  0
   10.9955  -18.2932   22.4474 C   0  0  0  0  0  0  0  0  0  0  0  0
   10.9280  -17.2359   23.4947 C   0  0  0  0  0  0  0  0  0  0  0  0
    9.8413  -16.2250   23.3249 C   0  0  2  0  0  0  0  0  0  0  0  0
    9.8197  -15.5405   22.0813 N   0  0  0  0  0  0  0  0  0  0  0  0
    9.8798  -15.2539   24.4621 C   0  0  0  0  0  0  0  0  0  0  0  0
   10.8849  -14.5100   24.5486 O   0  0  0  0  0  0  0  0  0  0  0  0
    8.8688  -15.1239   25.4313 N   0  0  0  0  0  0  0  0  0  0  0  0
    8.8864  -14.1719   26.5136 C   0  0  1  0  0  0  0  0  0  0  0  0
    7.4995  -13.6804   26.8644 C   0  0  0  0  0  0  0  0  0  0  0  0
    6.7720  -12.9464   25.3884 S   0  0  0  0  0  0  0  0  0  0  0  0
    9.4160  -14.8662   27.7141 C   0  0  0  0  0  0  0  0  0  0  0  0
    9.5838  -14.2666   28.8050 O   0  0  0  0  0  0  0  0  0  0  0  0
    9.7506  -16.2252   27.6741 O   0  0  0  0  0  0  0  0  0  0  0  0
  2  1  1  1
  2  3  1  0
  4  6  1  0
  4  2  1  0
  4  5  1  1
  6 14  1  0
  6  7  2  0
  9  8  1  0
 10  9  2  0
 11  9  1  0
 12 11  1  0
 13 12  1  6
 14 13  1  0
 15 17  1  0
 15 13  1  0
 16 15  2  0
 18 21  1  0
 18 17  1  0
 18 19  1  1
 20 19  1  0
 21 23  1  0
 22 21  2  0
M  END
$$$$
