VQC.pdb
     RDKit          3D

 23 22  0  0  1  0  0  0  0  0999 V2000
    7.8850  -12.3941   18.2699 C   0  0  0  0  0  0  0  0  0  0  0  0
    7.8426  -13.5936   19.2266 C   0  0  2  0  0  0  0  0  0  0  0  0
    8.1377  -13.0317   20.6011 C   0  0  0  0  0  0  0  0  0  0  0  0
    8.9133  -14.5443   18.7655 C   0  0  2  0  0  0  0  0  0  0  0  0
    8.6748  -15.0315   17.4275 N   0  0  0  0  0  0  0  0  0  0  0  0
    9.1260  -15.6812   19.6753 C   0  0  0  0  0  0  0  0  0  0  0  0
    8.9683  -16.8404   19.1535 O   0  0  0  0  0  0  0  0  0  0  0  0
   13.2397  -19.5255   20.3177 N   0  0  0  0  0  0  0  0  0  0  0  0
   12.8460  -19.0061   21.5820 C   0  0  0  0  0  0  0  0  0  0  0  0
   13.7538  -18.8112   22.4233 O   0  0  0  0  0  0  0  0  0  0  0  0
   11.4263  -18.7022   21.9088 C   0  0  0  0  0  0  0  0  0  0  0  0
   10.9943  -17.4979   21.1457 C   0  0  0  0  0  0  0  0  0  0  0  0
    9.8882  -16.7042   21.7606 C   0  0  2  0  0  0  0  0  0  0  0  0
    9.4823  -15.5475   21.0445 N   0  0  0  0  0  0  0  0  0  0  0  0
   10.2475  -16.3543   23.1700 C   0  0  0  0  0  0  0  0  0  0  0  0
   11.2631  -15.6405   23.3436 O   0  0  0  0  0  0  0  0  0  0  0  0
    9.5245  -16.7716   24.3019 N   0  0  0  0  0  0  0  0  0  0  0  0
    9.6964  -16.2365   25.6294 C   0  0  1  0  0  0  0  0  0  0  0  0
    8.3741  -15.9391   26.3010 C   0  0  0  0  0  0  0  0  0  0  0  0
    7.3991  -14.9062   25.1923 S   0  0  0  0  0  0  0  0  0  0  0  0
   10.3738  -17.2736   26.4475 C   0  0  0  0  0  0  0  0  0  0  0  0
   10.6274  -18.4157   25.9903 O   0  0  0  0  0  0  0  0  0  0  0  0
   10.7577  -17.0148   27.7689 O   0  0  0  0  0  0  0  0  0  0  0  0
  2  1  1  6
  2  3  1  0
  4  6  1  0
  4  2  1  0
  4  5  1  6
  6 14  1  0
  6  7  2  0
  9  8  1  0
 10  9  2  0
 11  9  1  0
 12 11  1  0
 13 12  1  6
 14 13  1  0
 15 17  1  0
 15 13  1  0
 16 15  2  0
 18 21  1  0
 18 17  1  0
 18 19  1  1
 20 19  1  0
 21 23  1  0
 22 21  2  0
M  END
$$$$
