VQC.pdb
     RDKit          3D

 23 22  0  0  1  0  0  0  0  0999 V2000
    7.0218  -13.0510   20.1035 C   0  0  0  0  0  0  0  0  0  0  0  0
    8.3178  -13.8301   19.8402 C   0  0  2  0  0  0  0  0  0  0  0  0
    8.6265  -13.6270   18.3719 C   0  0  0  0  0  0  0  0  0  0  0  0
    8.0215  -15.2700   20.1589 C   0  0  2  0  0  0  0  0  0  0  0  0
    7.1909  -15.8937   19.1561 N   0  0  0  0  0  0  0  0  0  0  0  0
    7.4255  -15.4702   21.4894 C   0  0  0  0  0  0  0  0  0  0  0  0
    6.1494  -15.5805   21.5096 O   0  0  0  0  0  0  0  0  0  0  0  0
    6.8258  -19.6493   25.2784 N   0  0  0  0  0  0  0  0  0  0  0  0
    8.1721  -19.2537   25.0453 C   0  0  0  0  0  0  0  0  0  0  0  0
    9.0638  -20.0956   25.3022 O   0  0  0  0  0  0  0  0  0  0  0  0
    8.5248  -17.9064   24.5210 C   0  0  0  0  0  0  0  0  0  0  0  0
    7.2870  -17.0857   24.4049 C   0  0  0  0  0  0  0  0  0  0  0  0
    7.4817  -15.6849   23.9239 C   0  0  2  0  0  0  0  0  0  0  0  0
    8.1761  -15.5424   22.6938 N   0  0  0  0  0  0  0  0  0  0  0  0
    8.1362  -14.8741   24.9973 C   0  0  0  0  0  0  0  0  0  0  0  0
    9.3892  -14.8576   25.0215 O   0  0  0  0  0  0  0  0  0  0  0  0
    7.4407  -14.1361   25.9719 N   0  0  0  0  0  0  0  0  0  0  0  0
    8.0639  -13.3168   26.9811 C   0  0  1  0  0  0  0  0  0  0  0  0
    7.0680  -12.4228   27.6860 C   0  0  0  0  0  0  0  0  0  0  0  0
    5.9967  -11.6817   26.4411 S   0  0  0  0  0  0  0  0  0  0  0  0
    8.6332  -14.2249   28.0084 C   0  0  0  0  0  0  0  0  0  0  0  0
    8.4295  -15.4641   27.9819 O   0  0  0  0  0  0  0  0  0  0  0  0
    9.4239  -13.7295   29.0523 O   0  0  0  0  0  0  0  0  0  0  0  0
  2  1  1  6
  2  3  1  0
  4  6  1  0
  4  2  1  0
  4  5  1  6
  6 14  1  0
  6  7  2  0
  9  8  1  0
 10  9  2  0
 11  9  1  0
 12 11  1  0
 13 12  1  1
 14 13  1  0
 15 17  1  0
 15 13  1  0
 16 15  2  0
 18 21  1  0
 18 17  1  0
 18 19  1  1
 20 19  1  0
 21 23  1  0
 22 21  2  0
M  END
$$$$
