VQC.pdb
     RDKit          3D

 23 22  0  0  1  0  0  0  0  0999 V2000
    7.2743  -13.3432   20.2732 C   0  0  0  0  0  0  0  0  0  0  0  0
    8.5408  -13.3549   19.4062 C   0  0  2  0  0  0  0  0  0  0  0  0
    8.2730  -12.3827   18.2769 C   0  0  0  0  0  0  0  0  0  0  0  0
    8.7029  -14.7651   18.9081 C   0  0  2  0  0  0  0  0  0  0  0  0
    7.6396  -15.1559   18.0130 N   0  0  0  0  0  0  0  0  0  0  0  0
    8.8349  -15.7604   19.9839 C   0  0  0  0  0  0  0  0  0  0  0  0
    7.7699  -16.4166   20.2599 O   0  0  0  0  0  0  0  0  0  0  0  0
   13.3111  -19.0924   20.3475 N   0  0  0  0  0  0  0  0  0  0  0  0
   12.0497  -19.5037   19.8346 C   0  0  0  0  0  0  0  0  0  0  0  0
   12.0622  -20.2582   18.8344 O   0  0  0  0  0  0  0  0  0  0  0  0
   10.7639  -19.0682   20.4443 C   0  0  0  0  0  0  0  0  0  0  0  0
   11.0443  -18.1001   21.5413 C   0  0  0  0  0  0  0  0  0  0  0  0
   10.0447  -17.0024   21.7072 C   0  0  2  0  0  0  0  0  0  0  0  0
   10.0408  -16.0085   20.6934 N   0  0  0  0  0  0  0  0  0  0  0  0
   10.2057  -16.3794   23.0576 C   0  0  0  0  0  0  0  0  0  0  0  0
   11.1867  -15.6174   23.2254 O   0  0  0  0  0  0  0  0  0  0  0  0
    9.3341  -16.5925   24.1407 N   0  0  0  0  0  0  0  0  0  0  0  0
    9.5033  -16.0248   25.4549 C   0  0  1  0  0  0  0  0  0  0  0  0
    8.2231  -15.4170   25.9836 C   0  0  0  0  0  0  0  0  0  0  0  0
    7.6295  -14.2168   24.7779 S   0  0  0  0  0  0  0  0  0  0  0  0
    9.8715  -17.1285   26.3769 C   0  0  0  0  0  0  0  0  0  0  0  0
    9.9091  -18.3246   25.9953 O   0  0  0  0  0  0  0  0  0  0  0  0
   10.1928  -16.8747   27.7159 O   0  0  0  0  0  0  0  0  0  0  0  0
  2  1  1  1
  2  3  1  0
  4  6  1  0
  4  2  1  0
  4  5  1  1
  6 14  1  0
  6  7  2  0
  9  8  1  0
 10  9  2  0
 11  9  1  0
 12 11  1  0
 13 12  1  6
 14 13  1  0
 15 17  1  0
 15 13  1  0
 16 15  2  0
 18 21  1  0
 18 17  1  0
 18 19  1  1
 20 19  1  0
 21 23  1  0
 22 21  2  0
M  END
$$$$
