VQC.pdb
     RDKit          3D

 23 22  0  0  1  0  0  0  0  0999 V2000
    7.1999  -15.0165   19.3982 C   0  0  0  0  0  0  0  0  0  0  0  0
    7.3024  -13.5568   19.8615 C   0  0  2  0  0  0  0  0  0  0  0  0
    7.4821  -12.7386   18.6003 C   0  0  0  0  0  0  0  0  0  0  0  0
    8.5066  -13.4784   20.7595 C   0  0  2  0  0  0  0  0  0  0  0  0
    9.7271  -13.8268   20.0714 N   0  0  0  0  0  0  0  0  0  0  0  0
    8.3830  -14.2829   21.9855 C   0  0  0  0  0  0  0  0  0  0  0  0
    7.3438  -14.0462   22.6963 O   0  0  0  0  0  0  0  0  0  0  0  0
   11.1109  -19.6980   23.8667 N   0  0  0  0  0  0  0  0  0  0  0  0
   10.4017  -19.2547   25.0173 C   0  0  0  0  0  0  0  0  0  0  0  0
   10.4690  -19.9769   26.0389 O   0  0  0  0  0  0  0  0  0  0  0  0
    9.6109  -17.9941   25.0263 C   0  0  0  0  0  0  0  0  0  0  0  0
    9.8559  -17.2523   23.7578 C   0  0  0  0  0  0  0  0  0  0  0  0
    9.0989  -15.9743   23.5986 C   0  0  2  0  0  0  0  0  0  0  0  0
    9.3272  -15.2645   22.3905 N   0  0  0  0  0  0  0  0  0  0  0  0
    9.3473  -15.0952   24.7832 C   0  0  0  0  0  0  0  0  0  0  0  0
   10.5109  -14.6558   24.9386 O   0  0  0  0  0  0  0  0  0  0  0  0
    8.3669  -14.7338   25.7247 N   0  0  0  0  0  0  0  0  0  0  0  0
    8.5749  -13.8135   26.8147 C   0  0  1  0  0  0  0  0  0  0  0  0
    7.2739  -13.2519   27.3439 C   0  0  0  0  0  0  0  0  0  0  0  0
    6.3657  -12.5364   25.9620 S   0  0  0  0  0  0  0  0  0  0  0  0
    9.2043  -14.5692   27.9267 C   0  0  0  0  0  0  0  0  0  0  0  0
    9.4026  -15.8075   27.8562 O   0  0  0  0  0  0  0  0  0  0  0  0
    9.6030  -13.9244   29.1039 O   0  0  0  0  0  0  0  0  0  0  0  0
  2  1  1  6
  2  3  1  0
  4  6  1  0
  4  2  1  0
  4  5  1  6
  6 14  1  0
  6  7  2  0
  9  8  1  0
 10  9  2  0
 11  9  1  0
 12 11  1  0
 13 12  1  1
 14 13  1  0
 15 17  1  0
 15 13  1  0
 16 15  2  0
 18 21  1  0
 18 17  1  0
 18 19  1  1
 20 19  1  0
 21 23  1  0
 22 21  2  0
M  END
$$$$
