VQC.pdb
     RDKit          3D

 23 22  0  0  1  0  0  0  0  0999 V2000
    6.4919  -19.4247   22.1017 C   0  0  0  0  0  0  0  0  0  0  0  0
    7.0356  -20.3509   23.1982 C   0  0  2  0  0  0  0  0  0  0  0  0
    5.8634  -21.2063   23.6300 C   0  0  0  0  0  0  0  0  0  0  0  0
    7.5201  -19.4586   24.3081 C   0  0  2  0  0  0  0  0  0  0  0  0
    6.4409  -18.7429   24.9466 N   0  0  0  0  0  0  0  0  0  0  0  0
    8.5641  -18.5095   23.8903 C   0  0  0  0  0  0  0  0  0  0  0  0
    9.6496  -19.0388   23.4629 O   0  0  0  0  0  0  0  0  0  0  0  0
   12.0363  -15.9416   21.5879 N   0  0  0  0  0  0  0  0  0  0  0  0
   11.0447  -16.5939   20.8039 C   0  0  0  0  0  0  0  0  0  0  0  0
   11.4497  -17.3430   19.8848 O   0  0  0  0  0  0  0  0  0  0  0  0
    9.5887  -16.4076   21.0489 C   0  0  0  0  0  0  0  0  0  0  0  0
    9.3995  -15.5687   22.2654 C   0  0  0  0  0  0  0  0  0  0  0  0
    9.5241  -16.2841   23.5709 C   0  0  2  0  0  0  0  0  0  0  0  0
    8.4202  -17.0967   23.9407 N   0  0  0  0  0  0  0  0  0  0  0  0
    9.8416  -15.3000   24.6519 C   0  0  0  0  0  0  0  0  0  0  0  0
    9.7642  -14.0831   24.3618 O   0  0  0  0  0  0  0  0  0  0  0  0
   10.2178  -15.6508   25.9610 N   0  0  0  0  0  0  0  0  0  0  0  0
   10.0657  -14.8002   27.1148 C   0  0  1  0  0  0  0  0  0  0  0  0
    8.6290  -14.3770   27.3270 C   0  0  0  0  0  0  0  0  0  0  0  0
    8.5942  -13.1373   28.6340 S   0  0  0  0  0  0  0  0  0  0  0  0
   10.4660  -15.5866   28.3086 C   0  0  0  0  0  0  0  0  0  0  0  0
   10.2773  -16.8266   28.3776 O   0  0  0  0  0  0  0  0  0  0  0  0
   11.0731  -14.9705   29.4096 O   0  0  0  0  0  0  0  0  0  0  0  0
  2  1  1  6
  2  3  1  0
  4  6  1  0
  4  2  1  0
  4  5  1  6
  6 14  1  0
  6  7  2  0
  9  8  1  0
 10  9  2  0
 11  9  1  0
 12 11  1  0
 13 12  1  6
 14 13  1  0
 15 17  1  0
 15 13  1  0
 16 15  2  0
 18 21  1  0
 18 17  1  0
 18 19  1  1
 20 19  1  0
 21 23  1  0
 22 21  2  0
M  END
$$$$
