VQC.pdb
     RDKit          3D

 23 22  0  0  1  0  0  0  0  0999 V2000
    7.8118  -13.6266   20.5294 C   0  0  0  0  0  0  0  0  0  0  0  0
    8.7527  -13.1737   19.4046 C   0  0  2  0  0  0  0  0  0  0  0  0
    7.9910  -12.1157   18.6346 C   0  0  0  0  0  0  0  0  0  0  0  0
    9.0297  -14.3907   18.5649 C   0  0  2  0  0  0  0  0  0  0  0  0
    7.8291  -14.9353   17.9763 N   0  0  0  0  0  0  0  0  0  0  0  0
    9.7540  -15.4515   19.2826 C   0  0  0  0  0  0  0  0  0  0  0  0
    9.0442  -16.4548   19.6440 O   0  0  0  0  0  0  0  0  0  0  0  0
   13.0663  -19.2068   18.6267 N   0  0  0  0  0  0  0  0  0  0  0  0
   13.6963  -19.1798   19.9018 C   0  0  0  0  0  0  0  0  0  0  0  0
   14.2585  -20.2338   20.2797 O   0  0  0  0  0  0  0  0  0  0  0  0
   13.6980  -17.9651   20.7615 C   0  0  0  0  0  0  0  0  0  0  0  0
   13.1231  -16.8226   19.9975 C   0  0  0  0  0  0  0  0  0  0  0  0
   11.7151  -16.4586   20.3391 C   0  0  2  0  0  0  0  0  0  0  0  0
   11.1438  -15.4068   19.5756 N   0  0  0  0  0  0  0  0  0  0  0  0
   11.6158  -16.1638   21.8023 C   0  0  0  0  0  0  0  0  0  0  0  0
   12.2664  -15.1844   22.2365 O   0  0  0  0  0  0  0  0  0  0  0  0
   10.8457  -16.9093   22.7131 N   0  0  0  0  0  0  0  0  0  0  0  0
   10.7852  -16.6624   24.1320 C   0  0  1  0  0  0  0  0  0  0  0  0
    9.3784  -16.7860   24.6737 C   0  0  0  0  0  0  0  0  0  0  0  0
    8.3654  -15.5081   23.9071 S   0  0  0  0  0  0  0  0  0  0  0  0
   11.6010  -17.7046   24.8045 C   0  0  0  0  0  0  0  0  0  0  0  0
   12.1080  -18.6611   24.1674 O   0  0  0  0  0  0  0  0  0  0  0  0
   11.8369  -17.6593   26.1839 O   0  0  0  0  0  0  0  0  0  0  0  0
  2  1  1  1
  2  3  1  0
  4  6  1  0
  4  2  1  0
  4  5  1  1
  6 14  1  0
  6  7  2  0
  9  8  1  0
 10  9  2  0
 11  9  1  0
 12 11  1  0
 13 12  1  6
 14 13  1  0
 15 17  1  0
 15 13  1  0
 16 15  2  0
 18 21  1  0
 18 17  1  0
 18 19  1  1
 20 19  1  0
 21 23  1  0
 22 21  2  0
M  END
$$$$
