EQQ.pdb
     RDKit          3D

 28 27  0  0  1  0  0  0  0  0999 V2000
   13.1173  -16.5119   21.7123 N   0  0  0  0  0  0  0  0  0  0  0  0
   11.7233  -16.1345   21.6102 C   0  0  1  0  0  0  0  0  0  0  0  0
   11.1720  -16.4639   20.2399 C   0  0  0  0  0  0  0  0  0  0  0  0
   11.9343  -17.5678   19.5615 C   0  0  0  0  0  0  0  0  0  0  0  0
   11.3705  -17.7164   18.2016 C   0  0  0  0  0  0  0  0  0  0  0  0
   10.9301  -18.8157   17.8145 O   0  0  0  0  0  0  0  0  0  0  0  0
   10.9479  -16.9598   22.5622 C   0  0  0  0  0  0  0  0  0  0  0  0
    9.7066  -16.7978   22.6301 O   0  0  0  0  0  0  0  0  0  0  0  0
   11.3125  -16.6476   17.3017 O   0  0  0  0  0  0  0  0  0  0  0  0
   11.5026  -22.7100   24.0010 N   0  0  0  0  0  0  0  0  0  0  0  0
   10.5289  -22.1637   23.1333 C   0  0  0  0  0  0  0  0  0  0  0  0
    9.9296  -22.9175   22.3283 O   0  0  0  0  0  0  0  0  0  0  0  0
   10.2433  -20.7030   23.2015 C   0  0  0  0  0  0  0  0  0  0  0  0
   11.1616  -20.0833   24.2070 C   0  0  0  0  0  0  0  0  0  0  0  0
   10.9507  -18.6246   24.4298 C   0  0  2  0  0  0  0  0  0  0  0  0
   11.6229  -17.9003   23.3630 N   0  0  0  0  0  0  0  0  0  0  0  0
   11.3905  -18.1095   25.7327 C   0  0  0  0  0  0  0  0  0  0  0  0
   12.1726  -17.1273   25.8120 O   0  0  0  0  0  0  0  0  0  0  0  0
   10.7726  -13.8383   27.7552 N   0  0  0  0  0  0  0  0  0  0  0  0
   10.2314  -14.3505   28.9542 C   0  0  0  0  0  0  0  0  0  0  0  0
   10.1099  -13.5700   29.9367 O   0  0  0  0  0  0  0  0  0  0  0  0
    9.8095  -15.7418   29.0812 C   0  0  0  0  0  0  0  0  0  0  0  0
   10.0885  -16.6330   27.9194 C   0  0  0  0  0  0  0  0  0  0  0  0
   10.8432  -17.8879   28.2061 C   0  0  2  0  0  0  0  0  0  0  0  0
   10.9647  -18.6808   26.9727 N   0  0  0  0  0  0  0  0  0  0  0  0
   10.4793  -18.6920   29.3471 C   0  0  0  0  0  0  0  0  0  0  0  0
   10.9604  -18.6379   30.6383 O   0  0  0  0  0  0  0  0  0  0  0  0
    9.5901  -19.5988   29.1547 O   0  0  0  0  0  0  0  0  0  0  0  0
  2  1  1  6
  2  7  1  0
  3  2  1  0
  3  4  1  0
  5  4  1  0
  5  9  1  0
  6  5  2  0
  7  8  2  0
  7 16  1  0
 10 11  1  0
 11 12  2  0
 13 14  1  0
 13 11  1  0
 15 17  1  0
 15 14  1  1
 16 15  1  0
 17 18  2  0
 20 19  1  0
 20 21  2  0
 22 20  1  0
 23 22  1  0
 24 23  1  6
 25 24  1  0
 25 17  1  0
 26 24  1  0
 26 27  1  0
 28 26  2  0
M  END
$$$$
