EQQ.pdb
     RDKit          3D

 28 27  0  0  1  0  0  0  0  0999 V2000
   12.3321  -19.8819   18.8357 N   0  0  0  0  0  0  0  0  0  0  0  0
   11.8435  -20.8682   19.7762 C   0  0  1  0  0  0  0  0  0  0  0  0
   12.9474  -21.8181   20.1875 C   0  0  0  0  0  0  0  0  0  0  0  0
   14.3141  -21.2065   20.0537 C   0  0  0  0  0  0  0  0  0  0  0  0
   15.2971  -22.2476   20.4270 C   0  0  0  0  0  0  0  0  0  0  0  0
   14.9167  -23.3557   20.8511 O   0  0  0  0  0  0  0  0  0  0  0  0
   11.4368  -20.1677   21.0142 C   0  0  0  0  0  0  0  0  0  0  0  0
   12.0315  -19.1112   21.3335 O   0  0  0  0  0  0  0  0  0  0  0  0
   16.6757  -22.0361   20.3272 O   0  0  0  0  0  0  0  0  0  0  0  0
    5.8119  -20.2294   23.0508 N   0  0  0  0  0  0  0  0  0  0  0  0
    6.3736  -19.5344   24.1467 C   0  0  0  0  0  0  0  0  0  0  0  0
    5.6144  -18.9838   24.9809 O   0  0  0  0  0  0  0  0  0  0  0  0
    7.8567  -19.4766   24.2778 C   0  0  0  0  0  0  0  0  0  0  0  0
    8.4682  -20.0822   23.0540 C   0  0  0  0  0  0  0  0  0  0  0  0
    9.9585  -20.0724   23.0305 C   0  0  2  0  0  0  0  0  0  0  0  0
   10.3976  -20.7051   21.7970 N   0  0  0  0  0  0  0  0  0  0  0  0
   10.6176  -20.7105   24.1771 C   0  0  0  0  0  0  0  0  0  0  0  0
   11.4024  -21.6807   24.0174 O   0  0  0  0  0  0  0  0  0  0  0  0
   15.4677  -19.6231   25.2997 N   0  0  0  0  0  0  0  0  0  0  0  0
   15.0691  -20.9614   25.5070 C   0  0  0  0  0  0  0  0  0  0  0  0
   15.9160  -21.8745   25.3118 O   0  0  0  0  0  0  0  0  0  0  0  0
   13.7199  -21.3092   25.9415 C   0  0  0  0  0  0  0  0  0  0  0  0
   12.7603  -20.1807   26.1082 C   0  0  0  0  0  0  0  0  0  0  0  0
   11.3933  -20.5322   26.5922 C   0  0  2  0  0  0  0  0  0  0  0  0
   10.4135  -20.2772   25.5247 N   0  0  0  0  0  0  0  0  0  0  0  0
   10.9484  -20.0520   27.8777 C   0  0  0  0  0  0  0  0  0  0  0  0
    9.8315  -19.3054   28.1884 O   0  0  0  0  0  0  0  0  0  0  0  0
   11.6860  -20.3410   28.8890 O   0  0  0  0  0  0  0  0  0  0  0  0
  2  1  1  6
  2  7  1  0
  3  2  1  0
  3  4  1  0
  5  4  1  0
  5  9  1  0
  6  5  2  0
  7  8  2  0
  7 16  1  0
 10 11  1  0
 11 12  2  0
 13 14  1  0
 13 11  1  0
 15 17  1  0
 15 14  1  1
 16 15  1  0
 17 18  2  0
 20 19  1  0
 20 21  2  0
 22 20  1  0
 23 22  1  0
 24 23  1  6
 25 24  1  0
 25 17  1  0
 26 24  1  0
 26 27  1  0
 28 26  2  0
M  END
$$$$
