EQQ.pdb
     RDKit          3D

 28 27  0  0  1  0  0  0  0  0999 V2000
    9.8111  -12.6272   19.4538 N   0  0  0  0  0  0  0  0  0  0  0  0
    8.4445  -13.1017   19.3932 C   0  0  1  0  0  0  0  0  0  0  0  0
    8.0612  -13.4696   17.9763 C   0  0  0  0  0  0  0  0  0  0  0  0
    9.1197  -14.2831   17.2851 C   0  0  0  0  0  0  0  0  0  0  0  0
    8.6020  -14.6219   15.9409 C   0  0  0  0  0  0  0  0  0  0  0  0
    7.4398  -14.3149   15.6133 O   0  0  0  0  0  0  0  0  0  0  0  0
    8.3540  -14.3570   20.1708 C   0  0  0  0  0  0  0  0  0  0  0  0
    7.2676  -14.9826   20.1834 O   0  0  0  0  0  0  0  0  0  0  0  0
    9.3800  -15.2960   14.9946 O   0  0  0  0  0  0  0  0  0  0  0  0
   10.9699  -20.2160   20.6236 N   0  0  0  0  0  0  0  0  0  0  0  0
   11.4443  -19.1629   21.4394 C   0  0  0  0  0  0  0  0  0  0  0  0
   12.6799  -19.0296   21.6157 O   0  0  0  0  0  0  0  0  0  0  0  0
   10.4580  -18.2398   22.0678 C   0  0  0  0  0  0  0  0  0  0  0  0
   10.3814  -16.9917   21.2464 C   0  0  0  0  0  0  0  0  0  0  0  0
    9.4291  -15.9652   21.7575 C   0  0  2  0  0  0  0  0  0  0  0  0
    9.4859  -14.8124   20.8729 N   0  0  0  0  0  0  0  0  0  0  0  0
    9.6404  -15.5360   23.1458 C   0  0  0  0  0  0  0  0  0  0  0  0
   10.7060  -14.9649   23.4937 O   0  0  0  0  0  0  0  0  0  0  0  0
    5.5980  -12.9068   27.0337 N   0  0  0  0  0  0  0  0  0  0  0  0
    6.5143  -12.3811   26.0973 C   0  0  0  0  0  0  0  0  0  0  0  0
    6.3545  -11.1934   25.7064 O   0  0  0  0  0  0  0  0  0  0  0  0
    7.6309  -13.1667   25.5813 C   0  0  0  0  0  0  0  0  0  0  0  0
    7.7525  -14.5646   26.0841 C   0  0  0  0  0  0  0  0  0  0  0  0
    8.9077  -15.3598   25.5745 C   0  0  2  0  0  0  0  0  0  0  0  0
    8.6653  -15.7356   24.1728 N   0  0  0  0  0  0  0  0  0  0  0  0
    9.4190  -16.4559   26.3606 C   0  0  0  0  0  0  0  0  0  0  0  0
   10.3764  -17.3915   26.0296 O   0  0  0  0  0  0  0  0  0  0  0  0
    8.9201  -16.6067   27.5347 O   0  0  0  0  0  0  0  0  0  0  0  0
  2  1  1  6
  2  7  1  0
  3  2  1  0
  3  4  1  0
  5  4  1  0
  5  9  1  0
  6  5  2  0
  7  8  2  0
  7 16  1  0
 10 11  1  0
 11 12  2  0
 13 14  1  0
 13 11  1  0
 15 17  1  0
 15 14  1  6
 16 15  1  0
 17 18  2  0
 20 19  1  0
 20 21  2  0
 22 20  1  0
 23 22  1  0
 24 23  1  1
 25 24  1  0
 25 17  1  0
 26 24  1  0
 26 27  1  0
 28 26  2  0
M  END
$$$$
