EQQ.pdb
     RDKit          3D

 28 27  0  0  1  0  0  0  0  0999 V2000
   11.9066  -18.5391   17.6649 N   0  0  0  0  0  0  0  0  0  0  0  0
   10.5975  -18.3758   18.2614 C   0  0  1  0  0  0  0  0  0  0  0  0
   10.1456  -19.6538   18.9341 C   0  0  0  0  0  0  0  0  0  0  0  0
   11.2651  -20.3549   19.6519 C   0  0  0  0  0  0  0  0  0  0  0  0
   10.7009  -21.5894   20.2410 C   0  0  0  0  0  0  0  0  0  0  0  0
    9.9264  -22.3096   19.5823 O   0  0  0  0  0  0  0  0  0  0  0  0
   10.7018  -17.3705   19.3418 C   0  0  0  0  0  0  0  0  0  0  0  0
   11.8143  -17.1854   19.8892 O   0  0  0  0  0  0  0  0  0  0  0  0
   11.0025  -21.9941   21.5451 O   0  0  0  0  0  0  0  0  0  0  0  0
    6.7019  -12.7779   19.9875 N   0  0  0  0  0  0  0  0  0  0  0  0
    7.6241  -12.9759   18.9339 C   0  0  0  0  0  0  0  0  0  0  0  0
    7.5188  -12.2913   17.8871 O   0  0  0  0  0  0  0  0  0  0  0  0
    8.6971  -13.9962   19.0996 C   0  0  0  0  0  0  0  0  0  0  0  0
    8.5691  -14.6074   20.4591 C   0  0  0  0  0  0  0  0  0  0  0  0
    9.5889  -15.6477   20.7747 C   0  0  2  0  0  0  0  0  0  0  0  0
    9.5529  -16.6526   19.7242 N   0  0  0  0  0  0  0  0  0  0  0  0
    9.4532  -16.2954   22.0855 C   0  0  0  0  0  0  0  0  0  0  0  0
    8.4634  -17.0257   22.3494 O   0  0  0  0  0  0  0  0  0  0  0  0
   10.8609  -21.1636   24.3471 N   0  0  0  0  0  0  0  0  0  0  0  0
   11.5701  -20.2932   23.4915 C   0  0  0  0  0  0  0  0  0  0  0  0
   12.2418  -20.7958   22.5505 O   0  0  0  0  0  0  0  0  0  0  0  0
   11.5408  -18.8442   23.6636 C   0  0  0  0  0  0  0  0  0  0  0  0
   10.3087  -18.2690   24.2742 C   0  0  0  0  0  0  0  0  0  0  0  0
   10.2752  -16.7866   24.4412 C   0  0  2  0  0  0  0  0  0  0  0  0
   10.4207  -16.1407   23.1273 N   0  0  0  0  0  0  0  0  0  0  0  0
   11.0916  -16.1664   25.4560 C   0  0  0  0  0  0  0  0  0  0  0  0
   12.0348  -15.1691   25.3243 O   0  0  0  0  0  0  0  0  0  0  0  0
   10.9426  -16.5939   26.6582 O   0  0  0  0  0  0  0  0  0  0  0  0
  2  1  1  1
  2  7  1  0
  3  2  1  0
  3  4  1  0
  5  4  1  0
  5  9  1  0
  6  5  2  0
  7  8  2  0
  7 16  1  0
 10 11  1  0
 11 12  2  0
 13 14  1  0
 13 11  1  0
 15 17  1  0
 15 14  1  6
 16 15  1  0
 17 18  2  0
 20 19  1  0
 20 21  2  0
 22 20  1  0
 23 22  1  0
 24 23  1  6
 25 24  1  0
 25 17  1  0
 26 24  1  0
 26 27  1  0
 28 26  2  0
M  END
$$$$
