EQQ.pdb
     RDKit          3D

 28 27  0  0  1  0  0  0  0  0999 V2000
   11.0465  -17.3011   17.2523 N   0  0  0  0  0  0  0  0  0  0  0  0
   12.2211  -17.3219   18.0986 C   0  0  1  0  0  0  0  0  0  0  0  0
   13.4355  -16.8140   17.3522 C   0  0  0  0  0  0  0  0  0  0  0  0
   13.2334  -15.4330   16.7937 C   0  0  0  0  0  0  0  0  0  0  0  0
   14.4560  -15.0848   16.0363 C   0  0  0  0  0  0  0  0  0  0  0  0
   14.7495  -15.6956   14.9907 O   0  0  0  0  0  0  0  0  0  0  0  0
   12.0086  -16.3704   19.2113 C   0  0  0  0  0  0  0  0  0  0  0  0
   12.9888  -16.0422   19.9207 O   0  0  0  0  0  0  0  0  0  0  0  0
   15.3262  -14.0741   16.4564 O   0  0  0  0  0  0  0  0  0  0  0  0
    7.2103  -12.5632   19.7704 N   0  0  0  0  0  0  0  0  0  0  0  0
    8.0882  -12.7752   18.6822 C   0  0  0  0  0  0  0  0  0  0  0  0
    7.8307  -12.2489   17.5722 O   0  0  0  0  0  0  0  0  0  0  0  0
    9.2973  -13.6212   18.8879 C   0  0  0  0  0  0  0  0  0  0  0  0
    9.2708  -14.1609   20.2830 C   0  0  0  0  0  0  0  0  0  0  0  0
   10.4009  -15.0721   20.6216 C   0  0  2  0  0  0  0  0  0  0  0  0
   10.7165  -15.8621   19.4423 N   0  0  0  0  0  0  0  0  0  0  0  0
   10.1801  -15.9608   21.7695 C   0  0  0  0  0  0  0  0  0  0  0  0
    9.4814  -17.0012   21.6601 O   0  0  0  0  0  0  0  0  0  0  0  0
   14.2038  -20.0900   23.4020 N   0  0  0  0  0  0  0  0  0  0  0  0
   12.8086  -20.1434   23.6102 C   0  0  0  0  0  0  0  0  0  0  0  0
   12.1865  -21.1724   23.2316 O   0  0  0  0  0  0  0  0  0  0  0  0
   12.0787  -19.0534   24.2498 C   0  0  0  0  0  0  0  0  0  0  0  0
   11.7263  -17.8895   23.3878 C   0  0  0  0  0  0  0  0  0  0  0  0
   10.9792  -16.7756   24.0419 C   0  0  2  0  0  0  0  0  0  0  0  0
   10.7360  -15.7053   23.0622 N   0  0  0  0  0  0  0  0  0  0  0  0
   11.4292  -16.2685   25.3151 C   0  0  0  0  0  0  0  0  0  0  0  0
   11.1890  -16.7594   26.5811 O   0  0  0  0  0  0  0  0  0  0  0  0
   12.1492  -15.2048   25.2914 O   0  0  0  0  0  0  0  0  0  0  0  0
  2  1  1  6
  2  7  1  0
  3  2  1  0
  3  4  1  0
  5  4  1  0
  5  9  1  0
  6  5  2  0
  7  8  2  0
  7 16  1  0
 10 11  1  0
 11 12  2  0
 13 14  1  0
 13 11  1  0
 15 17  1  0
 15 14  1  6
 16 15  1  0
 17 18  2  0
 20 19  1  0
 20 21  2  0
 22 20  1  0
 23 22  1  0
 24 23  1  6
 25 24  1  0
 25 17  1  0
 26 24  1  0
 26 27  1  0
 28 26  2  0
M  END
$$$$
