EQQ.pdb
     RDKit          3D

 28 27  0  0  1  0  0  0  0  0999 V2000
   11.0953  -17.8856   16.6605 N   0  0  0  0  0  0  0  0  0  0  0  0
   12.3742  -17.2829   16.3486 C   0  0  1  0  0  0  0  0  0  0  0  0
   12.4552  -16.9114   14.8839 C   0  0  0  0  0  0  0  0  0  0  0  0
   13.4033  -15.7729   14.6292 C   0  0  0  0  0  0  0  0  0  0  0  0
   13.3753  -15.4980   13.1756 C   0  0  0  0  0  0  0  0  0  0  0  0
   12.4978  -14.7609   12.6865 O   0  0  0  0  0  0  0  0  0  0  0  0
   12.4800  -16.0077   17.0912 C   0  0  0  0  0  0  0  0  0  0  0  0
   13.5650  -15.3804   17.0625 O   0  0  0  0  0  0  0  0  0  0  0  0
   14.3146  -16.0488   12.2982 O   0  0  0  0  0  0  0  0  0  0  0  0
    7.7989  -12.3284   18.3152 N   0  0  0  0  0  0  0  0  0  0  0  0
    7.7284  -13.5563   19.0129 C   0  0  0  0  0  0  0  0  0  0  0  0
    6.6276  -13.9351   19.4822 O   0  0  0  0  0  0  0  0  0  0  0  0
    8.9690  -14.3662   19.1705 C   0  0  0  0  0  0  0  0  0  0  0  0
   10.1001  -13.6399   18.5135 C   0  0  0  0  0  0  0  0  0  0  0  0
   11.4208  -14.3241   18.6088 C   0  0  2  0  0  0  0  0  0  0  0  0
   11.3636  -15.5360   17.8072 N   0  0  0  0  0  0  0  0  0  0  0  0
   11.8728  -14.6492   19.9676 C   0  0  0  0  0  0  0  0  0  0  0  0
   11.7816  -13.8099   20.9004 O   0  0  0  0  0  0  0  0  0  0  0  0
   12.4438  -15.3375   24.5527 N   0  0  0  0  0  0  0  0  0  0  0  0
   11.4704  -16.3496   24.6972 C   0  0  0  0  0  0  0  0  0  0  0  0
   11.2521  -16.8089   25.8507 O   0  0  0  0  0  0  0  0  0  0  0  0
   10.7162  -16.8668   23.5598 C   0  0  0  0  0  0  0  0  0  0  0  0
   11.0014  -16.2497   22.2332 C   0  0  0  0  0  0  0  0  0  0  0  0
   12.3679  -16.4676   21.6750 C   0  0  2  0  0  0  0  0  0  0  0  0
   12.4350  -15.9185   20.3116 N   0  0  0  0  0  0  0  0  0  0  0  0
   12.9790  -17.7702   21.7774 C   0  0  0  0  0  0  0  0  0  0  0  0
   13.1758  -18.7184   20.7957 O   0  0  0  0  0  0  0  0  0  0  0  0
   13.3981  -18.1218   22.9397 O   0  0  0  0  0  0  0  0  0  0  0  0
  2  1  1  6
  2  7  1  0
  3  2  1  0
  3  4  1  0
  5  4  1  0
  5  9  1  0
  6  5  2  0
  7  8  2  0
  7 16  1  0
 10 11  1  0
 11 12  2  0
 13 14  1  0
 13 11  1  0
 15 17  1  0
 15 14  1  1
 16 15  1  0
 17 18  2  0
 20 19  1  0
 20 21  2  0
 22 20  1  0
 23 22  1  0
 24 23  1  6
 25 24  1  0
 25 17  1  0
 26 24  1  0
 26 27  1  0
 28 26  2  0
M  END
$$$$
