EQQ.pdb
     RDKit          3D

 28 27  0  0  1  0  0  0  0  0999 V2000
   10.1505  -18.4403   20.4161 N   0  0  0  0  0  0  0  0  0  0  0  0
   11.3306  -17.6730   20.7550 C   0  0  1  0  0  0  0  0  0  0  0  0
   12.0733  -17.2427   19.5087 C   0  0  0  0  0  0  0  0  0  0  0  0
   12.3422  -18.3883   18.5731 C   0  0  0  0  0  0  0  0  0  0  0  0
   13.1294  -17.8519   17.4407 C   0  0  0  0  0  0  0  0  0  0  0  0
   14.3714  -17.7811   17.5093 O   0  0  0  0  0  0  0  0  0  0  0  0
   10.8972  -16.4216   21.4144 C   0  0  0  0  0  0  0  0  0  0  0  0
   11.7700  -15.6069   21.7968 O   0  0  0  0  0  0  0  0  0  0  0  0
   12.5237  -17.4024   16.2633 O   0  0  0  0  0  0  0  0  0  0  0  0
    7.6392  -12.2993   19.7981 N   0  0  0  0  0  0  0  0  0  0  0  0
    7.7575  -13.5558   19.1604 C   0  0  0  0  0  0  0  0  0  0  0  0
    7.6398  -13.6263   17.9127 O   0  0  0  0  0  0  0  0  0  0  0  0
    8.0190  -14.7632   19.9933 C   0  0  0  0  0  0  0  0  0  0  0  0
    7.9829  -14.3656   21.4352 C   0  0  0  0  0  0  0  0  0  0  0  0
    9.0320  -14.9987   22.2839 C   0  0  2  0  0  0  0  0  0  0  0  0
    9.5219  -16.1814   21.5941 N   0  0  0  0  0  0  0  0  0  0  0  0
    8.6186  -15.3552   23.6471 C   0  0  0  0  0  0  0  0  0  0  0  0
    7.9356  -14.5632   24.3464 O   0  0  0  0  0  0  0  0  0  0  0  0
    6.4557  -20.8624   25.4335 N   0  0  0  0  0  0  0  0  0  0  0  0
    5.7052  -19.6668   25.4274 C   0  0  0  0  0  0  0  0  0  0  0  0
    4.4498  -19.7493   25.3483 O   0  0  0  0  0  0  0  0  0  0  0  0
    6.3382  -18.3546   25.5150 C   0  0  0  0  0  0  0  0  0  0  0  0
    7.8286  -18.3310   25.5188 C   0  0  0  0  0  0  0  0  0  0  0  0
    8.4754  -16.9883   25.5910 C   0  0  2  0  0  0  0  0  0  0  0  0
    8.9593  -16.6036   24.2559 N   0  0  0  0  0  0  0  0  0  0  0  0
    9.4408  -16.7185   26.6284 C   0  0  0  0  0  0  0  0  0  0  0  0
    9.2291  -16.4326   27.9607 O   0  0  0  0  0  0  0  0  0  0  0  0
   10.6782  -16.7321   26.2835 O   0  0  0  0  0  0  0  0  0  0  0  0
  2  1  1  6
  2  7  1  0
  3  2  1  0
  3  4  1  0
  5  4  1  0
  5  9  1  0
  6  5  2  0
  7  8  2  0
  7 16  1  0
 10 11  1  0
 11 12  2  0
 13 14  1  0
 13 11  1  0
 15 17  1  0
 15 14  1  6
 16 15  1  0
 17 18  2  0
 20 19  1  0
 20 21  2  0
 22 20  1  0
 23 22  1  0
 24 23  1  6
 25 24  1  0
 25 17  1  0
 26 24  1  0
 26 27  1  0
 28 26  2  0
M  END
$$$$
