QLS.pdb
     RDKit          3D

 24 23  0  0  1  0  0  0  0  0999 V2000
    6.8987  -18.9805   20.1309 N   0  0  0  0  0  0  0  0  0  0  0  0
    7.0674  -18.2631   18.8927 C   0  0  0  0  0  0  0  0  0  0  0  0
    6.8249  -18.9190   17.8611 O   0  0  0  0  0  0  0  0  0  0  0  0
    7.4953  -16.8690   18.9843 C   0  0  0  0  0  0  0  0  0  0  0  0
    7.6290  -16.4268   20.4053 C   0  0  0  0  0  0  0  0  0  0  0  0
    7.8268  -14.9538   20.4788 C   0  0  2  0  0  0  0  0  0  0  0  0
    8.8316  -14.5242   19.5249 N   0  0  0  0  0  0  0  0  0  0  0  0
    8.2518  -14.6173   21.8812 C   0  0  0  0  0  0  0  0  0  0  0  0
    9.4903  -14.5982   22.0589 O   0  0  0  0  0  0  0  0  0  0  0  0
    7.8471  -12.0919   26.7686 C   0  0  0  0  0  0  0  0  0  0  0  0
    6.7636  -13.0856   26.4028 C   0  0  1  0  0  0  0  0  0  0  0  0
    5.4185  -12.3971   26.7758 C   0  0  0  0  0  0  0  0  0  0  0  0
    6.6791  -13.3224   24.9400 C   0  0  0  0  0  0  0  0  0  0  0  0
    7.7769  -14.0653   24.2787 C   0  0  2  0  0  0  0  0  0  0  0  0
    7.3622  -14.3477   22.9052 N   0  0  0  0  0  0  0  0  0  0  0  0
    8.0781  -15.3465   24.9163 C   0  0  0  0  0  0  0  0  0  0  0  0
    7.1842  -16.2567   25.0327 O   0  0  0  0  0  0  0  0  0  0  0  0
   11.7196  -17.0422   24.8512 O   0  0  0  0  0  0  0  0  0  0  0  0
   10.5701  -17.8066   25.0328 C   0  0  0  0  0  0  0  0  0  0  0  0
    9.5942  -17.0672   25.9581 C   0  0  2  0  0  0  0  0  0  0  0  0
    9.3436  -15.7309   25.4594 N   0  0  0  0  0  0  0  0  0  0  0  0
   10.1488  -16.9762   27.3302 C   0  0  0  0  0  0  0  0  0  0  0  0
   10.3514  -15.8660   27.8436 O   0  0  0  0  0  0  0  0  0  0  0  0
   10.4533  -18.1271   28.0698 O   0  0  0  0  0  0  0  0  0  0  0  0
  2  1  1  0
  3  2  2  0
  4  2  1  0
  5  4  1  0
  6  5  1  0
  6  7  1  6
  8  9  2  0
  8  6  1  0
 11 10  1  6
 11 12  1  0
 14 13  1  1
 13 11  1  0
 14 15  1  0
 15  8  1  0
 16 14  1  0
 17 16  2  0
 18 19  1  0
 20 19  1  6
 20 21  1  0
 21 16  1  0
 22 20  1  0
 23 22  2  0
 24 22  1  0
M  END
$$$$
