QLS.pdb
     RDKit          3D

 24 23  0  0  1  0  0  0  0  0999 V2000
    5.8605  -18.9033   20.8059 N   0  0  0  0  0  0  0  0  0  0  0  0
    6.8504  -18.5386   19.8246 C   0  0  0  0  0  0  0  0  0  0  0  0
    7.1884  -19.4511   19.0459 O   0  0  0  0  0  0  0  0  0  0  0  0
    7.3378  -17.1614   19.8511 C   0  0  0  0  0  0  0  0  0  0  0  0
    6.7090  -16.3764   20.9561 C   0  0  0  0  0  0  0  0  0  0  0  0
    7.2028  -14.9727   20.9479 C   0  0  2  0  0  0  0  0  0  0  0  0
    8.0632  -14.7396   19.8037 N   0  0  0  0  0  0  0  0  0  0  0  0
    7.9546  -14.7433   22.2296 C   0  0  0  0  0  0  0  0  0  0  0  0
    9.1977  -14.6839   22.1000 O   0  0  0  0  0  0  0  0  0  0  0  0
    5.7553  -11.9626   26.6238 C   0  0  0  0  0  0  0  0  0  0  0  0
    6.7484  -12.3965   25.5652 C   0  0  1  0  0  0  0  0  0  0  0  0
    8.0523  -11.5995   25.8600 C   0  0  0  0  0  0  0  0  0  0  0  0
    7.1344  -13.8236   25.6981 C   0  0  0  0  0  0  0  0  0  0  0  0
    8.0753  -14.3975   24.7084 C   0  0  2  0  0  0  0  0  0  0  0  0
    7.3408  -14.6064   23.4614 N   0  0  0  0  0  0  0  0  0  0  0  0
    8.6267  -15.6903   25.1126 C   0  0  0  0  0  0  0  0  0  0  0  0
    7.8636  -16.6551   25.4703 O   0  0  0  0  0  0  0  0  0  0  0  0
   12.2730  -18.9113   25.0895 O   0  0  0  0  0  0  0  0  0  0  0  0
   11.8103  -17.6434   24.7473 C   0  0  0  0  0  0  0  0  0  0  0  0
   10.4727  -17.3709   25.4484 C   0  0  2  0  0  0  0  0  0  0  0  0
   10.0152  -16.0288   25.1541 N   0  0  0  0  0  0  0  0  0  0  0  0
   10.6164  -17.5227   26.9164 C   0  0  0  0  0  0  0  0  0  0  0  0
   10.3967  -16.5575   27.6630 O   0  0  0  0  0  0  0  0  0  0  0  0
   10.9988  -18.7440   27.4877 O   0  0  0  0  0  0  0  0  0  0  0  0
  2  1  1  0
  3  2  2  0
  4  2  1  0
  5  4  1  0
  6  5  1  0
  6  7  1  6
  8  9  2  0
  8  6  1  0
 11 10  1  1
 11 12  1  0
 14 13  1  1
 13 11  1  0
 14 15  1  0
 15  8  1  0
 16 14  1  0
 17 16  2  0
 18 19  1  0
 20 19  1  6
 20 21  1  0
 21 16  1  0
 22 20  1  0
 23 22  2  0
 24 22  1  0
M  END
$$$$
