QLS.pdb
     RDKit          3D

 24 23  0  0  1  0  0  0  0  0999 V2000
    8.2448  -13.4300   17.2764 N   0  0  0  0  0  0  0  0  0  0  0  0
    8.1889  -13.1145   18.6812 C   0  0  0  0  0  0  0  0  0  0  0  0
    8.5637  -11.9649   18.9831 O   0  0  0  0  0  0  0  0  0  0  0  0
    7.7052  -14.1605   19.5795 C   0  0  0  0  0  0  0  0  0  0  0  0
    8.6727  -14.4252   20.6870 C   0  0  0  0  0  0  0  0  0  0  0  0
    8.2442  -15.6056   21.4855 C   0  0  2  0  0  0  0  0  0  0  0  0
    6.8041  -15.7689   21.4250 N   0  0  0  0  0  0  0  0  0  0  0  0
    8.6919  -15.3870   22.9041 C   0  0  0  0  0  0  0  0  0  0  0  0
    9.9317  -15.3047   23.0514 O   0  0  0  0  0  0  0  0  0  0  0  0
    5.7752  -12.3293   26.4249 C   0  0  0  0  0  0  0  0  0  0  0  0
    6.9117  -12.9524   25.6405 C   0  0  1  0  0  0  0  0  0  0  0  0
    8.1825  -12.1399   26.0243 C   0  0  0  0  0  0  0  0  0  0  0  0
    7.2034  -14.3432   26.0693 C   0  0  0  0  0  0  0  0  0  0  0  0
    8.2596  -15.0973   25.3551 C   0  0  2  0  0  0  0  0  0  0  0  0
    7.8203  -15.2826   23.9728 N   0  0  0  0  0  0  0  0  0  0  0  0
    8.5066  -16.4248   25.9169 C   0  0  0  0  0  0  0  0  0  0  0  0
    7.5434  -17.2357   26.1529 O   0  0  0  0  0  0  0  0  0  0  0  0
   11.9691  -18.5790   25.5578 O   0  0  0  0  0  0  0  0  0  0  0  0
   10.7457  -19.1790   25.8442 C   0  0  0  0  0  0  0  0  0  0  0  0
    9.9439  -18.2922   26.8065 C   0  0  2  0  0  0  0  0  0  0  0  0
    9.7878  -16.9631   26.2531 N   0  0  0  0  0  0  0  0  0  0  0  0
   10.6322  -18.1939   28.1162 C   0  0  0  0  0  0  0  0  0  0  0  0
   10.8494  -19.2184   28.7798 O   0  0  0  0  0  0  0  0  0  0  0  0
   11.0480  -16.9575   28.6287 O   0  0  0  0  0  0  0  0  0  0  0  0
  2  1  1  0
  3  2  2  0
  4  2  1  0
  5  4  1  0
  6  5  1  0
  6  7  1  1
  8  9  2  0
  8  6  1  0
 11 10  1  1
 11 12  1  0
 14 13  1  1
 13 11  1  0
 14 15  1  0
 15  8  1  0
 16 14  1  0
 17 16  2  0
 18 19  1  0
 20 19  1  6
 20 21  1  0
 21 16  1  0
 22 20  1  0
 23 22  2  0
 24 22  1  0
M  END
$$$$
