QLS.pdb
     RDKit          3D

 24 23  0  0  1  0  0  0  0  0999 V2000
    9.4968  -18.0296   19.3703 N   0  0  0  0  0  0  0  0  0  0  0  0
    8.1107  -18.0549   18.9778 C   0  0  0  0  0  0  0  0  0  0  0  0
    7.8794  -18.5939   17.8782 O   0  0  0  0  0  0  0  0  0  0  0  0
    7.1471  -17.4568   19.8991 C   0  0  0  0  0  0  0  0  0  0  0  0
    7.7919  -17.0565   21.1862 C   0  0  0  0  0  0  0  0  0  0  0  0
    7.6618  -15.5900   21.4031 C   0  0  2  0  0  0  0  0  0  0  0  0
    8.3146  -14.8551   20.3364 N   0  0  0  0  0  0  0  0  0  0  0  0
    8.2900  -15.2649   22.7298 C   0  0  0  0  0  0  0  0  0  0  0  0
    9.5394  -15.2002   22.7118 O   0  0  0  0  0  0  0  0  0  0  0  0
    5.7300  -12.0512   26.4312 C   0  0  0  0  0  0  0  0  0  0  0  0
    6.8059  -12.6598   25.5553 C   0  0  1  0  0  0  0  0  0  0  0  0
    8.0733  -11.7839   25.7763 C   0  0  0  0  0  0  0  0  0  0  0  0
    7.1992  -14.0203   25.9997 C   0  0  0  0  0  0  0  0  0  0  0  0
    8.1788  -14.7756   25.1847 C   0  0  2  0  0  0  0  0  0  0  0  0
    7.5636  -15.0512   23.8872 N   0  0  0  0  0  0  0  0  0  0  0  0
    8.5548  -16.0611   25.7719 C   0  0  0  0  0  0  0  0  0  0  0  0
    7.6746  -16.9540   26.0346 O   0  0  0  0  0  0  0  0  0  0  0  0
   12.3797  -17.6167   25.7359 O   0  0  0  0  0  0  0  0  0  0  0  0
   11.2795  -18.4631   25.8452 C   0  0  0  0  0  0  0  0  0  0  0  0
   10.1732  -17.7762   26.6574 C   0  0  2  0  0  0  0  0  0  0  0  0
    9.8838  -16.4684   26.1068 N   0  0  0  0  0  0  0  0  0  0  0  0
   10.5873  -17.6250   28.0732 C   0  0  0  0  0  0  0  0  0  0  0  0
   10.6053  -16.5010   28.5961 O   0  0  0  0  0  0  0  0  0  0  0  0
   10.9630  -18.7337   28.8438 O   0  0  0  0  0  0  0  0  0  0  0  0
  2  1  1  0
  3  2  2  0
  4  2  1  0
  5  4  1  0
  6  5  1  0
  6  7  1  6
  8  9  2  0
  8  6  1  0
 11 10  1  1
 11 12  1  0
 14 13  1  1
 13 11  1  0
 14 15  1  0
 15  8  1  0
 16 14  1  0
 17 16  2  0
 18 19  1  0
 20 19  1  6
 20 21  1  0
 21 16  1  0
 22 20  1  0
 23 22  2  0
 24 22  1  0
M  END
$$$$
