QLS.pdb
     RDKit          3D

 24 23  0  0  1  0  0  0  0  0999 V2000
   11.4026  -21.6840   18.9596 N   0  0  0  0  0  0  0  0  0  0  0  0
   11.3481  -21.8396   17.5282 C   0  0  0  0  0  0  0  0  0  0  0  0
   12.0315  -22.7752   17.0689 O   0  0  0  0  0  0  0  0  0  0  0  0
   10.5100  -20.8991   16.7880 C   0  0  0  0  0  0  0  0  0  0  0  0
    9.7736  -19.9783   17.7059 C   0  0  0  0  0  0  0  0  0  0  0  0
    9.4665  -18.6927   17.0222 C   0  0  2  0  0  0  0  0  0  0  0  0
   10.2278  -18.5721   15.7934 N   0  0  0  0  0  0  0  0  0  0  0  0
    9.8105  -17.5761   17.9684 C   0  0  0  0  0  0  0  0  0  0  0  0
   11.0277  -17.2901   18.0149 O   0  0  0  0  0  0  0  0  0  0  0  0
    8.7750  -12.7103   20.2038 C   0  0  0  0  0  0  0  0  0  0  0  0
    8.0617  -13.8855   20.8406 C   0  0  1  0  0  0  0  0  0  0  0  0
    6.5877  -13.4263   21.0371 C   0  0  0  0  0  0  0  0  0  0  0  0
    7.9791  -15.0591   19.9357 C   0  0  0  0  0  0  0  0  0  0  0  0
    9.2125  -15.8345   19.6677 C   0  0  2  0  0  0  0  0  0  0  0  0
    8.8727  -16.9072   18.7339 N   0  0  0  0  0  0  0  0  0  0  0  0
    9.7777  -16.4588   20.8634 C   0  0  0  0  0  0  0  0  0  0  0  0
    9.2975  -17.5496   21.3330 O   0  0  0  0  0  0  0  0  0  0  0  0
   13.4339  -17.3167   21.6392 O   0  0  0  0  0  0  0  0  0  0  0  0
   12.9516  -16.6288   22.7496 C   0  0  0  0  0  0  0  0  0  0  0  0
   11.4176  -16.6731   22.7633 C   0  0  2  0  0  0  0  0  0  0  0  0
   10.8841  -15.9615   21.6204 N   0  0  0  0  0  0  0  0  0  0  0  0
   10.8922  -16.0575   24.0057 C   0  0  0  0  0  0  0  0  0  0  0  0
   10.1830  -15.0426   23.9416 O   0  0  0  0  0  0  0  0  0  0  0  0
   11.1805  -16.6005   25.2651 O   0  0  0  0  0  0  0  0  0  0  0  0
  2  1  1  0
  3  2  2  0
  4  2  1  0
  5  4  1  0
  6  5  1  0
  6  7  1  6
  8  9  2  0
  8  6  1  0
 11 10  1  6
 11 12  1  0
 14 13  1  1
 13 11  1  0
 14 15  1  0
 15  8  1  0
 16 14  1  0
 17 16  2  0
 18 19  1  0
 20 19  1  1
 20 21  1  0
 21 16  1  0
 22 20  1  0
 23 22  2  0
 24 22  1  0
M  END
$$$$
