QLS.pdb
     RDKit          3D

 24 23  0  0  1  0  0  0  0  0999 V2000
    9.7654  -15.4741   13.1267 N   0  0  0  0  0  0  0  0  0  0  0  0
   10.5939  -16.3917   13.8667 C   0  0  0  0  0  0  0  0  0  0  0  0
   11.7688  -16.4910   13.4632 O   0  0  0  0  0  0  0  0  0  0  0  0
    9.9738  -17.0904   14.9903 C   0  0  0  0  0  0  0  0  0  0  0  0
   10.6422  -16.7542   16.2836 C   0  0  0  0  0  0  0  0  0  0  0  0
   10.0705  -17.5631   17.3942 C   0  0  2  0  0  0  0  0  0  0  0  0
    8.6550  -17.7970   17.1808 N   0  0  0  0  0  0  0  0  0  0  0  0
   10.2939  -16.8072   18.6746 C   0  0  0  0  0  0  0  0  0  0  0  0
   11.4964  -16.6485   18.9819 O   0  0  0  0  0  0  0  0  0  0  0  0
    6.6356  -12.9800   19.9338 C   0  0  0  0  0  0  0  0  0  0  0  0
    7.9199  -13.7393   19.6704 C   0  0  1  0  0  0  0  0  0  0  0  0
    9.0372  -12.6590   19.5865 C   0  0  0  0  0  0  0  0  0  0  0  0
    8.3117  -14.6069   20.8091 C   0  0  0  0  0  0  0  0  0  0  0  0
    9.4864  -15.4953   20.6507 C   0  0  2  0  0  0  0  0  0  0  0  0
    9.2675  -16.3191   19.4627 N   0  0  0  0  0  0  0  0  0  0  0  0
    9.6857  -16.4021   21.7806 C   0  0  0  0  0  0  0  0  0  0  0  0
    8.7733  -17.2268   22.1392 O   0  0  0  0  0  0  0  0  0  0  0  0
   13.1990  -17.9287   22.9862 O   0  0  0  0  0  0  0  0  0  0  0  0
   11.9956  -18.5034   23.3865 C   0  0  0  0  0  0  0  0  0  0  0  0
   10.9727  -17.4033   23.7006 C   0  0  2  0  0  0  0  0  0  0  0  0
   10.8641  -16.4850   22.5860 N   0  0  0  0  0  0  0  0  0  0  0  0
   11.3774  -16.6495   24.9117 C   0  0  0  0  0  0  0  0  0  0  0  0
   11.5707  -15.4267   24.8439 O   0  0  0  0  0  0  0  0  0  0  0  0
   11.5487  -17.2921   26.1453 O   0  0  0  0  0  0  0  0  0  0  0  0
  2  1  1  0
  3  2  2  0
  4  2  1  0
  5  4  1  0
  6  5  1  0
  6  7  1  6
  8  9  2  0
  8  6  1  0
 11 10  1  1
 11 12  1  0
 14 13  1  1
 13 11  1  0
 14 15  1  0
 15  8  1  0
 16 14  1  0
 17 16  2  0
 18 19  1  0
 20 19  1  6
 20 21  1  0
 21 16  1  0
 22 20  1  0
 23 22  2  0
 24 22  1  0
M  END
$$$$
