QLS.pdb
     RDKit          3D

 24 23  0  0  1  0  0  0  0  0999 V2000
   12.1945  -22.3870   18.3359 N   0  0  0  0  0  0  0  0  0  0  0  0
   12.3119  -21.0548   18.8720 C   0  0  0  0  0  0  0  0  0  0  0  0
   13.4213  -20.7770   19.3673 O   0  0  0  0  0  0  0  0  0  0  0  0
   11.1365  -20.1923   18.7747 C   0  0  0  0  0  0  0  0  0  0  0  0
   11.2852  -18.9633   19.6114 C   0  0  0  0  0  0  0  0  0  0  0  0
   10.6813  -17.7879   18.9271 C   0  0  2  0  0  0  0  0  0  0  0  0
   11.4422  -17.4387   17.7426 N   0  0  0  0  0  0  0  0  0  0  0  0
   10.6696  -16.6446   19.9035 C   0  0  0  0  0  0  0  0  0  0  0  0
   11.7911  -16.1334   20.1193 O   0  0  0  0  0  0  0  0  0  0  0  0
    6.1214  -13.6468   20.1556 C   0  0  0  0  0  0  0  0  0  0  0  0
    7.5773  -14.0558   20.0638 C   0  0  1  0  0  0  0  0  0  0  0  0
    8.3510  -12.7678   19.6580 C   0  0  0  0  0  0  0  0  0  0  0  0
    8.1434  -14.4431   21.3800 C   0  0  0  0  0  0  0  0  0  0  0  0
    9.5042  -15.0269   21.4211 C   0  0  2  0  0  0  0  0  0  0  0  0
    9.5235  -16.1807   20.5231 N   0  0  0  0  0  0  0  0  0  0  0  0
    9.8937  -15.5001   22.7490 C   0  0  0  0  0  0  0  0  0  0  0  0
    9.9399  -14.7030   23.7508 O   0  0  0  0  0  0  0  0  0  0  0  0
   10.2925  -18.6814   26.2506 O   0  0  0  0  0  0  0  0  0  0  0  0
    9.7806  -18.2588   25.0267 C   0  0  0  0  0  0  0  0  0  0  0  0
   10.7139  -17.2103   24.4064 C   0  0  2  0  0  0  0  0  0  0  0  0
   10.2498  -16.8435   23.0846 N   0  0  0  0  0  0  0  0  0  0  0  0
   12.0949  -17.7407   24.3051 C   0  0  0  0  0  0  0  0  0  0  0  0
   12.5500  -18.0753   23.2014 O   0  0  0  0  0  0  0  0  0  0  0  0
   12.9079  -17.8747   25.4388 O   0  0  0  0  0  0  0  0  0  0  0  0
  2  1  1  0
  3  2  2  0
  4  2  1  0
  5  4  1  0
  6  5  1  0
  6  7  1  6
  8  9  2  0
  8  6  1  0
 11 10  1  1
 11 12  1  0
 14 13  1  1
 13 11  1  0
 14 15  1  0
 15  8  1  0
 16 14  1  0
 17 16  2  0
 18 19  1  0
 20 19  1  6
 20 21  1  0
 21 16  1  0
 22 20  1  0
 23 22  2  0
 24 22  1  0
M  END
$$$$
