NFG.pdb
     RDKit          3D

 24 24  0  0  1  0  0  0  0  0999 V2000
   26.7755  -19.9979  -18.8480 N   0  0  0  0  0  0  0  0  0  0  0  0
   25.4624  -19.9869  -18.3518 C   0  0  0  0  0  0  0  0  0  0  0  0
   24.5373  -19.4342  -18.9919 O   0  0  0  0  0  0  0  0  0  0  0  0
   25.1762  -20.6372  -17.0583 C   0  0  0  0  0  0  0  0  0  0  0  0
   26.4167  -21.2368  -16.4305 C   0  0  2  0  0  0  0  0  0  0  0  0
   26.8661  -22.4274  -17.0790 N   0  0  0  0  0  0  0  0  0  0  0  0
   26.0541  -21.5007  -14.9841 C   0  0  0  0  0  0  0  0  0  0  0  0
   25.4662  -22.5732  -14.6937 O   0  0  0  0  0  0  0  0  0  0  0  0
   26.3552  -20.5862  -13.9683 N   0  0  0  0  0  0  0  0  0  0  0  0
   25.9863  -20.8203  -12.5662 C   0  0  1  0  0  0  0  0  0  0  0  0
   26.9740  -20.1454  -11.6725 C   0  0  0  0  0  0  0  0  0  0  0  0
   26.7705  -20.2299  -10.2404 C   0  0  0  0  0  0  0  0  0  0  0  0
   26.0172  -19.2293   -9.6358 C   0  0  0  0  0  0  0  0  0  0  0  0
   25.8175  -19.2992   -8.2768 C   0  0  0  0  0  0  0  0  0  0  0  0
   26.3413  -20.3246   -7.5187 C   0  0  0  0  0  0  0  0  0  0  0  0
   27.0927  -21.3111   -8.1631 C   0  0  0  0  0  0  0  0  0  0  0  0
   27.3063  -21.2636   -9.5188 C   0  0  0  0  0  0  0  0  0  0  0  0
   24.6099  -20.3704  -12.3159 C   0  0  0  0  0  0  0  0  0  0  0  0
   24.1304  -19.2791  -12.7531 O   0  0  0  0  0  0  0  0  0  0  0  0
   23.7258  -21.1957  -11.5364 N   0  0  0  0  0  0  0  0  0  0  0  0
   22.4416  -20.6413  -11.1224 C   0  0  0  0  0  0  0  0  0  0  0  0
   21.4165  -21.0635  -12.0992 C   0  0  0  0  0  0  0  0  0  0  0  0
   21.7316  -21.7489  -13.2634 O   0  0  0  0  0  0  0  0  0  0  0  0
   20.2079  -20.8034  -11.8896 O   0  0  0  0  0  0  0  0  0  0  0  0
  2  1  1  0
  2  3  2  0
  4  5  1  0
  4  2  1  0
  5  6  1  6
  7  5  1  0
  8  7  2  0
  9  7  1  0
 10  9  1  0
 10 11  1  1
 11 12  1  0
 12 13  2  0
 13 14  1  0
 15 14  2  0
 16 15  1  0
 17 12  1  0
 17 16  2  0
 18 20  1  0
 18 10  1  0
 19 18  2  0
 21 20  1  0
 22 23  1  0
 22 21  1  0
 24 22  2  0
M  END
$$$$
