NFG.pdb
     RDKit          3D

 24 24  0  0  1  0  0  0  0  0999 V2000
   26.2717  -21.9291  -18.4492 N   0  0  0  0  0  0  0  0  0  0  0  0
   25.0732  -21.5584  -17.8193 C   0  0  0  0  0  0  0  0  0  0  0  0
   24.1448  -21.0212  -18.4680 O   0  0  0  0  0  0  0  0  0  0  0  0
   24.9124  -21.8080  -16.3737 C   0  0  0  0  0  0  0  0  0  0  0  0
   26.1536  -22.4153  -15.7548 C   0  0  2  0  0  0  0  0  0  0  0  0
   26.4171  -23.7484  -16.1948 N   0  0  0  0  0  0  0  0  0  0  0  0
   25.9293  -22.3635  -14.2581 C   0  0  0  0  0  0  0  0  0  0  0  0
   25.3842  -23.3455  -13.6935 O   0  0  0  0  0  0  0  0  0  0  0  0
   26.3113  -21.2563  -13.4918 N   0  0  0  0  0  0  0  0  0  0  0  0
   26.1053  -21.1982  -12.0389 C   0  0  1  0  0  0  0  0  0  0  0  0
   27.3409  -20.6778  -11.3815 C   0  0  0  0  0  0  0  0  0  0  0  0
   27.3423  -20.5391   -9.9392 C   0  0  0  0  0  0  0  0  0  0  0  0
   26.4053  -19.6813   -9.3729 C   0  0  0  0  0  0  0  0  0  0  0  0
   26.3972  -19.5418   -8.0047 C   0  0  0  0  0  0  0  0  0  0  0  0
   27.2850  -20.2246   -7.2008 C   0  0  0  0  0  0  0  0  0  0  0  0
   28.2113  -21.0771   -7.8077 C   0  0  0  0  0  0  0  0  0  0  0  0
   28.2396  -21.2335   -9.1717 C   0  0  0  0  0  0  0  0  0  0  0  0
   24.9214  -20.3880  -11.7206 C   0  0  0  0  0  0  0  0  0  0  0  0
   24.5822  -19.3463  -12.3622 O   0  0  0  0  0  0  0  0  0  0  0  0
   24.0722  -20.7746  -10.6251 N   0  0  0  0  0  0  0  0  0  0  0  0
   22.9995  -21.7294  -10.8805 C   0  0  0  0  0  0  0  0  0  0  0  0
   21.9532  -21.0518  -11.6739 C   0  0  0  0  0  0  0  0  0  0  0  0
   21.9616  -21.0343  -13.0610 O   0  0  0  0  0  0  0  0  0  0  0  0
   21.0108  -20.4627  -11.0932 O   0  0  0  0  0  0  0  0  0  0  0  0
  2  1  1  0
  2  3  2  0
  4  5  1  0
  4  2  1  0
  5  6  1  6
  7  5  1  0
  8  7  2  0
  9  7  1  0
 10  9  1  0
 10 11  1  1
 11 12  1  0
 12 13  2  0
 13 14  1  0
 15 14  2  0
 16 15  1  0
 17 12  1  0
 17 16  2  0
 18 20  1  0
 18 10  1  0
 19 18  2  0
 21 20  1  0
 22 23  1  0
 22 21  1  0
 24 22  2  0
M  END
$$$$
