NFG.pdb
     RDKit          3D

 24 24  0  0  1  0  0  0  0  0999 V2000
   18.7951  -10.5359  -19.4500 N   0  0  0  0  0  0  0  0  0  0  0  0
   17.6853   -9.8655  -18.9120 C   0  0  0  0  0  0  0  0  0  0  0  0
   16.6307   -9.7312  -19.5760 O   0  0  0  0  0  0  0  0  0  0  0  0
   17.7700   -9.3144  -17.5456 C   0  0  0  0  0  0  0  0  0  0  0  0
   19.1385   -9.5152  -16.9296 C   0  0  2  0  0  0  0  0  0  0  0  0
   19.3494  -10.8350  -16.4257 N   0  0  0  0  0  0  0  0  0  0  0  0
   19.2449   -8.4816  -15.8281 C   0  0  0  0  0  0  0  0  0  0  0  0
   18.5922   -8.6572  -14.7683 O   0  0  0  0  0  0  0  0  0  0  0  0
   20.0471   -7.3422  -15.9594 N   0  0  0  0  0  0  0  0  0  0  0  0
   20.2359   -6.3841  -14.8624 C   0  0  1  0  0  0  0  0  0  0  0  0
   21.6286   -6.4987  -14.3360 C   0  0  0  0  0  0  0  0  0  0  0  0
   22.0225   -7.7435  -13.7077 C   0  0  0  0  0  0  0  0  0  0  0  0
   22.8937   -8.5716  -14.4073 C   0  0  0  0  0  0  0  0  0  0  0  0
   23.2746   -9.7558  -13.8207 C   0  0  0  0  0  0  0  0  0  0  0  0
   22.8162  -10.1284  -12.5750 C   0  0  0  0  0  0  0  0  0  0  0  0
   21.9420   -9.2692  -11.9039 C   0  0  0  0  0  0  0  0  0  0  0  0
   21.5468   -8.0813  -12.4683 C   0  0  0  0  0  0  0  0  0  0  0  0
   19.9204   -5.0210  -15.3117 C   0  0  0  0  0  0  0  0  0  0  0  0
   20.6662   -4.3372  -16.0786 O   0  0  0  0  0  0  0  0  0  0  0  0
   18.6981   -4.3976  -14.8784 N   0  0  0  0  0  0  0  0  0  0  0  0
   18.4325   -3.0248  -15.2938 C   0  0  0  0  0  0  0  0  0  0  0  0
   17.6079   -3.0613  -16.5194 C   0  0  0  0  0  0  0  0  0  0  0  0
   16.2236   -2.9743  -16.4911 O   0  0  0  0  0  0  0  0  0  0  0  0
   18.1580   -3.1748  -17.6405 O   0  0  0  0  0  0  0  0  0  0  0  0
  2  1  1  0
  2  3  2  0
  4  5  1  0
  4  2  1  0
  5  6  1  1
  7  5  1  0
  8  7  2  0
  9  7  1  0
 10  9  1  0
 10 11  1  6
 11 12  1  0
 12 13  2  0
 13 14  1  0
 15 14  2  0
 16 15  1  0
 17 12  1  0
 17 16  2  0
 18 20  1  0
 18 10  1  0
 19 18  2  0
 21 20  1  0
 22 23  1  0
 22 21  1  0
 24 22  2  0
M  END
$$$$
