NFG.pdb
     RDKit          3D

 24 24  0  0  1  0  0  0  0  0999 V2000
   18.8102  -10.0992  -20.2355 N   0  0  0  0  0  0  0  0  0  0  0  0
   19.4296   -8.8728  -19.9478 C   0  0  0  0  0  0  0  0  0  0  0  0
   19.8329   -8.1241  -20.8687 O   0  0  0  0  0  0  0  0  0  0  0  0
   19.6044   -8.4673  -18.5396 C   0  0  0  0  0  0  0  0  0  0  0  0
   20.9155   -8.9552  -17.9605 C   0  0  2  0  0  0  0  0  0  0  0  0
   20.9504  -10.3653  -17.7352 N   0  0  0  0  0  0  0  0  0  0  0  0
   21.1014   -8.1864  -16.6692 C   0  0  0  0  0  0  0  0  0  0  0  0
   20.5453   -8.6128  -15.6256 O   0  0  0  0  0  0  0  0  0  0  0  0
   21.8723   -7.0198  -16.6085 N   0  0  0  0  0  0  0  0  0  0  0  0
   22.1558   -6.3309  -15.3428 C   0  0  1  0  0  0  0  0  0  0  0  0
   23.6290   -6.3235  -15.0996 C   0  0  0  0  0  0  0  0  0  0  0  0
   24.3455   -7.5790  -15.1997 C   0  0  0  0  0  0  0  0  0  0  0  0
   24.0298   -8.5765  -14.2835 C   0  0  0  0  0  0  0  0  0  0  0  0
   24.7035   -9.7725  -14.3690 C   0  0  0  0  0  0  0  0  0  0  0  0
   25.6677   -9.9947  -15.3290 C   0  0  0  0  0  0  0  0  0  0  0  0
   25.9565   -8.9676  -16.2314 C   0  0  0  0  0  0  0  0  0  0  0  0
   25.2977   -7.7644  -16.1668 C   0  0  0  0  0  0  0  0  0  0  0  0
   21.5866   -4.9762  -15.3573 C   0  0  0  0  0  0  0  0  0  0  0  0
   21.7506   -4.1286  -14.4264 O   0  0  0  0  0  0  0  0  0  0  0  0
   20.7956   -4.5523  -16.4821 N   0  0  0  0  0  0  0  0  0  0  0  0
   20.2275   -3.2089  -16.4658 C   0  0  0  0  0  0  0  0  0  0  0  0
   18.8910   -3.2770  -15.8393 C   0  0  0  0  0  0  0  0  0  0  0  0
   18.3493   -2.2226  -15.1187 O   0  0  0  0  0  0  0  0  0  0  0  0
   18.2007   -4.3180  -15.9495 O   0  0  0  0  0  0  0  0  0  0  0  0
  2  1  1  0
  2  3  2  0
  4  5  1  0
  4  2  1  0
  5  6  1  1
  7  5  1  0
  8  7  2  0
  9  7  1  0
 10  9  1  0
 10 11  1  6
 11 12  1  0
 12 13  2  0
 13 14  1  0
 15 14  2  0
 16 15  1  0
 17 12  1  0
 17 16  2  0
 18 20  1  0
 18 10  1  0
 19 18  2  0
 21 20  1  0
 22 23  1  0
 22 21  1  0
 24 22  2  0
M  END
$$$$
