NFG.pdb
     RDKit          3D

 24 24  0  0  1  0  0  0  0  0999 V2000
   20.1585  -21.7159  -11.2411 N   0  0  0  0  0  0  0  0  0  0  0  0
   20.8720  -21.5529  -12.4389 C   0  0  0  0  0  0  0  0  0  0  0  0
   20.3587  -21.8597  -13.5405 O   0  0  0  0  0  0  0  0  0  0  0  0
   22.2444  -21.0124  -12.3915 C   0  0  0  0  0  0  0  0  0  0  0  0
   22.7264  -20.7938  -10.9729 C   0  0  2  0  0  0  0  0  0  0  0  0
   21.9706  -19.8154  -10.2576 N   0  0  0  0  0  0  0  0  0  0  0  0
   24.1796  -20.3860  -11.0949 C   0  0  0  0  0  0  0  0  0  0  0  0
   24.4517  -19.1879  -11.3608 O   0  0  0  0  0  0  0  0  0  0  0  0
   25.2216  -21.3040  -10.9199 N   0  0  0  0  0  0  0  0  0  0  0  0
   26.6301  -20.9413  -11.1238 C   0  0  1  0  0  0  0  0  0  0  0  0
   27.4473  -21.4615   -9.9875 C   0  0  0  0  0  0  0  0  0  0  0  0
   27.4150  -20.7367   -8.7332 C   0  0  0  0  0  0  0  0  0  0  0  0
   28.5875  -20.1151   -8.3172 C   0  0  0  0  0  0  0  0  0  0  0  0
   28.5686  -19.4241   -7.1281 C   0  0  0  0  0  0  0  0  0  0  0  0
   27.4291  -19.3392   -6.3567 C   0  0  0  0  0  0  0  0  0  0  0  0
   26.2711  -19.9774   -6.8090 C   0  0  0  0  0  0  0  0  0  0  0  0
   26.2643  -20.6735   -7.9927 C   0  0  0  0  0  0  0  0  0  0  0  0
   27.1044  -21.4363  -12.4237 C   0  0  0  0  0  0  0  0  0  0  0  0
   26.5003  -22.3173  -13.1098 O   0  0  0  0  0  0  0  0  0  0  0  0
   28.3203  -20.9071  -12.9822 N   0  0  0  0  0  0  0  0  0  0  0  0
   28.2227  -19.9477  -14.0767 C   0  0  0  0  0  0  0  0  0  0  0  0
   27.6592  -20.6409  -15.2536 C   0  0  0  0  0  0  0  0  0  0  0  0
   26.2938  -20.7824  -15.4543 O   0  0  0  0  0  0  0  0  0  0  0  0
   28.4250  -21.1288  -16.1184 O   0  0  0  0  0  0  0  0  0  0  0  0
  2  1  1  0
  2  3  2  0
  4  5  1  0
  4  2  1  0
  5  6  1  6
  7  5  1  0
  8  7  2  0
  9  7  1  0
 10  9  1  0
 10 11  1  1
 11 12  1  0
 12 13  2  0
 13 14  1  0
 15 14  2  0
 16 15  1  0
 17 12  1  0
 17 16  2  0
 18 20  1  0
 18 10  1  0
 19 18  2  0
 21 20  1  0
 22 23  1  0
 22 21  1  0
 24 22  2  0
M  END
$$$$
