NFG.pdb
     RDKit          3D

 24 24  0  0  1  0  0  0  0  0999 V2000
   28.5010  -18.8524  -15.3400 N   0  0  0  0  0  0  0  0  0  0  0  0
   27.8467  -20.0265  -14.9351 C   0  0  0  0  0  0  0  0  0  0  0  0
   27.2101  -20.7250  -15.7584 O   0  0  0  0  0  0  0  0  0  0  0  0
   27.9146  -20.4366  -13.5190 C   0  0  0  0  0  0  0  0  0  0  0  0
   26.5833  -20.2865  -12.8137 C   0  0  2  0  0  0  0  0  0  0  0  0
   26.0075  -18.9867  -12.9521 N   0  0  0  0  0  0  0  0  0  0  0  0
   26.8526  -20.6177  -11.3608 C   0  0  0  0  0  0  0  0  0  0  0  0
   27.2589  -21.7707  -11.0682 O   0  0  0  0  0  0  0  0  0  0  0  0
   26.6616  -19.6779  -10.3413 N   0  0  0  0  0  0  0  0  0  0  0  0
   26.5695  -20.0618   -8.9267 C   0  0  1  0  0  0  0  0  0  0  0  0
   27.2738  -19.0462   -8.0887 C   0  0  0  0  0  0  0  0  0  0  0  0
   27.7218  -19.4402   -6.7683 C   0  0  0  0  0  0  0  0  0  0  0  0
   28.5852  -20.5268   -6.6778 C   0  0  0  0  0  0  0  0  0  0  0  0
   29.0171  -20.9098   -5.4294 C   0  0  0  0  0  0  0  0  0  0  0  0
   28.6163  -20.2475   -4.2886 C   0  0  0  0  0  0  0  0  0  0  0  0
   27.7482  -19.1605   -4.4212 C   0  0  0  0  0  0  0  0  0  0  0  0
   27.3027  -18.7586   -5.6564 C   0  0  0  0  0  0  0  0  0  0  0  0
   25.1643  -20.2323   -8.5319 C   0  0  0  0  0  0  0  0  0  0  0  0
   24.2175  -19.4941   -8.9449 O   0  0  0  0  0  0  0  0  0  0  0  0
   24.8063  -21.2935   -7.6284 N   0  0  0  0  0  0  0  0  0  0  0  0
   23.4126  -21.4144   -7.2154 C   0  0  0  0  0  0  0  0  0  0  0  0
   23.3057  -22.5398   -6.2639 C   0  0  0  0  0  0  0  0  0  0  0  0
   22.1142  -22.8799   -5.6401 O   0  0  0  0  0  0  0  0  0  0  0  0
   24.3179  -23.2289   -5.9936 O   0  0  0  0  0  0  0  0  0  0  0  0
  2  1  1  0
  2  3  2  0
  4  5  1  0
  4  2  1  0
  5  6  1  1
  7  5  1  0
  8  7  2  0
  9  7  1  0
 10  9  1  0
 10 11  1  1
 11 12  1  0
 12 13  2  0
 13 14  1  0
 15 14  2  0
 16 15  1  0
 17 12  1  0
 17 16  2  0
 18 20  1  0
 18 10  1  0
 19 18  2  0
 21 20  1  0
 22 23  1  0
 22 21  1  0
 24 22  2  0
M  END
$$$$
