NFG.pdb
     RDKit          3D

 24 24  0  0  1  0  0  0  0  0999 V2000
   26.5025  -24.3525  -18.0942 N   0  0  0  0  0  0  0  0  0  0  0  0
   26.5272  -23.1285  -17.4073 C   0  0  0  0  0  0  0  0  0  0  0  0
   27.4069  -22.2703  -17.6533 O   0  0  0  0  0  0  0  0  0  0  0  0
   25.4997  -22.8568  -16.3835 C   0  0  0  0  0  0  0  0  0  0  0  0
   25.8171  -23.5226  -15.0611 C   0  0  2  0  0  0  0  0  0  0  0  0
   25.5637  -24.9282  -15.0545 N   0  0  0  0  0  0  0  0  0  0  0  0
   24.9704  -22.8054  -14.0306 C   0  0  0  0  0  0  0  0  0  0  0  0
   23.9555  -23.3871  -13.5705 O   0  0  0  0  0  0  0  0  0  0  0  0
   25.2875  -21.5188  -13.5800 N   0  0  0  0  0  0  0  0  0  0  0  0
   24.5087  -20.8377  -12.5377 C   0  0  1  0  0  0  0  0  0  0  0  0
   25.3867  -19.8726  -11.8114 C   0  0  0  0  0  0  0  0  0  0  0  0
   26.3007  -20.3946  -10.8155 C   0  0  0  0  0  0  0  0  0  0  0  0
   27.5275  -20.8787  -11.2569 C   0  0  0  0  0  0  0  0  0  0  0  0
   28.4032  -21.3766  -10.3205 C   0  0  0  0  0  0  0  0  0  0  0  0
   28.0913  -21.4033   -8.9778 C   0  0  0  0  0  0  0  0  0  0  0  0
   26.8486  -20.9078   -8.5740 C   0  0  0  0  0  0  0  0  0  0  0  0
   25.9569  -20.4054   -9.4896 C   0  0  0  0  0  0  0  0  0  0  0  0
   23.3285  -20.1861  -13.1224 C   0  0  0  0  0  0  0  0  0  0  0  0
   23.3788  -19.3624  -14.0872 O   0  0  0  0  0  0  0  0  0  0  0  0
   22.0225  -20.4820  -12.5958 N   0  0  0  0  0  0  0  0  0  0  0  0
   20.8599  -19.8849  -13.2437 C   0  0  0  0  0  0  0  0  0  0  0  0
   19.6486  -20.3211  -12.5186 C   0  0  0  0  0  0  0  0  0  0  0  0
   18.3931  -19.7892  -12.7741 O   0  0  0  0  0  0  0  0  0  0  0  0
   19.7336  -21.2052  -11.6334 O   0  0  0  0  0  0  0  0  0  0  0  0
  2  1  1  0
  2  3  2  0
  4  5  1  0
  4  2  1  0
  5  6  1  6
  7  5  1  0
  8  7  2  0
  9  7  1  0
 10  9  1  0
 10 11  1  6
 11 12  1  0
 12 13  2  0
 13 14  1  0
 15 14  2  0
 16 15  1  0
 17 12  1  0
 17 16  2  0
 18 20  1  0
 18 10  1  0
 19 18  2  0
 21 20  1  0
 22 23  1  0
 22 21  1  0
 24 22  2  0
M  END
$$$$
