NFG.pdb
     RDKit          3D

 24 24  0  0  1  0  0  0  0  0999 V2000
   17.1791   -3.8594  -17.2464 N   0  0  0  0  0  0  0  0  0  0  0  0
   18.0522   -4.3991  -16.2888 C   0  0  0  0  0  0  0  0  0  0  0  0
   18.1925   -3.8565  -15.1677 O   0  0  0  0  0  0  0  0  0  0  0  0
   18.8112   -5.6221  -16.6148 C   0  0  0  0  0  0  0  0  0  0  0  0
   20.3033   -5.4357  -16.4379 C   0  0  2  0  0  0  0  0  0  0  0  0
   20.9131   -4.6842  -17.4884 N   0  0  0  0  0  0  0  0  0  0  0  0
   20.8810   -6.8329  -16.3532 C   0  0  0  0  0  0  0  0  0  0  0  0
   21.1683   -7.4346  -17.4189 O   0  0  0  0  0  0  0  0  0  0  0  0
   21.1018   -7.4678  -15.1256 N   0  0  0  0  0  0  0  0  0  0  0  0
   21.6497   -8.8272  -15.0319 C   0  0  1  0  0  0  0  0  0  0  0  0
   22.8458   -8.8209  -14.1380 C   0  0  0  0  0  0  0  0  0  0  0  0
   24.1165   -9.2428  -14.6921 C   0  0  0  0  0  0  0  0  0  0  0  0
   24.6569  -10.4378  -14.2294 C   0  0  0  0  0  0  0  0  0  0  0  0
   25.8627  -10.8483  -14.7483 C   0  0  0  0  0  0  0  0  0  0  0  0
   26.5315  -10.1094  -15.7009 C   0  0  0  0  0  0  0  0  0  0  0  0
   25.9557   -8.9143  -16.1403 C   0  0  0  0  0  0  0  0  0  0  0  0
   24.7528   -8.4828  -15.6376 C   0  0  0  0  0  0  0  0  0  0  0  0
   20.6166   -9.7663  -14.5736 C   0  0  0  0  0  0  0  0  0  0  0  0
   19.8019   -9.5194  -13.6317 O   0  0  0  0  0  0  0  0  0  0  0  0
   20.4913  -11.0490  -15.2137 N   0  0  0  0  0  0  0  0  0  0  0  0
   19.5463  -12.0127  -14.6605 C   0  0  0  0  0  0  0  0  0  0  0  0
   18.4510  -12.2010  -15.6342 C   0  0  0  0  0  0  0  0  0  0  0  0
   17.6278  -13.3176  -15.6256 O   0  0  0  0  0  0  0  0  0  0  0  0
   18.2378  -11.3313  -16.5121 O   0  0  0  0  0  0  0  0  0  0  0  0
  2  1  1  0
  2  3  2  0
  4  5  1  0
  4  2  1  0
  5  6  1  6
  7  5  1  0
  8  7  2  0
  9  7  1  0
 10  9  1  0
 10 11  1  1
 11 12  1  0
 12 13  2  0
 13 14  1  0
 15 14  2  0
 16 15  1  0
 17 12  1  0
 17 16  2  0
 18 20  1  0
 18 10  1  0
 19 18  2  0
 21 20  1  0
 22 23  1  0
 22 21  1  0
 24 22  2  0
M  END
$$$$
