NFG.pdb
     RDKit          3D

 24 24  0  0  1  0  0  0  0  0999 V2000
   29.3745  -17.9853  -15.6571 N   0  0  0  0  0  0  0  0  0  0  0  0
   28.0065  -18.0646  -15.9620 C   0  0  0  0  0  0  0  0  0  0  0  0
   27.5000  -17.3302  -16.8425 O   0  0  0  0  0  0  0  0  0  0  0  0
   27.1608  -19.0283  -15.2314 C   0  0  0  0  0  0  0  0  0  0  0  0
   27.9451  -19.8158  -14.2031 C   0  0  2  0  0  0  0  0  0  0  0  0
   28.9446  -20.6620  -14.7732 N   0  0  0  0  0  0  0  0  0  0  0  0
   26.9169  -20.6186  -13.4341 C   0  0  0  0  0  0  0  0  0  0  0  0
   26.6990  -21.8085  -13.7760 O   0  0  0  0  0  0  0  0  0  0  0  0
   26.2070  -20.0725  -12.3585 N   0  0  0  0  0  0  0  0  0  0  0  0
   25.2274  -20.8498  -11.5885 C   0  0  1  0  0  0  0  0  0  0  0  0
   25.2774  -20.4332  -10.1555 C   0  0  0  0  0  0  0  0  0  0  0  0
   26.5443  -20.5288   -9.4587 C   0  0  0  0  0  0  0  0  0  0  0  0
   26.7005  -19.7780   -8.2985 C   0  0  0  0  0  0  0  0  0  0  0  0
   27.8988  -19.8609   -7.6287 C   0  0  0  0  0  0  0  0  0  0  0  0
   28.9278  -20.6601   -8.0794 C   0  0  0  0  0  0  0  0  0  0  0  0
   28.7321  -21.3991   -9.2492 C   0  0  0  0  0  0  0  0  0  0  0  0
   27.5448  -21.3335   -9.9361 C   0  0  0  0  0  0  0  0  0  0  0  0
   23.8846  -20.6991  -12.1661 C   0  0  0  0  0  0  0  0  0  0  0  0
   23.4135  -19.5976  -12.5864 O   0  0  0  0  0  0  0  0  0  0  0  0
   23.0297  -21.8508  -12.2809 N   0  0  0  0  0  0  0  0  0  0  0  0
   21.7661  -21.7102  -12.9959 C   0  0  0  0  0  0  0  0  0  0  0  0
   20.7568  -21.1797  -12.0560 C   0  0  0  0  0  0  0  0  0  0  0  0
   19.4419  -20.9412  -12.4284 O   0  0  0  0  0  0  0  0  0  0  0  0
   21.0775  -20.9276  -10.8703 O   0  0  0  0  0  0  0  0  0  0  0  0
  2  1  1  0
  2  3  2  0
  4  5  1  0
  4  2  1  0
  5  6  1  6
  7  5  1  0
  8  7  2  0
  9  7  1  0
 10  9  1  0
 10 11  1  1
 11 12  1  0
 12 13  2  0
 13 14  1  0
 15 14  2  0
 16 15  1  0
 17 12  1  0
 17 16  2  0
 18 20  1  0
 18 10  1  0
 19 18  2  0
 21 20  1  0
 22 23  1  0
 22 21  1  0
 24 22  2  0
M  END
$$$$
