NFG.pdb
     RDKit          3D

 24 24  0  0  1  0  0  0  0  0999 V2000
   27.3161  -20.7834  -19.5661 N   0  0  0  0  0  0  0  0  0  0  0  0
   27.0837  -20.1344  -18.3432 C   0  0  0  0  0  0  0  0  0  0  0  0
   27.4076  -18.9346  -18.1799 O   0  0  0  0  0  0  0  0  0  0  0  0
   26.4492  -20.8822  -17.2405 C   0  0  0  0  0  0  0  0  0  0  0  0
   27.4071  -21.1411  -16.0968 C   0  0  2  0  0  0  0  0  0  0  0  0
   28.3255  -22.2050  -16.3513 N   0  0  0  0  0  0  0  0  0  0  0  0
   26.5354  -21.4414  -14.8956 C   0  0  0  0  0  0  0  0  0  0  0  0
   26.2045  -22.6331  -14.6708 O   0  0  0  0  0  0  0  0  0  0  0  0
   26.0914  -20.4316  -14.0341 N   0  0  0  0  0  0  0  0  0  0  0  0
   25.3535  -20.7222  -12.7980 C   0  0  1  0  0  0  0  0  0  0  0  0
   26.0441  -20.0758  -11.6427 C   0  0  0  0  0  0  0  0  0  0  0  0
   27.3807  -20.5233  -11.3067 C   0  0  0  0  0  0  0  0  0  0  0  0
   28.3976  -20.2581  -12.2176 C   0  0  0  0  0  0  0  0  0  0  0  0
   29.6704  -20.6781  -11.9092 C   0  0  0  0  0  0  0  0  0  0  0  0
   29.9496  -21.3447  -10.7351 C   0  0  0  0  0  0  0  0  0  0  0  0
   28.9006  -21.5922   -9.8456 C   0  0  0  0  0  0  0  0  0  0  0  0
   27.6211  -21.1830  -10.1305 C   0  0  0  0  0  0  0  0  0  0  0  0
   23.9540  -20.2916  -12.9226 C   0  0  0  0  0  0  0  0  0  0  0  0
   23.5970  -19.0875  -13.1092 O   0  0  0  0  0  0  0  0  0  0  0  0
   22.9019  -21.2695  -12.8377 N   0  0  0  0  0  0  0  0  0  0  0  0
   21.5207  -20.8174  -12.9634 C   0  0  0  0  0  0  0  0  0  0  0  0
   20.6329  -21.9894  -12.8169 C   0  0  0  0  0  0  0  0  0  0  0  0
   20.8955  -23.2064  -13.4289 O   0  0  0  0  0  0  0  0  0  0  0  0
   19.5957  -21.9051  -12.1173 O   0  0  0  0  0  0  0  0  0  0  0  0
  2  1  1  0
  2  3  2  0
  4  5  1  0
  4  2  1  0
  5  6  1  6
  7  5  1  0
  8  7  2  0
  9  7  1  0
 10  9  1  0
 10 11  1  1
 11 12  1  0
 12 13  2  0
 13 14  1  0
 15 14  2  0
 16 15  1  0
 17 12  1  0
 17 16  2  0
 18 20  1  0
 18 10  1  0
 19 18  2  0
 21 20  1  0
 22 23  1  0
 22 21  1  0
 24 22  2  0
M  END
$$$$
