WGL.pdb
     RDKit          3D

 27 28  0  0  1  0  0  0  0  0999 V2000
    8.0358  -15.5709   25.2159 N   0  0  0  0  0  0  0  0  0  0  0  0
    7.6784  -16.6135   24.2848 C   0  0  1  0  0  0  0  0  0  0  0  0
    7.0011  -16.0092   23.0743 C   0  0  0  0  0  0  0  0  0  0  0  0
    7.1602  -14.5341   23.1072 C   0  0  0  0  0  0  0  0  0  0  0  0
    7.6268  -13.6800   22.1524 C   0  0  0  0  0  0  0  0  0  0  0  0
    7.5887  -12.4304   22.6336 N   0  0  0  0  0  0  0  0  0  0  0  0
    7.1052  -12.4407   23.8905 C   0  0  0  0  0  0  0  0  0  0  0  0
    6.8588  -11.4767   24.8261 C   0  0  0  0  0  0  0  0  0  0  0  0
    6.3448  -11.8281   26.0568 C   0  0  0  0  0  0  0  0  0  0  0  0
    6.0667  -13.1330   26.3825 C   0  0  0  0  0  0  0  0  0  0  0  0
    6.3130  -14.0984   25.4468 C   0  0  0  0  0  0  0  0  0  0  0  0
    6.8313  -13.7603   24.2008 C   0  0  0  0  0  0  0  0  0  0  0  0
    8.8978  -17.3474   23.8547 C   0  0  0  0  0  0  0  0  0  0  0  0
    8.7315  -18.5421   23.4554 O   0  0  0  0  0  0  0  0  0  0  0  0
   10.1532  -16.7078   23.9051 N   0  0  0  0  0  0  0  0  0  0  0  0
   11.3487  -17.4965   23.9860 C   0  0  0  0  0  0  0  0  0  0  0  0
   11.7356  -17.6295   25.4138 C   0  0  0  0  0  0  0  0  0  0  0  0
   12.8988  -18.0037   25.6910 O   0  0  0  0  0  0  0  0  0  0  0  0
   10.7208  -14.3070   27.7957 C   0  0  0  0  0  0  0  0  0  0  0  0
    9.6467  -15.3959   27.9403 C   0  0  2  0  0  0  0  0  0  0  0  0
    8.5011  -14.7681   28.6653 C   0  0  0  0  0  0  0  0  0  0  0  0
   10.3047  -16.5289   28.6479 C   0  0  0  0  0  0  0  0  0  0  0  0
   11.3034  -17.3006   27.8180 C   0  0  2  0  0  0  0  0  0  0  0  0
   10.8229  -17.3442   26.4719 N   0  0  0  0  0  0  0  0  0  0  0  0
   11.6571  -18.6029   28.3706 C   0  0  0  0  0  0  0  0  0  0  0  0
   12.2464  -18.6904   29.4675 O   0  0  0  0  0  0  0  0  0  0  0  0
   11.3439  -19.7588   27.6851 O   0  0  0  0  0  0  0  0  0  0  0  0
  2  1  1  1
  3  2  1  0
  3  4  1  0
  4  5  2  0
  5  6  1  0
  7  8  2  0
  7  6  1  0
  9  8  1  0
 10  9  2  0
 11 10  1  0
 11 12  2  0
 12  4  1  0
 12  7  1  0
 13  2  1  0
 13 15  1  0
 14 13  2  0
 16 15  1  0
 17 16  1  0
 18 17  2  0
 20 21  1  1
 20 22  1  0
 20 19  1  0
 23 24  1  0
 23 22  1  1
 24 17  1  0
 25 23  1  0
 26 25  2  0
 27 25  1  0
M  END
$$$$
