WGL.pdb
     RDKit          3D

 27 28  0  0  1  0  0  0  0  0999 V2000
    9.4569  -15.8870   22.4445 N   0  0  0  0  0  0  0  0  0  0  0  0
    8.7305  -15.8690   23.6909 C   0  0  1  0  0  0  0  0  0  0  0  0
    7.2526  -15.6911   23.4200 C   0  0  0  0  0  0  0  0  0  0  0  0
    6.9961  -14.2937   22.9914 C   0  0  0  0  0  0  0  0  0  0  0  0
    6.8785  -13.7671   21.7393 C   0  0  0  0  0  0  0  0  0  0  0  0
    6.6482  -12.4515   21.8430 N   0  0  0  0  0  0  0  0  0  0  0  0
    6.6109  -12.0964   23.1415 C   0  0  0  0  0  0  0  0  0  0  0  0
    6.4153  -10.9178   23.8032 C   0  0  0  0  0  0  0  0  0  0  0  0
    6.4372  -10.8913   25.1820 C   0  0  0  0  0  0  0  0  0  0  0  0
    6.6520  -12.0247   25.9273 C   0  0  0  0  0  0  0  0  0  0  0  0
    6.8479  -13.2047   25.2659 C   0  0  0  0  0  0  0  0  0  0  0  0
    6.8287  -13.2481   23.8755 C   0  0  0  0  0  0  0  0  0  0  0  0
    8.9494  -17.1446   24.4226 C   0  0  0  0  0  0  0  0  0  0  0  0
    8.1805  -17.3747   25.4076 O   0  0  0  0  0  0  0  0  0  0  0  0
    9.9710  -18.0227   24.0069 N   0  0  0  0  0  0  0  0  0  0  0  0
   10.3684  -19.1042   24.8615 C   0  0  0  0  0  0  0  0  0  0  0  0
   11.1895  -18.5569   25.9716 C   0  0  0  0  0  0  0  0  0  0  0  0
   12.4219  -18.4138   25.7964 O   0  0  0  0  0  0  0  0  0  0  0  0
   11.3984  -14.8468   27.4077 C   0  0  0  0  0  0  0  0  0  0  0  0
   10.2200  -15.5899   28.0552 C   0  0  2  0  0  0  0  0  0  0  0  0
    9.3710  -14.5498   28.7105 C   0  0  0  0  0  0  0  0  0  0  0  0
   10.8241  -16.5923   28.9759 C   0  0  0  0  0  0  0  0  0  0  0  0
   11.4708  -17.7733   28.2915 C   0  0  2  0  0  0  0  0  0  0  0  0
   10.6153  -18.1919   27.2250 N   0  0  0  0  0  0  0  0  0  0  0  0
   11.8658  -18.8446   29.1986 C   0  0  0  0  0  0  0  0  0  0  0  0
   12.8256  -18.6937   29.9823 O   0  0  0  0  0  0  0  0  0  0  0  0
   11.1811  -20.0425   29.2018 O   0  0  0  0  0  0  0  0  0  0  0  0
  2  1  1  6
  3  2  1  0
  3  4  1  0
  4  5  2  0
  5  6  1  0
  7  8  2  0
  7  6  1  0
  9  8  1  0
 10  9  2  0
 11 10  1  0
 11 12  2  0
 12  4  1  0
 12  7  1  0
 13  2  1  0
 13 15  1  0
 14 13  2  0
 16 15  1  0
 17 16  1  0
 18 17  2  0
 20 21  1  1
 20 22  1  0
 20 19  1  0
 23 24  1  0
 23 22  1  1
 24 17  1  0
 25 23  1  0
 26 25  2  0
 27 25  1  0
M  END
$$$$
