WGL.pdb
     RDKit          3D

 27 28  0  0  1  0  0  0  0  0999 V2000
    7.7155  -17.6673   23.3171 N   0  0  0  0  0  0  0  0  0  0  0  0
    8.1546  -16.7452   22.2981 C   0  0  1  0  0  0  0  0  0  0  0  0
    7.3003  -15.4969   22.3342 C   0  0  0  0  0  0  0  0  0  0  0  0
    6.9847  -15.1578   23.7440 C   0  0  0  0  0  0  0  0  0  0  0  0
    6.6562  -15.9688   24.7896 C   0  0  0  0  0  0  0  0  0  0  0  0
    6.4553  -15.2129   25.8771 N   0  0  0  0  0  0  0  0  0  0  0  0
    6.6448  -13.9151   25.5714 C   0  0  0  0  0  0  0  0  0  0  0  0
    6.5744  -12.7482   26.2775 C   0  0  0  0  0  0  0  0  0  0  0  0
    6.8348  -11.5478   25.6502 C   0  0  0  0  0  0  0  0  0  0  0  0
    7.1680  -11.4806   24.3195 C   0  0  0  0  0  0  0  0  0  0  0  0
    7.2387  -12.6479   23.6121 C   0  0  0  0  0  0  0  0  0  0  0  0
    6.9789  -13.8669   24.2302 C   0  0  0  0  0  0  0  0  0  0  0  0
    9.5771  -16.3780   22.5270 C   0  0  0  0  0  0  0  0  0  0  0  0
   10.0968  -15.5696   21.6959 O   0  0  0  0  0  0  0  0  0  0  0  0
   10.2725  -16.9249   23.6247 N   0  0  0  0  0  0  0  0  0  0  0  0
   11.6292  -16.5308   23.8729 C   0  0  0  0  0  0  0  0  0  0  0  0
   11.8182  -16.3708   25.3375 C   0  0  0  0  0  0  0  0  0  0  0  0
   12.8961  -15.8894   25.7574 O   0  0  0  0  0  0  0  0  0  0  0  0
   10.0173  -14.1193   27.8513 C   0  0  0  0  0  0  0  0  0  0  0  0
    9.1694  -15.4004   27.8630 C   0  0  2  0  0  0  0  0  0  0  0  0
    7.9092  -15.0685   28.5937 C   0  0  0  0  0  0  0  0  0  0  0  0
   10.0174  -16.4470   28.4977 C   0  0  0  0  0  0  0  0  0  0  0  0
   11.1649  -16.9360   27.6459 C   0  0  2  0  0  0  0  0  0  0  0  0
   10.8106  -16.7489   26.2733 N   0  0  0  0  0  0  0  0  0  0  0  0
   11.6150  -18.2846   27.9702 C   0  0  0  0  0  0  0  0  0  0  0  0
   11.5055  -19.2095   27.1391 O   0  0  0  0  0  0  0  0  0  0  0  0
   12.1694  -18.5560   29.2044 O   0  0  0  0  0  0  0  0  0  0  0  0
  2  1  1  1
  3  2  1  0
  3  4  1  0
  4  5  2  0
  5  6  1  0
  7  8  2  0
  7  6  1  0
  9  8  1  0
 10  9  2  0
 11 10  1  0
 11 12  2  0
 12  4  1  0
 12  7  1  0
 13  2  1  0
 13 15  1  0
 14 13  2  0
 16 15  1  0
 17 16  1  0
 18 17  2  0
 20 21  1  1
 20 22  1  0
 20 19  1  0
 23 24  1  0
 23 22  1  1
 24 17  1  0
 25 23  1  0
 26 25  2  0
 27 25  1  0
M  END
$$$$
