WGL.pdb
     RDKit          3D

 27 28  0  0  1  0  0  0  0  0999 V2000
    7.8512  -16.9833   23.9238 N   0  0  0  0  0  0  0  0  0  0  0  0
    8.4645  -15.8834   23.2198 C   0  0  1  0  0  0  0  0  0  0  0  0
    8.6772  -14.7233   24.1676 C   0  0  0  0  0  0  0  0  0  0  0  0
    7.4250  -14.4690   24.9221 C   0  0  0  0  0  0  0  0  0  0  0  0
    6.5391  -15.3462   25.4741 C   0  0  0  0  0  0  0  0  0  0  0  0
    5.5522  -14.6544   26.0587 N   0  0  0  0  0  0  0  0  0  0  0  0
    5.7677  -13.3341   25.9042 C   0  0  0  0  0  0  0  0  0  0  0  0
    5.0994  -12.2067   26.2885 C   0  0  0  0  0  0  0  0  0  0  0  0
    5.6020  -10.9644   25.9623 C   0  0  0  0  0  0  0  0  0  0  0  0
    6.7689  -10.8158   25.2535 C   0  0  0  0  0  0  0  0  0  0  0  0
    7.4384  -11.9435   24.8685 C   0  0  0  0  0  0  0  0  0  0  0  0
    6.9446  -13.2039   25.1897 C   0  0  0  0  0  0  0  0  0  0  0  0
    9.7734  -16.3094   22.6576 C   0  0  0  0  0  0  0  0  0  0  0  0
   10.2307  -15.6186   21.6943 O   0  0  0  0  0  0  0  0  0  0  0  0
   10.4358  -17.4297   23.1995 N   0  0  0  0  0  0  0  0  0  0  0  0
   11.8644  -17.4154   23.3288 C   0  0  0  0  0  0  0  0  0  0  0  0
   12.2110  -17.2661   24.7653 C   0  0  0  0  0  0  0  0  0  0  0  0
   13.4160  -17.3232   25.1041 O   0  0  0  0  0  0  0  0  0  0  0  0
   11.9882  -14.3362   27.7953 C   0  0  0  0  0  0  0  0  0  0  0  0
   10.5766  -14.8888   27.5457 C   0  0  2  0  0  0  0  0  0  0  0  0
    9.6401  -14.0318   28.3336 C   0  0  0  0  0  0  0  0  0  0  0  0
   10.6206  -16.3218   27.9481 C   0  0  0  0  0  0  0  0  0  0  0  0
   11.5706  -17.1774   27.1438 C   0  0  2  0  0  0  0  0  0  0  0  0
   11.2138  -17.0608   25.7641 N   0  0  0  0  0  0  0  0  0  0  0  0
   11.6832  -18.5513   27.6197 C   0  0  0  0  0  0  0  0  0  0  0  0
   11.1275  -19.4853   27.0057 O   0  0  0  0  0  0  0  0  0  0  0  0
   12.4079  -18.8367   28.7587 O   0  0  0  0  0  0  0  0  0  0  0  0
  2  1  1  1
  3  2  1  0
  3  4  1  0
  4  5  2  0
  5  6  1  0
  7  8  2  0
  7  6  1  0
  9  8  1  0
 10  9  2  0
 11 10  1  0
 11 12  2  0
 12  4  1  0
 12  7  1  0
 13  2  1  0
 13 15  1  0
 14 13  2  0
 16 15  1  0
 17 16  1  0
 18 17  2  0
 20 21  1  1
 20 22  1  0
 20 19  1  0
 23 24  1  0
 23 22  1  1
 24 17  1  0
 25 23  1  0
 26 25  2  0
 27 25  1  0
M  END
$$$$
