WGL.pdb
     RDKit          3D

 27 28  0  0  1  0  0  0  0  0999 V2000
    7.1597  -17.4079   22.6787 N   0  0  0  0  0  0  0  0  0  0  0  0
    8.0433  -16.4289   23.2637 C   0  0  1  0  0  0  0  0  0  0  0  0
    7.9753  -16.5143   24.7728 C   0  0  0  0  0  0  0  0  0  0  0  0
    6.9670  -15.5481   25.2748 C   0  0  0  0  0  0  0  0  0  0  0  0
    5.8114  -15.7645   25.9652 C   0  0  0  0  0  0  0  0  0  0  0  0
    5.2223  -14.5853   26.2035 N   0  0  0  0  0  0  0  0  0  0  0  0
    5.9666  -13.5908   25.6834 C   0  0  0  0  0  0  0  0  0  0  0  0
    5.8435  -12.2314   25.6357 C   0  0  0  0  0  0  0  0  0  0  0  0
    6.8107  -11.4748   25.0077 C   0  0  0  0  0  0  0  0  0  0  0  0
    7.9117  -12.0466   24.4185 C   0  0  0  0  0  0  0  0  0  0  0  0
    8.0357  -13.4069   24.4658 C   0  0  0  0  0  0  0  0  0  0  0  0
    7.0688  -14.1842   25.0955 C   0  0  0  0  0  0  0  0  0  0  0  0
    9.4396  -16.6763   22.8166 C   0  0  0  0  0  0  0  0  0  0  0  0
    9.6741  -17.8044   22.2812 O   0  0  0  0  0  0  0  0  0  0  0  0
   10.4192  -15.6789   22.9986 N   0  0  0  0  0  0  0  0  0  0  0  0
   11.8044  -16.0470   23.0572 C   0  0  0  0  0  0  0  0  0  0  0  0
   12.1205  -16.4934   24.4381 C   0  0  0  0  0  0  0  0  0  0  0  0
   13.1618  -17.1627   24.6321 O   0  0  0  0  0  0  0  0  0  0  0  0
    9.6614  -14.3018   29.0579 C   0  0  0  0  0  0  0  0  0  0  0  0
   10.6900  -14.6797   27.9811 C   0  0  2  0  0  0  0  0  0  0  0  0
   10.3423  -13.8847   26.7648 C   0  0  0  0  0  0  0  0  0  0  0  0
   10.5954  -16.1575   27.8250 C   0  0  0  0  0  0  0  0  0  0  0  0
   11.5573  -16.7522   26.8237 C   0  0  2  0  0  0  0  0  0  0  0  0
   11.2745  -16.1821   25.5433 N   0  0  0  0  0  0  0  0  0  0  0  0
   11.6022  -18.2098   26.8340 C   0  0  0  0  0  0  0  0  0  0  0  0
   11.0011  -18.8714   25.9628 O   0  0  0  0  0  0  0  0  0  0  0  0
   12.3122  -18.8779   27.8105 O   0  0  0  0  0  0  0  0  0  0  0  0
  2  1  1  6
  3  2  1  0
  3  4  1  0
  4  5  2  0
  5  6  1  0
  7  8  2  0
  7  6  1  0
  9  8  1  0
 10  9  2  0
 11 10  1  0
 11 12  2  0
 12  4  1  0
 12  7  1  0
 13  2  1  0
 13 15  1  0
 14 13  2  0
 16 15  1  0
 17 16  1  0
 18 17  2  0
 20 21  1  6
 20 22  1  0
 20 19  1  0
 23 24  1  0
 23 22  1  1
 24 17  1  0
 25 23  1  0
 26 25  2  0
 27 25  1  0
M  END
$$$$
