WGL.pdb
     RDKit          3D

 27 28  0  0  1  0  0  0  0  0999 V2000
    7.8788  -17.2879   23.1599 N   0  0  0  0  0  0  0  0  0  0  0  0
    8.4762  -16.3452   22.2456 C   0  0  1  0  0  0  0  0  0  0  0  0
    7.8289  -14.9879   22.4136 C   0  0  0  0  0  0  0  0  0  0  0  0
    7.1915  -14.9095   23.7514 C   0  0  0  0  0  0  0  0  0  0  0  0
    6.7455  -15.9035   24.5709 C   0  0  0  0  0  0  0  0  0  0  0  0
    6.2400  -15.3536   25.6829 N   0  0  0  0  0  0  0  0  0  0  0  0
    6.3429  -14.0126   25.6153 C   0  0  0  0  0  0  0  0  0  0  0  0
    5.9975  -12.9859   26.4472 C   0  0  0  0  0  0  0  0  0  0  0  0
    6.2471  -11.6825   26.0713 C   0  0  0  0  0  0  0  0  0  0  0  0
    6.8398  -11.3729   24.8717 C   0  0  0  0  0  0  0  0  0  0  0  0
    7.1858  -12.3997   24.0387 C   0  0  0  0  0  0  0  0  0  0  0  0
    6.9408  -13.7198   24.4031 C   0  0  0  0  0  0  0  0  0  0  0  0
    9.9344  -16.2346   22.5142 C   0  0  0  0  0  0  0  0  0  0  0  0
   10.5729  -15.3677   21.8396 O   0  0  0  0  0  0  0  0  0  0  0  0
   10.5333  -17.0710   23.4782 N   0  0  0  0  0  0  0  0  0  0  0  0
   11.9247  -16.9126   23.7890 C   0  0  0  0  0  0  0  0  0  0  0  0
   12.0787  -16.8486   25.2649 C   0  0  0  0  0  0  0  0  0  0  0  0
   13.2183  -17.0105   25.7600 O   0  0  0  0  0  0  0  0  0  0  0  0
   11.5738  -13.7640   28.1497 C   0  0  0  0  0  0  0  0  0  0  0  0
   10.2674  -14.4055   27.6576 C   0  0  2  0  0  0  0  0  0  0  0  0
    9.1601  -13.5041   28.0975 C   0  0  0  0  0  0  0  0  0  0  0  0
   10.2409  -15.7770   28.2371 C   0  0  0  0  0  0  0  0  0  0  0  0
   11.1319  -16.7775   27.5395 C   0  0  2  0  0  0  0  0  0  0  0  0
   10.9695  -16.6092   26.1289 N   0  0  0  0  0  0  0  0  0  0  0  0
   10.9633  -18.1499   28.0027 C   0  0  0  0  0  0  0  0  0  0  0  0
   10.4965  -19.0249   27.2447 O   0  0  0  0  0  0  0  0  0  0  0  0
   11.3188  -18.4994   29.2894 O   0  0  0  0  0  0  0  0  0  0  0  0
  2  1  1  1
  3  2  1  0
  3  4  1  0
  4  5  2  0
  5  6  1  0
  7  8  2  0
  7  6  1  0
  9  8  1  0
 10  9  2  0
 11 10  1  0
 11 12  2  0
 12  4  1  0
 12  7  1  0
 13  2  1  0
 13 15  1  0
 14 13  2  0
 16 15  1  0
 17 16  1  0
 18 17  2  0
 20 21  1  1
 20 22  1  0
 20 19  1  0
 23 24  1  0
 23 22  1  1
 24 17  1  0
 25 23  1  0
 26 25  2  0
 27 25  1  0
M  END
$$$$
