WGL.pdb
     RDKit          3D

 27 28  0  0  1  0  0  0  0  0999 V2000
    7.2891  -18.3475   25.4852 N   0  0  0  0  0  0  0  0  0  0  0  0
    7.1037  -17.4091   24.4051 C   0  0  1  0  0  0  0  0  0  0  0  0
    7.8532  -16.1292   24.7040 C   0  0  0  0  0  0  0  0  0  0  0  0
    7.0380  -15.2822   25.6097 C   0  0  0  0  0  0  0  0  0  0  0  0
    6.0171  -15.6221   26.4470 C   0  0  0  0  0  0  0  0  0  0  0  0
    5.5808  -14.5182   27.0679 N   0  0  0  0  0  0  0  0  0  0  0  0
    6.2941  -13.4523   26.6571 C   0  0  0  0  0  0  0  0  0  0  0  0
    6.2756  -12.1195   26.9547 C   0  0  0  0  0  0  0  0  0  0  0  0
    7.1677  -11.2653   26.3409 C   0  0  0  0  0  0  0  0  0  0  0  0
    8.0896  -11.7119   25.4262 C   0  0  0  0  0  0  0  0  0  0  0  0
    8.1088  -13.0456   25.1277 C   0  0  0  0  0  0  0  0  0  0  0  0
    7.2156  -13.9203   25.7382 C   0  0  0  0  0  0  0  0  0  0  0  0
    7.6091  -17.9935   23.1348 C   0  0  0  0  0  0  0  0  0  0  0  0
    8.6358  -18.7371   23.2196 O   0  0  0  0  0  0  0  0  0  0  0  0
    6.9488  -17.7080   21.9224 N   0  0  0  0  0  0  0  0  0  0  0  0
    7.4466  -18.2610   20.6959 C   0  0  0  0  0  0  0  0  0  0  0  0
    8.5567  -17.4056   20.2039 C   0  0  0  0  0  0  0  0  0  0  0  0
    9.2056  -17.7786   19.1990 O   0  0  0  0  0  0  0  0  0  0  0  0
    8.5314  -11.9755   20.0666 C   0  0  0  0  0  0  0  0  0  0  0  0
    8.5557  -13.4985   19.8660 C   0  0  2  0  0  0  0  0  0  0  0  0
    7.2654  -14.0188   20.4108 C   0  0  0  0  0  0  0  0  0  0  0  0
    9.7816  -13.9834   20.5585 C   0  0  0  0  0  0  0  0  0  0  0  0
   10.0572  -15.4600   20.4003 C   0  0  2  0  0  0  0  0  0  0  0  0
    8.9017  -16.1774   20.8416 N   0  0  0  0  0  0  0  0  0  0  0  0
   11.3059  -15.9016   21.0103 C   0  0  0  0  0  0  0  0  0  0  0  0
   11.2979  -16.5735   22.0622 O   0  0  0  0  0  0  0  0  0  0  0  0
   12.5162  -15.5808   20.4303 O   0  0  0  0  0  0  0  0  0  0  0  0
  2  1  1  1
  3  2  1  0
  3  4  1  0
  4  5  2  0
  5  6  1  0
  7  8  2  0
  7  6  1  0
  9  8  1  0
 10  9  2  0
 11 10  1  0
 11 12  2  0
 12  4  1  0
 12  7  1  0
 13  2  1  0
 13 15  1  0
 14 13  2  0
 16 15  1  0
 17 16  1  0
 18 17  2  0
 20 21  1  1
 20 22  1  0
 20 19  1  0
 23 24  1  0
 23 22  1  1
 24 17  1  0
 25 23  1  0
 26 25  2  0
 27 25  1  0
M  END
$$$$
