WGL.pdb
     RDKit          3D

 27 28  0  0  1  0  0  0  0  0999 V2000
    7.6048  -16.9697   23.8968 N   0  0  0  0  0  0  0  0  0  0  0  0
    8.3143  -16.1791   22.9205 C   0  0  1  0  0  0  0  0  0  0  0  0
    8.1694  -14.7092   23.2483 C   0  0  0  0  0  0  0  0  0  0  0  0
    7.0968  -14.5343   24.2589 C   0  0  0  0  0  0  0  0  0  0  0  0
    6.3002  -15.4614   24.8629 C   0  0  0  0  0  0  0  0  0  0  0  0
    5.4722  -14.8349   25.7094 N   0  0  0  0  0  0  0  0  0  0  0  0
    5.7056  -13.5090   25.6773 C   0  0  0  0  0  0  0  0  0  0  0  0
    5.1685  -12.4298   26.3194 C   0  0  0  0  0  0  0  0  0  0  0  0
    5.6471  -11.1636   26.0545 C   0  0  0  0  0  0  0  0  0  0  0  0
    6.6606  -10.9434   25.1542 C   0  0  0  0  0  0  0  0  0  0  0  0
    7.1986  -12.0229   24.5112 C   0  0  0  0  0  0  0  0  0  0  0  0
    6.7270  -13.3065   24.7672 C   0  0  0  0  0  0  0  0  0  0  0  0
    9.7550  -16.5467   22.9221 C   0  0  0  0  0  0  0  0  0  0  0  0
   10.5261  -15.8286   22.2122 O   0  0  0  0  0  0  0  0  0  0  0  0
   10.1956  -17.6449   23.6886 N   0  0  0  0  0  0  0  0  0  0  0  0
   11.5986  -17.9296   23.7794 C   0  0  0  0  0  0  0  0  0  0  0  0
   12.0948  -17.4625   25.0991 C   0  0  0  0  0  0  0  0  0  0  0  0
   13.3263  -17.4974   25.3272 O   0  0  0  0  0  0  0  0  0  0  0  0
    9.8840  -14.1094   29.1166 C   0  0  0  0  0  0  0  0  0  0  0  0
   10.9095  -14.7891   28.1965 C   0  0  2  0  0  0  0  0  0  0  0  0
   10.7116  -14.2046   26.8358 C   0  0  0  0  0  0  0  0  0  0  0  0
   10.6516  -16.2516   28.3055 C   0  0  0  0  0  0  0  0  0  0  0  0
   11.5740  -17.1211   27.4839 C   0  0  2  0  0  0  0  0  0  0  0  0
   11.2112  -16.9779   26.1083 N   0  0  0  0  0  0  0  0  0  0  0  0
   11.6543  -18.5033   27.9418 C   0  0  0  0  0  0  0  0  0  0  0  0
   12.2944  -18.7964   28.9725 O   0  0  0  0  0  0  0  0  0  0  0  0
   11.0215  -19.5079   27.2386 O   0  0  0  0  0  0  0  0  0  0  0  0
  2  1  1  1
  3  2  1  0
  3  4  1  0
  4  5  2  0
  5  6  1  0
  7  8  2  0
  7  6  1  0
  9  8  1  0
 10  9  2  0
 11 10  1  0
 11 12  2  0
 12  4  1  0
 12  7  1  0
 13  2  1  0
 13 15  1  0
 14 13  2  0
 16 15  1  0
 17 16  1  0
 18 17  2  0
 20 21  1  6
 20 22  1  0
 20 19  1  0
 23 24  1  0
 23 22  1  1
 24 17  1  0
 25 23  1  0
 26 25  2  0
 27 25  1  0
M  END
$$$$
