VME.pdb
     RDKit          3D

 25 24  0  0  1  0  0  0  0  0999 V2000
    7.6749  -12.5066   20.4067 C   0  0  0  0  0  0  0  0  0  0  0  0
    8.3874  -13.4834   19.5157 C   0  0  2  0  0  0  0  0  0  0  0  0
    7.7613  -13.4811   18.1531 C   0  0  0  0  0  0  0  0  0  0  0  0
    8.3568  -14.8507   20.1705 C   0  0  2  0  0  0  0  0  0  0  0  0
    7.0599  -15.4356   19.9997 N   0  0  0  0  0  0  0  0  0  0  0  0
    8.7428  -14.6783   21.5954 C   0  0  0  0  0  0  0  0  0  0  0  0
    9.9587  -14.5279   21.8522 O   0  0  0  0  0  0  0  0  0  0  0  0
    6.1418  -11.1345   26.2586 C   0  0  0  0  0  0  0  0  0  0  0  0
    6.4341  -12.6780   27.1679 S   0  0  0  0  0  0  0  0  0  0  0  0
    7.6307  -13.7425   26.3149 C   0  0  0  0  0  0  0  0  0  0  0  0
    7.2053  -13.8556   24.8734 C   0  0  0  0  0  0  0  0  0  0  0  0
    8.1591  -14.6886   24.0541 C   0  0  2  0  0  0  0  0  0  0  0  0
    7.8159  -14.6749   22.6704 N   0  0  0  0  0  0  0  0  0  0  0  0
    8.2547  -16.0573   24.6210 C   0  0  0  0  0  0  0  0  0  0  0  0
    7.6591  -17.0551   24.1458 O   0  0  0  0  0  0  0  0  0  0  0  0
    9.0605  -16.2867   25.7705 N   0  0  0  0  0  0  0  0  0  0  0  0
   10.0074  -17.3469   25.8976 C   0  0  1  0  0  0  0  0  0  0  0  0
   11.0726  -17.3193   24.8262 C   0  0  0  0  0  0  0  0  0  0  0  0
   12.0968  -18.3881   24.9882 C   0  0  0  0  0  0  0  0  0  0  0  0
   13.0990  -18.2592   23.9036 C   0  0  0  0  0  0  0  0  0  0  0  0
   14.3144  -18.1102   24.1790 O   0  0  0  0  0  0  0  0  0  0  0  0
   10.5920  -17.2991   27.2578 C   0  0  0  0  0  0  0  0  0  0  0  0
   10.8816  -16.2266   27.8488 O   0  0  0  0  0  0  0  0  0  0  0  0
   12.7407  -18.2974   22.5532 O   0  0  0  0  0  0  0  0  0  0  0  0
   10.8461  -18.4753   27.9430 O   0  0  0  0  0  0  0  0  0  0  0  0
  2  4  1  0
  2  1  1  1
  3  2  1  0
  4  5  1  1
  6  4  1  0
  6  7  2  0
  9  8  1  0
 10  9  1  0
 11 10  1  0
 12 11  1  1
 12 13  1  0
 13  6  1  0
 14 12  1  0
 14 16  1  0
 15 14  2  0
 17 16  1  0
 17 22  1  0
 17 18  1  6
 19 18  1  0
 20 19  1  0
 20 21  2  0
 22 23  2  0
 22 25  1  0
 24 20  1  0
M  END
$$$$
