VME.pdb
     RDKit          3D

 25 24  0  0  1  0  0  0  0  0999 V2000
    7.5470  -12.4943   20.8431 C   0  0  0  0  0  0  0  0  0  0  0  0
    8.2743  -13.4338   19.9243 C   0  0  2  0  0  0  0  0  0  0  0  0
    7.6299  -13.4235   18.5703 C   0  0  0  0  0  0  0  0  0  0  0  0
    8.2907  -14.8135   20.5532 C   0  0  2  0  0  0  0  0  0  0  0  0
    6.9969  -15.4154   20.4234 N   0  0  0  0  0  0  0  0  0  0  0  0
    8.7315  -14.6617   21.9645 C   0  0  0  0  0  0  0  0  0  0  0  0
    9.9286  -14.3572   22.1680 O   0  0  0  0  0  0  0  0  0  0  0  0
    7.5261  -11.4574   27.5045 C   0  0  0  0  0  0  0  0  0  0  0  0
    6.1860  -12.0374   26.4263 S   0  0  0  0  0  0  0  0  0  0  0  0
    6.8278  -12.8789   24.9523 C   0  0  0  0  0  0  0  0  0  0  0  0
    7.2379  -14.2720   25.3558 C   0  0  0  0  0  0  0  0  0  0  0  0
    8.2941  -14.8487   24.4463 C   0  0  2  0  0  0  0  0  0  0  0  0
    7.8767  -14.8419   23.0831 N   0  0  0  0  0  0  0  0  0  0  0  0
    8.7014  -16.1924   24.9281 C   0  0  0  0  0  0  0  0  0  0  0  0
    8.1256  -17.2584   24.5992 O   0  0  0  0  0  0  0  0  0  0  0  0
    9.8058  -16.3152   25.8162 N   0  0  0  0  0  0  0  0  0  0  0  0
   10.5584  -17.5118   26.0125 C   0  0  1  0  0  0  0  0  0  0  0  0
   11.8150  -17.5635   25.1748 C   0  0  0  0  0  0  0  0  0  0  0  0
   11.8552  -18.7277   24.2471 C   0  0  0  0  0  0  0  0  0  0  0  0
   13.1010  -18.6593   23.4466 C   0  0  0  0  0  0  0  0  0  0  0  0
   13.0489  -18.4436   22.2114 O   0  0  0  0  0  0  0  0  0  0  0  0
   10.8524  -17.6545   27.4572 C   0  0  0  0  0  0  0  0  0  0  0  0
   10.5864  -16.7666   28.3082 O   0  0  0  0  0  0  0  0  0  0  0  0
   14.3634  -18.8288   24.0220 O   0  0  0  0  0  0  0  0  0  0  0  0
   11.4502  -18.8106   27.9304 O   0  0  0  0  0  0  0  0  0  0  0  0
  2  4  1  0
  2  1  1  1
  3  2  1  0
  4  5  1  1
  6  4  1  0
  6  7  2  0
  9  8  1  0
 10  9  1  0
 11 10  1  0
 12 11  1  1
 12 13  1  0
 13  6  1  0
 14 12  1  0
 14 16  1  0
 15 14  2  0
 17 16  1  0
 17 22  1  0
 17 18  1  6
 19 18  1  0
 20 19  1  0
 20 21  2  0
 22 23  2  0
 22 25  1  0
 24 20  1  0
M  END
$$$$
