VME.pdb
     RDKit          3D

 25 24  0  0  1  0  0  0  0  0999 V2000
    9.1280  -17.3968   20.4751 C   0  0  0  0  0  0  0  0  0  0  0  0
    7.7376  -16.8291   20.4722 C   0  0  2  0  0  0  0  0  0  0  0  0
    7.0555  -17.1579   19.1779 C   0  0  0  0  0  0  0  0  0  0  0  0
    7.8211  -15.3366   20.7261 C   0  0  2  0  0  0  0  0  0  0  0  0
    8.6021  -14.7176   19.6964 N   0  0  0  0  0  0  0  0  0  0  0  0
    8.3809  -15.1405   22.0889 C   0  0  0  0  0  0  0  0  0  0  0  0
    9.6226  -15.0209   22.1936 O   0  0  0  0  0  0  0  0  0  0  0  0
    6.7280  -10.6610   26.8172 C   0  0  0  0  0  0  0  0  0  0  0  0
    7.3090  -12.3806   26.8066 S   0  0  0  0  0  0  0  0  0  0  0  0
    6.4867  -13.3584   25.5180 C   0  0  0  0  0  0  0  0  0  0  0  0
    7.0085  -14.7699   25.6035 C   0  0  0  0  0  0  0  0  0  0  0  0
    8.0991  -15.0437   24.5983 C   0  0  2  0  0  0  0  0  0  0  0  0
    7.5910  -15.0823   23.2667 N   0  0  0  0  0  0  0  0  0  0  0  0
    8.8437  -16.2708   24.9775 C   0  0  0  0  0  0  0  0  0  0  0  0
    8.3134  -17.4023   25.0980 O   0  0  0  0  0  0  0  0  0  0  0  0
   10.2422  -16.1950   25.2261 N   0  0  0  0  0  0  0  0  0  0  0  0
   11.0501  -17.2923   25.6503 C   0  0  1  0  0  0  0  0  0  0  0  0
   12.5243  -17.0710   25.4028 C   0  0  0  0  0  0  0  0  0  0  0  0
   12.8436  -16.7798   23.9777 C   0  0  0  0  0  0  0  0  0  0  0  0
   14.3050  -16.5680   23.8481 C   0  0  0  0  0  0  0  0  0  0  0  0
   14.8030  -15.4374   24.0690 O   0  0  0  0  0  0  0  0  0  0  0  0
   10.7656  -17.5656   27.0781 C   0  0  0  0  0  0  0  0  0  0  0  0
   10.1562  -16.7600   27.8284 O   0  0  0  0  0  0  0  0  0  0  0  0
   15.1749  -17.5986   23.4812 O   0  0  0  0  0  0  0  0  0  0  0  0
   11.1768  -18.7583   27.6492 O   0  0  0  0  0  0  0  0  0  0  0  0
  2  4  1  0
  2  1  1  6
  3  2  1  0
  4  5  1  6
  6  4  1  0
  6  7  2  0
  9  8  1  0
 10  9  1  0
 11 10  1  0
 12 11  1  1
 12 13  1  0
 13  6  1  0
 14 12  1  0
 14 16  1  0
 15 14  2  0
 17 16  1  0
 17 22  1  0
 17 18  1  1
 19 18  1  0
 20 19  1  0
 20 21  2  0
 22 23  2  0
 22 25  1  0
 24 20  1  0
M  END
$$$$
