VME.pdb
     RDKit          3D

 25 24  0  0  1  0  0  0  0  0999 V2000
    8.6099  -18.3147   20.5790 C   0  0  0  0  0  0  0  0  0  0  0  0
    7.7067  -17.2335   20.0585 C   0  0  2  0  0  0  0  0  0  0  0  0
    7.1537  -17.6306   18.7224 C   0  0  0  0  0  0  0  0  0  0  0  0
    8.4850  -15.9333   20.0057 C   0  0  2  0  0  0  0  0  0  0  0  0
    9.5967  -16.0753   19.1129 N   0  0  0  0  0  0  0  0  0  0  0  0
    8.8850  -15.5892   21.3952 C   0  0  0  0  0  0  0  0  0  0  0  0
   10.0033  -15.9880   21.7918 O   0  0  0  0  0  0  0  0  0  0  0  0
    6.9228  -11.5204   27.9641 C   0  0  0  0  0  0  0  0  0  0  0  0
    6.4372  -12.2288   26.3651 S   0  0  0  0  0  0  0  0  0  0  0  0
    7.6797  -13.3961   25.7436 C   0  0  0  0  0  0  0  0  0  0  0  0
    7.3356  -13.7210   24.3127 C   0  0  0  0  0  0  0  0  0  0  0  0
    8.3299  -14.6621   23.6795 C   0  0  2  0  0  0  0  0  0  0  0  0
    8.0750  -14.8401   22.2881 N   0  0  0  0  0  0  0  0  0  0  0  0
    8.3741  -15.9389   24.4356 C   0  0  0  0  0  0  0  0  0  0  0  0
    7.6757  -16.9435   24.1545 O   0  0  0  0  0  0  0  0  0  0  0  0
    9.2490  -16.0653   25.5500 N   0  0  0  0  0  0  0  0  0  0  0  0
   10.0429  -17.2178   25.8301 C   0  0  1  0  0  0  0  0  0  0  0  0
   10.9151  -17.6311   24.6674 C   0  0  0  0  0  0  0  0  0  0  0  0
   11.8702  -18.7218   25.0080 C   0  0  0  0  0  0  0  0  0  0  0  0
   11.6324  -19.8678   24.0985 C   0  0  0  0  0  0  0  0  0  0  0  0
   11.8193  -19.7455   22.8635 O   0  0  0  0  0  0  0  0  0  0  0  0
   10.8390  -16.9587   27.0520 C   0  0  0  0  0  0  0  0  0  0  0  0
   11.5403  -17.8360   27.6194 O   0  0  0  0  0  0  0  0  0  0  0  0
   11.1980  -21.1106   24.5680 O   0  0  0  0  0  0  0  0  0  0  0  0
   10.8344  -15.6985   27.6261 O   0  0  0  0  0  0  0  0  0  0  0  0
  2  4  1  0
  2  1  1  6
  3  2  1  0
  4  5  1  6
  6  4  1  0
  6  7  2  0
  9  8  1  0
 10  9  1  0
 11 10  1  0
 12 11  1  1
 12 13  1  0
 13  6  1  0
 14 12  1  0
 14 16  1  0
 15 14  2  0
 17 16  1  0
 17 22  1  0
 17 18  1  6
 19 18  1  0
 20 19  1  0
 20 21  2  0
 22 23  2  0
 22 25  1  0
 24 20  1  0
M  END
$$$$
