VME.pdb
     RDKit          3D

 25 24  0  0  1  0  0  0  0  0999 V2000
   11.4054  -15.1654   27.9467 C   0  0  0  0  0  0  0  0  0  0  0  0
    9.9871  -14.7056   28.1273 C   0  0  2  0  0  0  0  0  0  0  0  0
    9.8073  -14.1346   29.5022 C   0  0  0  0  0  0  0  0  0  0  0  0
    9.0589  -15.8730   27.8534 C   0  0  2  0  0  0  0  0  0  0  0  0
    9.4471  -16.9936   28.6576 N   0  0  0  0  0  0  0  0  0  0  0  0
    9.1014  -16.1515   26.3941 C   0  0  0  0  0  0  0  0  0  0  0  0
    9.7671  -17.1404   26.0121 O   0  0  0  0  0  0  0  0  0  0  0  0
    6.9340  -13.3416   19.2217 C   0  0  0  0  0  0  0  0  0  0  0  0
    6.8601  -13.2888   21.0346 S   0  0  0  0  0  0  0  0  0  0  0  0
    7.9827  -14.4997   21.7871 C   0  0  0  0  0  0  0  0  0  0  0  0
    7.9027  -14.3383   23.2835 C   0  0  0  0  0  0  0  0  0  0  0  0
    8.7052  -15.3817   24.0200 C   0  0  2  0  0  0  0  0  0  0  0  0
    8.4342  -15.3642   25.4196 N   0  0  0  0  0  0  0  0  0  0  0  0
   10.1473  -15.2333   23.7001 C   0  0  0  0  0  0  0  0  0  0  0  0
   10.9433  -14.5277   24.3668 O   0  0  0  0  0  0  0  0  0  0  0  0
   10.6919  -15.9178   22.5783 N   0  0  0  0  0  0  0  0  0  0  0  0
   12.0788  -15.9484   22.2432 C   0  0  1  0  0  0  0  0  0  0  0  0
   12.9531  -16.4067   23.3873 C   0  0  0  0  0  0  0  0  0  0  0  0
   14.3905  -16.5268   23.0168 C   0  0  0  0  0  0  0  0  0  0  0  0
   15.1573  -16.9620   24.2084 C   0  0  0  0  0  0  0  0  0  0  0  0
   14.6940  -17.8433   24.9724 O   0  0  0  0  0  0  0  0  0  0  0  0
   12.2566  -16.7942   21.0402 C   0  0  0  0  0  0  0  0  0  0  0  0
   11.3542  -17.5407   20.5800 O   0  0  0  0  0  0  0  0  0  0  0  0
   16.4058  -16.4201   24.5264 O   0  0  0  0  0  0  0  0  0  0  0  0
   13.4643  -16.7879   20.3627 O   0  0  0  0  0  0  0  0  0  0  0  0
  2  4  1  0
  2  1  1  1
  3  2  1  0
  4  5  1  1
  6  4  1  0
  6  7  2  0
  9  8  1  0
 10  9  1  0
 11 10  1  0
 12 11  1  6
 12 13  1  0
 13  6  1  0
 14 12  1  0
 14 16  1  0
 15 14  2  0
 17 16  1  0
 17 22  1  0
 17 18  1  1
 19 18  1  0
 20 19  1  0
 20 21  2  0
 22 23  2  0
 22 25  1  0
 24 20  1  0
M  END
$$$$
