VME.pdb
     RDKit          3D

 25 24  0  0  1  0  0  0  0  0999 V2000
    7.1678  -12.4818   20.4488 C   0  0  0  0  0  0  0  0  0  0  0  0
    7.9730  -13.3485   19.5236 C   0  0  2  0  0  0  0  0  0  0  0  0
    7.2927  -13.4407   18.1904 C   0  0  0  0  0  0  0  0  0  0  0  0
    8.1691  -14.7038   20.1745 C   0  0  2  0  0  0  0  0  0  0  0  0
    6.9538  -15.4580   20.0882 N   0  0  0  0  0  0  0  0  0  0  0  0
    8.6219  -14.4732   21.5712 C   0  0  0  0  0  0  0  0  0  0  0  0
    9.8046  -14.1007   21.7428 O   0  0  0  0  0  0  0  0  0  0  0  0
    6.3190  -11.1216   26.7825 C   0  0  0  0  0  0  0  0  0  0  0  0
    6.2918  -12.8753   27.2498 S   0  0  0  0  0  0  0  0  0  0  0  0
    7.5725  -13.8213   26.3794 C   0  0  0  0  0  0  0  0  0  0  0  0
    7.1214  -14.0091   24.9536 C   0  0  0  0  0  0  0  0  0  0  0  0
    8.2208  -14.5360   24.0654 C   0  0  2  0  0  0  0  0  0  0  0  0
    7.7937  -14.6510   22.7101 N   0  0  0  0  0  0  0  0  0  0  0  0
    8.7592  -15.8034   24.6201 C   0  0  0  0  0  0  0  0  0  0  0  0
    8.0862  -16.8562   24.7413 O   0  0  0  0  0  0  0  0  0  0  0  0
   10.1141  -15.8627   25.0491 N   0  0  0  0  0  0  0  0  0  0  0  0
   10.7698  -17.0474   25.5001 C   0  0  1  0  0  0  0  0  0  0  0  0
   12.2494  -17.0571   25.1930 C   0  0  0  0  0  0  0  0  0  0  0  0
   12.5471  -17.0122   23.7346 C   0  0  0  0  0  0  0  0  0  0  0  0
   13.9886  -16.7205   23.5490 C   0  0  0  0  0  0  0  0  0  0  0  0
   14.7028  -16.4064   24.5320 O   0  0  0  0  0  0  0  0  0  0  0  0
   10.5060  -17.2124   26.9483 C   0  0  0  0  0  0  0  0  0  0  0  0
   10.8799  -18.2156   27.6095 O   0  0  0  0  0  0  0  0  0  0  0  0
   14.6029  -16.7814   22.2950 O   0  0  0  0  0  0  0  0  0  0  0  0
    9.8154  -16.2325   27.6414 O   0  0  0  0  0  0  0  0  0  0  0  0
  2  4  1  0
  2  1  1  1
  3  2  1  0
  4  5  1  1
  6  4  1  0
  6  7  2  0
  9  8  1  0
 10  9  1  0
 11 10  1  0
 12 11  1  1
 12 13  1  0
 13  6  1  0
 14 12  1  0
 14 16  1  0
 15 14  2  0
 17 16  1  0
 17 22  1  0
 17 18  1  1
 19 18  1  0
 20 19  1  0
 20 21  2  0
 22 23  2  0
 22 25  1  0
 24 20  1  0
M  END
$$$$
