VME.pdb
     RDKit          3D

 25 24  0  0  1  0  0  0  0  0999 V2000
    7.6063  -17.2725   18.6738 C   0  0  0  0  0  0  0  0  0  0  0  0
    8.0369  -16.9347   20.0724 C   0  0  2  0  0  0  0  0  0  0  0  0
    7.2578  -17.7538   21.0576 C   0  0  0  0  0  0  0  0  0  0  0  0
    7.8656  -15.4436   20.2871 C   0  0  2  0  0  0  0  0  0  0  0  0
    8.6029  -14.7271   19.2889 N   0  0  0  0  0  0  0  0  0  0  0  0
    8.2981  -15.1341   21.6751 C   0  0  0  0  0  0  0  0  0  0  0  0
    9.5279  -15.1165   21.9084 O   0  0  0  0  0  0  0  0  0  0  0  0
    8.4064  -11.6250   28.0364 C   0  0  0  0  0  0  0  0  0  0  0  0
    7.9259  -12.0689   26.3433 S   0  0  0  0  0  0  0  0  0  0  0  0
    7.0379  -13.6506   26.2910 C   0  0  0  0  0  0  0  0  0  0  0  0
    6.6645  -13.9252   24.8568 C   0  0  0  0  0  0  0  0  0  0  0  0
    7.7793  -14.5885   24.0873 C   0  0  2  0  0  0  0  0  0  0  0  0
    7.4006  -14.8603   22.7399 N   0  0  0  0  0  0  0  0  0  0  0  0
    8.2551  -15.7909   24.8165 C   0  0  0  0  0  0  0  0  0  0  0  0
    7.5285  -16.7780   25.0882 O   0  0  0  0  0  0  0  0  0  0  0  0
    9.6090  -15.8611   25.2472 N   0  0  0  0  0  0  0  0  0  0  0  0
   10.1973  -16.9921   25.8888 C   0  0  1  0  0  0  0  0  0  0  0  0
   11.6477  -17.1945   25.5162 C   0  0  0  0  0  0  0  0  0  0  0  0
   11.8550  -17.4100   24.0573 C   0  0  0  0  0  0  0  0  0  0  0  0
   13.2631  -17.0910   23.7215 C   0  0  0  0  0  0  0  0  0  0  0  0
   13.5274  -16.3168   22.7698 O   0  0  0  0  0  0  0  0  0  0  0  0
   10.0183  -16.8522   27.3525 C   0  0  0  0  0  0  0  0  0  0  0  0
    9.5013  -15.8400   27.8925 O   0  0  0  0  0  0  0  0  0  0  0  0
   14.3369  -17.6284   24.4368 O   0  0  0  0  0  0  0  0  0  0  0  0
   10.4297  -17.8675   28.1997 O   0  0  0  0  0  0  0  0  0  0  0  0
  2  4  1  0
  2  1  1  6
  3  2  1  0
  4  5  1  6
  6  4  1  0
  6  7  2  0
  9  8  1  0
 10  9  1  0
 11 10  1  0
 12 11  1  1
 12 13  1  0
 13  6  1  0
 14 12  1  0
 14 16  1  0
 15 14  2  0
 17 16  1  0
 17 22  1  0
 17 18  1  1
 19 18  1  0
 20 19  1  0
 20 21  2  0
 22 23  2  0
 22 25  1  0
 24 20  1  0
M  END
$$$$
