VME.pdb
     RDKit          3D

 25 24  0  0  1  0  0  0  0  0999 V2000
    7.1975  -12.5590   20.3767 C   0  0  0  0  0  0  0  0  0  0  0  0
    8.1712  -13.3161   19.5199 C   0  0  2  0  0  0  0  0  0  0  0  0
    7.6315  -13.4449   18.1268 C   0  0  0  0  0  0  0  0  0  0  0  0
    8.4459  -14.6596   20.1667 C   0  0  2  0  0  0  0  0  0  0  0  0
    7.3460  -15.5445   19.9208 N   0  0  0  0  0  0  0  0  0  0  0  0
    8.6998  -14.4221   21.6118 C   0  0  0  0  0  0  0  0  0  0  0  0
    9.7709  -13.8556   21.9264 O   0  0  0  0  0  0  0  0  0  0  0  0
    7.4061  -11.6139   27.6166 C   0  0  0  0  0  0  0  0  0  0  0  0
    6.2404  -12.8109   26.9073 S   0  0  0  0  0  0  0  0  0  0  0  0
    7.0882  -14.3004   26.3112 C   0  0  0  0  0  0  0  0  0  0  0  0
    6.8193  -14.4266   24.8336 C   0  0  0  0  0  0  0  0  0  0  0  0
    8.0707  -14.7133   24.0418 C   0  0  2  0  0  0  0  0  0  0  0  0
    7.8021  -14.7994   22.6443 N   0  0  0  0  0  0  0  0  0  0  0  0
    8.7506  -15.9167   24.5835 C   0  0  0  0  0  0  0  0  0  0  0  0
    8.2188  -17.0521   24.6473 O   0  0  0  0  0  0  0  0  0  0  0  0
   10.0842  -15.8119   25.0674 N   0  0  0  0  0  0  0  0  0  0  0  0
   10.8583  -16.9082   25.5526 C   0  0  1  0  0  0  0  0  0  0  0  0
   12.3299  -16.7791   25.2344 C   0  0  0  0  0  0  0  0  0  0  0  0
   12.6023  -16.5842   23.7833 C   0  0  0  0  0  0  0  0  0  0  0  0
   14.0661  -16.4634   23.5830 C   0  0  0  0  0  0  0  0  0  0  0  0
   14.8463  -16.5195   24.5645 O   0  0  0  0  0  0  0  0  0  0  0  0
   10.6191  -17.0494   27.0076 C   0  0  0  0  0  0  0  0  0  0  0  0
    9.9522  -16.2228   27.6823 O   0  0  0  0  0  0  0  0  0  0  0  0
   14.6299  -16.2852   22.3166 O   0  0  0  0  0  0  0  0  0  0  0  0
   11.1412  -18.1340   27.6922 O   0  0  0  0  0  0  0  0  0  0  0  0
  2  4  1  0
  2  1  1  1
  3  2  1  0
  4  5  1  1
  6  4  1  0
  6  7  2  0
  9  8  1  0
 10  9  1  0
 11 10  1  0
 12 11  1  1
 12 13  1  0
 13  6  1  0
 14 12  1  0
 14 16  1  0
 15 14  2  0
 17 16  1  0
 17 22  1  0
 17 18  1  1
 19 18  1  0
 20 19  1  0
 20 21  2  0
 22 23  2  0
 22 25  1  0
 24 20  1  0
M  END
$$$$
