VME.pdb
     RDKit          3D

 25 24  0  0  1  0  0  0  0  0999 V2000
    6.8706  -14.2807   19.8531 C   0  0  0  0  0  0  0  0  0  0  0  0
    7.9650  -15.1405   19.2886 C   0  0  2  0  0  0  0  0  0  0  0  0
    7.4432  -15.9324   18.1270 C   0  0  0  0  0  0  0  0  0  0  0  0
    8.5131  -16.0193   20.3959 C   0  0  2  0  0  0  0  0  0  0  0  0
    7.5360  -17.0039   20.7552 N   0  0  0  0  0  0  0  0  0  0  0  0
    8.9013  -15.1343   21.5251 C   0  0  0  0  0  0  0  0  0  0  0  0
    9.8841  -14.3775   21.3567 O   0  0  0  0  0  0  0  0  0  0  0  0
    6.5093  -11.1861   27.9043 C   0  0  0  0  0  0  0  0  0  0  0  0
    6.2407  -12.5425   26.7284 S   0  0  0  0  0  0  0  0  0  0  0  0
    7.7694  -12.9886   25.8585 C   0  0  0  0  0  0  0  0  0  0  0  0
    7.4047  -13.9116   24.7242 C   0  0  0  0  0  0  0  0  0  0  0  0
    8.6004  -14.3046   23.8930 C   0  0  2  0  0  0  0  0  0  0  0  0
    8.2242  -15.1013   22.7721 N   0  0  0  0  0  0  0  0  0  0  0  0
    9.6271  -14.9474   24.7512 C   0  0  0  0  0  0  0  0  0  0  0  0
    9.8917  -14.5789   25.9218 O   0  0  0  0  0  0  0  0  0  0  0  0
   10.3734  -16.0490   24.2482 N   0  0  0  0  0  0  0  0  0  0  0  0
   11.2008  -16.8975   25.0433 C   0  0  1  0  0  0  0  0  0  0  0  0
   10.4104  -17.8172   25.9449 C   0  0  0  0  0  0  0  0  0  0  0  0
   11.2694  -18.6866   26.7959 C   0  0  0  0  0  0  0  0  0  0  0  0
   10.4557  -19.2123   27.9179 C   0  0  0  0  0  0  0  0  0  0  0  0
    9.2131  -19.0373   27.9354 O   0  0  0  0  0  0  0  0  0  0  0  0
   12.1077  -17.6503   24.1460 C   0  0  0  0  0  0  0  0  0  0  0  0
   11.8661  -17.8496   22.9273 O   0  0  0  0  0  0  0  0  0  0  0  0
   11.0264  -19.9125   28.9845 O   0  0  0  0  0  0  0  0  0  0  0  0
   13.2899  -18.1756   24.6400 O   0  0  0  0  0  0  0  0  0  0  0  0
  2  4  1  0
  2  1  1  1
  3  2  1  0
  4  5  1  1
  6  4  1  0
  6  7  2  0
  9  8  1  0
 10  9  1  0
 11 10  1  0
 12 11  1  1
 12 13  1  0
 13  6  1  0
 14 12  1  0
 14 16  1  0
 15 14  2  0
 17 16  1  0
 17 22  1  0
 17 18  1  6
 19 18  1  0
 20 19  1  0
 20 21  2  0
 22 23  2  0
 22 25  1  0
 24 20  1  0
M  END
$$$$
