VME.pdb
     RDKit          3D

 25 24  0  0  1  0  0  0  0  0999 V2000
    9.5866  -16.2239   19.9403 C   0  0  0  0  0  0  0  0  0  0  0  0
    8.0874  -16.1861   20.0201 C   0  0  2  0  0  0  0  0  0  0  0  0
    7.4991  -16.3793   18.6544 C   0  0  0  0  0  0  0  0  0  0  0  0
    7.6671  -14.8761   20.6575 C   0  0  2  0  0  0  0  0  0  0  0  0
    8.0832  -13.7839   19.8285 N   0  0  0  0  0  0  0  0  0  0  0  0
    8.2471  -14.8324   22.0253 C   0  0  0  0  0  0  0  0  0  0  0  0
    9.4933  -14.8900   22.1284 O   0  0  0  0  0  0  0  0  0  0  0  0
    6.6788  -10.3830   26.4953 C   0  0  0  0  0  0  0  0  0  0  0  0
    7.2926  -12.0904   26.5503 S   0  0  0  0  0  0  0  0  0  0  0  0
    6.3721  -13.1708   25.4199 C   0  0  0  0  0  0  0  0  0  0  0  0
    6.9166  -14.5683   25.5683 C   0  0  0  0  0  0  0  0  0  0  0  0
    7.9683  -14.8903   24.5362 C   0  0  2  0  0  0  0  0  0  0  0  0
    7.4715  -14.7299   23.2096 N   0  0  0  0  0  0  0  0  0  0  0  0
    8.5348  -16.2387   24.7911 C   0  0  0  0  0  0  0  0  0  0  0  0
    7.8991  -17.3082   24.6238 O   0  0  0  0  0  0  0  0  0  0  0  0
    9.8746  -16.3618   25.2530 N   0  0  0  0  0  0  0  0  0  0  0  0
   10.5278  -17.6017   25.5223 C   0  0  1  0  0  0  0  0  0  0  0  0
   11.8491  -17.7420   24.8026 C   0  0  0  0  0  0  0  0  0  0  0  0
   12.8565  -16.7281   25.2206 C   0  0  0  0  0  0  0  0  0  0  0  0
   13.6527  -16.3276   24.0362 C   0  0  0  0  0  0  0  0  0  0  0  0
   14.2924  -17.1874   23.3830 O   0  0  0  0  0  0  0  0  0  0  0  0
   10.6803  -17.7478   26.9885 C   0  0  0  0  0  0  0  0  0  0  0  0
   10.3570  -16.8514   27.8102 O   0  0  0  0  0  0  0  0  0  0  0  0
   13.7241  -15.0004   23.6038 O   0  0  0  0  0  0  0  0  0  0  0  0
   11.2019  -18.9170   27.5164 O   0  0  0  0  0  0  0  0  0  0  0  0
  2  4  1  0
  2  1  1  6
  3  2  1  0
  4  5  1  6
  6  4  1  0
  6  7  2  0
  9  8  1  0
 10  9  1  0
 11 10  1  0
 12 11  1  1
 12 13  1  0
 13  6  1  0
 14 12  1  0
 14 16  1  0
 15 14  2  0
 17 16  1  0
 17 22  1  0
 17 18  1  6
 19 18  1  0
 20 19  1  0
 20 21  2  0
 22 23  2  0
 22 25  1  0
 24 20  1  0
M  END
$$$$
