VME.pdb
     RDKit          3D

 25 24  0  0  1  0  0  0  0  0999 V2000
    7.6413  -12.5670   20.1339 C   0  0  0  0  0  0  0  0  0  0  0  0
    8.4162  -13.5278   19.2783 C   0  0  2  0  0  0  0  0  0  0  0  0
    7.7473  -13.6765   17.9445 C   0  0  0  0  0  0  0  0  0  0  0  0
    8.5428  -14.8451   20.0186 C   0  0  2  0  0  0  0  0  0  0  0  0
    7.3397  -15.6057   19.8539 N   0  0  0  0  0  0  0  0  0  0  0  0
    8.8561  -14.5373   21.4385 C   0  0  0  0  0  0  0  0  0  0  0  0
   10.0174  -14.1536   21.7056 O   0  0  0  0  0  0  0  0  0  0  0  0
    6.7357  -11.8540   28.4617 C   0  0  0  0  0  0  0  0  0  0  0  0
    6.3580  -12.2576   26.7327 S   0  0  0  0  0  0  0  0  0  0  0  0
    7.5377  -13.4559   26.0507 C   0  0  0  0  0  0  0  0  0  0  0  0
    7.2090  -13.6514   24.5928 C   0  0  0  0  0  0  0  0  0  0  0  0
    8.2210  -14.5169   23.8843 C   0  0  2  0  0  0  0  0  0  0  0  0
    7.9186  -14.6539   22.4978 N   0  0  0  0  0  0  0  0  0  0  0  0
    8.3574  -15.8179   24.5861 C   0  0  0  0  0  0  0  0  0  0  0  0
    7.4300  -16.6577   24.6905 O   0  0  0  0  0  0  0  0  0  0  0  0
    9.5991  -16.1651   25.1870 N   0  0  0  0  0  0  0  0  0  0  0  0
    9.8733  -17.4171   25.8147 C   0  0  1  0  0  0  0  0  0  0  0  0
   10.7638  -18.3119   24.9843 C   0  0  0  0  0  0  0  0  0  0  0  0
   11.7840  -17.5617   24.2007 C   0  0  0  0  0  0  0  0  0  0  0  0
   12.6148  -18.5296   23.4457 C   0  0  0  0  0  0  0  0  0  0  0  0
   12.7790  -18.3937   22.2089 O   0  0  0  0  0  0  0  0  0  0  0  0
   10.4475  -17.1587   27.1555 C   0  0  0  0  0  0  0  0  0  0  0  0
   10.6761  -16.0036   27.5991 O   0  0  0  0  0  0  0  0  0  0  0  0
   13.2394  -19.6149   24.0667 O   0  0  0  0  0  0  0  0  0  0  0  0
   10.7608  -18.2188   27.9896 O   0  0  0  0  0  0  0  0  0  0  0  0
  2  4  1  0
  2  1  1  1
  3  2  1  0
  4  5  1  1
  6  4  1  0
  6  7  2  0
  9  8  1  0
 10  9  1  0
 11 10  1  0
 12 11  1  1
 12 13  1  0
 13  6  1  0
 14 12  1  0
 14 16  1  0
 15 14  2  0
 17 16  1  0
 17 22  1  0
 17 18  1  6
 19 18  1  0
 20 19  1  0
 20 21  2  0
 22 23  2  0
 22 25  1  0
 24 20  1  0
M  END
$$$$
