RQN.pdb
     RDKit          3D

 29 28  0  0  1  0  0  0  0  0999 V2000
   26.3175  -22.2345  -10.3998 N   0  0  0  0  0  0  0  0  0  0  0  0
   25.4310  -21.1560  -10.1551 C   0  0  0  0  0  0  0  0  0  0  0  0
   24.7371  -21.1647   -9.0505 N   0  0  0  0  0  0  0  0  0  0  0  0
   25.3452  -20.1365  -11.1054 N   0  0  0  0  0  0  0  0  0  0  0  0
   25.4133  -20.4558  -12.5437 C   0  0  0  0  0  0  0  0  0  0  0  0
   26.8254  -20.8318  -12.8895 C   0  0  0  0  0  0  0  0  0  0  0  0
   27.2445  -20.6611  -14.3046 C   0  0  0  0  0  0  0  0  0  0  0  0
   26.2584  -19.8793  -15.0905 C   0  0  2  0  0  0  0  0  0  0  0  0
   24.9281  -20.3862  -14.9782 N   0  0  0  0  0  0  0  0  0  0  0  0
   26.6180  -19.8243  -16.5403 C   0  0  0  0  0  0  0  0  0  0  0  0
   27.7901  -19.5383  -16.9177 O   0  0  0  0  0  0  0  0  0  0  0  0
   24.0062  -20.4652   -8.8742 N   0  0  0  0  0  0  0  0  0  0  0  0
   22.1506  -21.5162  -18.7587 C   0  0  0  0  0  0  0  0  0  0  0  0
   23.1537  -22.5093  -18.8912 O   0  0  0  0  0  0  0  0  0  0  0  0
   22.7850  -23.7120  -18.6257 C   0  0  0  0  0  0  0  0  0  0  0  0
   24.5378  -22.2137  -19.3126 C   0  0  0  0  0  0  0  0  0  0  0  0
   24.8368  -20.8028  -19.6630 C   0  0  2  0  0  0  0  0  0  0  0  0
   25.9765  -20.1198  -18.9641 N   0  0  0  0  0  0  0  0  0  0  0  0
   25.6302  -20.0972  -17.5026 C   0  0  0  0  0  0  0  0  0  0  0  0
   26.1958  -18.7613  -19.4267 O   0  0  0  0  0  0  0  0  0  0  0  0
   25.4558  -17.7748  -19.0715 N   0  0  0  0  0  0  0  0  0  0  0  0
   27.6805  -14.4866  -21.9058 C   0  0  0  0  0  0  0  0  0  0  0  0
   28.8734  -15.2099  -21.6384 O   0  0  0  0  0  0  0  0  0  0  0  0
   29.9704  -14.6248  -21.8643 C   0  0  0  0  0  0  0  0  0  0  0  0
   28.8418  -16.6161  -21.1075 C   0  0  2  0  0  0  0  0  0  0  0  0
   27.4696  -17.0152  -20.7313 N   0  0  0  0  0  0  0  0  0  0  0  0
   27.2324  -18.3366  -20.3145 C   0  0  0  0  0  0  0  0  0  0  0  0
   26.5595  -16.6980  -21.8657 O   0  0  0  0  0  0  0  0  0  0  0  0
   26.1426  -17.6648  -22.7687 O   0  0  0  0  0  0  0  0  0  0  0  0
  2  1  1  0
  2  3  2  0
  4  5  1  0
  4  2  1  0
  6  5  1  0
  7  6  1  0
  8 10  1  0
  8  7  1  0
  8  9  1  6
 10 11  2  0
 13 14  2  0
 13 12  1  0
 15 13  1  0
 16 15  1  0
 17 16  1  1
 17 19  1  0
 18 10  1  0
 18 17  1  0
 19 20  2  0
 22 21  1  0
 22 24  1  0
 23 22  2  0
 25 24  1  1
 25 27  1  0
 26 19  1  0
 26 25  1  0
 27 28  1  0
 29 27  2  0
M  END
$$$$
