RQN.pdb
     RDKit          3D

 29 28  0  0  1  0  0  0  0  0999 V2000
   25.8549  -22.3613  -12.0982 N   0  0  0  0  0  0  0  0  0  0  0  0
   26.2474  -21.0745  -11.6523 C   0  0  0  0  0  0  0  0  0  0  0  0
   26.4362  -20.8941  -10.3742 N   0  0  0  0  0  0  0  0  0  0  0  0
   26.4155  -20.0640  -12.6014 N   0  0  0  0  0  0  0  0  0  0  0  0
   26.1357  -20.3299  -14.0250 C   0  0  0  0  0  0  0  0  0  0  0  0
   27.2873  -19.8261  -14.8466 C   0  0  0  0  0  0  0  0  0  0  0  0
   27.0953  -18.5399  -15.5649 C   0  0  0  0  0  0  0  0  0  0  0  0
   25.8429  -18.5240  -16.3603 C   0  0  2  0  0  0  0  0  0  0  0  0
   25.9574  -17.7664  -17.5653 N   0  0  0  0  0  0  0  0  0  0  0  0
   24.6905  -17.9851  -15.5757 C   0  0  0  0  0  0  0  0  0  0  0  0
   24.7487  -16.8555  -15.0115 O   0  0  0  0  0  0  0  0  0  0  0  0
   26.2144  -21.6300   -9.6932 N   0  0  0  0  0  0  0  0  0  0  0  0
   20.5437  -19.1007  -18.9206 C   0  0  0  0  0  0  0  0  0  0  0  0
   20.3463  -18.0770  -17.9599 O   0  0  0  0  0  0  0  0  0  0  0  0
   20.0592  -16.9167  -18.4334 C   0  0  0  0  0  0  0  0  0  0  0  0
   20.4486  -18.2999  -16.5036 C   0  0  0  0  0  0  0  0  0  0  0  0
   21.4799  -17.5119  -15.7836 C   0  0  1  0  0  0  0  0  0  0  0  0
   22.3156  -18.2071  -14.7482 N   0  0  0  0  0  0  0  0  0  0  0  0
   23.5178  -18.7527  -15.4647 C   0  0  0  0  0  0  0  0  0  0  0  0
   21.6158  -19.2943  -14.0880 O   0  0  0  0  0  0  0  0  0  0  0  0
   21.5156  -20.4694  -14.5939 N   0  0  0  0  0  0  0  0  0  0  0  0
   21.3428  -21.0731   -8.7739 C   0  0  0  0  0  0  0  0  0  0  0  0
   20.5349  -21.2870   -9.9224 O   0  0  0  0  0  0  0  0  0  0  0  0
   20.2911  -22.4838  -10.2464 C   0  0  0  0  0  0  0  0  0  0  0  0
   19.9870  -20.1410  -10.7268 C   0  0  2  0  0  0  0  0  0  0  0  0
   20.3226  -20.2838  -12.1587 N   0  0  0  0  0  0  0  0  0  0  0  0
   20.9584  -19.2192  -12.8209 C   0  0  0  0  0  0  0  0  0  0  0  0
   19.0813  -20.6385  -12.8999 O   0  0  0  0  0  0  0  0  0  0  0  0
   18.3988  -21.8240  -12.6698 O   0  0  0  0  0  0  0  0  0  0  0  0
  2  1  1  0
  2  3  2  0
  4  5  1  0
  4  2  1  0
  6  5  1  0
  7  6  1  0
  8 10  1  0
  8  7  1  0
  8  9  1  6
 10 11  2  0
 13 14  2  0
 13 12  1  0
 15 13  1  0
 16 15  1  0
 17 16  1  1
 17 19  1  0
 18 10  1  0
 18 17  1  0
 19 20  2  0
 22 21  1  0
 22 24  1  0
 23 22  2  0
 25 24  1  1
 25 27  1  0
 26 19  1  0
 26 25  1  0
 27 28  1  0
 29 27  2  0
M  END
$$$$
