RQN.pdb
     RDKit          3D

 29 28  0  0  1  0  0  0  0  0999 V2000
   34.6883  -25.4098  -16.5077 N   0  0  0  0  0  0  0  0  0  0  0  0
   33.7071  -25.4855  -15.4878 C   0  0  0  0  0  0  0  0  0  0  0  0
   34.0962  -25.7695  -14.2755 N   0  0  0  0  0  0  0  0  0  0  0  0
   32.3736  -25.2502  -15.8287 N   0  0  0  0  0  0  0  0  0  0  0  0
   32.0087  -24.9379  -17.2233 C   0  0  0  0  0  0  0  0  0  0  0  0
   31.8951  -23.4480  -17.3716 C   0  0  0  0  0  0  0  0  0  0  0  0
   30.6263  -22.9182  -17.9345 C   0  0  0  0  0  0  0  0  0  0  0  0
   29.5039  -23.0085  -16.9683 C   0  0  2  0  0  0  0  0  0  0  0  0
   28.7666  -24.2262  -17.0825 N   0  0  0  0  0  0  0  0  0  0  0  0
   28.5495  -21.8674  -17.1135 C   0  0  0  0  0  0  0  0  0  0  0  0
   28.9373  -20.6682  -17.0172 O   0  0  0  0  0  0  0  0  0  0  0  0
   33.4198  -25.8855  -13.5116 N   0  0  0  0  0  0  0  0  0  0  0  0
   25.4347  -21.2651  -21.9758 C   0  0  0  0  0  0  0  0  0  0  0  0
   26.6619  -20.7476  -21.4900 O   0  0  0  0  0  0  0  0  0  0  0  0
   27.5176  -20.4087  -22.3877 C   0  0  0  0  0  0  0  0  0  0  0  0
   26.9637  -20.5884  -20.0531 C   0  0  0  0  0  0  0  0  0  0  0  0
   25.9252  -21.0571  -19.1021 C   0  0  2  0  0  0  0  0  0  0  0  0
   26.2309  -21.0140  -17.6329 N   0  0  0  0  0  0  0  0  0  0  0  0
   27.1923  -22.1362  -17.3629 C   0  0  0  0  0  0  0  0  0  0  0  0
   25.0528  -21.1805  -16.8011 O   0  0  0  0  0  0  0  0  0  0  0  0
   24.5723  -22.3299  -16.4932 N   0  0  0  0  0  0  0  0  0  0  0  0
   21.0273  -20.8398  -13.6805 C   0  0  0  0  0  0  0  0  0  0  0  0
   21.3860  -19.4818  -13.8918 O   0  0  0  0  0  0  0  0  0  0  0  0
   20.6958  -18.6007  -13.3051 C   0  0  0  0  0  0  0  0  0  0  0  0
   22.5395  -19.0983  -14.7765 C   0  0  2  0  0  0  0  0  0  0  0  0
   23.1378  -20.2862  -15.4205 N   0  0  0  0  0  0  0  0  0  0  0  0
   24.2812  -20.1256  -16.2222 C   0  0  0  0  0  0  0  0  0  0  0  0
   22.0833  -20.9702  -16.2181 O   0  0  0  0  0  0  0  0  0  0  0  0
   21.3778  -22.0589  -15.7272 O   0  0  0  0  0  0  0  0  0  0  0  0
  2  1  1  0
  2  3  2  0
  4  5  1  0
  4  2  1  0
  6  5  1  0
  7  6  1  0
  8 10  1  0
  8  7  1  0
  8  9  1  6
 10 11  2  0
 13 14  2  0
 13 12  1  0
 15 13  1  0
 16 15  1  0
 17 16  1  6
 17 19  1  0
 18 10  1  0
 18 17  1  0
 19 20  2  0
 22 21  1  0
 22 24  1  0
 23 22  2  0
 25 24  1  1
 25 27  1  0
 26 19  1  0
 26 25  1  0
 27 28  1  0
 29 27  2  0
M  END
$$$$
