RQN.pdb
     RDKit          3D

 29 28  0  0  1  0  0  0  0  0999 V2000
   19.9731  -24.2165   -8.6584 N   0  0  0  0  0  0  0  0  0  0  0  0
   19.4241  -23.4968   -7.5678 C   0  0  0  0  0  0  0  0  0  0  0  0
   18.7220  -24.1524   -6.6853 N   0  0  0  0  0  0  0  0  0  0  0  0
   19.6631  -22.1232   -7.4893 N   0  0  0  0  0  0  0  0  0  0  0  0
   20.2720  -21.4102   -8.6279 C   0  0  0  0  0  0  0  0  0  0  0  0
   21.6495  -20.9592   -8.2354 C   0  0  0  0  0  0  0  0  0  0  0  0
   22.3982  -20.1349   -9.2190 C   0  0  0  0  0  0  0  0  0  0  0  0
   23.2632  -20.9598  -10.0981 C   0  0  2  0  0  0  0  0  0  0  0  0
   24.5686  -21.1688   -9.5583 N   0  0  0  0  0  0  0  0  0  0  0  0
   23.4094  -20.3594  -11.4591 C   0  0  0  0  0  0  0  0  0  0  0  0
   23.4027  -19.1070  -11.6306 O   0  0  0  0  0  0  0  0  0  0  0  0
   18.2228  -23.6649   -5.9319 N   0  0  0  0  0  0  0  0  0  0  0  0
   26.5070  -23.2212  -16.1358 C   0  0  0  0  0  0  0  0  0  0  0  0
   26.9645  -22.2301  -15.2312 O   0  0  0  0  0  0  0  0  0  0  0  0
   28.2409  -22.1062  -15.1398 C   0  0  0  0  0  0  0  0  0  0  0  0
   26.0588  -21.3748  -14.4380 C   0  0  0  0  0  0  0  0  0  0  0  0
   24.6072  -21.5106  -14.7155 C   0  0  2  0  0  0  0  0  0  0  0  0
   23.6505  -20.6371  -13.9568 N   0  0  0  0  0  0  0  0  0  0  0  0
   23.5578  -21.2076  -12.5704 C   0  0  0  0  0  0  0  0  0  0  0  0
   22.3255  -20.5959  -14.5486 O   0  0  0  0  0  0  0  0  0  0  0  0
   21.3372  -21.2780  -14.0962 N   0  0  0  0  0  0  0  0  0  0  0  0
   18.0484  -18.7676  -15.3912 C   0  0  0  0  0  0  0  0  0  0  0  0
   18.9083  -18.1502  -14.4442 O   0  0  0  0  0  0  0  0  0  0  0  0
   18.3672  -17.5565  -13.4687 C   0  0  0  0  0  0  0  0  0  0  0  0
   20.4042  -18.1963  -14.5883 C   0  0  2  0  0  0  0  0  0  0  0  0
   20.8038  -18.9921  -15.7675 N   0  0  0  0  0  0  0  0  0  0  0  0
   21.9394  -19.8162  -15.6828 C   0  0  0  0  0  0  0  0  0  0  0  0
   20.9639  -18.0701  -16.9252 O   0  0  0  0  0  0  0  0  0  0  0  0
   22.1986  -17.5556  -17.2923 O   0  0  0  0  0  0  0  0  0  0  0  0
  2  1  1  0
  2  3  2  0
  4  5  1  0
  4  2  1  0
  6  5  1  0
  7  6  1  0
  8 10  1  0
  8  7  1  0
  8  9  1  1
 10 11  2  0
 13 14  2  0
 13 12  1  0
 15 13  1  0
 16 15  1  0
 17 16  1  1
 17 19  1  0
 18 10  1  0
 18 17  1  0
 19 20  2  0
 22 21  1  0
 22 24  1  0
 23 22  2  0
 25 24  1  1
 25 27  1  0
 26 19  1  0
 26 25  1  0
 27 28  1  0
 29 27  2  0
M  END
$$$$
