RQN.pdb
     RDKit          3D

 29 28  0  0  1  0  0  0  0  0999 V2000
   27.0541  -22.9409  -16.9746 N   0  0  0  0  0  0  0  0  0  0  0  0
   26.9194  -24.1867  -16.3123 C   0  0  0  0  0  0  0  0  0  0  0  0
   27.9056  -25.0371  -16.3887 N   0  0  0  0  0  0  0  0  0  0  0  0
   25.7405  -24.4422  -15.6088 N   0  0  0  0  0  0  0  0  0  0  0  0
   24.6604  -23.4381  -15.5823 C   0  0  0  0  0  0  0  0  0  0  0  0
   25.0596  -22.3224  -14.6599 C   0  0  0  0  0  0  0  0  0  0  0  0
   24.0461  -21.2694  -14.3925 C   0  0  0  0  0  0  0  0  0  0  0  0
   23.6141  -20.5797  -15.6331 C   0  0  2  0  0  0  0  0  0  0  0  0
   24.0299  -19.2146  -15.6856 N   0  0  0  0  0  0  0  0  0  0  0  0
   22.1304  -20.6248  -15.8086 C   0  0  0  0  0  0  0  0  0  0  0  0
   21.4070  -19.6182  -15.5607 O   0  0  0  0  0  0  0  0  0  0  0  0
   27.8422  -25.9674  -15.9586 N   0  0  0  0  0  0  0  0  0  0  0  0
   19.6398  -24.4494  -20.1108 C   0  0  0  0  0  0  0  0  0  0  0  0
   20.6261  -24.7172  -19.1284 O   0  0  0  0  0  0  0  0  0  0  0  0
   21.3750  -25.7374  -19.3548 C   0  0  0  0  0  0  0  0  0  0  0  0
   20.8111  -23.8919  -17.9178 C   0  0  0  0  0  0  0  0  0  0  0  0
   19.8844  -22.7448  -17.7499 C   0  0  1  0  0  0  0  0  0  0  0  0
   20.0562  -21.8579  -16.5509 N   0  0  0  0  0  0  0  0  0  0  0  0
   21.5291  -21.8128  -16.2596 C   0  0  0  0  0  0  0  0  0  0  0  0
   19.3496  -22.3420  -15.3787 O   0  0  0  0  0  0  0  0  0  0  0  0
   19.9478  -22.8469  -14.3619 N   0  0  0  0  0  0  0  0  0  0  0  0
   15.7713  -22.3427  -11.5814 C   0  0  0  0  0  0  0  0  0  0  0  0
   17.1792  -22.5124  -11.5001 O   0  0  0  0  0  0  0  0  0  0  0  0
   17.6666  -22.7881  -10.3673 C   0  0  0  0  0  0  0  0  0  0  0  0
   18.0624  -22.3715  -12.7086 C   0  0  2  0  0  0  0  0  0  0  0  0
   17.2660  -22.3457  -13.9532 N   0  0  0  0  0  0  0  0  0  0  0  0
   17.9326  -22.3279  -15.1906 C   0  0  0  0  0  0  0  0  0  0  0  0
   16.3347  -21.1860  -13.8919 O   0  0  0  0  0  0  0  0  0  0  0  0
   15.0880  -21.2730  -13.2901 O   0  0  0  0  0  0  0  0  0  0  0  0
  2  1  1  0
  2  3  2  0
  4  5  1  0
  4  2  1  0
  6  5  1  0
  7  6  1  0
  8 10  1  0
  8  7  1  0
  8  9  1  1
 10 11  2  0
 13 14  2  0
 13 12  1  0
 15 13  1  0
 16 15  1  0
 17 16  1  6
 17 19  1  0
 18 10  1  0
 18 17  1  0
 19 20  2  0
 22 21  1  0
 22 24  1  0
 23 22  2  0
 25 24  1  6
 25 27  1  0
 26 19  1  0
 26 25  1  0
 27 28  1  0
 29 27  2  0
M  END
$$$$
