RQN.pdb
     RDKit          3D

 29 28  0  0  1  0  0  0  0  0999 V2000
   23.9924  -33.1131  -11.6360 N   0  0  0  0  0  0  0  0  0  0  0  0
   24.6195  -32.5253  -10.5090 C   0  0  0  0  0  0  0  0  0  0  0  0
   25.9095  -32.3358  -10.5483 N   0  0  0  0  0  0  0  0  0  0  0  0
   23.8270  -32.1756   -9.4137 N   0  0  0  0  0  0  0  0  0  0  0  0
   22.4677  -31.6424   -9.6221 C   0  0  0  0  0  0  0  0  0  0  0  0
   22.5711  -30.3026  -10.2922 C   0  0  0  0  0  0  0  0  0  0  0  0
   21.2987  -29.6298  -10.6609 C   0  0  0  0  0  0  0  0  0  0  0  0
   20.4704  -29.3080   -9.4727 C   0  0  2  0  0  0  0  0  0  0  0  0
   20.0796  -30.4667   -8.7352 N   0  0  0  0  0  0  0  0  0  0  0  0
   19.2366  -28.5492   -9.8418 C   0  0  0  0  0  0  0  0  0  0  0  0
   18.0912  -29.0791   -9.7695 O   0  0  0  0  0  0  0  0  0  0  0  0
   26.4141  -31.9335   -9.7495 N   0  0  0  0  0  0  0  0  0  0  0  0
   17.6020  -25.3748   -5.8916 C   0  0  0  0  0  0  0  0  0  0  0  0
   16.8248  -24.7259   -6.8840 O   0  0  0  0  0  0  0  0  0  0  0  0
   15.9947  -23.8439   -6.4527 C   0  0  0  0  0  0  0  0  0  0  0  0
   16.9442  -25.0163   -8.3270 C   0  0  0  0  0  0  0  0  0  0  0  0
   17.9707  -26.0139   -8.7194 C   0  0  1  0  0  0  0  0  0  0  0  0
   18.1871  -26.2783  -10.1813 N   0  0  0  0  0  0  0  0  0  0  0  0
   19.3550  -27.2179  -10.2777 C   0  0  0  0  0  0  0  0  0  0  0  0
   18.4749  -25.0750  -10.9409 O   0  0  0  0  0  0  0  0  0  0  0  0
   19.5031  -24.3394  -10.7204 N   0  0  0  0  0  0  0  0  0  0  0  0
   19.2821  -21.5873  -14.4221 C   0  0  0  0  0  0  0  0  0  0  0  0
   18.1296  -22.2497  -14.9226 O   0  0  0  0  0  0  0  0  0  0  0  0
   17.7849  -21.9970  -16.1118 C   0  0  0  0  0  0  0  0  0  0  0  0
   17.3448  -23.2149  -14.0783 C   0  0  2  0  0  0  0  0  0  0  0  0
   17.9637  -23.3876  -12.7476 N   0  0  0  0  0  0  0  0  0  0  0  0
   17.6835  -24.5506  -12.0095 C   0  0  0  0  0  0  0  0  0  0  0  0
   17.6310  -22.1985  -11.9161 O   0  0  0  0  0  0  0  0  0  0  0  0
   18.3891  -21.0374  -11.9538 O   0  0  0  0  0  0  0  0  0  0  0  0
  2  1  1  0
  2  3  2  0
  4  5  1  0
  4  2  1  0
  6  5  1  0
  7  6  1  0
  8 10  1  0
  8  7  1  0
  8  9  1  6
 10 11  2  0
 13 14  2  0
 13 12  1  0
 15 13  1  0
 16 15  1  0
 17 16  1  1
 17 19  1  0
 18 10  1  0
 18 17  1  0
 19 20  2  0
 22 21  1  0
 22 24  1  0
 23 22  2  0
 25 24  1  6
 25 27  1  0
 26 19  1  0
 26 25  1  0
 27 28  1  0
 29 27  2  0
M  END
$$$$
