RQN.pdb
     RDKit          3D

 29 28  0  0  1  0  0  0  0  0999 V2000
   11.4249  -14.4583  -10.1841 N   0  0  0  0  0  0  0  0  0  0  0  0
   10.6829  -13.4141  -10.7907 C   0  0  0  0  0  0  0  0  0  0  0  0
    9.3849  -13.4221  -10.6610 N   0  0  0  0  0  0  0  0  0  0  0  0
   11.3762  -12.4272  -11.4945 N   0  0  0  0  0  0  0  0  0  0  0  0
   12.8475  -12.4766  -11.5856 C   0  0  0  0  0  0  0  0  0  0  0  0
   13.2324  -13.4147  -12.6932 C   0  0  0  0  0  0  0  0  0  0  0  0
   13.7420  -12.8066  -13.9493 C   0  0  0  0  0  0  0  0  0  0  0  0
   15.1896  -13.0636  -14.1491 C   0  0  2  0  0  0  0  0  0  0  0  0
   15.5845  -14.3742  -13.7422 N   0  0  0  0  0  0  0  0  0  0  0  0
   16.0380  -12.0714  -13.4211 C   0  0  0  0  0  0  0  0  0  0  0  0
   16.5294  -12.3323  -12.2861 O   0  0  0  0  0  0  0  0  0  0  0  0
    8.8033  -12.6822  -11.0717 N   0  0  0  0  0  0  0  0  0  0  0  0
   18.6473  -10.5620  -16.8865 C   0  0  0  0  0  0  0  0  0  0  0  0
   19.6412  -10.0807  -15.9975 O   0  0  0  0  0  0  0  0  0  0  0  0
   20.8572  -10.3206  -16.3392 C   0  0  0  0  0  0  0  0  0  0  0  0
   19.3316   -9.3418  -14.7569 C   0  0  0  0  0  0  0  0  0  0  0  0
   17.8963   -9.0873  -14.4780 C   0  0  2  0  0  0  0  0  0  0  0  0
   17.2388   -9.8513  -13.3654 N   0  0  0  0  0  0  0  0  0  0  0  0
   16.2937  -10.8224  -14.0136 C   0  0  0  0  0  0  0  0  0  0  0  0
   16.5000   -9.0007  -12.4498 O   0  0  0  0  0  0  0  0  0  0  0  0
   15.2921   -8.6250  -12.6663 N   0  0  0  0  0  0  0  0  0  0  0  0
   14.6368   -7.2208   -7.3800 C   0  0  0  0  0  0  0  0  0  0  0  0
   15.8350   -6.8223   -8.0303 O   0  0  0  0  0  0  0  0  0  0  0  0
   16.1983   -5.6198   -7.8928 C   0  0  0  0  0  0  0  0  0  0  0  0
   16.6456   -7.7860   -8.8516 C   0  0  1  0  0  0  0  0  0  0  0  0
   16.2423   -7.7488  -10.2727 N   0  0  0  0  0  0  0  0  0  0  0  0
   16.9915   -8.4748  -11.2149 C   0  0  0  0  0  0  0  0  0  0  0  0
   16.1743   -6.3261  -10.7055 O   0  0  0  0  0  0  0  0  0  0  0  0
   15.0165   -5.5724  -10.5812 O   0  0  0  0  0  0  0  0  0  0  0  0
  2  1  1  0
  2  3  2  0
  4  5  1  0
  4  2  1  0
  6  5  1  0
  7  6  1  0
  8 10  1  0
  8  7  1  0
  8  9  1  1
 10 11  2  0
 13 14  2  0
 13 12  1  0
 15 13  1  0
 16 15  1  0
 17 16  1  6
 17 19  1  0
 18 10  1  0
 18 17  1  0
 19 20  2  0
 22 21  1  0
 22 24  1  0
 23 22  2  0
 25 24  1  1
 25 27  1  0
 26 19  1  0
 26 25  1  0
 27 28  1  0
 29 27  2  0
M  END
$$$$
