RQN.pdb
     RDKit          3D

 29 28  0  0  1  0  0  0  0  0999 V2000
   31.2867  -22.0465   -8.9420 N   0  0  0  0  0  0  0  0  0  0  0  0
   31.5499  -22.4562  -10.2731 C   0  0  0  0  0  0  0  0  0  0  0  0
   32.4130  -23.4152  -10.4654 N   0  0  0  0  0  0  0  0  0  0  0  0
   30.8718  -21.8163  -11.3126 N   0  0  0  0  0  0  0  0  0  0  0  0
   29.5292  -21.2500  -11.0843 C   0  0  0  0  0  0  0  0  0  0  0  0
   29.0914  -20.5273  -12.3256 C   0  0  0  0  0  0  0  0  0  0  0  0
   27.7322  -19.9274  -12.3163 C   0  0  0  0  0  0  0  0  0  0  0  0
   26.7338  -20.7916  -12.9928 C   0  0  2  0  0  0  0  0  0  0  0  0
   27.1585  -21.2284  -14.2843 N   0  0  0  0  0  0  0  0  0  0  0  0
   25.4128  -20.1079  -13.1403 C   0  0  0  0  0  0  0  0  0  0  0  0
   24.7516  -19.7280  -12.1322 O   0  0  0  0  0  0  0  0  0  0  0  0
   32.7102  -23.6837  -11.4110 N   0  0  0  0  0  0  0  0  0  0  0  0
   23.5506  -16.9214  -18.3220 C   0  0  0  0  0  0  0  0  0  0  0  0
   22.3637  -17.0636  -17.5597 O   0  0  0  0  0  0  0  0  0  0  0  0
   21.3339  -16.4403  -18.0112 C   0  0  0  0  0  0  0  0  0  0  0  0
   22.2823  -17.8744  -16.3280 C   0  0  0  0  0  0  0  0  0  0  0  0
   23.5338  -18.5410  -15.8897 C   0  0  1  0  0  0  0  0  0  0  0  0
   23.5147  -19.3239  -14.6088 N   0  0  0  0  0  0  0  0  0  0  0  0
   24.8971  -19.8832  -14.4288 C   0  0  0  0  0  0  0  0  0  0  0  0
   22.5542  -20.4124  -14.6212 O   0  0  0  0  0  0  0  0  0  0  0  0
   22.8993  -21.6483  -14.6066 N   0  0  0  0  0  0  0  0  0  0  0  0
   19.4536  -23.8771  -12.3893 C   0  0  0  0  0  0  0  0  0  0  0  0
   19.3100  -22.4781  -12.1898 O   0  0  0  0  0  0  0  0  0  0  0  0
   18.2533  -22.0775  -11.6242 C   0  0  0  0  0  0  0  0  0  0  0  0
   20.3679  -21.5050  -12.6307 C   0  0  1  0  0  0  0  0  0  0  0  0
   20.2066  -21.1487  -14.0557 N   0  0  0  0  0  0  0  0  0  0  0  0
   21.1319  -20.2731  -14.6500 C   0  0  0  0  0  0  0  0  0  0  0  0
   18.8349  -20.6047  -14.2524 O   0  0  0  0  0  0  0  0  0  0  0  0
   17.7943  -21.3857  -14.7332 O   0  0  0  0  0  0  0  0  0  0  0  0
  2  1  1  0
  2  3  2  0
  4  5  1  0
  4  2  1  0
  6  5  1  0
  7  6  1  0
  8 10  1  0
  8  7  1  0
  8  9  1  6
 10 11  2  0
 13 14  2  0
 13 12  1  0
 15 13  1  0
 16 15  1  0
 17 16  1  1
 17 19  1  0
 18 10  1  0
 18 17  1  0
 19 20  2  0
 22 21  1  0
 22 24  1  0
 23 22  2  0
 25 24  1  6
 25 27  1  0
 26 19  1  0
 26 25  1  0
 27 28  1  0
 29 27  2  0
M  END
$$$$
