EFV.pdb
     RDKit          3D

 28 28  0  0  1  0  0  0  0  0999 V2000
   27.9062  -22.6541  -15.3516 N   0  0  0  0  0  0  0  0  0  0  0  0
   27.0447  -21.5140  -15.4820 C   0  0  1  0  0  0  0  0  0  0  0  0
   26.4664  -21.3746  -16.8690 C   0  0  0  0  0  0  0  0  0  0  0  0
   27.6154  -21.0157  -17.7879 C   0  0  0  0  0  0  0  0  0  0  0  0
   28.1274  -19.6707  -17.5726 C   0  0  0  0  0  0  0  0  0  0  0  0
   29.3394  -19.4758  -17.3415 O   0  0  0  0  0  0  0  0  0  0  0  0
   26.0073  -21.5743  -14.4305 C   0  0  0  0  0  0  0  0  0  0  0  0
   25.3614  -22.6342  -14.2710 O   0  0  0  0  0  0  0  0  0  0  0  0
   27.2774  -18.5860  -17.6208 O   0  0  0  0  0  0  0  0  0  0  0  0
   25.6893  -20.4879  -13.5730 N   0  0  0  0  0  0  0  0  0  0  0  0
   24.6821  -20.5910  -12.5053 C   0  0  1  0  0  0  0  0  0  0  0  0
   25.0076  -19.5341  -11.5162 C   0  0  0  0  0  0  0  0  0  0  0  0
   25.4935  -19.9668  -10.2136 C   0  0  0  0  0  0  0  0  0  0  0  0
   25.2935  -21.2447   -9.7200 C   0  0  0  0  0  0  0  0  0  0  0  0
   25.7779  -21.6119   -8.4879 C   0  0  0  0  0  0  0  0  0  0  0  0
   26.4812  -20.7382   -7.6855 C   0  0  0  0  0  0  0  0  0  0  0  0
   26.6792  -19.4660   -8.1795 C   0  0  0  0  0  0  0  0  0  0  0  0
   26.1937  -19.0766   -9.4296 C   0  0  0  0  0  0  0  0  0  0  0  0
   23.3686  -20.2985  -13.1262 C   0  0  0  0  0  0  0  0  0  0  0  0
   23.2887  -19.3636  -13.9641 O   0  0  0  0  0  0  0  0  0  0  0  0
   21.3750  -22.4459  -15.1638 C   0  0  0  0  0  0  0  0  0  0  0  0
   20.3545  -21.9580  -14.1590 C   0  0  2  0  0  0  0  0  0  0  0  0
   19.0390  -21.6290  -14.8298 C   0  0  0  0  0  0  0  0  0  0  0  0
   20.9376  -20.7554  -13.4549 C   0  0  2  0  0  0  0  0  0  0  0  0
   22.1873  -21.0222  -12.8237 N   0  0  0  0  0  0  0  0  0  0  0  0
   19.9337  -20.3124  -12.4419 C   0  0  0  0  0  0  0  0  0  0  0  0
   19.9526  -20.8387  -11.2855 O   0  0  0  0  0  0  0  0  0  0  0  0
   18.9768  -19.3619  -12.6748 O   0  0  0  0  0  0  0  0  0  0  0  0
  2  1  1  6
  2  7  1  0
  2  3  1  0
  4  3  1  0
  4  5  1  0
  5  6  2  0
  7  8  2  0
  9  5  1  0
 10  7  1  0
 10 11  1  0
 11 12  1  1
 12 13  1  0
 13 14  2  0
 14 15  1  0
 16 15  2  0
 17 16  1  0
 18 13  1  0
 18 17  2  0
 19 25  1  0
 19 11  1  0
 20 19  2  0
 22 21  1  6
 22 24  1  0
 23 22  1  0
 24 25  1  1
 26 28  1  0
 26 24  1  0
 27 26  2  0
M  END
$$$$
