EFV.pdb
     RDKit          3D

 28 28  0  0  1  0  0  0  0  0999 V2000
   19.7194  -12.6442  -18.1585 N   0  0  0  0  0  0  0  0  0  0  0  0
   20.0819  -11.2759  -18.3936 C   0  0  1  0  0  0  0  0  0  0  0  0
   18.9408  -10.4556  -18.9437 C   0  0  0  0  0  0  0  0  0  0  0  0
   18.6499  -10.9865  -20.3318 C   0  0  0  0  0  0  0  0  0  0  0  0
   19.5104  -10.4182  -21.3585 C   0  0  0  0  0  0  0  0  0  0  0  0
   19.3594  -10.7208  -22.5609 O   0  0  0  0  0  0  0  0  0  0  0  0
   20.6494  -10.7101  -17.1513 C   0  0  0  0  0  0  0  0  0  0  0  0
   20.1346  -11.0141  -16.0519 O   0  0  0  0  0  0  0  0  0  0  0  0
   20.5106   -9.5326  -21.0169 O   0  0  0  0  0  0  0  0  0  0  0  0
   21.7615   -9.8275  -17.1226 N   0  0  0  0  0  0  0  0  0  0  0  0
   22.3203   -9.2989  -15.8682 C   0  0  1  0  0  0  0  0  0  0  0  0
   23.7113   -9.8075  -15.7798 C   0  0  0  0  0  0  0  0  0  0  0  0
   23.8860  -11.2361  -15.5589 C   0  0  0  0  0  0  0  0  0  0  0  0
   23.6944  -11.8381  -14.3271 C   0  0  0  0  0  0  0  0  0  0  0  0
   23.8624  -13.1923  -14.1668 C   0  0  0  0  0  0  0  0  0  0  0  0
   24.2266  -14.0155  -15.2116 C   0  0  0  0  0  0  0  0  0  0  0  0
   24.4167  -13.4134  -16.4376 C   0  0  0  0  0  0  0  0  0  0  0  0
   24.2501  -12.0386  -16.6176 C   0  0  0  0  0  0  0  0  0  0  0  0
   22.3416   -7.8228  -15.9976 C   0  0  0  0  0  0  0  0  0  0  0  0
   22.3653   -7.3152  -17.1484 O   0  0  0  0  0  0  0  0  0  0  0  0
   19.6517   -5.8436  -14.6482 C   0  0  0  0  0  0  0  0  0  0  0  0
   20.6887   -5.2694  -15.5884 C   0  0  2  0  0  0  0  0  0  0  0  0
   20.5476   -5.8482  -16.9790 C   0  0  0  0  0  0  0  0  0  0  0  0
   22.0517   -5.5531  -15.0019 C   0  0  2  0  0  0  0  0  0  0  0  0
   22.3367   -6.9446  -14.8843 N   0  0  0  0  0  0  0  0  0  0  0  0
   22.0931   -4.9038  -13.6578 C   0  0  0  0  0  0  0  0  0  0  0  0
   21.9970   -5.6306  -12.6199 O   0  0  0  0  0  0  0  0  0  0  0  0
   22.2298   -3.5563  -13.4604 O   0  0  0  0  0  0  0  0  0  0  0  0
  2  1  1  1
  2  7  1  0
  2  3  1  0
  4  3  1  0
  4  5  1  0
  5  6  2  0
  7  8  2  0
  9  5  1  0
 10  7  1  0
 10 11  1  0
 11 12  1  6
 12 13  1  0
 13 14  2  0
 14 15  1  0
 16 15  2  0
 17 16  1  0
 18 13  1  0
 18 17  2  0
 19 25  1  0
 19 11  1  0
 20 19  2  0
 22 21  1  1
 22 24  1  0
 23 22  1  0
 24 25  1  1
 26 28  1  0
 26 24  1  0
 27 26  2  0
M  END
$$$$
