EFV.pdb
     RDKit          3D

 28 28  0  0  1  0  0  0  0  0999 V2000
   44.7775  -10.2680   -6.0025 N   0  0  0  0  0  0  0  0  0  0  0  0
   44.3474   -9.6567   -7.2273 C   0  0  1  0  0  0  0  0  0  0  0  0
   45.3424   -9.8319   -8.3485 C   0  0  0  0  0  0  0  0  0  0  0  0
   46.1167   -8.5346   -8.4527 C   0  0  0  0  0  0  0  0  0  0  0  0
   45.7213   -7.7168   -9.5895 C   0  0  0  0  0  0  0  0  0  0  0  0
   44.9658   -8.1716  -10.4742 O   0  0  0  0  0  0  0  0  0  0  0  0
   43.0015  -10.1638   -7.5694 C   0  0  0  0  0  0  0  0  0  0  0  0
   42.6357  -11.2734   -7.1209 O   0  0  0  0  0  0  0  0  0  0  0  0
   46.1773   -6.4208   -9.7072 O   0  0  0  0  0  0  0  0  0  0  0  0
   42.0787   -9.4615   -8.3890 N   0  0  0  0  0  0  0  0  0  0  0  0
   40.7057   -9.9368   -8.6218 C   0  0  1  0  0  0  0  0  0  0  0  0
   39.8807   -9.4007   -7.5112 C   0  0  0  0  0  0  0  0  0  0  0  0
   38.4889   -9.8239   -7.4501 C   0  0  0  0  0  0  0  0  0  0  0  0
   37.4566   -9.1091   -8.0330 C   0  0  0  0  0  0  0  0  0  0  0  0
   36.1579   -9.5513   -7.9575 C   0  0  0  0  0  0  0  0  0  0  0  0
   35.8163  -10.7172   -7.3048 C   0  0  0  0  0  0  0  0  0  0  0  0
   36.8464  -11.4274   -6.7251 C   0  0  0  0  0  0  0  0  0  0  0  0
   38.1716  -10.9921   -6.7927 C   0  0  0  0  0  0  0  0  0  0  0  0
   40.2576   -9.3402   -9.9022 C   0  0  0  0  0  0  0  0  0  0  0  0
   40.3201   -8.0918  -10.0443 O   0  0  0  0  0  0  0  0  0  0  0  0
   37.6954  -11.7002  -12.1615 C   0  0  0  0  0  0  0  0  0  0  0  0
   37.5098  -10.2120  -11.9607 C   0  0  2  0  0  0  0  0  0  0  0  0
   36.6109   -9.6235  -13.0258 C   0  0  0  0  0  0  0  0  0  0  0  0
   38.8774   -9.5706  -11.9683 C   0  0  2  0  0  0  0  0  0  0  0  0
   39.7580  -10.1078  -10.9847 N   0  0  0  0  0  0  0  0  0  0  0  0
   38.6763   -8.1092  -11.7359 C   0  0  0  0  0  0  0  0  0  0  0  0
   38.6483   -7.6739  -10.5424 O   0  0  0  0  0  0  0  0  0  0  0  0
   38.5172   -7.1880  -12.7356 O   0  0  0  0  0  0  0  0  0  0  0  0
  2  1  1  1
  2  7  1  0
  2  3  1  0
  4  3  1  0
  4  5  1  0
  5  6  2  0
  7  8  2  0
  9  5  1  0
 10  7  1  0
 10 11  1  0
 11 12  1  1
 12 13  1  0
 13 14  2  0
 14 15  1  0
 16 15  2  0
 17 16  1  0
 18 13  1  0
 18 17  2  0
 19 25  1  0
 19 11  1  0
 20 19  2  0
 22 21  1  6
 22 24  1  0
 23 22  1  0
 24 25  1  1
 26 28  1  0
 26 24  1  0
 27 26  2  0
M  END
$$$$
