EFV.pdb
     RDKit          3D

 28 28  0  0  1  0  0  0  0  0999 V2000
   21.5005  -12.2928  -16.9999 N   0  0  0  0  0  0  0  0  0  0  0  0
   21.5018  -10.9101  -17.3833 C   0  0  1  0  0  0  0  0  0  0  0  0
   20.5744  -10.6236  -18.5389 C   0  0  0  0  0  0  0  0  0  0  0  0
   20.8983  -11.6331  -19.6203 C   0  0  0  0  0  0  0  0  0  0  0  0
   20.1017  -11.4622  -20.8260 C   0  0  0  0  0  0  0  0  0  0  0  0
   19.2513  -10.5510  -20.9084 O   0  0  0  0  0  0  0  0  0  0  0  0
   21.2097  -10.0825  -16.1936 C   0  0  0  0  0  0  0  0  0  0  0  0
   20.5123  -10.5633  -15.2725 O   0  0  0  0  0  0  0  0  0  0  0  0
   20.2751  -12.3083  -21.9009 O   0  0  0  0  0  0  0  0  0  0  0  0
   21.6774   -8.7524  -16.0239 N   0  0  0  0  0  0  0  0  0  0  0  0
   21.2609   -7.9050  -14.8953 C   0  0  1  0  0  0  0  0  0  0  0  0
   22.4580   -7.7296  -14.0365 C   0  0  0  0  0  0  0  0  0  0  0  0
   23.6691   -8.4364  -14.4286 C   0  0  0  0  0  0  0  0  0  0  0  0
   24.0783   -9.6187  -13.8359 C   0  0  0  0  0  0  0  0  0  0  0  0
   25.2248  -10.2560  -14.2445 C   0  0  0  0  0  0  0  0  0  0  0  0
   26.0208   -9.7588  -15.2549 C   0  0  0  0  0  0  0  0  0  0  0  0
   25.6110   -8.5810  -15.8437 C   0  0  0  0  0  0  0  0  0  0  0  0
   24.4485   -7.9207  -15.4406 C   0  0  0  0  0  0  0  0  0  0  0  0
   20.8666   -6.5955  -15.4662 C   0  0  0  0  0  0  0  0  0  0  0  0
   21.6433   -6.0291  -16.2777 O   0  0  0  0  0  0  0  0  0  0  0  0
   18.2098   -3.7837  -17.8395 C   0  0  0  0  0  0  0  0  0  0  0  0
   18.6724   -5.0865  -17.2247 C   0  0  2  0  0  0  0  0  0  0  0  0
   17.5543   -6.1052  -17.1940 C   0  0  0  0  0  0  0  0  0  0  0  0
   19.1903   -4.7848  -15.8381 C   0  0  2  0  0  0  0  0  0  0  0  0
   19.6505   -5.9414  -15.1437 N   0  0  0  0  0  0  0  0  0  0  0  0
   18.0727   -4.1426  -15.0839 C   0  0  0  0  0  0  0  0  0  0  0  0
   17.3586   -4.8580  -14.3140 O   0  0  0  0  0  0  0  0  0  0  0  0
   17.7570   -2.8133  -15.1645 O   0  0  0  0  0  0  0  0  0  0  0  0
  2  1  1  1
  2  7  1  0
  2  3  1  0
  4  3  1  0
  4  5  1  0
  5  6  2  0
  7  8  2  0
  9  5  1  0
 10  7  1  0
 10 11  1  0
 11 12  1  1
 12 13  1  0
 13 14  2  0
 14 15  1  0
 16 15  2  0
 17 16  1  0
 18 13  1  0
 18 17  2  0
 19 25  1  0
 19 11  1  0
 20 19  2  0
 22 21  1  1
 22 24  1  0
 23 22  1  0
 24 25  1  1
 26 28  1  0
 26 24  1  0
 27 26  2  0
M  END
$$$$
