EFV.pdb
     RDKit          3D

 28 28  0  0  1  0  0  0  0  0999 V2000
   17.8660  -12.2756  -18.3774 N   0  0  0  0  0  0  0  0  0  0  0  0
   18.0819  -10.9082  -18.7549 C   0  0  1  0  0  0  0  0  0  0  0  0
   16.9573  -10.3487  -19.5915 C   0  0  0  0  0  0  0  0  0  0  0  0
   16.9948  -11.0776  -20.9185 C   0  0  0  0  0  0  0  0  0  0  0  0
   18.1011  -10.6678  -21.7703 C   0  0  0  0  0  0  0  0  0  0  0  0
   19.2753  -10.9945  -21.4972 O   0  0  0  0  0  0  0  0  0  0  0  0
   18.3443  -10.1107  -17.5381 C   0  0  0  0  0  0  0  0  0  0  0  0
   17.5648  -10.2096  -16.5642 O   0  0  0  0  0  0  0  0  0  0  0  0
   17.8677   -9.9086  -22.8975 O   0  0  0  0  0  0  0  0  0  0  0  0
   19.4438   -9.2227  -17.3989 N   0  0  0  0  0  0  0  0  0  0  0  0
   19.5894   -8.3176  -16.2479 C   0  0  1  0  0  0  0  0  0  0  0  0
   20.8960   -8.6387  -15.6226 C   0  0  0  0  0  0  0  0  0  0  0  0
   21.3288   -7.7994  -14.5143 C   0  0  0  0  0  0  0  0  0  0  0  0
   21.1249   -8.1373  -13.1874 C   0  0  0  0  0  0  0  0  0  0  0  0
   21.5584   -7.3182  -12.1732 C   0  0  0  0  0  0  0  0  0  0  0  0
   22.2125   -6.1291  -12.4188 C   0  0  0  0  0  0  0  0  0  0  0  0
   22.4145   -5.7949  -13.7414 C   0  0  0  0  0  0  0  0  0  0  0  0
   21.9803   -6.6161  -14.7840 C   0  0  0  0  0  0  0  0  0  0  0  0
   19.6268   -6.9388  -16.7898 C   0  0  0  0  0  0  0  0  0  0  0  0
   20.3511   -6.6999  -17.7903 O   0  0  0  0  0  0  0  0  0  0  0  0
   17.6501   -2.7166  -17.8346 C   0  0  0  0  0  0  0  0  0  0  0  0
   17.5319   -4.1417  -17.3402 C   0  0  2  0  0  0  0  0  0  0  0  0
   16.4490   -4.2698  -16.2916 C   0  0  0  0  0  0  0  0  0  0  0  0
   18.8809   -4.5576  -16.8025 C   0  0  2  0  0  0  0  0  0  0  0  0
   18.8837   -5.8655  -16.2362 N   0  0  0  0  0  0  0  0  0  0  0  0
   19.2705   -3.5497  -15.7718 C   0  0  0  0  0  0  0  0  0  0  0  0
   18.9131   -3.7323  -14.5662 O   0  0  0  0  0  0  0  0  0  0  0  0
   19.9990   -2.4219  -16.0383 O   0  0  0  0  0  0  0  0  0  0  0  0
  2  1  1  1
  2  7  1  0
  2  3  1  0
  4  3  1  0
  4  5  1  0
  5  6  2  0
  7  8  2  0
  9  5  1  0
 10  7  1  0
 10 11  1  0
 11 12  1  6
 12 13  1  0
 13 14  2  0
 14 15  1  0
 16 15  2  0
 17 16  1  0
 18 13  1  0
 18 17  2  0
 19 25  1  0
 19 11  1  0
 20 19  2  0
 22 21  1  1
 22 24  1  0
 23 22  1  0
 24 25  1  1
 26 28  1  0
 26 24  1  0
 27 26  2  0
M  END
$$$$
