EFV.pdb
     RDKit          3D

 28 28  0  0  1  0  0  0  0  0999 V2000
   27.2785  -23.8065  -15.9042 N   0  0  0  0  0  0  0  0  0  0  0  0
   26.9071  -22.4275  -15.7658 C   0  0  1  0  0  0  0  0  0  0  0  0
   26.1573  -21.9013  -16.9652 C   0  0  0  0  0  0  0  0  0  0  0  0
   27.1651  -21.7700  -18.0880 C   0  0  0  0  0  0  0  0  0  0  0  0
   28.1188  -20.6902  -17.8834 C   0  0  0  0  0  0  0  0  0  0  0  0
   27.7711  -19.4966  -18.0042 O   0  0  0  0  0  0  0  0  0  0  0  0
   26.1605  -22.2566  -14.5013 C   0  0  0  0  0  0  0  0  0  0  0  0
   25.4761  -23.2086  -14.0638 O   0  0  0  0  0  0  0  0  0  0  0  0
   29.4275  -20.9706  -17.5513 O   0  0  0  0  0  0  0  0  0  0  0  0
   26.1689  -21.0606  -13.7357 N   0  0  0  0  0  0  0  0  0  0  0  0
   25.3955  -20.9110  -12.4929 C   0  0  1  0  0  0  0  0  0  0  0  0
   26.1622  -19.9792  -11.6297 C   0  0  0  0  0  0  0  0  0  0  0  0
   27.3364  -20.5110  -10.9526 C   0  0  0  0  0  0  0  0  0  0  0  0
   28.5120  -20.8230  -11.6136 C   0  0  0  0  0  0  0  0  0  0  0  0
   29.5988  -21.3149  -10.9320 C   0  0  0  0  0  0  0  0  0  0  0  0
   29.5780  -21.5221   -9.5687 C   0  0  0  0  0  0  0  0  0  0  0  0
   28.4058  -21.2104   -8.9125 C   0  0  0  0  0  0  0  0  0  0  0  0
   27.2922  -20.7095   -9.5902 C   0  0  0  0  0  0  0  0  0  0  0  0
   24.1031  -20.2888  -12.8653 C   0  0  0  0  0  0  0  0  0  0  0  0
   24.0686  -19.5042  -13.8480 O   0  0  0  0  0  0  0  0  0  0  0  0
   22.5473  -21.1764  -14.8849 C   0  0  0  0  0  0  0  0  0  0  0  0
   21.3829  -21.3257  -13.9303 C   0  0  2  0  0  0  0  0  0  0  0  0
   20.0671  -21.0498  -14.6238 C   0  0  0  0  0  0  0  0  0  0  0  0
   21.6112  -20.3832  -12.7720 C   0  0  2  0  0  0  0  0  0  0  0  0
   22.8931  -20.5327  -12.1672 N   0  0  0  0  0  0  0  0  0  0  0  0
   20.5357  -20.6514  -11.7714 C   0  0  0  0  0  0  0  0  0  0  0  0
   20.5718  -21.7318  -11.1034 O   0  0  0  0  0  0  0  0  0  0  0  0
   19.4941  -19.8004  -11.5177 O   0  0  0  0  0  0  0  0  0  0  0  0
  2  1  1  6
  2  7  1  0
  2  3  1  0
  4  3  1  0
  4  5  1  0
  5  6  2  0
  7  8  2  0
  9  5  1  0
 10  7  1  0
 10 11  1  0
 11 12  1  1
 12 13  1  0
 13 14  2  0
 14 15  1  0
 16 15  2  0
 17 16  1  0
 18 13  1  0
 18 17  2  0
 19 25  1  0
 19 11  1  0
 20 19  2  0
 22 21  1  6
 22 24  1  0
 23 22  1  0
 24 25  1  1
 26 28  1  0
 26 24  1  0
 27 26  2  0
M  END
$$$$
