EFV.pdb
     RDKit          3D

 28 28  0  0  1  0  0  0  0  0999 V2000
   28.9408  -20.8857  -14.6478 N   0  0  0  0  0  0  0  0  0  0  0  0
   28.3198  -19.9465  -13.7583 C   0  0  1  0  0  0  0  0  0  0  0  0
   27.9489  -18.6527  -14.4411 C   0  0  0  0  0  0  0  0  0  0  0  0
   27.3099  -19.0234  -15.7631 C   0  0  0  0  0  0  0  0  0  0  0  0
   27.0117  -17.8726  -16.6022 C   0  0  0  0  0  0  0  0  0  0  0  0
   25.8544  -17.4067  -16.6634 O   0  0  0  0  0  0  0  0  0  0  0  0
   27.1682  -20.5992  -13.1000 C   0  0  0  0  0  0  0  0  0  0  0  0
   26.6920  -21.6435  -13.5987 O   0  0  0  0  0  0  0  0  0  0  0  0
   28.0081  -17.2763  -17.3459 O   0  0  0  0  0  0  0  0  0  0  0  0
   26.5549  -20.1098  -11.9163 N   0  0  0  0  0  0  0  0  0  0  0  0
   25.4704  -20.8303  -11.2307 C   0  0  1  0  0  0  0  0  0  0  0  0
   25.3645  -20.2395   -9.8739 C   0  0  0  0  0  0  0  0  0  0  0  0
   26.4739  -20.4677   -8.9589 C   0  0  0  0  0  0  0  0  0  0  0  0
   27.5000  -21.3583   -9.2243 C   0  0  0  0  0  0  0  0  0  0  0  0
   28.5321  -21.5353   -8.3349 C   0  0  0  0  0  0  0  0  0  0  0  0
   28.6013  -20.8436   -7.1438 C   0  0  0  0  0  0  0  0  0  0  0  0
   27.5781  -19.9569   -6.8818 C   0  0  0  0  0  0  0  0  0  0  0  0
   26.5219  -19.7652   -7.7750 C   0  0  0  0  0  0  0  0  0  0  0  0
   24.2271  -20.5536  -11.9882 C   0  0  0  0  0  0  0  0  0  0  0  0
   24.0656  -19.4126  -12.4927 O   0  0  0  0  0  0  0  0  0  0  0  0
   23.1033  -22.4521  -14.8649 C   0  0  0  0  0  0  0  0  0  0  0  0
   21.8389  -22.3408  -14.0414 C   0  0  2  0  0  0  0  0  0  0  0  0
   20.6427  -22.0288  -14.9135 C   0  0  0  0  0  0  0  0  0  0  0  0
   22.0607  -21.2730  -12.9962 C   0  0  2  0  0  0  0  0  0  0  0  0
   23.2012  -21.5143  -12.1762 N   0  0  0  0  0  0  0  0  0  0  0  0
   20.8262  -21.2188  -12.1576 C   0  0  0  0  0  0  0  0  0  0  0  0
   20.7362  -21.9806  -11.1446 O   0  0  0  0  0  0  0  0  0  0  0  0
   19.7649  -20.3912  -12.4071 O   0  0  0  0  0  0  0  0  0  0  0  0
  2  1  1  6
  2  7  1  0
  2  3  1  0
  4  3  1  0
  4  5  1  0
  5  6  2  0
  7  8  2  0
  9  5  1  0
 10  7  1  0
 10 11  1  0
 11 12  1  1
 12 13  1  0
 13 14  2  0
 14 15  1  0
 16 15  2  0
 17 16  1  0
 18 13  1  0
 18 17  2  0
 19 25  1  0
 19 11  1  0
 20 19  2  0
 22 21  1  6
 22 24  1  0
 23 22  1  0
 24 25  1  1
 26 28  1  0
 26 24  1  0
 27 26  2  0
M  END
$$$$
