AEP.pdb
     RDKit          3D

 22 22  0  0  1  0  0  0  0  0999 V2000
   27.3179  -15.3670  -17.4439 C   0  0  0  0  0  0  0  0  0  0  0  0
   26.6320  -16.6936  -17.6358 C   0  0  2  0  0  0  0  0  0  0  0  0
   25.6367  -16.6422  -18.6823 N   0  0  0  0  0  0  0  0  0  0  0  0
   26.0134  -17.1058  -16.3506 C   0  0  0  0  0  0  0  0  0  0  0  0
   25.5599  -16.2246  -15.5729 O   0  0  0  0  0  0  0  0  0  0  0  0
   25.9009  -18.4488  -15.9397 N   0  0  0  0  0  0  0  0  0  0  0  0
   25.1759  -18.7995  -14.7409 C   0  0  1  0  0  0  0  0  0  0  0  0
   23.7539  -18.3641  -14.8350 C   0  0  0  0  0  0  0  0  0  0  0  0
   23.0179  -19.0481  -15.9380 C   0  0  0  0  0  0  0  0  0  0  0  0
   21.5622  -19.2188  -15.5204 C   0  0  0  0  0  0  0  0  0  0  0  0
   20.8460  -18.2527  -15.1872 O   0  0  0  0  0  0  0  0  0  0  0  0
   25.3350  -20.1689  -14.2746 C   0  0  0  0  0  0  0  0  0  0  0  0
   25.4591  -21.1178  -15.1691 O   0  0  0  0  0  0  0  0  0  0  0  0
   21.0736  -20.5123  -15.5308 O   0  0  0  0  0  0  0  0  0  0  0  0
   25.3832  -20.6823  -12.9627 N   0  0  0  0  0  0  0  0  0  0  0  0
   25.0203  -19.9181  -11.7774 C   0  0  0  0  0  0  0  0  0  0  0  0
   25.2845  -20.8023  -10.5996 C   0  0  0  0  0  0  0  0  0  0  0  0
   26.3034  -21.7902  -11.1313 C   0  0  0  0  0  0  0  0  0  0  0  0
   25.7778  -21.9747  -12.5565 C   0  0  1  0  0  0  0  0  0  0  0  0
   24.6541  -22.9478  -12.4515 C   0  0  0  0  0  0  0  0  0  0  0  0
   24.8010  -24.1744  -12.2221 O   0  0  0  0  0  0  0  0  0  0  0  0
   23.3537  -22.4944  -12.6128 O   0  0  0  0  0  0  0  0  0  0  0  0
  2  1  1  1
  2  3  1  0
  4  6  1  0
  4  2  1  0
  5  4  2  0
  7  6  1  0
  7 12  1  0
  7  8  1  6
  9  8  1  0
 10  9  1  0
 11 10  2  0
 12 15  1  0
 13 12  2  0
 14 10  1  0
 15 16  1  0
 15 19  1  0
 16 17  1  0
 18 17  1  0
 19 18  1  0
 19 20  1  1
 20 21  2  0
 20 22  1  0
M  END
$$$$
