AEP.pdb
     RDKit          3D

 22 22  0  0  1  0  0  0  0  0999 V2000
   26.6508  -10.3533  -15.2402 C   0  0  0  0  0  0  0  0  0  0  0  0
   25.4405  -11.1114  -15.7172 C   0  0  2  0  0  0  0  0  0  0  0  0
   25.7210  -11.8889  -16.9027 N   0  0  0  0  0  0  0  0  0  0  0  0
   24.3406  -10.1483  -15.9759 C   0  0  0  0  0  0  0  0  0  0  0  0
   24.3553   -9.4637  -17.0334 O   0  0  0  0  0  0  0  0  0  0  0  0
   23.2607   -9.9491  -15.0932 N   0  0  0  0  0  0  0  0  0  0  0  0
   22.1602   -9.0849  -15.4507 C   0  0  1  0  0  0  0  0  0  0  0  0
   20.8571   -9.7049  -15.0793 C   0  0  0  0  0  0  0  0  0  0  0  0
   19.6889   -8.8821  -15.5091 C   0  0  0  0  0  0  0  0  0  0  0  0
   18.4089   -9.6111  -15.1182 C   0  0  0  0  0  0  0  0  0  0  0  0
   17.3403   -9.0079  -14.8912 O   0  0  0  0  0  0  0  0  0  0  0  0
   22.2800   -7.6937  -15.0407 C   0  0  0  0  0  0  0  0  0  0  0  0
   22.7462   -7.4383  -13.8434 O   0  0  0  0  0  0  0  0  0  0  0  0
   18.4960  -10.9881  -15.0280 O   0  0  0  0  0  0  0  0  0  0  0  0
   21.9686   -6.5101  -15.7401 N   0  0  0  0  0  0  0  0  0  0  0  0
   21.3259   -6.4837  -17.0466 C   0  0  0  0  0  0  0  0  0  0  0  0
   21.2488   -5.0471  -17.4576 C   0  0  0  0  0  0  0  0  0  0  0  0
   22.3466   -4.3951  -16.6413 C   0  0  0  0  0  0  0  0  0  0  0  0
   22.2099   -5.1802  -15.3350 C   0  0  1  0  0  0  0  0  0  0  0  0
   21.0741   -4.5532  -14.6019 C   0  0  0  0  0  0  0  0  0  0  0  0
   19.9264   -5.0572  -14.5133 O   0  0  0  0  0  0  0  0  0  0  0  0
   21.2718   -3.3360  -13.9682 O   0  0  0  0  0  0  0  0  0  0  0  0
  2  1  1  6
  2  3  1  0
  4  6  1  0
  4  2  1  0
  5  4  2  0
  7  6  1  0
  7 12  1  0
  7  8  1  1
  9  8  1  0
 10  9  1  0
 11 10  2  0
 12 15  1  0
 13 12  2  0
 14 10  1  0
 15 16  1  0
 15 19  1  0
 16 17  1  0
 18 17  1  0
 19 18  1  0
 19 20  1  1
 20 21  2  0
 20 22  1  0
M  END
$$$$
