AEP.pdb
     RDKit          3D

 22 22  0  0  1  0  0  0  0  0999 V2000
   26.9144  -10.9737  -15.2502 C   0  0  0  0  0  0  0  0  0  0  0  0
   25.9006  -11.4887  -16.2371 C   0  0  2  0  0  0  0  0  0  0  0  0
   26.5077  -11.8525  -17.4971 N   0  0  0  0  0  0  0  0  0  0  0  0
   24.8591  -10.4508  -16.4430 C   0  0  0  0  0  0  0  0  0  0  0  0
   25.0543   -9.5399  -17.2910 O   0  0  0  0  0  0  0  0  0  0  0  0
   23.6423  -10.4220  -15.7334 N   0  0  0  0  0  0  0  0  0  0  0  0
   22.6434   -9.4175  -16.0144 C   0  0  1  0  0  0  0  0  0  0  0  0
   21.2712   -9.9676  -15.8278 C   0  0  0  0  0  0  0  0  0  0  0  0
   20.2075   -8.9615  -16.1149 C   0  0  0  0  0  0  0  0  0  0  0  0
   18.8474   -9.6181  -15.9108 C   0  0  0  0  0  0  0  0  0  0  0  0
   18.7202  -10.8455  -15.7249 O   0  0  0  0  0  0  0  0  0  0  0  0
   22.8419   -8.1229  -15.3799 C   0  0  0  0  0  0  0  0  0  0  0  0
   23.2440   -8.0985  -14.1334 O   0  0  0  0  0  0  0  0  0  0  0  0
   17.7529   -8.7737  -15.9427 O   0  0  0  0  0  0  0  0  0  0  0  0
   22.6710   -6.8222  -15.8959 N   0  0  0  0  0  0  0  0  0  0  0  0
   22.2038   -6.5386  -17.2457 C   0  0  0  0  0  0  0  0  0  0  0  0
   22.2379   -5.0516  -17.4077 C   0  0  0  0  0  0  0  0  0  0  0  0
   23.2464   -4.6138  -16.3647 C   0  0  0  0  0  0  0  0  0  0  0  0
   22.9110   -5.5960  -15.2403 C   0  0  1  0  0  0  0  0  0  0  0  0
   21.7162   -5.0316  -14.5516 C   0  0  0  0  0  0  0  0  0  0  0  0
   21.7474   -4.0371  -13.7842 O   0  0  0  0  0  0  0  0  0  0  0  0
   20.4792   -5.6238  -14.7556 O   0  0  0  0  0  0  0  0  0  0  0  0
  2  1  1  1
  2  3  1  0
  4  6  1  0
  4  2  1  0
  5  4  2  0
  7  6  1  0
  7 12  1  0
  7  8  1  1
  9  8  1  0
 10  9  1  0
 11 10  2  0
 12 15  1  0
 13 12  2  0
 14 10  1  0
 15 16  1  0
 15 19  1  0
 16 17  1  0
 18 17  1  0
 19 18  1  0
 19 20  1  6
 20 21  2  0
 20 22  1  0
M  END
$$$$
