AEP.pdb
     RDKit          3D

 22 22  0  0  1  0  0  0  0  0999 V2000
   29.4796  -21.2034  -12.5374 C   0  0  0  0  0  0  0  0  0  0  0  0
   28.0144  -20.9531  -12.7772 C   0  0  2  0  0  0  0  0  0  0  0  0
   27.7911  -20.1012  -13.9231 N   0  0  0  0  0  0  0  0  0  0  0  0
   27.4237  -20.3476  -11.5571 C   0  0  0  0  0  0  0  0  0  0  0  0
   27.4495  -19.0963  -11.4141 O   0  0  0  0  0  0  0  0  0  0  0  0
   26.8248  -21.1023  -10.5290 N   0  0  0  0  0  0  0  0  0  0  0  0
   26.3782  -20.4711   -9.3093 C   0  0  1  0  0  0  0  0  0  0  0  0
   24.9015  -20.5989   -9.1563 C   0  0  0  0  0  0  0  0  0  0  0  0
   24.1678  -20.3091  -10.4229 C   0  0  0  0  0  0  0  0  0  0  0  0
   22.6718  -20.3164  -10.1324 C   0  0  0  0  0  0  0  0  0  0  0  0
   21.8867  -19.4989  -10.6544 O   0  0  0  0  0  0  0  0  0  0  0  0
   27.1191  -20.8121   -8.1041 C   0  0  0  0  0  0  0  0  0  0  0  0
   27.4934  -22.0564   -7.9377 O   0  0  0  0  0  0  0  0  0  0  0  0
   22.2274  -21.2859   -9.2522 O   0  0  0  0  0  0  0  0  0  0  0  0
   27.5285  -19.9984   -7.0282 N   0  0  0  0  0  0  0  0  0  0  0  0
   27.2458  -18.5730   -6.9343 C   0  0  0  0  0  0  0  0  0  0  0  0
   27.9156  -18.0842   -5.6888 C   0  0  0  0  0  0  0  0  0  0  0  0
   29.0005  -19.1157   -5.4527 C   0  0  0  0  0  0  0  0  0  0  0  0
   28.2619  -20.3838   -5.8860 C   0  0  1  0  0  0  0  0  0  0  0  0
   27.4148  -20.7766   -4.7246 C   0  0  0  0  0  0  0  0  0  0  0  0
   26.1603  -20.7065   -4.7096 O   0  0  0  0  0  0  0  0  0  0  0  0
   28.0269  -21.2537   -3.5756 O   0  0  0  0  0  0  0  0  0  0  0  0
  2  1  1  1
  2  3  1  0
  4  6  1  0
  4  2  1  0
  5  4  2  0
  7  6  1  0
  7 12  1  0
  7  8  1  1
  9  8  1  0
 10  9  1  0
 11 10  2  0
 12 15  1  0
 13 12  2  0
 14 10  1  0
 15 16  1  0
 15 19  1  0
 16 17  1  0
 18 17  1  0
 19 18  1  0
 19 20  1  1
 20 21  2  0
 20 22  1  0
M  END
$$$$
