AEP.pdb
     RDKit          3D

 22 22  0  0  1  0  0  0  0  0999 V2000
   21.8674  -12.8521  -17.1696 C   0  0  0  0  0  0  0  0  0  0  0  0
   20.9131  -11.9443  -16.4398 C   0  0  2  0  0  0  0  0  0  0  0  0
   19.5360  -12.2202  -16.7804 N   0  0  0  0  0  0  0  0  0  0  0  0
   21.2538  -10.5342  -16.7556 C   0  0  0  0  0  0  0  0  0  0  0  0
   20.8823  -10.0401  -17.8532 O   0  0  0  0  0  0  0  0  0  0  0  0
   21.9819   -9.6989  -15.8854 N   0  0  0  0  0  0  0  0  0  0  0  0
   22.2469   -8.3213  -16.2286 C   0  0  1  0  0  0  0  0  0  0  0  0
   21.9938   -7.4268  -15.0641 C   0  0  0  0  0  0  0  0  0  0  0  0
   22.1859   -5.9852  -15.3975 C   0  0  0  0  0  0  0  0  0  0  0  0
   21.9413   -5.1574  -14.1415 C   0  0  0  0  0  0  0  0  0  0  0  0
   21.1050   -4.2320  -14.1047 O   0  0  0  0  0  0  0  0  0  0  0  0
   23.5129   -8.0608  -16.8973 C   0  0  0  0  0  0  0  0  0  0  0  0
   24.5931   -8.6308  -16.4236 O   0  0  0  0  0  0  0  0  0  0  0  0
   22.7020   -5.4899  -13.0357 O   0  0  0  0  0  0  0  0  0  0  0  0
   23.7982   -7.2636  -18.0243 N   0  0  0  0  0  0  0  0  0  0  0  0
   22.8112   -6.4381  -18.7064 C   0  0  0  0  0  0  0  0  0  0  0  0
   23.5044   -5.8236  -19.8814 C   0  0  0  0  0  0  0  0  0  0  0  0
   24.6655   -6.7656  -20.1286 C   0  0  0  0  0  0  0  0  0  0  0  0
   25.0358   -7.1173  -18.6862 C   0  0  1  0  0  0  0  0  0  0  0  0
   25.8590   -5.9786  -18.1897 C   0  0  0  0  0  0  0  0  0  0  0  0
   27.0390   -5.7482  -18.5548 O   0  0  0  0  0  0  0  0  0  0  0  0
   25.3094   -5.1031  -17.2656 O   0  0  0  0  0  0  0  0  0  0  0  0
  2  1  1  6
  2  3  1  0
  4  6  1  0
  4  2  1  0
  5  4  2  0
  7  6  1  0
  7 12  1  0
  7  8  1  1
  9  8  1  0
 10  9  1  0
 11 10  2  0
 12 15  1  0
 13 12  2  0
 14 10  1  0
 15 16  1  0
 15 19  1  0
 16 17  1  0
 18 17  1  0
 19 18  1  0
 19 20  1  1
 20 21  2  0
 20 22  1  0
M  END
$$$$
