AEP.pdb
     RDKit          3D

 22 22  0  0  1  0  0  0  0  0999 V2000
   25.5642  -18.8680   -8.3546 C   0  0  0  0  0  0  0  0  0  0  0  0
   25.0250  -20.1865   -8.8424 C   0  0  2  0  0  0  0  0  0  0  0  0
   25.2588  -21.2514   -7.8936 N   0  0  0  0  0  0  0  0  0  0  0  0
   25.6514  -20.5087  -10.1493 C   0  0  0  0  0  0  0  0  0  0  0  0
   26.9071  -20.5576  -10.2369 O   0  0  0  0  0  0  0  0  0  0  0  0
   24.9122  -20.7675  -11.3206 N   0  0  0  0  0  0  0  0  0  0  0  0
   25.5752  -20.9543  -12.5899 C   0  0  1  0  0  0  0  0  0  0  0  0
   25.2448  -22.2868  -13.1694 C   0  0  0  0  0  0  0  0  0  0  0  0
   25.8666  -22.4982  -14.5092 C   0  0  0  0  0  0  0  0  0  0  0  0
   25.4597  -23.8736  -15.0241 C   0  0  0  0  0  0  0  0  0  0  0  0
   24.7581  -24.6569  -14.3521 O   0  0  0  0  0  0  0  0  0  0  0  0
   25.4544  -19.8603  -13.5419 C   0  0  0  0  0  0  0  0  0  0  0  0
   24.3384  -19.1744  -13.5597 O   0  0  0  0  0  0  0  0  0  0  0  0
   25.9132  -24.2096  -16.2864 O   0  0  0  0  0  0  0  0  0  0  0  0
   26.3735  -19.3813  -14.4973 N   0  0  0  0  0  0  0  0  0  0  0  0
   27.6610  -20.0047  -14.7699 C   0  0  0  0  0  0  0  0  0  0  0  0
   28.3467  -19.1464  -15.7857 C   0  0  0  0  0  0  0  0  0  0  0  0
   27.6722  -17.8004  -15.6121 C   0  0  0  0  0  0  0  0  0  0  0  0
   26.2373  -18.2546  -15.3358 C   0  0  1  0  0  0  0  0  0  0  0  0
   25.6442  -18.5579  -16.6688 C   0  0  0  0  0  0  0  0  0  0  0  0
   25.3433  -19.7129  -17.0617 O   0  0  0  0  0  0  0  0  0  0  0  0
   25.3985  -17.5155  -17.5493 O   0  0  0  0  0  0  0  0  0  0  0  0
  2  1  1  1
  2  3  1  0
  4  6  1  0
  4  2  1  0
  5  4  2  0
  7  6  1  0
  7 12  1  0
  7  8  1  6
  9  8  1  0
 10  9  1  0
 11 10  2  0
 12 15  1  0
 13 12  2  0
 14 10  1  0
 15 16  1  0
 15 19  1  0
 16 17  1  0
 18 17  1  0
 19 18  1  0
 19 20  1  6
 20 21  2  0
 20 22  1  0
M  END
$$$$
