AEP.pdb
     RDKit          3D

 22 22  0  0  1  0  0  0  0  0999 V2000
   29.2681  -20.8948  -17.5013 C   0  0  0  0  0  0  0  0  0  0  0  0
   27.8652  -21.2708  -17.1041 C   0  0  2  0  0  0  0  0  0  0  0  0
   27.4313  -20.5677  -15.9184 N   0  0  0  0  0  0  0  0  0  0  0  0
   27.8029  -22.7386  -16.8896 C   0  0  0  0  0  0  0  0  0  0  0  0
   28.5956  -23.2774  -16.0721 O   0  0  0  0  0  0  0  0  0  0  0  0
   26.8935  -23.5820  -17.5581 N   0  0  0  0  0  0  0  0  0  0  0  0
   26.8581  -24.9996  -17.2846 C   0  0  1  0  0  0  0  0  0  0  0  0
   25.4542  -25.4976  -17.2486 C   0  0  0  0  0  0  0  0  0  0  0  0
   24.7540  -25.1442  -15.9793 C   0  0  0  0  0  0  0  0  0  0  0  0
   23.3528  -25.7427  -16.0123 C   0  0  0  0  0  0  0  0  0  0  0  0
   23.1540  -26.9739  -16.0546 O   0  0  0  0  0  0  0  0  0  0  0  0
   27.7484  -25.8278  -18.0843 C   0  0  0  0  0  0  0  0  0  0  0  0
   28.1324  -25.3763  -19.2525 O   0  0  0  0  0  0  0  0  0  0  0  0
   22.3051  -24.8406  -15.9925 O   0  0  0  0  0  0  0  0  0  0  0  0
   28.3011  -27.0952  -17.8101 N   0  0  0  0  0  0  0  0  0  0  0  0
   27.9711  -27.8884  -16.6343 C   0  0  0  0  0  0  0  0  0  0  0  0
   28.8254  -29.1154  -16.6911 C   0  0  0  0  0  0  0  0  0  0  0  0
   29.9832  -28.6895  -17.5713 C   0  0  0  0  0  0  0  0  0  0  0  0
   29.2417  -27.8108  -18.5810 C   0  0  1  0  0  0  0  0  0  0  0  0
   28.6322  -28.7495  -19.5649 C   0  0  0  0  0  0  0  0  0  0  0  0
   27.4063  -29.0206  -19.6165 O   0  0  0  0  0  0  0  0  0  0  0  0
   29.4494  -29.3756  -20.4936 O   0  0  0  0  0  0  0  0  0  0  0  0
  2  1  1  1
  2  3  1  0
  4  6  1  0
  4  2  1  0
  5  4  2  0
  7  6  1  0
  7 12  1  0
  7  8  1  6
  9  8  1  0
 10  9  1  0
 11 10  2  0
 12 15  1  0
 13 12  2  0
 14 10  1  0
 15 16  1  0
 15 19  1  0
 16 17  1  0
 18 17  1  0
 19 18  1  0
 19 20  1  6
 20 21  2  0
 20 22  1  0
M  END
$$$$
