AEP.pdb
     RDKit          3D

 22 22  0  0  1  0  0  0  0  0999 V2000
   18.5758  -11.9471  -18.8116 C   0  0  0  0  0  0  0  0  0  0  0  0
   20.0146  -12.0768  -18.3873 C   0  0  2  0  0  0  0  0  0  0  0  0
   20.3403  -13.4255  -17.9827 N   0  0  0  0  0  0  0  0  0  0  0  0
   20.2772  -11.1245  -17.2789 C   0  0  0  0  0  0  0  0  0  0  0  0
   19.8943  -11.4122  -16.1138 O   0  0  0  0  0  0  0  0  0  0  0  0
   20.9411   -9.8942  -17.4547 N   0  0  0  0  0  0  0  0  0  0  0  0
   21.1523   -8.9997  -16.3408 C   0  0  1  0  0  0  0  0  0  0  0  0
   22.3073   -8.0944  -16.5996 C   0  0  0  0  0  0  0  0  0  0  0  0
   22.5920   -7.1872  -15.4498 C   0  0  0  0  0  0  0  0  0  0  0  0
   23.8450   -6.3789  -15.7650 C   0  0  0  0  0  0  0  0  0  0  0  0
   24.5290   -6.5806  -16.7891 O   0  0  0  0  0  0  0  0  0  0  0  0
   19.9724   -8.3088  -15.8424 C   0  0  0  0  0  0  0  0  0  0  0  0
   19.1478   -7.7828  -16.7138 O   0  0  0  0  0  0  0  0  0  0  0  0
   24.1858   -5.4019  -14.8478 O   0  0  0  0  0  0  0  0  0  0  0  0
   19.5355   -8.0951  -14.5193 N   0  0  0  0  0  0  0  0  0  0  0  0
   20.2707   -8.5315  -13.3405 C   0  0  0  0  0  0  0  0  0  0  0  0
   19.4296   -8.1770  -12.1549 C   0  0  0  0  0  0  0  0  0  0  0  0
   18.0339   -8.0818  -12.7379 C   0  0  0  0  0  0  0  0  0  0  0  0
   18.3539   -7.4511  -14.0948 C   0  0  1  0  0  0  0  0  0  0  0  0
   18.5168   -5.9926  -13.8358 C   0  0  0  0  0  0  0  0  0  0  0  0
   17.5753   -5.2212  -13.5241 O   0  0  0  0  0  0  0  0  0  0  0  0
   19.7788   -5.4275  -13.9385 O   0  0  0  0  0  0  0  0  0  0  0  0
  2  1  1  1
  2  3  1  0
  4  6  1  0
  4  2  1  0
  5  4  2  0
  7  6  1  0
  7 12  1  0
  7  8  1  6
  9  8  1  0
 10  9  1  0
 11 10  2  0
 12 15  1  0
 13 12  2  0
 14 10  1  0
 15 16  1  0
 15 19  1  0
 16 17  1  0
 18 17  1  0
 19 18  1  0
 19 20  1  1
 20 21  2  0
 20 22  1  0
M  END
$$$$
