TQR.pdb
     RDKit          3D

 28 27  0  0  1  0  0  0  0  0999 V2000
   24.0806  -21.3288   -7.7210 C   0  0  0  0  0  0  0  0  0  0  0  0
   24.8110  -21.0194   -8.9693 C   0  0  1  0  0  0  0  0  0  0  0  0
   24.0924  -20.2617   -9.8882 O   0  0  0  0  0  0  0  0  0  0  0  0
   26.1660  -20.3643   -8.7863 C   0  0  2  0  0  0  0  0  0  0  0  0
   25.8569  -19.0838   -8.1211 N   0  0  0  0  0  0  0  0  0  0  0  0
   26.9014  -20.1949  -10.0358 C   0  0  0  0  0  0  0  0  0  0  0  0
   26.7057  -19.0885  -10.6696 O   0  0  0  0  0  0  0  0  0  0  0  0
   32.0693  -23.2578  -11.9570 N   0  0  0  0  0  0  0  0  0  0  0  0
   32.0373  -22.0575  -11.1729 C   0  0  0  0  0  0  0  0  0  0  0  0
   33.1010  -21.7934  -10.5632 O   0  0  0  0  0  0  0  0  0  0  0  0
   30.8362  -21.2434  -11.1271 C   0  0  0  0  0  0  0  0  0  0  0  0
   29.7295  -21.6081  -12.0322 C   0  0  0  0  0  0  0  0  0  0  0  0
   28.4658  -20.7808  -11.9263 C   0  0  2  0  0  0  0  0  0  0  0  0
   27.8094  -21.0954  -10.6385 N   0  0  0  0  0  0  0  0  0  0  0  0
   27.5624  -21.0678  -13.0554 C   0  0  0  0  0  0  0  0  0  0  0  0
   26.7968  -22.0828  -13.0045 O   0  0  0  0  0  0  0  0  0  0  0  0
   21.4257  -22.9894  -14.2310 N   0  0  0  0  0  0  0  0  0  0  0  0
   20.8947  -21.6807  -14.1480 C   0  0  0  0  0  0  0  0  0  0  0  0
   19.6632  -21.5066  -13.7614 N   0  0  0  0  0  0  0  0  0  0  0  0
   21.6045  -20.5016  -14.4527 N   0  0  0  0  0  0  0  0  0  0  0  0
   22.9550  -20.4486  -14.8927 C   0  0  0  0  0  0  0  0  0  0  0  0
   23.8009  -19.3622  -14.4689 C   0  0  0  0  0  0  0  0  0  0  0  0
   25.1817  -19.6317  -14.0542 C   0  0  0  0  0  0  0  0  0  0  0  0
   26.2037  -20.1533  -15.0087 C   0  0  2  0  0  0  0  0  0  0  0  0
   27.4778  -20.2818  -14.2103 N   0  0  0  0  0  0  0  0  0  0  0  0
   26.5986  -19.3509  -16.1502 C   0  0  0  0  0  0  0  0  0  0  0  0
   26.0735  -19.3608  -17.4282 O   0  0  0  0  0  0  0  0  0  0  0  0
   27.5589  -18.5114  -16.0073 O   0  0  0  0  0  0  0  0  0  0  0  0
  2  1  1  1
  2  3  1  0
  4  5  1  6
  4  2  1  0
  6  4  1  0
  7  6  2  0
  9  8  1  0
  9 10  2  0
 11 12  1  0
 11  9  1  0
 13 12  1  6
 13 14  1  0
 14  6  1  0
 15 13  1  0
 15 16  2  0
 18 17  1  0
 19 18  2  0
 20 18  1  0
 21 20  1  0
 22 23  1  0
 22 21  1  0
 24 23  1  1
 24 25  1  0
 25 15  1  0
 26 24  1  0
 27 26  1  0
 28 26  2  0
M  END
$$$$
