TQR.pdb
     RDKit          3D

 28 27  0  0  1  0  0  0  0  0999 V2000
   23.2557  -20.6892   -9.6294 C   0  0  0  0  0  0  0  0  0  0  0  0
   24.5629  -20.1222   -9.2329 C   0  0  1  0  0  0  0  0  0  0  0  0
   24.8115  -20.1414   -7.8645 O   0  0  0  0  0  0  0  0  0  0  0  0
   25.7700  -20.7161   -9.9321 C   0  0  2  0  0  0  0  0  0  0  0  0
   26.9023  -19.9095   -9.4373 N   0  0  0  0  0  0  0  0  0  0  0  0
   25.6582  -20.7098  -11.3875 C   0  0  0  0  0  0  0  0  0  0  0  0
   25.9772  -19.6098  -11.9812 O   0  0  0  0  0  0  0  0  0  0  0  0
   25.4819  -25.4168  -15.7319 N   0  0  0  0  0  0  0  0  0  0  0  0
   25.2464  -24.2273  -16.4975 C   0  0  0  0  0  0  0  0  0  0  0  0
   25.1523  -24.4031  -17.7357 O   0  0  0  0  0  0  0  0  0  0  0  0
   25.1301  -22.9404  -15.8357 C   0  0  0  0  0  0  0  0  0  0  0  0
   25.3294  -22.9039  -14.3742 C   0  0  0  0  0  0  0  0  0  0  0  0
   25.0981  -21.5727  -13.6910 C   0  0  2  0  0  0  0  0  0  0  0  0
   25.2457  -21.7659  -12.2318 N   0  0  0  0  0  0  0  0  0  0  0  0
   23.7580  -21.0501  -14.0144 C   0  0  0  0  0  0  0  0  0  0  0  0
   22.7518  -21.4432  -13.3421 O   0  0  0  0  0  0  0  0  0  0  0  0
   20.1364  -16.1712  -19.7006 N   0  0  0  0  0  0  0  0  0  0  0  0
   19.8591  -15.2619  -18.6530 C   0  0  0  0  0  0  0  0  0  0  0  0
   18.9120  -14.3796  -18.7972 N   0  0  0  0  0  0  0  0  0  0  0  0
   20.5367  -15.2241  -17.4174 N   0  0  0  0  0  0  0  0  0  0  0  0
   21.5985  -16.0895  -17.0383 C   0  0  0  0  0  0  0  0  0  0  0  0
   21.3055  -17.3122  -16.3351 C   0  0  0  0  0  0  0  0  0  0  0  0
   22.3949  -18.2260  -15.9754 C   0  0  0  0  0  0  0  0  0  0  0  0
   22.1456  -19.4952  -15.2309 C   0  0  2  0  0  0  0  0  0  0  0  0
   23.5031  -20.1235  -15.0318 N   0  0  0  0  0  0  0  0  0  0  0  0
   21.3703  -20.5528  -15.8502 C   0  0  0  0  0  0  0  0  0  0  0  0
   20.0205  -20.8167  -15.7179 O   0  0  0  0  0  0  0  0  0  0  0  0
   21.9709  -21.3798  -16.6265 O   0  0  0  0  0  0  0  0  0  0  0  0
  2  1  1  1
  2  3  1  0
  4  5  1  6
  4  2  1  0
  6  4  1  0
  7  6  2  0
  9  8  1  0
  9 10  2  0
 11 12  1  0
 11  9  1  0
 13 12  1  6
 13 14  1  0
 14  6  1  0
 15 13  1  0
 15 16  2  0
 18 17  1  0
 19 18  2  0
 20 18  1  0
 21 20  1  0
 22 23  1  0
 22 21  1  0
 24 23  1  6
 24 25  1  0
 25 15  1  0
 26 24  1  0
 27 26  1  0
 28 26  2  0
M  END
$$$$
