TQR.pdb
     RDKit          3D

 28 27  0  0  1  0  0  0  0  0999 V2000
   23.6366  -11.0867  -18.5510 C   0  0  0  0  0  0  0  0  0  0  0  0
   24.6420  -11.5008  -17.5485 C   0  0  1  0  0  0  0  0  0  0  0  0
   25.6200  -12.3640  -18.0314 O   0  0  0  0  0  0  0  0  0  0  0  0
   25.3405  -10.3692  -16.8202 C   0  0  2  0  0  0  0  0  0  0  0  0
   26.2206  -11.0552  -15.8544 N   0  0  0  0  0  0  0  0  0  0  0  0
   24.4188   -9.4318  -16.1859 C   0  0  0  0  0  0  0  0  0  0  0  0
   23.9542   -9.7776  -15.0331 O   0  0  0  0  0  0  0  0  0  0  0  0
   24.2638   -3.1919  -16.8184 N   0  0  0  0  0  0  0  0  0  0  0  0
   25.2386   -4.1013  -16.2900 C   0  0  0  0  0  0  0  0  0  0  0  0
   26.3829   -3.6152  -16.1246 O   0  0  0  0  0  0  0  0  0  0  0  0
   24.8722   -5.4721  -15.9833 C   0  0  0  0  0  0  0  0  0  0  0  0
   23.4636   -5.8630  -16.1824 C   0  0  0  0  0  0  0  0  0  0  0  0
   23.1073   -7.3004  -15.8669 C   0  0  2  0  0  0  0  0  0  0  0  0
   23.9731   -8.1839  -16.6783 N   0  0  0  0  0  0  0  0  0  0  0  0
   21.6846   -7.5570  -16.1557 C   0  0  0  0  0  0  0  0  0  0  0  0
   21.3141   -7.7587  -17.3561 O   0  0  0  0  0  0  0  0  0  0  0  0
   14.9700  -12.4013  -13.9581 N   0  0  0  0  0  0  0  0  0  0  0  0
   15.1565  -12.2822  -15.3554 C   0  0  0  0  0  0  0  0  0  0  0  0
   14.6079  -13.1501  -16.1567 N   0  0  0  0  0  0  0  0  0  0  0  0
   15.9069  -11.2687  -15.9853 N   0  0  0  0  0  0  0  0  0  0  0  0
   16.7474  -10.3366  -15.3183 C   0  0  0  0  0  0  0  0  0  0  0  0
   18.1450  -10.2648  -15.6601 C   0  0  0  0  0  0  0  0  0  0  0  0
   19.0153   -9.3036  -14.9746 C   0  0  0  0  0  0  0  0  0  0  0  0
   19.2472   -7.9296  -15.5092 C   0  0  2  0  0  0  0  0  0  0  0  0
   20.6828   -7.6017  -15.1794 N   0  0  0  0  0  0  0  0  0  0  0  0
   18.5088   -6.8090  -14.9597 C   0  0  0  0  0  0  0  0  0  0  0  0
   17.2574   -6.3472  -15.3199 O   0  0  0  0  0  0  0  0  0  0  0  0
   19.0467   -6.1225  -14.0180 O   0  0  0  0  0  0  0  0  0  0  0  0
  2  1  1  6
  2  3  1  0
  4  5  1  1
  4  2  1  0
  6  4  1  0
  7  6  2  0
  9  8  1  0
  9 10  2  0
 11 12  1  0
 11  9  1  0
 13 12  1  6
 13 14  1  0
 14  6  1  0
 15 13  1  0
 15 16  2  0
 18 17  1  0
 19 18  2  0
 20 18  1  0
 21 20  1  0
 22 23  1  0
 22 21  1  0
 24 23  1  1
 24 25  1  0
 25 15  1  0
 26 24  1  0
 27 26  1  0
 28 26  2  0
M  END
$$$$
