TQR.pdb
     RDKit          3D

 28 27  0  0  1  0  0  0  0  0999 V2000
   25.2184  -22.0178  -20.3655 C   0  0  0  0  0  0  0  0  0  0  0  0
   24.6142  -21.4790  -19.1278 C   0  0  1  0  0  0  0  0  0  0  0  0
   24.5662  -22.3782  -18.0677 O   0  0  0  0  0  0  0  0  0  0  0  0
   25.2219  -20.1884  -18.6142 C   0  0  2  0  0  0  0  0  0  0  0  0
   26.6492  -20.5143  -18.4290 N   0  0  0  0  0  0  0  0  0  0  0  0
   24.5874  -19.6932  -17.3965 C   0  0  0  0  0  0  0  0  0  0  0  0
   25.3794  -19.3414  -16.4409 O   0  0  0  0  0  0  0  0  0  0  0  0
   19.2494  -16.5094  -18.0544 N   0  0  0  0  0  0  0  0  0  0  0  0
   19.6624  -16.1442  -16.7306 C   0  0  0  0  0  0  0  0  0  0  0  0
   18.9808  -15.2390  -16.1930 O   0  0  0  0  0  0  0  0  0  0  0  0
   20.7912  -16.8089  -16.1050 C   0  0  0  0  0  0  0  0  0  0  0  0
   21.4891  -17.8487  -16.8852 C   0  0  0  0  0  0  0  0  0  0  0  0
   22.7007  -18.4845  -16.2370 C   0  0  2  0  0  0  0  0  0  0  0  0
   23.2060  -19.5464  -17.1344 N   0  0  0  0  0  0  0  0  0  0  0  0
   22.3506  -19.0407  -14.9173 C   0  0  0  0  0  0  0  0  0  0  0  0
   21.9229  -18.2660  -14.0030 O   0  0  0  0  0  0  0  0  0  0  0  0
   27.4566  -20.5460   -9.0507 N   0  0  0  0  0  0  0  0  0  0  0  0
   27.1874  -20.8816  -10.3983 C   0  0  0  0  0  0  0  0  0  0  0  0
   28.1721  -21.1602  -11.2039 N   0  0  0  0  0  0  0  0  0  0  0  0
   25.9011  -20.9493  -10.9710 N   0  0  0  0  0  0  0  0  0  0  0  0
   24.6792  -20.7904  -10.2625 C   0  0  0  0  0  0  0  0  0  0  0  0
   23.4272  -20.8978  -10.9670 C   0  0  0  0  0  0  0  0  0  0  0  0
   23.4028  -20.8005  -12.4302 C   0  0  0  0  0  0  0  0  0  0  0  0
   22.1338  -20.9182  -13.2069 C   0  0  2  0  0  0  0  0  0  0  0  0
   22.4516  -20.3969  -14.5870 N   0  0  0  0  0  0  0  0  0  0  0  0
   20.9731  -20.1441  -12.8113 C   0  0  0  0  0  0  0  0  0  0  0  0
   19.8341  -20.5780  -12.1605 O   0  0  0  0  0  0  0  0  0  0  0  0
   20.9505  -18.8899  -13.0828 O   0  0  0  0  0  0  0  0  0  0  0  0
  2  1  1  6
  2  3  1  0
  4  5  1  1
  4  2  1  0
  6  4  1  0
  7  6  2  0
  9  8  1  0
  9 10  2  0
 11 12  1  0
 11  9  1  0
 13 12  1  6
 13 14  1  0
 14  6  1  0
 15 13  1  0
 15 16  2  0
 18 17  1  0
 19 18  2  0
 20 18  1  0
 21 20  1  0
 22 23  1  0
 22 21  1  0
 24 23  1  1
 24 25  1  0
 25 15  1  0
 26 24  1  0
 27 26  1  0
 28 26  2  0
M  END
$$$$
