TQR.pdb
     RDKit          3D

 28 27  0  0  1  0  0  0  0  0999 V2000
   25.3491  -25.1296  -16.9105 C   0  0  0  0  0  0  0  0  0  0  0  0
   24.4547  -24.4773  -15.9298 C   0  0  1  0  0  0  0  0  0  0  0  0
   24.5842  -24.9461  -14.6266 O   0  0  0  0  0  0  0  0  0  0  0  0
   24.5272  -22.9635  -15.8876 C   0  0  2  0  0  0  0  0  0  0  0  0
   25.9742  -22.6760  -15.8495 N   0  0  0  0  0  0  0  0  0  0  0  0
   23.7999  -22.3794  -14.7649 C   0  0  0  0  0  0  0  0  0  0  0  0
   24.3448  -21.3552  -14.2007 O   0  0  0  0  0  0  0  0  0  0  0  0
   18.7581  -19.6736  -14.8516 N   0  0  0  0  0  0  0  0  0  0  0  0
   19.5733  -18.9948  -13.8866 C   0  0  0  0  0  0  0  0  0  0  0  0
   19.0328  -18.0051  -13.3377 O   0  0  0  0  0  0  0  0  0  0  0  0
   20.9173  -19.4641  -13.6023 C   0  0  0  0  0  0  0  0  0  0  0  0
   21.3776  -20.6801  -14.2996 C   0  0  0  0  0  0  0  0  0  0  0  0
   21.7196  -21.8720  -13.4308 C   0  0  2  0  0  0  0  0  0  0  0  0
   22.5642  -22.7961  -14.2190 N   0  0  0  0  0  0  0  0  0  0  0  0
   20.4925  -22.5494  -12.9738 C   0  0  0  0  0  0  0  0  0  0  0  0
   19.7493  -23.1407  -13.8206 O   0  0  0  0  0  0  0  0  0  0  0  0
   16.6086  -25.8973   -5.3888 N   0  0  0  0  0  0  0  0  0  0  0  0
   17.8405  -26.3046   -5.9527 C   0  0  0  0  0  0  0  0  0  0  0  0
   18.3856  -27.4250   -5.5734 N   0  0  0  0  0  0  0  0  0  0  0  0
   18.5582  -25.5838   -6.9287 N   0  0  0  0  0  0  0  0  0  0  0  0
   18.1494  -24.3485   -7.5005 C   0  0  0  0  0  0  0  0  0  0  0  0
   17.9853  -24.2430   -8.9279 C   0  0  0  0  0  0  0  0  0  0  0  0
   19.0169  -23.5818   -9.7339 C   0  0  0  0  0  0  0  0  0  0  0  0
   18.8527  -23.3665  -11.2016 C   0  0  2  0  0  0  0  0  0  0  0  0
   20.0743  -22.5961  -11.6390 N   0  0  0  0  0  0  0  0  0  0  0  0
   17.7508  -22.5615  -11.6924 C   0  0  0  0  0  0  0  0  0  0  0  0
   16.5252  -22.9850  -12.1695 O   0  0  0  0  0  0  0  0  0  0  0  0
   17.8841  -21.2850  -11.7108 O   0  0  0  0  0  0  0  0  0  0  0  0
  2  1  1  6
  2  3  1  0
  4  5  1  1
  4  2  1  0
  6  4  1  0
  7  6  2  0
  9  8  1  0
  9 10  2  0
 11 12  1  0
 11  9  1  0
 13 12  1  6
 13 14  1  0
 14  6  1  0
 15 13  1  0
 15 16  2  0
 18 17  1  0
 19 18  2  0
 20 18  1  0
 21 20  1  0
 22 23  1  0
 22 21  1  0
 24 23  1  1
 24 25  1  0
 25 15  1  0
 26 24  1  0
 27 26  1  0
 28 26  2  0
M  END
$$$$
