TQR.pdb
     RDKit          3D

 28 27  0  0  1  0  0  0  0  0999 V2000
   28.5896  -18.4344  -16.1109 C   0  0  0  0  0  0  0  0  0  0  0  0
   27.4748  -19.1223  -15.4243 C   0  0  1  0  0  0  0  0  0  0  0  0
   26.4096  -19.4657  -16.2504 O   0  0  0  0  0  0  0  0  0  0  0  0
   27.8602  -20.3537  -14.6283 C   0  0  2  0  0  0  0  0  0  0  0  0
   28.3488  -21.3007  -15.6491 N   0  0  0  0  0  0  0  0  0  0  0  0
   26.7650  -20.8928  -13.8279 C   0  0  0  0  0  0  0  0  0  0  0  0
   26.0081  -21.7630  -14.4060 O   0  0  0  0  0  0  0  0  0  0  0  0
   25.4000  -20.1542   -7.5960 N   0  0  0  0  0  0  0  0  0  0  0  0
   26.5205  -20.7792   -8.2365 C   0  0  0  0  0  0  0  0  0  0  0  0
   27.5052  -20.9958   -7.4904 O   0  0  0  0  0  0  0  0  0  0  0  0
   26.4637  -21.1181   -9.6469 C   0  0  0  0  0  0  0  0  0  0  0  0
   25.2363  -20.7640  -10.3851 C   0  0  0  0  0  0  0  0  0  0  0  0
   25.2051  -21.1151  -11.8576 C   0  0  2  0  0  0  0  0  0  0  0  0
   26.4314  -20.5814  -12.4899 N   0  0  0  0  0  0  0  0  0  0  0  0
   24.0019  -20.5541  -12.4988 C   0  0  0  0  0  0  0  0  0  0  0  0
   24.0876  -19.4637  -13.1491 O   0  0  0  0  0  0  0  0  0  0  0  0
   25.2933  -24.0708  -15.8895 N   0  0  0  0  0  0  0  0  0  0  0  0
   24.1427  -24.8484  -15.6197 C   0  0  0  0  0  0  0  0  0  0  0  0
   24.2738  -26.0471  -15.1275 N   0  0  0  0  0  0  0  0  0  0  0  0
   22.8153  -24.4275  -15.8390 N   0  0  0  0  0  0  0  0  0  0  0  0
   22.4187  -23.1009  -16.1600 C   0  0  0  0  0  0  0  0  0  0  0  0
   21.5364  -22.3861  -15.2735 C   0  0  0  0  0  0  0  0  0  0  0  0
   21.9558  -21.0994  -14.7081 C   0  0  0  0  0  0  0  0  0  0  0  0
   21.5924  -20.6931  -13.3188 C   0  0  2  0  0  0  0  0  0  0  0  0
   22.7370  -21.1509  -12.4484 N   0  0  0  0  0  0  0  0  0  0  0  0
   20.4275  -21.2743  -12.6800 C   0  0  0  0  0  0  0  0  0  0  0  0
   20.3836  -22.1896  -11.6459 O   0  0  0  0  0  0  0  0  0  0  0  0
   19.2634  -20.9298  -13.0967 O   0  0  0  0  0  0  0  0  0  0  0  0
  2  1  1  6
  2  3  1  0
  4  5  1  6
  4  2  1  0
  6  4  1  0
  7  6  2  0
  9  8  1  0
  9 10  2  0
 11 12  1  0
 11  9  1  0
 13 12  1  1
 13 14  1  0
 14  6  1  0
 15 13  1  0
 15 16  2  0
 18 17  1  0
 19 18  2  0
 20 18  1  0
 21 20  1  0
 22 23  1  0
 22 21  1  0
 24 23  1  6
 24 25  1  0
 25 15  1  0
 26 24  1  0
 27 26  1  0
 28 26  2  0
M  END
$$$$
