TQR.pdb
     RDKit          3D

 28 27  0  0  1  0  0  0  0  0999 V2000
   15.1905  -24.6579   -6.1581 C   0  0  0  0  0  0  0  0  0  0  0  0
   16.2203  -24.7593   -5.1013 C   0  0  1  0  0  0  0  0  0  0  0  0
   15.7185  -24.9818   -3.8232 O   0  0  0  0  0  0  0  0  0  0  0  0
   17.3151  -25.7773   -5.3537 C   0  0  2  0  0  0  0  0  0  0  0  0
   18.2908  -25.5276   -4.2751 N   0  0  0  0  0  0  0  0  0  0  0  0
   17.9013  -25.6797   -6.6869 C   0  0  0  0  0  0  0  0  0  0  0  0
   18.8400  -24.8076   -6.8369 O   0  0  0  0  0  0  0  0  0  0  0  0
   17.3155  -29.4409  -11.9044 N   0  0  0  0  0  0  0  0  0  0  0  0
   18.1867  -28.3804  -12.3202 C   0  0  0  0  0  0  0  0  0  0  0  0
   18.5989  -28.4648  -13.5017 O   0  0  0  0  0  0  0  0  0  0  0  0
   18.5303  -27.3107  -11.4009 C   0  0  0  0  0  0  0  0  0  0  0  0
   17.9713  -27.3769  -10.0371 C   0  0  0  0  0  0  0  0  0  0  0  0
   18.2497  -26.1956   -9.1318 C   0  0  2  0  0  0  0  0  0  0  0  0
   17.5694  -26.4288   -7.8390 N   0  0  0  0  0  0  0  0  0  0  0  0
   17.7759  -24.9447   -9.7516 C   0  0  0  0  0  0  0  0  0  0  0  0
   16.6006  -24.5261   -9.5017 O   0  0  0  0  0  0  0  0  0  0  0  0
   22.6241  -18.9110  -14.4793 N   0  0  0  0  0  0  0  0  0  0  0  0
   21.2812  -18.4663  -14.4760 C   0  0  0  0  0  0  0  0  0  0  0  0
   20.9663  -17.3577  -15.0828 N   0  0  0  0  0  0  0  0  0  0  0  0
   20.2098  -19.1409  -13.8562 N   0  0  0  0  0  0  0  0  0  0  0  0
   20.3267  -20.3259  -13.0801 C   0  0  0  0  0  0  0  0  0  0  0  0
   19.1521  -20.9022  -12.4772 C   0  0  0  0  0  0  0  0  0  0  0  0
   19.2404  -22.2032  -11.8057 C   0  0  0  0  0  0  0  0  0  0  0  0
   18.0532  -22.8418  -11.1654 C   0  0  2  0  0  0  0  0  0  0  0  0
   18.5462  -24.1578  -10.6154 N   0  0  0  0  0  0  0  0  0  0  0  0
   16.9132  -23.2200  -11.9780 C   0  0  0  0  0  0  0  0  0  0  0  0
   15.7795  -22.4827  -12.2611 O   0  0  0  0  0  0  0  0  0  0  0  0
   16.9065  -24.3822  -12.5226 O   0  0  0  0  0  0  0  0  0  0  0  0
  2  1  1  6
  2  3  1  0
  4  5  1  1
  4  2  1  0
  6  4  1  0
  7  6  2  0
  9  8  1  0
  9 10  2  0
 11 12  1  0
 11  9  1  0
 13 12  1  6
 13 14  1  0
 14  6  1  0
 15 13  1  0
 15 16  2  0
 18 17  1  0
 19 18  2  0
 20 18  1  0
 21 20  1  0
 22 23  1  0
 22 21  1  0
 24 23  1  6
 24 25  1  0
 25 15  1  0
 26 24  1  0
 27 26  1  0
 28 26  2  0
M  END
$$$$
