NSK.pdb
     RDKit          3D

 24 23  0  0  1  0  0  0  0  0999 V2000
    2.5427  -20.6828   14.9934 N   0  0  0  0  0  0  0  0  0  0  0  0
    3.5148  -19.6450   15.0875 C   0  0  0  0  0  0  0  0  0  0  0  0
    3.7850  -18.9926   14.0494 O   0  0  0  0  0  0  0  0  0  0  0  0
    4.1625  -19.3684   16.3788 C   0  0  0  0  0  0  0  0  0  0  0  0
    3.8264  -20.3537   17.4560 C   0  0  2  0  0  0  0  0  0  0  0  0
    2.4363  -20.7216   17.4760 N   0  0  0  0  0  0  0  0  0  0  0  0
    4.2358  -19.8276   18.7774 C   0  0  0  0  0  0  0  0  0  0  0  0
    5.4279  -19.4111   18.8795 O   0  0  0  0  0  0  0  0  0  0  0  0
    1.6607  -20.0361   22.0596 O   0  0  0  0  0  0  0  0  0  0  0  0
    2.5484  -18.9672   21.9616 C   0  0  0  0  0  0  0  0  0  0  0  0
    3.7673  -19.3194   21.1447 C   0  0  2  0  0  0  0  0  0  0  0  0
    3.3198  -19.8053   19.8536 N   0  0  0  0  0  0  0  0  0  0  0  0
    4.5699  -20.4026   21.7714 C   0  0  0  0  0  0  0  0  0  0  0  0
    4.4530  -21.5906   21.3807 O   0  0  0  0  0  0  0  0  0  0  0  0
    5.4836  -20.1297   22.8184 N   0  0  0  0  0  0  0  0  0  0  0  0
    6.2878  -21.1112   23.5030 C   0  0  1  0  0  0  0  0  0  0  0  0
    7.5548  -21.3628   22.7577 C   0  0  0  0  0  0  0  0  0  0  0  0
    8.3794  -22.4757   23.3388 C   0  0  0  0  0  0  0  0  0  0  0  0
    9.6420  -22.6863   22.5355 C   0  0  0  0  0  0  0  0  0  0  0  0
   10.4762  -23.8141   23.1080 C   0  0  0  0  0  0  0  0  0  0  0  0
   11.6998  -24.0429   22.3701 N   0  0  0  0  0  0  0  0  0  0  0  0
    6.6060  -20.6346   24.9014 C   0  0  0  0  0  0  0  0  0  0  0  0
    6.6958  -21.5463   25.9457 O   0  0  0  0  0  0  0  0  0  0  0  0
    6.7941  -19.4321   25.1595 O   0  0  0  0  0  0  0  0  0  0  0  0
  1  2  1  0
  2  3  2  0
  4  2  1  0
  4  5  1  0
  5  6  1  1
  7  5  1  0
  7  8  2  0
  9 10  1  0
 11 10  1  1
 11 12  1  0
 12  7  1  0
 13 11  1  0
 14 13  2  0
 15 13  1  0
 16 15  1  0
 16 22  1  0
 16 17  1  6
 18 17  1  0
 19 18  1  0
 20 19  1  0
 21 20  1  0
 22 23  1  0
 24 22  2  0
M  END
$$$$
