NSK.pdb
     RDKit          3D

 24 23  0  0  1  0  0  0  0  0999 V2000
    6.9930  -14.3677   17.3070 N   0  0  0  0  0  0  0  0  0  0  0  0
    7.8786  -13.3554   17.7781 C   0  0  0  0  0  0  0  0  0  0  0  0
    7.3786  -12.2937   18.2242 O   0  0  0  0  0  0  0  0  0  0  0  0
    9.3316  -13.5799   17.7327 C   0  0  0  0  0  0  0  0  0  0  0  0
    9.7260  -14.9414   17.2481 C   0  0  2  0  0  0  0  0  0  0  0  0
    9.1234  -15.2936   15.9907 N   0  0  0  0  0  0  0  0  0  0  0  0
    9.4076  -15.9617   18.2719 C   0  0  0  0  0  0  0  0  0  0  0  0
    8.8059  -17.0019   17.8708 O   0  0  0  0  0  0  0  0  0  0  0  0
   10.3281  -19.1276   20.8899 O   0  0  0  0  0  0  0  0  0  0  0  0
   10.4062  -18.0285   20.0378 C   0  0  0  0  0  0  0  0  0  0  0  0
    9.6206  -16.8515   20.5621 C   0  0  2  0  0  0  0  0  0  0  0  0
    9.7687  -15.7563   19.6230 N   0  0  0  0  0  0  0  0  0  0  0  0
   10.1276  -16.3785   21.8772 C   0  0  0  0  0  0  0  0  0  0  0  0
   11.2861  -15.9046   21.9812 O   0  0  0  0  0  0  0  0  0  0  0  0
    9.3257  -16.4465   23.0425 N   0  0  0  0  0  0  0  0  0  0  0  0
    9.7251  -16.0132   24.3583 C   0  0  1  0  0  0  0  0  0  0  0  0
    8.5314  -15.6511   25.1758 C   0  0  0  0  0  0  0  0  0  0  0  0
    8.0464  -14.2496   24.9377 C   0  0  0  0  0  0  0  0  0  0  0  0
    6.8065  -13.9632   25.7528 C   0  0  0  0  0  0  0  0  0  0  0  0
    6.3814  -12.5153   25.6169 C   0  0  0  0  0  0  0  0  0  0  0  0
    5.1777  -12.2076   26.3587 N   0  0  0  0  0  0  0  0  0  0  0  0
   10.5020  -17.1094   25.0501 C   0  0  0  0  0  0  0  0  0  0  0  0
   11.5455  -16.7895   25.9097 O   0  0  0  0  0  0  0  0  0  0  0  0
   10.2386  -18.3128   24.8756 O   0  0  0  0  0  0  0  0  0  0  0  0
  1  2  1  0
  2  3  2  0
  4  2  1  0
  4  5  1  0
  5  6  1  6
  7  5  1  0
  7  8  2  0
  9 10  1  0
 11 10  1  6
 11 12  1  0
 12  7  1  0
 13 11  1  0
 14 13  2  0
 15 13  1  0
 16 15  1  0
 16 22  1  0
 16 17  1  1
 18 17  1  0
 19 18  1  0
 20 19  1  0
 21 20  1  0
 22 23  1  0
 24 22  2  0
M  END
$$$$
