NSK.pdb
     RDKit          3D

 24 23  0  0  1  0  0  0  0  0999 V2000
    6.7814  -15.7090   15.0669 N   0  0  0  0  0  0  0  0  0  0  0  0
    8.1595  -15.9808   15.3076 C   0  0  0  0  0  0  0  0  0  0  0  0
    8.7359  -16.8132   14.5653 O   0  0  0  0  0  0  0  0  0  0  0  0
    8.8589  -15.2871   16.3998 C   0  0  0  0  0  0  0  0  0  0  0  0
    7.9779  -14.4002   17.2253 C   0  0  2  0  0  0  0  0  0  0  0  0
    7.8059  -13.0878   16.6631 N   0  0  0  0  0  0  0  0  0  0  0  0
    8.5009  -14.3011   18.6063 C   0  0  0  0  0  0  0  0  0  0  0  0
    9.7244  -13.9972   18.7310 O   0  0  0  0  0  0  0  0  0  0  0  0
    6.2353  -15.4812   21.9850 O   0  0  0  0  0  0  0  0  0  0  0  0
    7.0646  -14.3628   22.0273 C   0  0  0  0  0  0  0  0  0  0  0  0
    8.2085  -14.4716   21.0492 C   0  0  2  0  0  0  0  0  0  0  0  0
    7.6527  -14.5408   19.7114 N   0  0  0  0  0  0  0  0  0  0  0  0
    9.0119  -15.7048   21.2590 C   0  0  0  0  0  0  0  0  0  0  0  0
    8.7713  -16.7434   20.5950 O   0  0  0  0  0  0  0  0  0  0  0  0
   10.0646  -15.7448   22.2054 N   0  0  0  0  0  0  0  0  0  0  0  0
   10.8228  -16.9179   22.5631 C   0  0  1  0  0  0  0  0  0  0  0  0
   12.2090  -16.8319   22.0197 C   0  0  0  0  0  0  0  0  0  0  0  0
   12.6797  -18.1058   21.3779 C   0  0  0  0  0  0  0  0  0  0  0  0
   14.0866  -17.9536   20.8475 C   0  0  0  0  0  0  0  0  0  0  0  0
   14.5203  -19.1845   20.0780 C   0  0  0  0  0  0  0  0  0  0  0  0
   15.8346  -19.0483   19.4881 N   0  0  0  0  0  0  0  0  0  0  0  0
   10.8737  -17.0621   24.0666 C   0  0  0  0  0  0  0  0  0  0  0  0
   10.3471  -16.0675   24.8812 O   0  0  0  0  0  0  0  0  0  0  0  0
   11.3801  -18.0574   24.6150 O   0  0  0  0  0  0  0  0  0  0  0  0
  1  2  1  0
  2  3  2  0
  4  2  1  0
  4  5  1  0
  5  6  1  6
  7  5  1  0
  7  8  2  0
  9 10  1  0
 11 10  1  1
 11 12  1  0
 12  7  1  0
 13 11  1  0
 14 13  2  0
 15 13  1  0
 16 15  1  0
 16 22  1  0
 16 17  1  1
 18 17  1  0
 19 18  1  0
 20 19  1  0
 21 20  1  0
 22 23  1  0
 24 22  2  0
M  END
$$$$
