NSK.pdb
     RDKit          3D

 24 23  0  0  1  0  0  0  0  0999 V2000
   11.7994  -22.0966   13.5425 N   0  0  0  0  0  0  0  0  0  0  0  0
   12.9753  -21.3290   13.7852 C   0  0  0  0  0  0  0  0  0  0  0  0
   13.8205  -21.2348   12.8615 O   0  0  0  0  0  0  0  0  0  0  0  0
   13.1623  -20.6753   15.0894 C   0  0  0  0  0  0  0  0  0  0  0  0
   11.9039  -20.1183   15.6813 C   0  0  2  0  0  0  0  0  0  0  0  0
   11.3258  -19.0614   14.8958 N   0  0  0  0  0  0  0  0  0  0  0  0
   12.1509  -19.6521   17.0641 C   0  0  0  0  0  0  0  0  0  0  0  0
   13.0677  -18.7916   17.2192 O   0  0  0  0  0  0  0  0  0  0  0  0
    9.2173  -19.6472   19.8119 O   0  0  0  0  0  0  0  0  0  0  0  0
   10.3613  -18.8543   19.8651 C   0  0  0  0  0  0  0  0  0  0  0  0
   11.5983  -19.6217   19.4674 C   0  0  2  0  0  0  0  0  0  0  0  0
   11.3860  -20.1614   18.1381 N   0  0  0  0  0  0  0  0  0  0  0  0
   11.8631  -20.7698   20.3741 C   0  0  0  0  0  0  0  0  0  0  0  0
   11.2152  -21.8392   20.2552 O   0  0  0  0  0  0  0  0  0  0  0  0
   12.8466  -20.6931   21.3902 N   0  0  0  0  0  0  0  0  0  0  0  0
   13.0954  -21.7013   22.3904 C   0  0  1  0  0  0  0  0  0  0  0  0
   14.5575  -21.9681   22.5135 C   0  0  0  0  0  0  0  0  0  0  0  0
   15.1886  -22.4416   21.2353 C   0  0  0  0  0  0  0  0  0  0  0  0
   16.6742  -22.6535   21.4146 C   0  0  0  0  0  0  0  0  0  0  0  0
   17.3003  -23.2414   20.1666 C   0  0  0  0  0  0  0  0  0  0  0  0
   18.7381  -23.3728   20.2637 N   0  0  0  0  0  0  0  0  0  0  0  0
   12.5458  -21.2526   23.7248 C   0  0  0  0  0  0  0  0  0  0  0  0
   12.3589  -22.1737   24.7478 O   0  0  0  0  0  0  0  0  0  0  0  0
   12.2473  -20.0655   23.9474 O   0  0  0  0  0  0  0  0  0  0  0  0
  1  2  1  0
  2  3  2  0
  4  2  1  0
  4  5  1  0
  5  6  1  6
  7  5  1  0
  7  8  2  0
  9 10  1  0
 11 10  1  1
 11 12  1  0
 12  7  1  0
 13 11  1  0
 14 13  2  0
 15 13  1  0
 16 15  1  0
 16 22  1  0
 16 17  1  1
 18 17  1  0
 19 18  1  0
 20 19  1  0
 21 20  1  0
 22 23  1  0
 24 22  2  0
M  END
$$$$
