NSK.pdb
     RDKit          3D

 24 23  0  0  1  0  0  0  0  0999 V2000
   10.1286  -18.9313   17.2910 N   0  0  0  0  0  0  0  0  0  0  0  0
    8.9513  -19.5376   17.8177 C   0  0  0  0  0  0  0  0  0  0  0  0
    9.0286  -20.7227   18.2250 O   0  0  0  0  0  0  0  0  0  0  0  0
    7.6982  -18.7694   17.8723 C   0  0  0  0  0  0  0  0  0  0  0  0
    7.8407  -17.3355   17.4628 C   0  0  2  0  0  0  0  0  0  0  0  0
    8.6555  -17.1573   16.2913 N   0  0  0  0  0  0  0  0  0  0  0  0
    8.3757  -16.5329   18.5854 C   0  0  0  0  0  0  0  0  0  0  0  0
    9.6115  -16.2564   18.5489 O   0  0  0  0  0  0  0  0  0  0  0  0
    6.2566  -15.9549   22.1467 O   0  0  0  0  0  0  0  0  0  0  0  0
    6.9484  -14.8753   21.6026 C   0  0  0  0  0  0  0  0  0  0  0  0
    8.0833  -15.3228   20.7143 C   0  0  2  0  0  0  0  0  0  0  0  0
    7.5252  -16.1118   19.6328 N   0  0  0  0  0  0  0  0  0  0  0  0
    9.0552  -16.1858   21.4360 C   0  0  0  0  0  0  0  0  0  0  0  0
    9.5935  -17.1621   20.8575 O   0  0  0  0  0  0  0  0  0  0  0  0
    9.4011  -15.9346   22.7861 N   0  0  0  0  0  0  0  0  0  0  0  0
   10.4700  -16.5780   23.5086 C   0  0  1  0  0  0  0  0  0  0  0  0
   11.7765  -16.3469   22.8276 C   0  0  0  0  0  0  0  0  0  0  0  0
   12.9256  -17.0610   23.4802 C   0  0  0  0  0  0  0  0  0  0  0  0
   14.2187  -16.7797   22.7504 C   0  0  0  0  0  0  0  0  0  0  0  0
   15.3817  -17.5092   23.3913 C   0  0  0  0  0  0  0  0  0  0  0  0
   16.6485  -17.2247   22.7525 N   0  0  0  0  0  0  0  0  0  0  0  0
   10.5319  -16.0466   24.9221 C   0  0  0  0  0  0  0  0  0  0  0  0
    9.6787  -15.0256   25.3216 O   0  0  0  0  0  0  0  0  0  0  0  0
   11.3346  -16.4968   25.7593 O   0  0  0  0  0  0  0  0  0  0  0  0
  1  2  1  0
  2  3  2  0
  4  2  1  0
  4  5  1  0
  5  6  1  6
  7  5  1  0
  7  8  2  0
  9 10  1  0
 11 10  1  1
 11 12  1  0
 12  7  1  0
 13 11  1  0
 14 13  2  0
 15 13  1  0
 16 15  1  0
 16 22  1  0
 16 17  1  6
 18 17  1  0
 19 18  1  0
 20 19  1  0
 21 20  1  0
 22 23  1  0
 24 22  2  0
M  END
$$$$
