NSK.pdb
     RDKit          3D

 24 23  0  0  1  0  0  0  0  0999 V2000
    6.8139  -17.8974   17.3479 N   0  0  0  0  0  0  0  0  0  0  0  0
    6.0287  -17.9787   18.5345 C   0  0  0  0  0  0  0  0  0  0  0  0
    5.1612  -18.8833   18.6081 O   0  0  0  0  0  0  0  0  0  0  0  0
    6.2548  -17.0179   19.6249 C   0  0  0  0  0  0  0  0  0  0  0  0
    7.1877  -15.9000   19.2725 C   0  0  2  0  0  0  0  0  0  0  0  0
    7.9745  -16.1653   18.0983 N   0  0  0  0  0  0  0  0  0  0  0  0
    8.0693  -15.5877   20.4195 C   0  0  0  0  0  0  0  0  0  0  0  0
    9.2750  -15.9662   20.3301 O   0  0  0  0  0  0  0  0  0  0  0  0
    6.6031  -13.8862   23.9883 O   0  0  0  0  0  0  0  0  0  0  0  0
    7.8222  -13.4755   23.4541 C   0  0  0  0  0  0  0  0  0  0  0  0
    8.4680  -14.5585   22.6250 C   0  0  2  0  0  0  0  0  0  0  0  0
    7.5616  -14.9010   21.5458 N   0  0  0  0  0  0  0  0  0  0  0  0
    8.7103  -15.7978   23.4097 C   0  0  0  0  0  0  0  0  0  0  0  0
    7.8318  -16.6931   23.4753 O   0  0  0  0  0  0  0  0  0  0  0  0
    9.9292  -16.0048   24.1002 N   0  0  0  0  0  0  0  0  0  0  0  0
   10.2376  -17.1440   24.9284 C   0  0  1  0  0  0  0  0  0  0  0  0
   11.6062  -17.6550   24.6284 C   0  0  0  0  0  0  0  0  0  0  0  0
   11.9475  -18.9185   25.3655 C   0  0  0  0  0  0  0  0  0  0  0  0
   13.3084  -19.4310   24.9540 C   0  0  0  0  0  0  0  0  0  0  0  0
   13.6013  -20.7785   25.5816 C   0  0  0  0  0  0  0  0  0  0  0  0
   14.7718  -21.4199   25.0227 N   0  0  0  0  0  0  0  0  0  0  0  0
   10.1456  -16.7623   26.3878 C   0  0  0  0  0  0  0  0  0  0  0  0
   10.0003  -17.7457   27.3584 O   0  0  0  0  0  0  0  0  0  0  0  0
   10.1951  -15.5768   26.7619 O   0  0  0  0  0  0  0  0  0  0  0  0
  1  2  1  0
  2  3  2  0
  4  2  1  0
  4  5  1  0
  5  6  1  6
  7  5  1  0
  7  8  2  0
  9 10  1  0
 11 10  1  1
 11 12  1  0
 12  7  1  0
 13 11  1  0
 14 13  2  0
 15 13  1  0
 16 15  1  0
 16 22  1  0
 16 17  1  6
 18 17  1  0
 19 18  1  0
 20 19  1  0
 21 20  1  0
 22 23  1  0
 24 22  2  0
M  END
$$$$
