NSK.pdb
     RDKit          3D

 24 23  0  0  1  0  0  0  0  0999 V2000
    7.9096  -12.9140   13.6373 N   0  0  0  0  0  0  0  0  0  0  0  0
    7.6092  -13.9072   14.6143 C   0  0  0  0  0  0  0  0  0  0  0  0
    7.1545  -15.0080   14.2173 O   0  0  0  0  0  0  0  0  0  0  0  0
    7.8398  -13.6212   16.0385 C   0  0  0  0  0  0  0  0  0  0  0  0
    8.4394  -14.7616   16.8028 C   0  0  2  0  0  0  0  0  0  0  0  0
    7.6146  -15.9397   16.8061 N   0  0  0  0  0  0  0  0  0  0  0  0
    8.7427  -14.3452   18.1903 C   0  0  0  0  0  0  0  0  0  0  0  0
    9.6913  -13.5193   18.3421 O   0  0  0  0  0  0  0  0  0  0  0  0
    6.5979  -15.8318   21.5510 O   0  0  0  0  0  0  0  0  0  0  0  0
    7.1934  -14.5732   21.5119 C   0  0  0  0  0  0  0  0  0  0  0  0
    8.4146  -14.5544   20.6256 C   0  0  2  0  0  0  0  0  0  0  0  0
    7.9940  -14.8620   19.2721 N   0  0  0  0  0  0  0  0  0  0  0  0
    9.4133  -15.5815   21.0230 C   0  0  0  0  0  0  0  0  0  0  0  0
    9.4643  -16.6858   20.4268 O   0  0  0  0  0  0  0  0  0  0  0  0
   10.3302  -15.3472   22.0765 N   0  0  0  0  0  0  0  0  0  0  0  0
   11.3412  -16.2717   22.5257 C   0  0  1  0  0  0  0  0  0  0  0  0
   12.7031  -15.7564   22.2036 C   0  0  0  0  0  0  0  0  0  0  0  0
   12.9706  -15.6547   20.7290 C   0  0  0  0  0  0  0  0  0  0  0  0
   14.3127  -15.0106   20.4685 C   0  0  0  0  0  0  0  0  0  0  0  0
   14.5438  -14.8018   18.9858 C   0  0  0  0  0  0  0  0  0  0  0  0
   15.7172  -14.0034   18.7036 N   0  0  0  0  0  0  0  0  0  0  0  0
   11.2184  -16.4881   24.0164 C   0  0  0  0  0  0  0  0  0  0  0  0
   11.9409  -17.4998   24.6364 O   0  0  0  0  0  0  0  0  0  0  0  0
   10.4794  -15.7811   24.7248 O   0  0  0  0  0  0  0  0  0  0  0  0
  1  2  1  0
  2  3  2  0
  4  2  1  0
  4  5  1  0
  5  6  1  1
  7  5  1  0
  7  8  2  0
  9 10  1  0
 11 10  1  1
 11 12  1  0
 12  7  1  0
 13 11  1  0
 14 13  2  0
 15 13  1  0
 16 15  1  0
 16 22  1  0
 16 17  1  1
 18 17  1  0
 19 18  1  0
 20 19  1  0
 21 20  1  0
 22 23  1  0
 24 22  2  0
M  END
$$$$
