NSK.pdb
     RDKit          3D

 24 23  0  0  1  0  0  0  0  0999 V2000
    9.2291  -15.0611   15.2821 N   0  0  0  0  0  0  0  0  0  0  0  0
    8.1758  -14.1454   15.5701 C   0  0  0  0  0  0  0  0  0  0  0  0
    7.5165  -13.6815   14.6076 O   0  0  0  0  0  0  0  0  0  0  0  0
    7.8918  -13.7771   16.9655 C   0  0  0  0  0  0  0  0  0  0  0  0
    8.7102  -14.5231   17.9744 C   0  0  2  0  0  0  0  0  0  0  0  0
    8.6439  -15.9509   17.8162 N   0  0  0  0  0  0  0  0  0  0  0  0
    8.3058  -14.1407   19.3458 C   0  0  0  0  0  0  0  0  0  0  0  0
    8.5474  -12.9481   19.6986 O   0  0  0  0  0  0  0  0  0  0  0  0
    6.3543  -16.8475   21.9085 O   0  0  0  0  0  0  0  0  0  0  0  0
    6.1649  -15.4712   22.0088 C   0  0  0  0  0  0  0  0  0  0  0  0
    7.3834  -14.7003   21.5635 C   0  0  2  0  0  0  0  0  0  0  0  0
    7.6840  -15.0823   20.1971 N   0  0  0  0  0  0  0  0  0  0  0  0
    8.5808  -15.0181   22.3855 C   0  0  0  0  0  0  0  0  0  0  0  0
    9.5757  -15.5857   21.8704 O   0  0  0  0  0  0  0  0  0  0  0  0
    8.6354  -14.6921   23.7626 N   0  0  0  0  0  0  0  0  0  0  0  0
    9.6564  -15.1248   24.6840 C   0  0  1  0  0  0  0  0  0  0  0  0
    9.3184  -14.7066   26.0751 C   0  0  0  0  0  0  0  0  0  0  0  0
   10.3649  -15.0847   27.0841 C   0  0  0  0  0  0  0  0  0  0  0  0
    9.9624  -14.6379   28.4705 C   0  0  0  0  0  0  0  0  0  0  0  0
   11.0612  -14.9117   29.4771 C   0  0  0  0  0  0  0  0  0  0  0  0
   10.7786  -14.3624   30.7857 N   0  0  0  0  0  0  0  0  0  0  0  0
    9.8022  -16.6279   24.6257 C   0  0  0  0  0  0  0  0  0  0  0  0
   11.0640  -17.2040   24.5480 O   0  0  0  0  0  0  0  0  0  0  0  0
    8.8155  -17.3855   24.6442 O   0  0  0  0  0  0  0  0  0  0  0  0
  1  2  1  0
  2  3  2  0
  4  2  1  0
  4  5  1  0
  5  6  1  1
  7  5  1  0
  7  8  2  0
  9 10  1  0
 11 10  1  1
 11 12  1  0
 12  7  1  0
 13 11  1  0
 14 13  2  0
 15 13  1  0
 16 15  1  0
 16 22  1  0
 16 17  1  1
 18 17  1  0
 19 18  1  0
 20 19  1  0
 21 20  1  0
 22 23  1  0
 24 22  2  0
M  END
$$$$
