YNS.pdb
     RDKit          3D

 27 27  0  0  1  0  0  0  0  0999 V2000
   23.5325  -15.2565  -21.9482 O   0  0  0  0  0  0  0  0  0  0  0  0
   22.8923  -14.1204  -21.4947 C   0  0  0  0  0  0  0  0  0  0  0  0
   23.6037  -13.2491  -20.6728 C   0  0  0  0  0  0  0  0  0  0  0  0
   23.0025  -12.1048  -20.1987 C   0  0  0  0  0  0  0  0  0  0  0  0
   21.6940  -11.7775  -20.5126 C   0  0  0  0  0  0  0  0  0  0  0  0
   21.0864  -10.5507  -19.9860 C   0  0  0  0  0  0  0  0  0  0  0  0
   20.6524  -10.7455  -18.5415 C   0  0  2  0  0  0  0  0  0  0  0  0
   19.5894  -11.7276  -18.5803 N   0  0  0  0  0  0  0  0  0  0  0  0
   20.2179   -9.4449  -17.9700 C   0  0  0  0  0  0  0  0  0  0  0  0
   19.1408   -8.9154  -18.3840 O   0  0  0  0  0  0  0  0  0  0  0  0
   21.0171  -12.6526  -21.3240 C   0  0  0  0  0  0  0  0  0  0  0  0
   21.5802  -13.8244  -21.8280 C   0  0  0  0  0  0  0  0  0  0  0  0
   19.3470   -8.9306  -14.4189 N   0  0  0  0  0  0  0  0  0  0  0  0
   20.5185   -8.2388  -13.9969 C   0  0  0  0  0  0  0  0  0  0  0  0
   20.8727   -8.3568  -12.8090 O   0  0  0  0  0  0  0  0  0  0  0  0
   21.2872   -7.4055  -14.9476 C   0  0  0  0  0  0  0  0  0  0  0  0
   20.6971   -7.5472  -16.3480 C   0  0  2  0  0  0  0  0  0  0  0  0
   20.9967   -8.8023  -16.9729 N   0  0  0  0  0  0  0  0  0  0  0  0
   20.9720   -6.3916  -17.1908 C   0  0  0  0  0  0  0  0  0  0  0  0
   22.1694   -6.2429  -17.6182 O   0  0  0  0  0  0  0  0  0  0  0  0
   18.0287   -3.6512  -17.9694 O   0  0  0  0  0  0  0  0  0  0  0  0
   18.9273   -3.9004  -19.0074 C   0  0  0  0  0  0  0  0  0  0  0  0
   20.2452   -4.3451  -18.4300 C   0  0  2  0  0  0  0  0  0  0  0  0
   19.9841   -5.4615  -17.5335 N   0  0  0  0  0  0  0  0  0  0  0  0
   20.9305   -3.2431  -17.7088 C   0  0  0  0  0  0  0  0  0  0  0  0
   21.1581   -3.3745  -16.4882 O   0  0  0  0  0  0  0  0  0  0  0  0
   21.3190   -2.0817  -18.3545 O   0  0  0  0  0  0  0  0  0  0  0  0
  1  2  1  0
  2  3  2  0
  3  4  1  0
  5  6  1  0
  5  4  2  0
  6  7  1  0
  7  8  1  6
  7  9  1  0
  9 10  2  0
 11  5  1  0
 12 11  2  0
 12  2  1  0
 14 15  2  0
 14 13  1  0
 16 14  1  0
 17 16  1  1
 18  9  1  0
 18 17  1  0
 19 17  1  0
 19 20  2  0
 21 22  1  0
 23 22  1  1
 23 24  1  0
 24 19  1  0
 25 23  1  0
 26 25  2  0
 27 25  1  0
M  END
$$$$
