YNS.pdb
     RDKit          3D

 27 27  0  0  1  0  0  0  0  0999 V2000
   21.5948  -16.2700  -19.4965 O   0  0  0  0  0  0  0  0  0  0  0  0
   21.3859  -14.9274  -19.2515 C   0  0  0  0  0  0  0  0  0  0  0  0
   21.3144  -14.0639  -20.3425 C   0  0  0  0  0  0  0  0  0  0  0  0
   21.1074  -12.7175  -20.1422 C   0  0  0  0  0  0  0  0  0  0  0  0
   20.9633  -12.1760  -18.8758 C   0  0  0  0  0  0  0  0  0  0  0  0
   20.7470  -10.7357  -18.7019 C   0  0  0  0  0  0  0  0  0  0  0  0
   19.2632  -10.4290  -18.5715 C   0  0  2  0  0  0  0  0  0  0  0  0
   18.6862  -10.7253  -19.8659 N   0  0  0  0  0  0  0  0  0  0  0  0
   19.0791   -9.0115  -18.1668 C   0  0  0  0  0  0  0  0  0  0  0  0
   19.1898   -8.0982  -19.0418 O   0  0  0  0  0  0  0  0  0  0  0  0
   21.0375  -13.0489  -17.8198 C   0  0  0  0  0  0  0  0  0  0  0  0
   21.2473  -14.4192  -17.9698 C   0  0  0  0  0  0  0  0  0  0  0  0
   16.2590   -5.3187  -14.2500 N   0  0  0  0  0  0  0  0  0  0  0  0
   17.0573   -5.6827  -15.3722 C   0  0  0  0  0  0  0  0  0  0  0  0
   17.6412   -4.7760  -15.9945 O   0  0  0  0  0  0  0  0  0  0  0  0
   17.1842   -7.0989  -15.7812 C   0  0  0  0  0  0  0  0  0  0  0  0
   18.5973   -7.3601  -16.2952 C   0  0  2  0  0  0  0  0  0  0  0  0
   18.7825   -8.6820  -16.8188 N   0  0  0  0  0  0  0  0  0  0  0  0
   19.6228   -6.9574  -15.3426 C   0  0  0  0  0  0  0  0  0  0  0  0
   20.2052   -7.8812  -14.6749 O   0  0  0  0  0  0  0  0  0  0  0  0
   23.4997   -5.5224  -14.3093 O   0  0  0  0  0  0  0  0  0  0  0  0
   22.3444   -5.9184  -14.9843 C   0  0  0  0  0  0  0  0  0  0  0  0
   21.1509   -5.2301  -14.3764 C   0  0  2  0  0  0  0  0  0  0  0  0
   19.9758   -5.6180  -15.1425 N   0  0  0  0  0  0  0  0  0  0  0  0
   21.3096   -3.7539  -14.3718 C   0  0  0  0  0  0  0  0  0  0  0  0
   21.7020   -3.1955  -13.3262 O   0  0  0  0  0  0  0  0  0  0  0  0
   21.0335   -2.9888  -15.4920 O   0  0  0  0  0  0  0  0  0  0  0  0
  1  2  1  0
  2  3  2  0
  3  4  1  0
  5  6  1  0
  5  4  2  0
  6  7  1  0
  7  8  1  6
  7  9  1  0
  9 10  2  0
 11  5  1  0
 12 11  2  0
 12  2  1  0
 14 15  2  0
 14 13  1  0
 16 14  1  0
 17 16  1  1
 18  9  1  0
 18 17  1  0
 19 17  1  0
 19 20  2  0
 21 22  1  0
 23 22  1  6
 23 24  1  0
 24 19  1  0
 25 23  1  0
 26 25  2  0
 27 25  1  0
M  END
$$$$
