YNS.pdb
     RDKit          3D

 27 27  0  0  1  0  0  0  0  0999 V2000
   19.6637  -12.0158  -22.8814 O   0  0  0  0  0  0  0  0  0  0  0  0
   19.4220  -11.0456  -21.9291 C   0  0  0  0  0  0  0  0  0  0  0  0
   20.4189  -10.7818  -20.9924 C   0  0  0  0  0  0  0  0  0  0  0  0
   20.2184   -9.8221  -20.0257 C   0  0  0  0  0  0  0  0  0  0  0  0
   19.0437   -9.0932  -19.9456 C   0  0  0  0  0  0  0  0  0  0  0  0
   18.8653   -8.0808  -18.8994 C   0  0  0  0  0  0  0  0  0  0  0  0
   18.8342   -8.7308  -17.5248 C   0  0  2  0  0  0  0  0  0  0  0  0
   17.6319   -9.5370  -17.4994 N   0  0  0  0  0  0  0  0  0  0  0  0
   18.8487   -7.6804  -16.4743 C   0  0  0  0  0  0  0  0  0  0  0  0
   17.7627   -7.1015  -16.1622 O   0  0  0  0  0  0  0  0  0  0  0  0
   18.0793   -9.3731  -20.8806 C   0  0  0  0  0  0  0  0  0  0  0  0
   18.2331  -10.3356  -21.8776 C   0  0  0  0  0  0  0  0  0  0  0  0
   19.5295   -8.3132  -13.1444 N   0  0  0  0  0  0  0  0  0  0  0  0
   20.7999   -7.7096  -12.9195 C   0  0  0  0  0  0  0  0  0  0  0  0
   21.4880   -8.1290  -11.9702 O   0  0  0  0  0  0  0  0  0  0  0  0
   21.2817   -6.6161  -13.7920 C   0  0  0  0  0  0  0  0  0  0  0  0
   20.2246   -6.2963  -14.8454 C   0  0  2  0  0  0  0  0  0  0  0  0
   20.0615   -7.3286  -15.8269 N   0  0  0  0  0  0  0  0  0  0  0  0
   20.3865   -4.9656  -15.4149 C   0  0  0  0  0  0  0  0  0  0  0  0
   21.1564   -4.8467  -16.4305 O   0  0  0  0  0  0  0  0  0  0  0  0
   21.5902   -0.9068  -15.9302 O   0  0  0  0  0  0  0  0  0  0  0  0
   21.3892   -2.2025  -15.4528 C   0  0  0  0  0  0  0  0  0  0  0  0
   19.9150   -2.5103  -15.4512 C   0  0  2  0  0  0  0  0  0  0  0  0
   19.7391   -3.8414  -14.8896 N   0  0  0  0  0  0  0  0  0  0  0  0
   19.3354   -2.4366  -16.8162 C   0  0  0  0  0  0  0  0  0  0  0  0
   18.8175   -3.4624  -17.3047 O   0  0  0  0  0  0  0  0  0  0  0  0
   19.3573   -1.2653  -17.5538 O   0  0  0  0  0  0  0  0  0  0  0  0
  1  2  1  0
  2  3  2  0
  3  4  1  0
  5  6  1  0
  5  4  2  0
  6  7  1  0
  7  8  1  6
  7  9  1  0
  9 10  2  0
 11  5  1  0
 12 11  2  0
 12  2  1  0
 14 15  2  0
 14 13  1  0
 16 14  1  0
 17 16  1  6
 18  9  1  0
 18 17  1  0
 19 17  1  0
 19 20  2  0
 21 22  1  0
 23 22  1  6
 23 24  1  0
 24 19  1  0
 25 23  1  0
 26 25  2  0
 27 25  1  0
M  END
$$$$
