YNS.pdb
     RDKit          3D

 27 27  0  0  1  0  0  0  0  0999 V2000
   18.0217  -16.9830  -18.4390 O   0  0  0  0  0  0  0  0  0  0  0  0
   18.7290  -15.8617  -18.0536 C   0  0  0  0  0  0  0  0  0  0  0  0
   19.8942  -16.0427  -17.3116 C   0  0  0  0  0  0  0  0  0  0  0  0
   20.6292  -14.9511  -16.9070 C   0  0  0  0  0  0  0  0  0  0  0  0
   20.2509  -13.6549  -17.2146 C   0  0  0  0  0  0  0  0  0  0  0  0
   21.0583  -12.5165  -16.7634 C   0  0  0  0  0  0  0  0  0  0  0  0
   21.8575  -11.9353  -17.9194 C   0  0  2  0  0  0  0  0  0  0  0  0
   22.7931  -12.9693  -18.3085 N   0  0  0  0  0  0  0  0  0  0  0  0
   22.5275  -10.6827  -17.4844 C   0  0  0  0  0  0  0  0  0  0  0  0
   23.7884  -10.6743  -17.3353 O   0  0  0  0  0  0  0  0  0  0  0  0
   19.1000  -13.5057  -17.9466 C   0  0  0  0  0  0  0  0  0  0  0  0
   18.3203  -14.5780  -18.3782 C   0  0  0  0  0  0  0  0  0  0  0  0
   24.4092   -5.5513  -18.6298 N   0  0  0  0  0  0  0  0  0  0  0  0
   23.8640   -6.4252  -17.6458 C   0  0  0  0  0  0  0  0  0  0  0  0
   23.8606   -6.0436  -16.4606 O   0  0  0  0  0  0  0  0  0  0  0  0
   23.3197   -7.7469  -18.0280 C   0  0  0  0  0  0  0  0  0  0  0  0
   22.2959   -8.1999  -16.9906 C   0  0  2  0  0  0  0  0  0  0  0  0
   21.7679   -9.5095  -17.2390 N   0  0  0  0  0  0  0  0  0  0  0  0
   21.2739   -7.1937  -16.7364 C   0  0  0  0  0  0  0  0  0  0  0  0
   21.6672   -6.0247  -16.3941 O   0  0  0  0  0  0  0  0  0  0  0  0
   17.9131   -7.0551  -18.6634 O   0  0  0  0  0  0  0  0  0  0  0  0
   17.6321   -6.8810  -17.3078 C   0  0  0  0  0  0  0  0  0  0  0  0
   18.8872   -6.4635  -16.5878 C   0  0  2  0  0  0  0  0  0  0  0  0
   19.9064   -7.4683  -16.8515 N   0  0  0  0  0  0  0  0  0  0  0  0
   18.6616   -6.3165  -15.1277 C   0  0  0  0  0  0  0  0  0  0  0  0
   17.7680   -5.5384  -14.7336 O   0  0  0  0  0  0  0  0  0  0  0  0
   19.4146   -7.0168  -14.2009 O   0  0  0  0  0  0  0  0  0  0  0  0
  1  2  1  0
  2  3  2  0
  3  4  1  0
  5  6  1  0
  5  4  2  0
  6  7  1  0
  7  8  1  1
  7  9  1  0
  9 10  2  0
 11  5  1  0
 12 11  2  0
 12  2  1  0
 14 15  2  0
 14 13  1  0
 16 14  1  0
 17 16  1  6
 18  9  1  0
 18 17  1  0
 19 17  1  0
 19 20  2  0
 21 22  1  0
 23 22  1  6
 23 24  1  0
 24 19  1  0
 25 23  1  0
 26 25  2  0
 27 25  1  0
M  END
$$$$
