YNS.pdb
     RDKit          3D

 27 27  0  0  1  0  0  0  0  0999 V2000
   23.4115  -21.4958   -8.1439 O   0  0  0  0  0  0  0  0  0  0  0  0
   24.2652  -21.2500   -9.2008 C   0  0  0  0  0  0  0  0  0  0  0  0
   23.7377  -21.2704  -10.4900 C   0  0  0  0  0  0  0  0  0  0  0  0
   24.5547  -21.0306  -11.5720 C   0  0  0  0  0  0  0  0  0  0  0  0
   25.9059  -20.7633  -11.4281 C   0  0  0  0  0  0  0  0  0  0  0  0
   26.7454  -20.5155  -12.6051 C   0  0  0  0  0  0  0  0  0  0  0  0
   25.8889  -20.1405  -13.8045 C   0  0  2  0  0  0  0  0  0  0  0  0
   25.2118  -21.3579  -14.1989 N   0  0  0  0  0  0  0  0  0  0  0  0
   26.7498  -19.5831  -14.8793 C   0  0  0  0  0  0  0  0  0  0  0  0
   27.4473  -18.5494  -14.6406 O   0  0  0  0  0  0  0  0  0  0  0  0
   26.3988  -20.7488  -10.1477 C   0  0  0  0  0  0  0  0  0  0  0  0
   25.6138  -20.9870   -9.0203 C   0  0  0  0  0  0  0  0  0  0  0  0
   30.2985  -19.8455  -19.1760 N   0  0  0  0  0  0  0  0  0  0  0  0
   28.9447  -20.2854  -19.2283 C   0  0  0  0  0  0  0  0  0  0  0  0
   28.3378  -20.1861  -20.3111 O   0  0  0  0  0  0  0  0  0  0  0  0
   28.2846  -20.8427  -18.0271 C   0  0  0  0  0  0  0  0  0  0  0  0
   27.5359  -19.7344  -17.2920 C   0  0  2  0  0  0  0  0  0  0  0  0
   26.7928  -20.1987  -16.1571 N   0  0  0  0  0  0  0  0  0  0  0  0
   26.7647  -18.8878  -18.1918 C   0  0  0  0  0  0  0  0  0  0  0  0
   25.6029  -19.2978  -18.5390 O   0  0  0  0  0  0  0  0  0  0  0  0
   27.9427  -15.0356  -18.8295 O   0  0  0  0  0  0  0  0  0  0  0  0
   26.5892  -15.3750  -18.8356 C   0  0  0  0  0  0  0  0  0  0  0  0
   26.4215  -16.7460  -19.4357 C   0  0  2  0  0  0  0  0  0  0  0  0
   27.2523  -17.6686  -18.6762 N   0  0  0  0  0  0  0  0  0  0  0  0
   26.7936  -16.7675  -20.8729 C   0  0  0  0  0  0  0  0  0  0  0  0
   27.7587  -17.4732  -21.2327 O   0  0  0  0  0  0  0  0  0  0  0  0
   26.1001  -16.0275  -21.8152 O   0  0  0  0  0  0  0  0  0  0  0  0
  1  2  1  0
  2  3  2  0
  3  4  1  0
  5  6  1  0
  5  4  2  0
  6  7  1  0
  7  8  1  6
  7  9  1  0
  9 10  2  0
 11  5  1  0
 12 11  2  0
 12  2  1  0
 14 15  2  0
 14 13  1  0
 16 14  1  0
 17 16  1  6
 18  9  1  0
 18 17  1  0
 19 17  1  0
 19 20  2  0
 21 22  1  0
 23 22  1  1
 23 24  1  0
 24 19  1  0
 25 23  1  0
 26 25  2  0
 27 25  1  0
M  END
$$$$
