YNS.pdb
     RDKit          3D

 27 27  0  0  1  0  0  0  0  0999 V2000
   21.0190  -10.1920    6.4425 O   0  0  0  0  0  0  0  0  0  0  0  0
   20.4979  -11.4659    6.3332 C   0  0  0  0  0  0  0  0  0  0  0  0
   19.6085  -11.7249    5.2927 C   0  0  0  0  0  0  0  0  0  0  0  0
   19.0658  -12.9819    5.1479 C   0  0  0  0  0  0  0  0  0  0  0  0
   19.3749  -14.0201    6.0106 C   0  0  0  0  0  0  0  0  0  0  0  0
   18.7742  -15.3455    5.8262 C   0  0  0  0  0  0  0  0  0  0  0  0
   17.2571  -15.2590    5.8869 C   0  0  2  0  0  0  0  0  0  0  0  0
   16.9521  -14.5870    7.1324 N   0  0  0  0  0  0  0  0  0  0  0  0
   16.6747  -16.6234    5.8080 C   0  0  0  0  0  0  0  0  0  0  0  0
   16.3435  -17.2184    6.8796 O   0  0  0  0  0  0  0  0  0  0  0  0
   20.2537  -13.7376    7.0257 C   0  0  0  0  0  0  0  0  0  0  0  0
   20.8286  -12.4817    7.2159 C   0  0  0  0  0  0  0  0  0  0  0  0
   14.8051  -20.9851    3.9107 N   0  0  0  0  0  0  0  0  0  0  0  0
   15.2844  -20.3082    2.7527 C   0  0  0  0  0  0  0  0  0  0  0  0
   15.1332  -20.8601    1.6468 O   0  0  0  0  0  0  0  0  0  0  0  0
   15.9423  -18.9879    2.8677 C   0  0  0  0  0  0  0  0  0  0  0  0
   16.0918  -18.6153    4.3402 C   0  0  2  0  0  0  0  0  0  0  0  0
   16.4902  -17.2542    4.5503 N   0  0  0  0  0  0  0  0  0  0  0  0
   16.8886  -19.5814    5.0838 C   0  0  0  0  0  0  0  0  0  0  0  0
   18.1468  -19.3648    5.1753 O   0  0  0  0  0  0  0  0  0  0  0  0
   15.7066  -21.2042    8.3601 O   0  0  0  0  0  0  0  0  0  0  0  0
   17.0321  -21.1550    7.9268 C   0  0  0  0  0  0  0  0  0  0  0  0
   17.1083  -21.6304    6.4999 C   0  0  2  0  0  0  0  0  0  0  0  0
   16.3262  -20.7141    5.6833 N   0  0  0  0  0  0  0  0  0  0  0  0
   16.6065  -23.0203    6.3550 C   0  0  0  0  0  0  0  0  0  0  0  0
   15.6236  -23.2295    5.6138 O   0  0  0  0  0  0  0  0  0  0  0  0
   17.1990  -24.0808    7.0188 O   0  0  0  0  0  0  0  0  0  0  0  0
  1  2  1  0
  2  3  2  0
  3  4  1  0
  5  6  1  0
  5  4  2  0
  6  7  1  0
  7  8  1  1
  7  9  1  0
  9 10  2  0
 11  5  1  0
 12 11  2  0
 12  2  1  0
 14 15  2  0
 14 13  1  0
 16 14  1  0
 17 16  1  6
 18  9  1  0
 18 17  1  0
 19 17  1  0
 19 20  2  0
 21 22  1  0
 23 22  1  1
 23 24  1  0
 24 19  1  0
 25 23  1  0
 26 25  2  0
 27 25  1  0
M  END
$$$$
