YNS.pdb
     RDKit          3D

 27 27  0  0  1  0  0  0  0  0999 V2000
   28.1868  -20.5103   -5.8560 O   0  0  0  0  0  0  0  0  0  0  0  0
   27.9678  -20.3734   -7.2123 C   0  0  0  0  0  0  0  0  0  0  0  0
   26.6509  -20.3513   -7.6662 C   0  0  0  0  0  0  0  0  0  0  0  0
   26.3885  -20.2165   -9.0111 C   0  0  0  0  0  0  0  0  0  0  0  0
   27.4001  -20.0984   -9.9494 C   0  0  0  0  0  0  0  0  0  0  0  0
   27.0815  -19.9595  -11.3744 C   0  0  0  0  0  0  0  0  0  0  0  0
   26.7446  -21.3122  -11.9822 C   0  0  2  0  0  0  0  0  0  0  0  0
   28.0067  -21.8716  -12.4182 N   0  0  0  0  0  0  0  0  0  0  0  0
   25.7759  -21.1336  -13.0943 C   0  0  0  0  0  0  0  0  0  0  0  0
   26.1911  -20.7034  -14.2143 O   0  0  0  0  0  0  0  0  0  0  0  0
   28.6873  -20.1227   -9.4749 C   0  0  0  0  0  0  0  0  0  0  0  0
   29.0050  -20.2588   -8.1241 C   0  0  0  0  0  0  0  0  0  0  0  0
   24.5926  -24.5572  -14.5390 N   0  0  0  0  0  0  0  0  0  0  0  0
   24.0375  -23.3718  -15.1008 C   0  0  0  0  0  0  0  0  0  0  0  0
   24.5321  -22.9370  -16.1576 O   0  0  0  0  0  0  0  0  0  0  0  0
   22.9062  -22.6819  -14.4424 C   0  0  0  0  0  0  0  0  0  0  0  0
   23.3729  -21.3343  -13.8989 C   0  0  2  0  0  0  0  0  0  0  0  0
   24.4031  -21.4407  -12.9075 N   0  0  0  0  0  0  0  0  0  0  0  0
   22.2646  -20.4760  -13.5036 C   0  0  0  0  0  0  0  0  0  0  0  0
   21.8494  -20.5649  -12.2960 O   0  0  0  0  0  0  0  0  0  0  0  0
   20.3676  -18.1478  -16.2766 O   0  0  0  0  0  0  0  0  0  0  0  0
   20.4741  -17.5919  -15.0012 C   0  0  0  0  0  0  0  0  0  0  0  0
   20.5746  -18.6965  -13.9825 C   0  0  2  0  0  0  0  0  0  0  0  0
   21.6558  -19.5811  -14.3908 N   0  0  0  0  0  0  0  0  0  0  0  0
   19.3007  -19.4488  -13.8583 C   0  0  0  0  0  0  0  0  0  0  0  0
   19.1513  -20.4915  -14.5287 O   0  0  0  0  0  0  0  0  0  0  0  0
   18.2824  -19.0225  -13.0229 O   0  0  0  0  0  0  0  0  0  0  0  0
  1  2  1  0
  2  3  2  0
  3  4  1  0
  5  6  1  0
  5  4  2  0
  6  7  1  0
  7  8  1  6
  7  9  1  0
  9 10  2  0
 11  5  1  0
 12 11  2  0
 12  2  1  0
 14 15  2  0
 14 13  1  0
 16 14  1  0
 17 16  1  1
 18  9  1  0
 18 17  1  0
 19 17  1  0
 19 20  2  0
 21 22  1  0
 23 22  1  6
 23 24  1  0
 24 19  1  0
 25 23  1  0
 26 25  2  0
 27 25  1  0
M  END
$$$$
