YNS.pdb
     RDKit          3D

 27 27  0  0  1  0  0  0  0  0999 V2000
   20.6099  -15.9627  -23.0174 O   0  0  0  0  0  0  0  0  0  0  0  0
   20.5293  -16.7621  -21.8946 C   0  0  0  0  0  0  0  0  0  0  0  0
   21.0343  -18.0582  -21.9733 C   0  0  0  0  0  0  0  0  0  0  0  0
   20.9736  -18.8883  -20.8765 C   0  0  0  0  0  0  0  0  0  0  0  0
   20.4213  -18.4792  -19.6743 C   0  0  0  0  0  0  0  0  0  0  0  0
   20.3717  -19.3933  -18.5282 C   0  0  0  0  0  0  0  0  0  0  0  0
   21.5330  -19.1297  -17.5824 C   0  0  2  0  0  0  0  0  0  0  0  0
   22.7168  -19.5911  -18.2765 N   0  0  0  0  0  0  0  0  0  0  0  0
   21.3025  -19.8388  -16.2975 C   0  0  0  0  0  0  0  0  0  0  0  0
   21.6209  -21.0641  -16.2004 O   0  0  0  0  0  0  0  0  0  0  0  0
   19.9322  -17.1982  -19.6245 C   0  0  0  0  0  0  0  0  0  0  0  0
   19.9684  -16.3201  -20.7070 C   0  0  0  0  0  0  0  0  0  0  0  0
   20.8096  -20.5634  -11.0226 N   0  0  0  0  0  0  0  0  0  0  0  0
   20.1006  -19.4254  -11.5035 C   0  0  0  0  0  0  0  0  0  0  0  0
   19.1304  -19.0158  -10.8392 O   0  0  0  0  0  0  0  0  0  0  0  0
   20.5103  -18.7546  -12.7570 C   0  0  0  0  0  0  0  0  0  0  0  0
   20.4022  -19.7341  -13.9225 C   0  0  2  0  0  0  0  0  0  0  0  0
   20.7340  -19.1552  -15.1915 N   0  0  0  0  0  0  0  0  0  0  0  0
   19.1434  -20.4668  -13.9230 C   0  0  0  0  0  0  0  0  0  0  0  0
   18.1046  -19.8573  -14.3564 O   0  0  0  0  0  0  0  0  0  0  0  0
   18.8914  -24.2844  -12.3659 O   0  0  0  0  0  0  0  0  0  0  0  0
   18.1571  -24.0088  -13.5200 C   0  0  0  0  0  0  0  0  0  0  0  0
   17.8044  -22.5451  -13.5491 C   0  0  2  0  0  0  0  0  0  0  0  0
   19.0442  -21.7871  -13.4694 N   0  0  0  0  0  0  0  0  0  0  0  0
   16.8922  -22.1761  -12.4372 C   0  0  0  0  0  0  0  0  0  0  0  0
   17.3125  -21.4107  -11.5447 O   0  0  0  0  0  0  0  0  0  0  0  0
   15.5966  -22.6590  -12.3682 O   0  0  0  0  0  0  0  0  0  0  0  0
  1  2  1  0
  2  3  2  0
  3  4  1  0
  5  6  1  0
  5  4  2  0
  6  7  1  0
  7  8  1  6
  7  9  1  0
  9 10  2  0
 11  5  1  0
 12 11  2  0
 12  2  1  0
 14 15  2  0
 14 13  1  0
 16 14  1  0
 17 16  1  1
 18  9  1  0
 18 17  1  0
 19 17  1  0
 19 20  2  0
 21 22  1  0
 23 22  1  1
 23 24  1  0
 24 19  1  0
 25 23  1  0
 26 25  2  0
 27 25  1  0
M  END
$$$$
