QLG.pdb
     RDKit          3D

 22 21  0  0  1  0  0  0  0  0999 V2000
   17.9755  -10.5872  -20.7084 N   0  0  0  0  0  0  0  0  0  0  0  0
   16.6123  -10.9482  -20.5472 C   0  0  0  0  0  0  0  0  0  0  0  0
   16.0037  -11.2763  -21.5907 O   0  0  0  0  0  0  0  0  0  0  0  0
   15.9177  -10.9480  -19.2660 C   0  0  0  0  0  0  0  0  0  0  0  0
   16.6754  -10.5424  -18.0590 C   0  0  0  0  0  0  0  0  0  0  0  0
   17.5235  -11.6169  -17.4988 C   0  0  2  0  0  0  0  0  0  0  0  0
   16.7747  -12.7086  -17.0027 N   0  0  0  0  0  0  0  0  0  0  0  0
   18.5415  -11.1295  -16.5307 C   0  0  0  0  0  0  0  0  0  0  0  0
   18.2654  -11.1399  -15.3080 O   0  0  0  0  0  0  0  0  0  0  0  0
   24.5172  -10.4734  -15.2613 C   0  0  0  0  0  0  0  0  0  0  0  0
   23.0744  -10.1729  -14.9437 C   0  0  2  0  0  0  0  0  0  0  0  0
   22.7645  -10.9022  -13.6243 C   0  0  0  0  0  0  0  0  0  0  0  0
   22.1228  -10.6362  -15.9698 C   0  0  0  0  0  0  0  0  0  0  0  0
   20.7209  -10.1761  -15.9192 C   0  0  2  0  0  0  0  0  0  0  0  0
   19.8184  -10.6486  -16.9072 N   0  0  0  0  0  0  0  0  0  0  0  0
   20.6729   -8.6756  -15.8481 C   0  0  0  0  0  0  0  0  0  0  0  0
   20.8967   -7.9918  -16.8901 O   0  0  0  0  0  0  0  0  0  0  0  0
   20.3850   -7.9655  -14.6550 N   0  0  0  0  0  0  0  0  0  0  0  0
   20.3949   -6.5125  -14.6094 C   0  0  0  0  0  0  0  0  0  0  0  0
   21.7637   -6.0386  -14.3410 C   0  0  0  0  0  0  0  0  0  0  0  0
   21.9949   -4.6828  -14.2450 O   0  0  0  0  0  0  0  0  0  0  0  0
   22.7033   -6.8609  -14.2023 O   0  0  0  0  0  0  0  0  0  0  0  0
  1  2  1  0
  2  3  2  0
  4  2  1  0
  5  4  1  0
  6  7  1  1
  6  5  1  0
  8  6  1  0
  8  9  2  0
 11 10  1  6
 11 12  1  0
 11 13  1  0
 14 13  1  6
 14 15  1  0
 14 16  1  0
 15  8  1  0
 16 18  1  0
 16 17  2  0
 18 19  1  0
 20 19  1  0
 20 21  1  0
 22 20  2  0
M  END
$$$$
