QLG.pdb
     RDKit          3D

 22 21  0  0  1  0  0  0  0  0999 V2000
   24.0493  -34.3108   -3.4999 N   0  0  0  0  0  0  0  0  0  0  0  0
   25.0778  -33.3976   -3.8507 C   0  0  0  0  0  0  0  0  0  0  0  0
   25.2120  -32.4060   -3.0987 O   0  0  0  0  0  0  0  0  0  0  0  0
   25.9474  -33.5590   -5.0089 C   0  0  0  0  0  0  0  0  0  0  0  0
   27.2049  -34.3240   -4.8390 C   0  0  0  0  0  0  0  0  0  0  0  0
   28.0822  -34.3007   -6.0296 C   0  0  2  0  0  0  0  0  0  0  0  0
   27.4458  -34.7899   -7.1934 N   0  0  0  0  0  0  0  0  0  0  0  0
   29.4156  -34.9174   -5.8000 C   0  0  0  0  0  0  0  0  0  0  0  0
   29.7448  -35.9154   -6.4832 O   0  0  0  0  0  0  0  0  0  0  0  0
   33.5786  -34.7551   -7.4362 C   0  0  0  0  0  0  0  0  0  0  0  0
   32.9803  -33.7009   -6.5396 C   0  0  2  0  0  0  0  0  0  0  0  0
   33.9585  -32.5128   -6.5624 C   0  0  0  0  0  0  0  0  0  0  0  0
   32.7988  -34.1317   -5.1416 C   0  0  0  0  0  0  0  0  0  0  0  0
   31.6540  -34.9958   -4.7919 C   0  0  2  0  0  0  0  0  0  0  0  0
   30.3483  -34.4428   -4.8468 N   0  0  0  0  0  0  0  0  0  0  0  0
   31.8867  -35.6444   -3.4562 C   0  0  0  0  0  0  0  0  0  0  0  0
   33.0037  -36.1878   -3.2101 O   0  0  0  0  0  0  0  0  0  0  0  0
   30.9060  -35.6838   -2.4329 N   0  0  0  0  0  0  0  0  0  0  0  0
   31.1628  -36.3229   -1.1527 C   0  0  0  0  0  0  0  0  0  0  0  0
   31.4610  -35.2943   -0.1412 C   0  0  0  0  0  0  0  0  0  0  0  0
   31.6308  -35.6777    1.1723 O   0  0  0  0  0  0  0  0  0  0  0  0
   31.5583  -34.0869   -0.4745 O   0  0  0  0  0  0  0  0  0  0  0  0
  1  2  1  0
  2  3  2  0
  4  2  1  0
  5  4  1  0
  6  7  1  6
  6  5  1  0
  8  6  1  0
  8  9  2  0
 11 10  1  6
 11 12  1  0
 11 13  1  0
 14 13  1  1
 14 15  1  0
 14 16  1  0
 15  8  1  0
 16 18  1  0
 16 17  2  0
 18 19  1  0
 20 19  1  0
 20 21  1  0
 22 20  2  0
M  END
$$$$
