QLG.pdb
     RDKit          3D

 22 21  0  0  1  0  0  0  0  0999 V2000
   13.6282  -22.8030    5.4623 N   0  0  0  0  0  0  0  0  0  0  0  0
   13.2916  -22.5475    4.1072 C   0  0  0  0  0  0  0  0  0  0  0  0
   12.3658  -23.2422    3.6308 O   0  0  0  0  0  0  0  0  0  0  0  0
   13.9576  -21.5507    3.2787 C   0  0  0  0  0  0  0  0  0  0  0  0
   15.0810  -20.7864    3.8698 C   0  0  0  0  0  0  0  0  0  0  0  0
   15.7386  -19.8629    2.9199 C   0  0  2  0  0  0  0  0  0  0  0  0
   16.3909  -20.5339    1.8602 N   0  0  0  0  0  0  0  0  0  0  0  0
   16.6032  -18.8472    3.5773 C   0  0  0  0  0  0  0  0  0  0  0  0
   17.8374  -19.0562    3.6423 O   0  0  0  0  0  0  0  0  0  0  0  0
   18.9445  -15.2843    2.6491 C   0  0  0  0  0  0  0  0  0  0  0  0
   17.4722  -15.0456    2.8690 C   0  0  2  0  0  0  0  0  0  0  0  0
   17.2295  -13.5557    2.5688 C   0  0  0  0  0  0  0  0  0  0  0  0
   17.0148  -15.3276    4.2417 C   0  0  0  0  0  0  0  0  0  0  0  0
   17.0128  -16.7194    4.7338 C   0  0  2  0  0  0  0  0  0  0  0  0
   16.1144  -17.6445    4.1413 N   0  0  0  0  0  0  0  0  0  0  0  0
   16.8641  -16.7373    6.2293 C   0  0  0  0  0  0  0  0  0  0  0  0
   15.7073  -16.7709    6.7432 O   0  0  0  0  0  0  0  0  0  0  0  0
   17.9689  -16.7185    7.1178 N   0  0  0  0  0  0  0  0  0  0  0  0
   17.7892  -16.7028    8.5603 C   0  0  0  0  0  0  0  0  0  0  0  0
   17.6587  -18.0846    9.0542 C   0  0  0  0  0  0  0  0  0  0  0  0
   17.6549  -19.1216    8.1456 O   0  0  0  0  0  0  0  0  0  0  0  0
   17.5526  -18.3103   10.2855 O   0  0  0  0  0  0  0  0  0  0  0  0
  1  2  1  0
  2  3  2  0
  4  2  1  0
  5  4  1  0
  6  7  1  6
  6  5  1  0
  8  6  1  0
  8  9  2  0
 11 10  1  1
 11 12  1  0
 11 13  1  0
 14 13  1  6
 14 15  1  0
 14 16  1  0
 15  8  1  0
 16 18  1  0
 16 17  2  0
 18 19  1  0
 20 19  1  0
 20 21  1  0
 22 20  2  0
M  END
$$$$
