QLG.pdb
     RDKit          3D

 22 21  0  0  1  0  0  0  0  0999 V2000
   21.0558  -19.1084  -12.0232 N   0  0  0  0  0  0  0  0  0  0  0  0
   20.9702  -20.1715  -11.0865 C   0  0  0  0  0  0  0  0  0  0  0  0
   20.2550  -19.9613  -10.0810 O   0  0  0  0  0  0  0  0  0  0  0  0
   21.6584  -21.4468  -11.2398 C   0  0  0  0  0  0  0  0  0  0  0  0
   23.0228  -21.4411  -11.8176 C   0  0  0  0  0  0  0  0  0  0  0  0
   24.0691  -20.9980  -10.8707 C   0  0  2  0  0  0  0  0  0  0  0  0
   23.5745  -20.1342   -9.8668 N   0  0  0  0  0  0  0  0  0  0  0  0
   25.2896  -20.4692  -11.5353 C   0  0  0  0  0  0  0  0  0  0  0  0
   25.4927  -19.2323  -11.5287 O   0  0  0  0  0  0  0  0  0  0  0  0
   29.6471  -19.7880  -10.8177 C   0  0  0  0  0  0  0  0  0  0  0  0
   29.2851  -21.1829  -11.2607 C   0  0  2  0  0  0  0  0  0  0  0  0
   30.5962  -21.9890  -11.2542 C   0  0  0  0  0  0  0  0  0  0  0  0
   28.6989  -21.2527  -12.6114 C   0  0  0  0  0  0  0  0  0  0  0  0
   27.3537  -20.6924  -12.8479 C   0  0  2  0  0  0  0  0  0  0  0  0
   26.2485  -21.2844  -12.1831 N   0  0  0  0  0  0  0  0  0  0  0  0
   27.0842  -20.6037  -14.3238 C   0  0  0  0  0  0  0  0  0  0  0  0
   27.9436  -20.0712  -15.0864 O   0  0  0  0  0  0  0  0  0  0  0  0
   25.8970  -21.0927  -14.9252 N   0  0  0  0  0  0  0  0  0  0  0  0
   25.6719  -20.9993  -16.3584 C   0  0  0  0  0  0  0  0  0  0  0  0
   24.8358  -19.8217  -16.6487 C   0  0  0  0  0  0  0  0  0  0  0  0
   24.2356  -19.7165  -17.8855 O   0  0  0  0  0  0  0  0  0  0  0  0
   24.6747  -18.9289  -15.7797 O   0  0  0  0  0  0  0  0  0  0  0  0
  1  2  1  0
  2  3  2  0
  4  2  1  0
  5  4  1  0
  6  7  1  1
  6  5  1  0
  8  6  1  0
  8  9  2  0
 11 10  1  6
 11 12  1  0
 11 13  1  0
 14 13  1  6
 14 15  1  0
 14 16  1  0
 15  8  1  0
 16 18  1  0
 16 17  2  0
 18 19  1  0
 20 19  1  0
 20 21  1  0
 22 20  2  0
M  END
$$$$
