QLG.pdb
     RDKit          3D

 22 21  0  0  1  0  0  0  0  0999 V2000
   21.4382  -11.2761  -20.6581 N   0  0  0  0  0  0  0  0  0  0  0  0
   20.0868  -11.7102  -20.6731 C   0  0  0  0  0  0  0  0  0  0  0  0
   19.6981  -12.2596  -21.7285 O   0  0  0  0  0  0  0  0  0  0  0  0
   19.1677  -11.5446  -19.5544 C   0  0  0  0  0  0  0  0  0  0  0  0
   19.6244  -10.7600  -18.3834 C   0  0  0  0  0  0  0  0  0  0  0  0
   20.5479  -11.4983  -17.4947 C   0  0  2  0  0  0  0  0  0  0  0  0
   19.9533  -12.6373  -16.9050 N   0  0  0  0  0  0  0  0  0  0  0  0
   21.2419  -10.6331  -16.5045 C   0  0  0  0  0  0  0  0  0  0  0  0
   20.8282  -10.6181  -15.3213 O   0  0  0  0  0  0  0  0  0  0  0  0
   25.0621  -11.0373  -14.4039 C   0  0  0  0  0  0  0  0  0  0  0  0
   25.1784  -10.2798  -15.7023 C   0  0  2  0  0  0  0  0  0  0  0  0
   26.6758   -9.9779  -15.8904 C   0  0  0  0  0  0  0  0  0  0  0  0
   24.4372   -9.0057  -15.7246 C   0  0  0  0  0  0  0  0  0  0  0  0
   22.9634   -9.0256  -15.8077 C   0  0  2  0  0  0  0  0  0  0  0  0
   22.3539   -9.8151  -16.8173 N   0  0  0  0  0  0  0  0  0  0  0  0
   22.4307   -7.6210  -15.8556 C   0  0  0  0  0  0  0  0  0  0  0  0
   22.8386   -6.7675  -15.0138 O   0  0  0  0  0  0  0  0  0  0  0  0
   21.4765   -7.1866  -16.8103 N   0  0  0  0  0  0  0  0  0  0  0  0
   20.9994   -5.8137  -16.8436 C   0  0  0  0  0  0  0  0  0  0  0  0
   19.7512   -5.7085  -16.0684 C   0  0  0  0  0  0  0  0  0  0  0  0
   19.1027   -4.4933  -16.0073 O   0  0  0  0  0  0  0  0  0  0  0  0
   19.2879   -6.7132  -15.4734 O   0  0  0  0  0  0  0  0  0  0  0  0
  1  2  1  0
  2  3  2  0
  4  2  1  0
  5  4  1  0
  6  7  1  1
  6  5  1  0
  8  6  1  0
  8  9  2  0
 11 10  1  1
 11 12  1  0
 11 13  1  0
 14 13  1  6
 14 15  1  0
 14 16  1  0
 15  8  1  0
 16 18  1  0
 16 17  2  0
 18 19  1  0
 20 19  1  0
 20 21  1  0
 22 20  2  0
M  END
$$$$
