QLG.pdb
     RDKit          3D

 22 21  0  0  1  0  0  0  0  0999 V2000
   18.5432  -16.4709  -15.9742 N   0  0  0  0  0  0  0  0  0  0  0  0
   18.2615  -15.1240  -16.3223 C   0  0  0  0  0  0  0  0  0  0  0  0
   17.0857  -14.7409  -16.1282 O   0  0  0  0  0  0  0  0  0  0  0  0
   19.2464  -14.2056  -16.8793 C   0  0  0  0  0  0  0  0  0  0  0  0
   19.8242  -13.1733  -15.9872 C   0  0  0  0  0  0  0  0  0  0  0  0
   19.9621  -11.8452  -16.6234 C   0  0  2  0  0  0  0  0  0  0  0  0
   20.3608  -11.9210  -17.9777 N   0  0  0  0  0  0  0  0  0  0  0  0
   20.7823  -10.8882  -15.8344 C   0  0  0  0  0  0  0  0  0  0  0  0
   20.5166  -10.7234  -14.6206 O   0  0  0  0  0  0  0  0  0  0  0  0
   24.7589  -10.9670  -14.0135 C   0  0  0  0  0  0  0  0  0  0  0  0
   24.8296  -10.4644  -15.4331 C   0  0  2  0  0  0  0  0  0  0  0  0
   26.3159  -10.1801  -15.7141 C   0  0  0  0  0  0  0  0  0  0  0  0
   24.0626   -9.2286  -15.6734 C   0  0  0  0  0  0  0  0  0  0  0  0
   22.5918   -9.2522  -15.5482 C   0  0  2  0  0  0  0  0  0  0  0  0
   21.8574  -10.1423  -16.3742 N   0  0  0  0  0  0  0  0  0  0  0  0
   22.0417   -7.8588  -15.6695 C   0  0  0  0  0  0  0  0  0  0  0  0
   22.5314   -6.9285  -14.9637 O   0  0  0  0  0  0  0  0  0  0  0  0
   20.9824   -7.5181  -16.5483 N   0  0  0  0  0  0  0  0  0  0  0  0
   20.4766   -6.1585  -16.6444 C   0  0  0  0  0  0  0  0  0  0  0  0
   19.3979   -5.9649  -15.6599 C   0  0  0  0  0  0  0  0  0  0  0  0
   18.7515   -4.7483  -15.6072 O   0  0  0  0  0  0  0  0  0  0  0  0
   19.0751   -6.8969  -14.8819 O   0  0  0  0  0  0  0  0  0  0  0  0
  1  2  1  0
  2  3  2  0
  4  2  1  0
  5  4  1  0
  6  7  1  6
  6  5  1  0
  8  6  1  0
  8  9  2  0
 11 10  1  1
 11 12  1  0
 11 13  1  0
 14 13  1  6
 14 15  1  0
 14 16  1  0
 15  8  1  0
 16 18  1  0
 16 17  2  0
 18 19  1  0
 20 19  1  0
 20 21  1  0
 22 20  2  0
M  END
$$$$
