QLG.pdb
     RDKit          3D

 22 21  0  0  1  0  0  0  0  0999 V2000
   20.2273   -9.0807  -20.9137 N   0  0  0  0  0  0  0  0  0  0  0  0
   18.9179   -9.5691  -21.1618 C   0  0  0  0  0  0  0  0  0  0  0  0
   18.6251   -9.7709  -22.3620 O   0  0  0  0  0  0  0  0  0  0  0  0
   17.9367   -9.8308  -20.1166 C   0  0  0  0  0  0  0  0  0  0  0  0
   18.3011   -9.5071  -18.7173 C   0  0  0  0  0  0  0  0  0  0  0  0
   19.0202  -10.5963  -18.0216 C   0  0  2  0  0  0  0  0  0  0  0  0
   18.2286  -11.7540  -17.8429 N   0  0  0  0  0  0  0  0  0  0  0  0
   19.6949  -10.1613  -16.7700 C   0  0  0  0  0  0  0  0  0  0  0  0
   19.1170  -10.3538  -15.6745 O   0  0  0  0  0  0  0  0  0  0  0  0
   22.5048  -11.6993  -13.8993 C   0  0  0  0  0  0  0  0  0  0  0  0
   23.1903  -11.0294  -15.0630 C   0  0  2  0  0  0  0  0  0  0  0  0
   24.7013  -11.2118  -14.8338 C   0  0  0  0  0  0  0  0  0  0  0  0
   22.9050   -9.5881  -15.1816 C   0  0  0  0  0  0  0  0  0  0  0  0
   21.5329   -9.1440  -15.4972 C   0  0  2  0  0  0  0  0  0  0  0  0
   20.9642   -9.5356  -16.7370 N   0  0  0  0  0  0  0  0  0  0  0  0
   21.4194   -7.6557  -15.3216 C   0  0  0  0  0  0  0  0  0  0  0  0
   21.7926   -7.1231  -14.2350 O   0  0  0  0  0  0  0  0  0  0  0  0
   20.9073   -6.7942  -16.3246 N   0  0  0  0  0  0  0  0  0  0  0  0
   20.8998   -5.3498  -16.1603 C   0  0  0  0  0  0  0  0  0  0  0  0
   19.5996   -4.9242  -15.6140 C   0  0  0  0  0  0  0  0  0  0  0  0
   19.3442   -3.5771  -15.4686 O   0  0  0  0  0  0  0  0  0  0  0  0
   18.7392   -5.7790  -15.2866 O   0  0  0  0  0  0  0  0  0  0  0  0
  1  2  1  0
  2  3  2  0
  4  2  1  0
  5  4  1  0
  6  7  1  1
  6  5  1  0
  8  6  1  0
  8  9  2  0
 11 10  1  1
 11 12  1  0
 11 13  1  0
 14 13  1  6
 14 15  1  0
 14 16  1  0
 15  8  1  0
 16 18  1  0
 16 17  2  0
 18 19  1  0
 20 19  1  0
 20 21  1  0
 22 20  2  0
M  END
$$$$
