AAP.pdb
     RDKit          3D

 18 18  0  0  1  0  0  0  0  0999 V2000
   37.2959   -7.0309  -15.9410 C   0  0  0  0  0  0  0  0  0  0  0  0
   36.3122   -7.9415  -15.2643 C   0  0  2  0  0  0  0  0  0  0  0  0
   34.9570   -7.5029  -15.4706 N   0  0  0  0  0  0  0  0  0  0  0  0
   36.6437   -8.0333  -13.8061 C   0  0  0  0  0  0  0  0  0  0  0  0
   36.2065   -7.1415  -13.0350 O   0  0  0  0  0  0  0  0  0  0  0  0
   38.4975  -10.4149  -11.5815 C   0  0  0  0  0  0  0  0  0  0  0  0
   37.8136   -9.1220  -11.8547 C   0  0  2  0  0  0  0  0  0  0  0  0
   37.4273   -9.0796  -13.2598 N   0  0  0  0  0  0  0  0  0  0  0  0
   38.5925   -7.9296  -11.4927 C   0  0  0  0  0  0  0  0  0  0  0  0
   39.0978   -7.2369  -12.4066 O   0  0  0  0  0  0  0  0  0  0  0  0
   38.8078   -7.5133  -10.1578 N   0  0  0  0  0  0  0  0  0  0  0  0
   38.3066   -8.1367   -8.9244 C   0  0  0  0  0  0  0  0  0  0  0  0
   37.6874   -6.9116   -8.2506 C   0  0  0  0  0  0  0  0  0  0  0  0
   38.8199   -5.9015   -8.4338 C   0  0  0  0  0  0  0  0  0  0  0  0
   39.5708   -6.3750   -9.6679 C   0  0  1  0  0  0  0  0  0  0  0  0
   40.9468   -6.8079   -9.2585 C   0  0  0  0  0  0  0  0  0  0  0  0
   41.1243   -7.9422   -8.7623 O   0  0  0  0  0  0  0  0  0  0  0  0
   42.0328   -5.9640   -9.4229 O   0  0  0  0  0  0  0  0  0  0  0  0
  2  1  1  6
  2  3  1  0
  4  2  1  0
  4  5  2  0
  7  6  1  6
  7  8  1  0
  8  4  1  0
  9  7  1  0
 10  9  2  0
 11  9  1  0
 11 12  1  0
 12 13  1  0
 14 13  1  0
 15 14  1  0
 15 11  1  0
 15 16  1  1
 16 18  1  0
 17 16  2  0
M  END
$$$$
