AAP.pdb
     RDKit          3D

 18 18  0  0  1  0  0  0  0  0999 V2000
   24.2155  -23.7471  -17.1999 C   0  0  0  0  0  0  0  0  0  0  0  0
   25.1522  -22.6936  -17.7173 C   0  0  2  0  0  0  0  0  0  0  0  0
   26.0317  -23.2184  -18.7286 N   0  0  0  0  0  0  0  0  0  0  0  0
   25.9200  -22.1075  -16.5720 C   0  0  0  0  0  0  0  0  0  0  0  0
   26.8329  -22.7956  -16.0482 O   0  0  0  0  0  0  0  0  0  0  0  0
   26.0449  -18.8170  -14.7856 C   0  0  0  0  0  0  0  0  0  0  0  0
   26.4032  -20.2539  -14.9312 C   0  0  2  0  0  0  0  0  0  0  0  0
   25.6623  -20.8139  -16.0550 N   0  0  0  0  0  0  0  0  0  0  0  0
   26.2002  -21.0606  -13.7198 C   0  0  0  0  0  0  0  0  0  0  0  0
   25.2778  -21.9088  -13.7056 O   0  0  0  0  0  0  0  0  0  0  0  0
   26.9940  -20.9343  -12.5556 N   0  0  0  0  0  0  0  0  0  0  0  0
   28.1488  -20.0504  -12.3403 C   0  0  0  0  0  0  0  0  0  0  0  0
   29.1621  -21.0727  -11.8241 C   0  0  0  0  0  0  0  0  0  0  0  0
   28.3025  -21.8100  -10.7975 C   0  0  0  0  0  0  0  0  0  0  0  0
   26.8738  -21.6379  -11.2874 C   0  0  1  0  0  0  0  0  0  0  0  0
   26.1219  -20.8005  -10.2966 C   0  0  0  0  0  0  0  0  0  0  0  0
   26.0408  -19.5628  -10.4571 O   0  0  0  0  0  0  0  0  0  0  0  0
   25.5109  -21.3815   -9.1976 O   0  0  0  0  0  0  0  0  0  0  0  0
  2  1  1  1
  2  3  1  0
  4  2  1  0
  4  5  2  0
  7  6  1  1
  7  8  1  0
  8  4  1  0
  9  7  1  0
 10  9  2  0
 11  9  1  0
 11 12  1  0
 12 13  1  0
 14 13  1  0
 15 14  1  0
 15 11  1  0
 15 16  1  1
 16 18  1  0
 17 16  2  0
M  END
$$$$
