STT.pdb
     RDKit          3D

 21 20  0  0  1  0  0  0  0  0999 V2000
   14.5847  -14.0464   18.9952 O   0  0  0  0  0  0  0  0  0  0  0  0
   13.3274  -14.2388   19.5355 C   0  0  0  0  0  0  0  0  0  0  0  0
   12.4559  -15.1465   18.6936 C   0  0  2  0  0  0  0  0  0  0  0  0
   12.0823  -14.4459   17.5044 N   0  0  0  0  0  0  0  0  0  0  0  0
   11.2694  -15.6213   19.4447 C   0  0  0  0  0  0  0  0  0  0  0  0
   10.1128  -15.2048   19.2108 O   0  0  0  0  0  0  0  0  0  0  0  0
    9.4381  -18.5321   19.4497 C   0  0  0  0  0  0  0  0  0  0  0  0
   10.0324  -18.5324   20.8311 C   0  0  1  0  0  0  0  0  0  0  0  0
   11.1423  -19.3328   20.9385 O   0  0  0  0  0  0  0  0  0  0  0  0
   10.3882  -17.1116   21.2810 C   0  0  2  0  0  0  0  0  0  0  0  0
   11.4699  -16.5878   20.4678 N   0  0  0  0  0  0  0  0  0  0  0  0
   10.8872  -17.1662   22.6804 C   0  0  0  0  0  0  0  0  0  0  0  0
   12.0630  -16.8210   22.9546 O   0  0  0  0  0  0  0  0  0  0  0  0
   10.4503  -16.6526   27.3612 C   0  0  0  0  0  0  0  0  0  0  0  0
    9.9462  -16.4696   25.9439 C   0  0  1  0  0  0  0  0  0  0  0  0
   10.4618  -15.2495   25.4985 O   0  0  0  0  0  0  0  0  0  0  0  0
   10.5676  -17.5445   25.0969 C   0  0  2  0  0  0  0  0  0  0  0  0
   10.0877  -17.6002   23.7646 N   0  0  0  0  0  0  0  0  0  0  0  0
   10.4310  -18.8817   25.7738 C   0  0  0  0  0  0  0  0  0  0  0  0
   11.2849  -19.3029   26.7761 O   0  0  0  0  0  0  0  0  0  0  0  0
    9.5056  -19.6511   25.4180 O   0  0  0  0  0  0  0  0  0  0  0  0
  2  1  1  0
  3  2  1  0
  3  4  1  6
  5 11  1  0
  5  3  1  0
  6  5  2  0
  8  7  1  6
  9  8  1  0
 10 12  1  0
 10  8  1  0
 10 11  1  6
 12 18  1  0
 13 12  2  0
 15 14  1  1
 15 16  1  0
 17 15  1  0
 17 18  1  6
 19 20  1  0
 19 17  1  0
 21 19  2  0
M  END
$$$$
