STT.pdb
     RDKit          3D

 21 20  0  0  1  0  0  0  0  0999 V2000
    7.2445  -19.3445   18.8831 O   0  0  0  0  0  0  0  0  0  0  0  0
    7.2283  -19.2659   17.5035 C   0  0  0  0  0  0  0  0  0  0  0  0
    7.0077  -17.8570   16.9952 C   0  0  2  0  0  0  0  0  0  0  0  0
    7.0928  -17.8683   15.5679 N   0  0  0  0  0  0  0  0  0  0  0  0
    7.9688  -16.8998   17.5931 C   0  0  0  0  0  0  0  0  0  0  0  0
    9.1422  -16.7742   17.1766 O   0  0  0  0  0  0  0  0  0  0  0  0
    8.4185  -12.8519   20.3757 C   0  0  0  0  0  0  0  0  0  0  0  0
    7.6511  -13.7970   19.4930 C   0  0  1  0  0  0  0  0  0  0  0  0
    7.4028  -13.2842   18.2442 O   0  0  0  0  0  0  0  0  0  0  0  0
    8.3786  -15.1382   19.3533 C   0  0  2  0  0  0  0  0  0  0  0  0
    7.5250  -16.1004   18.6817 N   0  0  0  0  0  0  0  0  0  0  0  0
    8.6502  -15.6763   20.7124 C   0  0  0  0  0  0  0  0  0  0  0  0
    7.7141  -15.8481   21.5316 O   0  0  0  0  0  0  0  0  0  0  0  0
    9.5288  -18.8748   21.7611 C   0  0  0  0  0  0  0  0  0  0  0  0
   10.6316  -18.0407   22.3815 C   0  0  1  0  0  0  0  0  0  0  0  0
   11.7058  -18.0841   21.4888 O   0  0  0  0  0  0  0  0  0  0  0  0
   10.1549  -16.6160   22.4263 C   0  0  2  0  0  0  0  0  0  0  0  0
    9.9491  -16.0202   21.1571 N   0  0  0  0  0  0  0  0  0  0  0  0
   11.0862  -15.7838   23.2661 C   0  0  0  0  0  0  0  0  0  0  0  0
   11.1898  -15.9311   24.6368 O   0  0  0  0  0  0  0  0  0  0  0  0
   11.8010  -14.9185   22.7048 O   0  0  0  0  0  0  0  0  0  0  0  0
  2  1  1  0
  3  2  1  0
  3  4  1  6
  5 11  1  0
  5  3  1  0
  6  5  2  0
  8  7  1  1
  9  8  1  0
 10 12  1  0
 10  8  1  0
 10 11  1  6
 12 18  1  0
 13 12  2  0
 15 14  1  6
 15 16  1  0
 17 15  1  0
 17 18  1  6
 19 20  1  0
 19 17  1  0
 21 19  2  0
M  END
$$$$
