STT.pdb
     RDKit          3D

 21 20  0  0  1  0  0  0  0  0999 V2000
    9.0722  -11.7502   18.7033 O   0  0  0  0  0  0  0  0  0  0  0  0
    8.3240  -12.4888   19.6002 C   0  0  0  0  0  0  0  0  0  0  0  0
    8.5622  -13.9791   19.4810 C   0  0  2  0  0  0  0  0  0  0  0  0
    8.0654  -14.4207   18.2151 N   0  0  0  0  0  0  0  0  0  0  0  0
    7.9443  -14.7262   20.6023 C   0  0  0  0  0  0  0  0  0  0  0  0
    6.9689  -15.4941   20.4440 O   0  0  0  0  0  0  0  0  0  0  0  0
    7.5732  -17.3738   21.6482 C   0  0  0  0  0  0  0  0  0  0  0  0
    8.4055  -16.8343   22.7786 C   0  0  1  0  0  0  0  0  0  0  0  0
    9.7543  -16.9808   22.5704 O   0  0  0  0  0  0  0  0  0  0  0  0
    8.0918  -15.3578   23.0413 C   0  0  2  0  0  0  0  0  0  0  0  0
    8.4927  -14.5530   21.9024 N   0  0  0  0  0  0  0  0  0  0  0  0
    8.9006  -14.8983   24.2011 C   0  0  0  0  0  0  0  0  0  0  0  0
   10.0452  -14.4108   24.0303 O   0  0  0  0  0  0  0  0  0  0  0  0
    8.3048  -12.1099   26.2360 C   0  0  0  0  0  0  0  0  0  0  0  0
    8.4383  -13.2216   27.2572 C   0  0  1  0  0  0  0  0  0  0  0  0
    7.1402  -13.6596   27.5324 O   0  0  0  0  0  0  0  0  0  0  0  0
    9.1566  -14.3642   26.5957 C   0  0  2  0  0  0  0  0  0  0  0  0
    8.4423  -14.9796   25.5377 N   0  0  0  0  0  0  0  0  0  0  0  0
    9.5738  -15.3799   27.6249 C   0  0  0  0  0  0  0  0  0  0  0  0
    9.2183  -16.7135   27.5460 O   0  0  0  0  0  0  0  0  0  0  0  0
   10.2736  -15.0070   28.5976 O   0  0  0  0  0  0  0  0  0  0  0  0
  2  1  1  0
  3  2  1  0
  3  4  1  6
  5 11  1  0
  5  3  1  0
  6  5  2  0
  8  7  1  6
  9  8  1  0
 10 12  1  0
 10  8  1  0
 10 11  1  6
 12 18  1  0
 13 12  2  0
 15 14  1  6
 15 16  1  0
 17 15  1  0
 17 18  1  6
 19 20  1  0
 19 17  1  0
 21 19  2  0
M  END
$$$$
