STT.pdb
     RDKit          3D

 21 20  0  0  1  0  0  0  0  0999 V2000
   10.2029  -17.5339   15.1220 O   0  0  0  0  0  0  0  0  0  0  0  0
    8.8531  -17.2590   15.2327 C   0  0  0  0  0  0  0  0  0  0  0  0
    8.5335  -15.7899   15.0541 C   0  0  2  0  0  0  0  0  0  0  0  0
    8.7382  -15.4420   13.6825 N   0  0  0  0  0  0  0  0  0  0  0  0
    9.3387  -14.9377   15.9611 C   0  0  0  0  0  0  0  0  0  0  0  0
   10.2672  -14.2060   15.5505 O   0  0  0  0  0  0  0  0  0  0  0  0
    7.7058  -12.7546   18.8927 C   0  0  0  0  0  0  0  0  0  0  0  0
    8.7426  -13.7048   19.4254 C   0  0  1  0  0  0  0  0  0  0  0  0
    8.1987  -14.8209   20.0106 O   0  0  0  0  0  0  0  0  0  0  0  0
    9.7168  -14.1354   18.3239 C   0  0  2  0  0  0  0  0  0  0  0  0
    9.0319  -14.9636   17.3489 N   0  0  0  0  0  0  0  0  0  0  0  0
   10.7821  -14.9754   18.9321 C   0  0  0  0  0  0  0  0  0  0  0  0
   10.6961  -16.2281   18.9173 O   0  0  0  0  0  0  0  0  0  0  0  0
   15.2440  -15.6990   20.7352 C   0  0  0  0  0  0  0  0  0  0  0  0
   14.3080  -14.6682   20.1370 C   0  0  1  0  0  0  0  0  0  0  0  0
   14.7053  -14.5018   18.8077 O   0  0  0  0  0  0  0  0  0  0  0  0
   12.9289  -15.2652   20.1120 C   0  0  2  0  0  0  0  0  0  0  0  0
   11.9317  -14.4290   19.5509 N   0  0  0  0  0  0  0  0  0  0  0  0
   12.5354  -15.7197   21.4917 C   0  0  0  0  0  0  0  0  0  0  0  0
   13.0287  -16.8759   22.0669 O   0  0  0  0  0  0  0  0  0  0  0  0
   11.7262  -15.0245   22.1527 O   0  0  0  0  0  0  0  0  0  0  0  0
  2  1  1  0
  3  2  1  0
  3  4  1  6
  5 11  1  0
  5  3  1  0
  6  5  2  0
  8  7  1  6
  9  8  1  0
 10 12  1  0
 10  8  1  0
 10 11  1  6
 12 18  1  0
 13 12  2  0
 15 14  1  1
 15 16  1  0
 17 15  1  0
 17 18  1  1
 19 20  1  0
 19 17  1  0
 21 19  2  0
M  END
$$$$
