STT.pdb
     RDKit          3D

 21 20  0  0  1  0  0  0  0  0999 V2000
   10.0426  -17.8545   15.1403 O   0  0  0  0  0  0  0  0  0  0  0  0
    8.9950  -17.3270   15.8710 C   0  0  0  0  0  0  0  0  0  0  0  0
    8.9238  -15.8166   15.7946 C   0  0  2  0  0  0  0  0  0  0  0  0
    9.6918  -15.3799   14.6704 N   0  0  0  0  0  0  0  0  0  0  0  0
    9.3834  -15.1801   17.0520 C   0  0  0  0  0  0  0  0  0  0  0  0
   10.4708  -14.5667   17.1384 O   0  0  0  0  0  0  0  0  0  0  0  0
    7.3801  -12.6984   19.2544 C   0  0  0  0  0  0  0  0  0  0  0  0
    7.6759  -13.9406   20.0486 C   0  0  1  0  0  0  0  0  0  0  0  0
    6.6067  -14.7981   20.1233 O   0  0  0  0  0  0  0  0  0  0  0  0
    8.8848  -14.6885   19.4767 C   0  0  2  0  0  0  0  0  0  0  0  0
    8.5448  -15.2792   18.1957 N   0  0  0  0  0  0  0  0  0  0  0  0
    9.2278  -15.8090   20.3917 C   0  0  0  0  0  0  0  0  0  0  0  0
    9.3667  -16.9763   19.9501 O   0  0  0  0  0  0  0  0  0  0  0  0
   12.2806  -15.8025   22.2336 C   0  0  0  0  0  0  0  0  0  0  0  0
   11.4041  -17.0353   22.1404 C   0  0  1  0  0  0  0  0  0  0  0  0
   11.8906  -17.9355   23.0920 O   0  0  0  0  0  0  0  0  0  0  0  0
   10.0193  -16.6436   22.5738 C   0  0  2  0  0  0  0  0  0  0  0  0
    9.4147  -15.6344   21.7836 N   0  0  0  0  0  0  0  0  0  0  0  0
   10.0209  -16.2584   24.0287 C   0  0  0  0  0  0  0  0  0  0  0  0
   10.3428  -17.1476   25.0371 O   0  0  0  0  0  0  0  0  0  0  0  0
    9.7182  -15.0826   24.3462 O   0  0  0  0  0  0  0  0  0  0  0  0
  2  1  1  0
  3  2  1  0
  3  4  1  6
  5 11  1  0
  5  3  1  0
  6  5  2  0
  8  7  1  6
  9  8  1  0
 10 12  1  0
 10  8  1  0
 10 11  1  6
 12 18  1  0
 13 12  2  0
 15 14  1  1
 15 16  1  0
 17 15  1  0
 17 18  1  6
 19 20  1  0
 19 17  1  0
 21 19  2  0
M  END
$$$$
