STT.pdb
     RDKit          3D

 21 20  0  0  1  0  0  0  0  0999 V2000
    8.4506  -18.9679   17.0084 O   0  0  0  0  0  0  0  0  0  0  0  0
    7.6292  -18.1742   16.2306 C   0  0  0  0  0  0  0  0  0  0  0  0
    8.3245  -16.9320   15.7153 C   0  0  2  0  0  0  0  0  0  0  0  0
    9.2472  -17.3165   14.6929 N   0  0  0  0  0  0  0  0  0  0  0  0
    8.9959  -16.1852   16.8057 C   0  0  0  0  0  0  0  0  0  0  0  0
   10.2379  -16.1873   16.9585 O   0  0  0  0  0  0  0  0  0  0  0  0
    8.2022  -12.8835   20.4790 C   0  0  0  0  0  0  0  0  0  0  0  0
    7.7386  -13.5851   19.2322 C   0  0  1  0  0  0  0  0  0  0  0  0
    7.5346  -12.7295   18.1784 O   0  0  0  0  0  0  0  0  0  0  0  0
    8.7267  -14.6782   18.8122 C   0  0  2  0  0  0  0  0  0  0  0  0
    8.1830  -15.4423   17.7048 N   0  0  0  0  0  0  0  0  0  0  0  0
    8.9002  -15.6243   19.9459 C   0  0  0  0  0  0  0  0  0  0  0  0
    7.9504  -16.3551   20.3207 O   0  0  0  0  0  0  0  0  0  0  0  0
   11.5723  -18.1506   20.1894 C   0  0  0  0  0  0  0  0  0  0  0  0
   11.5212  -17.5519   21.5806 C   0  0  1  0  0  0  0  0  0  0  0  0
   12.5986  -16.6663   21.6666 O   0  0  0  0  0  0  0  0  0  0  0  0
   10.2673  -16.7289   21.6766 C   0  0  2  0  0  0  0  0  0  0  0  0
   10.1171  -15.7571   20.6561 N   0  0  0  0  0  0  0  0  0  0  0  0
   10.1642  -16.0979   23.0391 C   0  0  0  0  0  0  0  0  0  0  0  0
   10.1878  -14.7293   23.2328 O   0  0  0  0  0  0  0  0  0  0  0  0
   10.0520  -16.8395   24.0452 O   0  0  0  0  0  0  0  0  0  0  0  0
  2  1  1  0
  3  2  1  0
  3  4  1  6
  5 11  1  0
  5  3  1  0
  6  5  2  0
  8  7  1  1
  9  8  1  0
 10 12  1  0
 10  8  1  0
 10 11  1  6
 12 18  1  0
 13 12  2  0
 15 14  1  6
 15 16  1  0
 17 15  1  0
 17 18  1  6
 19 20  1  0
 19 17  1  0
 21 19  2  0
M  END
$$$$
