STT.pdb
     RDKit          3D

 21 20  0  0  1  0  0  0  0  0999 V2000
    9.5976  -19.8831   17.2975 O   0  0  0  0  0  0  0  0  0  0  0  0
    9.8856  -18.9604   18.2852 C   0  0  0  0  0  0  0  0  0  0  0  0
    9.3929  -17.5678   17.9536 C   0  0  2  0  0  0  0  0  0  0  0  0
   10.0092  -17.1438   16.7351 N   0  0  0  0  0  0  0  0  0  0  0  0
    9.6529  -16.6148   19.0589 C   0  0  0  0  0  0  0  0  0  0  0  0
   10.7030  -15.9381   19.1322 O   0  0  0  0  0  0  0  0  0  0  0  0
    7.0279  -13.9941   20.5846 C   0  0  0  0  0  0  0  0  0  0  0  0
    7.4825  -14.9920   21.6137 C   0  0  1  0  0  0  0  0  0  0  0  0
    6.5673  -15.9907   21.8350 O   0  0  0  0  0  0  0  0  0  0  0  0
    8.8269  -15.6153   21.2242 C   0  0  2  0  0  0  0  0  0  0  0  0
    8.6607  -16.4756   20.0675 N   0  0  0  0  0  0  0  0  0  0  0  0
    9.2929  -16.4787   22.3413 C   0  0  0  0  0  0  0  0  0  0  0  0
    9.0297  -17.7065   22.3540 O   0  0  0  0  0  0  0  0  0  0  0  0
   12.3559  -17.7993   25.7400 C   0  0  0  0  0  0  0  0  0  0  0  0
   11.9836  -16.7024   24.7629 C   0  0  1  0  0  0  0  0  0  0  0  0
   12.6846  -16.9720   23.5845 O   0  0  0  0  0  0  0  0  0  0  0  0
   10.5214  -16.8498   24.4478 C   0  0  2  0  0  0  0  0  0  0  0  0
   10.0438  -15.9828   23.4336 N   0  0  0  0  0  0  0  0  0  0  0  0
    9.7037  -16.7100   25.7036 C   0  0  0  0  0  0  0  0  0  0  0  0
    9.6212  -17.7078   26.6568 O   0  0  0  0  0  0  0  0  0  0  0  0
    9.0681  -15.6458   25.8993 O   0  0  0  0  0  0  0  0  0  0  0  0
  2  1  1  0
  3  2  1  0
  3  4  1  6
  5 11  1  0
  5  3  1  0
  6  5  2  0
  8  7  1  6
  9  8  1  0
 10 12  1  0
 10  8  1  0
 10 11  1  6
 12 18  1  0
 13 12  2  0
 15 14  1  1
 15 16  1  0
 17 15  1  0
 17 18  1  6
 19 20  1  0
 19 17  1  0
 21 19  2  0
M  END
$$$$
