STT.pdb
     RDKit          3D

 21 20  0  0  1  0  0  0  0  0999 V2000
    6.9005  -19.2031   18.1679 O   0  0  0  0  0  0  0  0  0  0  0  0
    5.9230  -18.2291   18.2426 C   0  0  0  0  0  0  0  0  0  0  0  0
    6.2908  -16.9652   17.4948 C   0  0  2  0  0  0  0  0  0  0  0  0
    6.4680  -17.2877   16.1131 N   0  0  0  0  0  0  0  0  0  0  0  0
    7.4974  -16.3201   18.0653 C   0  0  0  0  0  0  0  0  0  0  0  0
    8.5215  -16.0857   17.3853 O   0  0  0  0  0  0  0  0  0  0  0  0
    7.8864  -12.9749   19.2395 C   0  0  0  0  0  0  0  0  0  0  0  0
    8.0919  -13.8256   20.4625 C   0  0  1  0  0  0  0  0  0  0  0  0
    6.9716  -13.9130   21.2508 O   0  0  0  0  0  0  0  0  0  0  0  0
    8.5553  -15.2362   20.0841 C   0  0  2  0  0  0  0  0  0  0  0  0
    7.4746  -15.9596   19.4403 N   0  0  0  0  0  0  0  0  0  0  0  0
    8.8899  -15.9772   21.3288 C   0  0  0  0  0  0  0  0  0  0  0  0
    7.9901  -16.5397   22.0003 O   0  0  0  0  0  0  0  0  0  0  0  0
   11.5226  -18.8820   23.9402 C   0  0  0  0  0  0  0  0  0  0  0  0
   11.2642  -18.1619   22.6320 C   0  0  1  0  0  0  0  0  0  0  0  0
   10.4067  -18.9828   21.8949 O   0  0  0  0  0  0  0  0  0  0  0  0
   10.5050  -16.9036   22.9468 C   0  0  2  0  0  0  0  0  0  0  0  0
   10.2112  -16.0923   21.8226 N   0  0  0  0  0  0  0  0  0  0  0  0
   11.2261  -16.1140   24.0058 C   0  0  0  0  0  0  0  0  0  0  0  0
   11.0142  -16.3090   25.3579 O   0  0  0  0  0  0  0  0  0  0  0  0
   12.0557  -15.2408   23.6533 O   0  0  0  0  0  0  0  0  0  0  0  0
  2  1  1  0
  3  2  1  0
  3  4  1  6
  5 11  1  0
  5  3  1  0
  6  5  2  0
  8  7  1  6
  9  8  1  0
 10 12  1  0
 10  8  1  0
 10 11  1  1
 12 18  1  0
 13 12  2  0
 15 14  1  1
 15 16  1  0
 17 15  1  0
 17 18  1  6
 19 20  1  0
 19 17  1  0
 21 19  2  0
M  END
$$$$
