STT.pdb
     RDKit          3D

 21 20  0  0  1  0  0  0  0  0999 V2000
   14.0808  -18.5832   13.5530 O   0  0  0  0  0  0  0  0  0  0  0  0
   13.8801  -17.8434   14.7028 C   0  0  0  0  0  0  0  0  0  0  0  0
   13.4473  -16.4203   14.4209 C   0  0  2  0  0  0  0  0  0  0  0  0
   14.4097  -15.8138   13.5547 N   0  0  0  0  0  0  0  0  0  0  0  0
   13.2680  -15.6423   15.6699 C   0  0  0  0  0  0  0  0  0  0  0  0
   14.1158  -14.8167   16.0770 O   0  0  0  0  0  0  0  0  0  0  0  0
    9.8125  -14.1825   18.9392 C   0  0  0  0  0  0  0  0  0  0  0  0
   10.2052  -14.9809   17.7268 C   0  0  1  0  0  0  0  0  0  0  0  0
    9.6614  -14.4951   16.5640 O   0  0  0  0  0  0  0  0  0  0  0  0
   11.7288  -15.0528   17.5811 C   0  0  2  0  0  0  0  0  0  0  0  0
   12.0813  -15.8536   16.4235 N   0  0  0  0  0  0  0  0  0  0  0  0
   12.2888  -15.7449   18.7719 C   0  0  0  0  0  0  0  0  0  0  0  0
   12.2648  -16.9977   18.8542 O   0  0  0  0  0  0  0  0  0  0  0  0
   15.0581  -15.9047   22.7697 C   0  0  0  0  0  0  0  0  0  0  0  0
   14.4876  -14.9822   21.7113 C   0  0  1  0  0  0  0  0  0  0  0  0
   15.5296  -14.7176   20.8185 O   0  0  0  0  0  0  0  0  0  0  0  0
   13.4431  -15.7510   20.9518 C   0  0  2  0  0  0  0  0  0  0  0  0
   12.8698  -15.0519   19.8605 N   0  0  0  0  0  0  0  0  0  0  0  0
   12.3776  -16.2461   21.8924 C   0  0  0  0  0  0  0  0  0  0  0  0
   12.4439  -17.4787   22.5148 O   0  0  0  0  0  0  0  0  0  0  0  0
   11.3851  -15.5143   22.1255 O   0  0  0  0  0  0  0  0  0  0  0  0
  2  1  1  0
  3  2  1  0
  3  4  1  6
  5 11  1  0
  5  3  1  0
  6  5  2  0
  8  7  1  1
  9  8  1  0
 10 12  1  0
 10  8  1  0
 10 11  1  6
 12 18  1  0
 13 12  2  0
 15 14  1  1
 15 16  1  0
 17 15  1  0
 17 18  1  6
 19 20  1  0
 19 17  1  0
 21 19  2  0
M  END
$$$$
