STT.pdb
     RDKit          3D

 21 20  0  0  1  0  0  0  0  0999 V2000
   10.4144  -15.2891   17.2821 O   0  0  0  0  0  0  0  0  0  0  0  0
    9.0566  -15.5449   17.2593 C   0  0  0  0  0  0  0  0  0  0  0  0
    8.2357  -14.4307   17.8732 C   0  0  2  0  0  0  0  0  0  0  0  0
    8.2876  -13.2949   17.0062 N   0  0  0  0  0  0  0  0  0  0  0  0
    8.6982  -14.0965   19.2414 C   0  0  0  0  0  0  0  0  0  0  0  0
    9.4273  -13.1088   19.4837 O   0  0  0  0  0  0  0  0  0  0  0  0
    6.7358  -13.3662   22.4191 C   0  0  0  0  0  0  0  0  0  0  0  0
    7.4758  -14.6630   22.5987 C   0  0  1  0  0  0  0  0  0  0  0  0
    6.6878  -15.7659   22.3824 O   0  0  0  0  0  0  0  0  0  0  0  0
    8.7031  -14.7313   21.6840 C   0  0  2  0  0  0  0  0  0  0  0  0
    8.2888  -14.9410   20.3092 N   0  0  0  0  0  0  0  0  0  0  0  0
    9.5218  -15.9098   22.0730 C   0  0  0  0  0  0  0  0  0  0  0  0
    9.6976  -16.8599   21.2709 O   0  0  0  0  0  0  0  0  0  0  0  0
   13.2165  -18.1242   23.6997 C   0  0  0  0  0  0  0  0  0  0  0  0
   12.4291  -16.9200   23.2238 C   0  0  1  0  0  0  0  0  0  0  0  0
   12.4612  -16.9571   21.8273 O   0  0  0  0  0  0  0  0  0  0  0  0
   10.9976  -17.1198   23.6359 C   0  0  2  0  0  0  0  0  0  0  0  0
   10.1390  -16.0316   23.3408 N   0  0  0  0  0  0  0  0  0  0  0  0
   10.9238  -17.4825   25.0946 C   0  0  0  0  0  0  0  0  0  0  0  0
   11.3129  -18.7177   25.5784 O   0  0  0  0  0  0  0  0  0  0  0  0
   10.4919  -16.6328   25.9109 O   0  0  0  0  0  0  0  0  0  0  0  0
  2  1  1  0
  3  2  1  0
  3  4  1  6
  5 11  1  0
  5  3  1  0
  6  5  2  0
  8  7  1  6
  9  8  1  0
 10 12  1  0
 10  8  1  0
 10 11  1  6
 12 18  1  0
 13 12  2  0
 15 14  1  1
 15 16  1  0
 17 15  1  0
 17 18  1  1
 19 20  1  0
 19 17  1  0
 21 19  2  0
M  END
$$$$
