RDC.pdb
     RDKit          3D

 26 25  0  0  1  0  0  0  0  0999 V2000
   13.3692  -13.8300  -14.1909 N   0  0  0  0  0  0  0  0  0  0  0  0
   13.8967  -15.0169  -14.7489 C   0  0  0  0  0  0  0  0  0  0  0  0
   13.2826  -16.1518  -14.6973 N   0  0  0  0  0  0  0  0  0  0  0  0
   15.1787  -14.9083  -15.3938 N   0  0  0  0  0  0  0  0  0  0  0  0
   15.4125  -13.7144  -16.1925 C   0  0  0  0  0  0  0  0  0  0  0  0
   16.3287  -12.7870  -15.4116 C   0  0  0  0  0  0  0  0  0  0  0  0
   17.1599  -11.9746  -16.3487 C   0  0  0  0  0  0  0  0  0  0  0  0
   18.6257  -12.2804  -16.3142 C   0  0  2  0  0  0  0  0  0  0  0  0
   18.9389  -13.4571  -15.5443 N   0  0  0  0  0  0  0  0  0  0  0  0
   19.3185  -11.0690  -15.7862 C   0  0  0  0  0  0  0  0  0  0  0  0
   20.1054  -11.2100  -14.8188 O   0  0  0  0  0  0  0  0  0  0  0  0
   13.7170  -16.9864  -15.1342 N   0  0  0  0  0  0  0  0  0  0  0  0
   19.1394   -9.7686  -16.3139 C   0  0  1  0  0  0  0  0  0  0  0  0
   19.9082   -8.6241  -15.9306 C   0  0  0  0  0  0  0  0  0  0  0  0
   21.3659   -8.7375  -16.3184 C   0  0  0  0  0  0  0  0  0  0  0  0
   22.1599   -7.5427  -15.9434 O   0  0  0  0  0  0  0  0  0  0  0  0
   21.7041   -6.5738  -15.2881 C   0  0  0  0  0  0  0  0  0  0  0  0
   19.4015   -7.3664  -16.5741 O   0  0  0  0  0  0  0  0  0  0  0  0
   19.5066   -7.2203  -17.8177 O   0  0  0  0  0  0  0  0  0  0  0  0
   23.4885   -7.4814  -16.3354 N   0  0  0  0  0  0  0  0  0  0  0  0
   18.8100   -6.3417  -15.8231 C   0  0  2  0  0  0  0  0  0  0  0  0
   18.1317   -5.1960  -16.3625 C   0  0  0  0  0  0  0  0  0  0  0  0
   16.6769   -5.3941  -16.6051 S   0  0  0  0  0  0  0  0  0  0  0  0
   15.9252   -5.9040  -15.0139 C   0  0  0  0  0  0  0  0  0  0  0  0
   18.3181   -4.0590  -15.4259 O   0  0  0  0  0  0  0  0  0  0  0  0
   18.9800   -4.2196  -14.2083 O   0  0  0  0  0  0  0  0  0  0  0  0
  2  1  1  0
  2  4  1  0
  3  2  2  0
  4  5  1  0
  5  6  1  0
  6  7  1  0
  7  8  1  0
  8 10  1  0
  8  9  1  1
 10 11  2  0
 12 13  1  0
 12 10  1  0
 13 17  1  0
 13 14  1  1
 15 19  1  0
 15 14  1  0
 16 15  2  0
 17 18  2  0
 17 20  1  0
 20 21  1  0
 21 24  1  0
 22 23  1  0
 21 22  1  6
 24 26  2  0
 24 25  1  0
M  END
$$$$
