RDC.pdb
     RDKit          3D

 26 25  0  0  1  0  0  0  0  0999 V2000
   31.1212  -22.1795  -10.6559 N   0  0  0  0  0  0  0  0  0  0  0  0
   30.3555  -21.3933   -9.7646 C   0  0  0  0  0  0  0  0  0  0  0  0
   30.5777  -21.3539   -8.4930 N   0  0  0  0  0  0  0  0  0  0  0  0
   29.2908  -20.6182  -10.3449 N   0  0  0  0  0  0  0  0  0  0  0  0
   28.1425  -21.3556  -10.8506 C   0  0  0  0  0  0  0  0  0  0  0  0
   28.2968  -21.5111  -12.3544 C   0  0  0  0  0  0  0  0  0  0  0  0
   26.9931  -21.2547  -13.0354 C   0  0  0  0  0  0  0  0  0  0  0  0
   25.8764  -20.8509  -12.1225 C   0  0  2  0  0  0  0  0  0  0  0  0
   25.7454  -21.7125  -10.9753 N   0  0  0  0  0  0  0  0  0  0  0  0
   24.6277  -20.8169  -12.9386 C   0  0  0  0  0  0  0  0  0  0  0  0
   24.6972  -20.3749  -14.1111 O   0  0  0  0  0  0  0  0  0  0  0  0
   29.9821  -20.7553   -7.8903 N   0  0  0  0  0  0  0  0  0  0  0  0
   23.3681  -21.2547  -12.4663 C   0  0  2  0  0  0  0  0  0  0  0  0
   22.1576  -21.2174  -13.2287 C   0  0  0  0  0  0  0  0  0  0  0  0
   21.0011  -21.8978  -12.5304 C   0  0  0  0  0  0  0  0  0  0  0  0
   19.7937  -22.0096  -13.3838 O   0  0  0  0  0  0  0  0  0  0  0  0
   19.7230  -21.5784  -14.5606 C   0  0  0  0  0  0  0  0  0  0  0  0
   21.7104  -19.8113  -13.5037 O   0  0  0  0  0  0  0  0  0  0  0  0
   21.4558  -19.0425  -12.5429 O   0  0  0  0  0  0  0  0  0  0  0  0
   18.6679  -22.6265  -12.8598 N   0  0  0  0  0  0  0  0  0  0  0  0
   21.5673  -19.3265  -14.8106 C   0  0  2  0  0  0  0  0  0  0  0  0
   21.2185  -17.9794  -15.1680 C   0  0  0  0  0  0  0  0  0  0  0  0
   22.1945  -17.3037  -16.0654 S   0  0  0  0  0  0  0  0  0  0  0  0
   22.9258  -18.5933  -17.1423 C   0  0  0  0  0  0  0  0  0  0  0  0
   19.8872  -18.0003  -15.8252 O   0  0  0  0  0  0  0  0  0  0  0  0
   19.1980  -16.8217  -16.1116 O   0  0  0  0  0  0  0  0  0  0  0  0
  2  1  1  0
  2  4  1  0
  3  2  2  0
  4  5  1  0
  5  6  1  0
  6  7  1  0
  7  8  1  0
  8 10  1  0
  8  9  1  1
 10 11  2  0
 12 13  1  0
 12 10  1  0
 13 17  1  0
 13 14  1  6
 15 19  1  0
 15 14  1  0
 16 15  2  0
 17 18  2  0
 17 20  1  0
 20 21  1  0
 21 24  1  0
 22 23  1  0
 21 22  1  1
 24 26  2  0
 24 25  1  0
M  END
$$$$
