RDC.pdb
     RDKit          3D

 26 25  0  0  1  0  0  0  0  0999 V2000
   30.5451  -21.8790   -8.7440 N   0  0  0  0  0  0  0  0  0  0  0  0
   30.8589  -22.3398  -10.0431 C   0  0  0  0  0  0  0  0  0  0  0  0
   31.8929  -23.0696  -10.2999 N   0  0  0  0  0  0  0  0  0  0  0  0
   29.9572  -21.9535  -11.0962 N   0  0  0  0  0  0  0  0  0  0  0  0
   28.9433  -20.9643  -10.7622 C   0  0  0  0  0  0  0  0  0  0  0  0
   27.6099  -21.6770  -10.6096 C   0  0  0  0  0  0  0  0  0  0  0  0
   26.7121  -21.3412  -11.7543 C   0  0  0  0  0  0  0  0  0  0  0  0
   25.5555  -20.4554  -11.4063 C   0  0  2  0  0  0  0  0  0  0  0  0
   24.9658  -20.7719  -10.1305 N   0  0  0  0  0  0  0  0  0  0  0  0
   24.5664  -20.5613  -12.5184 C   0  0  0  0  0  0  0  0  0  0  0  0
   24.9806  -20.4271  -13.6954 O   0  0  0  0  0  0  0  0  0  0  0  0
   32.1111  -23.3157  -11.2838 N   0  0  0  0  0  0  0  0  0  0  0  0
   23.1866  -20.8045  -12.3224 C   0  0  1  0  0  0  0  0  0  0  0  0
   22.2088  -20.8211  -13.3672 C   0  0  0  0  0  0  0  0  0  0  0  0
   20.8301  -21.2046  -12.8770 C   0  0  0  0  0  0  0  0  0  0  0  0
   20.5981  -22.6691  -12.8876 O   0  0  0  0  0  0  0  0  0  0  0  0
   21.4310  -23.5092  -13.3074 C   0  0  0  0  0  0  0  0  0  0  0  0
   22.0613  -19.4774  -14.0194 O   0  0  0  0  0  0  0  0  0  0  0  0
   21.6718  -18.4964  -13.3373 O   0  0  0  0  0  0  0  0  0  0  0  0
   19.3902  -23.1511  -12.4066 N   0  0  0  0  0  0  0  0  0  0  0  0
   22.3472  -19.2826  -15.3773 C   0  0  1  0  0  0  0  0  0  0  0  0
   22.1909  -18.0478  -16.0948 C   0  0  0  0  0  0  0  0  0  0  0  0
   23.1229  -17.8752  -17.2420 S   0  0  0  0  0  0  0  0  0  0  0  0
   24.8163  -17.7539  -16.5529 C   0  0  0  0  0  0  0  0  0  0  0  0
   20.7926  -17.9679  -16.5879 O   0  0  0  0  0  0  0  0  0  0  0  0
   20.0632  -16.7806  -16.5195 O   0  0  0  0  0  0  0  0  0  0  0  0
  2  1  1  0
  2  4  1  0
  3  2  2  0
  4  5  1  0
  5  6  1  0
  6  7  1  0
  7  8  1  0
  8 10  1  0
  8  9  1  1
 10 11  2  0
 12 13  1  0
 12 10  1  0
 13 17  1  0
 13 14  1  6
 15 19  1  0
 15 14  1  0
 16 15  2  0
 17 18  2  0
 17 20  1  0
 20 21  1  0
 21 24  1  0
 22 23  1  0
 21 22  1  1
 24 26  2  0
 24 25  1  0
M  END
$$$$
