RDC.pdb
     RDKit          3D

 26 25  0  0  1  0  0  0  0  0999 V2000
   26.1267  -19.6882   -8.1008 N   0  0  0  0  0  0  0  0  0  0  0  0
   25.2763  -20.8090   -7.9626 C   0  0  0  0  0  0  0  0  0  0  0  0
   24.5148  -20.9917   -6.9356 N   0  0  0  0  0  0  0  0  0  0  0  0
   25.2928  -21.7637   -9.0393 N   0  0  0  0  0  0  0  0  0  0  0  0
   25.6330  -21.2571  -10.3606 C   0  0  0  0  0  0  0  0  0  0  0  0
   24.3827  -21.2910  -11.2236 C   0  0  0  0  0  0  0  0  0  0  0  0
   24.6718  -20.7197  -12.5723 C   0  0  0  0  0  0  0  0  0  0  0  0
   26.0746  -20.9271  -13.0547 C   0  0  2  0  0  0  0  0  0  0  0  0
   27.0612  -20.7289  -12.0237 N   0  0  0  0  0  0  0  0  0  0  0  0
   26.2856  -20.0082  -14.2111 C   0  0  0  0  0  0  0  0  0  0  0  0
   26.7112  -18.8506  -13.9791 O   0  0  0  0  0  0  0  0  0  0  0  0
   23.9158  -21.8375   -6.8898 N   0  0  0  0  0  0  0  0  0  0  0  0
   26.0332  -20.3669  -15.5562 C   0  0  1  0  0  0  0  0  0  0  0  0
   25.9722  -19.4409  -16.6455 C   0  0  0  0  0  0  0  0  0  0  0  0
   26.9162  -19.7956  -17.7730 C   0  0  0  0  0  0  0  0  0  0  0  0
   27.0066  -18.7373  -18.8076 O   0  0  0  0  0  0  0  0  0  0  0  0
   27.6651  -18.8486  -19.8706 C   0  0  0  0  0  0  0  0  0  0  0  0
   24.6012  -19.3782  -17.2529 O   0  0  0  0  0  0  0  0  0  0  0  0
   24.2749  -20.2117  -18.1349 O   0  0  0  0  0  0  0  0  0  0  0  0
   26.3260  -17.5475  -18.5983 N   0  0  0  0  0  0  0  0  0  0  0  0
   23.6665  -18.4098  -16.8625 C   0  0  2  0  0  0  0  0  0  0  0  0
   22.2782  -18.3928  -17.2316 C   0  0  0  0  0  0  0  0  0  0  0  0
   21.3482  -18.0253  -16.1294 S   0  0  0  0  0  0  0  0  0  0  0  0
   22.0992  -16.6150  -15.2324 C   0  0  0  0  0  0  0  0  0  0  0  0
   22.1048  -17.4358  -18.3535 O   0  0  0  0  0  0  0  0  0  0  0  0
   20.8990  -17.3394  -19.0485 O   0  0  0  0  0  0  0  0  0  0  0  0
  2  1  1  0
  2  4  1  0
  3  2  2  0
  4  5  1  0
  5  6  1  0
  6  7  1  0
  7  8  1  0
  8 10  1  0
  8  9  1  1
 10 11  2  0
 12 13  1  0
 12 10  1  0
 13 17  1  0
 13 14  1  6
 15 19  1  0
 15 14  1  0
 16 15  2  0
 17 18  2  0
 17 20  1  0
 20 21  1  0
 21 24  1  0
 22 23  1  0
 21 22  1  1
 24 26  2  0
 24 25  1  0
M  END
$$$$
