RDC.pdb
     RDKit          3D

 26 25  0  0  1  0  0  0  0  0999 V2000
   32.6351  -25.5107  -15.5914 N   0  0  0  0  0  0  0  0  0  0  0  0
   31.6094  -25.0269  -16.4356 C   0  0  0  0  0  0  0  0  0  0  0  0
   31.1862  -25.6740  -17.4700 N   0  0  0  0  0  0  0  0  0  0  0  0
   31.0405  -23.7515  -16.0882 N   0  0  0  0  0  0  0  0  0  0  0  0
   30.0978  -23.1737  -17.0346 C   0  0  0  0  0  0  0  0  0  0  0  0
   28.6954  -23.3303  -16.4707 C   0  0  0  0  0  0  0  0  0  0  0  0
   28.3049  -22.1047  -15.7128 C   0  0  0  0  0  0  0  0  0  0  0  0
   27.5905  -21.0666  -16.5223 C   0  0  2  0  0  0  0  0  0  0  0  0
   28.4721  -20.0565  -17.0496 N   0  0  0  0  0  0  0  0  0  0  0  0
   26.5290  -20.4803  -15.6529 C   0  0  0  0  0  0  0  0  0  0  0  0
   26.7544  -19.3733  -15.1063 O   0  0  0  0  0  0  0  0  0  0  0  0
   31.6869  -26.5298  -17.7754 N   0  0  0  0  0  0  0  0  0  0  0  0
   25.2814  -21.1010  -15.4088 C   0  0  2  0  0  0  0  0  0  0  0  0
   24.2279  -20.5268  -14.6288 C   0  0  0  0  0  0  0  0  0  0  0  0
   22.8682  -20.6782  -15.2740 C   0  0  0  0  0  0  0  0  0  0  0  0
   22.0949  -19.4133  -15.2995 O   0  0  0  0  0  0  0  0  0  0  0  0
   20.9785  -19.2837  -15.8587 C   0  0  0  0  0  0  0  0  0  0  0  0
   24.1207  -21.1644  -13.2743 O   0  0  0  0  0  0  0  0  0  0  0  0
   23.8158  -22.3801  -13.1836 O   0  0  0  0  0  0  0  0  0  0  0  0
   22.6283  -18.2988  -14.6702 N   0  0  0  0  0  0  0  0  0  0  0  0
   24.3524  -20.4385  -12.0983 C   0  0  2  0  0  0  0  0  0  0  0  0
   24.1481  -20.9257  -10.7624 C   0  0  0  0  0  0  0  0  0  0  0  0
   25.1059  -20.3937   -9.7553 S   0  0  0  0  0  0  0  0  0  0  0  0
   26.7822  -20.9330  -10.2618 C   0  0  0  0  0  0  0  0  0  0  0  0
   22.7647  -20.5826  -10.3464 O   0  0  0  0  0  0  0  0  0  0  0  0
   22.1951  -21.1251   -9.1942 O   0  0  0  0  0  0  0  0  0  0  0  0
  2  1  1  0
  2  4  1  0
  3  2  2  0
  4  5  1  0
  5  6  1  0
  6  7  1  0
  7  8  1  0
  8 10  1  0
  8  9  1  1
 10 11  2  0
 12 13  1  0
 12 10  1  0
 13 17  1  0
 13 14  1  6
 15 19  1  0
 15 14  1  0
 16 15  2  0
 17 18  2  0
 17 20  1  0
 20 21  1  0
 21 24  1  0
 22 23  1  0
 21 22  1  6
 24 26  2  0
 24 25  1  0
M  END
$$$$
