RDC.pdb
     RDKit          3D

 26 25  0  0  1  0  0  0  0  0999 V2000
   18.8848  -26.1495   -6.6091 N   0  0  0  0  0  0  0  0  0  0  0  0
   17.7146  -25.4489   -6.2372 C   0  0  0  0  0  0  0  0  0  0  0  0
   17.0442  -25.7178   -5.1666 N   0  0  0  0  0  0  0  0  0  0  0  0
   17.2884  -24.3965   -7.1215 N   0  0  0  0  0  0  0  0  0  0  0  0
   17.8456  -24.4030   -8.4659 C   0  0  0  0  0  0  0  0  0  0  0  0
   16.8413  -25.0599   -9.3981 C   0  0  0  0  0  0  0  0  0  0  0  0
   17.3404  -25.0192  -10.8046 C   0  0  0  0  0  0  0  0  0  0  0  0
   17.5532  -23.6429  -11.3559 C   0  0  2  0  0  0  0  0  0  0  0  0
   16.4644  -22.7446  -11.0672 N   0  0  0  0  0  0  0  0  0  0  0  0
   17.7839  -23.7844  -12.8232 C   0  0  0  0  0  0  0  0  0  0  0  0
   18.6744  -24.5797  -13.2097 O   0  0  0  0  0  0  0  0  0  0  0  0
   16.1453  -25.2299   -4.9926 N   0  0  0  0  0  0  0  0  0  0  0  0
   17.0558  -23.0727  -13.8055 C   0  0  1  0  0  0  0  0  0  0  0  0
   17.2205  -23.2392  -15.2173 C   0  0  0  0  0  0  0  0  0  0  0  0
   15.9265  -23.0775  -15.9838 C   0  0  0  0  0  0  0  0  0  0  0  0
   15.1805  -21.8519  -15.6095 O   0  0  0  0  0  0  0  0  0  0  0  0
   15.5094  -20.6936  -15.9645 C   0  0  0  0  0  0  0  0  0  0  0  0
   18.1754  -22.2348  -15.7934 O   0  0  0  0  0  0  0  0  0  0  0  0
   18.2823  -21.1028  -15.2582 O   0  0  0  0  0  0  0  0  0  0  0  0
   14.0488  -21.9816  -14.8190 N   0  0  0  0  0  0  0  0  0  0  0  0
   18.9575  -22.5241  -16.9196 C   0  0  1  0  0  0  0  0  0  0  0  0
   19.8997  -21.6303  -17.5339 C   0  0  0  0  0  0  0  0  0  0  0  0
   21.3112  -21.8277  -17.1060 S   0  0  0  0  0  0  0  0  0  0  0  0
   22.3245  -20.5776  -17.9822 C   0  0  0  0  0  0  0  0  0  0  0  0
   19.8100  -21.7972  -19.0066 O   0  0  0  0  0  0  0  0  0  0  0  0
   20.6298  -21.0731  -19.8726 O   0  0  0  0  0  0  0  0  0  0  0  0
  2  1  1  0
  2  4  1  0
  3  2  2  0
  4  5  1  0
  5  6  1  0
  6  7  1  0
  7  8  1  0
  8 10  1  0
  8  9  1  6
 10 11  2  0
 12 13  1  0
 12 10  1  0
 13 17  1  0
 13 14  1  6
 15 19  1  0
 15 14  1  0
 16 15  2  0
 17 18  2  0
 17 20  1  0
 20 21  1  0
 21 24  1  0
 22 23  1  0
 21 22  1  6
 24 26  2  0
 24 25  1  0
M  END
$$$$
