RDC.pdb
     RDKit          3D

 26 25  0  0  1  0  0  0  0  0999 V2000
   29.1191  -19.4897  -12.6283 N   0  0  0  0  0  0  0  0  0  0  0  0
   28.9828  -20.4884  -11.6371 C   0  0  0  0  0  0  0  0  0  0  0  0
   29.5648  -20.4210  -10.4861 N   0  0  0  0  0  0  0  0  0  0  0  0
   28.1482  -21.6127  -11.9693 N   0  0  0  0  0  0  0  0  0  0  0  0
   26.7733  -21.3207  -12.3469 C   0  0  0  0  0  0  0  0  0  0  0  0
   25.9923  -20.9809  -11.0885 C   0  0  0  0  0  0  0  0  0  0  0  0
   24.5644  -20.7058  -11.4267 C   0  0  0  0  0  0  0  0  0  0  0  0
   24.0220  -21.5130  -12.5659 C   0  0  2  0  0  0  0  0  0  0  0  0
   24.7472  -21.3136  -13.7947 N   0  0  0  0  0  0  0  0  0  0  0  0
   22.5785  -21.1635  -12.7085 C   0  0  0  0  0  0  0  0  0  0  0  0
   21.8358  -21.2890  -11.7047 O   0  0  0  0  0  0  0  0  0  0  0  0
   29.4416  -21.1955   -9.8070 N   0  0  0  0  0  0  0  0  0  0  0  0
   21.9976  -20.6983  -13.9117 C   0  0  1  0  0  0  0  0  0  0  0  0
   20.5966  -20.4808  -14.1057 C   0  0  0  0  0  0  0  0  0  0  0  0
   20.2748  -19.0677  -14.5392 C   0  0  0  0  0  0  0  0  0  0  0  0
   20.0742  -18.1429  -13.3977 O   0  0  0  0  0  0  0  0  0  0  0  0
   20.2970  -16.9085  -13.4462 C   0  0  0  0  0  0  0  0  0  0  0  0
   20.0299  -21.3815  -15.1640 O   0  0  0  0  0  0  0  0  0  0  0  0
   20.7597  -21.7550  -16.1164 O   0  0  0  0  0  0  0  0  0  0  0  0
   19.6125  -18.6629  -12.1981 N   0  0  0  0  0  0  0  0  0  0  0  0
   18.7003  -21.8220  -15.1214 C   0  0  2  0  0  0  0  0  0  0  0  0
   18.0854  -22.7138  -16.0651 C   0  0  0  0  0  0  0  0  0  0  0  0
   16.8082  -23.3215  -15.6024 S   0  0  0  0  0  0  0  0  0  0  0  0
   16.2180  -24.4284  -16.9379 C   0  0  0  0  0  0  0  0  0  0  0  0
   17.8399  -21.9652  -17.3237 O   0  0  0  0  0  0  0  0  0  0  0  0
   18.0702  -22.5442  -18.5719 O   0  0  0  0  0  0  0  0  0  0  0  0
  2  1  1  0
  2  4  1  0
  3  2  2  0
  4  5  1  0
  5  6  1  0
  6  7  1  0
  7  8  1  0
  8 10  1  0
  8  9  1  6
 10 11  2  0
 12 13  1  0
 12 10  1  0
 13 17  1  0
 13 14  1  1
 15 19  1  0
 15 14  1  0
 16 15  2  0
 17 18  2  0
 17 20  1  0
 20 21  1  0
 21 24  1  0
 22 23  1  0
 21 22  1  1
 24 26  2  0
 24 25  1  0
M  END
$$$$
