IYS.pdb
     RDKit          3D

 27 27  0  0  1  0  0  0  0  0999 V2000
   22.0628  -16.6071  -18.9160 C   0  0  0  0  0  0  0  0  0  0  0  0
   22.9825  -17.3903  -18.0255 C   0  0  0  0  0  0  0  0  0  0  0  0
   22.3388  -18.6399  -17.4767 C   0  0  2  0  0  0  0  0  0  0  0  0
   21.0074  -18.3815  -16.8524 C   0  0  0  0  0  0  0  0  0  0  0  0
   23.2858  -19.3624  -16.5709 C   0  0  2  0  0  0  0  0  0  0  0  0
   24.5458  -19.5431  -17.2317 N   0  0  0  0  0  0  0  0  0  0  0  0
   22.7043  -20.6412  -16.0916 C   0  0  0  0  0  0  0  0  0  0  0  0
   22.3998  -21.5497  -16.9056 O   0  0  0  0  0  0  0  0  0  0  0  0
   19.3522  -26.8033  -10.6401 O   0  0  0  0  0  0  0  0  0  0  0  0
   20.1015  -25.7989  -11.2192 C   0  0  0  0  0  0  0  0  0  0  0  0
   19.8575  -24.4945  -10.8087 C   0  0  0  0  0  0  0  0  0  0  0  0
   20.5770  -23.4550  -11.3545 C   0  0  0  0  0  0  0  0  0  0  0  0
   21.5449  -23.6418  -12.3045 C   0  0  0  0  0  0  0  0  0  0  0  0
   22.2770  -22.4680  -12.8442 C   0  0  0  0  0  0  0  0  0  0  0  0
   21.8218  -22.1322  -14.2525 C   0  0  2  0  0  0  0  0  0  0  0  0
   22.4663  -20.9002  -14.7169 N   0  0  0  0  0  0  0  0  0  0  0  0
   20.3584  -21.8758  -14.2577 C   0  0  0  0  0  0  0  0  0  0  0  0
   19.8380  -20.8710  -13.6661 O   0  0  0  0  0  0  0  0  0  0  0  0
   21.7883  -24.9402  -12.7137 C   0  0  0  0  0  0  0  0  0  0  0  0
   21.0690  -26.0013  -12.1709 C   0  0  0  0  0  0  0  0  0  0  0  0
   17.9215  -23.1429  -17.1518 O   0  0  0  0  0  0  0  0  0  0  0  0
   17.4858  -22.1939  -16.2208 C   0  0  0  0  0  0  0  0  0  0  0  0
   18.0332  -22.5303  -14.8484 C   0  0  2  0  0  0  0  0  0  0  0  0
   19.4591  -22.7480  -14.9299 N   0  0  0  0  0  0  0  0  0  0  0  0
   17.3704  -23.7548  -14.3246 C   0  0  0  0  0  0  0  0  0  0  0  0
   18.1300  -24.8770  -14.0352 O   0  0  0  0  0  0  0  0  0  0  0  0
   16.1321  -23.7386  -14.1576 O   0  0  0  0  0  0  0  0  0  0  0  0
  1  2  1  0
  3  4  1  1
  3  2  1  0
  5  6  1  6
  5  3  1  0
  7  5  1  0
  8  7  2  0
  9 10  1  0
 10 11  2  0
 10 20  1  0
 11 12  1  0
 12 13  2  0
 13 14  1  0
 15 14  1  1
 15 16  1  0
 16  7  1  0
 17 18  2  0
 17 15  1  0
 19 13  1  0
 20 19  2  0
 21 22  1  0
 23 22  1  6
 23 24  1  0
 24 17  1  0
 25 23  1  0
 26 25  1  0
 27 25  2  0
M  END
$$$$
