IYS.pdb
     RDKit          3D

 27 27  0  0  1  0  0  0  0  0999 V2000
   22.1743  -17.9933  -15.4053 C   0  0  0  0  0  0  0  0  0  0  0  0
   22.4835  -19.4357  -15.1291 C   0  0  0  0  0  0  0  0  0  0  0  0
   21.2529  -20.2421  -14.7937 C   0  0  2  0  0  0  0  0  0  0  0  0
   20.4012  -19.5962  -13.7513 C   0  0  0  0  0  0  0  0  0  0  0  0
   21.6257  -21.6527  -14.4613 C   0  0  2  0  0  0  0  0  0  0  0  0
   22.4919  -22.1773  -15.4769 N   0  0  0  0  0  0  0  0  0  0  0  0
   20.4210  -22.4934  -14.2488 C   0  0  0  0  0  0  0  0  0  0  0  0
   19.6528  -22.7632  -15.2068 O   0  0  0  0  0  0  0  0  0  0  0  0
   21.7195  -28.2888  -16.3663 O   0  0  0  0  0  0  0  0  0  0  0  0
   21.0517  -27.5628  -15.4007 C   0  0  0  0  0  0  0  0  0  0  0  0
   21.8167  -26.8847  -14.4602 C   0  0  0  0  0  0  0  0  0  0  0  0
   21.2006  -26.1454  -13.4752 C   0  0  0  0  0  0  0  0  0  0  0  0
   19.8398  -26.0395  -13.3695 C   0  0  0  0  0  0  0  0  0  0  0  0
   19.2519  -25.2223  -12.2780 C   0  0  0  0  0  0  0  0  0  0  0  0
   18.8763  -23.8354  -12.7665 C   0  0  2  0  0  0  0  0  0  0  0  0
   20.0799  -23.0259  -12.9784 N   0  0  0  0  0  0  0  0  0  0  0  0
   18.0722  -23.1399  -11.7286 C   0  0  0  0  0  0  0  0  0  0  0  0
   18.5890  -22.6879  -10.6521 O   0  0  0  0  0  0  0  0  0  0  0  0
   19.0775  -26.7144  -14.3056 C   0  0  0  0  0  0  0  0  0  0  0  0
   19.6861  -27.4656  -15.3070 C   0  0  0  0  0  0  0  0  0  0  0  0
   15.9883  -20.1239  -12.2303 O   0  0  0  0  0  0  0  0  0  0  0  0
   15.1311  -21.0863  -11.6861 C   0  0  0  0  0  0  0  0  0  0  0  0
   15.9377  -22.1334  -10.9449 C   0  0  2  0  0  0  0  0  0  0  0  0
   16.6733  -22.9432  -11.8883 N   0  0  0  0  0  0  0  0  0  0  0  0
   15.0304  -22.9992  -10.1445 C   0  0  0  0  0  0  0  0  0  0  0  0
   14.4627  -22.5081   -8.9799 O   0  0  0  0  0  0  0  0  0  0  0  0
   14.8020  -24.1593  -10.5484 O   0  0  0  0  0  0  0  0  0  0  0  0
  1  2  1  0
  3  4  1  1
  3  2  1  0
  5  6  1  6
  5  3  1  0
  7  5  1  0
  8  7  2  0
  9 10  1  0
 10 11  2  0
 10 20  1  0
 11 12  1  0
 12 13  2  0
 13 14  1  0
 15 14  1  1
 15 16  1  0
 16  7  1  0
 17 18  2  0
 17 15  1  0
 19 13  1  0
 20 19  2  0
 21 22  1  0
 23 22  1  6
 23 24  1  0
 24 17  1  0
 25 23  1  0
 26 25  1  0
 27 25  2  0
M  END
$$$$
