IYS.pdb
     RDKit          3D

 27 27  0  0  1  0  0  0  0  0999 V2000
   24.2874  -13.4995  -14.8183 C   0  0  0  0  0  0  0  0  0  0  0  0
   23.5341  -13.9667  -16.0292 C   0  0  0  0  0  0  0  0  0  0  0  0
   22.1248  -14.4002  -15.7081 C   0  0  2  0  0  0  0  0  0  0  0  0
   22.0635  -15.4118  -14.6118 C   0  0  0  0  0  0  0  0  0  0  0  0
   21.4138  -14.8330  -16.9517 C   0  0  2  0  0  0  0  0  0  0  0  0
   21.6057  -13.8565  -17.9845 N   0  0  0  0  0  0  0  0  0  0  0  0
   19.9796  -15.1075  -16.6854 C   0  0  0  0  0  0  0  0  0  0  0  0
   19.2251  -14.2004  -16.2510 O   0  0  0  0  0  0  0  0  0  0  0  0
   16.2677  -11.6955  -20.1975 O   0  0  0  0  0  0  0  0  0  0  0  0
   16.4284  -12.9178  -19.5767 C   0  0  0  0  0  0  0  0  0  0  0  0
   17.4481  -13.7433  -20.0332 C   0  0  0  0  0  0  0  0  0  0  0  0
   17.6517  -14.9735  -19.4488 C   0  0  0  0  0  0  0  0  0  0  0  0
   16.8841  -15.4394  -18.4154 C   0  0  0  0  0  0  0  0  0  0  0  0
   17.1675  -16.7782  -17.8389 C   0  0  0  0  0  0  0  0  0  0  0  0
   17.9975  -16.6705  -16.5728 C   0  0  2  0  0  0  0  0  0  0  0  0
   19.3965  -16.3828  -16.9028 N   0  0  0  0  0  0  0  0  0  0  0  0
   17.9876  -17.9716  -15.8557 C   0  0  0  0  0  0  0  0  0  0  0  0
   18.8093  -18.9097  -16.1295 O   0  0  0  0  0  0  0  0  0  0  0  0
   15.8688  -14.6180  -17.9604 C   0  0  0  0  0  0  0  0  0  0  0  0
   15.6508  -13.3719  -18.5413 C   0  0  0  0  0  0  0  0  0  0  0  0
   15.3428  -18.8270  -12.6189 O   0  0  0  0  0  0  0  0  0  0  0  0
   16.6655  -19.2800  -12.6678 C   0  0  0  0  0  0  0  0  0  0  0  0
   17.0835  -19.4930  -14.1088 C   0  0  2  0  0  0  0  0  0  0  0  0
   17.0512  -18.2353  -14.8189 N   0  0  0  0  0  0  0  0  0  0  0  0
   16.1642  -20.4609  -14.7654 C   0  0  0  0  0  0  0  0  0  0  0  0
   16.1139  -21.7717  -14.3191 O   0  0  0  0  0  0  0  0  0  0  0  0
   15.4538  -20.0616  -15.7126 O   0  0  0  0  0  0  0  0  0  0  0  0
  1  2  1  0
  3  4  1  1
  3  2  1  0
  5  6  1  6
  5  3  1  0
  7  5  1  0
  8  7  2  0
  9 10  1  0
 10 11  2  0
 10 20  1  0
 11 12  1  0
 12 13  2  0
 13 14  1  0
 15 14  1  6
 15 16  1  0
 16  7  1  0
 17 18  2  0
 17 15  1  0
 19 13  1  0
 20 19  2  0
 21 22  1  0
 23 22  1  1
 23 24  1  0
 24 17  1  0
 25 23  1  0
 26 25  1  0
 27 25  2  0
M  END
$$$$
