IYS.pdb
     RDKit          3D

 27 27  0  0  1  0  0  0  0  0999 V2000
   29.3950  -11.7256  -16.8691 C   0  0  0  0  0  0  0  0  0  0  0  0
   28.1878  -12.2540  -16.1510 C   0  0  0  0  0  0  0  0  0  0  0  0
   26.9218  -11.5211  -16.5211 C   0  0  2  0  0  0  0  0  0  0  0  0
   27.0393  -10.0412  -16.3622 C   0  0  0  0  0  0  0  0  0  0  0  0
   25.7491  -12.1018  -15.7952 C   0  0  2  0  0  0  0  0  0  0  0  0
   25.7582  -13.5302  -15.9240 N   0  0  0  0  0  0  0  0  0  0  0  0
   24.4750  -11.4955  -16.2559 C   0  0  0  0  0  0  0  0  0  0  0  0
   24.0285  -11.7424  -17.4050 O   0  0  0  0  0  0  0  0  0  0  0  0
   19.7000  -15.6275  -16.8735 O   0  0  0  0  0  0  0  0  0  0  0  0
   20.1227  -14.4037  -16.3950 C   0  0  0  0  0  0  0  0  0  0  0  0
   19.7217  -13.2678  -17.0868 C   0  0  0  0  0  0  0  0  0  0  0  0
   20.1156  -12.0220  -16.6520 C   0  0  0  0  0  0  0  0  0  0  0  0
   20.9013  -11.8369  -15.5463 C   0  0  0  0  0  0  0  0  0  0  0  0
   21.2835  -10.4601  -15.1421 C   0  0  0  0  0  0  0  0  0  0  0  0
   22.4891   -9.9693  -15.9223 C   0  0  2  0  0  0  0  0  0  0  0  0
   23.7095  -10.6228  -15.4399 N   0  0  0  0  0  0  0  0  0  0  0  0
   22.6697   -8.5115  -15.6997 C   0  0  0  0  0  0  0  0  0  0  0  0
   23.4497   -8.0484  -14.8011 O   0  0  0  0  0  0  0  0  0  0  0  0
   21.3010  -12.9674  -14.8571 C   0  0  0  0  0  0  0  0  0  0  0  0
   20.9107  -14.2333  -15.2846 C   0  0  0  0  0  0  0  0  0  0  0  0
   24.0109   -4.5285  -16.5389 O   0  0  0  0  0  0  0  0  0  0  0  0
   23.7388   -5.8990  -16.6096 C   0  0  0  0  0  0  0  0  0  0  0  0
   22.2664   -6.1454  -16.3494 C   0  0  2  0  0  0  0  0  0  0  0  0
   21.9740   -7.5535  -16.4865 N   0  0  0  0  0  0  0  0  0  0  0  0
   21.4441   -5.3682  -17.3153 C   0  0  0  0  0  0  0  0  0  0  0  0
   21.0491   -4.0782  -16.9993 O   0  0  0  0  0  0  0  0  0  0  0  0
   21.1278   -5.9055  -18.3982 O   0  0  0  0  0  0  0  0  0  0  0  0
  1  2  1  0
  3  4  1  1
  3  2  1  0
  5  6  1  6
  5  3  1  0
  7  5  1  0
  8  7  2  0
  9 10  1  0
 10 11  2  0
 10 20  1  0
 11 12  1  0
 12 13  2  0
 13 14  1  0
 15 14  1  1
 15 16  1  0
 16  7  1  0
 17 18  2  0
 17 15  1  0
 19 13  1  0
 20 19  2  0
 21 22  1  0
 23 22  1  6
 23 24  1  0
 24 17  1  0
 25 23  1  0
 26 25  1  0
 27 25  2  0
M  END
$$$$
