IYS.pdb
     RDKit          3D

 27 27  0  0  1  0  0  0  0  0999 V2000
   28.5951  -22.1574  -20.2175 C   0  0  0  0  0  0  0  0  0  0  0  0
   27.8198  -23.4276  -20.0230 C   0  0  0  0  0  0  0  0  0  0  0  0
   26.8958  -23.3702  -18.8314 C   0  0  2  0  0  0  0  0  0  0  0  0
   25.9576  -22.2098  -18.8789 C   0  0  0  0  0  0  0  0  0  0  0  0
   27.6781  -23.4456  -17.5579 C   0  0  2  0  0  0  0  0  0  0  0  0
   28.4447  -24.6575  -17.5310 N   0  0  0  0  0  0  0  0  0  0  0  0
   26.7954  -23.3024  -16.3732 C   0  0  0  0  0  0  0  0  0  0  0  0
   26.0356  -24.2417  -16.0250 O   0  0  0  0  0  0  0  0  0  0  0  0
   23.1525  -20.3560   -8.8723 O   0  0  0  0  0  0  0  0  0  0  0  0
   23.9136  -20.4642  -10.0188 C   0  0  0  0  0  0  0  0  0  0  0  0
   25.0336  -21.2845   -9.9738 C   0  0  0  0  0  0  0  0  0  0  0  0
   25.8274  -21.4277  -11.0899 C   0  0  0  0  0  0  0  0  0  0  0  0
   25.5661  -20.7891  -12.2723 C   0  0  0  0  0  0  0  0  0  0  0  0
   26.4711  -20.9955  -13.4313 C   0  0  0  0  0  0  0  0  0  0  0  0
   25.8800  -21.9774  -14.4262 C   0  0  2  0  0  0  0  0  0  0  0  0
   26.7635  -22.1215  -15.5871 N   0  0  0  0  0  0  0  0  0  0  0  0
   24.5866  -21.4546  -14.9372 C   0  0  0  0  0  0  0  0  0  0  0  0
   24.5151  -20.4322  -15.6987 O   0  0  0  0  0  0  0  0  0  0  0  0
   24.4510  -19.9722  -12.3178 C   0  0  0  0  0  0  0  0  0  0  0  0
   23.6392  -19.8176  -11.1976 C   0  0  0  0  0  0  0  0  0  0  0  0
   21.0686  -23.6555  -14.7390 O   0  0  0  0  0  0  0  0  0  0  0  0
   21.2633  -22.6412  -15.6827 C   0  0  0  0  0  0  0  0  0  0  0  0
   22.1054  -21.5340  -15.0817 C   0  0  2  0  0  0  0  0  0  0  0  0
   23.3539  -22.0763  -14.5977 N   0  0  0  0  0  0  0  0  0  0  0  0
   21.3713  -20.8917  -13.9584 C   0  0  0  0  0  0  0  0  0  0  0  0
   20.1772  -20.2335  -14.2053 O   0  0  0  0  0  0  0  0  0  0  0  0
   21.8565  -20.9636  -12.8092 O   0  0  0  0  0  0  0  0  0  0  0  0
  1  2  1  0
  3  4  1  1
  3  2  1  0
  5  6  1  1
  5  3  1  0
  7  5  1  0
  8  7  2  0
  9 10  1  0
 10 11  2  0
 10 20  1  0
 11 12  1  0
 12 13  2  0
 13 14  1  0
 15 14  1  1
 15 16  1  0
 16  7  1  0
 17 18  2  0
 17 15  1  0
 19 13  1  0
 20 19  2  0
 21 22  1  0
 23 22  1  1
 23 24  1  0
 24 17  1  0
 25 23  1  0
 26 25  1  0
 27 25  2  0
M  END
$$$$
