IYS.pdb
     RDKit          3D

 27 27  0  0  1  0  0  0  0  0999 V2000
   22.1409  -18.7295  -20.5883 C   0  0  0  0  0  0  0  0  0  0  0  0
   22.6995  -20.1046  -20.3661 C   0  0  0  0  0  0  0  0  0  0  0  0
   22.4616  -20.6114  -18.9648 C   0  0  2  0  0  0  0  0  0  0  0  0
   21.0415  -20.4656  -18.5274 C   0  0  0  0  0  0  0  0  0  0  0  0
   23.4390  -19.9969  -18.0127 C   0  0  2  0  0  0  0  0  0  0  0  0
   24.7721  -20.1545  -18.5177 N   0  0  0  0  0  0  0  0  0  0  0  0
   23.2784  -20.5483  -16.6440 C   0  0  0  0  0  0  0  0  0  0  0  0
   23.3775  -21.7845  -16.4373 O   0  0  0  0  0  0  0  0  0  0  0  0
   22.8562  -21.2221   -7.8433 O   0  0  0  0  0  0  0  0  0  0  0  0
   23.0368  -20.7720   -9.1356 C   0  0  0  0  0  0  0  0  0  0  0  0
   22.0199  -20.0141   -9.7021 C   0  0  0  0  0  0  0  0  0  0  0  0
   22.1492  -19.5403  -10.9886 C   0  0  0  0  0  0  0  0  0  0  0  0
   23.2542  -19.7817  -11.7599 C   0  0  0  0  0  0  0  0  0  0  0  0
   23.3177  -19.2354  -13.1392 C   0  0  0  0  0  0  0  0  0  0  0  0
   22.8864  -20.2687  -14.1636 C   0  0  2  0  0  0  0  0  0  0  0  0
   23.0100  -19.7254  -15.5195 N   0  0  0  0  0  0  0  0  0  0  0  0
   21.4516  -20.6004  -13.9665 C   0  0  0  0  0  0  0  0  0  0  0  0
   20.5134  -19.7958  -14.2870 O   0  0  0  0  0  0  0  0  0  0  0  0
   24.2670  -20.5363  -11.1965 C   0  0  0  0  0  0  0  0  0  0  0  0
   24.1505  -21.0221   -9.8972 C   0  0  0  0  0  0  0  0  0  0  0  0
   18.1016  -23.9286  -12.9094 O   0  0  0  0  0  0  0  0  0  0  0  0
   19.4419  -23.6402  -13.1883 C   0  0  0  0  0  0  0  0  0  0  0  0
   19.6522  -22.1397  -13.2075 C   0  0  2  0  0  0  0  0  0  0  0  0
   21.0524  -21.8439  -13.4050 N   0  0  0  0  0  0  0  0  0  0  0  0
   19.1931  -21.5471  -11.9225 C   0  0  0  0  0  0  0  0  0  0  0  0
   17.8373  -21.4693  -11.6473 O   0  0  0  0  0  0  0  0  0  0  0  0
   20.0521  -21.1304  -11.1164 O   0  0  0  0  0  0  0  0  0  0  0  0
  1  2  1  0
  3  4  1  1
  3  2  1  0
  5  6  1  6
  5  3  1  0
  7  5  1  0
  8  7  2  0
  9 10  1  0
 10 11  2  0
 10 20  1  0
 11 12  1  0
 12 13  2  0
 13 14  1  0
 15 14  1  1
 15 16  1  0
 16  7  1  0
 17 18  2  0
 17 15  1  0
 19 13  1  0
 20 19  2  0
 21 22  1  0
 23 22  1  1
 23 24  1  0
 24 17  1  0
 25 23  1  0
 26 25  1  0
 27 25  2  0
M  END
$$$$
