IYS.pdb
     RDKit          3D

 27 27  0  0  1  0  0  0  0  0999 V2000
   29.3702  -19.6790  -14.0269 C   0  0  0  0  0  0  0  0  0  0  0  0
   28.5459  -20.0617  -12.8326 C   0  0  0  0  0  0  0  0  0  0  0  0
   27.1111  -20.3659  -13.1875 C   0  0  2  0  0  0  0  0  0  0  0  0
   26.4840  -19.3059  -14.0314 C   0  0  0  0  0  0  0  0  0  0  0  0
   26.3230  -20.6835  -11.9557 C   0  0  2  0  0  0  0  0  0  0  0  0
   26.9664  -21.7381  -11.2271 N   0  0  0  0  0  0  0  0  0  0  0  0
   24.9101  -20.9972  -12.2851 C   0  0  0  0  0  0  0  0  0  0  0  0
   24.5893  -22.1393  -12.7017 O   0  0  0  0  0  0  0  0  0  0  0  0
   20.2526  -23.0688   -7.1252 O   0  0  0  0  0  0  0  0  0  0  0  0
   20.6146  -22.2031   -8.1376 C   0  0  0  0  0  0  0  0  0  0  0  0
   20.0174  -22.3781   -9.3794 C   0  0  0  0  0  0  0  0  0  0  0  0
   20.3430  -21.5419  -10.4240 C   0  0  0  0  0  0  0  0  0  0  0  0
   21.2466  -20.5207  -10.3020 C   0  0  0  0  0  0  0  0  0  0  0  0
   21.5439  -19.6622  -11.4766 C   0  0  0  0  0  0  0  0  0  0  0  0
   22.4700  -20.3631  -12.4534 C   0  0  2  0  0  0  0  0  0  0  0  0
   23.8681  -20.0434  -12.1499 N   0  0  0  0  0  0  0  0  0  0  0  0
   22.2097  -19.8710  -13.8309 C   0  0  0  0  0  0  0  0  0  0  0  0
   22.5436  -18.6993  -14.2130 O   0  0  0  0  0  0  0  0  0  0  0  0
   21.8415  -20.3459   -9.0658 C   0  0  0  0  0  0  0  0  0  0  0  0
   21.5224  -21.1833   -8.0006 C   0  0  0  0  0  0  0  0  0  0  0  0
   22.0106  -22.3873  -16.8874 O   0  0  0  0  0  0  0  0  0  0  0  0
   22.2138  -21.0212  -17.1102 C   0  0  0  0  0  0  0  0  0  0  0  0
   21.3699  -20.2116  -16.1465 C   0  0  2  0  0  0  0  0  0  0  0  0
   21.5690  -20.6919  -14.7987 N   0  0  0  0  0  0  0  0  0  0  0  0
   19.9323  -20.3279  -16.5108 C   0  0  0  0  0  0  0  0  0  0  0  0
   19.5089  -19.9361  -17.7707 O   0  0  0  0  0  0  0  0  0  0  0  0
   19.1357  -20.7809  -15.6614 O   0  0  0  0  0  0  0  0  0  0  0  0
  1  2  1  0
  3  4  1  1
  3  2  1  0
  5  6  1  6
  5  3  1  0
  7  5  1  0
  8  7  2  0
  9 10  1  0
 10 11  2  0
 10 20  1  0
 11 12  1  0
 12 13  2  0
 13 14  1  0
 15 14  1  1
 15 16  1  0
 16  7  1  0
 17 18  2  0
 17 15  1  0
 19 13  1  0
 20 19  2  0
 21 22  1  0
 23 22  1  6
 23 24  1  0
 24 17  1  0
 25 23  1  0
 26 25  1  0
 27 25  2  0
M  END
$$$$
