IYS.pdb
     RDKit          3D

 27 27  0  0  1  0  0  0  0  0999 V2000
   24.7090  -14.8671  -17.9368 C   0  0  0  0  0  0  0  0  0  0  0  0
   24.6711  -13.8149  -16.8675 C   0  0  0  0  0  0  0  0  0  0  0  0
   24.1292  -12.4972  -17.3647 C   0  0  2  0  0  0  0  0  0  0  0  0
   24.7930  -12.0319  -18.6185 C   0  0  0  0  0  0  0  0  0  0  0  0
   24.1504  -11.4760  -16.2710 C   0  0  2  0  0  0  0  0  0  0  0  0
   23.8118  -12.0958  -15.0226 N   0  0  0  0  0  0  0  0  0  0  0  0
   23.2725  -10.3231  -16.5923 C   0  0  0  0  0  0  0  0  0  0  0  0
   23.4819   -9.6266  -17.6179 O   0  0  0  0  0  0  0  0  0  0  0  0
   19.2469  -13.0892  -20.6383 O   0  0  0  0  0  0  0  0  0  0  0  0
   19.3819  -12.1648  -19.6221 C   0  0  0  0  0  0  0  0  0  0  0  0
   19.4779  -12.6452  -18.3224 C   0  0  0  0  0  0  0  0  0  0  0  0
   19.6140  -11.7657  -17.2715 C   0  0  0  0  0  0  0  0  0  0  0  0
   19.6611  -10.4083  -17.4423 C   0  0  0  0  0  0  0  0  0  0  0  0
   19.8095   -9.5261  -16.2571 C   0  0  0  0  0  0  0  0  0  0  0  0
   21.2038   -8.9317  -16.1813 C   0  0  2  0  0  0  0  0  0  0  0  0
   22.1728   -9.9540  -15.7750 N   0  0  0  0  0  0  0  0  0  0  0  0
   21.2403   -7.8722  -15.1405 C   0  0  0  0  0  0  0  0  0  0  0  0
   21.6734   -8.0887  -13.9590 O   0  0  0  0  0  0  0  0  0  0  0  0
   19.5657   -9.9292  -18.7362 C   0  0  0  0  0  0  0  0  0  0  0  0
   19.4278  -10.8061  -19.8085 C   0  0  0  0  0  0  0  0  0  0  0  0
   22.8600   -4.2403  -13.5003 O   0  0  0  0  0  0  0  0  0  0  0  0
   22.5776   -5.3279  -14.3338 C   0  0  0  0  0  0  0  0  0  0  0  0
   21.0782   -5.4759  -14.4962 C   0  0  2  0  0  0  0  0  0  0  0  0
   20.7893   -6.5523  -15.4154 N   0  0  0  0  0  0  0  0  0  0  0  0
   20.4969   -4.2079  -15.0135 C   0  0  0  0  0  0  0  0  0  0  0  0
   20.0405   -3.2483  -14.1242 O   0  0  0  0  0  0  0  0  0  0  0  0
   20.4349   -4.0402  -16.2502 O   0  0  0  0  0  0  0  0  0  0  0  0
  1  2  1  0
  3  4  1  6
  3  2  1  0
  5  6  1  1
  5  3  1  0
  7  5  1  0
  8  7  2  0
  9 10  1  0
 10 11  2  0
 10 20  1  0
 11 12  1  0
 12 13  2  0
 13 14  1  0
 15 14  1  1
 15 16  1  0
 16  7  1  0
 17 18  2  0
 17 15  1  0
 19 13  1  0
 20 19  2  0
 21 22  1  0
 23 22  1  6
 23 24  1  0
 24 17  1  0
 25 23  1  0
 26 25  1  0
 27 25  2  0
M  END
$$$$
