IYS.pdb
     RDKit          3D

 27 27  0  0  1  0  0  0  0  0999 V2000
   26.6738  -20.9249  -19.6615 C   0  0  0  0  0  0  0  0  0  0  0  0
   25.8475  -22.1253  -19.3027 C   0  0  0  0  0  0  0  0  0  0  0  0
   25.3349  -22.0777  -17.8843 C   0  0  2  0  0  0  0  0  0  0  0  0
   24.5132  -20.8631  -17.6038 C   0  0  0  0  0  0  0  0  0  0  0  0
   26.4587  -22.2675  -16.9146 C   0  0  2  0  0  0  0  0  0  0  0  0
   27.1591  -23.4823  -17.2162 N   0  0  0  0  0  0  0  0  0  0  0  0
   25.9749  -22.2210  -15.5121 C   0  0  0  0  0  0  0  0  0  0  0  0
   25.1064  -23.0354  -15.1083 O   0  0  0  0  0  0  0  0  0  0  0  0
   25.1949  -20.2709   -6.9144 O   0  0  0  0  0  0  0  0  0  0  0  0
   25.5865  -20.2778   -8.2380 C   0  0  0  0  0  0  0  0  0  0  0  0
   26.4846  -21.2586   -8.6393 C   0  0  0  0  0  0  0  0  0  0  0  0
   26.9079  -21.3104   -9.9487 C   0  0  0  0  0  0  0  0  0  0  0  0
   26.4807  -20.4250  -10.9014 C   0  0  0  0  0  0  0  0  0  0  0  0
   26.9844  -20.5476  -12.2929 C   0  0  0  0  0  0  0  0  0  0  0  0
   25.9623  -21.2159  -13.1940 C   0  0  2  0  0  0  0  0  0  0  0  0
   26.4577  -21.2736  -14.5724 N   0  0  0  0  0  0  0  0  0  0  0  0
   24.7159  -20.4078  -13.2225 C   0  0  0  0  0  0  0  0  0  0  0  0
   24.6373  -19.2934  -13.8409 O   0  0  0  0  0  0  0  0  0  0  0  0
   25.5865  -19.4482  -10.5026 C   0  0  0  0  0  0  0  0  0  0  0  0
   25.1497  -19.3832   -9.1825 C   0  0  0  0  0  0  0  0  0  0  0  0
   21.4118  -21.3038  -14.5040 O   0  0  0  0  0  0  0  0  0  0  0  0
   21.8638  -20.0402  -14.1089 C   0  0  0  0  0  0  0  0  0  0  0  0
   22.3147  -20.0840  -12.6629 C   0  0  2  0  0  0  0  0  0  0  0  0
   23.5389  -20.8433  -12.5545 N   0  0  0  0  0  0  0  0  0  0  0  0
   21.2608  -20.7131  -11.8222 C   0  0  0  0  0  0  0  0  0  0  0  0
   21.5433  -21.8746  -11.1214 O   0  0  0  0  0  0  0  0  0  0  0  0
   20.1361  -20.1712  -11.7698 O   0  0  0  0  0  0  0  0  0  0  0  0
  1  2  1  0
  3  4  1  1
  3  2  1  0
  5  6  1  6
  5  3  1  0
  7  5  1  0
  8  7  2  0
  9 10  1  0
 10 11  2  0
 10 20  1  0
 11 12  1  0
 12 13  2  0
 13 14  1  0
 15 14  1  1
 15 16  1  0
 16  7  1  0
 17 18  2  0
 17 15  1  0
 19 13  1  0
 20 19  2  0
 21 22  1  0
 23 22  1  6
 23 24  1  0
 24 17  1  0
 25 23  1  0
 26 25  1  0
 27 25  2  0
M  END
$$$$
