VEG.pdb
     RDKit          3D

 21 20  0  0  1  0  0  0  0  0999 V2000
   23.5978  -13.1426  -17.8958 C   0  0  0  0  0  0  0  0  0  0  0  0
   24.5170  -12.3555  -16.9570 C   0  0  2  0  0  0  0  0  0  0  0  0
   25.5363  -13.2582  -16.3220 C   0  0  0  0  0  0  0  0  0  0  0  0
   23.6614  -11.7301  -15.8879 C   0  0  2  0  0  0  0  0  0  0  0  0
   22.8877  -12.7911  -15.2795 N   0  0  0  0  0  0  0  0  0  0  0  0
   22.8037  -10.6717  -16.4659 C   0  0  0  0  0  0  0  0  0  0  0  0
   22.5110  -10.7521  -17.6863 O   0  0  0  0  0  0  0  0  0  0  0  0
   22.2909   -9.5776  -15.7428 N   0  0  0  0  0  0  0  0  0  0  0  0
   21.3749   -8.5800  -16.3385 C   0  0  1  0  0  0  0  0  0  0  0  0
   20.1747   -9.2497  -16.9106 C   0  0  0  0  0  0  0  0  0  0  0  0
   20.2885   -9.6410  -18.3529 C   0  0  0  0  0  0  0  0  0  0  0  0
   19.0742  -10.2595  -18.8999 C   0  0  0  0  0  0  0  0  0  0  0  0
   18.3614  -11.1105  -18.3392 O   0  0  0  0  0  0  0  0  0  0  0  0
   21.1025   -7.5855  -15.2898 C   0  0  0  0  0  0  0  0  0  0  0  0
   20.8500   -7.9665  -14.1244 O   0  0  0  0  0  0  0  0  0  0  0  0
   18.6783   -9.8474  -20.1868 O   0  0  0  0  0  0  0  0  0  0  0  0
   21.1239   -6.2087  -15.5877 N   0  0  0  0  0  0  0  0  0  0  0  0
   20.8601   -5.2850  -14.5221 C   0  0  0  0  0  0  0  0  0  0  0  0
   22.0828   -5.0892  -13.7081 C   0  0  0  0  0  0  0  0  0  0  0  0
   22.1732   -4.0150  -12.8377 O   0  0  0  0  0  0  0  0  0  0  0  0
   23.0061   -5.9180  -13.8401 O   0  0  0  0  0  0  0  0  0  0  0  0
  2  4  1  0
  2  1  1  6
  2  3  1  0
  4  5  1  6
  6  4  1  0
  6  7  2  0
  8  6  1  0
  9  8  1  0
  9 14  1  0
  9 10  1  1
 11 10  1  0
 12 13  2  0
 12 11  1  0
 14 15  2  0
 14 17  1  0
 16 12  1  0
 17 18  1  0
 19 20  1  0
 19 18  1  0
 21 19  2  0
M  END
$$$$
