VEG.pdb
     RDKit          3D

 21 20  0  0  1  0  0  0  0  0999 V2000
   16.2533  -11.3821  -16.7695 C   0  0  0  0  0  0  0  0  0  0  0  0
   17.4685  -12.2566  -17.0927 C   0  0  2  0  0  0  0  0  0  0  0  0
   17.2057  -13.6930  -16.7396 C   0  0  0  0  0  0  0  0  0  0  0  0
   18.6343  -11.7449  -16.2895 C   0  0  2  0  0  0  0  0  0  0  0  0
   18.3497  -12.0155  -14.8965 N   0  0  0  0  0  0  0  0  0  0  0  0
   18.8472  -10.3035  -16.5482 C   0  0  0  0  0  0  0  0  0  0  0  0
   19.1832   -9.9571  -17.7095 O   0  0  0  0  0  0  0  0  0  0  0  0
   18.6994   -9.2897  -15.5821 N   0  0  0  0  0  0  0  0  0  0  0  0
   18.9356   -7.8592  -15.8770 C   0  0  1  0  0  0  0  0  0  0  0  0
   17.6590   -7.0960  -15.8156 C   0  0  0  0  0  0  0  0  0  0  0  0
   17.7791   -5.6274  -16.0906 C   0  0  0  0  0  0  0  0  0  0  0  0
   16.5178   -4.8894  -15.9463 C   0  0  0  0  0  0  0  0  0  0  0  0
   15.4057   -5.3733  -15.6713 O   0  0  0  0  0  0  0  0  0  0  0  0
   19.9846   -7.4098  -14.9492 C   0  0  0  0  0  0  0  0  0  0  0  0
   19.9194   -7.7260  -13.7397 O   0  0  0  0  0  0  0  0  0  0  0  0
   16.5743   -3.4956  -16.1386 O   0  0  0  0  0  0  0  0  0  0  0  0
   21.0606   -6.6271  -15.4120 N   0  0  0  0  0  0  0  0  0  0  0  0
   22.1675   -6.4123  -14.5248 C   0  0  0  0  0  0  0  0  0  0  0  0
   21.8964   -5.2465  -13.6510 C   0  0  0  0  0  0  0  0  0  0  0  0
   20.6483   -4.6449  -13.6629 O   0  0  0  0  0  0  0  0  0  0  0  0
   22.8233   -4.8412  -12.9207 O   0  0  0  0  0  0  0  0  0  0  0  0
  2  4  1  0
  2  1  1  1
  2  3  1  0
  4  5  1  1
  6  4  1  0
  6  7  2  0
  8  6  1  0
  9  8  1  0
  9 14  1  0
  9 10  1  1
 11 10  1  0
 12 13  2  0
 12 11  1  0
 14 15  2  0
 14 17  1  0
 16 12  1  0
 17 18  1  0
 19 20  1  0
 19 18  1  0
 21 19  2  0
M  END
$$$$
