VEG.pdb
     RDKit          3D

 21 20  0  0  1  0  0  0  0  0999 V2000
   25.9489  -11.9917  -15.7217 C   0  0  0  0  0  0  0  0  0  0  0  0
   26.4691  -11.9168  -17.1603 C   0  0  2  0  0  0  0  0  0  0  0  0
   27.8739  -12.4413  -17.2515 C   0  0  0  0  0  0  0  0  0  0  0  0
   26.4406  -10.4739  -17.5887 C   0  0  2  0  0  0  0  0  0  0  0  0
   27.3747   -9.7562  -16.7479 N   0  0  0  0  0  0  0  0  0  0  0  0
   25.0670   -9.9324  -17.4894 C   0  0  0  0  0  0  0  0  0  0  0  0
   24.2045  -10.3631  -18.2969 O   0  0  0  0  0  0  0  0  0  0  0  0
   24.6570   -8.9657  -16.5512 N   0  0  0  0  0  0  0  0  0  0  0  0
   23.2846   -8.4139  -16.5146 C   0  0  1  0  0  0  0  0  0  0  0  0
   22.2975   -9.4891  -16.2221 C   0  0  0  0  0  0  0  0  0  0  0  0
   20.8673   -9.0445  -16.1644 C   0  0  0  0  0  0  0  0  0  0  0  0
   19.9195  -10.1246  -15.8617 C   0  0  0  0  0  0  0  0  0  0  0  0
   19.6881  -10.6124  -14.7414 O   0  0  0  0  0  0  0  0  0  0  0  0
   23.3082   -7.3008  -15.5537 C   0  0  0  0  0  0  0  0  0  0  0  0
   23.7768   -7.4814  -14.4071 O   0  0  0  0  0  0  0  0  0  0  0  0
   19.2021  -10.6604  -16.9485 O   0  0  0  0  0  0  0  0  0  0  0  0
   22.8076   -6.0344  -15.9147 N   0  0  0  0  0  0  0  0  0  0  0  0
   22.7868   -5.0079  -14.9126 C   0  0  0  0  0  0  0  0  0  0  0  0
   21.5075   -5.0554  -14.1663 C   0  0  0  0  0  0  0  0  0  0  0  0
   21.3051   -4.2184  -13.0808 O   0  0  0  0  0  0  0  0  0  0  0  0
   20.6408   -5.8656  -14.5522 O   0  0  0  0  0  0  0  0  0  0  0  0
  2  4  1  0
  2  1  1  1
  2  3  1  0
  4  5  1  1
  6  4  1  0
  6  7  2  0
  8  6  1  0
  9  8  1  0
  9 14  1  0
  9 10  1  1
 11 10  1  0
 12 13  2  0
 12 11  1  0
 14 15  2  0
 14 17  1  0
 16 12  1  0
 17 18  1  0
 19 20  1  0
 19 18  1  0
 21 19  2  0
M  END
$$$$
