VEG.pdb
     RDKit          3D

 21 20  0  0  1  0  0  0  0  0999 V2000
   17.4134  -11.2410  -17.6079 C   0  0  0  0  0  0  0  0  0  0  0  0
   18.0103  -12.4200  -16.8336 C   0  0  2  0  0  0  0  0  0  0  0  0
   16.9359  -13.3755  -16.3979 C   0  0  0  0  0  0  0  0  0  0  0  0
   18.7167  -11.8696  -15.6237 C   0  0  2  0  0  0  0  0  0  0  0  0
   17.7043  -11.3277  -14.7429 N   0  0  0  0  0  0  0  0  0  0  0  0
   19.7130  -10.8517  -16.0255 C   0  0  0  0  0  0  0  0  0  0  0  0
   20.7147  -11.2353  -16.6818 O   0  0  0  0  0  0  0  0  0  0  0  0
   19.6173   -9.4797  -15.7234 N   0  0  0  0  0  0  0  0  0  0  0  0
   20.6443   -8.4949  -16.1290 C   0  0  1  0  0  0  0  0  0  0  0  0
   20.2380   -7.8038  -17.3834 C   0  0  0  0  0  0  0  0  0  0  0  0
   20.6061   -8.5133  -18.6513 C   0  0  0  0  0  0  0  0  0  0  0  0
   20.2227   -7.7909  -19.8709 C   0  0  0  0  0  0  0  0  0  0  0  0
   19.0668   -7.4968  -20.2232 O   0  0  0  0  0  0  0  0  0  0  0  0
   20.8630   -7.6184  -14.9684 C   0  0  0  0  0  0  0  0  0  0  0  0
   19.8905   -7.2742  -14.2594 O   0  0  0  0  0  0  0  0  0  0  0  0
   21.2683   -7.3919  -20.7256 O   0  0  0  0  0  0  0  0  0  0  0  0
   22.1580   -7.1644  -14.6497 N   0  0  0  0  0  0  0  0  0  0  0  0
   22.3195   -6.3631  -13.4706 C   0  0  0  0  0  0  0  0  0  0  0  0
   21.9372   -4.9602  -13.7563 C   0  0  0  0  0  0  0  0  0  0  0  0
   22.0194   -4.0012  -12.7595 O   0  0  0  0  0  0  0  0  0  0  0  0
   21.5469   -4.6889  -14.9098 O   0  0  0  0  0  0  0  0  0  0  0  0
  2  4  1  0
  2  1  1  1
  2  3  1  0
  4  5  1  1
  6  4  1  0
  6  7  2  0
  8  6  1  0
  9  8  1  0
  9 14  1  0
  9 10  1  6
 11 10  1  0
 12 13  2  0
 12 11  1  0
 14 15  2  0
 14 17  1  0
 16 12  1  0
 17 18  1  0
 19 20  1  0
 19 18  1  0
 21 19  2  0
M  END
$$$$
