VEG.pdb
     RDKit          3D

 21 20  0  0  1  0  0  0  0  0999 V2000
   20.0353  -10.7955  -16.2481 C   0  0  0  0  0  0  0  0  0  0  0  0
   18.7977  -11.4456  -15.6223 C   0  0  2  0  0  0  0  0  0  0  0  0
   18.4397  -12.7176  -16.3371 C   0  0  0  0  0  0  0  0  0  0  0  0
   17.6573  -10.4689  -15.7291 C   0  0  2  0  0  0  0  0  0  0  0  0
   17.3466  -10.3212  -17.1348 N   0  0  0  0  0  0  0  0  0  0  0  0
   18.0192   -9.1808  -15.0968 C   0  0  0  0  0  0  0  0  0  0  0  0
   18.1695   -9.1593  -13.8485 O   0  0  0  0  0  0  0  0  0  0  0  0
   18.2077   -7.9739  -15.7974 N   0  0  0  0  0  0  0  0  0  0  0  0
   18.6338   -6.7204  -15.1369 C   0  0  1  0  0  0  0  0  0  0  0  0
   20.0836   -6.7731  -14.8033 C   0  0  0  0  0  0  0  0  0  0  0  0
   20.6230   -5.5608  -14.1061 C   0  0  0  0  0  0  0  0  0  0  0  0
   22.0248   -5.6886  -13.6878 C   0  0  0  0  0  0  0  0  0  0  0  0
   22.7129   -4.8142  -13.1324 O   0  0  0  0  0  0  0  0  0  0  0  0
   18.2310   -5.6218  -16.0279 C   0  0  0  0  0  0  0  0  0  0  0  0
   18.3054   -5.7707  -17.2686 O   0  0  0  0  0  0  0  0  0  0  0  0
   22.6509   -6.9242  -13.9411 O   0  0  0  0  0  0  0  0  0  0  0  0
   17.7627   -4.4047  -15.4950 N   0  0  0  0  0  0  0  0  0  0  0  0
   17.4444   -3.3469  -16.4106 C   0  0  0  0  0  0  0  0  0  0  0  0
   16.8461   -2.2064  -15.6775 C   0  0  0  0  0  0  0  0  0  0  0  0
   16.5466   -1.0308  -16.3469 O   0  0  0  0  0  0  0  0  0  0  0  0
   16.6296   -2.3508  -14.4573 O   0  0  0  0  0  0  0  0  0  0  0  0
  2  4  1  0
  2  1  1  6
  2  3  1  0
  4  5  1  6
  6  4  1  0
  6  7  2  0
  8  6  1  0
  9  8  1  0
  9 14  1  0
  9 10  1  6
 11 10  1  0
 12 13  2  0
 12 11  1  0
 14 15  2  0
 14 17  1  0
 16 12  1  0
 17 18  1  0
 19 20  1  0
 19 18  1  0
 21 19  2  0
M  END
$$$$
