VEG.pdb
     RDKit          3D

 21 20  0  0  1  0  0  0  0  0999 V2000
   14.6522   -8.9389  -12.5647 C   0  0  0  0  0  0  0  0  0  0  0  0
   15.7012  -10.0311  -12.7940 C   0  0  2  0  0  0  0  0  0  0  0  0
   15.1010  -11.3973  -12.6198 C   0  0  0  0  0  0  0  0  0  0  0  0
   16.8039   -9.8327  -11.7888 C   0  0  2  0  0  0  0  0  0  0  0  0
   16.2354  -10.0530  -10.4762 N   0  0  0  0  0  0  0  0  0  0  0  0
   17.3909   -8.4811  -11.9256 C   0  0  0  0  0  0  0  0  0  0  0  0
   17.1324   -7.6339  -11.0330 O   0  0  0  0  0  0  0  0  0  0  0  0
   18.2212   -8.0764  -12.9885 N   0  0  0  0  0  0  0  0  0  0  0  0
   18.8442   -6.7361  -13.0549 C   0  0  1  0  0  0  0  0  0  0  0  0
   20.2756   -6.8449  -13.4492 C   0  0  0  0  0  0  0  0  0  0  0  0
   21.0273   -5.5489  -13.4892 C   0  0  0  0  0  0  0  0  0  0  0  0
   22.4488   -5.6950  -13.8274 C   0  0  0  0  0  0  0  0  0  0  0  0
   23.3122   -4.8004  -13.7940 O   0  0  0  0  0  0  0  0  0  0  0  0
   18.0026   -5.9289  -13.9511 C   0  0  0  0  0  0  0  0  0  0  0  0
   17.6109   -6.4132  -15.0369 O   0  0  0  0  0  0  0  0  0  0  0  0
   22.8756   -6.9753  -14.2292 O   0  0  0  0  0  0  0  0  0  0  0  0
   17.6349   -4.6161  -13.5961 N   0  0  0  0  0  0  0  0  0  0  0  0
   16.8985   -3.8410  -14.5529 C   0  0  0  0  0  0  0  0  0  0  0  0
   15.4571   -4.1755  -14.4729 C   0  0  0  0  0  0  0  0  0  0  0  0
   14.9480   -5.2344  -15.2073 O   0  0  0  0  0  0  0  0  0  0  0  0
   14.7397   -3.4752  -13.7303 O   0  0  0  0  0  0  0  0  0  0  0  0
  2  4  1  0
  2  1  1  1
  2  3  1  0
  4  5  1  1
  6  4  1  0
  6  7  2  0
  8  6  1  0
  9  8  1  0
  9 14  1  0
  9 10  1  6
 11 10  1  0
 12 13  2  0
 12 11  1  0
 14 15  2  0
 14 17  1  0
 16 12  1  0
 17 18  1  0
 19 20  1  0
 19 18  1  0
 21 19  2  0
M  END
$$$$
