VEG.pdb
     RDKit          3D

 21 20  0  0  1  0  0  0  0  0999 V2000
   21.9112  -12.7056  -15.9312 C   0  0  0  0  0  0  0  0  0  0  0  0
   23.0257  -12.7066  -16.9817 C   0  0  2  0  0  0  0  0  0  0  0  0
   23.9714  -13.8528  -16.7604 C   0  0  0  0  0  0  0  0  0  0  0  0
   23.7738  -11.4057  -16.8647 C   0  0  2  0  0  0  0  0  0  0  0  0
   24.5097  -11.4422  -15.6190 N   0  0  0  0  0  0  0  0  0  0  0  0
   22.8360  -10.2627  -16.9282 C   0  0  0  0  0  0  0  0  0  0  0  0
   22.2283  -10.0591  -18.0102 O   0  0  0  0  0  0  0  0  0  0  0  0
   22.5758   -9.3846  -15.8586 N   0  0  0  0  0  0  0  0  0  0  0  0
   21.6530   -8.2335  -15.9713 C   0  0  1  0  0  0  0  0  0  0  0  0
   20.2414   -8.6788  -15.8134 C   0  0  0  0  0  0  0  0  0  0  0  0
   19.4019   -8.5915  -17.0521 C   0  0  0  0  0  0  0  0  0  0  0  0
   17.9709   -8.8245  -16.8193 C   0  0  0  0  0  0  0  0  0  0  0  0
   17.0656   -8.7724  -17.6705 O   0  0  0  0  0  0  0  0  0  0  0  0
   22.1121   -7.2339  -14.9949 C   0  0  0  0  0  0  0  0  0  0  0  0
   22.3878   -7.5894  -13.8267 O   0  0  0  0  0  0  0  0  0  0  0  0
   17.5865   -9.1379  -15.5014 O   0  0  0  0  0  0  0  0  0  0  0  0
   22.2433   -5.8810  -15.3652 N   0  0  0  0  0  0  0  0  0  0  0  0
   22.6081   -4.9369  -14.3484 C   0  0  0  0  0  0  0  0  0  0  0  0
   21.3995   -4.4889  -13.6172 C   0  0  0  0  0  0  0  0  0  0  0  0
   21.5072   -3.5412  -12.6122 O   0  0  0  0  0  0  0  0  0  0  0  0
   20.3054   -4.9933  -13.9414 O   0  0  0  0  0  0  0  0  0  0  0  0
  2  4  1  0
  2  1  1  1
  2  3  1  0
  4  5  1  1
  6  4  1  0
  6  7  2  0
  8  6  1  0
  9  8  1  0
  9 14  1  0
  9 10  1  1
 11 10  1  0
 12 13  2  0
 12 11  1  0
 14 15  2  0
 14 17  1  0
 16 12  1  0
 17 18  1  0
 19 20  1  0
 19 18  1  0
 21 19  2  0
M  END
$$$$
