QCF.pdb
     RDKit          3D

 27 27  0  0  1  0  0  0  0  0999 V2000
   22.6577  -15.0220  -16.0977 N   0  0  0  0  0  0  0  0  0  0  0  0
   23.4483  -16.1987  -16.1993 C   0  0  0  0  0  0  0  0  0  0  0  0
   22.9364  -17.2932  -15.8589 O   0  0  0  0  0  0  0  0  0  0  0  0
   24.8369  -16.0545  -16.7046 C   0  0  0  0  0  0  0  0  0  0  0  0
   25.0933  -14.6074  -17.1319 C   0  0  0  0  0  0  0  0  0  0  0  0
   26.4142  -14.1340  -16.5479 C   0  0  2  0  0  0  0  0  0  0  0  0
   26.8844  -15.0347  -15.5267 N   0  0  0  0  0  0  0  0  0  0  0  0
   26.2482  -12.7412  -15.9874 C   0  0  0  0  0  0  0  0  0  0  0  0
   25.9272  -12.5715  -14.7849 O   0  0  0  0  0  0  0  0  0  0  0  0
   26.4498  -11.6037  -16.8004 N   0  0  0  0  0  0  0  0  0  0  0  0
   26.2740  -10.2280  -16.3275 C   0  0  1  0  0  0  0  0  0  0  0  0
   27.5183   -9.5033  -16.7378 C   0  0  0  0  0  0  0  0  0  0  0  0
   28.9667  -10.0686  -15.8416 S   0  0  0  0  0  0  0  0  0  0  0  0
   25.0135   -9.6591  -16.8136 C   0  0  0  0  0  0  0  0  0  0  0  0
   24.6519   -9.7981  -18.0406 O   0  0  0  0  0  0  0  0  0  0  0  0
   24.1369   -8.9435  -15.9901 N   0  0  0  0  0  0  0  0  0  0  0  0
   22.8701   -8.3800  -16.4697 C   0  0  1  0  0  0  0  0  0  0  0  0
   21.8864   -9.4623  -16.7760 C   0  0  0  0  0  0  0  0  0  0  0  0
   20.5905   -8.9506  -17.1955 C   0  0  0  0  0  0  0  0  0  0  0  0
   20.3273   -8.4681  -18.4762 C   0  0  0  0  0  0  0  0  0  0  0  0
   19.0668   -8.0195  -18.8052 C   0  0  0  0  0  0  0  0  0  0  0  0
   18.0220   -8.0237  -17.9063 C   0  0  0  0  0  0  0  0  0  0  0  0
   18.2771   -8.5002  -16.6382 C   0  0  0  0  0  0  0  0  0  0  0  0
   19.5309   -8.9457  -16.3132 C   0  0  0  0  0  0  0  0  0  0  0  0
   22.3636   -7.4981  -15.4148 C   0  0  0  0  0  0  0  0  0  0  0  0
   21.7347   -6.4633  -15.7180 O   0  0  0  0  0  0  0  0  0  0  0  0
   22.5579   -7.7766  -14.0782 O   0  0  0  0  0  0  0  0  0  0  0  0
  1  2  1  0
  2  3  2  0
  4  5  1  0
  4  2  1  0
  6  7  1  1
  6  5  1  0
  8 10  1  0
  8  6  1  0
  9  8  2  0
 11 10  1  0
 11 12  1  6
 13 12  1  0
 14 15  2  0
 14 11  1  0
 16 14  1  0
 17 25  1  0
 17 16  1  0
 17 18  1  1
 19 18  1  0
 20 19  2  0
 21 20  1  0
 22 21  2  0
 22 23  1  0
 23 24  2  0
 24 19  1  0
 25 27  1  0
 26 25  2  0
M  END
$$$$
