QCF.pdb
     RDKit          3D

 27 27  0  0  1  0  0  0  0  0999 V2000
   18.6924  -20.4539  -12.9292 N   0  0  0  0  0  0  0  0  0  0  0  0
   19.3908  -19.4508  -13.6544 C   0  0  0  0  0  0  0  0  0  0  0  0
   18.9122  -19.0622  -14.7480 O   0  0  0  0  0  0  0  0  0  0  0  0
   20.6488  -18.9251  -13.0667 C   0  0  0  0  0  0  0  0  0  0  0  0
   21.4386  -20.0615  -12.4128 C   0  0  0  0  0  0  0  0  0  0  0  0
   22.4684  -20.5929  -13.3962 C   0  0  2  0  0  0  0  0  0  0  0  0
   21.8702  -21.5117  -14.3306 N   0  0  0  0  0  0  0  0  0  0  0  0
   23.5894  -21.2651  -12.6394 C   0  0  0  0  0  0  0  0  0  0  0  0
   23.3801  -22.3235  -11.9960 O   0  0  0  0  0  0  0  0  0  0  0  0
   24.8927  -20.7201  -12.6387 N   0  0  0  0  0  0  0  0  0  0  0  0
   25.9808  -21.2224  -11.7957 C   0  0  1  0  0  0  0  0  0  0  0  0
   27.2332  -20.9971  -12.5849 C   0  0  0  0  0  0  0  0  0  0  0  0
   28.7044  -21.5128  -11.6960 S   0  0  0  0  0  0  0  0  0  0  0  0
   25.9451  -20.6083  -10.4650 C   0  0  0  0  0  0  0  0  0  0  0  0
   25.5535  -19.3930  -10.3050 O   0  0  0  0  0  0  0  0  0  0  0  0
   26.3248  -21.2914   -9.3040 N   0  0  0  0  0  0  0  0  0  0  0  0
   26.6107  -20.6131   -8.0349 C   0  0  1  0  0  0  0  0  0  0  0  0
   27.5404  -21.4257   -7.1932 C   0  0  0  0  0  0  0  0  0  0  0  0
   27.9038  -20.7657   -5.9483 C   0  0  0  0  0  0  0  0  0  0  0  0
   27.3259  -21.0664   -4.7163 C   0  0  0  0  0  0  0  0  0  0  0  0
   27.7389  -20.4125   -3.5760 C   0  0  0  0  0  0  0  0  0  0  0  0
   28.7231  -19.4478   -3.5918 C   0  0  0  0  0  0  0  0  0  0  0  0
   29.2979  -19.1468   -4.8080 C   0  0  0  0  0  0  0  0  0  0  0  0
   28.8860  -19.7981   -5.9403 C   0  0  0  0  0  0  0  0  0  0  0  0
   27.2053  -19.3150   -8.3642 C   0  0  0  0  0  0  0  0  0  0  0  0
   28.1235  -19.2474   -9.2071 O   0  0  0  0  0  0  0  0  0  0  0  0
   26.7780  -18.1470   -7.7683 O   0  0  0  0  0  0  0  0  0  0  0  0
  1  2  1  0
  2  3  2  0
  4  5  1  0
  4  2  1  0
  6  7  1  6
  6  5  1  0
  8 10  1  0
  8  6  1  0
  9  8  2  0
 11 10  1  0
 11 12  1  6
 13 12  1  0
 14 15  2  0
 14 11  1  0
 16 14  1  0
 17 25  1  0
 17 16  1  0
 17 18  1  1
 19 18  1  0
 20 19  2  0
 21 20  1  0
 22 21  2  0
 22 23  1  0
 23 24  2  0
 24 19  1  0
 25 27  1  0
 26 25  2  0
M  END
$$$$
