QCF.pdb
     RDKit          3D

 27 27  0  0  1  0  0  0  0  0999 V2000
   13.7201  -11.4040  -17.7241 N   0  0  0  0  0  0  0  0  0  0  0  0
   13.3830  -11.3470  -16.3446 C   0  0  0  0  0  0  0  0  0  0  0  0
   12.6899  -10.3823  -15.9386 O   0  0  0  0  0  0  0  0  0  0  0  0
   13.8763  -12.4397  -15.4688 C   0  0  0  0  0  0  0  0  0  0  0  0
   14.5146  -11.8544  -14.2069 C   0  0  0  0  0  0  0  0  0  0  0  0
   15.9872  -11.5811  -14.4650 C   0  0  2  0  0  0  0  0  0  0  0  0
   16.7391  -12.8076  -14.5386 N   0  0  0  0  0  0  0  0  0  0  0  0
   16.5344  -10.6913  -13.3740 C   0  0  0  0  0  0  0  0  0  0  0  0
   16.9254  -11.1826  -12.2860 O   0  0  0  0  0  0  0  0  0  0  0  0
   16.6180   -9.2925  -13.5529 N   0  0  0  0  0  0  0  0  0  0  0  0
   17.1208   -8.3731  -12.5288 C   0  0  1  0  0  0  0  0  0  0  0  0
   17.9638   -7.3785  -13.2651 C   0  0  0  0  0  0  0  0  0  0  0  0
   18.4205   -5.9772  -12.2413 S   0  0  0  0  0  0  0  0  0  0  0  0
   16.0225   -7.8155  -11.7340 C   0  0  0  0  0  0  0  0  0  0  0  0
   14.9792   -7.3184  -12.2999 O   0  0  0  0  0  0  0  0  0  0  0  0
   16.0356   -7.7902  -10.3347 N   0  0  0  0  0  0  0  0  0  0  0  0
   14.9952   -7.1313   -9.5374 C   0  0  1  0  0  0  0  0  0  0  0  0
   14.9178   -7.7230   -8.1674 C   0  0  0  0  0  0  0  0  0  0  0  0
   13.8281   -7.1764   -7.3729 C   0  0  0  0  0  0  0  0  0  0  0  0
   13.9891   -6.1547   -6.4388 C   0  0  0  0  0  0  0  0  0  0  0  0
   12.9037   -5.6740   -5.7395 C   0  0  0  0  0  0  0  0  0  0  0  0
   11.6292   -6.1663   -5.9217 C   0  0  0  0  0  0  0  0  0  0  0  0
   11.4647   -7.1768   -6.8446 C   0  0  0  0  0  0  0  0  0  0  0  0
   12.5450   -7.6531   -7.5389 C   0  0  0  0  0  0  0  0  0  0  0  0
   15.3383   -5.7082   -9.4722 C   0  0  0  0  0  0  0  0  0  0  0  0
   16.5349   -5.3597   -9.4004 O   0  0  0  0  0  0  0  0  0  0  0  0
   14.3714   -4.7251   -9.4900 O   0  0  0  0  0  0  0  0  0  0  0  0
  1  2  1  0
  2  3  2  0
  4  5  1  0
  4  2  1  0
  6  7  1  1
  6  5  1  0
  8 10  1  0
  8  6  1  0
  9  8  2  0
 11 10  1  0
 11 12  1  6
 13 12  1  0
 14 15  2  0
 14 11  1  0
 16 14  1  0
 17 25  1  0
 17 16  1  0
 17 18  1  1
 19 18  1  0
 20 19  2  0
 21 20  1  0
 22 21  2  0
 22 23  1  0
 23 24  2  0
 24 19  1  0
 25 27  1  0
 26 25  2  0
M  END
$$$$
