QCF.pdb
     RDKit          3D

 27 27  0  0  1  0  0  0  0  0999 V2000
   27.8668  -18.8326  -17.5400 N   0  0  0  0  0  0  0  0  0  0  0  0
   28.6239  -19.7286  -18.3424 C   0  0  0  0  0  0  0  0  0  0  0  0
   29.4793  -19.2504  -19.1270 O   0  0  0  0  0  0  0  0  0  0  0  0
   28.3513  -21.1810  -18.1987 C   0  0  0  0  0  0  0  0  0  0  0  0
   27.2200  -21.4065  -17.1928 C   0  0  0  0  0  0  0  0  0  0  0  0
   27.7951  -21.4532  -15.7868 C   0  0  2  0  0  0  0  0  0  0  0  0
   28.8236  -22.4559  -15.6782 N   0  0  0  0  0  0  0  0  0  0  0  0
   26.6871  -21.7244  -14.7967 C   0  0  0  0  0  0  0  0  0  0  0  0
   25.6547  -22.3472  -15.1492 O   0  0  0  0  0  0  0  0  0  0  0  0
   26.7875  -21.2851  -13.4578 N   0  0  0  0  0  0  0  0  0  0  0  0
   25.7125  -21.4335  -12.4734 C   0  0  1  0  0  0  0  0  0  0  0  0
   26.2995  -20.9843  -11.1712 C   0  0  0  0  0  0  0  0  0  0  0  0
   25.0744  -20.8948   -9.8628 S   0  0  0  0  0  0  0  0  0  0  0  0
   24.5005  -20.7303  -12.9042 C   0  0  0  0  0  0  0  0  0  0  0  0
   24.5443  -19.4997  -13.2777 O   0  0  0  0  0  0  0  0  0  0  0  0
   23.2415  -21.3404  -12.9391 N   0  0  0  0  0  0  0  0  0  0  0  0
   22.0296  -20.6475  -13.3903 C   0  0  1  0  0  0  0  0  0  0  0  0
   21.8434  -20.8033  -14.8648 C   0  0  0  0  0  0  0  0  0  0  0  0
   20.5849  -20.2491  -15.3405 C   0  0  0  0  0  0  0  0  0  0  0  0
   19.4128  -20.9919  -15.4704 C   0  0  0  0  0  0  0  0  0  0  0  0
   18.2529  -20.3905  -15.9076 C   0  0  0  0  0  0  0  0  0  0  0  0
   18.1903  -19.0526  -16.2327 C   0  0  0  0  0  0  0  0  0  0  0  0
   19.3469  -18.3135  -16.1058 C   0  0  0  0  0  0  0  0  0  0  0  0
   20.4990  -18.9132  -15.6708 C   0  0  0  0  0  0  0  0  0  0  0  0
   20.9020  -21.2297  -12.6579 C   0  0  0  0  0  0  0  0  0  0  0  0
   20.8795  -22.4555  -12.4228 O   0  0  0  0  0  0  0  0  0  0  0  0
   19.8496  -20.4591  -12.2101 O   0  0  0  0  0  0  0  0  0  0  0  0
  1  2  1  0
  2  3  2  0
  4  5  1  0
  4  2  1  0
  6  7  1  6
  6  5  1  0
  8 10  1  0
  8  6  1  0
  9  8  2  0
 11 10  1  0
 11 12  1  1
 13 12  1  0
 14 15  2  0
 14 11  1  0
 16 14  1  0
 17 25  1  0
 17 16  1  0
 17 18  1  6
 19 18  1  0
 20 19  2  0
 21 20  1  0
 22 21  2  0
 22 23  1  0
 23 24  2  0
 24 19  1  0
 25 27  1  0
 26 25  2  0
M  END
$$$$
