QCF.pdb
     RDKit          3D

 27 27  0  0  1  0  0  0  0  0999 V2000
   31.0264  -20.7785  -21.2457 N   0  0  0  0  0  0  0  0  0  0  0  0
   30.5810  -22.0660  -21.6508 C   0  0  0  0  0  0  0  0  0  0  0  0
   30.6549  -22.3681  -22.8670 O   0  0  0  0  0  0  0  0  0  0  0  0
   30.0541  -22.9747  -20.6015 C   0  0  0  0  0  0  0  0  0  0  0  0
   30.1086  -22.2874  -19.2350 C   0  0  0  0  0  0  0  0  0  0  0  0
   28.7513  -22.3955  -18.5599 C   0  0  2  0  0  0  0  0  0  0  0  0
   27.7082  -21.8660  -19.4006 N   0  0  0  0  0  0  0  0  0  0  0  0
   28.7853  -21.6655  -17.2380 C   0  0  0  0  0  0  0  0  0  0  0  0
   29.8359  -21.6404  -16.5498 O   0  0  0  0  0  0  0  0  0  0  0  0
   27.6405  -20.9978  -16.7488 N   0  0  0  0  0  0  0  0  0  0  0  0
   27.6166  -20.2451  -15.4919 C   0  0  1  0  0  0  0  0  0  0  0  0
   27.5942  -18.8022  -15.8916 C   0  0  0  0  0  0  0  0  0  0  0  0
   26.0516  -18.3344  -16.6804 S   0  0  0  0  0  0  0  0  0  0  0  0
   26.5146  -20.6870  -14.6321 C   0  0  0  0  0  0  0  0  0  0  0  0
   25.5063  -21.3215  -15.1186 O   0  0  0  0  0  0  0  0  0  0  0  0
   26.4888  -20.4543  -13.2523 N   0  0  0  0  0  0  0  0  0  0  0  0
   25.3259  -20.7596  -12.4117 C   0  0  1  0  0  0  0  0  0  0  0  0
   25.5315  -20.2659  -11.0164 C   0  0  0  0  0  0  0  0  0  0  0  0
   24.3929  -20.5250  -10.1482 C   0  0  0  0  0  0  0  0  0  0  0  0
   23.1136  -20.0233  -10.3803 C   0  0  0  0  0  0  0  0  0  0  0  0
   22.0796  -20.3310   -9.5232 C   0  0  0  0  0  0  0  0  0  0  0  0
   22.2506  -21.1330   -8.4154 C   0  0  0  0  0  0  0  0  0  0  0  0
   23.5142  -21.6317   -8.1815 C   0  0  0  0  0  0  0  0  0  0  0  0
   24.5407  -21.3248   -9.0349 C   0  0  0  0  0  0  0  0  0  0  0  0
   24.1657  -20.1111  -13.0287 C   0  0  0  0  0  0  0  0  0  0  0  0
   24.2830  -18.9747  -13.5317 O   0  0  0  0  0  0  0  0  0  0  0  0
   22.9304  -20.7223  -13.0761 O   0  0  0  0  0  0  0  0  0  0  0  0
  1  2  1  0
  2  3  2  0
  4  5  1  0
  4  2  1  0
  6  7  1  6
  6  5  1  0
  8 10  1  0
  8  6  1  0
  9  8  2  0
 11 10  1  0
 11 12  1  6
 13 12  1  0
 14 15  2  0
 14 11  1  0
 16 14  1  0
 17 25  1  0
 17 16  1  0
 17 18  1  1
 19 18  1  0
 20 19  2  0
 21 20  1  0
 22 21  2  0
 22 23  1  0
 23 24  2  0
 24 19  1  0
 25 27  1  0
 26 25  2  0
M  END
$$$$
