QCF.pdb
     RDKit          3D

 27 27  0  0  1  0  0  0  0  0999 V2000
   21.6156  -19.8204  -16.5481 N   0  0  0  0  0  0  0  0  0  0  0  0
   22.5667  -19.3895  -17.5122 C   0  0  0  0  0  0  0  0  0  0  0  0
   22.3167  -18.3539  -18.1763 O   0  0  0  0  0  0  0  0  0  0  0  0
   23.8017  -20.1982  -17.6714 C   0  0  0  0  0  0  0  0  0  0  0  0
   23.7636  -21.4061  -16.7322 C   0  0  0  0  0  0  0  0  0  0  0  0
   24.1836  -20.9752  -15.3366 C   0  0  2  0  0  0  0  0  0  0  0  0
   25.5683  -21.2870  -15.0903 N   0  0  0  0  0  0  0  0  0  0  0  0
   23.3008  -21.6491  -14.3130 C   0  0  0  0  0  0  0  0  0  0  0  0
   23.4781  -22.8560  -14.0130 O   0  0  0  0  0  0  0  0  0  0  0  0
   22.2603  -20.9393  -13.6731 N   0  0  0  0  0  0  0  0  0  0  0  0
   21.3630  -21.5363  -12.6805 C   0  0  1  0  0  0  0  0  0  0  0  0
   21.2526  -20.5239  -11.5829 C   0  0  0  0  0  0  0  0  0  0  0  0
   20.1961  -19.1435  -12.0288 S   0  0  0  0  0  0  0  0  0  0  0  0
   20.0989  -21.9538  -13.2943 C   0  0  0  0  0  0  0  0  0  0  0  0
   19.5980  -21.3075  -14.2879 O   0  0  0  0  0  0  0  0  0  0  0  0
   19.3696  -23.0625  -12.8497 N   0  0  0  0  0  0  0  0  0  0  0  0
   18.1501  -23.5357  -13.5139 C   0  0  1  0  0  0  0  0  0  0  0  0
   18.1871  -25.0172  -13.7053 C   0  0  0  0  0  0  0  0  0  0  0  0
   18.2664  -25.7505  -12.4510 C   0  0  0  0  0  0  0  0  0  0  0  0
   19.4661  -26.0918  -11.8293 C   0  0  0  0  0  0  0  0  0  0  0  0
   19.4598  -26.7691  -10.6294 C   0  0  0  0  0  0  0  0  0  0  0  0
   18.2936  -27.1373   -9.9938 C   0  0  0  0  0  0  0  0  0  0  0  0
   17.1042  -26.8019  -10.6047 C   0  0  0  0  0  0  0  0  0  0  0  0
   17.1127  -26.1285  -11.7974 C   0  0  0  0  0  0  0  0  0  0  0  0
   17.0193  -23.1474  -12.6668 C   0  0  0  0  0  0  0  0  0  0  0  0
   17.2260  -22.7064  -11.5174 O   0  0  0  0  0  0  0  0  0  0  0  0
   15.7148  -23.2515  -13.1019 O   0  0  0  0  0  0  0  0  0  0  0  0
  1  2  1  0
  2  3  2  0
  4  5  1  0
  4  2  1  0
  6  7  1  1
  6  5  1  0
  8 10  1  0
  8  6  1  0
  9  8  2  0
 11 10  1  0
 11 12  1  1
 13 12  1  0
 14 15  2  0
 14 11  1  0
 16 14  1  0
 17 25  1  0
 17 16  1  0
 17 18  1  1
 19 18  1  0
 20 19  2  0
 21 20  1  0
 22 21  2  0
 22 23  1  0
 23 24  2  0
 24 19  1  0
 25 27  1  0
 26 25  2  0
M  END
$$$$
