QCF.pdb
     RDKit          3D

 27 27  0  0  1  0  0  0  0  0999 V2000
   18.2975  -22.4764   -9.9358 N   0  0  0  0  0  0  0  0  0  0  0  0
   17.7420  -23.3642   -8.9750 C   0  0  0  0  0  0  0  0  0  0  0  0
   16.7974  -24.1117   -9.3286 O   0  0  0  0  0  0  0  0  0  0  0  0
   18.3194  -23.3487   -7.6073 C   0  0  0  0  0  0  0  0  0  0  0  0
   17.4657  -24.2023   -6.6665 C   0  0  0  0  0  0  0  0  0  0  0  0
   18.1809  -25.5132   -6.3840 C   0  0  2  0  0  0  0  0  0  0  0  0
   18.3200  -26.2992   -7.5832 N   0  0  0  0  0  0  0  0  0  0  0  0
   17.4216  -26.2861   -5.3316 C   0  0  0  0  0  0  0  0  0  0  0  0
   16.5328  -27.1100   -5.6623 O   0  0  0  0  0  0  0  0  0  0  0  0
   17.6934  -26.0999   -3.9579 N   0  0  0  0  0  0  0  0  0  0  0  0
   17.2170  -27.0037   -2.9077 C   0  0  1  0  0  0  0  0  0  0  0  0
   17.8607  -28.3245   -3.1961 C   0  0  0  0  0  0  0  0  0  0  0  0
   17.0045  -29.2367   -4.4827 S   0  0  0  0  0  0  0  0  0  0  0  0
   17.4708  -26.4466   -1.5757 C   0  0  0  0  0  0  0  0  0  0  0  0
   18.5866  -25.8680   -1.2997 O   0  0  0  0  0  0  0  0  0  0  0  0
   16.5333  -26.5042   -0.5382 N   0  0  0  0  0  0  0  0  0  0  0  0
   16.7770  -25.9351    0.7919 C   0  0  1  0  0  0  0  0  0  0  0  0
   15.4909  -25.5752    1.4622 C   0  0  0  0  0  0  0  0  0  0  0  0
   14.8679  -24.3881    0.8966 C   0  0  0  0  0  0  0  0  0  0  0  0
   13.8757  -24.4268   -0.0813 C   0  0  0  0  0  0  0  0  0  0  0  0
   13.3175  -23.2587   -0.5526 C   0  0  0  0  0  0  0  0  0  0  0  0
   13.7012  -22.0172   -0.0931 C   0  0  0  0  0  0  0  0  0  0  0  0
   14.6822  -21.9736    0.8743 C   0  0  0  0  0  0  0  0  0  0  0  0
   15.2358  -23.1360    1.3416 C   0  0  0  0  0  0  0  0  0  0  0  0
   17.5040  -26.9445    1.5662 C   0  0  0  0  0  0  0  0  0  0  0  0
   17.5042  -28.1351    1.1907 O   0  0  0  0  0  0  0  0  0  0  0  0
   18.2007  -26.6204    2.7113 O   0  0  0  0  0  0  0  0  0  0  0  0
  1  2  1  0
  2  3  2  0
  4  5  1  0
  4  2  1  0
  6  7  1  6
  6  5  1  0
  8 10  1  0
  8  6  1  0
  9  8  2  0
 11 10  1  0
 11 12  1  1
 13 12  1  0
 14 15  2  0
 14 11  1  0
 16 14  1  0
 17 25  1  0
 17 16  1  0
 17 18  1  1
 19 18  1  0
 20 19  2  0
 21 20  1  0
 22 21  2  0
 22 23  1  0
 23 24  2  0
 24 19  1  0
 25 27  1  0
 26 25  2  0
M  END
$$$$
