QCF.pdb
     RDKit          3D

 27 27  0  0  1  0  0  0  0  0999 V2000
   17.1856  -19.9325  -17.4053 N   0  0  0  0  0  0  0  0  0  0  0  0
   17.3900  -20.5558  -18.6661 C   0  0  0  0  0  0  0  0  0  0  0  0
   17.4735  -19.8280  -19.6856 O   0  0  0  0  0  0  0  0  0  0  0  0
   17.4920  -22.0368  -18.6943 C   0  0  0  0  0  0  0  0  0  0  0  0
   17.2718  -22.6057  -17.2906 C   0  0  0  0  0  0  0  0  0  0  0  0
   18.6164  -22.8249  -16.6171 C   0  0  2  0  0  0  0  0  0  0  0  0
   19.6897  -22.8010  -17.5776 N   0  0  0  0  0  0  0  0  0  0  0  0
   18.6012  -24.1408  -15.8756 C   0  0  0  0  0  0  0  0  0  0  0  0
   17.6641  -24.9594  -16.0478 O   0  0  0  0  0  0  0  0  0  0  0  0
   19.6366  -24.4780  -14.9756 N   0  0  0  0  0  0  0  0  0  0  0  0
   19.6535  -25.7116  -14.1851 C   0  0  1  0  0  0  0  0  0  0  0  0
   20.7804  -26.5259  -14.7411 C   0  0  0  0  0  0  0  0  0  0  0  0
   22.3381  -25.6348  -14.7321 S   0  0  0  0  0  0  0  0  0  0  0  0
   19.7239  -25.4190  -12.7504 C   0  0  0  0  0  0  0  0  0  0  0  0
   20.5333  -24.5294  -12.2932 O   0  0  0  0  0  0  0  0  0  0  0  0
   18.9287  -26.0738  -11.8029 N   0  0  0  0  0  0  0  0  0  0  0  0
   18.9419  -25.7335  -10.3759 C   0  0  1  0  0  0  0  0  0  0  0  0
   18.3417  -24.3850  -10.1433 C   0  0  0  0  0  0  0  0  0  0  0  0
   16.9523  -24.3003  -10.5675 C   0  0  0  0  0  0  0  0  0  0  0  0
   16.5560  -23.9006  -11.8424 C   0  0  0  0  0  0  0  0  0  0  0  0
   15.2198  -23.8666  -12.1768 C   0  0  0  0  0  0  0  0  0  0  0  0
   14.2258  -24.2179  -11.2890 C   0  0  0  0  0  0  0  0  0  0  0  0
   14.6127  -24.6141  -10.0267 C   0  0  0  0  0  0  0  0  0  0  0  0
   15.9415  -24.6474   -9.6963 C   0  0  0  0  0  0  0  0  0  0  0  0
   18.1786  -26.7715   -9.6781 C   0  0  0  0  0  0  0  0  0  0  0  0
   18.0504  -26.7210   -8.4374 O   0  0  0  0  0  0  0  0  0  0  0  0
   17.5856  -27.8170  -10.3542 O   0  0  0  0  0  0  0  0  0  0  0  0
  1  2  1  0
  2  3  2  0
  4  5  1  0
  4  2  1  0
  6  7  1  6
  6  5  1  0
  8 10  1  0
  8  6  1  0
  9  8  2  0
 11 10  1  0
 11 12  1  6
 13 12  1  0
 14 15  2  0
 14 11  1  0
 16 14  1  0
 17 25  1  0
 17 16  1  0
 17 18  1  6
 19 18  1  0
 20 19  2  0
 21 20  1  0
 22 21  2  0
 22 23  1  0
 23 24  2  0
 24 19  1  0
 25 27  1  0
 26 25  2  0
M  END
$$$$
