QCF.pdb
     RDKit          3D

 27 27  0  0  1  0  0  0  0  0999 V2000
   19.3096  -15.0857  -15.6408 N   0  0  0  0  0  0  0  0  0  0  0  0
   20.3595  -14.5455  -16.4318 C   0  0  0  0  0  0  0  0  0  0  0  0
   21.4640  -14.3149  -15.8814 O   0  0  0  0  0  0  0  0  0  0  0  0
   20.0788  -14.2877  -17.8668 C   0  0  0  0  0  0  0  0  0  0  0  0
   20.4030  -12.8325  -18.2128 C   0  0  0  0  0  0  0  0  0  0  0  0
   19.1301  -12.0039  -18.1578 C   0  0  2  0  0  0  0  0  0  0  0  0
   18.2638  -12.3065  -19.2683 N   0  0  0  0  0  0  0  0  0  0  0  0
   19.4835  -10.5354  -18.1491 C   0  0  0  0  0  0  0  0  0  0  0  0
   19.8468   -9.9603  -19.2051 O   0  0  0  0  0  0  0  0  0  0  0  0
   19.4132   -9.7798  -16.9576 N   0  0  0  0  0  0  0  0  0  0  0  0
   19.6536   -8.3356  -16.8983 C   0  0  1  0  0  0  0  0  0  0  0  0
   18.3123   -7.6998  -17.0943 C   0  0  0  0  0  0  0  0  0  0  0  0
   17.1517   -8.1366  -15.7971 S   0  0  0  0  0  0  0  0  0  0  0  0
   20.3616   -7.9677  -15.6685 C   0  0  0  0  0  0  0  0  0  0  0  0
   20.1091   -8.5603  -14.5546 O   0  0  0  0  0  0  0  0  0  0  0  0
   21.3411   -6.9689  -15.6271 N   0  0  0  0  0  0  0  0  0  0  0  0
   22.1355   -6.6777  -14.4286 C   0  0  1  0  0  0  0  0  0  0  0  0
   23.5552   -7.1063  -14.6123 C   0  0  0  0  0  0  0  0  0  0  0  0
   24.1503   -6.5921  -15.8366 C   0  0  0  0  0  0  0  0  0  0  0  0
   24.7366   -5.3322  -15.9416 C   0  0  0  0  0  0  0  0  0  0  0  0
   25.2998   -4.9239  -17.1309 C   0  0  0  0  0  0  0  0  0  0  0  0
   25.3133   -5.7210  -18.2553 C   0  0  0  0  0  0  0  0  0  0  0  0
   24.7347   -6.9682  -18.1565 C   0  0  0  0  0  0  0  0  0  0  0  0
   24.1756   -7.3723  -16.9732 C   0  0  0  0  0  0  0  0  0  0  0  0
   22.0527   -5.2332  -14.1969 C   0  0  0  0  0  0  0  0  0  0  0  0
   21.5229   -4.4954  -15.0532 O   0  0  0  0  0  0  0  0  0  0  0  0
   22.5447   -4.6514  -13.0474 O   0  0  0  0  0  0  0  0  0  0  0  0
  1  2  1  0
  2  3  2  0
  4  5  1  0
  4  2  1  0
  6  7  1  6
  6  5  1  0
  8 10  1  0
  8  6  1  0
  9  8  2  0
 11 10  1  0
 11 12  1  1
 13 12  1  0
 14 15  2  0
 14 11  1  0
 16 14  1  0
 17 25  1  0
 17 16  1  0
 17 18  1  6
 19 18  1  0
 20 19  2  0
 21 20  1  0
 22 21  2  0
 22 23  1  0
 23 24  2  0
 24 19  1  0
 25 27  1  0
 26 25  2  0
M  END
$$$$
