QCF.pdb
     RDKit          3D

 27 27  0  0  1  0  0  0  0  0999 V2000
   15.8700  -13.7913  -16.7943 N   0  0  0  0  0  0  0  0  0  0  0  0
   16.5419  -14.4026  -17.8873 C   0  0  0  0  0  0  0  0  0  0  0  0
   15.8874  -15.1654  -18.6394 O   0  0  0  0  0  0  0  0  0  0  0  0
   17.9834  -14.0967  -18.0685 C   0  0  0  0  0  0  0  0  0  0  0  0
   18.4489  -13.1055  -16.9992 C   0  0  0  0  0  0  0  0  0  0  0  0
   19.9340  -12.8338  -17.1735 C   0  0  2  0  0  0  0  0  0  0  0  0
   20.7164  -14.0048  -16.8705 N   0  0  0  0  0  0  0  0  0  0  0  0
   20.3439  -11.6814  -16.2873 C   0  0  0  0  0  0  0  0  0  0  0  0
   20.2817  -11.7845  -15.0369 O   0  0  0  0  0  0  0  0  0  0  0  0
   20.8045  -10.4672  -16.8434 N   0  0  0  0  0  0  0  0  0  0  0  0
   21.2207   -9.3144  -16.0405 C   0  0  1  0  0  0  0  0  0  0  0  0
   22.6539   -9.5693  -15.6899 C   0  0  0  0  0  0  0  0  0  0  0  0
   22.9300   -9.5983  -13.9169 S   0  0  0  0  0  0  0  0  0  0  0  0
   20.9485   -8.0560  -16.7416 C   0  0  0  0  0  0  0  0  0  0  0  0
   21.4464   -7.8232  -17.9051 O   0  0  0  0  0  0  0  0  0  0  0  0
   20.1430   -7.0464  -16.2027 N   0  0  0  0  0  0  0  0  0  0  0  0
   19.8383   -5.8009  -16.9157 C   0  0  1  0  0  0  0  0  0  0  0  0
   18.3886   -5.4588  -16.7965 C   0  0  0  0  0  0  0  0  0  0  0  0
   17.5604   -6.1437  -17.7776 C   0  0  0  0  0  0  0  0  0  0  0  0
   17.7179   -6.0038  -19.1552 C   0  0  0  0  0  0  0  0  0  0  0  0
   16.9077   -6.7034  -20.0227 C   0  0  0  0  0  0  0  0  0  0  0  0
   15.9205   -7.5598  -19.5850 C   0  0  0  0  0  0  0  0  0  0  0  0
   15.7608   -7.7018  -18.2232 C   0  0  0  0  0  0  0  0  0  0  0  0
   16.5673   -7.0055  -17.3625 C   0  0  0  0  0  0  0  0  0  0  0  0
   20.6722   -4.7508  -16.3249 C   0  0  0  0  0  0  0  0  0  0  0  0
   21.3770   -5.0045  -15.3263 O   0  0  0  0  0  0  0  0  0  0  0  0
   20.7083   -3.4731  -16.8426 O   0  0  0  0  0  0  0  0  0  0  0  0
  1  2  1  0
  2  3  2  0
  4  5  1  0
  4  2  1  0
  6  7  1  1
  6  5  1  0
  8 10  1  0
  8  6  1  0
  9  8  2  0
 11 10  1  0
 11 12  1  6
 13 12  1  0
 14 15  2  0
 14 11  1  0
 16 14  1  0
 17 25  1  0
 17 16  1  0
 17 18  1  1
 19 18  1  0
 20 19  2  0
 21 20  1  0
 22 21  2  0
 22 23  1  0
 23 24  2  0
 24 19  1  0
 25 27  1  0
 26 25  2  0
M  END
$$$$
