QCF.pdb
     RDKit          3D

 27 27  0  0  1  0  0  0  0  0999 V2000
   27.9729  -22.1590  -17.7449 N   0  0  0  0  0  0  0  0  0  0  0  0
   29.1819  -21.4295  -17.5838 C   0  0  0  0  0  0  0  0  0  0  0  0
   30.2431  -21.9250  -18.0357 O   0  0  0  0  0  0  0  0  0  0  0  0
   29.1094  -20.1205  -16.8868 C   0  0  0  0  0  0  0  0  0  0  0  0
   27.6802  -19.8600  -16.4050 C   0  0  0  0  0  0  0  0  0  0  0  0
   27.3137  -20.8760  -15.3358 C   0  0  2  0  0  0  0  0  0  0  0  0
   26.5823  -21.9824  -15.8980 N   0  0  0  0  0  0  0  0  0  0  0  0
   26.5021  -20.2014  -14.2552 C   0  0  0  0  0  0  0  0  0  0  0  0
   25.7374  -19.2449  -14.5348 O   0  0  0  0  0  0  0  0  0  0  0  0
   26.5853  -20.6301  -12.9117 N   0  0  0  0  0  0  0  0  0  0  0  0
   25.5362  -20.3887  -11.9176 C   0  0  1  0  0  0  0  0  0  0  0  0
   24.3013  -21.0224  -12.4792 C   0  0  0  0  0  0  0  0  0  0  0  0
   22.8896  -20.8600  -11.3832 S   0  0  0  0  0  0  0  0  0  0  0  0
   25.9476  -20.8568  -10.5907 C   0  0  0  0  0  0  0  0  0  0  0  0
   26.1352  -22.1082  -10.3569 O   0  0  0  0  0  0  0  0  0  0  0  0
   26.1617  -19.9898   -9.5132 N   0  0  0  0  0  0  0  0  0  0  0  0
   26.2788  -20.4524   -8.1259 C   0  0  1  0  0  0  0  0  0  0  0  0
   26.5447  -19.3082   -7.2024 C   0  0  0  0  0  0  0  0  0  0  0  0
   27.7063  -19.5219   -6.3523 C   0  0  0  0  0  0  0  0  0  0  0  0
   28.1641  -18.5923   -5.4205 C   0  0  0  0  0  0  0  0  0  0  0  0
   29.2600  -18.8763   -4.6351 C   0  0  0  0  0  0  0  0  0  0  0  0
   29.9468  -20.0677   -4.7265 C   0  0  0  0  0  0  0  0  0  0  0  0
   29.4978  -20.9907   -5.6466 C   0  0  0  0  0  0  0  0  0  0  0  0
   28.4082  -20.7065   -6.4263 C   0  0  0  0  0  0  0  0  0  0  0  0
   25.0177  -21.1159   -7.7847 C   0  0  0  0  0  0  0  0  0  0  0  0
   23.9501  -20.7251   -8.3002 O   0  0  0  0  0  0  0  0  0  0  0  0
   24.9681  -22.1746   -6.9023 O   0  0  0  0  0  0  0  0  0  0  0  0
  1  2  1  0
  2  3  2  0
  4  5  1  0
  4  2  1  0
  6  7  1  6
  6  5  1  0
  8 10  1  0
  8  6  1  0
  9  8  2  0
 11 10  1  0
 11 12  1  6
 13 12  1  0
 14 15  2  0
 14 11  1  0
 16 14  1  0
 17 25  1  0
 17 16  1  0
 17 18  1  1
 19 18  1  0
 20 19  2  0
 21 20  1  0
 22 21  2  0
 22 23  1  0
 23 24  2  0
 24 19  1  0
 25 27  1  0
 26 25  2  0
M  END
$$$$
