QCF.pdb
     RDKit          3D

 27 27  0  0  1  0  0  0  0  0999 V2000
   18.4640  -15.4624  -13.8903 N   0  0  0  0  0  0  0  0  0  0  0  0
   17.2647  -16.1363  -14.2472 C   0  0  0  0  0  0  0  0  0  0  0  0
   16.8471  -17.0507  -13.4953 O   0  0  0  0  0  0  0  0  0  0  0  0
   16.5803  -15.7115  -15.4945 C   0  0  0  0  0  0  0  0  0  0  0  0
   17.3026  -14.5091  -16.1070 C   0  0  0  0  0  0  0  0  0  0  0  0
   16.3630  -13.3149  -16.1345 C   0  0  2  0  0  0  0  0  0  0  0  0
   15.2804  -13.5257  -17.0611 N   0  0  0  0  0  0  0  0  0  0  0  0
   17.1375  -12.0713  -16.5021 C   0  0  0  0  0  0  0  0  0  0  0  0
   17.7073  -11.9810  -17.6180 O   0  0  0  0  0  0  0  0  0  0  0  0
   17.2375  -10.9869  -15.6022 N   0  0  0  0  0  0  0  0  0  0  0  0
   17.9509   -9.7439  -15.9071 C   0  0  1  0  0  0  0  0  0  0  0  0
   17.0414   -8.6421  -15.4592 C   0  0  0  0  0  0  0  0  0  0  0  0
   15.6024   -8.4697  -16.5176 S   0  0  0  0  0  0  0  0  0  0  0  0
   19.2921   -9.7455  -15.3154 C   0  0  0  0  0  0  0  0  0  0  0  0
   19.4785  -10.1052  -14.0941 O   0  0  0  0  0  0  0  0  0  0  0  0
   20.4357   -9.3656  -16.0273 N   0  0  0  0  0  0  0  0  0  0  0  0
   21.7894   -9.4479  -15.4680 C   0  0  1  0  0  0  0  0  0  0  0  0
   22.7509   -9.9905  -16.4751 C   0  0  0  0  0  0  0  0  0  0  0  0
   24.1165  -10.0599  -15.9773 C   0  0  0  0  0  0  0  0  0  0  0  0
   24.5821  -11.0678  -15.1349 C   0  0  0  0  0  0  0  0  0  0  0  0
   25.8968  -11.0777  -14.7226 C   0  0  0  0  0  0  0  0  0  0  0  0
   26.8016  -10.1136  -15.1120 C   0  0  0  0  0  0  0  0  0  0  0  0
   26.3459   -9.1147  -15.9454 C   0  0  0  0  0  0  0  0  0  0  0  0
   25.0387   -9.1067  -16.3542 C   0  0  0  0  0  0  0  0  0  0  0  0
   22.1706   -8.0931  -15.0602 C   0  0  0  0  0  0  0  0  0  0  0  0
   21.9202   -7.1251  -15.8076 O   0  0  0  0  0  0  0  0  0  0  0  0
   22.8039   -7.8455  -13.8605 O   0  0  0  0  0  0  0  0  0  0  0  0
  1  2  1  0
  2  3  2  0
  4  5  1  0
  4  2  1  0
  6  7  1  6
  6  5  1  0
  8 10  1  0
  8  6  1  0
  9  8  2  0
 11 10  1  0
 11 12  1  1
 13 12  1  0
 14 15  2  0
 14 11  1  0
 16 14  1  0
 17 25  1  0
 17 16  1  0
 17 18  1  6
 19 18  1  0
 20 19  2  0
 21 20  1  0
 22 21  2  0
 22 23  1  0
 23 24  2  0
 24 19  1  0
 25 27  1  0
 26 25  2  0
M  END
$$$$
