SCW.pdb
     RDKit          3D

 27 28  0  0  1  0  0  0  0  0999 V2000
   10.5194  -13.8018   18.4948 O   0  0  0  0  0  0  0  0  0  0  0  0
    9.6837  -14.5263   17.6474 C   0  0  0  0  0  0  0  0  0  0  0  0
    8.2481  -14.2713   17.9844 C   0  0  2  0  0  0  0  0  0  0  0  0
    7.8670  -12.8893   17.8028 N   0  0  0  0  0  0  0  0  0  0  0  0
    7.9268  -14.7948   19.3180 C   0  0  0  0  0  0  0  0  0  0  0  0
    7.9248  -13.9400   20.2625 O   0  0  0  0  0  0  0  0  0  0  0  0
    7.6299  -16.1339   19.6178 N   0  0  0  0  0  0  0  0  0  0  0  0
    7.2825  -16.5502   20.9490 C   0  0  1  0  0  0  0  0  0  0  0  0
    6.7574  -17.9513   20.8927 C   0  0  0  0  0  0  0  0  0  0  0  0
    6.4593  -18.5657   22.5725 S   0  0  0  0  0  0  0  0  0  0  0  0
    8.4180  -16.3915   21.8864 C   0  0  0  0  0  0  0  0  0  0  0  0
    9.5727  -16.6202   21.4441 O   0  0  0  0  0  0  0  0  0  0  0  0
    8.2997  -16.0063   23.2256 N   0  0  0  0  0  0  0  0  0  0  0  0
    9.4845  -15.9254   24.0725 C   0  0  1  0  0  0  0  0  0  0  0  0
    9.4816  -14.6955   24.9061 C   0  0  0  0  0  0  0  0  0  0  0  0
    8.1319  -14.4360   25.4637 C   0  0  0  0  0  0  0  0  0  0  0  0
    7.1521  -15.4278   25.6298 C   0  0  0  0  0  0  0  0  0  0  0  0
    6.0796  -14.8889   26.1920 N   0  0  0  0  0  0  0  0  0  0  0  0
    6.2896  -13.5831   26.4114 C   0  0  0  0  0  0  0  0  0  0  0  0
    5.4613  -12.5967   26.9679 C   0  0  0  0  0  0  0  0  0  0  0  0
    5.8923  -11.3123   27.0793 C   0  0  0  0  0  0  0  0  0  0  0  0
    7.1609  -11.0274   26.6272 C   0  0  0  0  0  0  0  0  0  0  0  0
    7.9781  -12.0005   26.0785 C   0  0  0  0  0  0  0  0  0  0  0  0
    7.5552  -13.2994   25.9625 C   0  0  0  0  0  0  0  0  0  0  0  0
    9.6520  -17.1764   24.8047 C   0  0  0  0  0  0  0  0  0  0  0  0
    8.7541  -18.0889   24.8263 O   0  0  0  0  0  0  0  0  0  0  0  0
   10.7944  -17.4841   25.5307 O   0  0  0  0  0  0  0  0  0  0  0  0
  2  1  1  0
  3  2  1  0
  3  4  1  1
  5  6  2  0
  5  3  1  0
  7  5  1  0
  8  7  1  0
  8  9  1  6
 10  9  1  0
 11 13  1  0
 11  8  1  0
 12 11  2  0
 14 25  1  0
 14 13  1  0
 14 15  1  1
 15 16  1  0
 16 24  1  0
 16 17  2  0
 17 18  1  0
 19 20  2  0
 19 18  1  0
 21 20  1  0
 22 21  2  0
 23 22  1  0
 23 24  2  0
 24 19  1  0
 25 27  1  0
 26 25  2  0
M  END
$$$$
