SCW.pdb
     RDKit          3D

 27 28  0  0  1  0  0  0  0  0999 V2000
   12.3316  -19.3822   19.4250 O   0  0  0  0  0  0  0  0  0  0  0  0
   10.9622  -19.2687   19.6553 C   0  0  0  0  0  0  0  0  0  0  0  0
   10.3922  -18.1285   18.8713 C   0  0  2  0  0  0  0  0  0  0  0  0
   11.2483  -17.7129   17.7839 N   0  0  0  0  0  0  0  0  0  0  0  0
   10.0047  -17.0279   19.7625 C   0  0  0  0  0  0  0  0  0  0  0  0
   10.8095  -16.0414   19.8060 O   0  0  0  0  0  0  0  0  0  0  0  0
    8.8419  -16.9867   20.5484 N   0  0  0  0  0  0  0  0  0  0  0  0
    8.5829  -15.9032   21.4568 C   0  0  1  0  0  0  0  0  0  0  0  0
    7.1230  -15.5743   21.4085 C   0  0  0  0  0  0  0  0  0  0  0  0
    6.7329  -14.3174   22.6559 S   0  0  0  0  0  0  0  0  0  0  0  0
    9.0664  -16.2065   22.8233 C   0  0  0  0  0  0  0  0  0  0  0  0
    8.8313  -17.3539   23.2812 O   0  0  0  0  0  0  0  0  0  0  0  0
    9.7643  -15.3113   23.6402 N   0  0  0  0  0  0  0  0  0  0  0  0
   10.1091  -15.6829   25.0078 C   0  0  1  0  0  0  0  0  0  0  0  0
    8.9562  -16.2936   25.7189 C   0  0  0  0  0  0  0  0  0  0  0  0
    7.8190  -15.3448   25.7978 C   0  0  0  0  0  0  0  0  0  0  0  0
    6.4740  -15.7259   25.6675 C   0  0  0  0  0  0  0  0  0  0  0  0
    5.7029  -14.6605   25.8322 N   0  0  0  0  0  0  0  0  0  0  0  0
    6.4632  -13.5814   26.0659 C   0  0  0  0  0  0  0  0  0  0  0  0
    6.1166  -12.2403   26.2902 C   0  0  0  0  0  0  0  0  0  0  0  0
    7.0780  -11.3014   26.4945 C   0  0  0  0  0  0  0  0  0  0  0  0
    8.3891  -11.7203   26.4713 C   0  0  0  0  0  0  0  0  0  0  0  0
    8.7309  -13.0432   26.2504 C   0  0  0  0  0  0  0  0  0  0  0  0
    7.7702  -13.9994   26.0447 C   0  0  0  0  0  0  0  0  0  0  0  0
   11.3345  -16.4751   25.0081 C   0  0  0  0  0  0  0  0  0  0  0  0
   11.8385  -16.9660   26.0779 O   0  0  0  0  0  0  0  0  0  0  0  0
   12.0504  -16.7669   23.8552 O   0  0  0  0  0  0  0  0  0  0  0  0
  2  1  1  0
  3  2  1  0
  3  4  1  6
  5  6  2  0
  5  3  1  0
  7  5  1  0
  8  7  1  0
  8  9  1  1
 10  9  1  0
 11 13  1  0
 11  8  1  0
 12 11  2  0
 14 25  1  0
 14 13  1  0
 14 15  1  6
 15 16  1  0
 16 24  1  0
 16 17  2  0
 17 18  1  0
 19 20  2  0
 19 18  1  0
 21 20  1  0
 22 21  2  0
 23 22  1  0
 23 24  2  0
 24 19  1  0
 25 27  1  0
 26 25  2  0
M  END
$$$$
