SCW.pdb
     RDKit          3D

 27 28  0  0  1  0  0  0  0  0999 V2000
   10.6478  -13.7046   18.0413 O   0  0  0  0  0  0  0  0  0  0  0  0
    9.6915  -14.4588   17.3647 C   0  0  0  0  0  0  0  0  0  0  0  0
    8.3135  -14.0655   17.7961 C   0  0  2  0  0  0  0  0  0  0  0  0
    8.0108  -12.6815   17.5110 N   0  0  0  0  0  0  0  0  0  0  0  0
    8.0823  -14.4367   19.1977 C   0  0  0  0  0  0  0  0  0  0  0  0
    8.0668  -13.4726   20.0303 O   0  0  0  0  0  0  0  0  0  0  0  0
    7.8827  -15.7429   19.6724 N   0  0  0  0  0  0  0  0  0  0  0  0
    7.4437  -15.9985   21.0171 C   0  0  1  0  0  0  0  0  0  0  0  0
    6.6115  -17.2431   21.0224 C   0  0  0  0  0  0  0  0  0  0  0  0
    7.6746  -18.6963   20.8077 S   0  0  0  0  0  0  0  0  0  0  0  0
    8.5816  -16.0550   21.9633 C   0  0  0  0  0  0  0  0  0  0  0  0
    9.7197  -16.3017   21.4890 O   0  0  0  0  0  0  0  0  0  0  0  0
    8.4824  -15.8543   23.3438 N   0  0  0  0  0  0  0  0  0  0  0  0
    9.6706  -15.9450   24.1848 C   0  0  1  0  0  0  0  0  0  0  0  0
    9.6568  -14.9276   25.2676 C   0  0  0  0  0  0  0  0  0  0  0  0
    8.2685  -14.6244   25.6926 C   0  0  0  0  0  0  0  0  0  0  0  0
    7.2856  -15.6042   25.9050 C   0  0  0  0  0  0  0  0  0  0  0  0
    6.1717  -15.0188   26.3211 N   0  0  0  0  0  0  0  0  0  0  0  0
    6.3568  -13.6932   26.3981 C   0  0  0  0  0  0  0  0  0  0  0  0
    5.4838  -12.6605   26.7727 C   0  0  0  0  0  0  0  0  0  0  0  0
    5.8973  -11.3657   26.7611 C   0  0  0  0  0  0  0  0  0  0  0  0
    7.1935  -11.1171   26.3700 C   0  0  0  0  0  0  0  0  0  0  0  0
    8.0548  -12.1358   26.0008 C   0  0  0  0  0  0  0  0  0  0  0  0
    7.6497  -13.4456   26.0101 C   0  0  0  0  0  0  0  0  0  0  0  0
    9.8578  -17.3236   24.6248 C   0  0  0  0  0  0  0  0  0  0  0  0
    8.9341  -18.2063   24.5403 O   0  0  0  0  0  0  0  0  0  0  0  0
   11.0475  -17.7938   25.1635 O   0  0  0  0  0  0  0  0  0  0  0  0
  2  1  1  0
  3  2  1  0
  3  4  1  1
  5  6  2  0
  5  3  1  0
  7  5  1  0
  8  7  1  0
  8  9  1  6
 10  9  1  0
 11 13  1  0
 11  8  1  0
 12 11  2  0
 14 25  1  0
 14 13  1  0
 14 15  1  1
 15 16  1  0
 16 24  1  0
 16 17  2  0
 17 18  1  0
 19 20  2  0
 19 18  1  0
 21 20  1  0
 22 21  2  0
 23 22  1  0
 23 24  2  0
 24 19  1  0
 25 27  1  0
 26 25  2  0
M  END
$$$$
