SCW.pdb
     RDKit          3D

 27 28  0  0  1  0  0  0  0  0999 V2000
    9.1325  -20.1430   20.6441 O   0  0  0  0  0  0  0  0  0  0  0  0
    8.0031  -19.7721   19.9174 C   0  0  0  0  0  0  0  0  0  0  0  0
    8.3472  -18.7095   18.9214 C   0  0  2  0  0  0  0  0  0  0  0  0
    9.3508  -19.1346   17.9726 N   0  0  0  0  0  0  0  0  0  0  0  0
    8.6811  -17.4508   19.5995 C   0  0  0  0  0  0  0  0  0  0  0  0
    9.8953  -17.0767   19.5058 O   0  0  0  0  0  0  0  0  0  0  0  0
    7.7820  -16.6520   20.3240 N   0  0  0  0  0  0  0  0  0  0  0  0
    8.2174  -15.4835   21.0388 C   0  0  1  0  0  0  0  0  0  0  0  0
    7.1346  -14.4511   20.9770 C   0  0  0  0  0  0  0  0  0  0  0  0
    7.7554  -12.8685   21.6079 S   0  0  0  0  0  0  0  0  0  0  0  0
    8.6315  -15.8105   22.4227 C   0  0  0  0  0  0  0  0  0  0  0  0
    7.9710  -16.6884   23.0344 O   0  0  0  0  0  0  0  0  0  0  0  0
    9.7019  -15.2148   23.0973 N   0  0  0  0  0  0  0  0  0  0  0  0
   10.0408  -15.6370   24.4517 C   0  0  1  0  0  0  0  0  0  0  0  0
    8.9208  -16.3716   25.0950 C   0  0  0  0  0  0  0  0  0  0  0  0
    7.8395  -15.4407   25.5001 C   0  0  0  0  0  0  0  0  0  0  0  0
    6.4732  -15.7588   25.4418 C   0  0  0  0  0  0  0  0  0  0  0  0
    5.7696  -14.7397   25.9142 N   0  0  0  0  0  0  0  0  0  0  0  0
    6.5954  -13.7515   26.2865 C   0  0  0  0  0  0  0  0  0  0  0  0
    6.3317  -12.4843   26.8284 C   0  0  0  0  0  0  0  0  0  0  0  0
    7.3482  -11.6304   27.1199 C   0  0  0  0  0  0  0  0  0  0  0  0
    8.6307  -12.0594   26.8625 C   0  0  0  0  0  0  0  0  0  0  0  0
    8.8909  -13.3095   26.3283 C   0  0  0  0  0  0  0  0  0  0  0  0
    7.8741  -14.1800   26.0317 C   0  0  0  0  0  0  0  0  0  0  0  0
   11.3225  -16.3342   24.4435 C   0  0  0  0  0  0  0  0  0  0  0  0
   12.2539  -16.0759   25.2833 O   0  0  0  0  0  0  0  0  0  0  0  0
   11.6370  -17.3345   23.5338 O   0  0  0  0  0  0  0  0  0  0  0  0
  2  1  1  0
  3  2  1  0
  3  4  1  1
  5  6  2  0
  5  3  1  0
  7  5  1  0
  8  7  1  0
  8  9  1  1
 10  9  1  0
 11 13  1  0
 11  8  1  0
 12 11  2  0
 14 25  1  0
 14 13  1  0
 14 15  1  6
 15 16  1  0
 16 24  1  0
 16 17  2  0
 17 18  1  0
 19 20  2  0
 19 18  1  0
 21 20  1  0
 22 21  2  0
 23 22  1  0
 23 24  2  0
 24 19  1  0
 25 27  1  0
 26 25  2  0
M  END
$$$$
