SCW.pdb
     RDKit          3D

 27 28  0  0  1  0  0  0  0  0999 V2000
   10.7658  -17.2662   16.9100 O   0  0  0  0  0  0  0  0  0  0  0  0
    9.6542  -18.0492   17.2144 C   0  0  0  0  0  0  0  0  0  0  0  0
    8.4126  -17.2138   17.2246 C   0  0  2  0  0  0  0  0  0  0  0  0
    8.4879  -16.0870   16.3231 N   0  0  0  0  0  0  0  0  0  0  0  0
    8.0497  -16.8398   18.5973 C   0  0  0  0  0  0  0  0  0  0  0  0
    7.9229  -15.5911   18.8156 O   0  0  0  0  0  0  0  0  0  0  0  0
    7.8383  -17.7361   19.6572 N   0  0  0  0  0  0  0  0  0  0  0  0
    7.3484  -17.2931   20.9339 C   0  0  1  0  0  0  0  0  0  0  0  0
    6.3264  -18.2723   21.4223 C   0  0  0  0  0  0  0  0  0  0  0  0
    7.1439  -19.6227   22.3147 S   0  0  0  0  0  0  0  0  0  0  0  0
    8.4512  -17.0733   21.8976 C   0  0  0  0  0  0  0  0  0  0  0  0
    9.5533  -17.6284   21.6556 O   0  0  0  0  0  0  0  0  0  0  0  0
    8.3562  -16.2945   23.0553 N   0  0  0  0  0  0  0  0  0  0  0  0
    9.5261  -16.0964   23.9034 C   0  0  1  0  0  0  0  0  0  0  0  0
    9.5448  -14.7383   24.5059 C   0  0  0  0  0  0  0  0  0  0  0  0
    8.2289  -14.4054   25.1038 C   0  0  0  0  0  0  0  0  0  0  0  0
    7.2292  -15.3550   25.3687 C   0  0  0  0  0  0  0  0  0  0  0  0
    6.1984  -14.7516   25.9432 N   0  0  0  0  0  0  0  0  0  0  0  0
    6.4553  -13.4426   26.0769 C   0  0  0  0  0  0  0  0  0  0  0  0
    5.6808  -12.4006   26.6093 C   0  0  0  0  0  0  0  0  0  0  0  0
    6.1530  -11.1261   26.6271 C   0  0  0  0  0  0  0  0  0  0  0  0
    7.4082  -10.9072   26.1061 C   0  0  0  0  0  0  0  0  0  0  0  0
    8.1723  -11.9351   25.5813 C   0  0  0  0  0  0  0  0  0  0  0  0
    7.7075  -13.2247   25.5592 C   0  0  0  0  0  0  0  0  0  0  0  0
    9.6409  -17.2015   24.8492 C   0  0  0  0  0  0  0  0  0  0  0  0
   10.6733  -17.3743   25.5865 O   0  0  0  0  0  0  0  0  0  0  0  0
    8.6444  -18.1501   25.0331 O   0  0  0  0  0  0  0  0  0  0  0  0
  2  1  1  0
  3  2  1  0
  3  4  1  6
  5  6  2  0
  5  3  1  0
  7  5  1  0
  8  7  1  0
  8  9  1  1
 10  9  1  0
 11 13  1  0
 11  8  1  0
 12 11  2  0
 14 25  1  0
 14 13  1  0
 14 15  1  1
 15 16  1  0
 16 24  1  0
 16 17  2  0
 17 18  1  0
 19 20  2  0
 19 18  1  0
 21 20  1  0
 22 21  2  0
 23 22  1  0
 23 24  2  0
 24 19  1  0
 25 27  1  0
 26 25  2  0
M  END
$$$$
