SCW.pdb
     RDKit          3D

 27 28  0  0  1  0  0  0  0  0999 V2000
    8.6577  -21.0032   20.6943 O   0  0  0  0  0  0  0  0  0  0  0  0
    7.4194  -21.0850   20.0609 C   0  0  0  0  0  0  0  0  0  0  0  0
    6.4077  -21.7117   20.9683 C   0  0  2  0  0  0  0  0  0  0  0  0
    5.1207  -21.8882   20.3354 N   0  0  0  0  0  0  0  0  0  0  0  0
    6.3364  -20.9890   22.2443 C   0  0  0  0  0  0  0  0  0  0  0  0
    5.6027  -19.9476   22.2504 O   0  0  0  0  0  0  0  0  0  0  0  0
    7.0011  -21.3542   23.4259 N   0  0  0  0  0  0  0  0  0  0  0  0
    6.9134  -20.5568   24.6187 C   0  0  1  0  0  0  0  0  0  0  0  0
    7.2540  -21.4156   25.7969 C   0  0  0  0  0  0  0  0  0  0  0  0
    7.1062  -20.4514   27.3255 S   0  0  0  0  0  0  0  0  0  0  0  0
    7.7496  -19.3381   24.5255 C   0  0  0  0  0  0  0  0  0  0  0  0
    8.3746  -19.1432   23.4518 O   0  0  0  0  0  0  0  0  0  0  0  0
    7.8945  -18.3898   25.5431 N   0  0  0  0  0  0  0  0  0  0  0  0
    8.1967  -17.0014   25.2135 C   0  0  1  0  0  0  0  0  0  0  0  0
    6.9620  -16.2172   24.9521 C   0  0  0  0  0  0  0  0  0  0  0  0
    7.2837  -14.7929   24.6920 C   0  0  0  0  0  0  0  0  0  0  0  0
    7.9828  -14.3447   23.5599 C   0  0  0  0  0  0  0  0  0  0  0  0
    8.0675  -13.0225   23.5971 N   0  0  0  0  0  0  0  0  0  0  0  0
    7.4605  -12.5594   24.6991 C   0  0  0  0  0  0  0  0  0  0  0  0
    7.2958  -11.2518   25.1806 C   0  0  0  0  0  0  0  0  0  0  0  0
    6.6439  -11.0217   26.3509 C   0  0  0  0  0  0  0  0  0  0  0  0
    6.1596  -12.1149   27.0330 C   0  0  0  0  0  0  0  0  0  0  0  0
    6.3218  -13.4048   26.5579 C   0  0  0  0  0  0  0  0  0  0  0  0
    6.9760  -13.6493   25.3781 C   0  0  0  0  0  0  0  0  0  0  0  0
    9.0920  -16.4406   26.2199 C   0  0  0  0  0  0  0  0  0  0  0  0
    9.9675  -15.5479   25.9440 O   0  0  0  0  0  0  0  0  0  0  0  0
    9.0670  -16.8205   27.5548 O   0  0  0  0  0  0  0  0  0  0  0  0
  2  1  1  0
  3  2  1  0
  3  4  1  6
  5  6  2  0
  5  3  1  0
  7  5  1  0
  8  7  1  0
  8  9  1  1
 10  9  1  0
 11 13  1  0
 11  8  1  0
 12 11  2  0
 14 25  1  0
 14 13  1  0
 14 15  1  1
 15 16  1  0
 16 24  1  0
 16 17  2  0
 17 18  1  0
 19 20  2  0
 19 18  1  0
 21 20  1  0
 22 21  2  0
 23 22  1  0
 23 24  2  0
 24 19  1  0
 25 27  1  0
 26 25  2  0
M  END
$$$$
