SCW.pdb
     RDKit          3D

 27 28  0  0  1  0  0  0  0  0999 V2000
    6.3032  -14.2171   21.7085 O   0  0  0  0  0  0  0  0  0  0  0  0
    7.4890  -13.9452   21.0293 C   0  0  0  0  0  0  0  0  0  0  0  0
    7.9956  -15.1769   20.3467 C   0  0  2  0  0  0  0  0  0  0  0  0
    7.0078  -15.7871   19.4864 N   0  0  0  0  0  0  0  0  0  0  0  0
    8.5764  -16.1089   21.3211 C   0  0  0  0  0  0  0  0  0  0  0  0
    7.8755  -17.1387   21.5880 O   0  0  0  0  0  0  0  0  0  0  0  0
    9.8155  -15.9502   21.9620 N   0  0  0  0  0  0  0  0  0  0  0  0
   10.3320  -16.9439   22.8632 C   0  0  1  0  0  0  0  0  0  0  0  0
   11.6864  -17.3678   22.3859 C   0  0  0  0  0  0  0  0  0  0  0  0
   11.5271  -18.3380   20.8623 S   0  0  0  0  0  0  0  0  0  0  0  0
   10.3322  -16.4651   24.2647 C   0  0  0  0  0  0  0  0  0  0  0  0
   10.7547  -15.3006   24.4806 O   0  0  0  0  0  0  0  0  0  0  0  0
    9.8973  -17.2129   25.3636 N   0  0  0  0  0  0  0  0  0  0  0  0
   10.0512  -16.6867   26.7152 C   0  0  1  0  0  0  0  0  0  0  0  0
    8.7443  -16.5722   27.4127 C   0  0  0  0  0  0  0  0  0  0  0  0
    7.8246  -15.6750   26.6718 C   0  0  0  0  0  0  0  0  0  0  0  0
    6.7960  -16.1320   25.8326 C   0  0  0  0  0  0  0  0  0  0  0  0
    6.1274  -15.0905   25.3583 N   0  0  0  0  0  0  0  0  0  0  0  0
    6.6564  -13.9553   25.8365 C   0  0  0  0  0  0  0  0  0  0  0  0
    6.3092  -12.6132   25.6196 C   0  0  0  0  0  0  0  0  0  0  0  0
    7.0111  -11.6116   26.2125 C   0  0  0  0  0  0  0  0  0  0  0  0
    8.0640  -11.9690   27.0240 C   0  0  0  0  0  0  0  0  0  0  0  0
    8.4064  -13.2929   27.2383 C   0  0  0  0  0  0  0  0  0  0  0  0
    7.7049  -14.3118   26.6472 C   0  0  0  0  0  0  0  0  0  0  0  0
   11.0743  -17.4469   27.4254 C   0  0  0  0  0  0  0  0  0  0  0  0
   11.6088  -18.5047   26.9410 O   0  0  0  0  0  0  0  0  0  0  0  0
   11.5564  -17.0868   28.6764 O   0  0  0  0  0  0  0  0  0  0  0  0
  2  1  1  0
  3  2  1  0
  3  4  1  1
  5  6  2  0
  5  3  1  0
  7  5  1  0
  8  7  1  0
  8  9  1  6
 10  9  1  0
 11 13  1  0
 11  8  1  0
 12 11  2  0
 14 25  1  0
 14 13  1  0
 14 15  1  1
 15 16  1  0
 16 24  1  0
 16 17  2  0
 17 18  1  0
 19 20  2  0
 19 18  1  0
 21 20  1  0
 22 21  2  0
 23 22  1  0
 23 24  2  0
 24 19  1  0
 25 27  1  0
 26 25  2  0
M  END
$$$$
