SCW.pdb
     RDKit          3D

 27 28  0  0  1  0  0  0  0  0999 V2000
   10.1104  -14.9636   17.1943 O   0  0  0  0  0  0  0  0  0  0  0  0
    8.7553  -15.1931   16.9658 C   0  0  0  0  0  0  0  0  0  0  0  0
    7.9209  -14.2536   17.7787 C   0  0  2  0  0  0  0  0  0  0  0  0
    8.0671  -12.8759   17.3679 N   0  0  0  0  0  0  0  0  0  0  0  0
    8.1521  -14.4624   19.2134 C   0  0  0  0  0  0  0  0  0  0  0  0
    8.9939  -13.6769   19.7585 O   0  0  0  0  0  0  0  0  0  0  0  0
    7.5284  -15.4396   20.0055 N   0  0  0  0  0  0  0  0  0  0  0  0
    7.7990  -15.5564   21.4124 C   0  0  1  0  0  0  0  0  0  0  0  0
    6.5064  -15.7845   22.1329 C   0  0  0  0  0  0  0  0  0  0  0  0
    6.3597  -17.5313   22.5971 S   0  0  0  0  0  0  0  0  0  0  0  0
    8.8125  -16.5998   21.6906 C   0  0  0  0  0  0  0  0  0  0  0  0
    8.6276  -17.7377   21.1884 O   0  0  0  0  0  0  0  0  0  0  0  0
    9.9584  -16.4118   22.4699 N   0  0  0  0  0  0  0  0  0  0  0  0
    9.8502  -15.8350   23.8052 C   0  0  1  0  0  0  0  0  0  0  0  0
    8.6917  -14.9109   23.9127 C   0  0  0  0  0  0  0  0  0  0  0  0
    8.5448  -14.4037   25.2987 C   0  0  0  0  0  0  0  0  0  0  0  0
    9.3026  -14.8697   26.3849 C   0  0  0  0  0  0  0  0  0  0  0  0
    8.9692  -14.1879   27.4714 N   0  0  0  0  0  0  0  0  0  0  0  0
    8.0236  -13.2867   27.1696 C   0  0  0  0  0  0  0  0  0  0  0  0
    7.3520  -12.3512   27.9713 C   0  0  0  0  0  0  0  0  0  0  0  0
    6.4041  -11.5359   27.4380 C   0  0  0  0  0  0  0  0  0  0  0  0
    6.1366  -11.6682   26.0942 C   0  0  0  0  0  0  0  0  0  0  0  0
    6.7993  -12.5907   25.3033 C   0  0  0  0  0  0  0  0  0  0  0  0
    7.7583  -13.4173   25.8294 C   0  0  0  0  0  0  0  0  0  0  0  0
    9.8977  -16.8968   24.8050 C   0  0  0  0  0  0  0  0  0  0  0  0
    9.0424  -17.8489   24.8416 O   0  0  0  0  0  0  0  0  0  0  0  0
   10.8715  -16.9676   25.7917 O   0  0  0  0  0  0  0  0  0  0  0  0
  2  1  1  0
  3  2  1  0
  3  4  1  6
  5  6  2  0
  5  3  1  0
  7  5  1  0
  8  7  1  0
  8  9  1  1
 10  9  1  0
 11 13  1  0
 11  8  1  0
 12 11  2  0
 14 25  1  0
 14 13  1  0
 14 15  1  6
 15 16  1  0
 16 24  1  0
 16 17  2  0
 17 18  1  0
 19 20  2  0
 19 18  1  0
 21 20  1  0
 22 21  2  0
 23 22  1  0
 23 24  2  0
 24 19  1  0
 25 27  1  0
 26 25  2  0
M  END
$$$$
