LHL.pdb
     RDKit          3D

 27 27  0  0  1  0  0  0  0  0999 V2000
    7.6009  -12.2121   18.3301 C   0  0  0  0  0  0  0  0  0  0  0  0
    8.3350  -13.4873   18.7223 C   0  0  1  0  0  0  0  0  0  0  0  0
    9.7843  -13.1379   19.0122 C   0  0  0  0  0  0  0  0  0  0  0  0
    7.6598  -14.2053   19.8457 C   0  0  0  0  0  0  0  0  0  0  0  0
    8.4790  -15.3551   20.3905 C   0  0  2  0  0  0  0  0  0  0  0  0
    8.3400  -16.5261   19.5152 N   0  0  0  0  0  0  0  0  0  0  0  0
    8.0699  -15.7460   21.7434 C   0  0  0  0  0  0  0  0  0  0  0  0
    7.1680  -15.0788   22.3094 O   0  0  0  0  0  0  0  0  0  0  0  0
    8.6124  -16.8262   22.4685 N   0  0  0  0  0  0  0  0  0  0  0  0
    8.0961  -17.1947   23.8064 C   0  0  1  0  0  0  0  0  0  0  0  0
    8.4470  -18.6326   24.0452 C   0  0  0  0  0  0  0  0  0  0  0  0
    8.0090  -19.0876   25.3757 C   0  0  0  0  0  0  0  0  0  0  0  0
    7.2805  -18.3199   26.3032 C   0  0  0  0  0  0  0  0  0  0  0  0
    7.0776  -19.0655   27.3890 N   0  0  0  0  0  0  0  0  0  0  0  0
    7.6390  -20.2752   27.2062 C   0  0  0  0  0  0  0  0  0  0  0  0
    8.1931  -20.2579   25.9853 N   0  0  0  0  0  0  0  0  0  0  0  0
    8.7267  -16.2674   24.8002 C   0  0  0  0  0  0  0  0  0  0  0  0
    9.9591  -16.0040   24.8259 O   0  0  0  0  0  0  0  0  0  0  0  0
    5.9870  -11.8977   26.6098 C   0  0  0  0  0  0  0  0  0  0  0  0
    7.0316  -12.8928   26.1003 C   0  0  1  0  0  0  0  0  0  0  0  0
    8.2815  -12.1157   25.6882 C   0  0  0  0  0  0  0  0  0  0  0  0
    7.3942  -13.7885   27.2416 C   0  0  0  0  0  0  0  0  0  0  0  0
    8.4227  -14.7960   26.8412 C   0  0  2  0  0  0  0  0  0  0  0  0
    7.9006  -15.6475   25.7623 N   0  0  0  0  0  0  0  0  0  0  0  0
    8.8799  -15.5941   27.9762 C   0  0  0  0  0  0  0  0  0  0  0  0
    9.7790  -15.1973   28.9217 O   0  0  0  0  0  0  0  0  0  0  0  0
    8.3938  -16.7871   28.0953 O   0  0  0  0  0  0  0  0  0  0  0  0
  2  3  1  1
  2  1  1  0
  4  2  1  0
  4  5  1  0
  5  7  1  0
  5  6  1  6
  7  8  2  0
  9 10  1  0
  9  7  1  0
 10 11  1  1
 11 12  1  0
 12 16  1  0
 13 12  2  0
 13 14  1  0
 14 15  1  0
 16 15  2  0
 17 18  2  0
 17 10  1  0
 20 22  1  0
 20 19  1  1
 21 20  1  0
 23 22  1  1
 23 25  1  0
 23 24  1  0
 24 17  1  0
 25 26  1  0
 27 25  2  0
M  END
$$$$
