LHL.pdb
     RDKit          3D

 27 27  0  0  1  0  0  0  0  0999 V2000
    7.4362  -11.9788   18.6288 C   0  0  0  0  0  0  0  0  0  0  0  0
    8.3045  -13.2278   18.5599 C   0  0  1  0  0  0  0  0  0  0  0  0
    9.7489  -12.7992   18.3688 C   0  0  0  0  0  0  0  0  0  0  0  0
    8.1006  -14.1236   19.7386 C   0  0  0  0  0  0  0  0  0  0  0  0
    8.9950  -15.3440   19.7162 C   0  0  2  0  0  0  0  0  0  0  0  0
    8.5459  -16.2733   18.6715 N   0  0  0  0  0  0  0  0  0  0  0  0
    8.9985  -16.0625   20.9947 C   0  0  0  0  0  0  0  0  0  0  0  0
    7.8975  -16.4371   21.4707 O   0  0  0  0  0  0  0  0  0  0  0  0
   10.1532  -16.3734   21.7408 N   0  0  0  0  0  0  0  0  0  0  0  0
   10.0651  -17.0642   23.0475 C   0  0  1  0  0  0  0  0  0  0  0  0
   11.2907  -17.9156   23.1915 C   0  0  0  0  0  0  0  0  0  0  0  0
   11.2098  -19.1327   22.3662 C   0  0  0  0  0  0  0  0  0  0  0  0
   10.0266  -19.8201   22.0374 C   0  0  0  0  0  0  0  0  0  0  0  0
   10.3538  -20.8710   21.2859 N   0  0  0  0  0  0  0  0  0  0  0  0
   11.6887  -20.8938   21.1142 C   0  0  0  0  0  0  0  0  0  0  0  0
   12.1765  -19.8354   21.7773 N   0  0  0  0  0  0  0  0  0  0  0  0
    9.9606  -16.0083   24.1056 C   0  0  0  0  0  0  0  0  0  0  0  0
   10.9123  -15.2482   24.4305 O   0  0  0  0  0  0  0  0  0  0  0  0
    8.0975  -12.1936   26.5074 C   0  0  0  0  0  0  0  0  0  0  0  0
    7.0791  -13.2555   26.9268 C   0  0  1  0  0  0  0  0  0  0  0  0
    5.6776  -12.6574   26.8079 C   0  0  0  0  0  0  0  0  0  0  0  0
    7.1862  -14.3895   25.9578 C   0  0  0  0  0  0  0  0  0  0  0  0
    8.5619  -14.9729   25.9480 C   0  0  2  0  0  0  0  0  0  0  0  0
    8.7301  -15.8472   24.7780 N   0  0  0  0  0  0  0  0  0  0  0  0
    8.8671  -15.6796   27.1897 C   0  0  0  0  0  0  0  0  0  0  0  0
    8.7054  -17.0158   27.4093 O   0  0  0  0  0  0  0  0  0  0  0  0
    9.3280  -14.9767   28.1731 O   0  0  0  0  0  0  0  0  0  0  0  0
  2  3  1  1
  2  1  1  0
  4  2  1  0
  4  5  1  0
  5  7  1  0
  5  6  1  6
  7  8  2  0
  9 10  1  0
  9  7  1  0
 10 11  1  1
 11 12  1  0
 12 16  1  0
 13 12  2  0
 13 14  1  0
 14 15  1  0
 16 15  2  0
 17 18  2  0
 17 10  1  0
 20 22  1  0
 20 19  1  6
 21 20  1  0
 23 22  1  1
 23 25  1  0
 23 24  1  0
 24 17  1  0
 25 26  1  0
 27 25  2  0
M  END
$$$$
