LHL.pdb
     RDKit          3D

 27 27  0  0  1  0  0  0  0  0999 V2000
    8.0637  -12.0963   18.5659 C   0  0  0  0  0  0  0  0  0  0  0  0
    8.6355  -13.4962   18.7458 C   0  0  1  0  0  0  0  0  0  0  0  0
    9.9001  -13.3952   19.5808 C   0  0  0  0  0  0  0  0  0  0  0  0
    7.6293  -14.4504   19.3028 C   0  0  0  0  0  0  0  0  0  0  0  0
    8.2396  -15.7623   19.7459 C   0  0  2  0  0  0  0  0  0  0  0  0
    7.9275  -16.8135   18.7690 N   0  0  0  0  0  0  0  0  0  0  0  0
    7.7472  -16.1975   21.0569 C   0  0  0  0  0  0  0  0  0  0  0  0
    6.5296  -16.4865   21.1703 O   0  0  0  0  0  0  0  0  0  0  0  0
    8.5413  -16.3220   22.2148 N   0  0  0  0  0  0  0  0  0  0  0  0
    7.9709  -16.8024   23.4940 C   0  0  1  0  0  0  0  0  0  0  0  0
    8.1831  -18.2854   23.5541 C   0  0  0  0  0  0  0  0  0  0  0  0
    7.6884  -18.8567   24.8182 C   0  0  0  0  0  0  0  0  0  0  0  0
    6.7330  -18.2640   25.6646 C   0  0  0  0  0  0  0  0  0  0  0  0
    6.5485  -19.0706   26.7092 N   0  0  0  0  0  0  0  0  0  0  0  0
    7.3373  -20.1533   26.5771 C   0  0  0  0  0  0  0  0  0  0  0  0
    8.0125  -19.9953   25.4294 N   0  0  0  0  0  0  0  0  0  0  0  0
    8.6681  -16.0681   24.5985 C   0  0  0  0  0  0  0  0  0  0  0  0
    9.9211  -16.0321   24.7315 O   0  0  0  0  0  0  0  0  0  0  0  0
    5.7151  -12.0012   26.8920 C   0  0  0  0  0  0  0  0  0  0  0  0
    6.7842  -12.8498   26.2008 C   0  0  1  0  0  0  0  0  0  0  0  0
    7.8474  -11.9154   25.6242 C   0  0  0  0  0  0  0  0  0  0  0  0
    7.4293  -13.7010   27.2475 C   0  0  0  0  0  0  0  0  0  0  0  0
    8.4631  -14.6046   26.6574 C   0  0  2  0  0  0  0  0  0  0  0  0
    7.8851  -15.3723   25.5446 N   0  0  0  0  0  0  0  0  0  0  0  0
    9.0589  -15.4849   27.6595 C   0  0  0  0  0  0  0  0  0  0  0  0
   10.0724  -15.1562   28.5107 O   0  0  0  0  0  0  0  0  0  0  0  0
    8.5883  -16.6868   27.7468 O   0  0  0  0  0  0  0  0  0  0  0  0
  2  3  1  1
  2  1  1  0
  4  2  1  0
  4  5  1  0
  5  7  1  0
  5  6  1  6
  7  8  2  0
  9 10  1  0
  9  7  1  0
 10 11  1  1
 11 12  1  0
 12 16  1  0
 13 12  2  0
 13 14  1  0
 14 15  1  0
 16 15  2  0
 17 18  2  0
 17 10  1  0
 20 22  1  0
 20 19  1  1
 21 20  1  0
 23 22  1  1
 23 25  1  0
 23 24  1  0
 24 17  1  0
 25 26  1  0
 27 25  2  0
M  END
$$$$
