LHL.pdb
     RDKit          3D

 27 27  0  0  1  0  0  0  0  0999 V2000
    7.2420  -12.3359   18.2296 C   0  0  0  0  0  0  0  0  0  0  0  0
    7.9209  -13.6484   18.5973 C   0  0  1  0  0  0  0  0  0  0  0  0
    9.4167  -13.4047   18.6961 C   0  0  0  0  0  0  0  0  0  0  0  0
    7.3355  -14.2621   19.8277 C   0  0  0  0  0  0  0  0  0  0  0  0
    8.1241  -15.4528   20.3279 C   0  0  2  0  0  0  0  0  0  0  0  0
    7.9331  -16.5940   19.4234 N   0  0  0  0  0  0  0  0  0  0  0  0
    7.7226  -15.8675   21.6760 C   0  0  0  0  0  0  0  0  0  0  0  0
    7.2986  -14.9891   22.4681 O   0  0  0  0  0  0  0  0  0  0  0  0
    7.7721  -17.1904   22.1601 N   0  0  0  0  0  0  0  0  0  0  0  0
    7.4130  -17.5142   23.5596 C   0  0  1  0  0  0  0  0  0  0  0  0
    7.4134  -19.0077   23.6916 C   0  0  0  0  0  0  0  0  0  0  0  0
    7.1777  -19.4327   25.0818 C   0  0  0  0  0  0  0  0  0  0  0  0
    6.9595  -18.5722   26.1738 C   0  0  0  0  0  0  0  0  0  0  0  0
    6.7936  -19.3208   27.2638 N   0  0  0  0  0  0  0  0  0  0  0  0
    6.8937  -20.6204   26.9276 C   0  0  0  0  0  0  0  0  0  0  0  0
    7.1262  -20.6559   25.6075 N   0  0  0  0  0  0  0  0  0  0  0  0
    8.4223  -16.8498   24.4456 C   0  0  0  0  0  0  0  0  0  0  0  0
    9.6684  -16.9553   24.2868 O   0  0  0  0  0  0  0  0  0  0  0  0
    8.0218  -12.1368   27.8720 C   0  0  0  0  0  0  0  0  0  0  0  0
    7.4332  -13.3068   27.0812 C   0  0  1  0  0  0  0  0  0  0  0  0
    6.2226  -12.8018   26.2966 C   0  0  0  0  0  0  0  0  0  0  0  0
    8.4703  -13.7550   26.1015 C   0  0  0  0  0  0  0  0  0  0  0  0
    8.8397  -15.1875   26.3125 C   0  0  2  0  0  0  0  0  0  0  0  0
    7.9599  -16.0571   25.5179 N   0  0  0  0  0  0  0  0  0  0  0  0
    8.8193  -15.5570   27.7257 C   0  0  0  0  0  0  0  0  0  0  0  0
    9.8532  -15.4158   28.6037 O   0  0  0  0  0  0  0  0  0  0  0  0
    7.7249  -16.0689   28.1882 O   0  0  0  0  0  0  0  0  0  0  0  0
  2  3  1  1
  2  1  1  0
  4  2  1  0
  4  5  1  0
  5  7  1  0
  5  6  1  6
  7  8  2  0
  9 10  1  0
  9  7  1  0
 10 11  1  6
 11 12  1  0
 12 16  1  0
 13 12  2  0
 13 14  1  0
 14 15  1  0
 16 15  2  0
 17 18  2  0
 17 10  1  0
 20 22  1  0
 20 19  1  6
 21 20  1  0
 23 22  1  1
 23 25  1  0
 23 24  1  0
 24 17  1  0
 25 26  1  0
 27 25  2  0
M  END
$$$$
