LHL.pdb
     RDKit          3D

 27 27  0  0  1  0  0  0  0  0999 V2000
    6.9631  -12.0175   19.6310 C   0  0  0  0  0  0  0  0  0  0  0  0
    7.5849  -13.3810   19.3603 C   0  0  1  0  0  0  0  0  0  0  0  0
    8.8424  -13.1800   18.5327 C   0  0  0  0  0  0  0  0  0  0  0  0
    7.8171  -14.1557   20.6170 C   0  0  0  0  0  0  0  0  0  0  0  0
    8.4108  -15.5250   20.3669 C   0  0  2  0  0  0  0  0  0  0  0  0
    7.4174  -16.3887   19.7158 N   0  0  0  0  0  0  0  0  0  0  0  0
    8.8471  -16.1833   21.6026 C   0  0  0  0  0  0  0  0  0  0  0  0
    8.0068  -16.8612   22.2454 O   0  0  0  0  0  0  0  0  0  0  0  0
   10.1515  -16.1180   22.1328 N   0  0  0  0  0  0  0  0  0  0  0  0
   10.5254  -16.8622   23.3570 C   0  0  1  0  0  0  0  0  0  0  0  0
   11.9094  -17.4011   23.1526 C   0  0  0  0  0  0  0  0  0  0  0  0
   11.9149  -18.5615   22.2457 C   0  0  0  0  0  0  0  0  0  0  0  0
   12.2700  -18.5332   20.8842 C   0  0  0  0  0  0  0  0  0  0  0  0
   12.1452  -19.7678   20.3982 N   0  0  0  0  0  0  0  0  0  0  0  0
   11.7278  -20.5894   21.3794 C   0  0  0  0  0  0  0  0  0  0  0  0
   11.5970  -19.8340   22.4794 N   0  0  0  0  0  0  0  0  0  0  0  0
   10.4355  -15.9058   24.5069 C   0  0  0  0  0  0  0  0  0  0  0  0
   10.6117  -14.6625   24.3969 O   0  0  0  0  0  0  0  0  0  0  0  0
    6.5924  -13.3180   26.2076 C   0  0  0  0  0  0  0  0  0  0  0  0
    8.0557  -13.7503   26.0945 C   0  0  1  0  0  0  0  0  0  0  0  0
    8.8664  -12.9997   27.1504 C   0  0  0  0  0  0  0  0  0  0  0  0
    8.1190  -15.2110   26.4089 C   0  0  0  0  0  0  0  0  0  0  0  0
    9.4902  -15.6189   26.8408 C   0  0  2  0  0  0  0  0  0  0  0  0
   10.1337  -16.4175   25.7873 N   0  0  0  0  0  0  0  0  0  0  0  0
    9.4745  -16.3321   28.1157 C   0  0  0  0  0  0  0  0  0  0  0  0
    9.1058  -17.6321   28.2996 O   0  0  0  0  0  0  0  0  0  0  0  0
    9.8378  -15.6727   29.1677 O   0  0  0  0  0  0  0  0  0  0  0  0
  2  3  1  1
  2  1  1  0
  4  2  1  0
  4  5  1  0
  5  7  1  0
  5  6  1  1
  7  8  2  0
  9 10  1  0
  9  7  1  0
 10 11  1  6
 11 12  1  0
 12 16  1  0
 13 12  2  0
 13 14  1  0
 14 15  1  0
 16 15  2  0
 17 18  2  0
 17 10  1  0
 20 22  1  0
 20 19  1  1
 21 20  1  0
 23 22  1  6
 23 25  1  0
 23 24  1  0
 24 17  1  0
 25 26  1  0
 27 25  2  0
M  END
$$$$
