LHL.pdb
     RDKit          3D

 27 27  0  0  1  0  0  0  0  0999 V2000
    7.4721  -11.9361   18.7419 C   0  0  0  0  0  0  0  0  0  0  0  0
    8.1140  -13.3058   18.9170 C   0  0  1  0  0  0  0  0  0  0  0  0
    9.6083  -13.1151   19.1106 C   0  0  0  0  0  0  0  0  0  0  0  0
    7.4687  -14.0969   20.0084 C   0  0  0  0  0  0  0  0  0  0  0  0
    8.3073  -15.2716   20.4631 C   0  0  2  0  0  0  0  0  0  0  0  0
    8.1341  -16.3975   19.5362 N   0  0  0  0  0  0  0  0  0  0  0  0
    7.9500  -15.7303   21.8094 C   0  0  0  0  0  0  0  0  0  0  0  0
    6.9916  -15.1677   22.3959 O   0  0  0  0  0  0  0  0  0  0  0  0
    8.6020  -16.7674   22.5066 N   0  0  0  0  0  0  0  0  0  0  0  0
    8.1414  -17.2078   23.8430 C   0  0  1  0  0  0  0  0  0  0  0  0
    8.4638  -18.6662   23.9736 C   0  0  0  0  0  0  0  0  0  0  0  0
    7.5161  -19.5043   23.2196 C   0  0  0  0  0  0  0  0  0  0  0  0
    6.3945  -19.0349   22.5109 C   0  0  0  0  0  0  0  0  0  0  0  0
    5.7796  -20.0847   21.9671 N   0  0  0  0  0  0  0  0  0  0  0  0
    6.4498  -21.2064   22.2902 C   0  0  0  0  0  0  0  0  0  0  0  0
    7.4898  -20.8250   23.0458 N   0  0  0  0  0  0  0  0  0  0  0  0
    8.8446  -16.3614   24.8600 C   0  0  0  0  0  0  0  0  0  0  0  0
   10.0505  -16.0076   24.7610 O   0  0  0  0  0  0  0  0  0  0  0  0
    6.0468  -12.5013   27.3035 C   0  0  0  0  0  0  0  0  0  0  0  0
    7.1665  -13.3086   26.6436 C   0  0  1  0  0  0  0  0  0  0  0  0
    8.2694  -12.3436   26.2096 C   0  0  0  0  0  0  0  0  0  0  0  0
    7.7309  -14.2264   27.6805 C   0  0  0  0  0  0  0  0  0  0  0  0
    8.7323  -15.1668   27.0923 C   0  0  2  0  0  0  0  0  0  0  0  0
    8.1224  -15.9293   25.9930 N   0  0  0  0  0  0  0  0  0  0  0  0
    9.3101  -16.0534   28.0995 C   0  0  0  0  0  0  0  0  0  0  0  0
    9.1101  -17.3995   28.1885 O   0  0  0  0  0  0  0  0  0  0  0  0
   10.0774  -15.5157   28.9915 O   0  0  0  0  0  0  0  0  0  0  0  0
  2  3  1  1
  2  1  1  0
  4  2  1  0
  4  5  1  0
  5  7  1  0
  5  6  1  6
  7  8  2  0
  9 10  1  0
  9  7  1  0
 10 11  1  1
 11 12  1  0
 12 16  1  0
 13 12  2  0
 13 14  1  0
 14 15  1  0
 16 15  2  0
 17 18  2  0
 17 10  1  0
 20 22  1  0
 20 19  1  1
 21 20  1  0
 23 22  1  1
 23 25  1  0
 23 24  1  0
 24 17  1  0
 25 26  1  0
 27 25  2  0
M  END
$$$$
