LHL.pdb
     RDKit          3D

 27 27  0  0  1  0  0  0  0  0999 V2000
    8.2390  -12.0942   18.9532 C   0  0  0  0  0  0  0  0  0  0  0  0
    8.6067  -13.5685   19.0539 C   0  0  1  0  0  0  0  0  0  0  0  0
    9.8331  -13.6987   19.9402 C   0  0  0  0  0  0  0  0  0  0  0  0
    7.4555  -14.4086   19.5038 C   0  0  0  0  0  0  0  0  0  0  0  0
    7.8550  -15.8290   19.8397 C   0  0  2  0  0  0  0  0  0  0  0  0
    7.2798  -16.7554   18.8560 N   0  0  0  0  0  0  0  0  0  0  0  0
    7.4024  -16.2405   21.1726 C   0  0  0  0  0  0  0  0  0  0  0  0
    6.1678  -16.2508   21.4058 O   0  0  0  0  0  0  0  0  0  0  0  0
    8.2524  -16.6333   22.2261 N   0  0  0  0  0  0  0  0  0  0  0  0
    7.7134  -17.0152   23.5513 C   0  0  1  0  0  0  0  0  0  0  0  0
    7.9198  -18.4912   23.7143 C   0  0  0  0  0  0  0  0  0  0  0  0
    7.4383  -18.9685   25.0217 C   0  0  0  0  0  0  0  0  0  0  0  0
    6.6946  -18.2106   25.9453 C   0  0  0  0  0  0  0  0  0  0  0  0
    6.4511  -18.9766   27.0083 N   0  0  0  0  0  0  0  0  0  0  0  0
    7.0007  -20.1900   26.8146 C   0  0  0  0  0  0  0  0  0  0  0  0
    7.5891  -20.1542   25.6102 N   0  0  0  0  0  0  0  0  0  0  0  0
    8.4427  -16.2068   24.5807 C   0  0  0  0  0  0  0  0  0  0  0  0
    9.6992  -16.1595   24.6703 O   0  0  0  0  0  0  0  0  0  0  0  0
    5.6111  -11.8478   26.6205 C   0  0  0  0  0  0  0  0  0  0  0  0
    6.6620  -12.7412   25.9583 C   0  0  1  0  0  0  0  0  0  0  0  0
    7.7713  -11.8519   25.3978 C   0  0  0  0  0  0  0  0  0  0  0  0
    7.2525  -13.6077   27.0245 C   0  0  0  0  0  0  0  0  0  0  0  0
    8.2945  -14.5242   26.4702 C   0  0  2  0  0  0  0  0  0  0  0  0
    7.6878  -15.4505   25.5029 N   0  0  0  0  0  0  0  0  0  0  0  0
    9.0079  -15.2442   27.5223 C   0  0  0  0  0  0  0  0  0  0  0  0
   10.1089  -14.7971   28.1915 O   0  0  0  0  0  0  0  0  0  0  0  0
    8.5605  -16.4136   27.8476 O   0  0  0  0  0  0  0  0  0  0  0  0
  2  3  1  1
  2  1  1  0
  4  2  1  0
  4  5  1  0
  5  7  1  0
  5  6  1  6
  7  8  2  0
  9 10  1  0
  9  7  1  0
 10 11  1  1
 11 12  1  0
 12 16  1  0
 13 12  2  0
 13 14  1  0
 14 15  1  0
 16 15  2  0
 17 18  2  0
 17 10  1  0
 20 22  1  0
 20 19  1  1
 21 20  1  0
 23 22  1  1
 23 25  1  0
 23 24  1  0
 24 17  1  0
 25 26  1  0
 27 25  2  0
M  END
$$$$
