ASY.pdb
     RDKit          3D

 24 24  0  0  1  0  0  0  0  0999 V2000
    8.0357  -12.0819   19.5726 C   0  0  0  0  0  0  0  0  0  0  0  0
    8.5440  -13.3645   18.9106 C   0  0  2  0  0  0  0  0  0  0  0  0
    7.8771  -13.4957   17.6551 N   0  0  0  0  0  0  0  0  0  0  0  0
    8.1702  -14.5333   19.7948 C   0  0  0  0  0  0  0  0  0  0  0  0
    7.3180  -15.3699   19.4335 O   0  0  0  0  0  0  0  0  0  0  0  0
   10.3805  -17.1766   20.7094 O   0  0  0  0  0  0  0  0  0  0  0  0
    9.0540  -17.0967   21.1210 C   0  0  0  0  0  0  0  0  0  0  0  0
    8.7326  -15.8391   21.8414 C   0  0  2  0  0  0  0  0  0  0  0  0
    8.8107  -14.6607   21.0497 N   0  0  0  0  0  0  0  0  0  0  0  0
    9.4539  -15.7799   23.1392 C   0  0  0  0  0  0  0  0  0  0  0  0
   10.5321  -15.1871   23.3498 O   0  0  0  0  0  0  0  0  0  0  0  0
    6.0863  -11.1290   26.5836 O   0  0  0  0  0  0  0  0  0  0  0  0
    6.6755  -12.3906   26.6097 C   0  0  0  0  0  0  0  0  0  0  0  0
    6.1023  -13.4014   25.8801 C   0  0  0  0  0  0  0  0  0  0  0  0
    6.6516  -14.6719   25.8747 C   0  0  0  0  0  0  0  0  0  0  0  0
    7.7929  -14.9307   26.6127 C   0  0  0  0  0  0  0  0  0  0  0  0
    8.3641  -16.2946   26.5938 C   0  0  0  0  0  0  0  0  0  0  0  0
    9.5043  -16.3968   25.5788 C   0  0  2  0  0  0  0  0  0  0  0  0
    8.8865  -16.4468   24.2511 N   0  0  0  0  0  0  0  0  0  0  0  0
   10.3595  -17.5543   25.8316 C   0  0  0  0  0  0  0  0  0  0  0  0
   10.4266  -18.5942   24.9277 O   0  0  0  0  0  0  0  0  0  0  0  0
    8.3540  -13.9032   27.3389 C   0  0  0  0  0  0  0  0  0  0  0  0
    7.8026  -12.6546   27.3359 C   0  0  0  0  0  0  0  0  0  0  0  0
   11.0446  -17.6194   26.8732 O   0  0  0  0  0  0  0  0  0  0  0  0
  2  1  1  1
  2  3  1  0
  4  2  1  0
  4  9  1  0
  5  4  2  0
  6  7  1  0
  8 10  1  0
  8  7  1  6
  8  9  1  0
 10 19  1  0
 11 10  2  0
 13 12  1  0
 14 13  2  0
 15 14  1  0
 16 22  1  0
 16 15  2  0
 17 16  1  0
 18 17  1  1
 19 18  1  0
 20 18  1  0
 21 20  1  0
 22 23  2  0
 23 13  1  0
 24 20  2  0
M  END
$$$$
