ASY.pdb
     RDKit          3D

 24 24  0  0  1  0  0  0  0  0999 V2000
    7.2853  -12.4086   19.2906 C   0  0  0  0  0  0  0  0  0  0  0  0
    8.5370  -13.2395   19.5819 C   0  0  2  0  0  0  0  0  0  0  0  0
    8.7226  -14.1382   18.4883 N   0  0  0  0  0  0  0  0  0  0  0  0
    8.2919  -14.0377   20.8431 C   0  0  0  0  0  0  0  0  0  0  0  0
    8.0771  -13.4718   21.9341 O   0  0  0  0  0  0  0  0  0  0  0  0
    8.8759  -18.3358   20.9535 O   0  0  0  0  0  0  0  0  0  0  0  0
    7.7600  -17.7165   21.5073 C   0  0  0  0  0  0  0  0  0  0  0  0
    7.9872  -16.2924   21.8596 C   0  0  2  0  0  0  0  0  0  0  0  0
    8.3109  -15.4498   20.7611 N   0  0  0  0  0  0  0  0  0  0  0  0
    8.8930  -16.1810   23.0324 C   0  0  0  0  0  0  0  0  0  0  0  0
   10.1072  -15.8939   22.9935 O   0  0  0  0  0  0  0  0  0  0  0  0
    6.0118  -10.7763   25.9662 O   0  0  0  0  0  0  0  0  0  0  0  0
    6.5149  -12.0641   26.1330 C   0  0  0  0  0  0  0  0  0  0  0  0
    7.8448  -12.2189   26.4331 C   0  0  0  0  0  0  0  0  0  0  0  0
    8.3905  -13.4789   26.6081 C   0  0  0  0  0  0  0  0  0  0  0  0
    7.5891  -14.5993   26.4797 C   0  0  0  0  0  0  0  0  0  0  0  0
    8.1913  -15.9364   26.6705 C   0  0  0  0  0  0  0  0  0  0  0  0
    9.1598  -16.2680   25.5335 C   0  0  2  0  0  0  0  0  0  0  0  0
    8.3531  -16.4161   24.3194 N   0  0  0  0  0  0  0  0  0  0  0  0
    9.9492  -17.4641   25.8189 C   0  0  0  0  0  0  0  0  0  0  0  0
   10.9816  -17.4277   26.7332 O   0  0  0  0  0  0  0  0  0  0  0  0
    6.2563  -14.4238   26.1781 C   0  0  0  0  0  0  0  0  0  0  0  0
    5.7302  -13.1759   26.0080 C   0  0  0  0  0  0  0  0  0  0  0  0
    9.7001  -18.5404   25.2375 O   0  0  0  0  0  0  0  0  0  0  0  0
  2  1  1  6
  2  3  1  0
  4  2  1  0
  4  9  1  0
  5  4  2  0
  6  7  1  0
  8 10  1  0
  8  7  1  6
  8  9  1  0
 10 19  1  0
 11 10  2  0
 13 12  1  0
 14 13  2  0
 15 14  1  0
 16 22  1  0
 16 15  2  0
 17 16  1  0
 18 17  1  1
 19 18  1  0
 20 18  1  0
 21 20  1  0
 22 23  2  0
 23 13  1  0
 24 20  2  0
M  END
$$$$
