ASY.pdb
     RDKit          3D

 24 24  0  0  1  0  0  0  0  0999 V2000
    7.1460  -13.5094   20.8007 C   0  0  0  0  0  0  0  0  0  0  0  0
    7.3495  -14.9681   20.3851 C   0  0  2  0  0  0  0  0  0  0  0  0
    6.0629  -15.5216   20.1088 N   0  0  0  0  0  0  0  0  0  0  0  0
    7.9683  -15.7096   21.5491 C   0  0  0  0  0  0  0  0  0  0  0  0
    7.2679  -16.1342   22.4903 O   0  0  0  0  0  0  0  0  0  0  0  0
   12.2988  -15.8729   22.1469 O   0  0  0  0  0  0  0  0  0  0  0  0
   11.4525  -16.9681   22.2868 C   0  0  0  0  0  0  0  0  0  0  0  0
   10.0490  -16.5959   22.5957 C   0  0  2  0  0  0  0  0  0  0  0  0
    9.3682  -15.9141   21.5502 N   0  0  0  0  0  0  0  0  0  0  0  0
    9.9592  -15.9558   23.9337 C   0  0  0  0  0  0  0  0  0  0  0  0
    9.6142  -14.7774   24.1586 O   0  0  0  0  0  0  0  0  0  0  0  0
    6.1645  -11.2092   26.4686 O   0  0  0  0  0  0  0  0  0  0  0  0
    6.6647  -12.5085   26.4380 C   0  0  0  0  0  0  0  0  0  0  0  0
    7.8963  -12.7543   26.9906 C   0  0  0  0  0  0  0  0  0  0  0  0
    8.4350  -14.0293   26.9841 C   0  0  0  0  0  0  0  0  0  0  0  0
    7.7266  -15.0722   26.4143 C   0  0  0  0  0  0  0  0  0  0  0  0
    8.3196  -16.4269   26.4175 C   0  0  0  0  0  0  0  0  0  0  0  0
    9.8479  -16.3558   26.4161 C   0  0  2  0  0  0  0  0  0  0  0  0
   10.2883  -16.7323   25.0703 N   0  0  0  0  0  0  0  0  0  0  0  0
   10.4361  -17.2088   27.4463 C   0  0  0  0  0  0  0  0  0  0  0  0
   10.4221  -16.8276   28.7721 O   0  0  0  0  0  0  0  0  0  0  0  0
    6.4917  -14.8060   25.8645 C   0  0  0  0  0  0  0  0  0  0  0  0
    5.9715  -13.5442   25.8772 C   0  0  0  0  0  0  0  0  0  0  0  0
   10.9618  -18.2992   27.1409 O   0  0  0  0  0  0  0  0  0  0  0  0
  2  1  1  1
  2  3  1  0
  4  2  1  0
  4  9  1  0
  5  4  2  0
  6  7  1  0
  8 10  1  0
  8  7  1  6
  8  9  1  0
 10 19  1  0
 11 10  2  0
 13 12  1  0
 14 13  2  0
 15 14  1  0
 16 22  1  0
 16 15  2  0
 17 16  1  0
 18 17  1  6
 19 18  1  0
 20 18  1  0
 21 20  1  0
 22 23  2  0
 23 13  1  0
 24 20  2  0
M  END
$$$$
