ASY.pdb
     RDKit          3D

 24 24  0  0  1  0  0  0  0  0999 V2000
   12.1556  -24.8874   15.4985 C   0  0  0  0  0  0  0  0  0  0  0  0
   11.9012  -23.3784   15.5065 C   0  0  2  0  0  0  0  0  0  0  0  0
   12.4433  -22.8429   14.2992 N   0  0  0  0  0  0  0  0  0  0  0  0
   12.6350  -22.7813   16.6867 C   0  0  0  0  0  0  0  0  0  0  0  0
   13.8755  -22.8688   16.7874 O   0  0  0  0  0  0  0  0  0  0  0  0
   10.5431  -20.4264   19.7504 O   0  0  0  0  0  0  0  0  0  0  0  0
   11.8513  -20.2785   19.3008 C   0  0  0  0  0  0  0  0  0  0  0  0
   12.4685  -21.5500   18.8468 C   0  0  2  0  0  0  0  0  0  0  0  0
   11.8814  -22.1163   17.6823 N   0  0  0  0  0  0  0  0  0  0  0  0
   12.6413  -22.4854   19.9885 C   0  0  0  0  0  0  0  0  0  0  0  0
   11.9704  -23.5175   20.1958 O   0  0  0  0  0  0  0  0  0  0  0  0
   19.7126  -21.7888   19.7659 O   0  0  0  0  0  0  0  0  0  0  0  0
   18.5396  -22.3675   20.2441 C   0  0  0  0  0  0  0  0  0  0  0  0
   17.6056  -22.8081   19.3407 C   0  0  0  0  0  0  0  0  0  0  0  0
   16.4246  -23.3899   19.7682 C   0  0  0  0  0  0  0  0  0  0  0  0
   16.1783  -23.5311   21.1223 C   0  0  0  0  0  0  0  0  0  0  0  0
   14.9105  -24.1552   21.5584 C   0  0  0  0  0  0  0  0  0  0  0  0
   13.9257  -23.0992   22.0640 C   0  0  2  0  0  0  0  0  0  0  0  0
   13.6514  -22.2022   20.9385 N   0  0  0  0  0  0  0  0  0  0  0  0
   14.4432  -22.3810   23.2266 C   0  0  0  0  0  0  0  0  0  0  0  0
   14.6605  -21.0196   23.1769 O   0  0  0  0  0  0  0  0  0  0  0  0
   17.1279  -23.0828   22.0141 C   0  0  0  0  0  0  0  0  0  0  0  0
   18.2886  -22.5108   21.5798 C   0  0  0  0  0  0  0  0  0  0  0  0
   14.6972  -22.9910   24.2858 O   0  0  0  0  0  0  0  0  0  0  0  0
  2  1  1  6
  2  3  1  0
  4  2  1  0
  4  9  1  0
  5  4  2  0
  6  7  1  0
  8 10  1  0
  8  7  1  1
  8  9  1  0
 10 19  1  0
 11 10  2  0
 13 12  1  0
 14 13  2  0
 15 14  1  0
 16 22  1  0
 16 15  2  0
 17 16  1  0
 18 17  1  6
 19 18  1  0
 20 18  1  0
 21 20  1  0
 22 23  2  0
 23 13  1  0
 24 20  2  0
M  END
$$$$
