ASY.pdb
     RDKit          3D

 24 24  0  0  1  0  0  0  0  0999 V2000
    8.2680  -12.3148   19.3153 C   0  0  0  0  0  0  0  0  0  0  0  0
    8.1110  -13.6925   18.6680 C   0  0  2  0  0  0  0  0  0  0  0  0
    6.8324  -13.7284   18.0340 N   0  0  0  0  0  0  0  0  0  0  0  0
    8.1513  -14.7364   19.7618 C   0  0  0  0  0  0  0  0  0  0  0  0
    7.1575  -14.9535   20.4843 O   0  0  0  0  0  0  0  0  0  0  0  0
   10.1292  -18.7341   21.4491 O   0  0  0  0  0  0  0  0  0  0  0  0
   10.0987  -17.7385   20.4780 C   0  0  0  0  0  0  0  0  0  0  0  0
    9.4907  -16.4693   20.9504 C   0  0  2  0  0  0  0  0  0  0  0  0
    9.3472  -15.4678   19.9515 N   0  0  0  0  0  0  0  0  0  0  0  0
   10.1332  -16.0185   22.2123 C   0  0  0  0  0  0  0  0  0  0  0  0
   11.2225  -15.4156   22.3031 O   0  0  0  0  0  0  0  0  0  0  0  0
   10.7609  -14.6809   30.9177 O   0  0  0  0  0  0  0  0  0  0  0  0
   10.3041  -14.8714   29.6160 C   0  0  0  0  0  0  0  0  0  0  0  0
    9.9998  -16.1441   29.2034 C   0  0  0  0  0  0  0  0  0  0  0  0
    9.5424  -16.3831   27.9190 C   0  0  0  0  0  0  0  0  0  0  0  0
    9.3885  -15.3287   27.0365 C   0  0  0  0  0  0  0  0  0  0  0  0
    8.8987  -15.6050   25.6688 C   0  0  0  0  0  0  0  0  0  0  0  0
   10.0594  -15.9292   24.7264 C   0  0  2  0  0  0  0  0  0  0  0  0
    9.4689  -16.2843   23.4334 N   0  0  0  0  0  0  0  0  0  0  0  0
   10.9108  -16.9935   25.2534 C   0  0  0  0  0  0  0  0  0  0  0  0
   12.1088  -16.6995   25.8710 O   0  0  0  0  0  0  0  0  0  0  0  0
    9.6992  -14.0580   27.4690 C   0  0  0  0  0  0  0  0  0  0  0  0
   10.1494  -13.8355   28.7381 C   0  0  0  0  0  0  0  0  0  0  0  0
   10.5654  -18.1889   25.1521 O   0  0  0  0  0  0  0  0  0  0  0  0
  2  1  1  1
  2  3  1  0
  4  2  1  0
  4  9  1  0
  5  4  2  0
  6  7  1  0
  8 10  1  0
  8  7  1  6
  8  9  1  0
 10 19  1  0
 11 10  2  0
 13 12  1  0
 14 13  2  0
 15 14  1  0
 16 22  1  0
 16 15  2  0
 17 16  1  0
 18 17  1  1
 19 18  1  0
 20 18  1  0
 21 20  1  0
 22 23  2  0
 23 13  1  0
 24 20  2  0
M  END
$$$$
