ASY.pdb
     RDKit          3D

 24 24  0  0  1  0  0  0  0  0999 V2000
    7.5165  -20.0825   21.8558 C   0  0  0  0  0  0  0  0  0  0  0  0
    7.0675  -19.1808   20.7038 C   0  0  2  0  0  0  0  0  0  0  0  0
    6.9422  -19.9979   19.5398 N   0  0  0  0  0  0  0  0  0  0  0  0
    8.1430  -18.1440   20.4679 C   0  0  0  0  0  0  0  0  0  0  0  0
    8.8148  -18.1377   19.4165 O   0  0  0  0  0  0  0  0  0  0  0  0
    6.9059  -14.7469   20.6580 O   0  0  0  0  0  0  0  0  0  0  0  0
    8.1880  -15.0718   20.2269 C   0  0  0  0  0  0  0  0  0  0  0  0
    8.9465  -15.9006   21.1972 C   0  0  2  0  0  0  0  0  0  0  0  0
    8.3747  -17.1733   21.4706 N   0  0  0  0  0  0  0  0  0  0  0  0
    9.3146  -15.1006   22.3942 C   0  0  0  0  0  0  0  0  0  0  0  0
    8.8878  -13.9606   22.6710 O   0  0  0  0  0  0  0  0  0  0  0  0
    5.8927  -11.3029   27.0061 O   0  0  0  0  0  0  0  0  0  0  0  0
    6.5551  -12.4151   26.4927 C   0  0  0  0  0  0  0  0  0  0  0  0
    5.8192  -13.5217   26.1514 C   0  0  0  0  0  0  0  0  0  0  0  0
    6.4330  -14.6509   25.6372 C   0  0  0  0  0  0  0  0  0  0  0  0
    7.8055  -14.6686   25.4635 C   0  0  0  0  0  0  0  0  0  0  0  0
    8.4420  -15.8846   24.9129 C   0  0  0  0  0  0  0  0  0  0  0  0
    9.9514  -15.6898   24.7568 C   0  0  2  0  0  0  0  0  0  0  0  0
   10.2284  -15.6610   23.3183 N   0  0  0  0  0  0  0  0  0  0  0  0
   10.7113  -16.7325   25.4427 C   0  0  0  0  0  0  0  0  0  0  0  0
   11.1999  -17.8216   24.7510 O   0  0  0  0  0  0  0  0  0  0  0  0
    8.5274  -13.5481   25.8119 C   0  0  0  0  0  0  0  0  0  0  0  0
    7.9102  -12.4409   26.3179 C   0  0  0  0  0  0  0  0  0  0  0  0
   10.9302  -16.6530   26.6691 O   0  0  0  0  0  0  0  0  0  0  0  0
  2  1  1  1
  2  3  1  0
  4  2  1  0
  4  9  1  0
  5  4  2  0
  6  7  1  0
  8 10  1  0
  8  7  1  1
  8  9  1  0
 10 19  1  0
 11 10  2  0
 13 12  1  0
 14 13  2  0
 15 14  1  0
 16 22  1  0
 16 15  2  0
 17 16  1  0
 18 17  1  6
 19 18  1  0
 20 18  1  0
 21 20  1  0
 22 23  2  0
 23 13  1  0
 24 20  2  0
M  END
$$$$
