ASY.pdb
     RDKit          3D

 24 24  0  0  1  0  0  0  0  0999 V2000
   20.1107  -13.4503   13.0225 C   0  0  0  0  0  0  0  0  0  0  0  0
   20.5339  -12.0497   13.4709 C   0  0  2  0  0  0  0  0  0  0  0  0
   21.6187  -11.6394   12.6384 N   0  0  0  0  0  0  0  0  0  0  0  0
   21.0134  -12.1362   14.9027 C   0  0  0  0  0  0  0  0  0  0  0  0
   20.2444  -12.4843   15.8215 O   0  0  0  0  0  0  0  0  0  0  0  0
   25.1487  -11.2607   15.8421 O   0  0  0  0  0  0  0  0  0  0  0  0
   24.3581  -12.1525   16.5598 C   0  0  0  0  0  0  0  0  0  0  0  0
   22.9078  -11.8424   16.4949 C   0  0  2  0  0  0  0  0  0  0  0  0
   22.3618  -11.8123   15.1825 N   0  0  0  0  0  0  0  0  0  0  0  0
   22.5853  -10.6655   17.3429 C   0  0  0  0  0  0  0  0  0  0  0  0
   22.4941   -9.4843   16.9496 O   0  0  0  0  0  0  0  0  0  0  0  0
   19.3873   -4.7021   22.3785 O   0  0  0  0  0  0  0  0  0  0  0  0
   19.7460   -5.7689   21.5584 C   0  0  0  0  0  0  0  0  0  0  0  0
   19.3495   -7.0342   21.9108 C   0  0  0  0  0  0  0  0  0  0  0  0
   19.6820   -8.1258   21.1273 C   0  0  0  0  0  0  0  0  0  0  0  0
   20.4233   -7.9438   19.9734 C   0  0  0  0  0  0  0  0  0  0  0  0
   20.7681   -9.1229   19.1502 C   0  0  0  0  0  0  0  0  0  0  0  0
   22.0662   -9.7700   19.6370 C   0  0  2  0  0  0  0  0  0  0  0  0
   22.3559  -10.8781   18.7232 N   0  0  0  0  0  0  0  0  0  0  0  0
   21.9689  -10.2133   21.0259 C   0  0  0  0  0  0  0  0  0  0  0  0
   22.1737   -9.3299   22.0656 O   0  0  0  0  0  0  0  0  0  0  0  0
   20.8123   -6.6659   19.6359 C   0  0  0  0  0  0  0  0  0  0  0  0
   20.4780   -5.5977   20.4170 C   0  0  0  0  0  0  0  0  0  0  0  0
   21.6980  -11.4023   21.2932 O   0  0  0  0  0  0  0  0  0  0  0  0
  2  1  1  6
  2  3  1  0
  4  2  1  0
  4  9  1  0
  5  4  2  0
  6  7  1  0
  8 10  1  0
  8  7  1  6
  8  9  1  0
 10 19  1  0
 11 10  2  0
 13 12  1  0
 14 13  2  0
 15 14  1  0
 16 22  1  0
 16 15  2  0
 17 16  1  0
 18 17  1  6
 19 18  1  0
 20 18  1  0
 21 20  1  0
 22 23  2  0
 23 13  1  0
 24 20  2  0
M  END
$$$$
