YRH.pdb
     RDKit          3D

 34 35  0  0  1  0  0  0  0  0999 V2000
   14.7362  -25.0971    2.8950 O   0  0  0  0  0  0  0  0  0  0  0  0
   15.4957  -23.9975    3.2703 C   0  0  0  0  0  0  0  0  0  0  0  0
   14.9693  -23.1825    4.2719 C   0  0  0  0  0  0  0  0  0  0  0  0
   15.7305  -22.0754    4.6522 C   0  0  0  0  0  0  0  0  0  0  0  0
   16.9386  -21.8059    4.0655 C   0  0  0  0  0  0  0  0  0  0  0  0
   17.7192  -20.6346    4.4857 C   0  0  0  0  0  0  0  0  0  0  0  0
   17.1803  -19.3972    3.7652 C   0  0  2  0  0  0  0  0  0  0  0  0
   17.4069  -19.4772    2.3358 N   0  0  0  0  0  0  0  0  0  0  0  0
   17.7781  -18.1732    4.3236 C   0  0  0  0  0  0  0  0  0  0  0  0
   18.8933  -17.7924    3.8927 O   0  0  0  0  0  0  0  0  0  0  0  0
   17.4148  -22.6353    3.0856 C   0  0  0  0  0  0  0  0  0  0  0  0
   16.6920  -23.7581    2.6672 C   0  0  0  0  0  0  0  0  0  0  0  0
   16.5708  -13.0669    9.8627 N   0  0  0  0  0  0  0  0  0  0  0  0
   16.7571  -11.8363    9.1679 C   0  0  0  0  0  0  0  0  0  0  0  0
   17.1655  -10.8017    9.7852 N   0  0  0  0  0  0  0  0  0  0  0  0
   16.4721  -11.7982    7.7583 N   0  0  0  0  0  0  0  0  0  0  0  0
   15.9494  -12.9806    7.1269 C   0  0  0  0  0  0  0  0  0  0  0  0
   17.0113  -14.0012    6.8851 C   0  0  0  0  0  0  0  0  0  0  0  0
   16.6262  -15.2503    6.2047 C   0  0  0  0  0  0  0  0  0  0  0  0
   17.6728  -16.2728    5.9653 C   0  0  2  0  0  0  0  0  0  0  0  0
   17.0944  -17.4539    5.3254 N   0  0  0  0  0  0  0  0  0  0  0  0
   18.5181  -16.6720    7.0733 C   0  0  0  0  0  0  0  0  0  0  0  0
   18.4638  -17.8217    7.5522 O   0  0  0  0  0  0  0  0  0  0  0  0
   17.3254   -9.8778    9.3547 N   0  0  0  0  0  0  0  0  0  0  0  0
   19.4317  -15.7461    7.6374 C   0  0  2  0  0  0  0  0  0  0  0  0
   20.3287  -16.1385    8.7325 C   0  0  0  0  0  0  0  0  0  0  0  0
   21.2755  -17.1809    8.2209 C   0  0  0  0  0  0  0  0  0  0  0  0
   22.2625  -17.6197    9.2372 C   0  0  0  0  0  0  0  0  0  0  0  0
   22.3645  -17.1992   10.5589 N   0  0  0  0  0  0  0  0  0  0  0  0
   23.3780  -17.8160   11.1706 C   0  0  0  0  0  0  0  0  0  0  0  0
   23.9285  -18.6304   10.2514 N   0  0  0  0  0  0  0  0  0  0  0  0
   23.2713  -18.5220    9.0935 C   0  0  0  0  0  0  0  0  0  0  0  0
   21.0988  -14.9728    9.2058 O   0  0  0  0  0  0  0  0  0  0  0  0
   21.9002  -14.9956   10.3274 O   0  0  0  0  0  0  0  0  0  0  0  0
  2  3  2  0
  2  1  1  0
  4  3  1  0
  5  4  2  0
  6  7  1  0
  6  5  1  0
  7  9  1  0
  7  8  1  6
  9 10  2  0
 11  5  1  0
 11 12  2  0
 12  2  1  0
 13 14  1  0
 14 15  2  0
 16 17  1  0
 16 14  1  0
 18 17  1  0
 19 18  1  0
 20 19  1  1
 20 22  1  0
 21 20  1  0
 21  9  1  0
 22 24  1  0
 22 23  2  0
 24 25  1  0
 25 32  1  0
 25 26  1  6
 27 26  1  0
 28 27  2  0
 29 28  1  0
 30 29  1  0
 30 31  2  0
 31 27  1  0
 32 34  2  0
 32 33  1  0
M  END
$$$$
