YRH.pdb
     RDKit          3D

 34 35  0  0  1  0  0  0  0  0999 V2000
   19.1031  -19.7363  -12.9390 O   0  0  0  0  0  0  0  0  0  0  0  0
   20.3392  -19.3290  -13.4214 C   0  0  0  0  0  0  0  0  0  0  0  0
   21.4467  -20.0769  -13.0230 C   0  0  0  0  0  0  0  0  0  0  0  0
   22.6920  -19.6702  -13.5064 C   0  0  0  0  0  0  0  0  0  0  0  0
   22.8155  -18.5855  -14.3338 C   0  0  0  0  0  0  0  0  0  0  0  0
   24.1380  -18.1803  -14.8285 C   0  0  0  0  0  0  0  0  0  0  0  0
   24.2146  -18.4704  -16.3288 C   0  0  2  0  0  0  0  0  0  0  0  0
   23.1414  -17.8149  -17.0494 N   0  0  0  0  0  0  0  0  0  0  0  0
   24.2024  -19.9218  -16.5754 C   0  0  0  0  0  0  0  0  0  0  0  0
   23.2079  -20.4311  -17.1462 O   0  0  0  0  0  0  0  0  0  0  0  0
   21.6988  -17.8818  -14.6978 C   0  0  0  0  0  0  0  0  0  0  0  0
   20.4272  -18.2467  -14.2418 C   0  0  0  0  0  0  0  0  0  0  0  0
   31.1001  -25.2100  -16.3684 N   0  0  0  0  0  0  0  0  0  0  0  0
   30.5625  -24.3815  -17.3961 C   0  0  0  0  0  0  0  0  0  0  0  0
   31.2829  -24.0272  -18.3829 N   0  0  0  0  0  0  0  0  0  0  0  0
   29.1913  -23.9603  -17.2862 N   0  0  0  0  0  0  0  0  0  0  0  0
   28.3398  -24.6212  -16.3334 C   0  0  0  0  0  0  0  0  0  0  0  0
   26.9350  -24.1210  -16.3976 C   0  0  0  0  0  0  0  0  0  0  0  0
   26.7114  -22.6712  -16.2588 C   0  0  0  0  0  0  0  0  0  0  0  0
   25.3226  -22.1609  -16.3544 C   0  0  2  0  0  0  0  0  0  0  0  0
   25.2988  -20.7103  -16.1699 N   0  0  0  0  0  0  0  0  0  0  0  0
   24.2982  -22.7823  -15.5383 C   0  0  0  0  0  0  0  0  0  0  0  0
   24.2901  -22.6586  -14.2979 O   0  0  0  0  0  0  0  0  0  0  0  0
   30.9637  -23.4447  -19.1724 N   0  0  0  0  0  0  0  0  0  0  0  0
   23.2759  -23.5523  -16.1485 C   0  0  1  0  0  0  0  0  0  0  0  0
   22.1695  -24.1058  -15.3565 C   0  0  0  0  0  0  0  0  0  0  0  0
   21.4648  -22.9758  -14.6700 C   0  0  0  0  0  0  0  0  0  0  0  0
   20.2566  -23.4091  -13.9269 C   0  0  0  0  0  0  0  0  0  0  0  0
   20.2025  -24.0491  -12.6934 N   0  0  0  0  0  0  0  0  0  0  0  0
   18.9362  -24.2820  -12.3409 C   0  0  0  0  0  0  0  0  0  0  0  0
   18.1757  -23.7960  -13.3392 N   0  0  0  0  0  0  0  0  0  0  0  0
   18.9525  -23.2725  -14.2915 C   0  0  0  0  0  0  0  0  0  0  0  0
   21.2162  -24.8122  -16.2329 O   0  0  0  0  0  0  0  0  0  0  0  0
   20.3698  -25.8065  -15.7902 O   0  0  0  0  0  0  0  0  0  0  0  0
  2  3  2  0
  2  1  1  0
  4  3  1  0
  5  4  2  0
  6  7  1  0
  6  5  1  0
  7  9  1  0
  7  8  1  6
  9 10  2  0
 11  5  1  0
 11 12  2  0
 12  2  1  0
 13 14  1  0
 14 15  2  0
 16 17  1  0
 16 14  1  0
 18 17  1  0
 19 18  1  0
 20 19  1  1
 20 22  1  0
 21 20  1  0
 21  9  1  0
 22 24  1  0
 22 23  2  0
 24 25  1  0
 25 32  1  0
 25 26  1  1
 27 26  1  0
 28 27  2  0
 29 28  1  0
 30 29  1  0
 30 31  2  0
 31 27  1  0
 32 34  2  0
 32 33  1  0
M  END
$$$$
