YRH.pdb
     RDKit          3D

 34 35  0  0  1  0  0  0  0  0999 V2000
   21.6344  -22.8037   -7.2928 O   0  0  0  0  0  0  0  0  0  0  0  0
   22.0015  -22.1062   -8.4354 C   0  0  0  0  0  0  0  0  0  0  0  0
   21.0787  -22.0822   -9.4806 C   0  0  0  0  0  0  0  0  0  0  0  0
   21.4445  -21.3815  -10.6317 C   0  0  0  0  0  0  0  0  0  0  0  0
   22.6555  -20.7480  -10.7256 C   0  0  0  0  0  0  0  0  0  0  0  0
   23.0141  -20.0170  -11.9482 C   0  0  0  0  0  0  0  0  0  0  0  0
   23.4353  -21.0238  -13.0204 C   0  0  2  0  0  0  0  0  0  0  0  0
   24.6551  -21.7128  -12.6486 N   0  0  0  0  0  0  0  0  0  0  0  0
   23.5858  -20.3571  -14.3243 C   0  0  0  0  0  0  0  0  0  0  0  0
   24.6137  -19.6702  -14.5386 O   0  0  0  0  0  0  0  0  0  0  0  0
   23.5292  -20.7994   -9.6726 C   0  0  0  0  0  0  0  0  0  0  0  0
   23.2123  -21.4878   -8.4963 C   0  0  0  0  0  0  0  0  0  0  0  0
   25.2091  -23.3331  -15.3251 N   0  0  0  0  0  0  0  0  0  0  0  0
   26.0757  -23.6609  -16.4082 C   0  0  0  0  0  0  0  0  0  0  0  0
   26.8136  -24.6958  -16.3542 N   0  0  0  0  0  0  0  0  0  0  0  0
   26.0918  -22.7941  -17.5562 N   0  0  0  0  0  0  0  0  0  0  0  0
   25.2129  -21.6552  -17.5743 C   0  0  0  0  0  0  0  0  0  0  0  0
   23.7762  -22.0568  -17.5232 C   0  0  0  0  0  0  0  0  0  0  0  0
   22.7586  -21.0002  -17.6630 C   0  0  0  0  0  0  0  0  0  0  0  0
   22.7152  -19.9256  -16.6424 C   0  0  2  0  0  0  0  0  0  0  0  0
   22.5814  -20.4993  -15.3038 N   0  0  0  0  0  0  0  0  0  0  0  0
   21.7670  -18.8429  -16.8159 C   0  0  0  0  0  0  0  0  0  0  0  0
   20.6093  -18.9119  -16.3588 O   0  0  0  0  0  0  0  0  0  0  0  0
   27.5039  -24.9708  -17.0700 N   0  0  0  0  0  0  0  0  0  0  0  0
   22.1482  -17.6725  -17.5197 C   0  0  2  0  0  0  0  0  0  0  0  0
   21.2336  -16.5295  -17.6405 C   0  0  0  0  0  0  0  0  0  0  0  0
   22.0462  -15.2709  -17.6630 C   0  0  0  0  0  0  0  0  0  0  0  0
   21.2260  -14.0522  -17.8670 C   0  0  0  0  0  0  0  0  0  0  0  0
   19.8392  -13.9599  -17.9128 N   0  0  0  0  0  0  0  0  0  0  0  0
   19.4595  -12.6958  -18.1130 C   0  0  0  0  0  0  0  0  0  0  0  0
   20.5927  -11.9747  -18.1963 N   0  0  0  0  0  0  0  0  0  0  0  0
   21.6536  -12.7733  -18.0510 C   0  0  0  0  0  0  0  0  0  0  0  0
   20.4544  -16.6274  -18.8891 O   0  0  0  0  0  0  0  0  0  0  0  0
   19.3031  -15.9065  -19.1252 O   0  0  0  0  0  0  0  0  0  0  0  0
  2  3  2  0
  2  1  1  0
  4  3  1  0
  5  4  2  0
  6  7  1  0
  6  5  1  0
  7  9  1  0
  7  8  1  1
  9 10  2  0
 11  5  1  0
 11 12  2  0
 12  2  1  0
 13 14  1  0
 14 15  2  0
 16 17  1  0
 16 14  1  0
 18 17  1  0
 19 18  1  0
 20 19  1  6
 20 22  1  0
 21 20  1  0
 21  9  1  0
 22 24  1  0
 22 23  2  0
 24 25  1  0
 25 32  1  0
 25 26  1  1
 27 26  1  0
 28 27  2  0
 29 28  1  0
 30 29  1  0
 30 31  2  0
 31 27  1  0
 32 34  2  0
 32 33  1  0
M  END
$$$$
