MMW.pdb
     RDKit          3D

 31 32  0  0  1  0  0  0  0  0999 V2000
   30.1830  -17.5777  -14.8769 C   0  0  0  0  0  0  0  0  0  0  0  0
   29.2267  -16.4495  -15.9000 S   0  0  0  0  0  0  0  0  0  0  0  0
   27.5337  -17.0109  -16.1793 C   0  0  0  0  0  0  0  0  0  0  0  0
   27.0672  -17.8500  -15.0192 C   0  0  0  0  0  0  0  0  0  0  0  0
   25.6749  -18.3648  -15.2481 C   0  0  2  0  0  0  0  0  0  0  0  0
   24.7628  -17.3060  -15.6207 N   0  0  0  0  0  0  0  0  0  0  0  0
   25.1306  -19.0573  -14.0232 C   0  0  0  0  0  0  0  0  0  0  0  0
   24.5063  -18.3925  -13.1675 O   0  0  0  0  0  0  0  0  0  0  0  0
   23.9235  -25.4846  -14.1469 C   0  0  0  0  0  0  0  0  0  0  0  0
   22.7433  -24.2453  -14.7305 S   0  0  0  0  0  0  0  0  0  0  0  0
   23.2508  -22.5876  -14.1928 C   0  0  0  0  0  0  0  0  0  0  0  0
   24.4101  -22.6550  -13.2300 C   0  0  0  0  0  0  0  0  0  0  0  0
   24.9271  -21.3076  -12.8143 C   0  0  2  0  0  0  0  0  0  0  0  0
   25.3331  -20.4334  -13.8659 N   0  0  0  0  0  0  0  0  0  0  0  0
   25.8252  -21.3008  -11.6595 C   0  0  0  0  0  0  0  0  0  0  0  0
   27.0654  -21.5952  -11.8312 O   0  0  0  0  0  0  0  0  0  0  0  0
   25.4247  -20.9875  -10.3355 N   0  0  0  0  0  0  0  0  0  0  0  0
   26.1912  -21.2929   -9.1484 C   0  0  1  0  0  0  0  0  0  0  0  0
   27.5271  -20.6391   -9.1341 C   0  0  0  0  0  0  0  0  0  0  0  0
   27.7482  -19.7748   -7.9559 C   0  0  0  0  0  0  0  0  0  0  0  0
   27.1906  -18.5393   -7.7117 C   0  0  0  0  0  0  0  0  0  0  0  0
   27.6413  -18.0908   -6.5456 N   0  0  0  0  0  0  0  0  0  0  0  0
   28.4828  -18.9623   -5.9783 C   0  0  0  0  0  0  0  0  0  0  0  0
   29.1903  -18.9478   -4.7986 C   0  0  0  0  0  0  0  0  0  0  0  0
   30.0073  -20.0097   -4.4524 C   0  0  0  0  0  0  0  0  0  0  0  0
   30.0853  -21.0737   -5.3263 C   0  0  0  0  0  0  0  0  0  0  0  0
   29.3716  -21.0781   -6.5067 C   0  0  0  0  0  0  0  0  0  0  0  0
   28.5562  -20.0376   -6.8702 C   0  0  0  0  0  0  0  0  0  0  0  0
   25.4434  -21.1490   -7.8890 C   0  0  0  0  0  0  0  0  0  0  0  0
   24.1510  -20.6588   -7.8774 O   0  0  0  0  0  0  0  0  0  0  0  0
   25.9760  -21.4719   -6.8100 O   0  0  0  0  0  0  0  0  0  0  0  0
  2  1  1  0
  3  2  1  0
  4  3  1  0
  5  4  1  0
  5  6  1  1
  7  8  2  0
  7  5  1  0
 10  9  1  0
 11 10  1  0
 11 12  1  0
 13 12  1  6
 13 14  1  0
 14  7  1  0
 15 17  1  0
 15 13  1  0
 16 15  2  0
 18 17  1  0
 18 29  1  0
 19 20  1  0
 18 19  1  1
 20 28  1  0
 21 20  2  0
 21 22  1  0
 22 23  1  0
 23 24  1  0
 24 25  2  0
 26 25  1  0
 27 26  2  0
 28 23  2  0
 28 27  1  0
 29 30  1  0
 31 29  2  0
M  END
$$$$
