MMW.pdb
     RDKit          3D

 31 32  0  0  1  0  0  0  0  0999 V2000
   23.0575  -16.9725  -13.6221 C   0  0  0  0  0  0  0  0  0  0  0  0
   23.6660  -16.3598  -15.1996 S   0  0  0  0  0  0  0  0  0  0  0  0
   25.2490  -17.0850  -15.6766 C   0  0  0  0  0  0  0  0  0  0  0  0
   25.5478  -18.2876  -14.8210 C   0  0  0  0  0  0  0  0  0  0  0  0
   26.8772  -18.8890  -15.1768 C   0  0  2  0  0  0  0  0  0  0  0  0
   26.9075  -19.3602  -16.5439 N   0  0  0  0  0  0  0  0  0  0  0  0
   27.2281  -20.0391  -14.2656 C   0  0  0  0  0  0  0  0  0  0  0  0
   26.5284  -21.0755  -14.2862 O   0  0  0  0  0  0  0  0  0  0  0  0
   32.2440  -22.6009   -8.5958 C   0  0  0  0  0  0  0  0  0  0  0  0
   32.0159  -21.8281  -10.2144 S   0  0  0  0  0  0  0  0  0  0  0  0
   30.2520  -21.5472  -10.5371 C   0  0  0  0  0  0  0  0  0  0  0  0
   30.0433  -20.8135  -11.8385 C   0  0  0  0  0  0  0  0  0  0  0  0
   28.5985  -20.5653  -12.1652 C   0  0  2  0  0  0  0  0  0  0  0  0
   28.3324  -19.9267  -13.4128 N   0  0  0  0  0  0  0  0  0  0  0  0
   27.7733  -20.0745  -11.0615 C   0  0  0  0  0  0  0  0  0  0  0  0
   28.3310  -19.4083  -10.1131 O   0  0  0  0  0  0  0  0  0  0  0  0
   26.3742  -20.2812  -10.9543 N   0  0  0  0  0  0  0  0  0  0  0  0
   25.7517  -21.3028  -10.1426 C   0  0  1  0  0  0  0  0  0  0  0  0
   25.4242  -20.8353   -8.7691 C   0  0  0  0  0  0  0  0  0  0  0  0
   26.4841  -20.0044   -8.1605 C   0  0  0  0  0  0  0  0  0  0  0  0
   26.9838  -18.8116   -8.6345 C   0  0  0  0  0  0  0  0  0  0  0  0
   27.9245  -18.3819   -7.8010 N   0  0  0  0  0  0  0  0  0  0  0  0
   28.0930  -19.2254   -6.7765 C   0  0  0  0  0  0  0  0  0  0  0  0
   28.9287  -19.2155   -5.6838 C   0  0  0  0  0  0  0  0  0  0  0  0
   28.8915  -20.2428   -4.7575 C   0  0  0  0  0  0  0  0  0  0  0  0
   27.9936  -21.2681   -4.9685 C   0  0  0  0  0  0  0  0  0  0  0  0
   27.1601  -21.2681   -6.0677 C   0  0  0  0  0  0  0  0  0  0  0  0
   27.1793  -20.2614   -6.9980 C   0  0  0  0  0  0  0  0  0  0  0  0
   24.6511  -22.0193  -10.8068 C   0  0  0  0  0  0  0  0  0  0  0  0
   24.2837  -21.7188  -12.1051 O   0  0  0  0  0  0  0  0  0  0  0  0
   24.0343  -22.9133  -10.1967 O   0  0  0  0  0  0  0  0  0  0  0  0
  2  1  1  0
  3  2  1  0
  4  3  1  0
  5  4  1  0
  5  6  1  6
  7  8  2  0
  7  5  1  0
 10  9  1  0
 11 10  1  0
 11 12  1  0
 13 12  1  1
 13 14  1  0
 14  7  1  0
 15 17  1  0
 15 13  1  0
 16 15  2  0
 18 17  1  0
 18 29  1  0
 19 20  1  0
 18 19  1  1
 20 28  1  0
 21 20  2  0
 21 22  1  0
 22 23  1  0
 23 24  1  0
 24 25  2  0
 26 25  1  0
 27 26  2  0
 28 23  2  0
 28 27  1  0
 29 30  1  0
 31 29  2  0
M  END
$$$$
