MMW.pdb
     RDKit          3D

 31 32  0  0  1  0  0  0  0  0999 V2000
   25.3466  -17.1958  -20.1947 C   0  0  0  0  0  0  0  0  0  0  0  0
   25.5059  -15.6341  -19.3175 S   0  0  0  0  0  0  0  0  0  0  0  0
   26.4980  -15.7652  -17.8148 C   0  0  0  0  0  0  0  0  0  0  0  0
   26.8069  -17.2095  -17.5213 C   0  0  0  0  0  0  0  0  0  0  0  0
   26.5583  -17.5339  -16.0760 C   0  0  2  0  0  0  0  0  0  0  0  0
   27.2860  -16.6503  -15.1920 N   0  0  0  0  0  0  0  0  0  0  0  0
   26.9408  -18.9570  -15.7526 C   0  0  0  0  0  0  0  0  0  0  0  0
   26.5175  -19.8866  -16.4744 O   0  0  0  0  0  0  0  0  0  0  0  0
   31.0124  -20.7878  -10.1951 C   0  0  0  0  0  0  0  0  0  0  0  0
   31.4345  -21.5825  -11.7634 S   0  0  0  0  0  0  0  0  0  0  0  0
   29.9596  -21.7374  -12.8099 C   0  0  0  0  0  0  0  0  0  0  0  0
   29.4761  -20.3874  -13.2784 C   0  0  0  0  0  0  0  0  0  0  0  0
   28.2360  -20.4515  -14.1230 C   0  0  2  0  0  0  0  0  0  0  0  0
   27.7644  -19.2126  -14.6501 N   0  0  0  0  0  0  0  0  0  0  0  0
   27.1735  -21.3254  -13.6256 C   0  0  0  0  0  0  0  0  0  0  0  0
   27.4765  -22.5071  -13.2179 O   0  0  0  0  0  0  0  0  0  0  0  0
   25.8043  -20.9619  -13.5564 N   0  0  0  0  0  0  0  0  0  0  0  0
   24.7703  -21.7587  -12.9350 C   0  0  1  0  0  0  0  0  0  0  0  0
   25.1307  -22.2141  -11.5657 C   0  0  0  0  0  0  0  0  0  0  0  0
   25.0458  -21.1464  -10.5475 C   0  0  0  0  0  0  0  0  0  0  0  0
   23.9506  -20.3678  -10.2450 C   0  0  0  0  0  0  0  0  0  0  0  0
   24.2812  -19.5260   -9.2722 N   0  0  0  0  0  0  0  0  0  0  0  0
   25.5533  -19.6915   -8.8932 C   0  0  0  0  0  0  0  0  0  0  0  0
   26.3362  -19.0712   -7.9473 C   0  0  0  0  0  0  0  0  0  0  0  0
   27.6538  -19.4514   -7.7620 C   0  0  0  0  0  0  0  0  0  0  0  0
   28.1486  -20.4663   -8.5540 C   0  0  0  0  0  0  0  0  0  0  0  0
   27.3549  -21.0816   -9.4995 C   0  0  0  0  0  0  0  0  0  0  0  0
   26.0473  -20.7217   -9.7005 C   0  0  0  0  0  0  0  0  0  0  0  0
   23.4186  -21.1854  -13.0362 C   0  0  0  0  0  0  0  0  0  0  0  0
   23.2126  -19.9340  -13.5860 O   0  0  0  0  0  0  0  0  0  0  0  0
   22.4373  -21.8314  -12.6220 O   0  0  0  0  0  0  0  0  0  0  0  0
  2  1  1  0
  3  2  1  0
  4  3  1  0
  5  4  1  0
  5  6  1  1
  7  8  2  0
  7  5  1  0
 10  9  1  0
 11 10  1  0
 11 12  1  0
 13 12  1  1
 13 14  1  0
 14  7  1  0
 15 17  1  0
 15 13  1  0
 16 15  2  0
 18 17  1  0
 18 29  1  0
 19 20  1  0
 18 19  1  1
 20 28  1  0
 21 20  2  0
 21 22  1  0
 22 23  1  0
 23 24  1  0
 24 25  2  0
 26 25  1  0
 27 26  2  0
 28 23  2  0
 28 27  1  0
 29 30  1  0
 31 29  2  0
M  END
$$$$
