MMW.pdb
     RDKit          3D

 31 32  0  0  1  0  0  0  0  0999 V2000
   27.7267  -21.9189  -16.9592 C   0  0  0  0  0  0  0  0  0  0  0  0
   27.1062  -21.2988  -18.5291 S   0  0  0  0  0  0  0  0  0  0  0  0
   26.4725  -19.6116  -18.4220 C   0  0  0  0  0  0  0  0  0  0  0  0
   26.2151  -19.2442  -16.9846 C   0  0  0  0  0  0  0  0  0  0  0  0
   24.7865  -18.8289  -16.7789 C   0  0  2  0  0  0  0  0  0  0  0  0
   24.5007  -17.5540  -17.3994 N   0  0  0  0  0  0  0  0  0  0  0  0
   24.4406  -18.7367  -15.3132 C   0  0  0  0  0  0  0  0  0  0  0  0
   24.8027  -17.7350  -14.6578 O   0  0  0  0  0  0  0  0  0  0  0  0
   20.0723  -23.1576  -12.2466 C   0  0  0  0  0  0  0  0  0  0  0  0
   20.2447  -21.6454  -11.2706 S   0  0  0  0  0  0  0  0  0  0  0  0
   21.8676  -20.8869  -11.5627 C   0  0  0  0  0  0  0  0  0  0  0  0
   22.0894  -20.6158  -13.0300 C   0  0  0  0  0  0  0  0  0  0  0  0
   23.4325  -20.0171  -13.3357 C   0  0  2  0  0  0  0  0  0  0  0  0
   23.7188  -19.7744  -14.7119 N   0  0  0  0  0  0  0  0  0  0  0  0
   24.5599  -20.5705  -12.5855 C   0  0  0  0  0  0  0  0  0  0  0  0
   24.9908  -21.7455  -12.8822 O   0  0  0  0  0  0  0  0  0  0  0  0
   25.2295  -19.8961  -11.5327 N   0  0  0  0  0  0  0  0  0  0  0  0
   26.2677  -20.4764  -10.7108 C   0  0  1  0  0  0  0  0  0  0  0  0
   27.0341  -19.4617   -9.9392 C   0  0  0  0  0  0  0  0  0  0  0  0
   28.0828  -20.0451   -9.0767 C   0  0  0  0  0  0  0  0  0  0  0  0
   29.1057  -20.8844   -9.4594 C   0  0  0  0  0  0  0  0  0  0  0  0
   29.8337  -21.1848   -8.3899 N   0  0  0  0  0  0  0  0  0  0  0  0
   29.3572  -20.5899   -7.2906 C   0  0  0  0  0  0  0  0  0  0  0  0
   29.7584  -20.5954   -5.9748 C   0  0  0  0  0  0  0  0  0  0  0  0
   29.0630  -19.8721   -5.0218 C   0  0  0  0  0  0  0  0  0  0  0  0
   27.9624  -19.1519   -5.4364 C   0  0  0  0  0  0  0  0  0  0  0  0
   27.5687  -19.1533   -6.7585 C   0  0  0  0  0  0  0  0  0  0  0  0
   28.2421  -19.8620   -7.7196 C   0  0  0  0  0  0  0  0  0  0  0  0
   25.8332  -21.6317   -9.9094 C   0  0  0  0  0  0  0  0  0  0  0  0
   26.4692  -22.8544  -10.0151 O   0  0  0  0  0  0  0  0  0  0  0  0
   24.8769  -21.5153   -9.1195 O   0  0  0  0  0  0  0  0  0  0  0  0
  2  1  1  0
  3  2  1  0
  4  3  1  0
  5  4  1  0
  5  6  1  1
  7  8  2  0
  7  5  1  0
 10  9  1  0
 11 10  1  0
 11 12  1  0
 13 12  1  6
 13 14  1  0
 14  7  1  0
 15 17  1  0
 15 13  1  0
 16 15  2  0
 18 17  1  0
 18 29  1  0
 19 20  1  0
 18 19  1  1
 20 28  1  0
 21 20  2  0
 21 22  1  0
 22 23  1  0
 23 24  1  0
 24 25  2  0
 26 25  1  0
 27 26  2  0
 28 23  2  0
 28 27  1  0
 29 30  1  0
 31 29  2  0
M  END
$$$$
