MMW.pdb
     RDKit          3D

 31 32  0  0  1  0  0  0  0  0999 V2000
   33.0538  -25.6940  -15.4057 C   0  0  0  0  0  0  0  0  0  0  0  0
   32.8846  -25.8896  -17.1854 S   0  0  0  0  0  0  0  0  0  0  0  0
   32.0313  -24.5058  -17.9707 C   0  0  0  0  0  0  0  0  0  0  0  0
   31.4945  -23.5658  -16.9240 C   0  0  0  0  0  0  0  0  0  0  0  0
   29.9925  -23.5614  -16.9189 C   0  0  2  0  0  0  0  0  0  0  0  0
   29.4497  -23.2255  -18.2167 N   0  0  0  0  0  0  0  0  0  0  0  0
   29.4436  -22.5896  -15.9038 C   0  0  0  0  0  0  0  0  0  0  0  0
   29.7839  -22.6952  -14.7049 O   0  0  0  0  0  0  0  0  0  0  0  0
   26.2693  -15.6561  -14.4377 C   0  0  0  0  0  0  0  0  0  0  0  0
   27.3640  -16.7042  -15.4237 S   0  0  0  0  0  0  0  0  0  0  0  0
   26.6625  -18.3700  -15.5897 C   0  0  0  0  0  0  0  0  0  0  0  0
   27.6031  -19.2893  -16.3285 C   0  0  0  0  0  0  0  0  0  0  0  0
   27.9339  -20.5453  -15.5745 C   0  0  2  0  0  0  0  0  0  0  0  0
   28.5630  -21.5850  -16.3217 N   0  0  0  0  0  0  0  0  0  0  0  0
   26.9044  -21.0208  -14.6503 C   0  0  0  0  0  0  0  0  0  0  0  0
   25.8815  -21.6424  -15.1211 O   0  0  0  0  0  0  0  0  0  0  0  0
   26.9484  -20.8454  -13.2436 N   0  0  0  0  0  0  0  0  0  0  0  0
   26.0188  -21.4396  -12.3093 C   0  0  1  0  0  0  0  0  0  0  0  0
   26.6777  -21.9475  -11.0764 C   0  0  0  0  0  0  0  0  0  0  0  0
   26.6635  -20.9805   -9.9589 C   0  0  0  0  0  0  0  0  0  0  0  0
   25.6037  -20.2078   -9.5384 C   0  0  0  0  0  0  0  0  0  0  0  0
   25.9962  -19.4715   -8.5049 N   0  0  0  0  0  0  0  0  0  0  0  0
   27.2771  -19.7038   -8.1970 C   0  0  0  0  0  0  0  0  0  0  0  0
   28.1140  -19.1965   -7.2303 C   0  0  0  0  0  0  0  0  0  0  0  0
   29.4266  -19.6251   -7.1373 C   0  0  0  0  0  0  0  0  0  0  0  0
   29.8607  -20.5712   -8.0420 C   0  0  0  0  0  0  0  0  0  0  0  0
   29.0130  -21.0733   -9.0074 C   0  0  0  0  0  0  0  0  0  0  0  0
   27.7093  -20.6638   -9.1183 C   0  0  0  0  0  0  0  0  0  0  0  0
   24.8157  -20.6317  -12.0529 C   0  0  0  0  0  0  0  0  0  0  0  0
   23.6328  -21.2206  -11.6468 O   0  0  0  0  0  0  0  0  0  0  0  0
   24.8543  -19.3955  -12.2016 O   0  0  0  0  0  0  0  0  0  0  0  0
  2  1  1  0
  3  2  1  0
  4  3  1  0
  5  4  1  0
  5  6  1  6
  7  8  2  0
  7  5  1  0
 10  9  1  0
 11 10  1  0
 11 12  1  0
 13 12  1  6
 13 14  1  0
 14  7  1  0
 15 17  1  0
 15 13  1  0
 16 15  2  0
 18 17  1  0
 18 29  1  0
 19 20  1  0
 18 19  1  1
 20 28  1  0
 21 20  2  0
 21 22  1  0
 22 23  1  0
 23 24  1  0
 24 25  2  0
 26 25  1  0
 27 26  2  0
 28 23  2  0
 28 27  1  0
 29 30  1  0
 31 29  2  0
M  END
$$$$
