MMW.pdb
     RDKit          3D

 31 32  0  0  1  0  0  0  0  0999 V2000
   22.8426  -20.5349  -20.8046 C   0  0  0  0  0  0  0  0  0  0  0  0
   24.3235  -20.1703  -21.7574 S   0  0  0  0  0  0  0  0  0  0  0  0
   25.6718  -19.5208  -20.7476 C   0  0  0  0  0  0  0  0  0  0  0  0
   26.0699  -20.5293  -19.7027 C   0  0  0  0  0  0  0  0  0  0  0  0
   25.8608  -19.9863  -18.3180 C   0  0  2  0  0  0  0  0  0  0  0  0
   26.6798  -18.8210  -18.0663 N   0  0  0  0  0  0  0  0  0  0  0  0
   26.1642  -21.0220  -17.2637 C   0  0  0  0  0  0  0  0  0  0  0  0
   25.6158  -22.1442  -17.3285 O   0  0  0  0  0  0  0  0  0  0  0  0
   31.0448  -20.0154  -12.9385 C   0  0  0  0  0  0  0  0  0  0  0  0
   29.8797  -20.8355  -11.8254 S   0  0  0  0  0  0  0  0  0  0  0  0
   28.4466  -21.4515  -12.7536 C   0  0  0  0  0  0  0  0  0  0  0  0
   28.3205  -20.7605  -14.0886 C   0  0  0  0  0  0  0  0  0  0  0  0
   27.1797  -21.2670  -14.9238 C   0  0  2  0  0  0  0  0  0  0  0  0
   27.0556  -20.7092  -16.2309 N   0  0  0  0  0  0  0  0  0  0  0  0
   25.9041  -21.4277  -14.2257 C   0  0  0  0  0  0  0  0  0  0  0  0
   25.8230  -22.2734  -13.2600 O   0  0  0  0  0  0  0  0  0  0  0  0
   24.7237  -20.7064  -14.5385 N   0  0  0  0  0  0  0  0  0  0  0  0
   23.5334  -20.6779  -13.7184 C   0  0  1  0  0  0  0  0  0  0  0  0
   23.4499  -19.4690  -12.8559 C   0  0  0  0  0  0  0  0  0  0  0  0
   24.5344  -19.3821  -11.8557 C   0  0  0  0  0  0  0  0  0  0  0  0
   25.7498  -18.7495  -11.9964 C   0  0  0  0  0  0  0  0  0  0  0  0
   26.4415  -18.8995  -10.8725 N   0  0  0  0  0  0  0  0  0  0  0  0
   25.7562  -19.6061   -9.9668 C   0  0  0  0  0  0  0  0  0  0  0  0
   26.0441  -20.0141   -8.6849 C   0  0  0  0  0  0  0  0  0  0  0  0
   25.1289  -20.7543   -7.9574 C   0  0  0  0  0  0  0  0  0  0  0  0
   23.9279  -21.0654   -8.5598 C   0  0  0  0  0  0  0  0  0  0  0  0
   23.6493  -20.6512   -9.8457 C   0  0  0  0  0  0  0  0  0  0  0  0
   24.5404  -19.9172  -10.5851 C   0  0  0  0  0  0  0  0  0  0  0  0
   22.2889  -20.9801  -14.4436 C   0  0  0  0  0  0  0  0  0  0  0  0
   21.0920  -21.1430  -13.7716 O   0  0  0  0  0  0  0  0  0  0  0  0
   22.3046  -21.0927  -15.6841 O   0  0  0  0  0  0  0  0  0  0  0  0
  2  1  1  0
  3  2  1  0
  4  3  1  0
  5  4  1  0
  5  6  1  1
  7  8  2  0
  7  5  1  0
 10  9  1  0
 11 10  1  0
 11 12  1  0
 13 12  1  1
 13 14  1  0
 14  7  1  0
 15 17  1  0
 15 13  1  0
 16 15  2  0
 18 17  1  0
 18 29  1  0
 19 20  1  0
 18 19  1  6
 20 28  1  0
 21 20  2  0
 21 22  1  0
 22 23  1  0
 23 24  1  0
 24 25  2  0
 26 25  1  0
 27 26  2  0
 28 23  2  0
 28 27  1  0
 29 30  1  0
 31 29  2  0
M  END
$$$$
