MMW.pdb
     RDKit          3D

 31 32  0  0  1  0  0  0  0  0999 V2000
   26.0049  -17.0934  -15.8810 C   0  0  0  0  0  0  0  0  0  0  0  0
   27.4654  -17.7675  -16.6850 S   0  0  0  0  0  0  0  0  0  0  0  0
   28.2344  -19.1054  -15.7478 C   0  0  0  0  0  0  0  0  0  0  0  0
   27.2179  -19.7623  -14.8519 C   0  0  0  0  0  0  0  0  0  0  0  0
   27.8294  -20.8948  -14.0777 C   0  0  2  0  0  0  0  0  0  0  0  0
   28.2485  -21.9753  -14.9429 N   0  0  0  0  0  0  0  0  0  0  0  0
   26.8713  -21.4469  -13.0513 C   0  0  0  0  0  0  0  0  0  0  0  0
   26.1768  -22.4479  -13.3342 O   0  0  0  0  0  0  0  0  0  0  0  0
   26.6172  -20.2027   -6.3603 C   0  0  0  0  0  0  0  0  0  0  0  0
   28.0764  -20.4385   -7.4015 S   0  0  0  0  0  0  0  0  0  0  0  0
   27.5888  -21.0253   -9.0484 C   0  0  0  0  0  0  0  0  0  0  0  0
   26.1872  -20.5868   -9.3934 C   0  0  0  0  0  0  0  0  0  0  0  0
   25.7720  -20.9420  -10.7923 C   0  0  2  0  0  0  0  0  0  0  0  0
   26.7767  -20.8294  -11.7987 N   0  0  0  0  0  0  0  0  0  0  0  0
   24.4591  -20.4494  -11.2092 C   0  0  0  0  0  0  0  0  0  0  0  0
   24.1497  -19.2228  -10.9766 O   0  0  0  0  0  0  0  0  0  0  0  0
   23.4793  -21.2376  -11.8652 N   0  0  0  0  0  0  0  0  0  0  0  0
   22.2527  -20.7241  -12.4325 C   0  0  1  0  0  0  0  0  0  0  0  0
   22.4509  -19.4712  -13.2094 C   0  0  0  0  0  0  0  0  0  0  0  0
   22.3128  -19.6545  -14.6693 C   0  0  0  0  0  0  0  0  0  0  0  0
   21.2253  -20.1593  -15.3471 C   0  0  0  0  0  0  0  0  0  0  0  0
   21.4960  -20.1605  -16.6475 N   0  0  0  0  0  0  0  0  0  0  0  0
   22.7198  -19.6793  -16.8930 C   0  0  0  0  0  0  0  0  0  0  0  0
   23.4344  -19.4867  -18.0525 C   0  0  0  0  0  0  0  0  0  0  0  0
   24.7132  -18.9591  -18.0142 C   0  0  0  0  0  0  0  0  0  0  0  0
   25.2400  -18.6365  -16.7811 C   0  0  0  0  0  0  0  0  0  0  0  0
   24.5146  -18.8337  -15.6245 C   0  0  0  0  0  0  0  0  0  0  0  0
   23.2466  -19.3546  -15.6383 C   0  0  0  0  0  0  0  0  0  0  0  0
   21.4353  -21.7326  -13.1257 C   0  0  0  0  0  0  0  0  0  0  0  0
   21.9862  -22.9243  -13.5584 O   0  0  0  0  0  0  0  0  0  0  0  0
   20.2254  -21.5176  -13.3305 O   0  0  0  0  0  0  0  0  0  0  0  0
  2  1  1  0
  3  2  1  0
  4  3  1  0
  5  4  1  0
  5  6  1  6
  7  8  2  0
  7  5  1  0
 10  9  1  0
 11 10  1  0
 11 12  1  0
 13 12  1  1
 13 14  1  0
 14  7  1  0
 15 17  1  0
 15 13  1  0
 16 15  2  0
 18 17  1  0
 18 29  1  0
 19 20  1  0
 18 19  1  6
 20 28  1  0
 21 20  2  0
 21 22  1  0
 22 23  1  0
 23 24  1  0
 24 25  2  0
 26 25  1  0
 27 26  2  0
 28 23  2  0
 28 27  1  0
 29 30  1  0
 31 29  2  0
M  END
$$$$
