MMW.pdb
     RDKit          3D

 31 32  0  0  1  0  0  0  0  0999 V2000
   28.6585  -15.2723  -17.4248 C   0  0  0  0  0  0  0  0  0  0  0  0
   29.6463  -16.7717  -17.5250 S   0  0  0  0  0  0  0  0  0  0  0  0
   28.7201  -18.2590  -17.0894 C   0  0  0  0  0  0  0  0  0  0  0  0
   27.9425  -18.0329  -15.8199 C   0  0  0  0  0  0  0  0  0  0  0  0
   28.1552  -19.1571  -14.8468 C   0  0  2  0  0  0  0  0  0  0  0  0
   27.9839  -20.4505  -15.4710 N   0  0  0  0  0  0  0  0  0  0  0  0
   27.2109  -19.0622  -13.6739 C   0  0  0  0  0  0  0  0  0  0  0  0
   27.1153  -17.9841  -13.0472 O   0  0  0  0  0  0  0  0  0  0  0  0
   21.2848  -19.3873  -15.7373 C   0  0  0  0  0  0  0  0  0  0  0  0
   21.9345  -20.4737  -14.4463 S   0  0  0  0  0  0  0  0  0  0  0  0
   23.5809  -19.9175  -13.9224 C   0  0  0  0  0  0  0  0  0  0  0  0
   24.0926  -20.7363  -12.7634 C   0  0  0  0  0  0  0  0  0  0  0  0
   25.4612  -20.3303  -12.2967 C   0  0  2  0  0  0  0  0  0  0  0  0
   26.4568  -20.1831  -13.3076 N   0  0  0  0  0  0  0  0  0  0  0  0
   25.9418  -20.9947  -11.0852 C   0  0  0  0  0  0  0  0  0  0  0  0
   26.9636  -21.7721  -11.1628 O   0  0  0  0  0  0  0  0  0  0  0  0
   25.3549  -20.8442   -9.8028 N   0  0  0  0  0  0  0  0  0  0  0  0
   25.8225  -21.4967   -8.6005 C   0  0  1  0  0  0  0  0  0  0  0  0
   27.2792  -21.3088   -8.3655 C   0  0  0  0  0  0  0  0  0  0  0  0
   27.5953  -20.1266   -7.5371 C   0  0  0  0  0  0  0  0  0  0  0  0
   27.1585  -18.8342   -7.7274 C   0  0  0  0  0  0  0  0  0  0  0  0
   27.6643  -18.0674   -6.7680 N   0  0  0  0  0  0  0  0  0  0  0  0
   28.4281  -18.7746   -5.9279 C   0  0  0  0  0  0  0  0  0  0  0  0
   29.1492  -18.4343   -4.8069 C   0  0  0  0  0  0  0  0  0  0  0  0
   29.8681  -19.3914   -4.1126 C   0  0  0  0  0  0  0  0  0  0  0  0
   29.8352  -20.6877   -4.5821 C   0  0  0  0  0  0  0  0  0  0  0  0
   29.1088  -21.0181   -5.7072 C   0  0  0  0  0  0  0  0  0  0  0  0
   28.3893  -20.0870   -6.4107 C   0  0  0  0  0  0  0  0  0  0  0  0
   24.9901  -21.2495   -7.4123 C   0  0  0  0  0  0  0  0  0  0  0  0
   25.2876  -21.8367   -6.1968 O   0  0  0  0  0  0  0  0  0  0  0  0
   23.9985  -20.4998   -7.4937 O   0  0  0  0  0  0  0  0  0  0  0  0
  2  1  1  0
  3  2  1  0
  4  3  1  0
  5  4  1  0
  5  6  1  6
  7  8  2  0
  7  5  1  0
 10  9  1  0
 11 10  1  0
 11 12  1  0
 13 12  1  6
 13 14  1  0
 14  7  1  0
 15 17  1  0
 15 13  1  0
 16 15  2  0
 18 17  1  0
 18 29  1  0
 19 20  1  0
 18 19  1  1
 20 28  1  0
 21 20  2  0
 21 22  1  0
 22 23  1  0
 23 24  1  0
 24 25  2  0
 26 25  1  0
 27 26  2  0
 28 23  2  0
 28 27  1  0
 29 30  1  0
 31 29  2  0
M  END
$$$$
