MMW.pdb
     RDKit          3D

 31 32  0  0  1  0  0  0  0  0999 V2000
   29.6572  -15.9294  -17.1455 C   0  0  0  0  0  0  0  0  0  0  0  0
   28.2924  -16.8848  -16.4684 S   0  0  0  0  0  0  0  0  0  0  0  0
   28.8239  -18.4287  -15.6979 C   0  0  0  0  0  0  0  0  0  0  0  0
   27.6465  -19.1287  -15.0725 C   0  0  0  0  0  0  0  0  0  0  0  0
   28.0874  -20.3210  -14.2726 C   0  0  2  0  0  0  0  0  0  0  0  0
   28.7231  -21.3215  -15.1014 N   0  0  0  0  0  0  0  0  0  0  0  0
   26.9296  -20.9632  -13.5491 C   0  0  0  0  0  0  0  0  0  0  0  0
   26.3420  -21.9361  -14.0709 O   0  0  0  0  0  0  0  0  0  0  0  0
   28.2290  -20.5536   -6.8481 C   0  0  0  0  0  0  0  0  0  0  0  0
   26.7627  -19.9615   -7.7247 S   0  0  0  0  0  0  0  0  0  0  0  0
   26.6035  -20.7996   -9.3269 C   0  0  0  0  0  0  0  0  0  0  0  0
   25.4060  -20.2944  -10.0927 C   0  0  0  0  0  0  0  0  0  0  0  0
   25.3733  -20.7444  -11.5252 C   0  0  2  0  0  0  0  0  0  0  0  0
   26.5333  -20.4592  -12.3049 N   0  0  0  0  0  0  0  0  0  0  0  0
   24.1137  -20.5168  -12.2335 C   0  0  0  0  0  0  0  0  0  0  0  0
   23.6261  -19.3273  -12.2739 O   0  0  0  0  0  0  0  0  0  0  0  0
   23.3722  -21.5294  -12.8941 N   0  0  0  0  0  0  0  0  0  0  0  0
   22.0781  -21.3354  -13.5086 C   0  0  1  0  0  0  0  0  0  0  0  0
   21.7211  -22.4158  -14.4666 C   0  0  0  0  0  0  0  0  0  0  0  0
   20.4262  -22.1986  -15.1448 C   0  0  0  0  0  0  0  0  0  0  0  0
   20.0695  -21.1311  -15.9387 C   0  0  0  0  0  0  0  0  0  0  0  0
   18.8221  -21.3099  -16.3588 N   0  0  0  0  0  0  0  0  0  0  0  0
   18.3066  -22.4515  -15.8895 C   0  0  0  0  0  0  0  0  0  0  0  0
   17.0812  -23.0576  -16.0423 C   0  0  0  0  0  0  0  0  0  0  0  0
   16.8105  -24.2675  -15.4275 C   0  0  0  0  0  0  0  0  0  0  0  0
   17.8061  -24.8380  -14.6625 C   0  0  0  0  0  0  0  0  0  0  0  0
   19.0315  -24.2218  -14.5159 C   0  0  0  0  0  0  0  0  0  0  0  0
   19.3220  -23.0236  -15.1154 C   0  0  0  0  0  0  0  0  0  0  0  0
   21.0018  -20.9968  -12.5637 C   0  0  0  0  0  0  0  0  0  0  0  0
   20.1173  -19.9676  -12.8272 O   0  0  0  0  0  0  0  0  0  0  0  0
   20.8777  -21.6430  -11.5059 O   0  0  0  0  0  0  0  0  0  0  0  0
  2  1  1  0
  3  2  1  0
  4  3  1  0
  5  4  1  0
  5  6  1  6
  7  8  2  0
  7  5  1  0
 10  9  1  0
 11 10  1  0
 11 12  1  0
 13 12  1  1
 13 14  1  0
 14  7  1  0
 15 17  1  0
 15 13  1  0
 16 15  2  0
 18 17  1  0
 18 29  1  0
 19 20  1  0
 18 19  1  1
 20 28  1  0
 21 20  2  0
 21 22  1  0
 22 23  1  0
 23 24  1  0
 24 25  2  0
 26 25  1  0
 27 26  2  0
 28 23  2  0
 28 27  1  0
 29 30  1  0
 31 29  2  0
M  END
$$$$
