MMW.pdb
     RDKit          3D

 31 32  0  0  1  0  0  0  0  0999 V2000
   25.9014  -15.2125  -17.2859 C   0  0  0  0  0  0  0  0  0  0  0  0
   26.2288  -16.6970  -18.2467 S   0  0  0  0  0  0  0  0  0  0  0  0
   27.1731  -17.9358  -17.3340 C   0  0  0  0  0  0  0  0  0  0  0  0
   27.3153  -17.5221  -15.8931 C   0  0  0  0  0  0  0  0  0  0  0  0
   28.1166  -18.5280  -15.1171 C   0  0  2  0  0  0  0  0  0  0  0  0
   28.2035  -19.7963  -15.8069 N   0  0  0  0  0  0  0  0  0  0  0  0
   27.5312  -18.7665  -13.7473 C   0  0  0  0  0  0  0  0  0  0  0  0
   27.3870  -17.8024  -12.9638 O   0  0  0  0  0  0  0  0  0  0  0  0
   22.7967  -22.2428  -15.1693 C   0  0  0  0  0  0  0  0  0  0  0  0
   22.5002  -22.4551  -13.3984 S   0  0  0  0  0  0  0  0  0  0  0  0
   23.8166  -21.6560  -12.4375 C   0  0  0  0  0  0  0  0  0  0  0  0
   24.9553  -21.2197  -13.3256 C   0  0  0  0  0  0  0  0  0  0  0  0
   26.0574  -20.5138  -12.5890 C   0  0  2  0  0  0  0  0  0  0  0  0
   27.1582  -20.0638  -13.3767 N   0  0  0  0  0  0  0  0  0  0  0  0
   26.4484  -21.1077  -11.3104 C   0  0  0  0  0  0  0  0  0  0  0  0
   27.4295  -21.9389  -11.2822 O   0  0  0  0  0  0  0  0  0  0  0  0
   25.8150  -20.8312  -10.0720 N   0  0  0  0  0  0  0  0  0  0  0  0
   26.2587  -21.3300   -8.7897 C   0  0  1  0  0  0  0  0  0  0  0  0
   27.6586  -20.9441   -8.4680 C   0  0  0  0  0  0  0  0  0  0  0  0
   27.7563  -19.8395   -7.4911 C   0  0  0  0  0  0  0  0  0  0  0  0
   27.0908  -18.6341   -7.5261 C   0  0  0  0  0  0  0  0  0  0  0  0
   27.4510  -17.9170   -6.4677 N   0  0  0  0  0  0  0  0  0  0  0  0
   28.3333  -18.5754   -5.7078 C   0  0  0  0  0  0  0  0  0  0  0  0
   28.9834  -18.2559   -4.5383 C   0  0  0  0  0  0  0  0  0  0  0  0
   29.8667  -19.1476   -3.9554 C   0  0  0  0  0  0  0  0  0  0  0  0
   30.0693  -20.3578   -4.5849 C   0  0  0  0  0  0  0  0  0  0  0  0
   29.4121  -20.6682   -5.7574 C   0  0  0  0  0  0  0  0  0  0  0  0
   28.5330  -19.8008   -6.3527 C   0  0  0  0  0  0  0  0  0  0  0  0
   25.3095  -21.1029   -7.6882 C   0  0  0  0  0  0  0  0  0  0  0  0
   25.4339  -21.7763   -6.4875 O   0  0  0  0  0  0  0  0  0  0  0  0
   24.3748  -20.2917   -7.8310 O   0  0  0  0  0  0  0  0  0  0  0  0
  2  1  1  0
  3  2  1  0
  4  3  1  0
  5  4  1  0
  5  6  1  6
  7  8  2  0
  7  5  1  0
 10  9  1  0
 11 10  1  0
 11 12  1  0
 13 12  1  6
 13 14  1  0
 14  7  1  0
 15 17  1  0
 15 13  1  0
 16 15  2  0
 18 17  1  0
 18 29  1  0
 19 20  1  0
 18 19  1  1
 20 28  1  0
 21 20  2  0
 21 22  1  0
 22 23  1  0
 23 24  1  0
 24 25  2  0
 26 25  1  0
 27 26  2  0
 28 23  2  0
 28 27  1  0
 29 30  1  0
 31 29  2  0
M  END
$$$$
