GDY.pdb
     RDKit          3D

 25 25  0  0  1  0  0  0  0  0999 V2000
    7.4888  -21.1950   22.3510 N   0  0  0  0  0  0  0  0  0  0  0  0
    7.2376  -19.7919   22.4678 C   0  0  0  0  0  0  0  0  0  0  0  0
    8.5144  -19.0393   22.6760 C   0  0  0  0  0  0  0  0  0  0  0  0
    9.5896  -19.6078   22.9853 O   0  0  0  0  0  0  0  0  0  0  0  0
    8.5873  -17.6274   22.5354 N   0  0  0  0  0  0  0  0  0  0  0  0
    9.7183  -16.8215   22.7606 C   0  0  1  0  0  0  0  0  0  0  0  0
    9.8335  -15.5500   22.0142 C   0  0  0  0  0  0  0  0  0  0  0  0
   10.1422  -15.7598   20.5610 C   0  0  0  0  0  0  0  0  0  0  0  0
   10.9598  -16.6352   20.1659 O   0  0  0  0  0  0  0  0  0  0  0  0
    9.8795  -16.5066   24.2110 C   0  0  0  0  0  0  0  0  0  0  0  0
   10.8875  -15.8288   24.6019 O   0  0  0  0  0  0  0  0  0  0  0  0
    9.5398  -14.9961   19.5707 O   0  0  0  0  0  0  0  0  0  0  0  0
    6.5328  -10.8495   25.8842 O   0  0  0  0  0  0  0  0  0  0  0  0
    6.9009  -12.1498   26.2314 C   0  0  0  0  0  0  0  0  0  0  0  0
    6.2533  -13.2094   25.6367 C   0  0  0  0  0  0  0  0  0  0  0  0
    6.6197  -14.4912   25.9822 C   0  0  0  0  0  0  0  0  0  0  0  0
    7.6083  -14.7663   26.8991 C   0  0  0  0  0  0  0  0  0  0  0  0
    7.9344  -16.1600   27.2111 C   0  0  0  0  0  0  0  0  0  0  0  0
    9.2296  -16.6533   26.6375 C   0  0  2  0  0  0  0  0  0  0  0  0
    8.9761  -16.9133   25.2114 N   0  0  0  0  0  0  0  0  0  0  0  0
    9.6385  -17.9393   27.2365 C   0  0  0  0  0  0  0  0  0  0  0  0
   10.0796  -17.9956   28.5611 O   0  0  0  0  0  0  0  0  0  0  0  0
    8.2528  -13.7041   27.4910 C   0  0  0  0  0  0  0  0  0  0  0  0
    7.8972  -12.4160   27.1554 C   0  0  0  0  0  0  0  0  0  0  0  0
    9.6139  -19.0325   26.6031 O   0  0  0  0  0  0  0  0  0  0  0  0
  1  2  1  0
  3  5  1  0
  3  2  1  0
  4  3  2  0
  6  5  1  0
  6 10  1  0
  6  7  1  6
  8  7  1  0
  8  9  2  0
 10 20  1  0
 11 10  2  0
 12  8  1  0
 13 14  1  0
 14 24  2  0
 14 15  1  0
 15 16  2  0
 16 17  1  0
 17 18  1  0
 19 18  1  1
 19 21  1  0
 20 19  1  0
 21 22  1  0
 23 17  2  0
 24 23  1  0
 25 21  2  0
M  END
$$$$
