GDY.pdb
     RDKit          3D

 25 25  0  0  1  0  0  0  0  0999 V2000
    7.1993  -12.7829   18.8111 N   0  0  0  0  0  0  0  0  0  0  0  0
    8.4258  -12.9697   19.5226 C   0  0  0  0  0  0  0  0  0  0  0  0
    8.3765  -14.2177   20.3474 C   0  0  0  0  0  0  0  0  0  0  0  0
    7.3121  -14.6521   20.8504 O   0  0  0  0  0  0  0  0  0  0  0  0
    9.5387  -14.9908   20.6125 N   0  0  0  0  0  0  0  0  0  0  0  0
    9.5991  -16.1808   21.3606 C   0  0  1  0  0  0  0  0  0  0  0  0
   10.6083  -17.1946   20.9857 C   0  0  0  0  0  0  0  0  0  0  0  0
   10.3825  -17.7530   19.6115 C   0  0  0  0  0  0  0  0  0  0  0  0
   11.2136  -17.5958   18.6759 O   0  0  0  0  0  0  0  0  0  0  0  0
    9.7669  -15.8977   22.8168 C   0  0  0  0  0  0  0  0  0  0  0  0
   10.7331  -15.1628   23.2101 O   0  0  0  0  0  0  0  0  0  0  0  0
    9.2398  -18.4759   19.2976 O   0  0  0  0  0  0  0  0  0  0  0  0
    6.1217  -10.4793   26.5143 O   0  0  0  0  0  0  0  0  0  0  0  0
    6.5029  -11.8057   26.3088 C   0  0  0  0  0  0  0  0  0  0  0  0
    7.1286  -12.4873   27.3284 C   0  0  0  0  0  0  0  0  0  0  0  0
    7.5032  -13.7963   27.1214 C   0  0  0  0  0  0  0  0  0  0  0  0
    7.2809  -14.4607   25.9369 C   0  0  0  0  0  0  0  0  0  0  0  0
    7.7137  -15.8534   25.7996 C   0  0  0  0  0  0  0  0  0  0  0  0
    9.0918  -16.0381   25.2368 C   0  0  2  0  0  0  0  0  0  0  0  0
    8.9138  -16.3952   23.8203 N   0  0  0  0  0  0  0  0  0  0  0  0
    9.7957  -17.1689   25.8736 C   0  0  0  0  0  0  0  0  0  0  0  0
   10.4593  -16.9954   27.0909 O   0  0  0  0  0  0  0  0  0  0  0  0
    6.6552  -13.7755   24.9206 C   0  0  0  0  0  0  0  0  0  0  0  0
    6.2747  -12.4653   25.1129 C   0  0  0  0  0  0  0  0  0  0  0  0
    9.8375  -18.3263   25.3682 O   0  0  0  0  0  0  0  0  0  0  0  0
  1  2  1  0
  3  5  1  0
  3  2  1  0
  4  3  2  0
  6  5  1  0
  6 10  1  0
  6  7  1  6
  8  7  1  0
  8  9  2  0
 10 20  1  0
 11 10  2  0
 12  8  1  0
 13 14  1  0
 14 24  2  0
 14 15  1  0
 15 16  2  0
 16 17  1  0
 17 18  1  0
 19 18  1  1
 19 21  1  0
 20 19  1  0
 21 22  1  0
 23 17  2  0
 24 23  1  0
 25 21  2  0
M  END
$$$$
