GDY.pdb
     RDKit          3D

 25 25  0  0  1  0  0  0  0  0999 V2000
   11.9427  -19.9892   24.9947 N   0  0  0  0  0  0  0  0  0  0  0  0
   10.9590  -20.9381   24.5736 C   0  0  0  0  0  0  0  0  0  0  0  0
    9.6771  -20.2520   24.2185 C   0  0  0  0  0  0  0  0  0  0  0  0
    9.4159  -19.8728   23.0510 O   0  0  0  0  0  0  0  0  0  0  0  0
    8.6722  -19.9866   25.1872 N   0  0  0  0  0  0  0  0  0  0  0  0
    7.4741  -19.2795   24.9776 C   0  0  1  0  0  0  0  0  0  0  0  0
    6.3742  -19.4592   25.9497 C   0  0  0  0  0  0  0  0  0  0  0  0
    6.2007  -20.8900   26.3668 C   0  0  0  0  0  0  0  0  0  0  0  0
    6.1768  -21.8362   25.5331 O   0  0  0  0  0  0  0  0  0  0  0  0
    7.7251  -17.8134   24.8500 C   0  0  0  0  0  0  0  0  0  0  0  0
    6.8069  -17.0525   24.3959 O   0  0  0  0  0  0  0  0  0  0  0  0
    6.0567  -21.2477   27.7002 O   0  0  0  0  0  0  0  0  0  0  0  0
   11.1319  -16.1694   31.0210 O   0  0  0  0  0  0  0  0  0  0  0  0
   10.5226  -15.9037   29.7942 C   0  0  0  0  0  0  0  0  0  0  0  0
   10.7375  -14.6849   29.1909 C   0  0  0  0  0  0  0  0  0  0  0  0
   10.1342  -14.4267   27.9801 C   0  0  0  0  0  0  0  0  0  0  0  0
    9.3215  -15.3340   27.3396 C   0  0  0  0  0  0  0  0  0  0  0  0
    8.7167  -14.9776   26.0538 C   0  0  0  0  0  0  0  0  0  0  0  0
    9.2017  -15.7761   24.8804 C   0  0  2  0  0  0  0  0  0  0  0  0
    8.9353  -17.1868   25.2037 N   0  0  0  0  0  0  0  0  0  0  0  0
   10.6618  -15.6512   24.6997 C   0  0  0  0  0  0  0  0  0  0  0  0
   11.2249  -14.4367   24.2995 O   0  0  0  0  0  0  0  0  0  0  0  0
    9.1095  -16.5508   27.9463 C   0  0  0  0  0  0  0  0  0  0  0  0
    9.7064  -16.8235   29.1578 C   0  0  0  0  0  0  0  0  0  0  0  0
   11.4635  -16.6091   24.8911 O   0  0  0  0  0  0  0  0  0  0  0  0
  1  2  1  0
  3  5  1  0
  3  2  1  0
  4  3  2  0
  6  5  1  0
  6 10  1  0
  6  7  1  1
  8  7  1  0
  8  9  2  0
 10 20  1  0
 11 10  2  0
 12  8  1  0
 13 14  1  0
 14 24  2  0
 14 15  1  0
 15 16  2  0
 16 17  1  0
 17 18  1  0
 19 18  1  1
 19 21  1  0
 20 19  1  0
 21 22  1  0
 23 17  2  0
 24 23  1  0
 25 21  2  0
M  END
$$$$
