GDY.pdb
     RDKit          3D

 25 25  0  0  1  0  0  0  0  0999 V2000
    7.1305  -12.6210   18.9339 N   0  0  0  0  0  0  0  0  0  0  0  0
    8.3638  -13.3309   19.0767 C   0  0  0  0  0  0  0  0  0  0  0  0
    8.2529  -14.3797   20.1388 C   0  0  0  0  0  0  0  0  0  0  0  0
    7.2321  -14.5064   20.8576 O   0  0  0  0  0  0  0  0  0  0  0  0
    9.3028  -15.3009   20.3992 N   0  0  0  0  0  0  0  0  0  0  0  0
    9.2472  -16.4103   21.2625 C   0  0  1  0  0  0  0  0  0  0  0  0
   10.0410  -17.6091   20.9162 C   0  0  0  0  0  0  0  0  0  0  0  0
    9.5722  -18.2660   19.6513 C   0  0  0  0  0  0  0  0  0  0  0  0
    9.7671  -17.7547   18.5149 O   0  0  0  0  0  0  0  0  0  0  0  0
    9.6006  -16.0270   22.6614 C   0  0  0  0  0  0  0  0  0  0  0  0
   10.6311  -15.3060   22.8777 O   0  0  0  0  0  0  0  0  0  0  0  0
    8.8957  -19.4780   19.6674 O   0  0  0  0  0  0  0  0  0  0  0  0
    5.8553  -10.6773   26.2676 O   0  0  0  0  0  0  0  0  0  0  0  0
    6.4193  -11.9507   26.1830 C   0  0  0  0  0  0  0  0  0  0  0  0
    5.6297  -13.0498   26.4361 C   0  0  0  0  0  0  0  0  0  0  0  0
    6.1903  -14.3049   26.3515 C   0  0  0  0  0  0  0  0  0  0  0  0
    7.5103  -14.5152   26.0241 C   0  0  0  0  0  0  0  0  0  0  0  0
    8.0272  -15.8843   25.9585 C   0  0  0  0  0  0  0  0  0  0  0  0
    9.2846  -16.0512   25.1578 C   0  0  2  0  0  0  0  0  0  0  0  0
    8.8606  -16.4123   23.7955 N   0  0  0  0  0  0  0  0  0  0  0  0
   10.1062  -17.1718   25.6567 C   0  0  0  0  0  0  0  0  0  0  0  0
   10.8858  -17.0217   26.8065 O   0  0  0  0  0  0  0  0  0  0  0  0
    8.2957  -13.4137   25.7720 C   0  0  0  0  0  0  0  0  0  0  0  0
    7.7489  -12.1516   25.8528 C   0  0  0  0  0  0  0  0  0  0  0  0
   10.1505  -18.2995   25.0882 O   0  0  0  0  0  0  0  0  0  0  0  0
  1  2  1  0
  3  5  1  0
  3  2  1  0
  4  3  2  0
  6  5  1  0
  6 10  1  0
  6  7  1  6
  8  7  1  0
  8  9  2  0
 10 20  1  0
 11 10  2  0
 12  8  1  0
 13 14  1  0
 14 24  2  0
 14 15  1  0
 15 16  2  0
 16 17  1  0
 17 18  1  0
 19 18  1  1
 19 21  1  0
 20 19  1  0
 21 22  1  0
 23 17  2  0
 24 23  1  0
 25 21  2  0
M  END
$$$$
