GDY.pdb
     RDKit          3D

 25 25  0  0  1  0  0  0  0  0999 V2000
    7.5253  -17.4007   18.2781 N   0  0  0  0  0  0  0  0  0  0  0  0
    8.9100  -17.1298   18.5124 C   0  0  0  0  0  0  0  0  0  0  0  0
    9.3129  -17.5722   19.8842 C   0  0  0  0  0  0  0  0  0  0  0  0
    8.4969  -18.0636   20.7013 O   0  0  0  0  0  0  0  0  0  0  0  0
   10.6515  -17.4621   20.3475 N   0  0  0  0  0  0  0  0  0  0  0  0
   11.1068  -17.7081   21.6558 C   0  0  1  0  0  0  0  0  0  0  0  0
   12.5583  -17.8931   21.8702 C   0  0  0  0  0  0  0  0  0  0  0  0
   13.1610  -18.8824   20.9167 C   0  0  0  0  0  0  0  0  0  0  0  0
   12.6901  -20.0423   20.7629 O   0  0  0  0  0  0  0  0  0  0  0  0
   10.6456  -16.6467   22.5989 C   0  0  0  0  0  0  0  0  0  0  0  0
   11.2378  -15.5165   22.6164 O   0  0  0  0  0  0  0  0  0  0  0  0
   14.2752  -18.5695   20.1501 O   0  0  0  0  0  0  0  0  0  0  0  0
    7.1765  -13.0541   18.9440 O   0  0  0  0  0  0  0  0  0  0  0  0
    7.3054  -13.6518   20.1982 C   0  0  0  0  0  0  0  0  0  0  0  0
    7.9435  -12.9626   21.2049 C   0  0  0  0  0  0  0  0  0  0  0  0
    8.0686  -13.5562   22.4413 C   0  0  0  0  0  0  0  0  0  0  0  0
    7.5835  -14.8132   22.7213 C   0  0  0  0  0  0  0  0  0  0  0  0
    7.7614  -15.3718   24.0638 C   0  0  0  0  0  0  0  0  0  0  0  0
    9.1736  -15.7286   24.4217 C   0  0  2  0  0  0  0  0  0  0  0  0
    9.5738  -16.8025   23.4984 N   0  0  0  0  0  0  0  0  0  0  0  0
    9.2682  -16.2855   25.7858 C   0  0  0  0  0  0  0  0  0  0  0  0
    9.0660  -15.4677   26.9005 O   0  0  0  0  0  0  0  0  0  0  0  0
    6.9465  -15.4983   21.7120 C   0  0  0  0  0  0  0  0  0  0  0  0
    6.8138  -14.9174   20.4697 C   0  0  0  0  0  0  0  0  0  0  0  0
    9.5305  -17.4998   26.0169 O   0  0  0  0  0  0  0  0  0  0  0  0
  1  2  1  0
  3  5  1  0
  3  2  1  0
  4  3  2  0
  6  5  1  0
  6 10  1  0
  6  7  1  6
  8  7  1  0
  8  9  2  0
 10 20  1  0
 11 10  2  0
 12  8  1  0
 13 14  1  0
 14 24  2  0
 14 15  1  0
 15 16  2  0
 16 17  1  0
 17 18  1  0
 19 18  1  6
 19 21  1  0
 20 19  1  0
 21 22  1  0
 23 17  2  0
 24 23  1  0
 25 21  2  0
M  END
$$$$
