GDY.pdb
     RDKit          3D

 25 25  0  0  1  0  0  0  0  0999 V2000
    8.5247  -16.9442   15.0308 N   0  0  0  0  0  0  0  0  0  0  0  0
    9.1708  -16.0771   15.9667 C   0  0  0  0  0  0  0  0  0  0  0  0
    9.4578  -16.7970   17.2471 C   0  0  0  0  0  0  0  0  0  0  0  0
    8.5895  -16.9604   18.1383 O   0  0  0  0  0  0  0  0  0  0  0  0
   10.7382  -17.3424   17.5330 N   0  0  0  0  0  0  0  0  0  0  0  0
   11.1401  -17.9461   18.7386 C   0  0  1  0  0  0  0  0  0  0  0  0
   12.3644  -18.7755   18.7337 C   0  0  0  0  0  0  0  0  0  0  0  0
   12.5312  -19.5657   19.9983 C   0  0  0  0  0  0  0  0  0  0  0  0
   13.4493  -19.3223   20.8282 O   0  0  0  0  0  0  0  0  0  0  0  0
   11.2867  -16.9361   19.8282 C   0  0  0  0  0  0  0  0  0  0  0  0
   12.1553  -16.0080   19.7165 O   0  0  0  0  0  0  0  0  0  0  0  0
   11.6779  -20.6118   20.3215 O   0  0  0  0  0  0  0  0  0  0  0  0
    7.2214  -12.3724   17.8894 O   0  0  0  0  0  0  0  0  0  0  0  0
    7.7716  -13.0735   18.9629 C   0  0  0  0  0  0  0  0  0  0  0  0
    7.0217  -14.0504   19.5784 C   0  0  0  0  0  0  0  0  0  0  0  0
    7.5685  -14.7400   20.6376 C   0  0  0  0  0  0  0  0  0  0  0  0
    8.8368  -14.4985   21.1140 C   0  0  0  0  0  0  0  0  0  0  0  0
    9.3412  -15.2769   22.2479 C   0  0  0  0  0  0  0  0  0  0  0  0
   10.6906  -15.8986   22.0418 C   0  0  2  0  0  0  0  0  0  0  0  0
   10.5155  -16.9293   21.0061 N   0  0  0  0  0  0  0  0  0  0  0  0
   11.1638  -16.5936   23.2555 C   0  0  0  0  0  0  0  0  0  0  0  0
   11.6337  -15.8652   24.3513 O   0  0  0  0  0  0  0  0  0  0  0  0
    9.5828  -13.5211   20.4958 C   0  0  0  0  0  0  0  0  0  0  0  0
    9.0490  -12.8228   19.4348 C   0  0  0  0  0  0  0  0  0  0  0  0
   11.1709  -17.8521   23.3695 O   0  0  0  0  0  0  0  0  0  0  0  0
  1  2  1  0
  3  5  1  0
  3  2  1  0
  4  3  2  0
  6  5  1  0
  6 10  1  0
  6  7  1  6
  8  7  1  0
  8  9  2  0
 10 20  1  0
 11 10  2  0
 12  8  1  0
 13 14  1  0
 14 24  2  0
 14 15  1  0
 15 16  2  0
 16 17  1  0
 17 18  1  0
 19 18  1  1
 19 21  1  0
 20 19  1  0
 21 22  1  0
 23 17  2  0
 24 23  1  0
 25 21  2  0
M  END
$$$$
