GDY.pdb
     RDKit          3D

 25 25  0  0  1  0  0  0  0  0999 V2000
    6.5354  -18.5849   18.6794 N   0  0  0  0  0  0  0  0  0  0  0  0
    7.5292  -17.5872   18.9290 C   0  0  0  0  0  0  0  0  0  0  0  0
    8.3084  -17.9113   20.1650 C   0  0  0  0  0  0  0  0  0  0  0  0
    7.7765  -18.4105   21.1862 O   0  0  0  0  0  0  0  0  0  0  0  0
    9.7058  -17.6722   20.2579 N   0  0  0  0  0  0  0  0  0  0  0  0
   10.4933  -17.7555   21.4208 C   0  0  1  0  0  0  0  0  0  0  0  0
   11.9640  -17.6959   21.2779 C   0  0  0  0  0  0  0  0  0  0  0  0
   12.5097  -18.8233   20.4519 C   0  0  0  0  0  0  0  0  0  0  0  0
   11.7979  -19.8004   20.0923 O   0  0  0  0  0  0  0  0  0  0  0  0
   10.0972  -16.7186   22.4192 C   0  0  0  0  0  0  0  0  0  0  0  0
   10.3584  -15.4904   22.1919 O   0  0  0  0  0  0  0  0  0  0  0  0
   13.8346  -18.8486   20.0385 O   0  0  0  0  0  0  0  0  0  0  0  0
    7.1286  -12.4412   19.5183 O   0  0  0  0  0  0  0  0  0  0  0  0
    7.2772  -13.1792   20.6931 C   0  0  0  0  0  0  0  0  0  0  0  0
    6.7831  -14.4633   20.7429 C   0  0  0  0  0  0  0  0  0  0  0  0
    6.9318  -15.1884   21.9043 C   0  0  0  0  0  0  0  0  0  0  0  0
    7.5545  -14.6883   23.0250 C   0  0  0  0  0  0  0  0  0  0  0  0
    7.6683  -15.5267   24.2209 C   0  0  0  0  0  0  0  0  0  0  0  0
    9.0657  -15.9384   24.5778 C   0  0  2  0  0  0  0  0  0  0  0  0
    9.4368  -17.0014   23.6301 N   0  0  0  0  0  0  0  0  0  0  0  0
    9.1331  -16.5321   25.9280 C   0  0  0  0  0  0  0  0  0  0  0  0
    9.1360  -15.7155   27.0617 O   0  0  0  0  0  0  0  0  0  0  0  0
    8.0468  -13.4044   22.9706 C   0  0  0  0  0  0  0  0  0  0  0  0
    7.9055  -12.6668   21.8155 C   0  0  0  0  0  0  0  0  0  0  0  0
    9.1907  -17.7782   26.1300 O   0  0  0  0  0  0  0  0  0  0  0  0
  1  2  1  0
  3  5  1  0
  3  2  1  0
  4  3  2  0
  6  5  1  0
  6 10  1  0
  6  7  1  6
  8  7  1  0
  8  9  2  0
 10 20  1  0
 11 10  2  0
 12  8  1  0
 13 14  1  0
 14 24  2  0
 14 15  1  0
 15 16  2  0
 16 17  1  0
 17 18  1  0
 19 18  1  6
 19 21  1  0
 20 19  1  0
 21 22  1  0
 23 17  2  0
 24 23  1  0
 25 21  2  0
M  END
$$$$
