NEC.pdb
     RDKit          3D

 24 23  0  0  1  0  0  0  0  0999 V2000
   18.9874  -14.6376  -15.6920 N   0  0  0  0  0  0  0  0  0  0  0  0
   20.1842  -13.8460  -15.6820 C   0  0  0  0  0  0  0  0  0  0  0  0
   21.2171  -14.4671  -15.3170 O   0  0  0  0  0  0  0  0  0  0  0  0
   20.1670  -12.4346  -16.0711 C   0  0  0  0  0  0  0  0  0  0  0  0
   18.8275  -11.8875  -16.4278 C   0  0  2  0  0  0  0  0  0  0  0  0
   18.4734  -12.3565  -17.7828 N   0  0  0  0  0  0  0  0  0  0  0  0
   18.8209  -10.3980  -16.4720 C   0  0  0  0  0  0  0  0  0  0  0  0
   19.5889   -9.7469  -17.2000 O   0  0  0  0  0  0  0  0  0  0  0  0
   17.9063   -9.6623  -15.6558 N   0  0  0  0  0  0  0  0  0  0  0  0
   17.8095   -8.2008  -15.7012 C   0  0  1  0  0  0  0  0  0  0  0  0
   16.4664   -7.7486  -15.2331 C   0  0  0  0  0  0  0  0  0  0  0  0
   16.2845   -6.2696  -15.2431 C   0  0  0  0  0  0  0  0  0  0  0  0
   14.9580   -5.7892  -14.8282 C   0  0  0  0  0  0  0  0  0  0  0  0
   14.0554   -5.5880  -15.6451 O   0  0  0  0  0  0  0  0  0  0  0  0
   18.8605   -7.5942  -14.8485 C   0  0  0  0  0  0  0  0  0  0  0  0
   19.3946   -8.2393  -13.9522 O   0  0  0  0  0  0  0  0  0  0  0  0
   14.6687   -5.5413  -13.4847 O   0  0  0  0  0  0  0  0  0  0  0  0
   19.2900   -6.2325  -15.0410 N   0  0  0  0  0  0  0  0  0  0  0  0
   20.3751   -5.6296  -14.3433 C   0  0  1  0  0  0  0  0  0  0  0  0
   21.6807   -6.3640  -14.4580 C   0  0  0  0  0  0  0  0  0  0  0  0
   23.0399   -5.4930  -13.6309 S   0  0  0  0  0  0  0  0  0  0  0  0
   20.6201   -4.2235  -14.7513 C   0  0  0  0  0  0  0  0  0  0  0  0
   20.4077   -3.9074  -15.9460 O   0  0  0  0  0  0  0  0  0  0  0  0
   21.0702   -3.2541  -13.8736 O   0  0  0  0  0  0  0  0  0  0  0  0
  1  2  1  0
  2  3  2  0
  4  5  1  0
  4  2  1  0
  5  6  1  6
  7  5  1  0
  8  7  2  0
  9  7  1  0
 10 11  1  1
 10  9  1  0
 11 12  1  0
 13 12  1  0
 13 17  1  0
 14 13  2  0
 15 18  1  0
 15 10  1  0
 16 15  2  0
 19 20  1  6
 19 18  1  0
 20 21  1  0
 22 19  1  0
 22 24  1  0
 23 22  2  0
M  END
$$$$
