NEC.pdb
     RDKit          3D

 24 23  0  0  1  0  0  0  0  0999 V2000
   14.7610  -12.2259  -14.1969 N   0  0  0  0  0  0  0  0  0  0  0  0
   16.1824  -12.4199  -14.2298 C   0  0  0  0  0  0  0  0  0  0  0  0
   16.5601  -13.5686  -13.8781 O   0  0  0  0  0  0  0  0  0  0  0  0
   17.0881  -11.3467  -14.6442 C   0  0  0  0  0  0  0  0  0  0  0  0
   16.9004  -10.8565  -16.0388 C   0  0  2  0  0  0  0  0  0  0  0  0
   17.3231  -11.9201  -16.9723 N   0  0  0  0  0  0  0  0  0  0  0  0
   17.7430   -9.6636  -16.3348 C   0  0  0  0  0  0  0  0  0  0  0  0
   18.9692   -9.7400  -16.5205 O   0  0  0  0  0  0  0  0  0  0  0  0
   17.1451   -8.3675  -16.4144 N   0  0  0  0  0  0  0  0  0  0  0  0
   17.9290   -7.1503  -16.6414 C   0  0  1  0  0  0  0  0  0  0  0  0
   17.0413   -6.0222  -17.0497 C   0  0  0  0  0  0  0  0  0  0  0  0
   17.7673   -4.7595  -17.3646 C   0  0  0  0  0  0  0  0  0  0  0  0
   16.9232   -3.6229  -17.7623 C   0  0  0  0  0  0  0  0  0  0  0  0
   17.4053   -2.5905  -18.2360 O   0  0  0  0  0  0  0  0  0  0  0  0
   18.6633   -6.7800  -15.4071 C   0  0  0  0  0  0  0  0  0  0  0  0
   18.2489   -7.1168  -14.3027 O   0  0  0  0  0  0  0  0  0  0  0  0
   15.5351   -3.6702  -17.6174 O   0  0  0  0  0  0  0  0  0  0  0  0
   19.8834   -6.0156  -15.4602 N   0  0  0  0  0  0  0  0  0  0  0  0
   20.6174   -5.5996  -14.3132 C   0  0  1  0  0  0  0  0  0  0  0  0
   21.6796   -6.5625  -13.8644 C   0  0  0  0  0  0  0  0  0  0  0  0
   22.6194   -5.9430  -12.4420 S   0  0  0  0  0  0  0  0  0  0  0  0
   21.2643   -4.2746  -14.4851 C   0  0  0  0  0  0  0  0  0  0  0  0
   21.6342   -3.9404  -15.6357 O   0  0  0  0  0  0  0  0  0  0  0  0
   21.4746   -3.3993  -13.4352 O   0  0  0  0  0  0  0  0  0  0  0  0
  1  2  1  0
  2  3  2  0
  4  5  1  0
  4  2  1  0
  5  6  1  6
  7  5  1  0
  8  7  2  0
  9  7  1  0
 10 11  1  1
 10  9  1  0
 11 12  1  0
 13 12  1  0
 13 17  1  0
 14 13  2  0
 15 18  1  0
 15 10  1  0
 16 15  2  0
 19 20  1  6
 19 18  1  0
 20 21  1  0
 22 19  1  0
 22 24  1  0
 23 22  2  0
M  END
$$$$
