NEC.pdb
     RDKit          3D

 24 23  0  0  1  0  0  0  0  0999 V2000
   12.3012  -10.6209   -9.4153 N   0  0  0  0  0  0  0  0  0  0  0  0
   12.1136   -9.2015   -9.5126 C   0  0  0  0  0  0  0  0  0  0  0  0
   10.9251   -8.8464   -9.7301 O   0  0  0  0  0  0  0  0  0  0  0  0
   13.2361   -8.2731   -9.3652 C   0  0  0  0  0  0  0  0  0  0  0  0
   14.5644   -8.9092   -9.1375 C   0  0  2  0  0  0  0  0  0  0  0  0
   14.7803   -9.0396   -7.6823 N   0  0  0  0  0  0  0  0  0  0  0  0
   15.6840   -8.0804   -9.6667 C   0  0  0  0  0  0  0  0  0  0  0  0
   16.2717   -7.2307   -8.9764 O   0  0  0  0  0  0  0  0  0  0  0  0
   16.1209   -8.2471  -11.0177 N   0  0  0  0  0  0  0  0  0  0  0  0
   17.1841   -7.4300  -11.6088 C   0  0  1  0  0  0  0  0  0  0  0  0
   17.8183   -8.1432  -12.7563 C   0  0  0  0  0  0  0  0  0  0  0  0
   18.9769   -7.4227  -13.3555 C   0  0  0  0  0  0  0  0  0  0  0  0
   19.6590   -8.1197  -14.4561 C   0  0  0  0  0  0  0  0  0  0  0  0
   19.3914   -7.8859  -15.6378 O   0  0  0  0  0  0  0  0  0  0  0  0
   16.6313   -6.1353  -12.0757 C   0  0  0  0  0  0  0  0  0  0  0  0
   15.7297   -6.0984  -12.9067 O   0  0  0  0  0  0  0  0  0  0  0  0
   20.6419   -9.0790  -14.2028 O   0  0  0  0  0  0  0  0  0  0  0  0
   17.1304   -4.8809  -11.5728 N   0  0  0  0  0  0  0  0  0  0  0  0
   16.6266   -3.6065  -11.9595 C   0  0  1  0  0  0  0  0  0  0  0  0
   16.1691   -2.7403  -10.8204 C   0  0  0  0  0  0  0  0  0  0  0  0
   14.5108   -3.1848  -10.2353 S   0  0  0  0  0  0  0  0  0  0  0  0
   17.5965   -2.8145  -12.7567 C   0  0  0  0  0  0  0  0  0  0  0  0
   17.2592   -1.6659  -13.1298 O   0  0  0  0  0  0  0  0  0  0  0  0
   18.8489   -3.2885  -13.1028 O   0  0  0  0  0  0  0  0  0  0  0  0
  1  2  1  0
  2  3  2  0
  4  5  1  0
  4  2  1  0
  5  6  1  1
  7  5  1  0
  8  7  2  0
  9  7  1  0
 10 11  1  6
 10  9  1  0
 11 12  1  0
 13 12  1  0
 13 17  1  0
 14 13  2  0
 15 18  1  0
 15 10  1  0
 16 15  2  0
 19 20  1  1
 19 18  1  0
 20 21  1  0
 22 19  1  0
 22 24  1  0
 23 22  2  0
M  END
$$$$
