NEC.pdb
     RDKit          3D

 24 23  0  0  1  0  0  0  0  0999 V2000
   17.7200  -13.7271  -16.4438 N   0  0  0  0  0  0  0  0  0  0  0  0
   18.7676  -13.6832  -15.4640 C   0  0  0  0  0  0  0  0  0  0  0  0
   18.9467  -14.7642  -14.8435 O   0  0  0  0  0  0  0  0  0  0  0  0
   19.5434  -12.4632  -15.2329 C   0  0  0  0  0  0  0  0  0  0  0  0
   19.1769  -11.3018  -16.0916 C   0  0  2  0  0  0  0  0  0  0  0  0
   19.7659  -11.5025  -17.4310 N   0  0  0  0  0  0  0  0  0  0  0  0
   19.7248  -10.0188  -15.5678 C   0  0  0  0  0  0  0  0  0  0  0  0
   19.3994   -9.5541  -14.4624 O   0  0  0  0  0  0  0  0  0  0  0  0
   20.6632   -9.2714  -16.3453 N   0  0  0  0  0  0  0  0  0  0  0  0
   21.2067   -7.9847  -15.9018 C   0  0  1  0  0  0  0  0  0  0  0  0
   22.6510   -7.8727  -16.2609 C   0  0  0  0  0  0  0  0  0  0  0  0
   23.5451   -8.7683  -15.4742 C   0  0  0  0  0  0  0  0  0  0  0  0
   24.9699   -8.7211  -15.8353 C   0  0  0  0  0  0  0  0  0  0  0  0
   25.3947   -7.9540  -16.7034 O   0  0  0  0  0  0  0  0  0  0  0  0
   20.4535   -6.8709  -16.5280 C   0  0  0  0  0  0  0  0  0  0  0  0
   20.1069   -6.9272  -17.7033 O   0  0  0  0  0  0  0  0  0  0  0  0
   25.9014   -9.5485  -15.2044 O   0  0  0  0  0  0  0  0  0  0  0  0
   20.1035   -5.6888  -15.7823 N   0  0  0  0  0  0  0  0  0  0  0  0
   19.3553   -4.6001  -16.3136 C   0  0  1  0  0  0  0  0  0  0  0  0
   17.9298   -4.9267  -16.6578 C   0  0  0  0  0  0  0  0  0  0  0  0
   16.9815   -3.4592  -17.1449 S   0  0  0  0  0  0  0  0  0  0  0  0
   19.3350   -3.4160  -15.4186 C   0  0  0  0  0  0  0  0  0  0  0  0
   19.5388   -3.5947  -14.1944 O   0  0  0  0  0  0  0  0  0  0  0  0
   19.1019   -2.1319  -15.8767 O   0  0  0  0  0  0  0  0  0  0  0  0
  1  2  1  0
  2  3  2  0
  4  5  1  0
  4  2  1  0
  5  6  1  6
  7  5  1  0
  8  7  2  0
  9  7  1  0
 10 11  1  6
 10  9  1  0
 11 12  1  0
 13 12  1  0
 13 17  1  0
 14 13  2  0
 15 18  1  0
 15 10  1  0
 16 15  2  0
 19 20  1  1
 19 18  1  0
 20 21  1  0
 22 19  1  0
 22 24  1  0
 23 22  2  0
M  END
$$$$
