NEC.pdb
     RDKit          3D

 24 23  0  0  1  0  0  0  0  0999 V2000
   18.8603  -15.7103  -18.1270 N   0  0  0  0  0  0  0  0  0  0  0  0
   19.7922  -14.6812  -18.4898 C   0  0  0  0  0  0  0  0  0  0  0  0
   20.1513  -14.7047  -19.6966 O   0  0  0  0  0  0  0  0  0  0  0  0
   20.2642  -13.7013  -17.5096 C   0  0  0  0  0  0  0  0  0  0  0  0
   21.7386  -13.4862  -17.4817 C   0  0  2  0  0  0  0  0  0  0  0  0
   22.3843  -14.7174  -16.9833 N   0  0  0  0  0  0  0  0  0  0  0  0
   22.1302  -12.3882  -16.5535 C   0  0  0  0  0  0  0  0  0  0  0  0
   22.0009  -12.4761  -15.3208 O   0  0  0  0  0  0  0  0  0  0  0  0
   22.6787  -11.1743  -17.0725 N   0  0  0  0  0  0  0  0  0  0  0  0
   23.2243  -10.1234  -16.2092 C   0  0  1  0  0  0  0  0  0  0  0  0
   24.6830   -9.9381  -16.4649 C   0  0  0  0  0  0  0  0  0  0  0  0
   25.5630  -10.7863  -15.6124 C   0  0  0  0  0  0  0  0  0  0  0  0
   27.0079  -10.6299  -15.8367 C   0  0  0  0  0  0  0  0  0  0  0  0
   27.6843   -9.8326  -15.1813 O   0  0  0  0  0  0  0  0  0  0  0  0
   22.5133   -8.8446  -16.4523 C   0  0  0  0  0  0  0  0  0  0  0  0
   22.4952   -8.3362  -17.5685 O   0  0  0  0  0  0  0  0  0  0  0  0
   27.6728  -11.3831  -16.8067 O   0  0  0  0  0  0  0  0  0  0  0  0
   21.8216   -8.1570  -15.3918 N   0  0  0  0  0  0  0  0  0  0  0  0
   21.0805   -6.9540  -15.5683 C   0  0  1  0  0  0  0  0  0  0  0  0
   19.6806   -6.9937  -15.0245 C   0  0  0  0  0  0  0  0  0  0  0  0
   18.7159   -8.3753  -15.6960 S   0  0  0  0  0  0  0  0  0  0  0  0
   21.7503   -5.7662  -14.9817 C   0  0  0  0  0  0  0  0  0  0  0  0
   22.7779   -5.9482  -14.2865 O   0  0  0  0  0  0  0  0  0  0  0  0
   21.2906   -4.4754  -15.1693 O   0  0  0  0  0  0  0  0  0  0  0  0
  1  2  1  0
  2  3  2  0
  4  5  1  0
  4  2  1  0
  5  6  1  1
  7  5  1  0
  8  7  2  0
  9  7  1  0
 10 11  1  6
 10  9  1  0
 11 12  1  0
 13 12  1  0
 13 17  1  0
 14 13  2  0
 15 18  1  0
 15 10  1  0
 16 15  2  0
 19 20  1  1
 19 18  1  0
 20 21  1  0
 22 19  1  0
 22 24  1  0
 23 22  2  0
M  END
$$$$
