NEC.pdb
     RDKit          3D

 24 23  0  0  1  0  0  0  0  0999 V2000
   14.8599   -1.6640  -13.7291 N   0  0  0  0  0  0  0  0  0  0  0  0
   14.2591   -2.9495  -13.9433 C   0  0  0  0  0  0  0  0  0  0  0  0
   13.1059   -3.0742  -13.4528 O   0  0  0  0  0  0  0  0  0  0  0  0
   14.9600   -4.0049  -14.6770 C   0  0  0  0  0  0  0  0  0  0  0  0
   16.3351   -3.6584  -15.1349 C   0  0  2  0  0  0  0  0  0  0  0  0
   16.2299   -2.7955  -16.3289 N   0  0  0  0  0  0  0  0  0  0  0  0
   17.1139   -4.8623  -15.5406 C   0  0  0  0  0  0  0  0  0  0  0  0
   17.2453   -5.2055  -16.7275 O   0  0  0  0  0  0  0  0  0  0  0  0
   17.7458   -5.6736  -14.5473 N   0  0  0  0  0  0  0  0  0  0  0  0
   18.5829   -6.8272  -14.8877 C   0  0  1  0  0  0  0  0  0  0  0  0
   19.8934   -6.7531  -14.1773 C   0  0  0  0  0  0  0  0  0  0  0  0
   20.8030   -5.6887  -14.6874 C   0  0  0  0  0  0  0  0  0  0  0  0
   22.0881   -5.5596  -13.9842 C   0  0  0  0  0  0  0  0  0  0  0  0
   22.3506   -6.2309  -12.9827 O   0  0  0  0  0  0  0  0  0  0  0  0
   17.8904   -8.0856  -14.5178 C   0  0  0  0  0  0  0  0  0  0  0  0
   17.2923   -8.1855  -13.4515 O   0  0  0  0  0  0  0  0  0  0  0  0
   23.0657   -4.6661  -14.4270 O   0  0  0  0  0  0  0  0  0  0  0  0
   17.8949   -9.2300  -15.3930 N   0  0  0  0  0  0  0  0  0  0  0  0
   17.3486  -10.5001  -15.0522 C   0  0  1  0  0  0  0  0  0  0  0  0
   15.9688  -10.7544  -15.5892 C   0  0  0  0  0  0  0  0  0  0  0  0
   15.3421  -12.3958  -15.1383 S   0  0  0  0  0  0  0  0  0  0  0  0
   18.2057  -11.6353  -15.4767 C   0  0  0  0  0  0  0  0  0  0  0  0
   18.9557  -11.4733  -16.4684 O   0  0  0  0  0  0  0  0  0  0  0  0
   18.2109  -12.8565  -14.8275 O   0  0  0  0  0  0  0  0  0  0  0  0
  1  2  1  0
  2  3  2  0
  4  5  1  0
  4  2  1  0
  5  6  1  6
  7  5  1  0
  8  7  2  0
  9  7  1  0
 10 11  1  1
 10  9  1  0
 11 12  1  0
 13 12  1  0
 13 17  1  0
 14 13  2  0
 15 18  1  0
 15 10  1  0
 16 15  2  0
 19 20  1  6
 19 18  1  0
 20 21  1  0
 22 19  1  0
 22 24  1  0
 23 22  2  0
M  END
$$$$
