NEC.pdb
     RDKit          3D

 24 23  0  0  1  0  0  0  0  0999 V2000
   31.8234  -29.9817  -16.1972 N   0  0  0  0  0  0  0  0  0  0  0  0
   31.1388  -30.3015  -17.4171 C   0  0  0  0  0  0  0  0  0  0  0  0
   31.5433  -29.6633  -18.4246 O   0  0  0  0  0  0  0  0  0  0  0  0
   30.0632  -31.2943  -17.4490 C   0  0  0  0  0  0  0  0  0  0  0  0
   29.7935  -31.9845  -16.1561 C   0  0  2  0  0  0  0  0  0  0  0  0
   30.8987  -32.9263  -15.8860 N   0  0  0  0  0  0  0  0  0  0  0  0
   28.5410  -32.7907  -16.1984 C   0  0  0  0  0  0  0  0  0  0  0  0
   28.5347  -34.0249  -16.0553 O   0  0  0  0  0  0  0  0  0  0  0  0
   27.2825  -32.1465  -16.4105 N   0  0  0  0  0  0  0  0  0  0  0  0
   26.0084  -32.8685  -16.3561 C   0  0  1  0  0  0  0  0  0  0  0  0
   25.2604  -32.5209  -15.1123 C   0  0  0  0  0  0  0  0  0  0  0  0
   23.9975  -33.2899  -14.9264 C   0  0  0  0  0  0  0  0  0  0  0  0
   23.2939  -33.0596  -13.6559 C   0  0  0  0  0  0  0  0  0  0  0  0
   22.4356  -32.1809  -13.5388 O   0  0  0  0  0  0  0  0  0  0  0  0
   25.1816  -32.5321  -17.5407 C   0  0  0  0  0  0  0  0  0  0  0  0
   24.8938  -31.3677  -17.7978 O   0  0  0  0  0  0  0  0  0  0  0  0
   23.5731  -33.8325  -12.5267 O   0  0  0  0  0  0  0  0  0  0  0  0
   24.6895  -33.5553  -18.4276 N   0  0  0  0  0  0  0  0  0  0  0  0
   23.9159  -33.2978  -19.5950 C   0  0  1  0  0  0  0  0  0  0  0  0
   24.6228  -33.5776  -20.8908 C   0  0  0  0  0  0  0  0  0  0  0  0
   25.9383  -32.3771  -21.2350 S   0  0  0  0  0  0  0  0  0  0  0  0
   22.6331  -34.0445  -19.6197 C   0  0  0  0  0  0  0  0  0  0  0  0
   22.4452  -34.9288  -18.7509 O   0  0  0  0  0  0  0  0  0  0  0  0
   21.6431  -33.8063  -20.5557 O   0  0  0  0  0  0  0  0  0  0  0  0
  1  2  1  0
  2  3  2  0
  4  5  1  0
  4  2  1  0
  5  6  1  6
  7  5  1  0
  8  7  2  0
  9  7  1  0
 10 11  1  1
 10  9  1  0
 11 12  1  0
 13 12  1  0
 13 17  1  0
 14 13  2  0
 15 18  1  0
 15 10  1  0
 16 15  2  0
 19 20  1  6
 19 18  1  0
 20 21  1  0
 22 19  1  0
 22 24  1  0
 23 22  2  0
M  END
$$$$
