YWP.pdb
     RDKit          3D

 34 37  0  0  1  0  0  0  0  0999 V2000
   21.2721  -15.2233  -22.1915 O   0  0  0  0  0  0  0  0  0  0  0  0
   22.1949  -15.2544  -21.1719 C   0  0  0  0  0  0  0  0  0  0  0  0
   22.5054  -16.4177  -20.4899 C   0  0  0  0  0  0  0  0  0  0  0  0
   23.4341  -16.3760  -19.4856 C   0  0  0  0  0  0  0  0  0  0  0  0
   24.0967  -15.2190  -19.1002 C   0  0  0  0  0  0  0  0  0  0  0  0
   25.0984  -15.2124  -18.0023 C   0  0  0  0  0  0  0  0  0  0  0  0
   24.3464  -15.3517  -16.6816 C   0  0  2  0  0  0  0  0  0  0  0  0
   24.3610  -14.0097  -16.1005 N   0  0  0  0  0  0  0  0  0  0  0  0
   25.0187  -16.3252  -15.7874 C   0  0  0  0  0  0  0  0  0  0  0  0
   26.1934  -16.0978  -15.4135 O   0  0  0  0  0  0  0  0  0  0  0  0
   23.7678  -14.0714  -19.7975 C   0  0  0  0  0  0  0  0  0  0  0  0
   22.8370  -14.0745  -20.8156 C   0  0  0  0  0  0  0  0  0  0  0  0
   24.3824  -17.4980  -15.3431 N   0  0  0  0  0  0  0  0  0  0  0  0
   25.1542  -18.4322  -14.4756 C   0  0  1  0  0  0  0  0  0  0  0  0
   24.1437  -18.7897  -13.4130 C   0  0  0  0  0  0  0  0  0  0  0  0
   24.4647  -19.8525  -12.4961 C   0  0  0  0  0  0  0  0  0  0  0  0
   24.2476  -21.2179  -12.5448 C   0  0  0  0  0  0  0  0  0  0  0  0
   24.7160  -21.7934  -11.4234 N   0  0  0  0  0  0  0  0  0  0  0  0
   25.2403  -20.8436  -10.6283 C   0  0  0  0  0  0  0  0  0  0  0  0
   25.8392  -20.9131   -9.3868 C   0  0  0  0  0  0  0  0  0  0  0  0
   26.3048  -19.7569   -8.7710 C   0  0  0  0  0  0  0  0  0  0  0  0
   26.1703  -18.5459   -9.3950 C   0  0  0  0  0  0  0  0  0  0  0  0
   25.5677  -18.5108  -10.6338 C   0  0  0  0  0  0  0  0  0  0  0  0
   25.0977  -19.6505  -11.2636 C   0  0  0  0  0  0  0  0  0  0  0  0
   25.6023  -19.5492  -15.3054 C   0  0  0  0  0  0  0  0  0  0  0  0
   24.9434  -19.7514  -16.3943 O   0  0  0  0  0  0  0  0  0  0  0  0
   26.6746  -20.4038  -15.0248 N   0  0  0  0  0  0  0  0  0  0  0  0
   27.5081  -20.4821  -13.8597 C   0  0  0  0  0  0  0  0  0  0  0  0
   28.8886  -20.8753  -14.3911 C   0  0  0  0  0  0  0  0  0  0  0  0
   28.6722  -21.1023  -15.8717 C   0  0  0  0  0  0  0  0  0  0  0  0
   27.1824  -21.4276  -15.9170 C   0  0  1  0  0  0  0  0  0  0  0  0
   27.0198  -22.7864  -15.3804 C   0  0  0  0  0  0  0  0  0  0  0  0
   27.3842  -23.9472  -16.0356 O   0  0  0  0  0  0  0  0  0  0  0  0
   26.5096  -22.9060  -14.2361 O   0  0  0  0  0  0  0  0  0  0  0  0
  2  1  1  0
  3  2  2  0
  4  3  1  0
  5  4  2  0
  5 11  1  0
  6  7  1  0
  6  5  1  0
  7  9  1  0
  7  8  1  1
  9 10  2  0
 11 12  2  0
 12  2  1  0
 13  9  1  0
 13 14  1  0
 14 25  1  0
 14 15  1  1
 16 15  1  0
 17 16  2  0
 18 17  1  0
 19 18  1  0
 19 24  2  0
 20 21  2  0
 20 19  1  0
 21 22  1  0
 22 23  2  0
 24 23  1  0
 24 16  1  0
 25 27  1  0
 26 25  2  0
 27 28  1  0
 27 31  1  0
 28 29  1  0
 29 30  1  0
 31 30  1  0
 31 32  1  1
 32 34  2  0
 32 33  1  0
M  END
$$$$
