YWP.pdb
     RDKit          3D

 34 37  0  0  1  0  0  0  0  0999 V2000
   23.9692  -28.8057  -20.8642 O   0  0  0  0  0  0  0  0  0  0  0  0
   24.4477  -28.0068  -19.8517 C   0  0  0  0  0  0  0  0  0  0  0  0
   24.2445  -26.6383  -19.8297 C   0  0  0  0  0  0  0  0  0  0  0  0
   24.7491  -25.9043  -18.7907 C   0  0  0  0  0  0  0  0  0  0  0  0
   25.4653  -26.4559  -17.7376 C   0  0  0  0  0  0  0  0  0  0  0  0
   25.9998  -25.6255  -16.6270 C   0  0  0  0  0  0  0  0  0  0  0  0
   27.2477  -24.9096  -17.1364 C   0  0  2  0  0  0  0  0  0  0  0  0
   28.3216  -25.8938  -17.0072 N   0  0  0  0  0  0  0  0  0  0  0  0
   27.5346  -23.7008  -16.3265 C   0  0  0  0  0  0  0  0  0  0  0  0
   28.1361  -23.8287  -15.2341 O   0  0  0  0  0  0  0  0  0  0  0  0
   25.6540  -27.8247  -17.7841 C   0  0  0  0  0  0  0  0  0  0  0  0
   25.1605  -28.5974  -18.8149 C   0  0  0  0  0  0  0  0  0  0  0  0
   27.1542  -22.4124  -16.7426 N   0  0  0  0  0  0  0  0  0  0  0  0
   27.2008  -21.3077  -15.7433 C   0  0  1  0  0  0  0  0  0  0  0  0
   27.1980  -20.0812  -16.6230 C   0  0  0  0  0  0  0  0  0  0  0  0
   27.0876  -18.7907  -15.9941 C   0  0  0  0  0  0  0  0  0  0  0  0
   28.0196  -17.9760  -15.3765 C   0  0  0  0  0  0  0  0  0  0  0  0
   27.4192  -16.8632  -14.9189 N   0  0  0  0  0  0  0  0  0  0  0  0
   26.1088  -16.9170  -15.2171 C   0  0  0  0  0  0  0  0  0  0  0  0
   25.0742  -16.0373  -14.9708 C   0  0  0  0  0  0  0  0  0  0  0  0
   23.7852  -16.3399  -15.3946 C   0  0  0  0  0  0  0  0  0  0  0  0
   23.5388  -17.5120  -16.0576 C   0  0  0  0  0  0  0  0  0  0  0  0
   24.5934  -18.3686  -16.2875 C   0  0  0  0  0  0  0  0  0  0  0  0
   25.8839  -18.0855  -15.8738 C   0  0  0  0  0  0  0  0  0  0  0  0
   26.0383  -21.4447  -14.8677 C   0  0  0  0  0  0  0  0  0  0  0  0
   25.0442  -22.1154  -15.3397 O   0  0  0  0  0  0  0  0  0  0  0  0
   25.9156  -20.9209  -13.5756 N   0  0  0  0  0  0  0  0  0  0  0  0
   26.7808  -20.0290  -12.8586 C   0  0  0  0  0  0  0  0  0  0  0  0
   26.6786  -20.4739  -11.3976 C   0  0  0  0  0  0  0  0  0  0  0  0
   25.6266  -21.5618  -11.4074 C   0  0  0  0  0  0  0  0  0  0  0  0
   24.8294  -21.2057  -12.6585 C   0  0  1  0  0  0  0  0  0  0  0  0
   24.0262  -20.0176  -12.3360 C   0  0  0  0  0  0  0  0  0  0  0  0
   22.8109  -20.0359  -11.6786 O   0  0  0  0  0  0  0  0  0  0  0  0
   24.4768  -18.8952  -12.6839 O   0  0  0  0  0  0  0  0  0  0  0  0
  2  1  1  0
  3  2  2  0
  4  3  1  0
  5  4  2  0
  5 11  1  0
  6  7  1  0
  6  5  1  0
  7  9  1  0
  7  8  1  1
  9 10  2  0
 11 12  2  0
 12  2  1  0
 13  9  1  0
 13 14  1  0
 14 25  1  0
 14 15  1  6
 16 15  1  0
 17 16  2  0
 18 17  1  0
 19 18  1  0
 19 24  2  0
 20 21  2  0
 20 19  1  0
 21 22  1  0
 22 23  2  0
 24 23  1  0
 24 16  1  0
 25 27  1  0
 26 25  2  0
 27 28  1  0
 27 31  1  0
 28 29  1  0
 29 30  1  0
 31 30  1  0
 31 32  1  1
 32 34  2  0
 32 33  1  0
M  END
$$$$
