YWP.pdb
     RDKit          3D

 34 37  0  0  1  0  0  0  0  0999 V2000
   17.0741  -22.2977  -10.7975 O   0  0  0  0  0  0  0  0  0  0  0  0
   18.3087  -22.1393  -11.3832 C   0  0  0  0  0  0  0  0  0  0  0  0
   19.3863  -21.5990  -10.7038 C   0  0  0  0  0  0  0  0  0  0  0  0
   20.5866  -21.4706  -11.3486 C   0  0  0  0  0  0  0  0  0  0  0  0
   20.7955  -21.8550  -12.6658 C   0  0  0  0  0  0  0  0  0  0  0  0
   22.1139  -21.6979  -13.3334 C   0  0  0  0  0  0  0  0  0  0  0  0
   22.4431  -20.2082  -13.3750 C   0  0  2  0  0  0  0  0  0  0  0  0
   21.4324  -19.6271  -14.2579 N   0  0  0  0  0  0  0  0  0  0  0  0
   23.8082  -19.9803  -13.9078 C   0  0  0  0  0  0  0  0  0  0  0  0
   23.9676  -19.8691  -15.1462 O   0  0  0  0  0  0  0  0  0  0  0  0
   19.7027  -22.3913  -13.3212 C   0  0  0  0  0  0  0  0  0  0  0  0
   18.4774  -22.5365  -12.7043 C   0  0  0  0  0  0  0  0  0  0  0  0
   24.9334  -19.8845  -13.0695 N   0  0  0  0  0  0  0  0  0  0  0  0
   26.2739  -19.7400  -13.7046 C   0  0  1  0  0  0  0  0  0  0  0  0
   27.1691  -19.5087  -12.5115 C   0  0  0  0  0  0  0  0  0  0  0  0
   26.7300  -19.9866  -11.2262 C   0  0  0  0  0  0  0  0  0  0  0  0
   25.4701  -20.1921  -10.6931 C   0  0  0  0  0  0  0  0  0  0  0  0
   25.5781  -20.6342   -9.4277 N   0  0  0  0  0  0  0  0  0  0  0  0
   26.8804  -20.7282   -9.1050 C   0  0  0  0  0  0  0  0  0  0  0  0
   27.5124  -21.1260   -7.9442 C   0  0  0  0  0  0  0  0  0  0  0  0
   28.9007  -21.1309   -7.8722 C   0  0  0  0  0  0  0  0  0  0  0  0
   29.6448  -20.7410   -8.9530 C   0  0  0  0  0  0  0  0  0  0  0  0
   28.9833  -20.3495  -10.0968 C   0  0  0  0  0  0  0  0  0  0  0  0
   27.6020  -20.3377  -10.1885 C   0  0  0  0  0  0  0  0  0  0  0  0
   26.5484  -20.9626  -14.4574 C   0  0  0  0  0  0  0  0  0  0  0  0
   25.8143  -21.9835  -14.1753 O   0  0  0  0  0  0  0  0  0  0  0  0
   27.5242  -21.1162  -15.4490 N   0  0  0  0  0  0  0  0  0  0  0  0
   28.6024  -20.2461  -15.8212 C   0  0  0  0  0  0  0  0  0  0  0  0
   28.7450  -20.4242  -17.3348 C   0  0  0  0  0  0  0  0  0  0  0  0
   27.7568  -21.5169  -17.6808 C   0  0  0  0  0  0  0  0  0  0  0  0
   27.6304  -22.2487  -16.3480 C   0  0  1  0  0  0  0  0  0  0  0  0
   28.8690  -23.0169  -16.1572 C   0  0  0  0  0  0  0  0  0  0  0  0
   29.8659  -22.7034  -15.2531 O   0  0  0  0  0  0  0  0  0  0  0  0
   29.0384  -24.0398  -16.8706 O   0  0  0  0  0  0  0  0  0  0  0  0
  2  1  1  0
  3  2  2  0
  4  3  1  0
  5  4  2  0
  5 11  1  0
  6  7  1  0
  6  5  1  0
  7  9  1  0
  7  8  1  6
  9 10  2  0
 11 12  2  0
 12  2  1  0
 13  9  1  0
 13 14  1  0
 14 25  1  0
 14 15  1  1
 16 15  1  0
 17 16  2  0
 18 17  1  0
 19 18  1  0
 19 24  2  0
 20 21  2  0
 20 19  1  0
 21 22  1  0
 22 23  2  0
 24 23  1  0
 24 16  1  0
 25 27  1  0
 26 25  2  0
 27 28  1  0
 27 31  1  0
 28 29  1  0
 29 30  1  0
 31 30  1  0
 31 32  1  1
 32 34  2  0
 32 33  1  0
M  END
$$$$
