YWP.pdb
     RDKit          3D

 34 37  0  0  1  0  0  0  0  0999 V2000
   16.7665  -24.2543  -11.8249 O   0  0  0  0  0  0  0  0  0  0  0  0
   17.9826  -23.7140  -12.1733 C   0  0  0  0  0  0  0  0  0  0  0  0
   19.1666  -24.1094  -11.5762 C   0  0  0  0  0  0  0  0  0  0  0  0
   20.3411  -23.5292  -11.9721 C   0  0  0  0  0  0  0  0  0  0  0  0
   20.4217  -22.5508  -12.9531 C   0  0  0  0  0  0  0  0  0  0  0  0
   21.7164  -21.9420  -13.3552 C   0  0  0  0  0  0  0  0  0  0  0  0
   22.2156  -21.0914  -12.1905 C   0  0  2  0  0  0  0  0  0  0  0  0
   21.2825  -19.9674  -12.1224 N   0  0  0  0  0  0  0  0  0  0  0  0
   23.6001  -20.6185  -12.4330 C   0  0  0  0  0  0  0  0  0  0  0  0
   23.7766  -19.5503  -13.0648 O   0  0  0  0  0  0  0  0  0  0  0  0
   19.2246  -22.1741  -13.5332 C   0  0  0  0  0  0  0  0  0  0  0  0
   18.0213  -22.7363  -13.1604 C   0  0  0  0  0  0  0  0  0  0  0  0
   24.7251  -21.3289  -11.9774 N   0  0  0  0  0  0  0  0  0  0  0  0
   26.0730  -20.7371  -12.2103 C   0  0  1  0  0  0  0  0  0  0  0  0
   26.8748  -21.3095  -11.0668 C   0  0  0  0  0  0  0  0  0  0  0  0
   26.6430  -20.7905   -9.7439 C   0  0  0  0  0  0  0  0  0  0  0  0
   25.5352  -20.2057   -9.1570 C   0  0  0  0  0  0  0  0  0  0  0  0
   25.8205  -19.8616   -7.8888 N   0  0  0  0  0  0  0  0  0  0  0  0
   27.0925  -20.2034   -7.6165 C   0  0  0  0  0  0  0  0  0  0  0  0
   27.8557  -20.0674   -6.4745 C   0  0  0  0  0  0  0  0  0  0  0  0
   29.1722  -20.5135   -6.4579 C   0  0  0  0  0  0  0  0  0  0  0  0
   29.7153  -21.0893   -7.5748 C   0  0  0  0  0  0  0  0  0  0  0  0
   28.9269  -21.2102   -8.6986 C   0  0  0  0  0  0  0  0  0  0  0  0
   27.6141  -20.7724   -8.7353 C   0  0  0  0  0  0  0  0  0  0  0  0
   26.5174  -21.1424  -13.5426 C   0  0  0  0  0  0  0  0  0  0  0  0
   25.9165  -22.1583  -14.0602 O   0  0  0  0  0  0  0  0  0  0  0  0
   27.5231  -20.5269  -14.2967 N   0  0  0  0  0  0  0  0  0  0  0  0
   28.5767  -19.6466  -13.8805 C   0  0  0  0  0  0  0  0  0  0  0  0
   28.7642  -18.6788  -15.0514 C   0  0  0  0  0  0  0  0  0  0  0  0
   27.8271  -19.1954  -16.1216 C   0  0  0  0  0  0  0  0  0  0  0  0
   27.6948  -20.6639  -15.7298 C   0  0  1  0  0  0  0  0  0  0  0  0
   28.9564  -21.3242  -16.0946 C   0  0  0  0  0  0  0  0  0  0  0  0
   29.7720  -22.0161  -15.2196 O   0  0  0  0  0  0  0  0  0  0  0  0
   29.3258  -21.2564  -17.2958 O   0  0  0  0  0  0  0  0  0  0  0  0
  2  1  1  0
  3  2  2  0
  4  3  1  0
  5  4  2  0
  5 11  1  0
  6  7  1  0
  6  5  1  0
  7  9  1  0
  7  8  1  6
  9 10  2  0
 11 12  2  0
 12  2  1  0
 13  9  1  0
 13 14  1  0
 14 25  1  0
 14 15  1  1
 16 15  1  0
 17 16  2  0
 18 17  1  0
 19 18  1  0
 19 24  2  0
 20 21  2  0
 20 19  1  0
 21 22  1  0
 22 23  2  0
 24 23  1  0
 24 16  1  0
 25 27  1  0
 26 25  2  0
 27 28  1  0
 27 31  1  0
 28 29  1  0
 29 30  1  0
 31 30  1  0
 31 32  1  1
 32 34  2  0
 32 33  1  0
M  END
$$$$
