YWP.pdb
     RDKit          3D

 34 37  0  0  1  0  0  0  0  0999 V2000
   33.4708  -24.2685  -12.5696 O   0  0  0  0  0  0  0  0  0  0  0  0
   32.5782  -23.2277  -12.6804 C   0  0  0  0  0  0  0  0  0  0  0  0
   32.0585  -22.8246  -13.8979 C   0  0  0  0  0  0  0  0  0  0  0  0
   31.1743  -21.7808  -13.9345 C   0  0  0  0  0  0  0  0  0  0  0  0
   30.7578  -21.0875  -12.8066 C   0  0  0  0  0  0  0  0  0  0  0  0
   29.7967  -19.9567  -12.8862 C   0  0  0  0  0  0  0  0  0  0  0  0
   28.3865  -20.5403  -12.8916 C   0  0  2  0  0  0  0  0  0  0  0  0
   27.7651  -20.0034  -14.1018 N   0  0  0  0  0  0  0  0  0  0  0  0
   27.6359  -20.1275  -11.6811 C   0  0  0  0  0  0  0  0  0  0  0  0
   27.2443  -18.9407  -11.5829 O   0  0  0  0  0  0  0  0  0  0  0  0
   31.2921  -21.5103  -11.6036 C   0  0  0  0  0  0  0  0  0  0  0  0
   32.1858  -22.5584  -11.5273 C   0  0  0  0  0  0  0  0  0  0  0  0
   27.3475  -21.0237  -10.6363 N   0  0  0  0  0  0  0  0  0  0  0  0
   26.5962  -20.5105   -9.4560 C   0  0  1  0  0  0  0  0  0  0  0  0
   25.3238  -21.3206   -9.5105 C   0  0  0  0  0  0  0  0  0  0  0  0
   24.2837  -20.8974  -10.4117 C   0  0  0  0  0  0  0  0  0  0  0  0
   24.2495  -20.7513  -11.7869 C   0  0  0  0  0  0  0  0  0  0  0  0
   23.0408  -20.3007  -12.1667 N   0  0  0  0  0  0  0  0  0  0  0  0
   22.2684  -20.1432  -11.0768 C   0  0  0  0  0  0  0  0  0  0  0  0
   20.9656  -19.7120  -10.9291 C   0  0  0  0  0  0  0  0  0  0  0  0
   20.3937  -19.6402   -9.6640 C   0  0  0  0  0  0  0  0  0  0  0  0
   21.1217  -19.9971   -8.5610 C   0  0  0  0  0  0  0  0  0  0  0  0
   22.4196  -20.4231   -8.7427 C   0  0  0  0  0  0  0  0  0  0  0  0
   23.0072  -20.5018   -9.9938 C   0  0  0  0  0  0  0  0  0  0  0  0
   27.4203  -20.7305   -8.2687 C   0  0  0  0  0  0  0  0  0  0  0  0
   28.1707  -21.7781   -8.2809 O   0  0  0  0  0  0  0  0  0  0  0  0
   27.4674  -19.9088   -7.1366 N   0  0  0  0  0  0  0  0  0  0  0  0
   26.7939  -18.6705   -6.8700 C   0  0  0  0  0  0  0  0  0  0  0  0
   27.7813  -17.8612   -6.0257 C   0  0  0  0  0  0  0  0  0  0  0  0
   28.9380  -18.8076   -5.7875 C   0  0  0  0  0  0  0  0  0  0  0  0
   28.2614  -20.1652   -5.9510 C   0  0  1  0  0  0  0  0  0  0  0  0
   27.4425  -20.3877   -4.7507 C   0  0  0  0  0  0  0  0  0  0  0  0
   27.9399  -20.6188   -3.4823 O   0  0  0  0  0  0  0  0  0  0  0  0
   26.1913  -20.3668   -4.8845 O   0  0  0  0  0  0  0  0  0  0  0  0
  2  1  1  0
  3  2  2  0
  4  3  1  0
  5  4  2  0
  5 11  1  0
  6  7  1  0
  6  5  1  0
  7  9  1  0
  7  8  1  6
  9 10  2  0
 11 12  2  0
 12  2  1  0
 13  9  1  0
 13 14  1  0
 14 25  1  0
 14 15  1  1
 16 15  1  0
 17 16  2  0
 18 17  1  0
 19 18  1  0
 19 24  2  0
 20 21  2  0
 20 19  1  0
 21 22  1  0
 22 23  2  0
 24 23  1  0
 24 16  1  0
 25 27  1  0
 26 25  2  0
 27 28  1  0
 27 31  1  0
 28 29  1  0
 29 30  1  0
 31 30  1  0
 31 32  1  1
 32 34  2  0
 32 33  1  0
M  END
$$$$
