YWP.pdb
     RDKit          3D

 34 37  0  0  1  0  0  0  0  0999 V2000
   23.3935  -15.3605  -15.2875 O   0  0  0  0  0  0  0  0  0  0  0  0
   22.3181  -14.5033  -15.3207 C   0  0  0  0  0  0  0  0  0  0  0  0
   22.3966  -13.1994  -14.8643 C   0  0  0  0  0  0  0  0  0  0  0  0
   21.2867  -12.4013  -14.9274 C   0  0  0  0  0  0  0  0  0  0  0  0
   20.0641  -12.8248  -15.4296 C   0  0  0  0  0  0  0  0  0  0  0  0
   18.8793  -11.9289  -15.4800 C   0  0  0  0  0  0  0  0  0  0  0  0
   18.6734  -11.5064  -16.9320 C   0  0  2  0  0  0  0  0  0  0  0  0
   19.3143  -12.5577  -17.7212 N   0  0  0  0  0  0  0  0  0  0  0  0
   19.2992  -10.1880  -17.1957 C   0  0  0  0  0  0  0  0  0  0  0  0
   20.5371  -10.1285  -17.3840 O   0  0  0  0  0  0  0  0  0  0  0  0
   20.0131  -14.1314  -15.8786 C   0  0  0  0  0  0  0  0  0  0  0  0
   21.1108  -14.9655  -15.8311 C   0  0  0  0  0  0  0  0  0  0  0  0
   18.5499   -8.9987  -17.2417 N   0  0  0  0  0  0  0  0  0  0  0  0
   19.2622   -7.7301  -17.5646 C   0  0  1  0  0  0  0  0  0  0  0  0
   18.2538   -7.0075  -18.4243 C   0  0  0  0  0  0  0  0  0  0  0  0
   18.2058   -7.3203  -19.8289 C   0  0  0  0  0  0  0  0  0  0  0  0
   17.8456   -8.4677  -20.5127 C   0  0  0  0  0  0  0  0  0  0  0  0
   17.9904   -8.2734  -21.8354 N   0  0  0  0  0  0  0  0  0  0  0  0
   18.4385   -7.0234  -22.0493 C   0  0  0  0  0  0  0  0  0  0  0  0
   18.7431   -6.3433  -23.2110 C   0  0  0  0  0  0  0  0  0  0  0  0
   19.1972   -5.0307  -23.1524 C   0  0  0  0  0  0  0  0  0  0  0  0
   19.3434   -4.4091  -21.9416 C   0  0  0  0  0  0  0  0  0  0  0  0
   19.0308   -5.1157  -20.8006 C   0  0  0  0  0  0  0  0  0  0  0  0
   18.5772   -6.4232  -20.8378 C   0  0  0  0  0  0  0  0  0  0  0  0
   19.5909   -7.0662  -16.3044 C   0  0  0  0  0  0  0  0  0  0  0  0
   18.8574   -7.3722  -15.2899 O   0  0  0  0  0  0  0  0  0  0  0  0
   20.6236   -6.1424  -16.1063 N   0  0  0  0  0  0  0  0  0  0  0  0
   21.6022   -5.6447  -17.0298 C   0  0  0  0  0  0  0  0  0  0  0  0
   22.8617   -5.4284  -16.1873 C   0  0  0  0  0  0  0  0  0  0  0  0
   22.4254   -5.7350  -14.7710 C   0  0  0  0  0  0  0  0  0  0  0  0
   20.9232   -5.4808  -14.8515 C   0  0  1  0  0  0  0  0  0  0  0  0
   20.7337   -4.0244  -14.9128 C   0  0  0  0  0  0  0  0  0  0  0  0
   20.8624   -3.1616  -13.8411 O   0  0  0  0  0  0  0  0  0  0  0  0
   20.4306   -3.5206  -16.0256 O   0  0  0  0  0  0  0  0  0  0  0  0
  2  1  1  0
  3  2  2  0
  4  3  1  0
  5  4  2  0
  5 11  1  0
  6  7  1  0
  6  5  1  0
  7  9  1  0
  7  8  1  6
  9 10  2  0
 11 12  2  0
 12  2  1  0
 13  9  1  0
 13 14  1  0
 14 25  1  0
 14 15  1  6
 16 15  1  0
 17 16  2  0
 18 17  1  0
 19 18  1  0
 19 24  2  0
 20 21  2  0
 20 19  1  0
 21 22  1  0
 22 23  2  0
 24 23  1  0
 24 16  1  0
 25 27  1  0
 26 25  2  0
 27 28  1  0
 27 31  1  0
 28 29  1  0
 29 30  1  0
 31 30  1  0
 31 32  1  6
 32 34  2  0
 32 33  1  0
M  END
$$$$
