YWP.pdb
     RDKit          3D

 34 37  0  0  1  0  0  0  0  0999 V2000
   18.4243  -25.7315  -14.8589 O   0  0  0  0  0  0  0  0  0  0  0  0
   19.0918  -24.5639  -14.5702 C   0  0  0  0  0  0  0  0  0  0  0  0
   18.4593  -23.4694  -14.0075 C   0  0  0  0  0  0  0  0  0  0  0  0
   19.1853  -22.3391  -13.7465 C   0  0  0  0  0  0  0  0  0  0  0  0
   20.5415  -22.2186  -14.0155 C   0  0  0  0  0  0  0  0  0  0  0  0
   21.2965  -20.9730  -13.7197 C   0  0  0  0  0  0  0  0  0  0  0  0
   21.9988  -21.1588  -12.3776 C   0  0  2  0  0  0  0  0  0  0  0  0
   21.1999  -20.3852  -11.4279 N   0  0  0  0  0  0  0  0  0  0  0  0
   23.3927  -20.6555  -12.4331 C   0  0  0  0  0  0  0  0  0  0  0  0
   23.5909  -19.4310  -12.6138 O   0  0  0  0  0  0  0  0  0  0  0  0
   21.1487  -23.3262  -14.5775 C   0  0  0  0  0  0  0  0  0  0  0  0
   20.4498  -24.4828  -14.8547 C   0  0  0  0  0  0  0  0  0  0  0  0
   24.5030  -21.5067  -12.2897 N   0  0  0  0  0  0  0  0  0  0  0  0
   25.8648  -20.9142  -12.4143 C   0  0  1  0  0  0  0  0  0  0  0  0
   26.5966  -21.5499  -11.2574 C   0  0  0  0  0  0  0  0  0  0  0  0
   26.4897  -20.9332   -9.9607 C   0  0  0  0  0  0  0  0  0  0  0  0
   25.4475  -20.2819   -9.3255 C   0  0  0  0  0  0  0  0  0  0  0  0
   25.8478  -19.8557   -8.1146 N   0  0  0  0  0  0  0  0  0  0  0  0
   27.1324  -20.2078   -7.9276 C   0  0  0  0  0  0  0  0  0  0  0  0
   27.9939  -20.0096   -6.8677 C   0  0  0  0  0  0  0  0  0  0  0  0
   29.2988  -20.4850   -6.9309 C   0  0  0  0  0  0  0  0  0  0  0  0
   29.7327  -21.1512   -8.0453 C   0  0  0  0  0  0  0  0  0  0  0  0
   28.8478  -21.3324   -9.0861 C   0  0  0  0  0  0  0  0  0  0  0  0
   27.5447  -20.8669   -9.0425 C   0  0  0  0  0  0  0  0  0  0  0  0
   26.3836  -21.2548  -13.7379 C   0  0  0  0  0  0  0  0  0  0  0  0
   25.7803  -22.2094  -14.3589 O   0  0  0  0  0  0  0  0  0  0  0  0
   27.4621  -20.6379  -14.3822 N   0  0  0  0  0  0  0  0  0  0  0  0
   28.5316  -19.8519  -13.8378 C   0  0  0  0  0  0  0  0  0  0  0  0
   28.8370  -18.8069  -14.9136 C   0  0  0  0  0  0  0  0  0  0  0  0
   27.9408  -19.1858  -16.0728 C   0  0  0  0  0  0  0  0  0  0  0  0
   27.7120  -20.6711  -15.8100 C   0  0  1  0  0  0  0  0  0  0  0  0
   28.9585  -21.3688  -16.1568 C   0  0  0  0  0  0  0  0  0  0  0  0
   29.4617  -21.5056  -17.4365 O   0  0  0  0  0  0  0  0  0  0  0  0
   29.6215  -21.8826  -15.2185 O   0  0  0  0  0  0  0  0  0  0  0  0
  2  1  1  0
  3  2  2  0
  4  3  1  0
  5  4  2  0
  5 11  1  0
  6  7  1  0
  6  5  1  0
  7  9  1  0
  7  8  1  1
  9 10  2  0
 11 12  2  0
 12  2  1  0
 13  9  1  0
 13 14  1  0
 14 25  1  0
 14 15  1  1
 16 15  1  0
 17 16  2  0
 18 17  1  0
 19 18  1  0
 19 24  2  0
 20 21  2  0
 20 19  1  0
 21 22  1  0
 22 23  2  0
 24 23  1  0
 24 16  1  0
 25 27  1  0
 26 25  2  0
 27 28  1  0
 27 31  1  0
 28 29  1  0
 29 30  1  0
 31 30  1  0
 31 32  1  1
 32 34  2  0
 32 33  1  0
M  END
$$$$
