YWP.pdb
     RDKit          3D

 34 37  0  0  1  0  0  0  0  0999 V2000
   17.6098  -25.6374  -14.0458 O   0  0  0  0  0  0  0  0  0  0  0  0
   18.6317  -24.7218  -14.1450 C   0  0  0  0  0  0  0  0  0  0  0  0
   18.4377  -23.4478  -14.6490 C   0  0  0  0  0  0  0  0  0  0  0  0
   19.5000  -22.5878  -14.7188 C   0  0  0  0  0  0  0  0  0  0  0  0
   20.7839  -22.9187  -14.3085 C   0  0  0  0  0  0  0  0  0  0  0  0
   21.9138  -21.9577  -14.4018 C   0  0  0  0  0  0  0  0  0  0  0  0
   22.1246  -21.3473  -13.0190 C   0  0  2  0  0  0  0  0  0  0  0  0
   21.0680  -20.3446  -12.8886 N   0  0  0  0  0  0  0  0  0  0  0  0
   23.4655  -20.7228  -12.9127 C   0  0  0  0  0  0  0  0  0  0  0  0
   23.6086  -19.5259  -13.2567 O   0  0  0  0  0  0  0  0  0  0  0  0
   20.9501  -24.1972  -13.8094 C   0  0  0  0  0  0  0  0  0  0  0  0
   19.9033  -25.0916  -13.7235 C   0  0  0  0  0  0  0  0  0  0  0  0
   24.5854  -21.4289  -12.4381 N   0  0  0  0  0  0  0  0  0  0  0  0
   25.9228  -20.7796  -12.5424 C   0  0  1  0  0  0  0  0  0  0  0  0
   26.6778  -21.4190  -11.4025 C   0  0  0  0  0  0  0  0  0  0  0  0
   26.4556  -20.9180  -10.0710 C   0  0  0  0  0  0  0  0  0  0  0  0
   25.3465  -20.3577   -9.4629 C   0  0  0  0  0  0  0  0  0  0  0  0
   25.6435  -20.0225   -8.1950 N   0  0  0  0  0  0  0  0  0  0  0  0
   26.9245  -20.3464   -7.9436 C   0  0  0  0  0  0  0  0  0  0  0  0
   27.7008  -20.2101   -6.8105 C   0  0  0  0  0  0  0  0  0  0  0  0
   29.0245  -20.6348   -6.8164 C   0  0  0  0  0  0  0  0  0  0  0  0
   29.5616  -21.1896   -7.9467 C   0  0  0  0  0  0  0  0  0  0  0  0
   28.7600  -21.3114   -9.0611 C   0  0  0  0  0  0  0  0  0  0  0  0
   27.4399  -20.8948   -9.0753 C   0  0  0  0  0  0  0  0  0  0  0  0
   26.4563  -21.0613  -13.8740 C   0  0  0  0  0  0  0  0  0  0  0  0
   25.8562  -21.9828  -14.5460 O   0  0  0  0  0  0  0  0  0  0  0  0
   27.5456  -20.4209  -14.4759 N   0  0  0  0  0  0  0  0  0  0  0  0
   28.5906  -19.6342  -13.8867 C   0  0  0  0  0  0  0  0  0  0  0  0
   28.9146  -18.5657  -14.9337 C   0  0  0  0  0  0  0  0  0  0  0  0
   28.0555  -18.9319  -16.1246 C   0  0  0  0  0  0  0  0  0  0  0  0
   27.8359  -20.4243  -15.8964 C   0  0  1  0  0  0  0  0  0  0  0  0
   29.0993  -21.1021  -16.2208 C   0  0  0  0  0  0  0  0  0  0  0  0
   29.8648  -21.8246  -15.3256 O   0  0  0  0  0  0  0  0  0  0  0  0
   29.5196  -21.0202  -17.4042 O   0  0  0  0  0  0  0  0  0  0  0  0
  2  1  1  0
  3  2  2  0
  4  3  1  0
  5  4  2  0
  5 11  1  0
  6  7  1  0
  6  5  1  0
  7  9  1  0
  7  8  1  6
  9 10  2  0
 11 12  2  0
 12  2  1  0
 13  9  1  0
 13 14  1  0
 14 25  1  0
 14 15  1  1
 16 15  1  0
 17 16  2  0
 18 17  1  0
 19 18  1  0
 19 24  2  0
 20 21  2  0
 20 19  1  0
 21 22  1  0
 22 23  2  0
 24 23  1  0
 24 16  1  0
 25 27  1  0
 26 25  2  0
 27 28  1  0
 27 31  1  0
 28 29  1  0
 29 30  1  0
 31 30  1  0
 31 32  1  1
 32 34  2  0
 32 33  1  0
M  END
$$$$
