YWP.pdb
     RDKit          3D

 34 37  0  0  1  0  0  0  0  0999 V2000
   23.6060  -25.0858  -23.1592 O   0  0  0  0  0  0  0  0  0  0  0  0
   23.9711  -24.8428  -21.8554 C   0  0  0  0  0  0  0  0  0  0  0  0
   24.7162  -25.7438  -21.1153 C   0  0  0  0  0  0  0  0  0  0  0  0
   25.0443  -25.4369  -19.8226 C   0  0  0  0  0  0  0  0  0  0  0  0
   24.6698  -24.2571  -19.1948 C   0  0  0  0  0  0  0  0  0  0  0  0
   25.0434  -23.9597  -17.7874 C   0  0  0  0  0  0  0  0  0  0  0  0
   26.0374  -22.8017  -17.8016 C   0  0  2  0  0  0  0  0  0  0  0  0
   27.3145  -23.4106  -18.1717 N   0  0  0  0  0  0  0  0  0  0  0  0
   26.1224  -22.1581  -16.4682 C   0  0  0  0  0  0  0  0  0  0  0  0
   26.7612  -22.7319  -15.5549 O   0  0  0  0  0  0  0  0  0  0  0  0
   23.9261  -23.3749  -19.9565 C   0  0  0  0  0  0  0  0  0  0  0  0
   23.5765  -23.6495  -21.2624 C   0  0  0  0  0  0  0  0  0  0  0  0
   25.5094  -20.9229  -16.1920 N   0  0  0  0  0  0  0  0  0  0  0  0
   25.6551  -20.3556  -14.8216 C   0  0  1  0  0  0  0  0  0  0  0  0
   25.5332  -18.8727  -15.0752 C   0  0  0  0  0  0  0  0  0  0  0  0
   24.2259  -18.3315  -15.3425 C   0  0  0  0  0  0  0  0  0  0  0  0
   23.2863  -17.7279  -14.5261 C   0  0  0  0  0  0  0  0  0  0  0  0
   22.1964  -17.4083  -15.2458 N   0  0  0  0  0  0  0  0  0  0  0  0
   22.3874  -17.7846  -16.5229 C   0  0  0  0  0  0  0  0  0  0  0  0
   21.5837  -17.6827  -17.6403 C   0  0  0  0  0  0  0  0  0  0  0  0
   22.0303  -18.1610  -18.8669 C   0  0  0  0  0  0  0  0  0  0  0  0
   23.2691  -18.7344  -18.9695 C   0  0  0  0  0  0  0  0  0  0  0  0
   24.0467  -18.8209  -17.8352 C   0  0  0  0  0  0  0  0  0  0  0  0
   23.6204  -18.3507  -16.6049 C   0  0  0  0  0  0  0  0  0  0  0  0
   24.6036  -20.9294  -13.9838 C   0  0  0  0  0  0  0  0  0  0  0  0
   23.8125  -21.7702  -14.5567 O   0  0  0  0  0  0  0  0  0  0  0  0
   24.3880  -20.6515  -12.6291 N   0  0  0  0  0  0  0  0  0  0  0  0
   25.0953  -19.7680  -11.7474 C   0  0  0  0  0  0  0  0  0  0  0  0
   25.0507  -20.4584  -10.3820 C   0  0  0  0  0  0  0  0  0  0  0  0
   24.1832  -21.6784  -10.6045 C   0  0  0  0  0  0  0  0  0  0  0  0
   23.3516  -21.2474  -11.8087 C   0  0  1  0  0  0  0  0  0  0  0  0
   22.3684  -20.2666  -11.3268 C   0  0  0  0  0  0  0  0  0  0  0  0
   21.1862  -20.5788  -10.6830 O   0  0  0  0  0  0  0  0  0  0  0  0
   22.6191  -19.0475  -11.5130 O   0  0  0  0  0  0  0  0  0  0  0  0
  2  1  1  0
  3  2  2  0
  4  3  1  0
  5  4  2  0
  5 11  1  0
  6  7  1  0
  6  5  1  0
  7  9  1  0
  7  8  1  1
  9 10  2  0
 11 12  2  0
 12  2  1  0
 13  9  1  0
 13 14  1  0
 14 25  1  0
 14 15  1  6
 16 15  1  0
 17 16  2  0
 18 17  1  0
 19 18  1  0
 19 24  2  0
 20 21  2  0
 20 19  1  0
 21 22  1  0
 22 23  2  0
 24 23  1  0
 24 16  1  0
 25 27  1  0
 26 25  2  0
 27 28  1  0
 27 31  1  0
 28 29  1  0
 29 30  1  0
 31 30  1  0
 31 32  1  1
 32 34  2  0
 32 33  1  0
M  END
$$$$
