YWP.pdb
     RDKit          3D

 34 37  0  0  1  0  0  0  0  0999 V2000
   17.8822  -21.4246  -12.0248 O   0  0  0  0  0  0  0  0  0  0  0  0
   19.2551  -21.4371  -11.9411 C   0  0  0  0  0  0  0  0  0  0  0  0
   19.9351  -20.9202  -10.8525 C   0  0  0  0  0  0  0  0  0  0  0  0
   21.3027  -20.9659  -10.8355 C   0  0  0  0  0  0  0  0  0  0  0  0
   22.0656  -21.5081  -11.8604 C   0  0  0  0  0  0  0  0  0  0  0  0
   23.5505  -21.5380  -11.8071 C   0  0  0  0  0  0  0  0  0  0  0  0
   24.0483  -20.0953  -11.8129 C   0  0  2  0  0  0  0  0  0  0  0  0
   23.9533  -19.6732  -13.2099 N   0  0  0  0  0  0  0  0  0  0  0  0
   25.4473  -20.0140  -11.3274 C   0  0  0  0  0  0  0  0  0  0  0  0
   26.3838  -20.2446  -12.1280 O   0  0  0  0  0  0  0  0  0  0  0  0
   21.3616  -22.0173  -12.9357 C   0  0  0  0  0  0  0  0  0  0  0  0
   19.9833  -21.9891  -12.9884 C   0  0  0  0  0  0  0  0  0  0  0  0
   25.7605  -19.6863   -9.9961 N   0  0  0  0  0  0  0  0  0  0  0  0
   27.1978  -19.6093   -9.6097 C   0  0  1  0  0  0  0  0  0  0  0  0
   27.1293  -18.9466   -8.2553 C   0  0  0  0  0  0  0  0  0  0  0  0
   27.2348  -19.7766   -7.0835 C   0  0  0  0  0  0  0  0  0  0  0  0
   26.5562  -20.9154   -6.6883 C   0  0  0  0  0  0  0  0  0  0  0  0
   27.0040  -21.3178   -5.4859 N   0  0  0  0  0  0  0  0  0  0  0  0
   27.9653  -20.4738   -5.0704 C   0  0  0  0  0  0  0  0  0  0  0  0
   28.7303  -20.4472   -3.9219 C   0  0  0  0  0  0  0  0  0  0  0  0
   29.6743  -19.4437   -3.7354 C   0  0  0  0  0  0  0  0  0  0  0  0
   29.8474  -18.4790   -4.6911 C   0  0  0  0  0  0  0  0  0  0  0  0
   29.0678  -18.5340   -5.8260 C   0  0  0  0  0  0  0  0  0  0  0  0
   28.1227  -19.5248   -6.0305 C   0  0  0  0  0  0  0  0  0  0  0  0
   27.7359  -20.9686   -9.6078 C   0  0  0  0  0  0  0  0  0  0  0  0
   26.8932  -21.9163   -9.8371 O   0  0  0  0  0  0  0  0  0  0  0  0
   29.0713  -21.3241   -9.3861 N   0  0  0  0  0  0  0  0  0  0  0  0
   30.1902  -20.5085   -9.0104 C   0  0  0  0  0  0  0  0  0  0  0  0
   31.3899  -21.1365   -9.7239 C   0  0  0  0  0  0  0  0  0  0  0  0
   30.8293  -22.3781  -10.3830 C   0  0  0  0  0  0  0  0  0  0  0  0
   29.6107  -22.6641   -9.5109 C   0  0  1  0  0  0  0  0  0  0  0  0
   30.1076  -23.2020   -8.2363 C   0  0  0  0  0  0  0  0  0  0  0  0
   30.6278  -24.4699   -8.0590 O   0  0  0  0  0  0  0  0  0  0  0  0
   30.0570  -22.4531   -7.2261 O   0  0  0  0  0  0  0  0  0  0  0  0
  2  1  1  0
  3  2  2  0
  4  3  1  0
  5  4  2  0
  5 11  1  0
  6  7  1  0
  6  5  1  0
  7  9  1  0
  7  8  1  6
  9 10  2  0
 11 12  2  0
 12  2  1  0
 13  9  1  0
 13 14  1  0
 14 25  1  0
 14 15  1  1
 16 15  1  0
 17 16  2  0
 18 17  1  0
 19 18  1  0
 19 24  2  0
 20 21  2  0
 20 19  1  0
 21 22  1  0
 22 23  2  0
 24 23  1  0
 24 16  1  0
 25 27  1  0
 26 25  2  0
 27 28  1  0
 27 31  1  0
 28 29  1  0
 29 30  1  0
 31 30  1  0
 31 32  1  1
 32 34  2  0
 32 33  1  0
M  END
$$$$
