YWP.pdb
     RDKit          3D

 34 37  0  0  1  0  0  0  0  0999 V2000
   22.8472  -11.2123  -19.8446 O   0  0  0  0  0  0  0  0  0  0  0  0
   23.0790  -12.4849  -19.3766 C   0  0  0  0  0  0  0  0  0  0  0  0
   23.6615  -12.7259  -18.1447 C   0  0  0  0  0  0  0  0  0  0  0  0
   23.8627  -14.0182  -17.7419 C   0  0  0  0  0  0  0  0  0  0  0  0
   23.5131  -15.1235  -18.5050 C   0  0  0  0  0  0  0  0  0  0  0  0
   23.7495  -16.5133  -18.0345 C   0  0  0  0  0  0  0  0  0  0  0  0
   25.2479  -16.6784  -17.7962 C   0  0  2  0  0  0  0  0  0  0  0  0
   25.8315  -16.7632  -19.1345 N   0  0  0  0  0  0  0  0  0  0  0  0
   25.5295  -17.9072  -17.0151 C   0  0  0  0  0  0  0  0  0  0  0  0
   25.3526  -19.0251  -17.5540 O   0  0  0  0  0  0  0  0  0  0  0  0
   22.9334  -14.8547  -19.7310 C   0  0  0  0  0  0  0  0  0  0  0  0
   22.7147  -13.5656  -20.1709 C   0  0  0  0  0  0  0  0  0  0  0  0
   25.9893  -17.8617  -15.6868 N   0  0  0  0  0  0  0  0  0  0  0  0
   26.0969  -19.1439  -14.9349 C   0  0  1  0  0  0  0  0  0  0  0  0
   27.0145  -18.7703  -13.7962 C   0  0  0  0  0  0  0  0  0  0  0  0
   27.3722  -19.7906  -12.8453 C   0  0  0  0  0  0  0  0  0  0  0  0
   28.3441  -20.7750  -12.8615 C   0  0  0  0  0  0  0  0  0  0  0  0
   28.2684  -21.5077  -11.7365 N   0  0  0  0  0  0  0  0  0  0  0  0
   27.2688  -21.0347  -10.9708 C   0  0  0  0  0  0  0  0  0  0  0  0
   26.7896  -21.4310   -9.7386 C   0  0  0  0  0  0  0  0  0  0  0  0
   25.7225  -20.7573   -9.1554 C   0  0  0  0  0  0  0  0  0  0  0  0
   25.1441  -19.6985   -9.8023 C   0  0  0  0  0  0  0  0  0  0  0  0
   25.6461  -19.3282  -11.0311 C   0  0  0  0  0  0  0  0  0  0  0  0
   26.7077  -19.9859  -11.6284 C   0  0  0  0  0  0  0  0  0  0  0  0
   24.7488  -19.5463  -14.5378 C   0  0  0  0  0  0  0  0  0  0  0  0
   23.8645  -18.6100  -14.4901 O   0  0  0  0  0  0  0  0  0  0  0  0
   24.3401  -20.8451  -14.2139 N   0  0  0  0  0  0  0  0  0  0  0  0
   25.1109  -22.0493  -14.0949 C   0  0  0  0  0  0  0  0  0  0  0  0
   24.1786  -23.1611  -14.5822 C   0  0  0  0  0  0  0  0  0  0  0  0
   22.8615  -22.4623  -14.8416 C   0  0  0  0  0  0  0  0  0  0  0  0
   22.9759  -21.2449  -13.9292 C   0  0  1  0  0  0  0  0  0  0  0  0
   22.7945  -21.7197  -12.5498 C   0  0  0  0  0  0  0  0  0  0  0  0
   23.8192  -22.0174  -11.6719 O   0  0  0  0  0  0  0  0  0  0  0  0
   21.6164  -21.8678  -12.1326 O   0  0  0  0  0  0  0  0  0  0  0  0
  2  1  1  0
  3  2  2  0
  4  3  1  0
  5  4  2  0
  5 11  1  0
  6  7  1  0
  6  5  1  0
  7  9  1  0
  7  8  1  6
  9 10  2  0
 11 12  2  0
 12  2  1  0
 13  9  1  0
 13 14  1  0
 14 25  1  0
 14 15  1  1
 16 15  1  0
 17 16  2  0
 18 17  1  0
 19 18  1  0
 19 24  2  0
 20 21  2  0
 20 19  1  0
 21 22  1  0
 22 23  2  0
 24 23  1  0
 24 16  1  0
 25 27  1  0
 26 25  2  0
 27 28  1  0
 27 31  1  0
 28 29  1  0
 29 30  1  0
 31 30  1  0
 31 32  1  1
 32 34  2  0
 32 33  1  0
M  END
$$$$
