YLI.pdb
     RDKit          3D

 29 29  0  0  1  0  0  0  0  0999 V2000
    9.3060  -11.8213   17.8092 O   0  0  0  0  0  0  0  0  0  0  0  0
    8.6268  -12.8072   18.5414 C   0  0  0  0  0  0  0  0  0  0  0  0
    8.1004  -12.5653   19.7914 C   0  0  0  0  0  0  0  0  0  0  0  0
    7.4352  -13.5739   20.4791 C   0  0  0  0  0  0  0  0  0  0  0  0
    7.2758  -14.8363   19.9516 C   0  0  0  0  0  0  0  0  0  0  0  0
    6.5662  -15.9189   20.6784 C   0  0  0  0  0  0  0  0  0  0  0  0
    7.6065  -16.8689   21.2650 C   0  0  2  0  0  0  0  0  0  0  0  0
    6.8936  -18.0416   21.7329 N   0  0  0  0  0  0  0  0  0  0  0  0
    8.2514  -16.2295   22.4398 C   0  0  0  0  0  0  0  0  0  0  0  0
    9.4476  -15.7978   22.3828 O   0  0  0  0  0  0  0  0  0  0  0  0
    7.8052  -15.0788   18.6954 C   0  0  0  0  0  0  0  0  0  0  0  0
    8.4717  -14.0675   18.0066 C   0  0  0  0  0  0  0  0  0  0  0  0
    5.4829  -12.7089   26.0296 C   0  0  0  0  0  0  0  0  0  0  0  0
    6.5039  -13.3856   25.1688 C   0  0  1  0  0  0  0  0  0  0  0  0
    7.7624  -12.4986   25.1332 C   0  0  0  0  0  0  0  0  0  0  0  0
    6.9446  -14.7314   25.5993 C   0  0  0  0  0  0  0  0  0  0  0  0
    8.0175  -15.3929   24.8140 C   0  0  2  0  0  0  0  0  0  0  0  0
    7.5134  -16.1005   23.6473 N   0  0  0  0  0  0  0  0  0  0  0  0
    9.0022  -16.1709   25.5844 C   0  0  0  0  0  0  0  0  0  0  0  0
    9.1110  -17.4119   25.4348 O   0  0  0  0  0  0  0  0  0  0  0  0
   11.0057  -13.9127   30.2752 C   0  0  0  0  0  0  0  0  0  0  0  0
   10.4904  -14.8345   29.2201 C   0  0  0  0  0  0  0  0  0  0  0  0
   11.5336  -15.2192   28.1906 C   0  0  2  0  0  0  0  0  0  0  0  0
   12.1072  -14.0289   27.4908 C   0  0  0  0  0  0  0  0  0  0  0  0
   10.9097  -16.2139   27.2255 C   0  0  2  0  0  0  0  0  0  0  0  0
    9.8483  -15.5253   26.5123 N   0  0  0  0  0  0  0  0  0  0  0  0
   10.3069  -17.3576   27.9532 C   0  0  0  0  0  0  0  0  0  0  0  0
    9.0525  -17.4660   28.0226 O   0  0  0  0  0  0  0  0  0  0  0  0
   11.0430  -18.3489   28.5832 O   0  0  0  0  0  0  0  0  0  0  0  0
  2 12  2  0
  2  1  1  0
  3  2  1  0
  4  3  2  0
  4  5  1  0
  5 11  2  0
  6  5  1  0
  7  6  1  0
  7  8  1  1
  9  7  1  0
  9 18  1  0
 10  9  2  0
 11 12  1  0
 14 13  1  1
 14 16  1  0
 14 15  1  0
 17 18  1  0
 17 16  1  1
 19 17  1  0
 19 26  1  0
 20 19  2  0
 21 22  1  0
 23 22  1  0
 23 24  1  6
 25 26  1  1
 25 23  1  0
 27 25  1  0
 28 27  2  0
 29 27  1  0
M  END
$$$$
