YLI.pdb
     RDKit          3D

 29 29  0  0  1  0  0  0  0  0999 V2000
    3.3061  -23.5397   24.6672 O   0  0  0  0  0  0  0  0  0  0  0  0
    4.1951  -22.4776   24.4410 C   0  0  0  0  0  0  0  0  0  0  0  0
    4.4004  -21.9423   23.1883 C   0  0  0  0  0  0  0  0  0  0  0  0
    5.2916  -20.8898   23.0131 C   0  0  0  0  0  0  0  0  0  0  0  0
    5.9959  -20.3456   24.0642 C   0  0  0  0  0  0  0  0  0  0  0  0
    6.9488  -19.2211   23.8865 C   0  0  0  0  0  0  0  0  0  0  0  0
    6.9576  -18.8242   22.4130 C   0  0  2  0  0  0  0  0  0  0  0  0
    7.4979  -19.9488   21.6742 N   0  0  0  0  0  0  0  0  0  0  0  0
    7.8718  -17.6703   22.2185 C   0  0  0  0  0  0  0  0  0  0  0  0
    9.1021  -17.8422   21.9403 O   0  0  0  0  0  0  0  0  0  0  0  0
    5.7894  -20.8840   25.3230 C   0  0  0  0  0  0  0  0  0  0  0  0
    4.8959  -21.9389   25.4979 C   0  0  0  0  0  0  0  0  0  0  0  0
    6.5544  -13.0042   19.4651 C   0  0  0  0  0  0  0  0  0  0  0  0
    7.2624  -14.1499   20.1190 C   0  0  1  0  0  0  0  0  0  0  0  0
    8.6396  -14.3063   19.4478 C   0  0  0  0  0  0  0  0  0  0  0  0
    7.5095  -14.0312   21.5735 C   0  0  0  0  0  0  0  0  0  0  0  0
    8.1886  -15.1625   22.2551 C   0  0  2  0  0  0  0  0  0  0  0  0
    7.3568  -16.3522   22.3468 N   0  0  0  0  0  0  0  0  0  0  0  0
    8.8836  -14.8414   23.5131 C   0  0  0  0  0  0  0  0  0  0  0  0
   10.0379  -14.3494   23.5109 O   0  0  0  0  0  0  0  0  0  0  0  0
    6.0347  -12.1892   26.4346 C   0  0  0  0  0  0  0  0  0  0  0  0
    7.1211  -13.0018   25.8117 C   0  0  0  0  0  0  0  0  0  0  0  0
    7.8493  -13.8945   26.7961 C   0  0  2  0  0  0  0  0  0  0  0  0
    8.4814  -13.1185   27.9068 C   0  0  0  0  0  0  0  0  0  0  0  0
    8.8579  -14.7322   26.0273 C   0  0  2  0  0  0  0  0  0  0  0  0
    8.2547  -15.0841   24.7537 N   0  0  0  0  0  0  0  0  0  0  0  0
    9.1696  -15.9894   26.7506 C   0  0  0  0  0  0  0  0  0  0  0  0
    8.5073  -17.0344   26.5064 O   0  0  0  0  0  0  0  0  0  0  0  0
   10.1671  -16.1060   27.7060 O   0  0  0  0  0  0  0  0  0  0  0  0
  2 12  2  0
  2  1  1  0
  3  2  1  0
  4  3  2  0
  4  5  1  0
  5 11  2  0
  6  5  1  0
  7  6  1  0
  7  8  1  6
  9  7  1  0
  9 18  1  0
 10  9  2  0
 11 12  1  0
 14 13  1  6
 14 16  1  0
 14 15  1  0
 17 18  1  0
 17 16  1  1
 19 17  1  0
 19 26  1  0
 20 19  2  0
 21 22  1  0
 23 22  1  0
 23 24  1  1
 25 26  1  6
 25 23  1  0
 27 25  1  0
 28 27  2  0
 29 27  1  0
M  END
$$$$
