YLI.pdb
     RDKit          3D

 29 29  0  0  1  0  0  0  0  0999 V2000
    9.8852  -19.6623   29.3694 O   0  0  0  0  0  0  0  0  0  0  0  0
    8.9392  -19.3682   28.3755 C   0  0  0  0  0  0  0  0  0  0  0  0
    7.8590  -20.1848   28.1214 C   0  0  0  0  0  0  0  0  0  0  0  0
    6.9473  -19.8520   27.1261 C   0  0  0  0  0  0  0  0  0  0  0  0
    7.0807  -18.7125   26.3638 C   0  0  0  0  0  0  0  0  0  0  0  0
    6.1116  -18.3489   25.2996 C   0  0  0  0  0  0  0  0  0  0  0  0
    6.5838  -18.9648   23.9857 C   0  0  2  0  0  0  0  0  0  0  0  0
    7.3445  -20.1521   24.3232 N   0  0  0  0  0  0  0  0  0  0  0  0
    7.4985  -18.0185   23.2980 C   0  0  0  0  0  0  0  0  0  0  0  0
    8.7572  -18.0652   23.4821 O   0  0  0  0  0  0  0  0  0  0  0  0
    8.1665  -17.8923   26.6195 C   0  0  0  0  0  0  0  0  0  0  0  0
    9.0798  -18.2264   27.6173 C   0  0  0  0  0  0  0  0  0  0  0  0
    6.8140  -13.2542   19.2400 C   0  0  0  0  0  0  0  0  0  0  0  0
    7.6363  -14.0799   20.1800 C   0  0  1  0  0  0  0  0  0  0  0  0
    8.4345  -13.1222   21.0841 C   0  0  0  0  0  0  0  0  0  0  0  0
    6.8957  -14.9939   21.0782 C   0  0  0  0  0  0  0  0  0  0  0  0
    7.6863  -15.8687   21.9812 C   0  0  2  0  0  0  0  0  0  0  0  0
    6.9514  -17.0450   22.4192 N   0  0  0  0  0  0  0  0  0  0  0  0
    8.4070  -15.1940   23.0738 C   0  0  0  0  0  0  0  0  0  0  0  0
    9.6410  -14.9778   23.0027 O   0  0  0  0  0  0  0  0  0  0  0  0
    6.6750  -11.0158   27.2162 C   0  0  0  0  0  0  0  0  0  0  0  0
    7.6996  -11.9489   26.6611 C   0  0  0  0  0  0  0  0  0  0  0  0
    7.1332  -12.9549   25.6796 C   0  0  2  0  0  0  0  0  0  0  0  0
    6.0081  -13.7475   26.2639 C   0  0  0  0  0  0  0  0  0  0  0  0
    8.2697  -13.8368   25.1887 C   0  0  2  0  0  0  0  0  0  0  0  0
    7.7131  -14.7751   24.2299 N   0  0  0  0  0  0  0  0  0  0  0  0
    8.8605  -14.6165   26.3042 C   0  0  0  0  0  0  0  0  0  0  0  0
    8.5323  -15.8228   26.4692 O   0  0  0  0  0  0  0  0  0  0  0  0
    9.7764  -14.1019   27.2085 O   0  0  0  0  0  0  0  0  0  0  0  0
  2 12  2  0
  2  1  1  0
  3  2  1  0
  4  3  2  0
  4  5  1  0
  5 11  2  0
  6  5  1  0
  7  6  1  0
  7  8  1  1
  9  7  1  0
  9 18  1  0
 10  9  2  0
 11 12  1  0
 14 13  1  1
 14 16  1  0
 14 15  1  0
 17 18  1  0
 17 16  1  1
 19 17  1  0
 19 26  1  0
 20 19  2  0
 21 22  1  0
 23 22  1  0
 23 24  1  1
 25 26  1  6
 25 23  1  0
 27 25  1  0
 28 27  2  0
 29 27  1  0
M  END
$$$$
