YLI.pdb
     RDKit          3D

 29 29  0  0  1  0  0  0  0  0999 V2000
    7.9067  -21.2904   16.6558 O   0  0  0  0  0  0  0  0  0  0  0  0
    8.3410  -20.5631   17.7747 C   0  0  0  0  0  0  0  0  0  0  0  0
    9.6735  -20.4418   18.1031 C   0  0  0  0  0  0  0  0  0  0  0  0
   10.0561  -19.7105   19.2217 C   0  0  0  0  0  0  0  0  0  0  0  0
    9.1374  -19.0863   20.0365 C   0  0  0  0  0  0  0  0  0  0  0  0
    9.5370  -18.3027   21.2324 C   0  0  0  0  0  0  0  0  0  0  0  0
    9.1376  -16.8466   21.0109 C   0  0  2  0  0  0  0  0  0  0  0  0
   10.0495  -16.3024   20.0236 N   0  0  0  0  0  0  0  0  0  0  0  0
    9.3259  -16.0862   22.2724 C   0  0  0  0  0  0  0  0  0  0  0  0
   10.4852  -15.7388   22.6672 O   0  0  0  0  0  0  0  0  0  0  0  0
    7.7984  -19.2087   19.7061 C   0  0  0  0  0  0  0  0  0  0  0  0
    7.4157  -19.9417   18.5846 C   0  0  0  0  0  0  0  0  0  0  0  0
    7.9391  -12.0197   25.5222 C   0  0  0  0  0  0  0  0  0  0  0  0
    7.1035  -13.2473   25.7121 C   0  0  1  0  0  0  0  0  0  0  0  0
    5.6533  -12.8019   25.9775 C   0  0  0  0  0  0  0  0  0  0  0  0
    7.0555  -14.1967   24.5776 C   0  0  0  0  0  0  0  0  0  0  0  0
    8.2699  -15.0047   24.2988 C   0  0  2  0  0  0  0  0  0  0  0  0
    8.1861  -15.7432   23.0485 N   0  0  0  0  0  0  0  0  0  0  0  0
    8.7846  -15.8128   25.4171 C   0  0  0  0  0  0  0  0  0  0  0  0
    8.4630  -17.0184   25.5502 O   0  0  0  0  0  0  0  0  0  0  0  0
   10.9898  -12.7305   29.0110 C   0  0  0  0  0  0  0  0  0  0  0  0
   11.2386  -13.8083   28.0085 C   0  0  0  0  0  0  0  0  0  0  0  0
   10.7987  -15.1815   28.4746 C   0  0  2  0  0  0  0  0  0  0  0  0
   11.8023  -15.8234   29.3780 C   0  0  0  0  0  0  0  0  0  0  0  0
   10.4962  -16.0286   27.2495 C   0  0  2  0  0  0  0  0  0  0  0  0
    9.6573  -15.2375   26.3663 N   0  0  0  0  0  0  0  0  0  0  0  0
    9.7458  -17.2538   27.6196 C   0  0  0  0  0  0  0  0  0  0  0  0
    8.4923  -17.2067   27.7490 O   0  0  0  0  0  0  0  0  0  0  0  0
   10.3383  -18.4872   27.8412 O   0  0  0  0  0  0  0  0  0  0  0  0
  2 12  2  0
  2  1  1  0
  3  2  1  0
  4  3  2  0
  4  5  1  0
  5 11  2  0
  6  5  1  0
  7  6  1  0
  7  8  1  6
  9  7  1  0
  9 18  1  0
 10  9  2  0
 11 12  1  0
 14 13  1  6
 14 16  1  0
 14 15  1  0
 17 18  1  0
 17 16  1  1
 19 17  1  0
 19 26  1  0
 20 19  2  0
 21 22  1  0
 23 22  1  0
 23 24  1  6
 25 26  1  6
 25 23  1  0
 27 25  1  0
 28 27  2  0
 29 27  1  0
M  END
$$$$
