YLI.pdb
     RDKit          3D

 29 29  0  0  1  0  0  0  0  0999 V2000
    4.5471  -24.1018   26.8811 O   0  0  0  0  0  0  0  0  0  0  0  0
    5.2574  -22.9804   26.4258 C   0  0  0  0  0  0  0  0  0  0  0  0
    6.5808  -22.7672   26.7440 C   0  0  0  0  0  0  0  0  0  0  0  0
    7.2433  -21.6410   26.2693 C   0  0  0  0  0  0  0  0  0  0  0  0
    6.6181  -20.7056   25.4746 C   0  0  0  0  0  0  0  0  0  0  0  0
    7.3180  -19.5007   24.9625 C   0  0  0  0  0  0  0  0  0  0  0  0
    7.2441  -19.5108   23.4383 C   0  0  2  0  0  0  0  0  0  0  0  0
    7.9299  -20.7066   22.9885 N   0  0  0  0  0  0  0  0  0  0  0  0
    7.9771  -18.3365   22.9012 C   0  0  0  0  0  0  0  0  0  0  0  0
    9.2419  -18.3563   22.7582 O   0  0  0  0  0  0  0  0  0  0  0  0
    5.2880  -20.9204   25.1553 C   0  0  0  0  0  0  0  0  0  0  0  0
    4.6247  -22.0494   25.6314 C   0  0  0  0  0  0  0  0  0  0  0  0
    8.5186  -13.8216   19.8679 C   0  0  0  0  0  0  0  0  0  0  0  0
    7.5031  -13.7116   20.9625 C   0  0  1  0  0  0  0  0  0  0  0  0
    6.3116  -12.8947   20.4287 C   0  0  0  0  0  0  0  0  0  0  0  0
    6.9489  -14.9825   21.4805 C   0  0  0  0  0  0  0  0  0  0  0  0
    7.8837  -15.9259   22.1452 C   0  0  2  0  0  0  0  0  0  0  0  0
    7.2465  -17.1718   22.5420 N   0  0  0  0  0  0  0  0  0  0  0  0
    8.7475  -15.3560   23.1928 C   0  0  0  0  0  0  0  0  0  0  0  0
    9.8858  -14.9030   22.9217 O   0  0  0  0  0  0  0  0  0  0  0  0
    6.6660  -11.7183   25.6824 C   0  0  0  0  0  0  0  0  0  0  0  0
    7.6198  -12.7461   25.1702 C   0  0  0  0  0  0  0  0  0  0  0  0
    8.1804  -13.6448   26.2538 C   0  0  2  0  0  0  0  0  0  0  0  0
    8.8947  -12.8745   27.3178 C   0  0  0  0  0  0  0  0  0  0  0  0
    9.0698  -14.6882   25.5978 C   0  0  2  0  0  0  0  0  0  0  0  0
    8.3031  -15.3097   24.5322 N   0  0  0  0  0  0  0  0  0  0  0  0
    9.4539  -15.7463   26.5642 C   0  0  0  0  0  0  0  0  0  0  0  0
    8.6971  -16.7394   26.7408 O   0  0  0  0  0  0  0  0  0  0  0  0
   10.6206  -15.7249   27.3125 O   0  0  0  0  0  0  0  0  0  0  0  0
  2 12  2  0
  2  1  1  0
  3  2  1  0
  4  3  2  0
  4  5  1  0
  5 11  2  0
  6  5  1  0
  7  6  1  0
  7  8  1  6
  9  7  1  0
  9 18  1  0
 10  9  2  0
 11 12  1  0
 14 13  1  6
 14 16  1  0
 14 15  1  0
 17 18  1  0
 17 16  1  1
 19 17  1  0
 19 26  1  0
 20 19  2  0
 21 22  1  0
 23 22  1  0
 23 24  1  1
 25 26  1  6
 25 23  1  0
 27 25  1  0
 28 27  2  0
 29 27  1  0
M  END
$$$$
