YLI.pdb
     RDKit          3D

 29 29  0  0  1  0  0  0  0  0999 V2000
    9.7402  -23.6377   19.0635 O   0  0  0  0  0  0  0  0  0  0  0  0
    9.9469  -22.4402   19.7654 C   0  0  0  0  0  0  0  0  0  0  0  0
    9.1691  -22.0732   20.8416 C   0  0  0  0  0  0  0  0  0  0  0  0
    9.4118  -20.8766   21.5063 C   0  0  0  0  0  0  0  0  0  0  0  0
   10.4217  -20.0206   21.1257 C   0  0  0  0  0  0  0  0  0  0  0  0
   10.6886  -18.7414   21.8302 C   0  0  0  0  0  0  0  0  0  0  0  0
    9.5845  -17.7518   21.4688 C   0  0  2  0  0  0  0  0  0  0  0  0
    9.8749  -17.2608   20.1358 N   0  0  0  0  0  0  0  0  0  0  0  0
    9.6336  -16.5963   22.4002 C   0  0  0  0  0  0  0  0  0  0  0  0
   10.6235  -15.7961   22.4081 O   0  0  0  0  0  0  0  0  0  0  0  0
   11.2030  -20.3900   20.0440 C   0  0  0  0  0  0  0  0  0  0  0  0
   10.9592  -21.5895   19.3783 C   0  0  0  0  0  0  0  0  0  0  0  0
    5.8612  -12.7262   24.9367 C   0  0  0  0  0  0  0  0  0  0  0  0
    7.1440  -13.3465   24.4777 C   0  0  1  0  0  0  0  0  0  0  0  0
    8.2987  -12.6861   25.2539 C   0  0  0  0  0  0  0  0  0  0  0  0
    7.2801  -14.8071   24.6749 C   0  0  0  0  0  0  0  0  0  0  0  0
    8.5997  -15.4248   24.3876 C   0  0  2  0  0  0  0  0  0  0  0  0
    8.5515  -16.3860   23.2970 N   0  0  0  0  0  0  0  0  0  0  0  0
    9.3601  -15.9065   25.5530 C   0  0  0  0  0  0  0  0  0  0  0  0
    9.0781  -16.9958   26.1083 O   0  0  0  0  0  0  0  0  0  0  0  0
   11.8976  -13.5284   30.0149 C   0  0  0  0  0  0  0  0  0  0  0  0
   10.7648  -14.4538   29.7170 C   0  0  0  0  0  0  0  0  0  0  0  0
   10.2226  -14.3130   28.3090 C   0  0  2  0  0  0  0  0  0  0  0  0
    8.7366  -14.4684   28.2541 C   0  0  0  0  0  0  0  0  0  0  0  0
   10.9429  -15.3105   27.4167 C   0  0  2  0  0  0  0  0  0  0  0  0
   10.4296  -15.1423   26.0684 N   0  0  0  0  0  0  0  0  0  0  0  0
   10.6665  -16.7045   27.8425 C   0  0  0  0  0  0  0  0  0  0  0  0
    9.5337  -17.2140   27.6250 O   0  0  0  0  0  0  0  0  0  0  0  0
   11.5902  -17.5161   28.4826 O   0  0  0  0  0  0  0  0  0  0  0  0
  2 12  2  0
  2  1  1  0
  3  2  1  0
  4  3  2  0
  4  5  1  0
  5 11  2  0
  6  5  1  0
  7  6  1  0
  7  8  1  6
  9  7  1  0
  9 18  1  0
 10  9  2  0
 11 12  1  0
 14 13  1  1
 14 16  1  0
 14 15  1  0
 17 18  1  0
 17 16  1  1
 19 17  1  0
 19 26  1  0
 20 19  2  0
 21 22  1  0
 23 22  1  0
 23 24  1  1
 25 26  1  6
 25 23  1  0
 27 25  1  0
 28 27  2  0
 29 27  1  0
M  END
$$$$
