AEH.pdb
     RDKit          3D

 25 25  0  0  1  0  0  0  0  0999 V2000
   21.9421  -16.9148   18.9019 C   0  0  0  0  0  0  0  0  0  0  0  0
   20.8265  -16.9804   17.8547 C   0  0  2  0  0  0  0  0  0  0  0  0
   20.9282  -15.8111   17.0301 N   0  0  0  0  0  0  0  0  0  0  0  0
   19.5250  -17.0309   18.5478 C   0  0  0  0  0  0  0  0  0  0  0  0
   18.9935  -15.9586   18.9477 O   0  0  0  0  0  0  0  0  0  0  0  0
   18.8692  -18.2635   18.7681 N   0  0  0  0  0  0  0  0  0  0  0  0
   17.5556  -18.3581   19.4183 C   0  0  1  0  0  0  0  0  0  0  0  0
   16.7598  -19.4833   18.8628 C   0  0  0  0  0  0  0  0  0  0  0  0
   15.3946  -19.5340   19.4420 C   0  0  0  0  0  0  0  0  0  0  0  0
   14.6327  -20.7439   18.9309 C   0  0  0  0  0  0  0  0  0  0  0  0
   15.2865  -21.4985   18.1672 O   0  0  0  0  0  0  0  0  0  0  0  0
   17.7383  -18.4835   20.8895 C   0  0  0  0  0  0  0  0  0  0  0  0
   18.5952  -19.1811   21.4620 O   0  0  0  0  0  0  0  0  0  0  0  0
   13.3324  -20.9772   19.2870 O   0  0  0  0  0  0  0  0  0  0  0  0
   16.8740  -17.7547   21.7879 N   0  0  0  0  0  0  0  0  0  0  0  0
   16.9856  -17.9158   23.2380 C   0  0  1  0  0  0  0  0  0  0  0  0
   17.0490  -16.5938   23.9300 C   0  0  0  0  0  0  0  0  0  0  0  0
   18.3971  -16.0177   23.7893 C   0  0  0  0  0  0  0  0  0  0  0  0
   19.4637  -16.6338   23.1602 C   0  0  0  0  0  0  0  0  0  0  0  0
   20.5170  -15.8170   23.2275 N   0  0  0  0  0  0  0  0  0  0  0  0
   20.1282  -14.7180   23.8792 C   0  0  0  0  0  0  0  0  0  0  0  0
   18.8545  -14.8300   24.2209 N   0  0  0  0  0  0  0  0  0  0  0  0
   15.8645  -18.7671   23.6698 C   0  0  0  0  0  0  0  0  0  0  0  0
   15.7187  -19.1392   24.9878 O   0  0  0  0  0  0  0  0  0  0  0  0
   15.0232  -19.1673   22.8360 O   0  0  0  0  0  0  0  0  0  0  0  0
  2  1  1  1
  2  4  1  0
  2  3  1  0
  4  5  2  0
  6  4  1  0
  7  6  1  0
  7  8  1  6
  9  8  1  0
 10  9  1  0
 10 14  1  0
 11 10  2  0
 12  7  1  0
 13 12  2  0
 15 12  1  0
 16 17  1  1
 16 15  1  0
 17 18  1  0
 18 22  1  0
 19 18  2  0
 19 20  1  0
 20 21  1  0
 22 21  2  0
 23 16  1  0
 24 23  1  0
 25 23  2  0
M  END
$$$$
