AEH.pdb
     RDKit          3D

 25 25  0  0  1  0  0  0  0  0999 V2000
    8.2054  -12.3879   19.0023 C   0  0  0  0  0  0  0  0  0  0  0  0
    8.8754  -13.3365   18.0038 C   0  0  2  0  0  0  0  0  0  0  0  0
    7.8474  -13.9088   17.1834 N   0  0  0  0  0  0  0  0  0  0  0  0
    9.6016  -14.3803   18.7521 C   0  0  0  0  0  0  0  0  0  0  0  0
    9.0114  -15.4561   19.0466 O   0  0  0  0  0  0  0  0  0  0  0  0
   10.9468  -14.1889   19.1415 N   0  0  0  0  0  0  0  0  0  0  0  0
   11.7109  -15.2031   19.8796 C   0  0  1  0  0  0  0  0  0  0  0  0
   13.1408  -15.1996   19.4752 C   0  0  0  0  0  0  0  0  0  0  0  0
   13.3210  -14.7147   18.0844 C   0  0  0  0  0  0  0  0  0  0  0  0
   14.7688  -14.8471   17.6467 C   0  0  0  0  0  0  0  0  0  0  0  0
   14.9422  -15.4715   16.5695 O   0  0  0  0  0  0  0  0  0  0  0  0
   11.5493  -14.9793   21.3415 C   0  0  0  0  0  0  0  0  0  0  0  0
   11.0915  -13.9534   21.8769 O   0  0  0  0  0  0  0  0  0  0  0  0
   15.7936  -14.3191   18.3837 O   0  0  0  0  0  0  0  0  0  0  0  0
   11.9410  -16.0083   22.2759 N   0  0  0  0  0  0  0  0  0  0  0  0
   10.9711  -16.5962   23.2004 C   0  0  1  0  0  0  0  0  0  0  0  0
    9.7192  -16.9998   22.4931 C   0  0  0  0  0  0  0  0  0  0  0  0
    8.7018  -15.9441   22.6315 C   0  0  0  0  0  0  0  0  0  0  0  0
    8.8823  -14.7485   23.3030 C   0  0  0  0  0  0  0  0  0  0  0  0
    7.7501  -14.0470   23.2189 N   0  0  0  0  0  0  0  0  0  0  0  0
    6.8803  -14.7767   22.5157 C   0  0  0  0  0  0  0  0  0  0  0  0
    7.4442  -15.9194   22.1583 N   0  0  0  0  0  0  0  0  0  0  0  0
   11.6491  -17.7004   23.8998 C   0  0  0  0  0  0  0  0  0  0  0  0
   12.3564  -18.6564   23.2051 O   0  0  0  0  0  0  0  0  0  0  0  0
   11.5892  -17.7847   25.1458 O   0  0  0  0  0  0  0  0  0  0  0  0
  2  1  1  1
  2  4  1  0
  2  3  1  0
  4  5  2  0
  6  4  1  0
  7  6  1  0
  7  8  1  6
  9  8  1  0
 10  9  1  0
 10 14  1  0
 11 10  2  0
 12  7  1  0
 13 12  2  0
 15 12  1  0
 16 17  1  6
 16 15  1  0
 17 18  1  0
 18 22  1  0
 19 18  2  0
 19 20  1  0
 20 21  1  0
 22 21  2  0
 23 16  1  0
 24 23  1  0
 25 23  2  0
M  END
$$$$
