AEH.pdb
     RDKit          3D

 25 25  0  0  1  0  0  0  0  0999 V2000
    8.1108  -12.5247   20.0245 C   0  0  0  0  0  0  0  0  0  0  0  0
    8.6304  -13.7447   19.2581 C   0  0  2  0  0  0  0  0  0  0  0  0
    7.6058  -14.1583   18.3434 N   0  0  0  0  0  0  0  0  0  0  0  0
    8.9453  -14.8150   20.2236 C   0  0  0  0  0  0  0  0  0  0  0  0
    8.0046  -15.4117   20.8163 O   0  0  0  0  0  0  0  0  0  0  0  0
   10.2849  -15.1781   20.4908 N   0  0  0  0  0  0  0  0  0  0  0  0
   10.6427  -16.3527   21.2968 C   0  0  1  0  0  0  0  0  0  0  0  0
   12.0098  -16.8342   20.9690 C   0  0  0  0  0  0  0  0  0  0  0  0
   12.3181  -18.1216   21.6392 C   0  0  0  0  0  0  0  0  0  0  0  0
   13.7242  -18.5856   21.3029 C   0  0  0  0  0  0  0  0  0  0  0  0
   14.6447  -17.9323   21.8561 O   0  0  0  0  0  0  0  0  0  0  0  0
   10.5038  -16.0241   22.7411 C   0  0  0  0  0  0  0  0  0  0  0  0
   10.9031  -14.9836   23.2949 O   0  0  0  0  0  0  0  0  0  0  0  0
   13.9509  -19.6382   20.4586 O   0  0  0  0  0  0  0  0  0  0  0  0
    9.8562  -16.9566   23.6335 N   0  0  0  0  0  0  0  0  0  0  0  0
    9.6364  -16.6243   25.0415 C   0  0  1  0  0  0  0  0  0  0  0  0
    8.1803  -16.5130   25.3543 C   0  0  0  0  0  0  0  0  0  0  0  0
    7.6593  -15.2245   24.8676 C   0  0  0  0  0  0  0  0  0  0  0  0
    8.3054  -14.0078   24.9901 C   0  0  0  0  0  0  0  0  0  0  0  0
    7.5362  -13.0684   24.4361 N   0  0  0  0  0  0  0  0  0  0  0  0
    6.4372  -13.6727   23.9772 C   0  0  0  0  0  0  0  0  0  0  0  0
    6.5026  -14.9697   24.2324 N   0  0  0  0  0  0  0  0  0  0  0  0
   10.3483  -17.6328   25.8439 C   0  0  0  0  0  0  0  0  0  0  0  0
   11.0823  -18.6322   25.2445 O   0  0  0  0  0  0  0  0  0  0  0  0
   10.2935  -17.5941   27.0924 O   0  0  0  0  0  0  0  0  0  0  0  0
  2  1  1  1
  2  4  1  0
  2  3  1  0
  4  5  2  0
  6  4  1  0
  7  6  1  0
  7  8  1  1
  9  8  1  0
 10  9  1  0
 10 14  1  0
 11 10  2  0
 12  7  1  0
 13 12  2  0
 15 12  1  0
 16 17  1  1
 16 15  1  0
 17 18  1  0
 18 22  1  0
 19 18  2  0
 19 20  1  0
 20 21  1  0
 22 21  2  0
 23 16  1  0
 24 23  1  0
 25 23  2  0
M  END
$$$$
