AEH.pdb
     RDKit          3D

 25 25  0  0  1  0  0  0  0  0999 V2000
   10.0391  -17.8440   15.2093 C   0  0  0  0  0  0  0  0  0  0  0  0
   10.9481  -18.6779   14.3016 C   0  0  2  0  0  0  0  0  0  0  0  0
   10.1222  -19.6078   13.5871 N   0  0  0  0  0  0  0  0  0  0  0  0
   11.9403  -19.3808   15.1373 C   0  0  0  0  0  0  0  0  0  0  0  0
   11.6691  -20.5271   15.5897 O   0  0  0  0  0  0  0  0  0  0  0  0
   13.1874  -18.7860   15.4355 N   0  0  0  0  0  0  0  0  0  0  0  0
   14.1453  -19.3811   16.3765 C   0  0  1  0  0  0  0  0  0  0  0  0
   15.5131  -18.8395   16.1668 C   0  0  0  0  0  0  0  0  0  0  0  0
   16.1699  -19.4404   14.9797 C   0  0  0  0  0  0  0  0  0  0  0  0
   17.5253  -18.8038   14.7288 C   0  0  0  0  0  0  0  0  0  0  0  0
   17.4946  -17.5720   14.4797 O   0  0  0  0  0  0  0  0  0  0  0  0
   13.6721  -19.1633   17.7701 C   0  0  0  0  0  0  0  0  0  0  0  0
   13.0777  -18.1539   18.1901 O   0  0  0  0  0  0  0  0  0  0  0  0
   18.6816  -19.5338   14.7749 O   0  0  0  0  0  0  0  0  0  0  0  0
   13.8926  -20.1785   18.7731 N   0  0  0  0  0  0  0  0  0  0  0  0
   13.4865  -19.9663   20.1628 C   0  0  1  0  0  0  0  0  0  0  0  0
   12.5667  -21.0451   20.6326 C   0  0  0  0  0  0  0  0  0  0  0  0
   12.2381  -20.8411   22.0536 C   0  0  0  0  0  0  0  0  0  0  0  0
   11.3041  -19.9406   22.5327 C   0  0  0  0  0  0  0  0  0  0  0  0
   11.2780  -20.0341   23.8637 N   0  0  0  0  0  0  0  0  0  0  0  0
   12.1684  -20.9653   24.2155 C   0  0  0  0  0  0  0  0  0  0  0  0
   12.7507  -21.4561   23.1331 N   0  0  0  0  0  0  0  0  0  0  0  0
   14.7165  -19.8351   20.9614 C   0  0  0  0  0  0  0  0  0  0  0  0
   14.6736  -19.4158   22.2726 O   0  0  0  0  0  0  0  0  0  0  0  0
   15.8265  -20.1048   20.4530 O   0  0  0  0  0  0  0  0  0  0  0  0
  2  1  1  1
  2  4  1  0
  2  3  1  0
  4  5  2  0
  6  4  1  0
  7  6  1  0
  7  8  1  1
  9  8  1  0
 10  9  1  0
 10 14  1  0
 11 10  2  0
 12  7  1  0
 13 12  2  0
 15 12  1  0
 16 17  1  1
 16 15  1  0
 17 18  1  0
 18 22  1  0
 19 18  2  0
 19 20  1  0
 20 21  1  0
 22 21  2  0
 23 16  1  0
 24 23  1  0
 25 23  2  0
M  END
$$$$
