AEH.pdb
     RDKit          3D

 25 25  0  0  1  0  0  0  0  0999 V2000
    8.2037  -12.2761   19.8241 C   0  0  0  0  0  0  0  0  0  0  0  0
    8.3751  -13.5205   18.9479 C   0  0  2  0  0  0  0  0  0  0  0  0
    7.1671  -13.6979   18.1951 N   0  0  0  0  0  0  0  0  0  0  0  0
    8.6354  -14.6834   19.8179 C   0  0  0  0  0  0  0  0  0  0  0  0
    7.6675  -15.3867   20.2187 O   0  0  0  0  0  0  0  0  0  0  0  0
    9.9530  -15.0171   20.2058 N   0  0  0  0  0  0  0  0  0  0  0  0
   10.2787  -16.2561   20.9240 C   0  0  1  0  0  0  0  0  0  0  0  0
   11.5343  -16.8622   20.4098 C   0  0  0  0  0  0  0  0  0  0  0  0
   11.8283  -18.1623   21.0617 C   0  0  0  0  0  0  0  0  0  0  0  0
   13.1059  -18.7695   20.5102 C   0  0  0  0  0  0  0  0  0  0  0  0
   12.9493  -19.5204   19.5142 O   0  0  0  0  0  0  0  0  0  0  0  0
   10.3565  -15.9777   22.3834 C   0  0  0  0  0  0  0  0  0  0  0  0
   11.0457  -15.0925   22.9222 O   0  0  0  0  0  0  0  0  0  0  0  0
   14.3265  -18.5065   21.0698 O   0  0  0  0  0  0  0  0  0  0  0  0
    9.5860  -16.7723   23.3109 N   0  0  0  0  0  0  0  0  0  0  0  0
    9.5791  -16.4659   24.7417 C   0  0  1  0  0  0  0  0  0  0  0  0
    8.1874  -16.4136   25.2811 C   0  0  0  0  0  0  0  0  0  0  0  0
    7.6070  -15.0810   25.0445 C   0  0  0  0  0  0  0  0  0  0  0  0
    8.2877  -13.9994   24.5156 C   0  0  0  0  0  0  0  0  0  0  0  0
    7.4442  -12.9674   24.4476 N   0  0  0  0  0  0  0  0  0  0  0  0
    6.2661  -13.3838   24.9193 C   0  0  0  0  0  0  0  0  0  0  0  0
    6.3548  -14.6539   25.2807 N   0  0  0  0  0  0  0  0  0  0  0  0
   10.4438  -17.4565   25.4041 C   0  0  0  0  0  0  0  0  0  0  0  0
   10.7265  -17.3696   26.7492 O   0  0  0  0  0  0  0  0  0  0  0  0
   10.9376  -18.3980   24.7461 O   0  0  0  0  0  0  0  0  0  0  0  0
  2  1  1  1
  2  4  1  0
  2  3  1  0
  4  5  2  0
  6  4  1  0
  7  6  1  0
  7  8  1  6
  9  8  1  0
 10  9  1  0
 10 14  1  0
 11 10  2  0
 12  7  1  0
 13 12  2  0
 15 12  1  0
 16 17  1  1
 16 15  1  0
 17 18  1  0
 18 22  1  0
 19 18  2  0
 19 20  1  0
 20 21  1  0
 22 21  2  0
 23 16  1  0
 24 23  1  0
 25 23  2  0
M  END
$$$$
