AEH.pdb
     RDKit          3D

 25 25  0  0  1  0  0  0  0  0999 V2000
    8.2613  -12.3090   20.3193 C   0  0  0  0  0  0  0  0  0  0  0  0
    8.3647  -13.6138   19.5239 C   0  0  2  0  0  0  0  0  0  0  0  0
    7.1542  -13.7660   18.7697 N   0  0  0  0  0  0  0  0  0  0  0  0
    8.5480  -14.7333   20.4673 C   0  0  0  0  0  0  0  0  0  0  0  0
    7.5369  -15.3552   20.8953 O   0  0  0  0  0  0  0  0  0  0  0  0
    9.8397  -15.1156   20.8953 N   0  0  0  0  0  0  0  0  0  0  0  0
   10.0998  -16.3744   21.6059 C   0  0  1  0  0  0  0  0  0  0  0  0
   11.2473  -17.1038   21.0064 C   0  0  0  0  0  0  0  0  0  0  0  0
   11.4267  -18.4463   21.6123 C   0  0  0  0  0  0  0  0  0  0  0  0
   12.5932  -19.1788   20.9735 C   0  0  0  0  0  0  0  0  0  0  0  0
   12.8806  -20.2821   21.5030 O   0  0  0  0  0  0  0  0  0  0  0  0
   10.3175  -16.0927   23.0504 C   0  0  0  0  0  0  0  0  0  0  0  0
   11.2394  -15.4081   23.5300 O   0  0  0  0  0  0  0  0  0  0  0  0
   13.2678  -18.6597   19.9024 O   0  0  0  0  0  0  0  0  0  0  0  0
    9.4110  -16.6348   24.0352 N   0  0  0  0  0  0  0  0  0  0  0  0
    9.5780  -16.3379   25.4582 C   0  0  1  0  0  0  0  0  0  0  0  0
    8.2589  -16.2025   26.1452 C   0  0  0  0  0  0  0  0  0  0  0  0
    7.5584  -15.0032   25.6554 C   0  0  0  0  0  0  0  0  0  0  0  0
    8.1342  -13.7561   25.4940 C   0  0  0  0  0  0  0  0  0  0  0  0
    7.2003  -12.9211   25.0339 N   0  0  0  0  0  0  0  0  0  0  0  0
    6.0686  -13.6189   24.9083 C   0  0  0  0  0  0  0  0  0  0  0  0
    6.2747  -14.8723   25.2799 N   0  0  0  0  0  0  0  0  0  0  0  0
   10.4455  -17.3848   26.0233 C   0  0  0  0  0  0  0  0  0  0  0  0
   10.9260  -17.2940   27.3108 O   0  0  0  0  0  0  0  0  0  0  0  0
   10.7603  -18.3788   25.3333 O   0  0  0  0  0  0  0  0  0  0  0  0
  2  1  1  1
  2  4  1  0
  2  3  1  0
  4  5  2  0
  6  4  1  0
  7  6  1  0
  7  8  1  6
  9  8  1  0
 10  9  1  0
 10 14  1  0
 11 10  2  0
 12  7  1  0
 13 12  2  0
 15 12  1  0
 16 17  1  1
 16 15  1  0
 17 18  1  0
 18 22  1  0
 19 18  2  0
 19 20  1  0
 20 21  1  0
 22 21  2  0
 23 16  1  0
 24 23  1  0
 25 23  2  0
M  END
$$$$
