AEH.pdb
     RDKit          3D

 25 25  0  0  1  0  0  0  0  0999 V2000
   10.3232  -16.4815   17.7511 C   0  0  0  0  0  0  0  0  0  0  0  0
    9.9588  -17.9679   17.6906 C   0  0  2  0  0  0  0  0  0  0  0  0
    8.6460  -18.0758   17.1228 N   0  0  0  0  0  0  0  0  0  0  0  0
    9.9946  -18.5231   19.0571 C   0  0  0  0  0  0  0  0  0  0  0  0
    9.0147  -18.3335   19.8292 O   0  0  0  0  0  0  0  0  0  0  0  0
   11.1110  -19.2627   19.5093 N   0  0  0  0  0  0  0  0  0  0  0  0
   11.1894  -19.8348   20.8597 C   0  0  1  0  0  0  0  0  0  0  0  0
   12.0779  -21.0255   20.8892 C   0  0  0  0  0  0  0  0  0  0  0  0
   11.4516  -22.1992   20.2320 C   0  0  0  0  0  0  0  0  0  0  0  0
   12.3894  -23.3933   20.2450 C   0  0  0  0  0  0  0  0  0  0  0  0
   13.5297  -23.1667   20.7233 O   0  0  0  0  0  0  0  0  0  0  0  0
   11.6368  -18.7874   21.8170 C   0  0  0  0  0  0  0  0  0  0  0  0
   12.5687  -17.9828   21.6358 O   0  0  0  0  0  0  0  0  0  0  0  0
   12.0029  -24.6158   19.7674 O   0  0  0  0  0  0  0  0  0  0  0  0
   10.9691  -18.6408   23.0890 N   0  0  0  0  0  0  0  0  0  0  0  0
   11.3322  -17.5646   24.0115 C   0  0  1  0  0  0  0  0  0  0  0  0
   10.1412  -16.7473   24.3912 C   0  0  0  0  0  0  0  0  0  0  0  0
    9.5768  -16.0973   23.1963 C   0  0  0  0  0  0  0  0  0  0  0  0
   10.3038  -15.6995   22.0890 C   0  0  0  0  0  0  0  0  0  0  0  0
    9.4613  -15.1518   21.2108 N   0  0  0  0  0  0  0  0  0  0  0  0
    8.2390  -15.2018   21.7464 C   0  0  0  0  0  0  0  0  0  0  0  0
    8.2989  -15.7690   22.9407 N   0  0  0  0  0  0  0  0  0  0  0  0
   12.0248  -18.1842   25.1536 C   0  0  0  0  0  0  0  0  0  0  0  0
   12.1700  -19.5509   25.2429 O   0  0  0  0  0  0  0  0  0  0  0  0
   12.4935  -17.4695   26.0660 O   0  0  0  0  0  0  0  0  0  0  0  0
  2  1  1  1
  2  4  1  0
  2  3  1  0
  4  5  2  0
  6  4  1  0
  7  6  1  0
  7  8  1  6
  9  8  1  0
 10  9  1  0
 10 14  1  0
 11 10  2  0
 12  7  1  0
 13 12  2  0
 15 12  1  0
 16 17  1  1
 16 15  1  0
 17 18  1  0
 18 22  1  0
 19 18  2  0
 19 20  1  0
 20 21  1  0
 22 21  2  0
 23 16  1  0
 24 23  1  0
 25 23  2  0
M  END
$$$$
