AEH.pdb
     RDKit          3D

 25 25  0  0  1  0  0  0  0  0999 V2000
    8.1144  -12.2687   20.4025 C   0  0  0  0  0  0  0  0  0  0  0  0
    8.3744  -13.5148   19.5509 C   0  0  2  0  0  0  0  0  0  0  0  0
    7.3191  -13.6149   18.5846 N   0  0  0  0  0  0  0  0  0  0  0  0
    8.4020  -14.6972   20.4329 C   0  0  0  0  0  0  0  0  0  0  0  0
    7.3164  -15.2472   20.7666 O   0  0  0  0  0  0  0  0  0  0  0  0
    9.6273  -15.2190   20.9065 N   0  0  0  0  0  0  0  0  0  0  0  0
    9.7102  -16.4502   21.7031 C   0  0  1  0  0  0  0  0  0  0  0  0
   10.7780  -17.3496   21.1943 C   0  0  0  0  0  0  0  0  0  0  0  0
   10.4342  -17.9219   19.8692 C   0  0  0  0  0  0  0  0  0  0  0  0
   11.3145  -19.1168   19.5489 C   0  0  0  0  0  0  0  0  0  0  0  0
   11.3576  -19.4330   18.3330 O   0  0  0  0  0  0  0  0  0  0  0  0
    9.9165  -16.1017   23.1347 C   0  0  0  0  0  0  0  0  0  0  0  0
   10.7026  -15.2412   23.5708 O   0  0  0  0  0  0  0  0  0  0  0  0
   12.0012  -19.7857   20.5252 O   0  0  0  0  0  0  0  0  0  0  0  0
    9.1662  -16.7892   24.1592 N   0  0  0  0  0  0  0  0  0  0  0  0
    9.3258  -16.4422   25.5717 C   0  0  1  0  0  0  0  0  0  0  0  0
    8.0031  -16.2579   26.2405 C   0  0  0  0  0  0  0  0  0  0  0  0
    7.3446  -15.0457   25.7249 C   0  0  0  0  0  0  0  0  0  0  0  0
    7.9920  -13.9880   25.1126 C   0  0  0  0  0  0  0  0  0  0  0  0
    7.0777  -13.0746   24.7798 N   0  0  0  0  0  0  0  0  0  0  0  0
    5.8884  -13.5406   25.1697 C   0  0  0  0  0  0  0  0  0  0  0  0
    6.0394  -14.7257   25.7392 N   0  0  0  0  0  0  0  0  0  0  0  0
   10.1690  -17.4825   26.1838 C   0  0  0  0  0  0  0  0  0  0  0  0
   10.6581  -17.3419   27.4636 O   0  0  0  0  0  0  0  0  0  0  0  0
   10.4548  -18.5166   25.5418 O   0  0  0  0  0  0  0  0  0  0  0  0
  2  1  1  1
  2  4  1  0
  2  3  1  0
  4  5  2  0
  6  4  1  0
  7  6  1  0
  7  8  1  6
  9  8  1  0
 10  9  1  0
 10 14  1  0
 11 10  2  0
 12  7  1  0
 13 12  2  0
 15 12  1  0
 16 17  1  1
 16 15  1  0
 17 18  1  0
 18 22  1  0
 19 18  2  0
 19 20  1  0
 20 21  1  0
 22 21  2  0
 23 16  1  0
 24 23  1  0
 25 23  2  0
M  END
$$$$
