AEH.pdb
     RDKit          3D

 25 25  0  0  1  0  0  0  0  0999 V2000
   15.2913  -17.2581   13.7338 C   0  0  0  0  0  0  0  0  0  0  0  0
   14.2956  -16.0961   13.6710 C   0  0  2  0  0  0  0  0  0  0  0  0
   14.6282  -15.2934   12.5298 N   0  0  0  0  0  0  0  0  0  0  0  0
   14.3961  -15.3148   14.9185 C   0  0  0  0  0  0  0  0  0  0  0  0
   15.2767  -14.4165   15.0182 O   0  0  0  0  0  0  0  0  0  0  0  0
   13.5196  -15.5608   15.9998 N   0  0  0  0  0  0  0  0  0  0  0  0
   13.5668  -14.7916   17.2501 C   0  0  1  0  0  0  0  0  0  0  0  0
   12.3970  -15.0965   18.1142 C   0  0  0  0  0  0  0  0  0  0  0  0
   12.4385  -14.3382   19.3890 C   0  0  0  0  0  0  0  0  0  0  0  0
   11.2681  -14.7117   20.2811 C   0  0  0  0  0  0  0  0  0  0  0  0
   10.5188  -15.6116   19.8238 O   0  0  0  0  0  0  0  0  0  0  0  0
   14.8537  -15.0576   17.9477 C   0  0  0  0  0  0  0  0  0  0  0  0
   15.4115  -16.1650   18.0537 O   0  0  0  0  0  0  0  0  0  0  0  0
   11.0620  -14.1025   21.4887 O   0  0  0  0  0  0  0  0  0  0  0  0
   15.5688  -13.9735   18.5792 N   0  0  0  0  0  0  0  0  0  0  0  0
   16.8378  -14.2080   19.2690 C   0  0  1  0  0  0  0  0  0  0  0  0
   17.7470  -13.0288   19.1531 C   0  0  0  0  0  0  0  0  0  0  0  0
   19.0305  -13.3176   19.8150 C   0  0  0  0  0  0  0  0  0  0  0  0
   19.7884  -14.4576   19.6179 C   0  0  0  0  0  0  0  0  0  0  0  0
   20.8793  -14.3713   20.3817 N   0  0  0  0  0  0  0  0  0  0  0  0
   20.8133  -13.2122   21.0417 C   0  0  0  0  0  0  0  0  0  0  0  0
   19.7045  -12.5717   20.7070 N   0  0  0  0  0  0  0  0  0  0  0  0
   16.5173  -14.5859   20.6554 C   0  0  0  0  0  0  0  0  0  0  0  0
   17.3760  -15.3653   21.3983 O   0  0  0  0  0  0  0  0  0  0  0  0
   15.4499  -14.2004   21.1801 O   0  0  0  0  0  0  0  0  0  0  0  0
  2  1  1  1
  2  4  1  0
  2  3  1  0
  4  5  2  0
  6  4  1  0
  7  6  1  0
  7  8  1  1
  9  8  1  0
 10  9  1  0
 10 14  1  0
 11 10  2  0
 12  7  1  0
 13 12  2  0
 15 12  1  0
 16 17  1  1
 16 15  1  0
 17 18  1  0
 18 22  1  0
 19 18  2  0
 19 20  1  0
 20 21  1  0
 22 21  2  0
 23 16  1  0
 24 23  1  0
 25 23  2  0
M  END
$$$$
