NKW.pdb
     RDKit          3D

 32 33  0  0  1  0  0  0  0  0999 V2000
    9.4886   -9.3239   -8.1502 N   0  0  0  0  0  0  0  0  0  0  0  0
    9.9990   -9.9560   -9.3152 C   0  0  0  0  0  0  0  0  0  0  0  0
    9.1753  -10.4401  -10.1238 O   0  0  0  0  0  0  0  0  0  0  0  0
   11.4427  -10.0640   -9.6073 C   0  0  0  0  0  0  0  0  0  0  0  0
   11.6240  -10.6029  -10.9886 C   0  0  2  0  0  0  0  0  0  0  0  0
   11.6044  -12.0544  -10.9266 N   0  0  0  0  0  0  0  0  0  0  0  0
   12.8862  -10.1156  -11.6253 C   0  0  0  0  0  0  0  0  0  0  0  0
   14.0000  -10.6215  -11.3284 O   0  0  0  0  0  0  0  0  0  0  0  0
   12.8843   -9.0711  -12.5835 N   0  0  0  0  0  0  0  0  0  0  0  0
   14.0869   -8.6499  -13.3121 C   0  0  1  0  0  0  0  0  0  0  0  0
   13.7908   -8.4660  -14.7681 C   0  0  0  0  0  0  0  0  0  0  0  0
   14.9414   -8.1150  -15.6378 C   0  0  0  0  0  0  0  0  0  0  0  0
   14.4684   -8.0366  -17.0790 C   0  0  0  0  0  0  0  0  0  0  0  0
   15.6796   -7.6760  -17.9166 C   0  0  0  0  0  0  0  0  0  0  0  0
   15.2596   -7.7526  -19.3064 N   0  0  0  0  0  0  0  0  0  0  0  0
   14.6076   -7.3799  -12.7452 C   0  0  0  0  0  0  0  0  0  0  0  0
   13.7902   -6.4816  -12.4422 O   0  0  0  0  0  0  0  0  0  0  0  0
   15.9683   -7.1266  -12.5285 N   0  0  0  0  0  0  0  0  0  0  0  0
   16.4403   -5.8315  -12.0584 C   0  0  1  0  0  0  0  0  0  0  0  0
   17.2676   -5.9908  -10.8196 C   0  0  0  0  0  0  0  0  0  0  0  0
   16.4532   -6.3347   -9.6516 C   0  0  0  0  0  0  0  0  0  0  0  0
   16.2570   -7.6317   -9.1559 C   0  0  0  0  0  0  0  0  0  0  0  0
   15.4223   -7.5951   -8.1042 N   0  0  0  0  0  0  0  0  0  0  0  0
   15.0546   -6.3358   -7.8762 C   0  0  0  0  0  0  0  0  0  0  0  0
   14.2314   -5.7908   -6.9027 C   0  0  0  0  0  0  0  0  0  0  0  0
   14.0194   -4.4298   -6.8556 C   0  0  0  0  0  0  0  0  0  0  0  0
   14.6540   -3.6291   -7.8094 C   0  0  0  0  0  0  0  0  0  0  0  0
   15.4700   -4.1738   -8.7749 C   0  0  0  0  0  0  0  0  0  0  0  0
   15.6747   -5.5378   -8.8138 C   0  0  0  0  0  0  0  0  0  0  0  0
   17.1192   -5.0518  -13.0854 C   0  0  0  0  0  0  0  0  0  0  0  0
   17.3918   -5.5445  -14.2389 O   0  0  0  0  0  0  0  0  0  0  0  0
   17.5198   -3.7319  -12.9233 O   0  0  0  0  0  0  0  0  0  0  0  0
  1  2  1  0
  2  3  2  0
  4  5  1  0
  4  2  1  0
  5  6  1  1
  7  5  1  0
  7  8  2  0
  9  7  1  0
 10  9  1  0
 10 11  1  6
 12 11  1  0
 12 13  1  0
 13 14  1  0
 15 14  1  0
 16 10  1  0
 17 16  2  0
 18 16  1  0
 19 30  1  0
 19 18  1  0
 20 21  1  0
 19 20  1  1
 21 22  2  0
 21 29  1  0
 22 23  1  0
 23 24  1  0
 24 25  2  0
 26 25  1  0
 27 26  2  0
 28 29  2  0
 28 27  1  0
 29 24  1  0
 30 32  1  0
 31 30  2  0
M  END
$$$$
