NKW.pdb
     RDKit          3D

 32 33  0  0  1  0  0  0  0  0999 V2000
   31.5577  -18.1789  -18.8618 N   0  0  0  0  0  0  0  0  0  0  0  0
   31.0559  -16.9414  -18.3782 C   0  0  0  0  0  0  0  0  0  0  0  0
   31.6740  -15.8993  -18.6921 O   0  0  0  0  0  0  0  0  0  0  0  0
   29.8506  -16.8357  -17.5312 C   0  0  0  0  0  0  0  0  0  0  0  0
   29.3547  -18.2079  -17.2113 C   0  0  2  0  0  0  0  0  0  0  0  0
   28.7445  -18.7705  -18.4040 N   0  0  0  0  0  0  0  0  0  0  0  0
   28.3888  -18.2090  -16.0698 C   0  0  0  0  0  0  0  0  0  0  0  0
   28.6936  -17.6963  -14.9614 O   0  0  0  0  0  0  0  0  0  0  0  0
   27.0977  -18.7828  -16.1846 N   0  0  0  0  0  0  0  0  0  0  0  0
   26.0969  -18.7248  -15.1126 C   0  0  1  0  0  0  0  0  0  0  0  0
   24.7588  -18.3268  -15.6537 C   0  0  0  0  0  0  0  0  0  0  0  0
   24.6471  -16.9487  -16.1938 C   0  0  0  0  0  0  0  0  0  0  0  0
   23.2231  -16.7155  -16.6681 C   0  0  0  0  0  0  0  0  0  0  0  0
   23.1928  -15.3356  -17.2955 C   0  0  0  0  0  0  0  0  0  0  0  0
   21.8262  -15.1122  -17.7386 N   0  0  0  0  0  0  0  0  0  0  0  0
   25.9906  -20.0458  -14.4424 C   0  0  0  0  0  0  0  0  0  0  0  0
   26.3729  -21.0631  -15.0635 O   0  0  0  0  0  0  0  0  0  0  0  0
   25.4842  -20.2212  -13.1481 N   0  0  0  0  0  0  0  0  0  0  0  0
   25.4050  -21.5372  -12.5291 C   0  0  1  0  0  0  0  0  0  0  0  0
   26.5670  -21.7569  -11.6094 C   0  0  0  0  0  0  0  0  0  0  0  0
   26.4481  -20.9802  -10.3731 C   0  0  0  0  0  0  0  0  0  0  0  0
   25.2805  -20.3448   -9.9264 C   0  0  0  0  0  0  0  0  0  0  0  0
   25.5307  -19.6855   -8.7832 N   0  0  0  0  0  0  0  0  0  0  0  0
   26.8085  -19.8527   -8.4478 C   0  0  0  0  0  0  0  0  0  0  0  0
   27.5301  -19.3927   -7.3569 C   0  0  0  0  0  0  0  0  0  0  0  0
   28.8597  -19.7259   -7.2140 C   0  0  0  0  0  0  0  0  0  0  0  0
   29.4475  -20.5323   -8.1927 C   0  0  0  0  0  0  0  0  0  0  0  0
   28.7280  -20.9866   -9.2749 C   0  0  0  0  0  0  0  0  0  0  0  0
   27.3976  -20.6462   -9.4089 C   0  0  0  0  0  0  0  0  0  0  0  0
   24.1255  -21.8003  -11.8831 C   0  0  0  0  0  0  0  0  0  0  0  0
   23.8072  -22.9713  -11.4647 O   0  0  0  0  0  0  0  0  0  0  0  0
   23.1547  -20.8334  -11.6559 O   0  0  0  0  0  0  0  0  0  0  0  0
  1  2  1  0
  2  3  2  0
  4  5  1  0
  4  2  1  0
  5  6  1  6
  7  5  1  0
  7  8  2  0
  9  7  1  0
 10  9  1  0
 10 11  1  6
 12 11  1  0
 12 13  1  0
 13 14  1  0
 15 14  1  0
 16 10  1  0
 17 16  2  0
 18 16  1  0
 19 30  1  0
 19 18  1  0
 20 21  1  0
 19 20  1  1
 21 22  2  0
 21 29  1  0
 22 23  1  0
 23 24  1  0
 24 25  2  0
 26 25  1  0
 27 26  2  0
 28 29  2  0
 28 27  1  0
 29 24  1  0
 30 32  1  0
 31 30  2  0
M  END
$$$$
