NKW.pdb
     RDKit          3D

 32 33  0  0  1  0  0  0  0  0999 V2000
   17.0592  -18.3951  -14.0683 N   0  0  0  0  0  0  0  0  0  0  0  0
   16.9809  -17.5081  -15.1747 C   0  0  0  0  0  0  0  0  0  0  0  0
   16.1213  -17.7463  -16.0529 O   0  0  0  0  0  0  0  0  0  0  0  0
   17.8606  -16.3320  -15.3294 C   0  0  0  0  0  0  0  0  0  0  0  0
   18.3010  -16.2334  -16.7534 C   0  0  2  0  0  0  0  0  0  0  0  0
   19.1025  -17.4025  -17.0731 N   0  0  0  0  0  0  0  0  0  0  0  0
   19.0639  -14.9763  -17.0244 C   0  0  0  0  0  0  0  0  0  0  0  0
   20.2518  -14.8406  -16.6310 O   0  0  0  0  0  0  0  0  0  0  0  0
   18.4877  -13.8907  -17.7306 N   0  0  0  0  0  0  0  0  0  0  0  0
   19.2465  -12.6973  -18.1234 C   0  0  1  0  0  0  0  0  0  0  0  0
   18.7088  -12.1186  -19.3953 C   0  0  0  0  0  0  0  0  0  0  0  0
   19.5542  -12.2799  -20.6047 C   0  0  0  0  0  0  0  0  0  0  0  0
   18.8955  -13.2780  -21.5411 C   0  0  0  0  0  0  0  0  0  0  0  0
   19.8552  -13.4924  -22.6952 C   0  0  0  0  0  0  0  0  0  0  0  0
   19.8970  -12.2424  -23.4366 N   0  0  0  0  0  0  0  0  0  0  0  0
   19.1848  -11.6766  -17.0464 C   0  0  0  0  0  0  0  0  0  0  0  0
   18.0756  -11.4272  -16.5227 O   0  0  0  0  0  0  0  0  0  0  0  0
   20.3020  -10.9721  -16.5796 N   0  0  0  0  0  0  0  0  0  0  0  0
   20.1809   -9.9227  -15.5769 C   0  0  1  0  0  0  0  0  0  0  0  0
   21.4965   -9.6871  -14.9001 C   0  0  0  0  0  0  0  0  0  0  0  0
   21.4659   -8.5118  -14.0263 C   0  0  0  0  0  0  0  0  0  0  0  0
   21.0763   -8.5155  -12.6792 C   0  0  0  0  0  0  0  0  0  0  0  0
   21.1226   -7.2658  -12.1891 N   0  0  0  0  0  0  0  0  0  0  0  0
   21.5250   -6.4313  -13.1455 C   0  0  0  0  0  0  0  0  0  0  0  0
   21.7461   -5.0627  -13.1245 C   0  0  0  0  0  0  0  0  0  0  0  0
   22.1940   -4.4147  -14.2553 C   0  0  0  0  0  0  0  0  0  0  0  0
   22.4149   -5.1739  -15.4079 C   0  0  0  0  0  0  0  0  0  0  0  0
   22.1937   -6.5325  -15.4252 C   0  0  0  0  0  0  0  0  0  0  0  0
   21.7442   -7.1712  -14.2878 C   0  0  0  0  0  0  0  0  0  0  0  0
   19.5900   -8.6934  -16.0898 C   0  0  0  0  0  0  0  0  0  0  0  0
   18.7508   -8.0079  -15.4017 O   0  0  0  0  0  0  0  0  0  0  0  0
   19.8758   -8.1534  -17.3371 O   0  0  0  0  0  0  0  0  0  0  0  0
  1  2  1  0
  2  3  2  0
  4  5  1  0
  4  2  1  0
  5  6  1  1
  7  5  1  0
  7  8  2  0
  9  7  1  0
 10  9  1  0
 10 11  1  6
 12 11  1  0
 12 13  1  0
 13 14  1  0
 15 14  1  0
 16 10  1  0
 17 16  2  0
 18 16  1  0
 19 30  1  0
 19 18  1  0
 20 21  1  0
 19 20  1  6
 21 22  2  0
 21 29  1  0
 22 23  1  0
 23 24  1  0
 24 25  2  0
 26 25  1  0
 27 26  2  0
 28 29  2  0
 28 27  1  0
 29 24  1  0
 30 32  1  0
 31 30  2  0
M  END
$$$$
