NKW.pdb
     RDKit          3D

 32 33  0  0  1  0  0  0  0  0999 V2000
   28.7116  -17.7711  -17.6252 N   0  0  0  0  0  0  0  0  0  0  0  0
   28.3187  -17.6793  -16.2635 C   0  0  0  0  0  0  0  0  0  0  0  0
   29.1032  -17.1158  -15.4674 O   0  0  0  0  0  0  0  0  0  0  0  0
   27.0394  -18.2145  -15.7554 C   0  0  0  0  0  0  0  0  0  0  0  0
   26.3027  -18.8702  -16.8772 C   0  0  2  0  0  0  0  0  0  0  0  0
   26.1225  -17.9001  -17.9438 N   0  0  0  0  0  0  0  0  0  0  0  0
   24.9865  -19.4293  -16.4400 C   0  0  0  0  0  0  0  0  0  0  0  0
   24.4416  -19.0464  -15.3719 O   0  0  0  0  0  0  0  0  0  0  0  0
   24.2999  -20.4070  -17.2028 N   0  0  0  0  0  0  0  0  0  0  0  0
   24.4766  -21.8500  -17.0012 C   0  0  1  0  0  0  0  0  0  0  0  0
   25.9222  -22.2283  -17.0960 C   0  0  0  0  0  0  0  0  0  0  0  0
   26.2178  -23.6722  -17.2724 C   0  0  0  0  0  0  0  0  0  0  0  0
   27.4591  -24.0260  -16.4718 C   0  0  0  0  0  0  0  0  0  0  0  0
   28.5416  -24.3719  -17.4755 C   0  0  0  0  0  0  0  0  0  0  0  0
   29.7624  -24.5780  -16.7133 N   0  0  0  0  0  0  0  0  0  0  0  0
   23.9433  -22.2484  -15.6737 C   0  0  0  0  0  0  0  0  0  0  0  0
   23.4739  -23.4011  -15.5401 O   0  0  0  0  0  0  0  0  0  0  0  0
   23.9343  -21.4045  -14.5556 N   0  0  0  0  0  0  0  0  0  0  0  0
   23.4703  -21.8639  -13.2537 C   0  0  1  0  0  0  0  0  0  0  0  0
   24.5799  -22.5399  -12.5080 C   0  0  0  0  0  0  0  0  0  0  0  0
   25.4549  -21.5806  -11.8299 C   0  0  0  0  0  0  0  0  0  0  0  0
   25.0677  -20.7337  -10.7814 C   0  0  0  0  0  0  0  0  0  0  0  0
   26.1003  -19.9532  -10.4225 N   0  0  0  0  0  0  0  0  0  0  0  0
   27.1558  -20.2410  -11.1815 C   0  0  0  0  0  0  0  0  0  0  0  0
   28.4437  -19.7275  -11.1806 C   0  0  0  0  0  0  0  0  0  0  0  0
   29.3851  -20.2135  -12.0622 C   0  0  0  0  0  0  0  0  0  0  0  0
   29.0023  -21.2276  -12.9446 C   0  0  0  0  0  0  0  0  0  0  0  0
   27.7224  -21.7345  -12.9430 C   0  0  0  0  0  0  0  0  0  0  0  0
   26.7874  -21.2401  -12.0570 C   0  0  0  0  0  0  0  0  0  0  0  0
   22.8229  -20.8227  -12.4661 C   0  0  0  0  0  0  0  0  0  0  0  0
   23.0269  -19.5762  -12.6948 O   0  0  0  0  0  0  0  0  0  0  0  0
   21.9391  -21.0709  -11.4239 O   0  0  0  0  0  0  0  0  0  0  0  0
  1  2  1  0
  2  3  2  0
  4  5  1  0
  4  2  1  0
  5  6  1  6
  7  5  1  0
  7  8  2  0
  9  7  1  0
 10  9  1  0
 10 11  1  1
 12 11  1  0
 12 13  1  0
 13 14  1  0
 15 14  1  0
 16 10  1  0
 17 16  2  0
 18 16  1  0
 19 30  1  0
 19 18  1  0
 20 21  1  0
 19 20  1  1
 21 22  2  0
 21 29  1  0
 22 23  1  0
 23 24  1  0
 24 25  2  0
 26 25  1  0
 27 26  2  0
 28 29  2  0
 28 27  1  0
 29 24  1  0
 30 32  1  0
 31 30  2  0
M  END
$$$$
