NKW.pdb
     RDKit          3D

 32 33  0  0  1  0  0  0  0  0999 V2000
   32.1494  -22.2909  -11.9401 N   0  0  0  0  0  0  0  0  0  0  0  0
   31.1937  -21.6117  -11.1386 C   0  0  0  0  0  0  0  0  0  0  0  0
   31.4281  -21.5093   -9.9133 O   0  0  0  0  0  0  0  0  0  0  0  0
   29.9513  -21.0292  -11.6845 C   0  0  0  0  0  0  0  0  0  0  0  0
   29.8834  -21.3061  -13.1508 C   0  0  2  0  0  0  0  0  0  0  0  0
   31.0616  -20.7396  -13.7850 N   0  0  0  0  0  0  0  0  0  0  0  0
   28.6348  -20.7664  -13.7718 C   0  0  0  0  0  0  0  0  0  0  0  0
   28.0135  -19.8046  -13.2490 O   0  0  0  0  0  0  0  0  0  0  0  0
   28.1002  -21.3095  -14.9670 N   0  0  0  0  0  0  0  0  0  0  0  0
   26.8817  -20.7972  -15.6050 C   0  0  1  0  0  0  0  0  0  0  0  0
   26.7550  -21.3144  -17.0043 C   0  0  0  0  0  0  0  0  0  0  0  0
   25.5886  -20.8313  -17.7849 C   0  0  0  0  0  0  0  0  0  0  0  0
   25.5609  -21.5419  -19.1270 C   0  0  0  0  0  0  0  0  0  0  0  0
   24.4947  -20.8584  -19.9606 C   0  0  0  0  0  0  0  0  0  0  0  0
   24.5261  -21.4885  -21.2705 N   0  0  0  0  0  0  0  0  0  0  0  0
   25.6876  -21.1951  -14.8167 C   0  0  0  0  0  0  0  0  0  0  0  0
   25.6353  -22.3587  -14.3581 O   0  0  0  0  0  0  0  0  0  0  0  0
   24.6097  -20.3395  -14.5549 N   0  0  0  0  0  0  0  0  0  0  0  0
   23.6549  -20.6152  -13.4902 C   0  0  1  0  0  0  0  0  0  0  0  0
   23.6832  -19.5253  -12.4627 C   0  0  0  0  0  0  0  0  0  0  0  0
   23.4078  -20.0290  -11.1150 C   0  0  0  0  0  0  0  0  0  0  0  0
   22.1316  -20.2757  -10.5889 C   0  0  0  0  0  0  0  0  0  0  0  0
   22.2369  -20.6879   -9.3149 N   0  0  0  0  0  0  0  0  0  0  0  0
   23.5221  -20.7279   -8.9688 C   0  0  0  0  0  0  0  0  0  0  0  0
   24.1331  -21.1036   -7.7822 C   0  0  0  0  0  0  0  0  0  0  0  0
   25.5068  -21.0840   -7.6726 C   0  0  0  0  0  0  0  0  0  0  0  0
   26.2524  -20.6784   -8.7831 C   0  0  0  0  0  0  0  0  0  0  0  0
   25.6422  -20.3054   -9.9593 C   0  0  0  0  0  0  0  0  0  0  0  0
   24.2661  -20.3276  -10.0581 C   0  0  0  0  0  0  0  0  0  0  0  0
   22.3080  -20.8905  -13.9736 C   0  0  0  0  0  0  0  0  0  0  0  0
   21.6297  -21.8948  -13.5506 O   0  0  0  0  0  0  0  0  0  0  0  0
   21.6413  -20.1091  -14.9085 O   0  0  0  0  0  0  0  0  0  0  0  0
  1  2  1  0
  2  3  2  0
  4  5  1  0
  4  2  1  0
  5  6  1  6
  7  5  1  0
  7  8  2  0
  9  7  1  0
 10  9  1  0
 10 11  1  6
 12 11  1  0
 12 13  1  0
 13 14  1  0
 15 14  1  0
 16 10  1  0
 17 16  2  0
 18 16  1  0
 19 30  1  0
 19 18  1  0
 20 21  1  0
 19 20  1  1
 21 22  2  0
 21 29  1  0
 22 23  1  0
 23 24  1  0
 24 25  2  0
 26 25  1  0
 27 26  2  0
 28 29  2  0
 28 27  1  0
 29 24  1  0
 30 32  1  0
 31 30  2  0
M  END
$$$$
