NKW.pdb
     RDKit          3D

 32 33  0  0  1  0  0  0  0  0999 V2000
   25.1912  -16.4853  -17.5063 N   0  0  0  0  0  0  0  0  0  0  0  0
   23.8896  -16.3830  -16.9474 C   0  0  0  0  0  0  0  0  0  0  0  0
   23.0874  -15.5839  -17.4810 O   0  0  0  0  0  0  0  0  0  0  0  0
   23.4499  -17.1704  -15.7778 C   0  0  0  0  0  0  0  0  0  0  0  0
   24.6137  -17.9339  -15.2357 C   0  0  2  0  0  0  0  0  0  0  0  0
   25.1213  -18.8086  -16.2791 N   0  0  0  0  0  0  0  0  0  0  0  0
   24.2570  -18.7173  -14.0130 C   0  0  0  0  0  0  0  0  0  0  0  0
   23.5473  -18.2134  -13.1037 O   0  0  0  0  0  0  0  0  0  0  0  0
   24.6984  -20.0512  -13.8256 N   0  0  0  0  0  0  0  0  0  0  0  0
   24.3899  -20.8360  -12.6243 C   0  0  1  0  0  0  0  0  0  0  0  0
   24.1059  -22.2628  -12.9783 C   0  0  0  0  0  0  0  0  0  0  0  0
   24.1299  -22.6033  -14.4228 C   0  0  0  0  0  0  0  0  0  0  0  0
   23.8298  -24.0829  -14.5890 C   0  0  0  0  0  0  0  0  0  0  0  0
   25.0150  -24.6896  -15.3143 C   0  0  0  0  0  0  0  0  0  0  0  0
   24.7484  -26.1148  -15.4231 N   0  0  0  0  0  0  0  0  0  0  0  0
   25.5264  -20.7760  -11.6703 C   0  0  0  0  0  0  0  0  0  0  0  0
   26.6659  -21.0958  -12.0780 O   0  0  0  0  0  0  0  0  0  0  0  0
   25.3972  -20.3803  -10.3327 N   0  0  0  0  0  0  0  0  0  0  0  0
   26.5188  -20.4390   -9.4055 C   0  0  1  0  0  0  0  0  0  0  0  0
   26.5092  -19.2517   -8.4919 C   0  0  0  0  0  0  0  0  0  0  0  0
   27.6777  -19.2242   -7.6090 C   0  0  0  0  0  0  0  0  0  0  0  0
   29.0076  -19.0852   -8.0315 C   0  0  0  0  0  0  0  0  0  0  0  0
   29.8301  -19.1445   -6.9713 N   0  0  0  0  0  0  0  0  0  0  0  0
   29.1109  -19.3154   -5.8638 C   0  0  0  0  0  0  0  0  0  0  0  0
   29.4960  -19.4140   -4.5355 C   0  0  0  0  0  0  0  0  0  0  0  0
   28.5473  -19.5656   -3.5474 C   0  0  0  0  0  0  0  0  0  0  0  0
   27.2025  -19.6156   -3.9249 C   0  0  0  0  0  0  0  0  0  0  0  0
   26.8239  -19.5180   -5.2449 C   0  0  0  0  0  0  0  0  0  0  0  0
   27.7819  -19.3676   -6.2264 C   0  0  0  0  0  0  0  0  0  0  0  0
   26.6085  -21.6997   -8.6800 C   0  0  0  0  0  0  0  0  0  0  0  0
   25.5619  -22.3612   -8.3415 O   0  0  0  0  0  0  0  0  0  0  0  0
   27.8040  -22.2965   -8.3011 O   0  0  0  0  0  0  0  0  0  0  0  0
  1  2  1  0
  2  3  2  0
  4  5  1  0
  4  2  1  0
  5  6  1  6
  7  5  1  0
  7  8  2  0
  9  7  1  0
 10  9  1  0
 10 11  1  6
 12 11  1  0
 12 13  1  0
 13 14  1  0
 15 14  1  0
 16 10  1  0
 17 16  2  0
 18 16  1  0
 19 30  1  0
 19 18  1  0
 20 21  1  0
 19 20  1  1
 21 22  2  0
 21 29  1  0
 22 23  1  0
 23 24  1  0
 24 25  2  0
 26 25  1  0
 27 26  2  0
 28 29  2  0
 28 27  1  0
 29 24  1  0
 30 32  1  0
 31 30  2  0
M  END
$$$$
