WNP.pdb
     RDKit          3D

 30 32  0  0  1  0  0  0  0  0999 V2000
   28.0522  -19.5299  -10.2333 N   0  0  0  0  0  0  0  0  0  0  0  0
   27.1665  -20.6199   -9.9371 C   0  0  1  0  0  0  0  0  0  0  0  0
   26.3532  -20.3670   -8.6947 C   0  0  0  0  0  0  0  0  0  0  0  0
   27.1025  -19.6676   -7.6295 C   0  0  0  0  0  0  0  0  0  0  0  0
   27.5348  -18.3365   -7.6422 C   0  0  0  0  0  0  0  0  0  0  0  0
   28.2033  -18.0781   -6.5079 N   0  0  0  0  0  0  0  0  0  0  0  0
   28.2367  -19.1802   -5.7350 C   0  0  0  0  0  0  0  0  0  0  0  0
   28.8032  -19.3765   -4.4933 C   0  0  0  0  0  0  0  0  0  0  0  0
   28.6779  -20.6224   -3.9198 C   0  0  0  0  0  0  0  0  0  0  0  0
   28.0117  -21.6268   -4.5675 C   0  0  0  0  0  0  0  0  0  0  0  0
   27.4537  -21.3975   -5.8147 C   0  0  0  0  0  0  0  0  0  0  0  0
   27.5502  -20.1760   -6.4306 C   0  0  0  0  0  0  0  0  0  0  0  0
   26.1983  -20.7785  -11.0566 C   0  0  0  0  0  0  0  0  0  0  0  0
   25.6954  -19.7309  -11.5440 O   0  0  0  0  0  0  0  0  0  0  0  0
   23.5049  -24.7952  -14.5429 N   0  0  0  0  0  0  0  0  0  0  0  0
   24.4650  -23.7453  -14.5469 C   0  0  0  0  0  0  0  0  0  0  0  0
   24.6346  -23.1029  -15.5907 O   0  0  0  0  0  0  0  0  0  0  0  0
   25.1922  -23.4976  -13.2993 C   0  0  0  0  0  0  0  0  0  0  0  0
   25.0096  -22.0800  -12.7662 C   0  0  2  0  0  0  0  0  0  0  0  0
   25.8440  -22.0513  -11.5685 N   0  0  0  0  0  0  0  0  0  0  0  0
   23.6216  -21.7656  -12.4715 C   0  0  0  0  0  0  0  0  0  0  0  0
   23.1636  -22.1742  -11.3606 O   0  0  0  0  0  0  0  0  0  0  0  0
   22.7943  -21.0513  -13.3317 N   0  0  0  0  0  0  0  0  0  0  0  0
   23.2412  -20.5621  -14.6444 C   0  0  0  0  0  0  0  0  0  0  0  0
   22.4357  -19.3130  -14.8497 C   0  0  0  0  0  0  0  0  0  0  0  0
   21.2096  -19.4374  -14.0138 C   0  0  0  0  0  0  0  0  0  0  0  0
   21.4114  -20.6927  -13.1703 C   0  0  1  0  0  0  0  0  0  0  0  0
   20.5468  -21.7724  -13.7766 C   0  0  0  0  0  0  0  0  0  0  0  0
   21.1095  -22.6193  -14.4960 O   0  0  0  0  0  0  0  0  0  0  0  0
   19.1855  -21.8128  -13.5381 O   0  0  0  0  0  0  0  0  0  0  0  0
  2  1  1  6
  2  3  1  0
  4  3  1  0
  4  5  2  0
  6  5  1  0
  7 12  2  0
  7  6  1  0
  8  7  1  0
  9 10  1  0
  9  8  2  0
 10 11  2  0
 11 12  1  0
 12  4  1  0
 13  2  1  0
 13 20  1  0
 14 13  2  0
 16 15  1  0
 17 16  2  0
 18 16  1  0
 19 20  1  0
 19 18  1  1
 21 19  1  0
 22 21  2  0
 23 21  1  0
 24 23  1  0
 25 26  1  0
 25 24  1  0
 26 27  1  0
 27 23  1  0
 27 28  1  6
 28 29  2  0
 28 30  1  0
M  END
$$$$
