WNP.pdb
     RDKit          3D

 30 32  0  0  1  0  0  0  0  0999 V2000
   21.4722  -21.9825  -14.0272 N   0  0  0  0  0  0  0  0  0  0  0  0
   22.5537  -21.0581  -13.8363 C   0  0  1  0  0  0  0  0  0  0  0  0
   23.6100  -21.6057  -12.9126 C   0  0  0  0  0  0  0  0  0  0  0  0
   23.3572  -21.3134  -11.4857 C   0  0  0  0  0  0  0  0  0  0  0  0
   22.1108  -21.2123  -10.8572 C   0  0  0  0  0  0  0  0  0  0  0  0
   22.2920  -20.9098   -9.5626 N   0  0  0  0  0  0  0  0  0  0  0  0
   23.6078  -20.8045   -9.2968 C   0  0  0  0  0  0  0  0  0  0  0  0
   24.2539  -20.5179   -8.1129 C   0  0  0  0  0  0  0  0  0  0  0  0
   25.6306  -20.4816   -8.1249 C   0  0  0  0  0  0  0  0  0  0  0  0
   26.3266  -20.7234   -9.2778 C   0  0  0  0  0  0  0  0  0  0  0  0
   25.6477  -21.0084  -10.4513 C   0  0  0  0  0  0  0  0  0  0  0  0
   24.2779  -21.0561  -10.4945 C   0  0  0  0  0  0  0  0  0  0  0  0
   23.2179  -20.8090  -15.1450 C   0  0  0  0  0  0  0  0  0  0  0  0
   23.5229  -21.8126  -15.8433 O   0  0  0  0  0  0  0  0  0  0  0  0
   25.3186  -16.5615  -18.6667 N   0  0  0  0  0  0  0  0  0  0  0  0
   24.4734  -17.7057  -18.6845 C   0  0  0  0  0  0  0  0  0  0  0  0
   24.3557  -18.3378  -19.7416 O   0  0  0  0  0  0  0  0  0  0  0  0
   23.7950  -18.0571  -17.4342 C   0  0  0  0  0  0  0  0  0  0  0  0
   24.2713  -19.3794  -16.8410 C   0  0  2  0  0  0  0  0  0  0  0  0
   23.5037  -19.4996  -15.6048 N   0  0  0  0  0  0  0  0  0  0  0  0
   25.7039  -19.4019  -16.5977 C   0  0  0  0  0  0  0  0  0  0  0  0
   26.1378  -18.6716  -15.6547 O   0  0  0  0  0  0  0  0  0  0  0  0
   26.5981  -20.1723  -17.3335 N   0  0  0  0  0  0  0  0  0  0  0  0
   26.1691  -21.0987  -18.3919 C   0  0  0  0  0  0  0  0  0  0  0  0
   27.2059  -22.1827  -18.3552 C   0  0  0  0  0  0  0  0  0  0  0  0
   28.4361  -21.5953  -17.7559 C   0  0  0  0  0  0  0  0  0  0  0  0
   28.0338  -20.2073  -17.2665 C   0  0  1  0  0  0  0  0  0  0  0  0
   28.5989  -19.2133  -18.2533 C   0  0  0  0  0  0  0  0  0  0  0  0
   27.8074  -18.7040  -19.0691 O   0  0  0  0  0  0  0  0  0  0  0  0
   29.9424  -18.8867  -18.2454 O   0  0  0  0  0  0  0  0  0  0  0  0
  2  1  1  6
  2  3  1  0
  4  3  1  0
  4  5  2  0
  6  5  1  0
  7 12  2  0
  7  6  1  0
  8  7  1  0
  9 10  1  0
  9  8  2  0
 10 11  2  0
 11 12  1  0
 12  4  1  0
 13  2  1  0
 13 20  1  0
 14 13  2  0
 16 15  1  0
 17 16  2  0
 18 16  1  0
 19 20  1  0
 19 18  1  1
 21 19  1  0
 22 21  2  0
 23 21  1  0
 24 23  1  0
 25 26  1  0
 25 24  1  0
 26 27  1  0
 27 23  1  0
 27 28  1  6
 28 29  2  0
 28 30  1  0
M  END
$$$$
