WNP.pdb
     RDKit          3D

 30 32  0  0  1  0  0  0  0  0999 V2000
   27.6832  -21.9328  -14.3009 N   0  0  0  0  0  0  0  0  0  0  0  0
   26.7282  -21.5523  -13.2991 C   0  0  1  0  0  0  0  0  0  0  0  0
   27.1073  -20.2647  -12.6157 C   0  0  0  0  0  0  0  0  0  0  0  0
   27.9289  -20.4587  -11.4022 C   0  0  0  0  0  0  0  0  0  0  0  0
   29.3012  -20.7290  -11.3515 C   0  0  0  0  0  0  0  0  0  0  0  0
   29.6779  -20.8648  -10.0709 N   0  0  0  0  0  0  0  0  0  0  0  0
   28.6156  -20.6961   -9.2609 C   0  0  0  0  0  0  0  0  0  0  0  0
   28.5327  -20.7404   -7.8852 C   0  0  0  0  0  0  0  0  0  0  0  0
   27.3016  -20.5199   -7.3085 C   0  0  0  0  0  0  0  0  0  0  0  0
   26.2021  -20.2659   -8.0823 C   0  0  0  0  0  0  0  0  0  0  0  0
   26.3185  -20.2284   -9.4623 C   0  0  0  0  0  0  0  0  0  0  0  0
   27.5204  -20.4418  -10.0872 C   0  0  0  0  0  0  0  0  0  0  0  0
   25.4088  -21.3194  -13.9478 C   0  0  0  0  0  0  0  0  0  0  0  0
   25.3278  -20.3768  -14.7801 O   0  0  0  0  0  0  0  0  0  0  0  0
   23.2935  -22.1842  -17.6860 N   0  0  0  0  0  0  0  0  0  0  0  0
   23.8079  -22.8023  -16.5124 C   0  0  0  0  0  0  0  0  0  0  0  0
   24.9821  -23.1924  -16.5154 O   0  0  0  0  0  0  0  0  0  0  0  0
   22.8987  -22.9338  -15.3709 C   0  0  0  0  0  0  0  0  0  0  0  0
   23.0362  -21.8021  -14.3572 C   0  0  2  0  0  0  0  0  0  0  0  0
   24.2759  -22.1178  -13.6534 N   0  0  0  0  0  0  0  0  0  0  0  0
   21.9019  -21.7179  -13.4526 C   0  0  0  0  0  0  0  0  0  0  0  0
   21.9413  -22.4447  -12.4128 O   0  0  0  0  0  0  0  0  0  0  0  0
   20.8030  -20.8935  -13.6700 N   0  0  0  0  0  0  0  0  0  0  0  0
   20.6676  -20.0433  -14.8621 C   0  0  0  0  0  0  0  0  0  0  0  0
   19.8720  -18.8696  -14.3714 C   0  0  0  0  0  0  0  0  0  0  0  0
   19.1067  -19.3245  -13.1777 C   0  0  0  0  0  0  0  0  0  0  0  0
   19.6212  -20.7271  -12.8681 C   0  0  1  0  0  0  0  0  0  0  0  0
   18.5636  -21.6966  -13.3397 C   0  0  0  0  0  0  0  0  0  0  0  0
   18.6909  -22.1697  -14.4848 O   0  0  0  0  0  0  0  0  0  0  0  0
   17.4991  -22.0404  -12.5270 O   0  0  0  0  0  0  0  0  0  0  0  0
  2  1  1  6
  2  3  1  0
  4  3  1  0
  4  5  2  0
  6  5  1  0
  7 12  2  0
  7  6  1  0
  8  7  1  0
  9 10  1  0
  9  8  2  0
 10 11  2  0
 11 12  1  0
 12  4  1  0
 13  2  1  0
 13 20  1  0
 14 13  2  0
 16 15  1  0
 17 16  2  0
 18 16  1  0
 19 20  1  0
 19 18  1  6
 21 19  1  0
 22 21  2  0
 23 21  1  0
 24 23  1  0
 25 26  1  0
 25 24  1  0
 26 27  1  0
 27 23  1  0
 27 28  1  6
 28 29  2  0
 28 30  1  0
M  END
$$$$
