WNP.pdb
     RDKit          3D

 30 32  0  0  1  0  0  0  0  0999 V2000
   25.1838  -20.9008   -9.6495 N   0  0  0  0  0  0  0  0  0  0  0  0
   26.4630  -20.3682  -10.0243 C   0  0  1  0  0  0  0  0  0  0  0  0
   27.5613  -20.8331   -9.1042 C   0  0  0  0  0  0  0  0  0  0  0  0
   27.4577  -20.2852   -7.7352 C   0  0  0  0  0  0  0  0  0  0  0  0
   26.4926  -19.3900   -7.2598 C   0  0  0  0  0  0  0  0  0  0  0  0
   26.7475  -19.1076   -5.9731 N   0  0  0  0  0  0  0  0  0  0  0  0
   27.8428  -19.7766   -5.5659 C   0  0  0  0  0  0  0  0  0  0  0  0
   28.4640  -19.7964   -4.3350 C   0  0  0  0  0  0  0  0  0  0  0  0
   29.5815  -20.5886   -4.1922 C   0  0  0  0  0  0  0  0  0  0  0  0
   30.0530  -21.3287   -5.2421 C   0  0  0  0  0  0  0  0  0  0  0  0
   29.4061  -21.2868   -6.4664 C   0  0  0  0  0  0  0  0  0  0  0  0
   28.2903  -20.5141   -6.6625 C   0  0  0  0  0  0  0  0  0  0  0  0
   26.8126  -20.8546  -11.3870 C   0  0  0  0  0  0  0  0  0  0  0  0
   28.0322  -21.0406  -11.6435 O   0  0  0  0  0  0  0  0  0  0  0  0
   24.8736  -24.2140  -13.2901 N   0  0  0  0  0  0  0  0  0  0  0  0
   25.7620  -23.4719  -14.1171 C   0  0  0  0  0  0  0  0  0  0  0  0
   26.8017  -24.0176  -14.5073 O   0  0  0  0  0  0  0  0  0  0  0  0
   25.3768  -22.0983  -14.4510 C   0  0  0  0  0  0  0  0  0  0  0  0
   26.2447  -21.0458  -13.7683 C   0  0  2  0  0  0  0  0  0  0  0  0
   25.8246  -21.1052  -12.3713 N   0  0  0  0  0  0  0  0  0  0  0  0
   26.0683  -19.7192  -14.3348 C   0  0  0  0  0  0  0  0  0  0  0  0
   25.0691  -19.0497  -13.9294 O   0  0  0  0  0  0  0  0  0  0  0  0
   26.9274  -19.1635  -15.2771 N   0  0  0  0  0  0  0  0  0  0  0  0
   28.1134  -19.8672  -15.7874 C   0  0  0  0  0  0  0  0  0  0  0  0
   29.0763  -18.7590  -16.0977 C   0  0  0  0  0  0  0  0  0  0  0  0
   28.2713  -17.5268  -16.3242 C   0  0  0  0  0  0  0  0  0  0  0  0
   26.8391  -17.8952  -15.9484 C   0  0  1  0  0  0  0  0  0  0  0  0
   26.0780  -18.0721  -17.2408 C   0  0  0  0  0  0  0  0  0  0  0  0
   25.8539  -19.2378  -17.6179 O   0  0  0  0  0  0  0  0  0  0  0  0
   25.6502  -16.9787  -17.9710 O   0  0  0  0  0  0  0  0  0  0  0  0
  2  1  1  1
  2  3  1  0
  4  3  1  0
  4  5  2  0
  6  5  1  0
  7 12  2  0
  7  6  1  0
  8  7  1  0
  9 10  1  0
  9  8  2  0
 10 11  2  0
 11 12  1  0
 12  4  1  0
 13  2  1  0
 13 20  1  0
 14 13  2  0
 16 15  1  0
 17 16  2  0
 18 16  1  0
 19 20  1  0
 19 18  1  6
 21 19  1  0
 22 21  2  0
 23 21  1  0
 24 23  1  0
 25 26  1  0
 25 24  1  0
 26 27  1  0
 27 23  1  0
 27 28  1  6
 28 29  2  0
 28 30  1  0
M  END
$$$$
