WNP.pdb
     RDKit          3D

 30 32  0  0  1  0  0  0  0  0999 V2000
   26.5178  -18.5962   -9.1138 N   0  0  0  0  0  0  0  0  0  0  0  0
   26.8007  -19.9252   -9.5764 C   0  0  1  0  0  0  0  0  0  0  0  0
   26.0800  -20.9717   -8.7674 C   0  0  0  0  0  0  0  0  0  0  0  0
   26.3039  -20.8515   -7.3112 C   0  0  0  0  0  0  0  0  0  0  0  0
   25.3248  -20.8039   -6.3121 C   0  0  0  0  0  0  0  0  0  0  0  0
   25.9193  -20.6659   -5.1172 N   0  0  0  0  0  0  0  0  0  0  0  0
   27.2559  -20.6196   -5.2733 C   0  0  0  0  0  0  0  0  0  0  0  0
   28.2554  -20.4928   -4.3320 C   0  0  0  0  0  0  0  0  0  0  0  0
   29.5589  -20.4822   -4.7766 C   0  0  0  0  0  0  0  0  0  0  0  0
   29.8439  -20.5944   -6.1102 C   0  0  0  0  0  0  0  0  0  0  0  0
   28.8166  -20.7201   -7.0311 C   0  0  0  0  0  0  0  0  0  0  0  0
   27.5017  -20.7355   -6.6418 C   0  0  0  0  0  0  0  0  0  0  0  0
   26.3218  -20.0647  -10.9790 C   0  0  0  0  0  0  0  0  0  0  0  0
   25.2721  -19.4457  -11.2999 O   0  0  0  0  0  0  0  0  0  0  0  0
   27.9688  -18.6769  -14.4849 N   0  0  0  0  0  0  0  0  0  0  0  0
   28.5600  -19.9572  -14.6720 C   0  0  0  0  0  0  0  0  0  0  0  0
   29.6266  -20.0310  -15.2949 O   0  0  0  0  0  0  0  0  0  0  0  0
   27.8545  -21.1102  -14.1066 C   0  0  0  0  0  0  0  0  0  0  0  0
   26.6004  -20.7267  -13.3271 C   0  0  2  0  0  0  0  0  0  0  0  0
   27.0077  -20.8586  -11.9313 N   0  0  0  0  0  0  0  0  0  0  0  0
   25.4615  -21.5716  -13.6450 C   0  0  0  0  0  0  0  0  0  0  0  0
   25.4559  -22.7392  -13.1473 O   0  0  0  0  0  0  0  0  0  0  0  0
   24.4018  -21.1655  -14.4492 N   0  0  0  0  0  0  0  0  0  0  0  0
   24.3950  -19.8851  -15.1723 C   0  0  0  0  0  0  0  0  0  0  0  0
   22.9411  -19.5184  -15.2292 C   0  0  0  0  0  0  0  0  0  0  0  0
   22.1630  -20.7814  -15.0985 C   0  0  0  0  0  0  0  0  0  0  0  0
   23.1866  -21.8639  -14.7692 C   0  0  1  0  0  0  0  0  0  0  0  0
   23.3961  -22.6679  -16.0305 C   0  0  0  0  0  0  0  0  0  0  0  0
   24.4212  -22.4301  -16.6968 O   0  0  0  0  0  0  0  0  0  0  0  0
   22.4820  -23.6279  -16.4235 O   0  0  0  0  0  0  0  0  0  0  0  0
  2  1  1  1
  2  3  1  0
  4  3  1  0
  4  5  2  0
  6  5  1  0
  7 12  2  0
  7  6  1  0
  8  7  1  0
  9 10  1  0
  9  8  2  0
 10 11  2  0
 11 12  1  0
 12  4  1  0
 13  2  1  0
 13 20  1  0
 14 13  2  0
 16 15  1  0
 17 16  2  0
 18 16  1  0
 19 20  1  0
 19 18  1  6
 21 19  1  0
 22 21  2  0
 23 21  1  0
 24 23  1  0
 25 26  1  0
 25 24  1  0
 26 27  1  0
 27 23  1  0
 27 28  1  6
 28 29  2  0
 28 30  1  0
M  END
$$$$
