WGS.pdb
     RDKit          3D

 25 26  0  0  1  0  0  0  0  0999 V2000
   28.5439  -21.9622  -10.5386 N   0  0  0  0  0  0  0  0  0  0  0  0
   27.3068  -21.3667  -10.1126 C   0  0  1  0  0  0  0  0  0  0  0  0
   27.5615  -20.1153   -9.2970 C   0  0  0  0  0  0  0  0  0  0  0  0
   28.5027  -20.4385   -8.1982 C   0  0  0  0  0  0  0  0  0  0  0  0
   29.6698  -21.1451   -8.3112 C   0  0  0  0  0  0  0  0  0  0  0  0
   30.2291  -21.2184   -7.0940 N   0  0  0  0  0  0  0  0  0  0  0  0
   29.4657  -20.5833   -6.1919 C   0  0  0  0  0  0  0  0  0  0  0  0
   29.5719  -20.3612   -4.8283 C   0  0  0  0  0  0  0  0  0  0  0  0
   28.6153  -19.6569   -4.1356 C   0  0  0  0  0  0  0  0  0  0  0  0
   27.5367  -19.1759   -4.8552 C   0  0  0  0  0  0  0  0  0  0  0  0
   27.4047  -19.3830   -6.2193 C   0  0  0  0  0  0  0  0  0  0  0  0
   28.3794  -20.0908   -6.8787 C   0  0  0  0  0  0  0  0  0  0  0  0
   26.4314  -21.0582  -11.2919 C   0  0  0  0  0  0  0  0  0  0  0  0
   26.8791  -20.4869  -12.3129 O   0  0  0  0  0  0  0  0  0  0  0  0
   25.0373  -21.4025  -11.3090 N   0  0  0  0  0  0  0  0  0  0  0  0
   24.2524  -21.1684  -12.4787 C   0  0  0  0  0  0  0  0  0  0  0  0
   22.9938  -20.4735  -12.1219 C   0  0  0  0  0  0  0  0  0  0  0  0
   22.7207  -20.2235  -10.9006 O   0  0  0  0  0  0  0  0  0  0  0  0
   20.2318  -19.4109  -14.9386 O   0  0  0  0  0  0  0  0  0  0  0  0
   20.1455  -18.6535  -13.7694 C   0  0  0  0  0  0  0  0  0  0  0  0
   20.8058  -19.4524  -12.6718 C   0  0  2  0  0  0  0  0  0  0  0  0
   22.0366  -20.0518  -13.0771 N   0  0  0  0  0  0  0  0  0  0  0  0
   19.8794  -20.4926  -12.1917 C   0  0  0  0  0  0  0  0  0  0  0  0
   20.1175  -21.7159  -12.3701 O   0  0  0  0  0  0  0  0  0  0  0  0
   18.7224  -20.1201  -11.5305 O   0  0  0  0  0  0  0  0  0  0  0  0
  2  1  1  6
  2 13  1  0
  3  2  1  0
  4  3  1  0
  5  4  2  0
  6  5  1  0
  7  6  1  0
  7 12  2  0
  8  9  2  0
  8  7  1  0
  9 10  1  0
 10 11  2  0
 12 11  1  0
 12  4  1  0
 13 14  2  0
 13 15  1  0
 15 16  1  0
 17 18  2  0
 17 16  1  0
 21 20  1  6
 20 19  1  0
 21 22  1  0
 22 17  1  0
 23 21  1  0
 24 23  2  0
 25 23  1  0
M  END
$$$$
