WGS.pdb
     RDKit          3D

 25 26  0  0  1  0  0  0  0  0999 V2000
   26.7460  -22.3378  -13.0266 N   0  0  0  0  0  0  0  0  0  0  0  0
   25.8984  -21.3755  -12.3769 C   0  0  1  0  0  0  0  0  0  0  0  0
   26.6784  -20.1303  -12.0068 C   0  0  0  0  0  0  0  0  0  0  0  0
   27.7264  -20.4918  -11.0226 C   0  0  0  0  0  0  0  0  0  0  0  0
   28.9838  -20.9518  -11.3084 C   0  0  0  0  0  0  0  0  0  0  0  0
   29.6224  -21.1605  -10.1473 N   0  0  0  0  0  0  0  0  0  0  0  0
   28.8234  -20.8520   -9.1146 C   0  0  0  0  0  0  0  0  0  0  0  0
   28.9769  -20.8814   -7.7378 C   0  0  0  0  0  0  0  0  0  0  0  0
   27.9633  -20.4991   -6.8908 C   0  0  0  0  0  0  0  0  0  0  0  0
   26.7779  -20.0818   -7.4680 C   0  0  0  0  0  0  0  0  0  0  0  0
   26.5966  -20.0421   -8.8415 C   0  0  0  0  0  0  0  0  0  0  0  0
   27.6306  -20.4311   -9.6572 C   0  0  0  0  0  0  0  0  0  0  0  0
   24.7275  -21.0247  -13.2475 C   0  0  0  0  0  0  0  0  0  0  0  0
   24.8800  -20.5701  -14.4049 O   0  0  0  0  0  0  0  0  0  0  0  0
   23.3740  -21.1928  -12.7978 N   0  0  0  0  0  0  0  0  0  0  0  0
   22.2836  -20.8352  -13.6477 C   0  0  0  0  0  0  0  0  0  0  0  0
   20.9944  -21.1349  -12.9824 C   0  0  0  0  0  0  0  0  0  0  0  0
   20.7896  -22.2828  -12.4637 O   0  0  0  0  0  0  0  0  0  0  0  0
   17.8008  -18.6528  -13.3167 O   0  0  0  0  0  0  0  0  0  0  0  0
   17.7324  -19.4094  -12.1458 C   0  0  0  0  0  0  0  0  0  0  0  0
   18.6768  -20.5752  -12.3134 C   0  0  2  0  0  0  0  0  0  0  0  0
   19.9337  -20.2019  -12.8782 N   0  0  0  0  0  0  0  0  0  0  0  0
   18.0423  -21.6092  -13.1492 C   0  0  0  0  0  0  0  0  0  0  0  0
   18.4786  -21.8828  -14.2981 O   0  0  0  0  0  0  0  0  0  0  0  0
   16.9435  -22.2960  -12.6640 O   0  0  0  0  0  0  0  0  0  0  0  0
  2  1  1  6
  2 13  1  0
  3  2  1  0
  4  3  1  0
  5  4  2  0
  6  5  1  0
  7  6  1  0
  7 12  2  0
  8  9  2  0
  8  7  1  0
  9 10  1  0
 10 11  2  0
 12 11  1  0
 12  4  1  0
 13 14  2  0
 13 15  1  0
 15 16  1  0
 17 18  2  0
 17 16  1  0
 21 20  1  6
 20 19  1  0
 21 22  1  0
 22 17  1  0
 23 21  1  0
 24 23  2  0
 25 23  1  0
M  END
$$$$
