WGS.pdb
     RDKit          3D

 25 26  0  0  1  0  0  0  0  0999 V2000
   25.5463  -20.4514  -10.3926 N   0  0  0  0  0  0  0  0  0  0  0  0
   26.9696  -20.2853  -10.2762 C   0  0  1  0  0  0  0  0  0  0  0  0
   27.5350  -21.1982   -9.2071 C   0  0  0  0  0  0  0  0  0  0  0  0
   27.1082  -20.7048   -7.8758 C   0  0  0  0  0  0  0  0  0  0  0  0
   25.8191  -20.5775   -7.4328 C   0  0  0  0  0  0  0  0  0  0  0  0
   25.8570  -20.1005   -6.1795 N   0  0  0  0  0  0  0  0  0  0  0  0
   27.1274  -19.9128   -5.7912 C   0  0  0  0  0  0  0  0  0  0  0  0
   27.7185  -19.4514   -4.6259 C   0  0  0  0  0  0  0  0  0  0  0  0
   29.0845  -19.3593   -4.4977 C   0  0  0  0  0  0  0  0  0  0  0  0
   29.8508  -19.7464   -5.5819 C   0  0  0  0  0  0  0  0  0  0  0  0
   29.2867  -20.2116   -6.7593 C   0  0  0  0  0  0  0  0  0  0  0  0
   27.9188  -20.2905   -6.8520 C   0  0  0  0  0  0  0  0  0  0  0  0
   27.6436  -20.5355  -11.5934 C   0  0  0  0  0  0  0  0  0  0  0  0
   28.8673  -20.7928  -11.6688 O   0  0  0  0  0  0  0  0  0  0  0  0
   26.9198  -20.4928  -12.8330 N   0  0  0  0  0  0  0  0  0  0  0  0
   27.4528  -21.1204  -13.9997 C   0  0  0  0  0  0  0  0  0  0  0  0
   26.3830  -21.8389  -14.7303 C   0  0  0  0  0  0  0  0  0  0  0  0
   25.4166  -22.3754  -14.0924 O   0  0  0  0  0  0  0  0  0  0  0  0
   26.6199  -22.7184  -18.6965 O   0  0  0  0  0  0  0  0  0  0  0  0
   25.3057  -22.4650  -18.3002 C   0  0  0  0  0  0  0  0  0  0  0  0
   25.2584  -22.6082  -16.7981 C   0  0  2  0  0  0  0  0  0  0  0  0
   26.3571  -21.9775  -16.1398 N   0  0  0  0  0  0  0  0  0  0  0  0
   25.2153  -24.0362  -16.4387 C   0  0  0  0  0  0  0  0  0  0  0  0
   26.1539  -24.5804  -15.8000 O   0  0  0  0  0  0  0  0  0  0  0  0
   24.1214  -24.7981  -16.8095 O   0  0  0  0  0  0  0  0  0  0  0  0
  2  1  1  6
  2 13  1  0
  3  2  1  0
  4  3  1  0
  5  4  2  0
  6  5  1  0
  7  6  1  0
  7 12  2  0
  8  9  2  0
  8  7  1  0
  9 10  1  0
 10 11  2  0
 12 11  1  0
 12  4  1  0
 13 14  2  0
 13 15  1  0
 15 16  1  0
 17 18  2  0
 17 16  1  0
 21 20  1  6
 20 19  1  0
 21 22  1  0
 22 17  1  0
 23 21  1  0
 24 23  2  0
 25 23  1  0
M  END
$$$$
