WGS.pdb
     RDKit          3D

 25 26  0  0  1  0  0  0  0  0999 V2000
   24.3536  -11.1824  -17.8675 N   0  0  0  0  0  0  0  0  0  0  0  0
   23.8379  -10.4450  -16.7464 C   0  0  1  0  0  0  0  0  0  0  0  0
   24.2393  -11.0975  -15.4390 C   0  0  0  0  0  0  0  0  0  0  0  0
   24.8383  -12.4231  -15.7249 C   0  0  0  0  0  0  0  0  0  0  0  0
   24.1585  -13.5727  -16.0263 C   0  0  0  0  0  0  0  0  0  0  0  0
   25.0591  -14.5483  -16.2178 N   0  0  0  0  0  0  0  0  0  0  0  0
   26.3027  -14.0731  -16.0513 C   0  0  0  0  0  0  0  0  0  0  0  0
   27.5660  -14.6370  -16.1295 C   0  0  0  0  0  0  0  0  0  0  0  0
   28.7020  -13.8954  -15.9046 C   0  0  0  0  0  0  0  0  0  0  0  0
   28.5352  -12.5578  -15.5954 C   0  0  0  0  0  0  0  0  0  0  0  0
   27.2841  -11.9675  -15.5106 C   0  0  0  0  0  0  0  0  0  0  0  0
   26.1714  -12.7385  -15.7416 C   0  0  0  0  0  0  0  0  0  0  0  0
   24.3033   -9.0190  -16.7885 C   0  0  0  0  0  0  0  0  0  0  0  0
   25.4324   -8.7074  -17.2330 O   0  0  0  0  0  0  0  0  0  0  0  0
   23.4781   -7.9404  -16.3217 N   0  0  0  0  0  0  0  0  0  0  0  0
   23.9254   -6.5893  -16.4382 C   0  0  0  0  0  0  0  0  0  0  0  0
   22.8755   -5.6581  -15.9640 C   0  0  0  0  0  0  0  0  0  0  0  0
   23.1187   -4.4089  -15.8685 O   0  0  0  0  0  0  0  0  0  0  0  0
   19.2268   -5.9496  -16.8763 O   0  0  0  0  0  0  0  0  0  0  0  0
   19.6054   -4.7625  -16.2472 C   0  0  0  0  0  0  0  0  0  0  0  0
   20.5924   -5.1277  -15.1649 C   0  0  2  0  0  0  0  0  0  0  0  0
   21.5723   -6.0727  -15.5951 N   0  0  0  0  0  0  0  0  0  0  0  0
   19.8700   -5.6566  -13.9949 C   0  0  0  0  0  0  0  0  0  0  0  0
   20.0699   -6.8263  -13.5743 O   0  0  0  0  0  0  0  0  0  0  0  0
   18.9517   -4.8531  -13.3424 O   0  0  0  0  0  0  0  0  0  0  0  0
  2  1  1  6
  2 13  1  0
  3  2  1  0
  4  3  1  0
  5  4  2  0
  6  5  1  0
  7  6  1  0
  7 12  2  0
  8  9  2  0
  8  7  1  0
  9 10  1  0
 10 11  2  0
 12 11  1  0
 12  4  1  0
 13 14  2  0
 13 15  1  0
 15 16  1  0
 17 18  2  0
 17 16  1  0
 21 20  1  6
 20 19  1  0
 21 22  1  0
 22 17  1  0
 23 21  1  0
 24 23  2  0
 25 23  1  0
M  END
$$$$
