WGS.pdb
     RDKit          3D

 25 26  0  0  1  0  0  0  0  0999 V2000
   25.4747  -19.3496   -9.6173 N   0  0  0  0  0  0  0  0  0  0  0  0
   26.3687  -20.4494   -9.8583 C   0  0  1  0  0  0  0  0  0  0  0  0
   26.7397  -21.1392   -8.5612 C   0  0  0  0  0  0  0  0  0  0  0  0
   27.2240  -20.1238   -7.5958 C   0  0  0  0  0  0  0  0  0  0  0  0
   27.1649  -18.7647   -7.7497 C   0  0  0  0  0  0  0  0  0  0  0  0
   27.7038  -18.2004   -6.6584 N   0  0  0  0  0  0  0  0  0  0  0  0
   28.1121  -19.1462   -5.7988 C   0  0  0  0  0  0  0  0  0  0  0  0
   28.7199  -19.1164   -4.5539 C   0  0  0  0  0  0  0  0  0  0  0  0
   29.0363  -20.2713   -3.8780 C   0  0  0  0  0  0  0  0  0  0  0  0
   28.7234  -21.4708   -4.4910 C   0  0  0  0  0  0  0  0  0  0  0  0
   28.1155  -21.5305   -5.7350 C   0  0  0  0  0  0  0  0  0  0  0  0
   27.8137  -20.3569   -6.3813 C   0  0  0  0  0  0  0  0  0  0  0  0
   25.7610  -21.4276  -10.8205 C   0  0  0  0  0  0  0  0  0  0  0  0
   24.6007  -21.8727  -10.6625 O   0  0  0  0  0  0  0  0  0  0  0  0
   26.4787  -21.9020  -11.9703 N   0  0  0  0  0  0  0  0  0  0  0  0
   25.8925  -22.8777  -12.8326 C   0  0  0  0  0  0  0  0  0  0  0  0
   24.7829  -22.2767  -13.6085 C   0  0  0  0  0  0  0  0  0  0  0  0
   24.8395  -21.0545  -13.9715 O   0  0  0  0  0  0  0  0  0  0  0  0
   21.2146  -24.1644  -14.2015 O   0  0  0  0  0  0  0  0  0  0  0  0
   21.5673  -23.3519  -15.2803 C   0  0  0  0  0  0  0  0  0  0  0  0
   22.6039  -22.3745  -14.7811 C   0  0  2  0  0  0  0  0  0  0  0  0
   23.6201  -22.9903  -13.9896 N   0  0  0  0  0  0  0  0  0  0  0  0
   21.9456  -21.3088  -14.0056 C   0  0  0  0  0  0  0  0  0  0  0  0
   22.0493  -21.2500  -12.7523 O   0  0  0  0  0  0  0  0  0  0  0  0
   21.1969  -20.3507  -14.6660 O   0  0  0  0  0  0  0  0  0  0  0  0
  2  1  1  1
  2 13  1  0
  3  2  1  0
  4  3  1  0
  5  4  2  0
  6  5  1  0
  7  6  1  0
  7 12  2  0
  8  9  2  0
  8  7  1  0
  9 10  1  0
 10 11  2  0
 12 11  1  0
 12  4  1  0
 13 14  2  0
 13 15  1  0
 15 16  1  0
 17 18  2  0
 17 16  1  0
 21 20  1  1
 20 19  1  0
 21 22  1  0
 22 17  1  0
 23 21  1  0
 24 23  2  0
 25 23  1  0
M  END
$$$$
