WGS.pdb
     RDKit          3D

 25 26  0  0  1  0  0  0  0  0999 V2000
   25.2230  -21.4275   -9.4713 N   0  0  0  0  0  0  0  0  0  0  0  0
   26.2852  -20.6960  -10.1063 C   0  0  1  0  0  0  0  0  0  0  0  0
   27.5305  -20.6919   -9.2430 C   0  0  0  0  0  0  0  0  0  0  0  0
   27.1617  -20.2870   -7.8655 C   0  0  0  0  0  0  0  0  0  0  0  0
   25.9070  -19.9637   -7.4233 C   0  0  0  0  0  0  0  0  0  0  0  0
   25.9934  -19.6563   -6.1203 N   0  0  0  0  0  0  0  0  0  0  0  0
   27.2621  -19.7684   -5.6988 C   0  0  0  0  0  0  0  0  0  0  0  0
   27.8910  -19.5738   -4.4795 C   0  0  0  0  0  0  0  0  0  0  0  0
   29.2439  -19.7666   -4.3269 C   0  0  0  0  0  0  0  0  0  0  0  0
   29.9577  -20.1641   -5.4427 C   0  0  0  0  0  0  0  0  0  0  0  0
   29.3550  -20.3661   -6.6743 C   0  0  0  0  0  0  0  0  0  0  0  0
   28.0016  -20.1643   -6.7900 C   0  0  0  0  0  0  0  0  0  0  0  0
   26.5857  -21.2644  -11.4623 C   0  0  0  0  0  0  0  0  0  0  0  0
   26.7632  -22.4921  -11.6372 O   0  0  0  0  0  0  0  0  0  0  0  0
   26.6844  -20.4299  -12.6267 N   0  0  0  0  0  0  0  0  0  0  0  0
   27.3901  -20.8860  -13.7814 C   0  0  0  0  0  0  0  0  0  0  0  0
   27.4486  -19.8154  -14.8035 C   0  0  0  0  0  0  0  0  0  0  0  0
   26.9077  -18.6814  -14.5794 O   0  0  0  0  0  0  0  0  0  0  0  0
   28.8671  -20.4245  -18.6020 O   0  0  0  0  0  0  0  0  0  0  0  0
   29.1115  -19.1358  -18.1247 C   0  0  0  0  0  0  0  0  0  0  0  0
   28.1438  -18.8895  -16.9925 C   0  0  2  0  0  0  0  0  0  0  0  0
   28.0865  -19.9682  -16.0590 N   0  0  0  0  0  0  0  0  0  0  0  0
   26.8000  -18.6309  -17.5383 C   0  0  0  0  0  0  0  0  0  0  0  0
   25.8603  -19.4547  -17.3853 O   0  0  0  0  0  0  0  0  0  0  0  0
   26.5626  -17.4587  -18.2341 O   0  0  0  0  0  0  0  0  0  0  0  0
  2  1  1  1
  2 13  1  0
  3  2  1  0
  4  3  1  0
  5  4  2  0
  6  5  1  0
  7  6  1  0
  7 12  2  0
  8  9  2  0
  8  7  1  0
  9 10  1  0
 10 11  2  0
 12 11  1  0
 12  4  1  0
 13 14  2  0
 13 15  1  0
 15 16  1  0
 17 18  2  0
 17 16  1  0
 21 20  1  6
 20 19  1  0
 21 22  1  0
 22 17  1  0
 23 21  1  0
 24 23  2  0
 25 23  1  0
M  END
$$$$
