PMK.pdb
     RDKit          3D

 25 25  0  0  1  0  0  0  0  0999 V2000
    7.2854  -14.9661   20.5426 N   0  0  0  0  0  0  0  0  0  0  0  0
    7.0421  -14.6498   19.1469 C   0  0  0  0  0  0  0  0  0  0  0  0
    7.5161  -13.2181   19.0578 C   0  0  0  0  0  0  0  0  0  0  0  0
    8.6174  -13.1518   20.0938 C   0  0  0  0  0  0  0  0  0  0  0  0
    8.6502  -14.5136   20.7189 C   0  0  1  0  0  0  0  0  0  0  0  0
    9.0030  -14.5060   22.1474 C   0  0  0  0  0  0  0  0  0  0  0  0
   10.2018  -14.3864   22.4900 O   0  0  0  0  0  0  0  0  0  0  0  0
    7.4459  -11.2991   27.5790 C   0  0  0  0  0  0  0  0  0  0  0  0
    6.3157  -11.4548   26.1459 S   0  0  0  0  0  0  0  0  0  0  0  0
    7.1829  -12.4526   24.9063 C   0  0  0  0  0  0  0  0  0  0  0  0
    7.2339  -13.9138   25.3203 C   0  0  0  0  0  0  0  0  0  0  0  0
    8.3569  -14.5733   24.5471 C   0  0  2  0  0  0  0  0  0  0  0  0
    8.0241  -14.6301   23.1418 N   0  0  0  0  0  0  0  0  0  0  0  0
    8.6738  -15.9223   25.0727 C   0  0  0  0  0  0  0  0  0  0  0  0
    7.7395  -16.7870   25.1137 O   0  0  0  0  0  0  0  0  0  0  0  0
    9.9323  -16.3192   25.5307 N   0  0  0  0  0  0  0  0  0  0  0  0
   10.2933  -17.6954   25.9000 C   0  0  1  0  0  0  0  0  0  0  0  0
   11.7277  -17.9578   25.6386 C   0  0  0  0  0  0  0  0  0  0  0  0
   12.1379  -19.3282   26.0679 C   0  0  0  0  0  0  0  0  0  0  0  0
   13.0270  -19.9725   24.9999 C   0  0  0  0  0  0  0  0  0  0  0  0
   13.4725  -21.3556   25.3798 C   0  0  0  0  0  0  0  0  0  0  0  0
   14.3858  -21.8782   24.3729 N   0  0  0  0  0  0  0  0  0  0  0  0
    9.9717  -17.8616   27.3286 C   0  0  0  0  0  0  0  0  0  0  0  0
   10.0383  -19.0367   27.8365 O   0  0  0  0  0  0  0  0  0  0  0  0
    9.6065  -16.8458   28.1651 O   0  0  0  0  0  0  0  0  0  0  0  0
  1  2  1  0
  3  2  1  0
  4  3  1  0
  5  4  1  0
  5  6  1  1
  5  1  1  0
  6  7  2  0
  8  9  1  0
 10  9  1  0
 11 10  1  0
 12 11  1  1
 12 14  1  0
 13  6  1  0
 13 12  1  0
 14 15  2  0
 16 14  1  0
 16 17  1  0
 17 23  1  0
 17 18  1  1
 19 20  1  0
 19 18  1  0
 20 21  1  0
 22 21  1  0
 23 24  2  0
 23 25  1  0
M  END
$$$$
