PMK.pdb
     RDKit          3D

 25 25  0  0  1  0  0  0  0  0999 V2000
    7.2066  -15.0900   20.2355 N   0  0  0  0  0  0  0  0  0  0  0  0
    6.9863  -14.7051   18.8533 C   0  0  0  0  0  0  0  0  0  0  0  0
    7.1536  -13.2046   18.9102 C   0  0  0  0  0  0  0  0  0  0  0  0
    8.1526  -13.0090   20.0303 C   0  0  0  0  0  0  0  0  0  0  0  0
    8.4330  -14.3863   20.5506 C   0  0  1  0  0  0  0  0  0  0  0  0
    8.6903  -14.4360   21.9986 C   0  0  0  0  0  0  0  0  0  0  0  0
    9.8411  -14.1998   22.4329 O   0  0  0  0  0  0  0  0  0  0  0  0
    6.5695  -10.5928   26.7225 C   0  0  0  0  0  0  0  0  0  0  0  0
    6.8905  -12.3950   26.7903 S   0  0  0  0  0  0  0  0  0  0  0  0
    6.4908  -13.0560   25.1509 C   0  0  0  0  0  0  0  0  0  0  0  0
    6.6698  -14.5645   25.1121 C   0  0  0  0  0  0  0  0  0  0  0  0
    7.9316  -14.8592   24.3279 C   0  0  2  0  0  0  0  0  0  0  0  0
    7.6725  -14.7433   22.9108 N   0  0  0  0  0  0  0  0  0  0  0  0
    8.4909  -16.1912   24.6583 C   0  0  0  0  0  0  0  0  0  0  0  0
    7.6836  -17.1683   24.7850 O   0  0  0  0  0  0  0  0  0  0  0  0
    9.8497  -16.4570   24.8429 N   0  0  0  0  0  0  0  0  0  0  0  0
   10.4053  -17.7706   25.1979 C   0  0  1  0  0  0  0  0  0  0  0  0
   11.8583  -17.8284   24.9141 C   0  0  0  0  0  0  0  0  0  0  0  0
   12.4543  -19.1456   25.2888 C   0  0  0  0  0  0  0  0  0  0  0  0
   13.4719  -19.5850   24.2315 C   0  0  0  0  0  0  0  0  0  0  0  0
   14.1302  -20.8907   24.5740 C   0  0  0  0  0  0  0  0  0  0  0  0
   15.2392  -21.1423   23.6642 N   0  0  0  0  0  0  0  0  0  0  0  0
   10.1319  -17.9866   26.6299 C   0  0  0  0  0  0  0  0  0  0  0  0
   10.1137  -19.1893   27.0731 O   0  0  0  0  0  0  0  0  0  0  0  0
    9.8965  -16.9904   27.5338 O   0  0  0  0  0  0  0  0  0  0  0  0
  1  2  1  0
  3  2  1  0
  4  3  1  0
  5  4  1  0
  5  6  1  1
  5  1  1  0
  6  7  2  0
  8  9  1  0
 10  9  1  0
 11 10  1  0
 12 11  1  1
 12 14  1  0
 13  6  1  0
 13 12  1  0
 14 15  2  0
 16 14  1  0
 16 17  1  0
 17 23  1  0
 17 18  1  1
 19 20  1  0
 19 18  1  0
 20 21  1  0
 22 21  1  0
 23 24  2  0
 23 25  1  0
M  END
$$$$
