PMK.pdb
     RDKit          3D

 25 25  0  0  1  0  0  0  0  0999 V2000
    7.2071  -14.9816   20.3047 N   0  0  0  0  0  0  0  0  0  0  0  0
    6.9811  -14.6035   18.9215 C   0  0  0  0  0  0  0  0  0  0  0  0
    7.2693  -13.1206   18.9460 C   0  0  0  0  0  0  0  0  0  0  0  0
    8.3105  -12.9872   20.0363 C   0  0  0  0  0  0  0  0  0  0  0  0
    8.4938  -14.3736   20.5752 C   0  0  1  0  0  0  0  0  0  0  0  0
    8.7851  -14.4197   22.0168 C   0  0  0  0  0  0  0  0  0  0  0  0
    9.9243  -14.1029   22.4302 O   0  0  0  0  0  0  0  0  0  0  0  0
    6.2408  -10.9061   27.0523 C   0  0  0  0  0  0  0  0  0  0  0  0
    7.1265  -12.5030   26.9083 S   0  0  0  0  0  0  0  0  0  0  0  0
    6.7968  -13.1315   25.2408 C   0  0  0  0  0  0  0  0  0  0  0  0
    6.9182  -14.6455   25.1942 C   0  0  0  0  0  0  0  0  0  0  0  0
    8.1260  -14.9855   24.3461 C   0  0  2  0  0  0  0  0  0  0  0  0
    7.8129  -14.8120   22.9459 N   0  0  0  0  0  0  0  0  0  0  0  0
    8.6226  -16.3560   24.6134 C   0  0  0  0  0  0  0  0  0  0  0  0
    7.7984  -17.3230   24.5232 O   0  0  0  0  0  0  0  0  0  0  0  0
    9.9391  -16.6689   24.9600 N   0  0  0  0  0  0  0  0  0  0  0  0
   10.4554  -18.0328   25.1426 C   0  0  1  0  0  0  0  0  0  0  0  0
   11.8361  -18.1539   24.6193 C   0  0  0  0  0  0  0  0  0  0  0  0
   12.3746  -19.5395   24.7637 C   0  0  0  0  0  0  0  0  0  0  0  0
   13.8182  -19.6009   24.2552 C   0  0  0  0  0  0  0  0  0  0  0  0
   14.4187  -20.9707   24.3918 C   0  0  0  0  0  0  0  0  0  0  0  0
   15.7321  -21.0030   23.7636 N   0  0  0  0  0  0  0  0  0  0  0  0
   10.4033  -18.3287   26.5855 C   0  0  0  0  0  0  0  0  0  0  0  0
   10.5096  -17.3549   27.4124 O   0  0  0  0  0  0  0  0  0  0  0  0
   10.2451  -19.5768   27.1165 O   0  0  0  0  0  0  0  0  0  0  0  0
  1  2  1  0
  3  2  1  0
  4  3  1  0
  5  4  1  0
  5  6  1  1
  5  1  1  0
  6  7  2  0
  8  9  1  0
 10  9  1  0
 11 10  1  0
 12 11  1  1
 12 14  1  0
 13  6  1  0
 13 12  1  0
 14 15  2  0
 16 14  1  0
 16 17  1  0
 17 23  1  0
 17 18  1  1
 19 20  1  0
 19 18  1  0
 20 21  1  0
 22 21  1  0
 23 24  2  0
 23 25  1  0
M  END
$$$$
