PMK.pdb
     RDKit          3D

 25 25  0  0  1  0  0  0  0  0999 V2000
    6.9526  -14.7567   20.0648 N   0  0  0  0  0  0  0  0  0  0  0  0
    6.6676  -14.3384   18.7042 C   0  0  0  0  0  0  0  0  0  0  0  0
    7.1253  -12.8986   18.7116 C   0  0  0  0  0  0  0  0  0  0  0  0
    8.2543  -12.8983   19.7196 C   0  0  0  0  0  0  0  0  0  0  0  0
    8.3173  -14.3031   20.2381 C   0  0  1  0  0  0  0  0  0  0  0  0
    8.7095  -14.3996   21.6531 C   0  0  0  0  0  0  0  0  0  0  0  0
    9.9229  -14.3816   21.9634 O   0  0  0  0  0  0  0  0  0  0  0  0
    7.4848  -11.0621   27.5029 C   0  0  0  0  0  0  0  0  0  0  0  0
    6.4415  -12.5446   27.2396 S   0  0  0  0  0  0  0  0  0  0  0  0
    7.4501  -13.7321   26.3139 C   0  0  0  0  0  0  0  0  0  0  0  0
    6.9903  -13.8291   24.8689 C   0  0  0  0  0  0  0  0  0  0  0  0
    8.1168  -14.4469   24.0669 C   0  0  2  0  0  0  0  0  0  0  0  0
    7.7526  -14.5121   22.6699 N   0  0  0  0  0  0  0  0  0  0  0  0
    8.4935  -15.7851   24.5806 C   0  0  0  0  0  0  0  0  0  0  0  0
    7.6026  -16.6951   24.5995 O   0  0  0  0  0  0  0  0  0  0  0  0
    9.7645  -16.1253   25.0498 N   0  0  0  0  0  0  0  0  0  0  0  0
   10.1686  -17.4748   25.4694 C   0  0  1  0  0  0  0  0  0  0  0  0
   11.5059  -17.8206   24.9338 C   0  0  0  0  0  0  0  0  0  0  0  0
   11.4488  -18.9536   23.9624 C   0  0  0  0  0  0  0  0  0  0  0  0
   12.8596  -19.3127   23.4858 C   0  0  0  0  0  0  0  0  0  0  0  0
   12.8735  -20.5102   22.5795 C   0  0  0  0  0  0  0  0  0  0  0  0
   14.2399  -20.8142   22.1778 N   0  0  0  0  0  0  0  0  0  0  0  0
   10.1626  -17.4928   26.9431 C   0  0  0  0  0  0  0  0  0  0  0  0
   10.3144  -16.3836   27.5676 O   0  0  0  0  0  0  0  0  0  0  0  0
   10.0021  -18.6148   27.7048 O   0  0  0  0  0  0  0  0  0  0  0  0
  1  2  1  0
  3  2  1  0
  4  3  1  0
  5  4  1  0
  5  6  1  1
  5  1  1  0
  6  7  2  0
  8  9  1  0
 10  9  1  0
 11 10  1  0
 12 11  1  1
 12 14  1  0
 13  6  1  0
 13 12  1  0
 14 15  2  0
 16 14  1  0
 16 17  1  0
 17 23  1  0
 17 18  1  1
 19 20  1  0
 19 18  1  0
 20 21  1  0
 22 21  1  0
 23 24  2  0
 23 25  1  0
M  END
$$$$
