PMK.pdb
     RDKit          3D

 25 25  0  0  1  0  0  0  0  0999 V2000
    7.3724  -15.1421   20.0181 N   0  0  0  0  0  0  0  0  0  0  0  0
    7.0230  -14.7194   18.6740 C   0  0  0  0  0  0  0  0  0  0  0  0
    6.8689  -13.2257   18.8402 C   0  0  0  0  0  0  0  0  0  0  0  0
    7.8447  -12.8972   19.9495 C   0  0  0  0  0  0  0  0  0  0  0  0
    8.4316  -14.2143   20.3582 C   0  0  1  0  0  0  0  0  0  0  0  0
    8.7480  -14.3072   21.7922 C   0  0  0  0  0  0  0  0  0  0  0  0
    9.9412  -14.4107   22.1591 O   0  0  0  0  0  0  0  0  0  0  0  0
    6.8589  -11.2588   27.6324 C   0  0  0  0  0  0  0  0  0  0  0  0
    8.1310  -12.4606   27.0912 S   0  0  0  0  0  0  0  0  0  0  0  0
    7.2426  -13.9046   26.4508 C   0  0  0  0  0  0  0  0  0  0  0  0
    6.9120  -13.7328   24.9776 C   0  0  0  0  0  0  0  0  0  0  0  0
    8.0457  -14.3389   24.1768 C   0  0  2  0  0  0  0  0  0  0  0  0
    7.7406  -14.2827   22.7653 N   0  0  0  0  0  0  0  0  0  0  0  0
    8.3431  -15.7275   24.6009 C   0  0  0  0  0  0  0  0  0  0  0  0
    7.3786  -16.5571   24.6639 O   0  0  0  0  0  0  0  0  0  0  0  0
    9.6138  -16.1981   24.9399 N   0  0  0  0  0  0  0  0  0  0  0  0
    9.9186  -17.5834   25.3249 C   0  0  1  0  0  0  0  0  0  0  0  0
   11.1780  -18.0458   24.6965 C   0  0  0  0  0  0  0  0  0  0  0  0
   11.0911  -18.0637   23.2055 C   0  0  0  0  0  0  0  0  0  0  0  0
   12.3957  -18.5981   22.6066 C   0  0  0  0  0  0  0  0  0  0  0  0
   12.4062  -18.5402   21.1059 C   0  0  0  0  0  0  0  0  0  0  0  0
   13.7107  -18.9458   20.6015 N   0  0  0  0  0  0  0  0  0  0  0  0
   10.0120  -17.6163   26.7953 C   0  0  0  0  0  0  0  0  0  0  0  0
   10.2523  -18.7384   27.3666 O   0  0  0  0  0  0  0  0  0  0  0  0
    9.8635  -16.5281   27.6069 O   0  0  0  0  0  0  0  0  0  0  0  0
  1  2  1  0
  3  2  1  0
  4  3  1  0
  5  4  1  0
  5  6  1  1
  5  1  1  0
  6  7  2  0
  8  9  1  0
 10  9  1  0
 11 10  1  0
 12 11  1  1
 12 14  1  0
 13  6  1  0
 13 12  1  0
 14 15  2  0
 16 14  1  0
 16 17  1  0
 17 23  1  0
 17 18  1  6
 19 20  1  0
 19 18  1  0
 20 21  1  0
 22 21  1  0
 23 24  2  0
 23 25  1  0
M  END
$$$$
