PMK.pdb
     RDKit          3D

 25 25  0  0  1  0  0  0  0  0999 V2000
    7.0232  -14.6971   20.3134 N   0  0  0  0  0  0  0  0  0  0  0  0
    6.7908  -14.1901   18.9731 C   0  0  0  0  0  0  0  0  0  0  0  0
    7.3026  -12.7723   19.0762 C   0  0  0  0  0  0  0  0  0  0  0  0
    8.4034  -12.8748   20.1097 C   0  0  0  0  0  0  0  0  0  0  0  0
    8.3991  -14.3085   20.5464 C   0  0  1  0  0  0  0  0  0  0  0  0
    8.7495  -14.5020   21.9623 C   0  0  0  0  0  0  0  0  0  0  0  0
    9.9399  -14.3736   22.3303 O   0  0  0  0  0  0  0  0  0  0  0  0
    6.4698  -10.3659   26.3355 C   0  0  0  0  0  0  0  0  0  0  0  0
    6.6959  -12.1600   26.6284 S   0  0  0  0  0  0  0  0  0  0  0  0
    6.6810  -12.9580   25.0014 C   0  0  0  0  0  0  0  0  0  0  0  0
    6.8542  -14.4622   25.1296 C   0  0  0  0  0  0  0  0  0  0  0  0
    8.0790  -14.8552   24.3300 C   0  0  2  0  0  0  0  0  0  0  0  0
    7.7776  -14.8286   22.9169 N   0  0  0  0  0  0  0  0  0  0  0  0
    8.6040  -16.1803   24.7363 C   0  0  0  0  0  0  0  0  0  0  0  0
    7.8584  -17.1996   24.5708 O   0  0  0  0  0  0  0  0  0  0  0  0
    9.8672  -16.3962   25.2921 N   0  0  0  0  0  0  0  0  0  0  0  0
   10.4241  -17.7168   25.6180 C   0  0  1  0  0  0  0  0  0  0  0  0
   11.7467  -17.9092   24.9789 C   0  0  0  0  0  0  0  0  0  0  0  0
   11.6375  -18.5716   23.6448 C   0  0  0  0  0  0  0  0  0  0  0  0
   13.0226  -18.6992   23.0032 C   0  0  0  0  0  0  0  0  0  0  0  0
   12.9673  -19.3054   21.6303 C   0  0  0  0  0  0  0  0  0  0  0  0
   14.3071  -19.3779   21.0641 N   0  0  0  0  0  0  0  0  0  0  0  0
   10.5236  -17.7972   27.0863 C   0  0  0  0  0  0  0  0  0  0  0  0
   10.2301  -16.7571   27.7758 O   0  0  0  0  0  0  0  0  0  0  0  0
   10.9065  -18.9105   27.7783 O   0  0  0  0  0  0  0  0  0  0  0  0
  1  2  1  0
  3  2  1  0
  4  3  1  0
  5  4  1  0
  5  6  1  1
  5  1  1  0
  6  7  2  0
  8  9  1  0
 10  9  1  0
 11 10  1  0
 12 11  1  1
 12 14  1  0
 13  6  1  0
 13 12  1  0
 14 15  2  0
 16 14  1  0
 16 17  1  0
 17 23  1  0
 17 18  1  6
 19 20  1  0
 19 18  1  0
 20 21  1  0
 22 21  1  0
 23 24  2  0
 23 25  1  0
M  END
$$$$
