PMK.pdb
     RDKit          3D

 25 25  0  0  1  0  0  0  0  0999 V2000
    7.1092  -14.6407   19.9666 N   0  0  0  0  0  0  0  0  0  0  0  0
    6.8421  -14.2486   18.5946 C   0  0  0  0  0  0  0  0  0  0  0  0
    7.5082  -12.8948   18.5153 C   0  0  0  0  0  0  0  0  0  0  0  0
    8.6593  -13.0165   19.4905 C   0  0  0  0  0  0  0  0  0  0  0  0
    8.5314  -14.3890   20.0788 C   0  0  1  0  0  0  0  0  0  0  0  0
    8.9540  -14.4769   21.4854 C   0  0  0  0  0  0  0  0  0  0  0  0
   10.1662  -14.3584   21.7779 O   0  0  0  0  0  0  0  0  0  0  0  0
    7.6674  -11.7057   28.3385 C   0  0  0  0  0  0  0  0  0  0  0  0
    6.8464  -12.1008   26.7493 S   0  0  0  0  0  0  0  0  0  0  0  0
    7.7243  -13.5240   26.0507 C   0  0  0  0  0  0  0  0  0  0  0  0
    7.2468  -13.8206   24.6389 C   0  0  0  0  0  0  0  0  0  0  0  0
    8.3789  -14.5075   23.9038 C   0  0  2  0  0  0  0  0  0  0  0  0
    8.0276  -14.6915   22.5141 N   0  0  0  0  0  0  0  0  0  0  0  0
    8.7466  -15.7975   24.5340 C   0  0  0  0  0  0  0  0  0  0  0  0
    7.8324  -16.6690   24.6988 O   0  0  0  0  0  0  0  0  0  0  0  0
   10.0328  -16.1315   24.9646 N   0  0  0  0  0  0  0  0  0  0  0  0
   10.4295  -17.4530   25.4709 C   0  0  1  0  0  0  0  0  0  0  0  0
   11.8911  -17.6566   25.3396 C   0  0  0  0  0  0  0  0  0  0  0  0
   12.3378  -18.9460   25.9467 C   0  0  0  0  0  0  0  0  0  0  0  0
   13.8194  -19.1880   25.6423 C   0  0  0  0  0  0  0  0  0  0  0  0
   14.2915  -20.5336   26.1136 C   0  0  0  0  0  0  0  0  0  0  0  0
   15.7227  -20.6684   25.8804 N   0  0  0  0  0  0  0  0  0  0  0  0
   10.0047  -17.5249   26.8803 C   0  0  0  0  0  0  0  0  0  0  0  0
    9.9090  -16.4332   27.5453 O   0  0  0  0  0  0  0  0  0  0  0  0
    9.6979  -18.6804   27.5404 O   0  0  0  0  0  0  0  0  0  0  0  0
  1  2  1  0
  3  2  1  0
  4  3  1  0
  5  4  1  0
  5  6  1  1
  5  1  1  0
  6  7  2  0
  8  9  1  0
 10  9  1  0
 11 10  1  0
 12 11  1  1
 12 14  1  0
 13  6  1  0
 13 12  1  0
 14 15  2  0
 16 14  1  0
 16 17  1  0
 17 23  1  0
 17 18  1  1
 19 20  1  0
 19 18  1  0
 20 21  1  0
 22 21  1  0
 23 24  2  0
 23 25  1  0
M  END
$$$$
