PMK.pdb
     RDKit          3D

 25 25  0  0  1  0  0  0  0  0999 V2000
    7.0395  -14.8991   20.1884 N   0  0  0  0  0  0  0  0  0  0  0  0
    6.8079  -14.5339   18.8027 C   0  0  0  0  0  0  0  0  0  0  0  0
    7.2299  -13.0834   18.7812 C   0  0  0  0  0  0  0  0  0  0  0  0
    8.3107  -13.0205   19.8389 C   0  0  0  0  0  0  0  0  0  0  0  0
    8.3835  -14.4051   20.4079 C   0  0  1  0  0  0  0  0  0  0  0  0
    8.7120  -14.4443   21.8417 C   0  0  0  0  0  0  0  0  0  0  0  0
    9.8828  -14.2050   22.2170 O   0  0  0  0  0  0  0  0  0  0  0  0
    7.6182  -10.9550   27.3153 C   0  0  0  0  0  0  0  0  0  0  0  0
    6.3539  -12.1411   26.7236 S   0  0  0  0  0  0  0  0  0  0  0  0
    6.8993  -12.7110   25.0920 C   0  0  0  0  0  0  0  0  0  0  0  0
    6.8177  -14.2247   24.9872 C   0  0  0  0  0  0  0  0  0  0  0  0
    8.0338  -14.7001   24.2197 C   0  0  2  0  0  0  0  0  0  0  0  0
    7.7406  -14.7449   22.8053 N   0  0  0  0  0  0  0  0  0  0  0  0
    8.5155  -16.0153   24.7042 C   0  0  0  0  0  0  0  0  0  0  0  0
    7.6557  -16.9318   24.9120 O   0  0  0  0  0  0  0  0  0  0  0  0
    9.8543  -16.3271   24.9522 N   0  0  0  0  0  0  0  0  0  0  0  0
   10.3509  -17.6643   25.3066 C   0  0  1  0  0  0  0  0  0  0  0  0
   11.7242  -17.8756   24.7924 C   0  0  0  0  0  0  0  0  0  0  0  0
   11.8109  -19.0588   23.8851 C   0  0  0  0  0  0  0  0  0  0  0  0
   12.8500  -18.8081   22.7879 C   0  0  0  0  0  0  0  0  0  0  0  0
   12.9223  -19.9333   21.7958 C   0  0  0  0  0  0  0  0  0  0  0  0
   13.8948  -19.6199   20.7581 N   0  0  0  0  0  0  0  0  0  0  0  0
   10.3087  -17.7693   26.7760 C   0  0  0  0  0  0  0  0  0  0  0  0
   10.7522  -18.8398   27.3244 O   0  0  0  0  0  0  0  0  0  0  0  0
    9.8302  -16.7994   27.6099 O   0  0  0  0  0  0  0  0  0  0  0  0
  1  2  1  0
  3  2  1  0
  4  3  1  0
  5  4  1  0
  5  6  1  1
  5  1  1  0
  6  7  2  0
  8  9  1  0
 10  9  1  0
 11 10  1  0
 12 11  1  1
 12 14  1  0
 13  6  1  0
 13 12  1  0
 14 15  2  0
 16 14  1  0
 16 17  1  0
 17 23  1  0
 17 18  1  1
 19 20  1  0
 19 18  1  0
 20 21  1  0
 22 21  1  0
 23 24  2  0
 23 25  1  0
M  END
$$$$
