VIN.pdb
     RDKit          3D

 24 23  0  0  1  0  0  0  0  0999 V2000
    6.3814  -16.8531   19.2821 C   0  0  0  0  0  0  0  0  0  0  0  0
    7.2035  -16.5693   20.5151 C   0  0  2  0  0  0  0  0  0  0  0  0
    6.4080  -17.0932   21.7088 C   0  0  0  0  0  0  0  0  0  0  0  0
    7.4048  -15.0939   20.7438 C   0  0  2  0  0  0  0  0  0  0  0  0
    8.0698  -14.5581   19.5652 N   0  0  0  0  0  0  0  0  0  0  0  0
    8.1593  -14.7923   21.9707 C   0  0  0  0  0  0  0  0  0  0  0  0
    9.4061  -14.8877   22.0841 O   0  0  0  0  0  0  0  0  0  0  0  0
    7.2655  -11.7378   27.2529 C   0  0  0  0  0  0  0  0  0  0  0  0
    8.0298  -12.8008   26.4936 C   0  0  0  0  0  0  0  0  0  0  0  0
    7.3357  -13.0817   25.1879 C   0  0  2  0  0  0  0  0  0  0  0  0
    6.0044  -13.7309   25.5152 C   0  0  0  0  0  0  0  0  0  0  0  0
    8.1246  -14.0896   24.3732 C   0  0  2  0  0  0  0  0  0  0  0  0
    7.4316  -14.3616   23.1133 N   0  0  0  0  0  0  0  0  0  0  0  0
    8.3988  -15.3247   25.1213 C   0  0  0  0  0  0  0  0  0  0  0  0
    7.4703  -16.1367   25.3627 O   0  0  0  0  0  0  0  0  0  0  0  0
   11.7856  -16.8629   23.2663 N   0  0  0  0  0  0  0  0  0  0  0  0
   11.0995  -17.6805   24.1985 C   0  0  0  0  0  0  0  0  0  0  0  0
   10.3485  -18.5796   23.7181 O   0  0  0  0  0  0  0  0  0  0  0  0
   11.2424  -17.5057   25.6516 C   0  0  0  0  0  0  0  0  0  0  0  0
    9.9831  -16.9637   26.2385 C   0  0  2  0  0  0  0  0  0  0  0  0
    9.6921  -15.6664   25.6034 N   0  0  0  0  0  0  0  0  0  0  0  0
    9.9441  -16.8671   27.6935 C   0  0  0  0  0  0  0  0  0  0  0  0
    9.9525  -18.0126   28.4656 O   0  0  0  0  0  0  0  0  0  0  0  0
    9.9008  -15.7299   28.2682 O   0  0  0  0  0  0  0  0  0  0  0  0
  2  1  1  6
  2  3  1  0
  4  6  1  0
  4  2  1  0
  4  5  1  6
  6 13  1  0
  7  6  2  0
  9  8  1  0
 10  9  1  0
 10 11  1  1
 12 10  1  0
 12 13  1  6
 14 21  1  0
 14 12  1  0
 15 14  2  0
 17 16  1  0
 17 18  2  0
 19 17  1  0
 20 19  1  1
 20 21  1  0
 22 20  1  0
 22 23  1  0
 24 22  2  0
M  END
$$$$
