VIN.pdb
     RDKit          3D

 24 23  0  0  1  0  0  0  0  0999 V2000
    6.7327  -16.8590   19.6541 C   0  0  0  0  0  0  0  0  0  0  0  0
    7.5492  -16.5289   20.8793 C   0  0  2  0  0  0  0  0  0  0  0  0
    6.9653  -17.3408   22.0334 C   0  0  0  0  0  0  0  0  0  0  0  0
    7.4362  -15.0785   21.2707 C   0  0  2  0  0  0  0  0  0  0  0  0
    7.8986  -14.2861   20.1408 N   0  0  0  0  0  0  0  0  0  0  0  0
    8.1763  -14.7472   22.4987 C   0  0  0  0  0  0  0  0  0  0  0  0
    9.4224  -14.6080   22.5661 O   0  0  0  0  0  0  0  0  0  0  0  0
    6.0603  -11.6624   26.5512 C   0  0  0  0  0  0  0  0  0  0  0  0
    7.0300  -12.3191   25.5924 C   0  0  0  0  0  0  0  0  0  0  0  0
    7.2320  -13.7568   25.9893 C   0  0  2  0  0  0  0  0  0  0  0  0
    7.9755  -13.7598   27.3114 C   0  0  0  0  0  0  0  0  0  0  0  0
    8.1229  -14.4646   24.9856 C   0  0  2  0  0  0  0  0  0  0  0  0
    7.4346  -14.5707   23.6984 N   0  0  0  0  0  0  0  0  0  0  0  0
    8.5806  -15.7754   25.4677 C   0  0  0  0  0  0  0  0  0  0  0  0
    7.7464  -16.6748   25.7414 O   0  0  0  0  0  0  0  0  0  0  0  0
   12.2418  -16.8249   23.1981 N   0  0  0  0  0  0  0  0  0  0  0  0
   11.5551  -17.7461   24.0275 C   0  0  0  0  0  0  0  0  0  0  0  0
   10.8021  -18.5808   23.4447 O   0  0  0  0  0  0  0  0  0  0  0  0
   11.6996  -17.7451   25.4909 C   0  0  0  0  0  0  0  0  0  0  0  0
   10.4010  -17.4108   26.1434 C   0  0  2  0  0  0  0  0  0  0  0  0
    9.9539  -16.0969   25.6485 N   0  0  0  0  0  0  0  0  0  0  0  0
   10.3830  -17.4671   27.6010 C   0  0  0  0  0  0  0  0  0  0  0  0
   10.4073  -18.6871   28.2487 O   0  0  0  0  0  0  0  0  0  0  0  0
   10.3440  -16.3966   28.2922 O   0  0  0  0  0  0  0  0  0  0  0  0
  2  1  1  6
  2  3  1  0
  4  6  1  0
  4  2  1  0
  4  5  1  6
  6 13  1  0
  7  6  2  0
  9  8  1  0
 10  9  1  0
 10 11  1  1
 12 10  1  0
 12 13  1  6
 14 21  1  0
 14 12  1  0
 15 14  2  0
 17 16  1  0
 17 18  2  0
 19 17  1  0
 20 19  1  1
 20 21  1  0
 22 20  1  0
 22 23  1  0
 24 22  2  0
M  END
$$$$
