VIN.pdb
     RDKit          3D

 24 23  0  0  1  0  0  0  0  0999 V2000
    9.0915  -19.9118   18.5019 C   0  0  0  0  0  0  0  0  0  0  0  0
    7.8675  -19.1570   18.0450 C   0  0  2  0  0  0  0  0  0  0  0  0
    7.2313  -19.9792   16.9263 C   0  0  0  0  0  0  0  0  0  0  0  0
    8.2087  -17.8140   17.4538 C   0  0  2  0  0  0  0  0  0  0  0  0
    9.0406  -18.0528   16.2837 N   0  0  0  0  0  0  0  0  0  0  0  0
    8.8692  -16.9086   18.4075 C   0  0  0  0  0  0  0  0  0  0  0  0
   10.1104  -16.7365   18.4866 O   0  0  0  0  0  0  0  0  0  0  0  0
    6.6447  -12.1895   19.8572 C   0  0  0  0  0  0  0  0  0  0  0  0
    7.6969  -13.2405   19.5760 C   0  0  0  0  0  0  0  0  0  0  0  0
    7.7575  -14.2101   20.7256 C   0  0  2  0  0  0  0  0  0  0  0  0
    8.4095  -13.4891   21.8900 C   0  0  0  0  0  0  0  0  0  0  0  0
    8.6536  -15.3853   20.3824 C   0  0  2  0  0  0  0  0  0  0  0  0
    8.0502  -16.1728   19.3066 N   0  0  0  0  0  0  0  0  0  0  0  0
    8.9655  -16.2146   21.5550 C   0  0  0  0  0  0  0  0  0  0  0  0
    8.1614  -17.1040   21.9321 O   0  0  0  0  0  0  0  0  0  0  0  0
   12.9801  -19.8590   22.1354 N   0  0  0  0  0  0  0  0  0  0  0  0
   11.6740  -19.4553   22.5086 C   0  0  0  0  0  0  0  0  0  0  0  0
   11.0916  -20.1608   23.3840 O   0  0  0  0  0  0  0  0  0  0  0  0
   11.0159  -18.2801   21.9184 C   0  0  0  0  0  0  0  0  0  0  0  0
   10.8455  -17.2086   22.9415 C   0  0  2  0  0  0  0  0  0  0  0  0
   10.1600  -16.0663   22.3121 N   0  0  0  0  0  0  0  0  0  0  0  0
   12.0570  -16.7879   23.6366 C   0  0  0  0  0  0  0  0  0  0  0  0
   12.2457  -17.1187   24.9645 O   0  0  0  0  0  0  0  0  0  0  0  0
   12.9522  -16.1120   23.0307 O   0  0  0  0  0  0  0  0  0  0  0  0
  2  1  1  6
  2  3  1  0
  4  6  1  0
  4  2  1  0
  4  5  1  6
  6 13  1  0
  7  6  2  0
  9  8  1  0
 10  9  1  0
 10 11  1  1
 12 10  1  0
 12 13  1  6
 14 21  1  0
 14 12  1  0
 15 14  2  0
 17 16  1  0
 17 18  2  0
 19 17  1  0
 20 19  1  6
 20 21  1  0
 22 20  1  0
 22 23  1  0
 24 22  2  0
M  END
$$$$
