VIN.pdb
     RDKit          3D

 24 23  0  0  1  0  0  0  0  0999 V2000
    7.9579  -17.5485   21.3624 C   0  0  0  0  0  0  0  0  0  0  0  0
    6.8934  -16.5129   21.0956 C   0  0  2  0  0  0  0  0  0  0  0  0
    6.2228  -16.8955   19.7780 C   0  0  0  0  0  0  0  0  0  0  0  0
    7.4692  -15.1342   20.9032 C   0  0  2  0  0  0  0  0  0  0  0  0
    8.3137  -15.1773   19.7186 N   0  0  0  0  0  0  0  0  0  0  0  0
    8.2116  -14.6441   22.0755 C   0  0  0  0  0  0  0  0  0  0  0  0
    9.4415  -14.3915   22.0876 O   0  0  0  0  0  0  0  0  0  0  0  0
    6.8462  -11.6282   27.2474 C   0  0  0  0  0  0  0  0  0  0  0  0
    7.8375  -12.4858   26.4907 C   0  0  0  0  0  0  0  0  0  0  0  0
    7.1586  -13.1037   25.2979 C   0  0  2  0  0  0  0  0  0  0  0  0
    6.1588  -14.1167   25.8223 C   0  0  0  0  0  0  0  0  0  0  0  0
    8.1597  -13.8730   24.4566 C   0  0  2  0  0  0  0  0  0  0  0  0
    7.4920  -14.4396   23.2841 N   0  0  0  0  0  0  0  0  0  0  0  0
    8.8689  -14.9024   25.2296 C   0  0  0  0  0  0  0  0  0  0  0  0
    9.5413  -14.5815   26.2418 O   0  0  0  0  0  0  0  0  0  0  0  0
   13.0455  -18.2074   26.0864 N   0  0  0  0  0  0  0  0  0  0  0  0
   11.7045  -18.4943   25.7292 C   0  0  0  0  0  0  0  0  0  0  0  0
   11.2426  -19.6094   26.1121 O   0  0  0  0  0  0  0  0  0  0  0  0
   10.8796  -17.5555   24.9542 C   0  0  0  0  0  0  0  0  0  0  0  0
    9.5849  -17.3015   25.6494 C   0  0  2  0  0  0  0  0  0  0  0  0
    8.8387  -16.2829   24.8901 N   0  0  0  0  0  0  0  0  0  0  0  0
    9.6743  -16.9549   27.0635 C   0  0  0  0  0  0  0  0  0  0  0  0
   10.3816  -17.7627   27.9328 O   0  0  0  0  0  0  0  0  0  0  0  0
    9.1028  -15.9077   27.5132 O   0  0  0  0  0  0  0  0  0  0  0  0
  2  1  1  6
  2  3  1  0
  4  6  1  0
  4  2  1  0
  4  5  1  6
  6 13  1  0
  7  6  2  0
  9  8  1  0
 10  9  1  0
 10 11  1  1
 12 10  1  0
 12 13  1  6
 14 21  1  0
 14 12  1  0
 15 14  2  0
 17 16  1  0
 17 18  2  0
 19 17  1  0
 20 19  1  6
 20 21  1  0
 22 20  1  0
 22 23  1  0
 24 22  2  0
M  END
$$$$
