VIN.pdb
     RDKit          3D

 24 23  0  0  1  0  0  0  0  0999 V2000
    4.2715  -18.5797   23.8967 C   0  0  0  0  0  0  0  0  0  0  0  0
    5.4604  -19.4133   23.4867 C   0  0  2  0  0  0  0  0  0  0  0  0
    5.1479  -20.8554   23.8803 C   0  0  0  0  0  0  0  0  0  0  0  0
    6.7151  -19.0260   24.2252 C   0  0  2  0  0  0  0  0  0  0  0  0
    6.4243  -19.1079   25.6489 N   0  0  0  0  0  0  0  0  0  0  0  0
    7.2213  -17.6946   23.8553 C   0  0  0  0  0  0  0  0  0  0  0  0
    7.6399  -17.3814   22.7137 O   0  0  0  0  0  0  0  0  0  0  0  0
    5.8242  -13.2818   27.0340 C   0  0  0  0  0  0  0  0  0  0  0  0
    6.2270  -13.7859   25.6649 C   0  0  0  0  0  0  0  0  0  0  0  0
    7.5795  -14.4408   25.7492 C   0  0  2  0  0  0  0  0  0  0  0  0
    8.6201  -13.3422   25.6436 C   0  0  0  0  0  0  0  0  0  0  0  0
    7.7972  -15.3640   24.5650 C   0  0  2  0  0  0  0  0  0  0  0  0
    7.2407  -16.6857   24.8565 N   0  0  0  0  0  0  0  0  0  0  0  0
    9.2100  -15.4437   24.1676 C   0  0  0  0  0  0  0  0  0  0  0  0
    9.7003  -14.5780   23.3996 O   0  0  0  0  0  0  0  0  0  0  0  0
   14.6619  -15.2248   24.8086 N   0  0  0  0  0  0  0  0  0  0  0  0
   13.5722  -15.3989   23.9196 C   0  0  0  0  0  0  0  0  0  0  0  0
   13.8607  -15.6374   22.7099 O   0  0  0  0  0  0  0  0  0  0  0  0
   12.1733  -15.3102   24.3642 C   0  0  0  0  0  0  0  0  0  0  0  0
   11.4681  -16.6031   24.1301 C   0  0  2  0  0  0  0  0  0  0  0  0
   10.0824  -16.4740   24.6141 N   0  0  0  0  0  0  0  0  0  0  0  0
   12.1148  -17.7930   24.6723 C   0  0  0  0  0  0  0  0  0  0  0  0
   13.0249  -18.4974   23.9081 O   0  0  0  0  0  0  0  0  0  0  0  0
   11.8489  -18.1965   25.8520 O   0  0  0  0  0  0  0  0  0  0  0  0
  2  1  1  1
  2  3  1  0
  4  6  1  0
  4  2  1  0
  4  5  1  1
  6 13  1  0
  7  6  2  0
  9  8  1  0
 10  9  1  0
 10 11  1  6
 12 10  1  0
 12 13  1  1
 14 21  1  0
 14 12  1  0
 15 14  2  0
 17 16  1  0
 17 18  2  0
 19 17  1  0
 20 19  1  1
 20 21  1  0
 22 20  1  0
 22 23  1  0
 24 22  2  0
M  END
$$$$
