VIN.pdb
     RDKit          3D

 24 23  0  0  1  0  0  0  0  0999 V2000
    8.1849  -17.5725   21.5468 C   0  0  0  0  0  0  0  0  0  0  0  0
    7.0110  -16.6267   21.4838 C   0  0  2  0  0  0  0  0  0  0  0  0
    6.2941  -16.8969   20.1628 C   0  0  0  0  0  0  0  0  0  0  0  0
    7.4384  -15.1823   21.4560 C   0  0  2  0  0  0  0  0  0  0  0  0
    8.2000  -14.9779   20.2327 N   0  0  0  0  0  0  0  0  0  0  0  0
    8.2094  -14.7800   22.6431 C   0  0  0  0  0  0  0  0  0  0  0  0
    9.4611  -14.6897   22.6849 O   0  0  0  0  0  0  0  0  0  0  0  0
    6.0788  -11.3875   26.3714 C   0  0  0  0  0  0  0  0  0  0  0  0
    7.0673  -12.1120   25.4832 C   0  0  0  0  0  0  0  0  0  0  0  0
    7.3492  -13.4758   26.0543 C   0  0  2  0  0  0  0  0  0  0  0  0
    8.1721  -13.2767   27.3128 C   0  0  0  0  0  0  0  0  0  0  0  0
    8.2034  -14.2859   25.0973 C   0  0  2  0  0  0  0  0  0  0  0  0
    7.4931  -14.4698   23.8310 N   0  0  0  0  0  0  0  0  0  0  0  0
    8.6293  -15.5691   25.6738 C   0  0  0  0  0  0  0  0  0  0  0  0
    7.7781  -16.4521   25.9486 O   0  0  0  0  0  0  0  0  0  0  0  0
   12.0224  -17.3504   23.3947 N   0  0  0  0  0  0  0  0  0  0  0  0
   11.5107  -18.0420   24.5207 C   0  0  0  0  0  0  0  0  0  0  0  0
   10.8654  -19.1060   24.2866 O   0  0  0  0  0  0  0  0  0  0  0  0
   11.7106  -17.5612   25.8960 C   0  0  0  0  0  0  0  0  0  0  0  0
   10.4067  -17.1775   26.5096 C   0  0  2  0  0  0  0  0  0  0  0  0
    9.9893  -15.8809   25.9477 N   0  0  0  0  0  0  0  0  0  0  0  0
   10.3631  -17.1670   27.9676 C   0  0  0  0  0  0  0  0  0  0  0  0
   10.4373  -18.3526   28.6728 O   0  0  0  0  0  0  0  0  0  0  0  0
   10.2556  -16.0690   28.6065 O   0  0  0  0  0  0  0  0  0  0  0  0
  2  1  1  6
  2  3  1  0
  4  6  1  0
  4  2  1  0
  4  5  1  6
  6 13  1  0
  7  6  2  0
  9  8  1  0
 10  9  1  0
 10 11  1  1
 12 10  1  0
 12 13  1  6
 14 21  1  0
 14 12  1  0
 15 14  2  0
 17 16  1  0
 17 18  2  0
 19 17  1  0
 20 19  1  1
 20 21  1  0
 22 20  1  0
 22 23  1  0
 24 22  2  0
M  END
$$$$
