GYN.pdb
     RDKit          3D

 25 25  0  0  1  0  0  0  0  0999 V2000
   24.3285  -17.9947  -16.0104 N   0  0  0  0  0  0  0  0  0  0  0  0
   23.5320  -19.1928  -15.8197 C   0  0  0  0  0  0  0  0  0  0  0  0
   22.1418  -18.8593  -15.3998 C   0  0  0  0  0  0  0  0  0  0  0  0
   21.8983  -18.3996  -14.2664 O   0  0  0  0  0  0  0  0  0  0  0  0
   19.7058  -12.3370  -15.5884 O   0  0  0  0  0  0  0  0  0  0  0  0
   19.5390  -13.6806  -15.8956 C   0  0  0  0  0  0  0  0  0  0  0  0
   18.7004  -14.5029  -15.1728 C   0  0  0  0  0  0  0  0  0  0  0  0
   18.5493  -15.8332  -15.4942 C   0  0  0  0  0  0  0  0  0  0  0  0
   19.2197  -16.4180  -16.5465 C   0  0  0  0  0  0  0  0  0  0  0  0
   19.0441  -17.8416  -16.8705 C   0  0  0  0  0  0  0  0  0  0  0  0
   19.6550  -18.7609  -15.9089 C   0  0  2  0  0  0  0  0  0  0  0  0
   21.0608  -19.0492  -16.2600 N   0  0  0  0  0  0  0  0  0  0  0  0
   19.0243  -20.0589  -15.7844 C   0  0  0  0  0  0  0  0  0  0  0  0
   19.2275  -20.9049  -16.7362 O   0  0  0  0  0  0  0  0  0  0  0  0
   20.0611  -15.5883  -17.2701 C   0  0  0  0  0  0  0  0  0  0  0  0
   20.2035  -14.2783  -16.9457 C   0  0  0  0  0  0  0  0  0  0  0  0
   20.2936  -23.6549  -14.2241 N   0  0  0  0  0  0  0  0  0  0  0  0
   19.5405  -22.8008  -13.3848 C   0  0  0  0  0  0  0  0  0  0  0  0
   20.1300  -22.1372  -12.5101 O   0  0  0  0  0  0  0  0  0  0  0  0
   18.0922  -22.7081  -13.5526 C   0  0  0  0  0  0  0  0  0  0  0  0
   17.6563  -21.9176  -14.7741 C   0  0  2  0  0  0  0  0  0  0  0  0
   18.2017  -20.5759  -14.7491 N   0  0  0  0  0  0  0  0  0  0  0  0
   16.2092  -21.9167  -14.8926 C   0  0  0  0  0  0  0  0  0  0  0  0
   15.5281  -22.9934  -15.0193 O   0  0  0  0  0  0  0  0  0  0  0  0
   15.4745  -20.7604  -14.8762 O   0  0  0  0  0  0  0  0  0  0  0  0
  1  2  1  0
  3 12  1  0
  3  2  1  0
  4  3  2  0
  6  5  1  0
  7  6  2  0
  8  7  1  0
  9  8  2  0
  9 15  1  0
 10  9  1  0
 11 10  1  6
 11 12  1  0
 13 11  1  0
 13 14  2  0
 15 16  2  0
 16  6  1  0
 18 19  2  0
 18 17  1  0
 20 18  1  0
 21 22  1  0
 21 20  1  1
 22 13  1  0
 23 21  1  0
 24 23  2  0
 25 23  1  0
M  END
$$$$
