GYN.pdb
     RDKit          3D

 25 25  0  0  1  0  0  0  0  0999 V2000
   29.4267  -22.7343  -17.8808 N   0  0  0  0  0  0  0  0  0  0  0  0
   28.8072  -21.5527  -17.3095 C   0  0  0  0  0  0  0  0  0  0  0  0
   27.9048  -21.9063  -16.1778 C   0  0  0  0  0  0  0  0  0  0  0  0
   27.5597  -23.0858  -15.9664 O   0  0  0  0  0  0  0  0  0  0  0  0
   23.5233  -20.8847   -8.4689 O   0  0  0  0  0  0  0  0  0  0  0  0
   24.3369  -20.7339   -9.5836 C   0  0  0  0  0  0  0  0  0  0  0  0
   25.6554  -21.1379   -9.5934 C   0  0  0  0  0  0  0  0  0  0  0  0
   26.4454  -20.9791  -10.7098 C   0  0  0  0  0  0  0  0  0  0  0  0
   25.9719  -20.4127  -11.8733 C   0  0  0  0  0  0  0  0  0  0  0  0
   26.8345  -20.2515  -13.0533 C   0  0  0  0  0  0  0  0  0  0  0  0
   26.5749  -21.2106  -14.1283 C   0  0  2  0  0  0  0  0  0  0  0  0
   27.4126  -20.9298  -15.3125 N   0  0  0  0  0  0  0  0  0  0  0  0
   25.2162  -21.2489  -14.6289 C   0  0  0  0  0  0  0  0  0  0  0  0
   24.8718  -20.3300  -15.4654 O   0  0  0  0  0  0  0  0  0  0  0  0
   24.6466  -20.0082  -11.8593 C   0  0  0  0  0  0  0  0  0  0  0  0
   23.8758  -20.1689  -10.7540 C   0  0  0  0  0  0  0  0  0  0  0  0
   20.8669  -22.7333  -17.4390 N   0  0  0  0  0  0  0  0  0  0  0  0
   21.0964  -23.3391  -16.1814 C   0  0  0  0  0  0  0  0  0  0  0  0
   20.1380  -23.8528  -15.5725 O   0  0  0  0  0  0  0  0  0  0  0  0
   22.4435  -23.3550  -15.6165 C   0  0  0  0  0  0  0  0  0  0  0  0
   22.8505  -22.0572  -14.9405 C   0  0  2  0  0  0  0  0  0  0  0  0
   24.1693  -22.1670  -14.3514 N   0  0  0  0  0  0  0  0  0  0  0  0
   21.8505  -21.6515  -13.9690 C   0  0  0  0  0  0  0  0  0  0  0  0
   21.9147  -21.9853  -12.7346 O   0  0  0  0  0  0  0  0  0  0  0  0
   20.7693  -20.8822  -14.3097 O   0  0  0  0  0  0  0  0  0  0  0  0
  1  2  1  0
  3 12  1  0
  3  2  1  0
  4  3  2  0
  6  5  1  0
  7  6  2  0
  8  7  1  0
  9  8  2  0
  9 15  1  0
 10  9  1  0
 11 10  1  1
 11 12  1  0
 13 11  1  0
 13 14  2  0
 15 16  2  0
 16  6  1  0
 18 19  2  0
 18 17  1  0
 20 18  1  0
 21 22  1  0
 21 20  1  1
 22 13  1  0
 23 21  1  0
 24 23  2  0
 25 23  1  0
M  END
$$$$
