GYN.pdb
     RDKit          3D

 25 25  0  0  1  0  0  0  0  0999 V2000
   16.3449  -15.6043  -15.3683 N   0  0  0  0  0  0  0  0  0  0  0  0
   15.9828  -14.2000  -15.4257 C   0  0  0  0  0  0  0  0  0  0  0  0
   16.9534  -13.4221  -16.2459 C   0  0  0  0  0  0  0  0  0  0  0  0
   18.0327  -13.9212  -16.6217 O   0  0  0  0  0  0  0  0  0  0  0  0
   20.2794   -7.1761  -21.6012 O   0  0  0  0  0  0  0  0  0  0  0  0
   19.4684   -8.0230  -20.8578 C   0  0  0  0  0  0  0  0  0  0  0  0
   18.4351   -7.5534  -20.0744 C   0  0  0  0  0  0  0  0  0  0  0  0
   17.6423   -8.4105  -19.3447 C   0  0  0  0  0  0  0  0  0  0  0  0
   17.8310   -9.7754  -19.3523 C   0  0  0  0  0  0  0  0  0  0  0  0
   16.9729  -10.6719  -18.5634 C   0  0  0  0  0  0  0  0  0  0  0  0
   17.6245  -11.2554  -17.3896 C   0  0  2  0  0  0  0  0  0  0  0  0
   16.6902  -12.1060  -16.6238 N   0  0  0  0  0  0  0  0  0  0  0  0
   18.1532  -10.3135  -16.4245 C   0  0  0  0  0  0  0  0  0  0  0  0
   17.3359   -9.8622  -15.5351 O   0  0  0  0  0  0  0  0  0  0  0  0
   18.8702  -10.2431  -20.1406 C   0  0  0  0  0  0  0  0  0  0  0  0
   19.6462   -9.3904  -20.8565 C   0  0  0  0  0  0  0  0  0  0  0  0
   21.4440   -8.6290  -12.2261 N   0  0  0  0  0  0  0  0  0  0  0  0
   21.6518   -8.3277  -13.5926 C   0  0  0  0  0  0  0  0  0  0  0  0
   22.2383   -7.2713  -13.8976 O   0  0  0  0  0  0  0  0  0  0  0  0
   21.1798   -9.2515  -14.6212 C   0  0  0  0  0  0  0  0  0  0  0  0
   19.8408   -8.8737  -15.2304 C   0  0  2  0  0  0  0  0  0  0  0  0
   19.4678   -9.7961  -16.2832 N   0  0  0  0  0  0  0  0  0  0  0  0
   19.8595   -7.4972  -15.6918 C   0  0  0  0  0  0  0  0  0  0  0  0
   20.1785   -7.1767  -16.8897 O   0  0  0  0  0  0  0  0  0  0  0  0
   19.5356   -6.4469  -14.8738 O   0  0  0  0  0  0  0  0  0  0  0  0
  1  2  1  0
  3 12  1  0
  3  2  1  0
  4  3  2  0
  6  5  1  0
  7  6  2  0
  8  7  1  0
  9  8  2  0
  9 15  1  0
 10  9  1  0
 11 10  1  6
 11 12  1  0
 13 11  1  0
 13 14  2  0
 15 16  2  0
 16  6  1  0
 18 19  2  0
 18 17  1  0
 20 18  1  0
 21 22  1  0
 21 20  1  6
 22 13  1  0
 23 21  1  0
 24 23  2  0
 25 23  1  0
M  END
$$$$
