GYN.pdb
     RDKit          3D

 25 25  0  0  1  0  0  0  0  0999 V2000
   18.4982  -13.6540  -16.5079 N   0  0  0  0  0  0  0  0  0  0  0  0
   19.3736  -12.6388  -17.0639 C   0  0  0  0  0  0  0  0  0  0  0  0
   19.4022  -11.4190  -16.2087 C   0  0  0  0  0  0  0  0  0  0  0  0
   18.5337  -11.2165  -15.3370 O   0  0  0  0  0  0  0  0  0  0  0  0
   22.2407   -3.2413  -13.9027 O   0  0  0  0  0  0  0  0  0  0  0  0
   22.1358   -4.5753  -14.2729 C   0  0  0  0  0  0  0  0  0  0  0  0
   21.9638   -5.5847  -13.3491 C   0  0  0  0  0  0  0  0  0  0  0  0
   21.8620   -6.9017  -13.7374 C   0  0  0  0  0  0  0  0  0  0  0  0
   21.9252   -7.2876  -15.0587 C   0  0  0  0  0  0  0  0  0  0  0  0
   21.8158   -8.7008  -15.4503 C   0  0  0  0  0  0  0  0  0  0  0  0
   20.4419   -9.1789  -15.6136 C   0  0  2  0  0  0  0  0  0  0  0  0
   20.4024  -10.4581  -16.3520 N   0  0  0  0  0  0  0  0  0  0  0  0
   19.5465   -8.2993  -16.3366 C   0  0  0  0  0  0  0  0  0  0  0  0
   19.5869   -8.3488  -17.6245 O   0  0  0  0  0  0  0  0  0  0  0  0
   22.0981   -6.2703  -15.9836 C   0  0  0  0  0  0  0  0  0  0  0  0
   22.1973   -4.9750  -15.5911 C   0  0  0  0  0  0  0  0  0  0  0  0
   15.2545   -6.1950  -18.8519 N   0  0  0  0  0  0  0  0  0  0  0  0
   15.4844   -6.0076  -17.4687 C   0  0  0  0  0  0  0  0  0  0  0  0
   14.9329   -5.0537  -16.8867 O   0  0  0  0  0  0  0  0  0  0  0  0
   16.3587   -6.9277  -16.7453 C   0  0  0  0  0  0  0  0  0  0  0  0
   17.8176   -6.5064  -16.7155 C   0  0  2  0  0  0  0  0  0  0  0  0
   18.5921   -7.3691  -15.8470 N   0  0  0  0  0  0  0  0  0  0  0  0
   17.9382   -5.1078  -16.3445 C   0  0  0  0  0  0  0  0  0  0  0  0
   18.0359   -4.1713  -17.2120 O   0  0  0  0  0  0  0  0  0  0  0  0
   17.9550   -4.6964  -15.0377 O   0  0  0  0  0  0  0  0  0  0  0  0
  1  2  1  0
  3 12  1  0
  3  2  1  0
  4  3  2  0
  6  5  1  0
  7  6  2  0
  8  7  1  0
  9  8  2  0
  9 15  1  0
 10  9  1  0
 11 10  1  6
 11 12  1  0
 13 11  1  0
 13 14  2  0
 15 16  2  0
 16  6  1  0
 18 19  2  0
 18 17  1  0
 20 18  1  0
 21 22  1  0
 21 20  1  1
 22 13  1  0
 23 21  1  0
 24 23  2  0
 25 23  1  0
M  END
$$$$
