GYN.pdb
     RDKit          3D

 25 25  0  0  1  0  0  0  0  0999 V2000
   25.5135  -17.1361  -19.5208 N   0  0  0  0  0  0  0  0  0  0  0  0
   24.9790  -16.9287  -18.1875 C   0  0  0  0  0  0  0  0  0  0  0  0
   24.5695  -18.2167  -17.5604 C   0  0  0  0  0  0  0  0  0  0  0  0
   24.4264  -19.2530  -18.2392 O   0  0  0  0  0  0  0  0  0  0  0  0
   29.6456  -22.2242  -16.9337 O   0  0  0  0  0  0  0  0  0  0  0  0
   28.5170  -21.6655  -16.3492 C   0  0  0  0  0  0  0  0  0  0  0  0
   28.4987  -20.3720  -15.8714 C   0  0  0  0  0  0  0  0  0  0  0  0
   27.3685  -19.8369  -15.2951 C   0  0  0  0  0  0  0  0  0  0  0  0
   26.1992  -20.5535  -15.1618 C   0  0  0  0  0  0  0  0  0  0  0  0
   25.0045  -19.9619  -14.5411 C   0  0  0  0  0  0  0  0  0  0  0  0
   23.9654  -19.5598  -15.4905 C   0  0  2  0  0  0  0  0  0  0  0  0
   24.3309  -18.3107  -16.1897 N   0  0  0  0  0  0  0  0  0  0  0  0
   22.6556  -19.3061  -14.9266 C   0  0  0  0  0  0  0  0  0  0  0  0
   22.5841  -18.4427  -13.9715 O   0  0  0  0  0  0  0  0  0  0  0  0
   26.2219  -21.8527  -15.6432 C   0  0  0  0  0  0  0  0  0  0  0  0
   27.3406  -22.3714  -16.2098 C   0  0  0  0  0  0  0  0  0  0  0  0
   17.8388  -18.1144  -13.8008 N   0  0  0  0  0  0  0  0  0  0  0  0
   17.8807  -18.5258  -15.1537 C   0  0  0  0  0  0  0  0  0  0  0  0
   16.8719  -18.3646  -15.8674 O   0  0  0  0  0  0  0  0  0  0  0  0
   19.0967  -19.1297  -15.6931 C   0  0  0  0  0  0  0  0  0  0  0  0
   20.1551  -19.4377  -14.6484 C   0  0  2  0  0  0  0  0  0  0  0  0
   21.3939  -19.8596  -15.2695 N   0  0  0  0  0  0  0  0  0  0  0  0
   19.6622  -20.4148  -13.6942 C   0  0  0  0  0  0  0  0  0  0  0  0
   19.7126  -21.6756  -13.9115 O   0  0  0  0  0  0  0  0  0  0  0  0
   19.1093  -20.0515  -12.4945 O   0  0  0  0  0  0  0  0  0  0  0  0
  1  2  1  0
  3 12  1  0
  3  2  1  0
  4  3  2  0
  6  5  1  0
  7  6  2  0
  8  7  1  0
  9  8  2  0
  9 15  1  0
 10  9  1  0
 11 10  1  1
 11 12  1  0
 13 11  1  0
 13 14  2  0
 15 16  2  0
 16  6  1  0
 18 19  2  0
 18 17  1  0
 20 18  1  0
 21 22  1  0
 21 20  1  6
 22 13  1  0
 23 21  1  0
 24 23  2  0
 25 23  1  0
M  END
$$$$
