GYN.pdb
     RDKit          3D

 25 25  0  0  1  0  0  0  0  0999 V2000
   24.7761  -17.4088  -19.1540 N   0  0  0  0  0  0  0  0  0  0  0  0
   23.6158  -18.2482  -18.9181 C   0  0  0  0  0  0  0  0  0  0  0  0
   23.5880  -18.7547  -17.5171 C   0  0  0  0  0  0  0  0  0  0  0  0
   24.5714  -18.6273  -16.7608 O   0  0  0  0  0  0  0  0  0  0  0  0
   20.3980  -22.4143  -10.0371 O   0  0  0  0  0  0  0  0  0  0  0  0
   20.5827  -21.7519  -11.2432 C   0  0  0  0  0  0  0  0  0  0  0  0
   21.5195  -20.7519  -11.3984 C   0  0  0  0  0  0  0  0  0  0  0  0
   21.6868  -20.1073  -12.6035 C   0  0  0  0  0  0  0  0  0  0  0  0
   20.9363  -20.4188  -13.7163 C   0  0  0  0  0  0  0  0  0  0  0  0
   21.1310  -19.7158  -14.9931 C   0  0  0  0  0  0  0  0  0  0  0  0
   22.3960  -20.0193  -15.6643 C   0  0  2  0  0  0  0  0  0  0  0  0
   22.4600  -19.3905  -16.9998 N   0  0  0  0  0  0  0  0  0  0  0  0
   22.6698  -21.4227  -15.8957 C   0  0  0  0  0  0  0  0  0  0  0  0
   22.1378  -21.9611  -16.9397 O   0  0  0  0  0  0  0  0  0  0  0  0
   19.9962  -21.4242  -13.5561 C   0  0  0  0  0  0  0  0  0  0  0  0
   19.8387  -22.0537  -12.3643 C   0  0  0  0  0  0  0  0  0  0  0  0
   24.3419  -26.2467  -16.4806 N   0  0  0  0  0  0  0  0  0  0  0  0
   25.3013  -25.5667  -15.6943 C   0  0  0  0  0  0  0  0  0  0  0  0
   26.3701  -26.1416  -15.4114 O   0  0  0  0  0  0  0  0  0  0  0  0
   25.0293  -24.2094  -15.2273 C   0  0  0  0  0  0  0  0  0  0  0  0
   23.6179  -23.7248  -15.5101 C   0  0  2  0  0  0  0  0  0  0  0  0
   23.4619  -22.3316  -15.1457 N   0  0  0  0  0  0  0  0  0  0  0  0
   22.6438  -24.5746  -14.8491 C   0  0  0  0  0  0  0  0  0  0  0  0
   22.0116  -24.2084  -13.7976 O   0  0  0  0  0  0  0  0  0  0  0  0
   22.3352  -25.8280  -15.3082 O   0  0  0  0  0  0  0  0  0  0  0  0
  1  2  1  0
  3 12  1  0
  3  2  1  0
  4  3  2  0
  6  5  1  0
  7  6  2  0
  8  7  1  0
  9  8  2  0
  9 15  1  0
 10  9  1  0
 11 10  1  6
 11 12  1  0
 13 11  1  0
 13 14  2  0
 15 16  2  0
 16  6  1  0
 18 19  2  0
 18 17  1  0
 20 18  1  0
 21 22  1  0
 21 20  1  1
 22 13  1  0
 23 21  1  0
 24 23  2  0
 25 23  1  0
M  END
$$$$
