GYN.pdb
     RDKit          3D

 25 25  0  0  1  0  0  0  0  0999 V2000
   28.2765   -9.4047  -19.7669 N   0  0  0  0  0  0  0  0  0  0  0  0
   28.1499   -9.0658  -18.3613 C   0  0  0  0  0  0  0  0  0  0  0  0
   26.8908   -9.6131  -17.7823 C   0  0  0  0  0  0  0  0  0  0  0  0
   26.0162  -10.1324  -18.5038 O   0  0  0  0  0  0  0  0  0  0  0  0
   27.6531  -16.1138  -16.6970 O   0  0  0  0  0  0  0  0  0  0  0  0
   27.2135  -14.8889  -16.2135 C   0  0  0  0  0  0  0  0  0  0  0  0
   28.0810  -13.9386  -15.7172 C   0  0  0  0  0  0  0  0  0  0  0  0
   27.6242  -12.7296  -15.2424 C   0  0  0  0  0  0  0  0  0  0  0  0
   26.2866  -12.3988  -15.2340 C   0  0  0  0  0  0  0  0  0  0  0  0
   25.8212  -11.1020  -14.7203 C   0  0  0  0  0  0  0  0  0  0  0  0
   25.4495  -10.1382  -15.7575 C   0  0  2  0  0  0  0  0  0  0  0  0
   26.6441   -9.5646  -16.4108 N   0  0  0  0  0  0  0  0  0  0  0  0
   24.6780   -8.9955  -15.3136 C   0  0  0  0  0  0  0  0  0  0  0  0
   25.2877   -8.1203  -14.5890 O   0  0  0  0  0  0  0  0  0  0  0  0
   25.4184  -13.3564  -15.7336 C   0  0  0  0  0  0  0  0  0  0  0  0
   25.8782  -14.5452  -16.1995 C   0  0  0  0  0  0  0  0  0  0  0  0
   22.3167   -4.8536  -14.1358 N   0  0  0  0  0  0  0  0  0  0  0  0
   22.2520   -5.0764  -15.5312 C   0  0  0  0  0  0  0  0  0  0  0  0
   21.9861   -4.1207  -16.2855 O   0  0  0  0  0  0  0  0  0  0  0  0
   22.4957   -6.4136  -16.0666 C   0  0  0  0  0  0  0  0  0  0  0  0
   22.6863   -7.4837  -15.0058 C   0  0  2  0  0  0  0  0  0  0  0  0
   23.3204   -8.6618  -15.5612 N   0  0  0  0  0  0  0  0  0  0  0  0
   21.4229   -7.7959  -14.3620 C   0  0  0  0  0  0  0  0  0  0  0  0
   20.5412   -8.5491  -14.9046 O   0  0  0  0  0  0  0  0  0  0  0  0
   21.0897   -7.3040  -13.1274 O   0  0  0  0  0  0  0  0  0  0  0  0
  1  2  1  0
  3 12  1  0
  3  2  1  0
  4  3  2  0
  6  5  1  0
  7  6  2  0
  8  7  1  0
  9  8  2  0
  9 15  1  0
 10  9  1  0
 11 10  1  1
 11 12  1  0
 13 11  1  0
 13 14  2  0
 15 16  2  0
 16  6  1  0
 18 19  2  0
 18 17  1  0
 20 18  1  0
 21 22  1  0
 21 20  1  6
 22 13  1  0
 23 21  1  0
 24 23  2  0
 25 23  1  0
M  END
$$$$
