NFC.pdb
     RDKit          3D

 26 26  0  0  1  0  0  0  0  0999 V2000
    9.8802  -16.0077   16.2983 N   0  0  0  0  0  0  0  0  0  0  0  0
    8.9301  -16.4065   17.2689 C   0  0  0  0  0  0  0  0  0  0  0  0
    8.1593  -17.3637   17.0036 O   0  0  0  0  0  0  0  0  0  0  0  0
    8.8007  -15.7457   18.5891 C   0  0  0  0  0  0  0  0  0  0  0  0
    9.1369  -16.7039   19.7114 C   0  0  2  0  0  0  0  0  0  0  0  0
    8.1574  -17.7499   19.7933 N   0  0  0  0  0  0  0  0  0  0  0  0
    9.2286  -15.8953   20.9560 C   0  0  0  0  0  0  0  0  0  0  0  0
   10.2996  -15.3023   21.1864 O   0  0  0  0  0  0  0  0  0  0  0  0
    8.1795  -15.7595   21.8883 N   0  0  0  0  0  0  0  0  0  0  0  0
    8.2725  -15.0766   23.1452 C   0  0  1  0  0  0  0  0  0  0  0  0
    7.1824  -14.1246   23.4371 C   0  0  0  0  0  0  0  0  0  0  0  0
    7.2350  -13.4363   24.7179 C   0  0  0  0  0  0  0  0  0  0  0  0
    6.3622  -13.8235   25.7113 C   0  0  0  0  0  0  0  0  0  0  0  0
    6.3406  -13.2193   26.9726 C   0  0  0  0  0  0  0  0  0  0  0  0
    7.2052  -12.2070   27.2556 C   0  0  0  0  0  0  0  0  0  0  0  0
    8.0830  -11.8103   26.2712 C   0  0  0  0  0  0  0  0  0  0  0  0
    8.0978  -12.4100   25.0330 C   0  0  0  0  0  0  0  0  0  0  0  0
    8.5370  -16.0250   24.2401 C   0  0  0  0  0  0  0  0  0  0  0  0
    7.7714  -17.0308   24.4203 O   0  0  0  0  0  0  0  0  0  0  0  0
    9.6347  -15.8843   25.1377 N   0  0  0  0  0  0  0  0  0  0  0  0
    9.9660  -16.8968   26.1203 C   0  0  1  0  0  0  0  0  0  0  0  0
   11.3269  -17.5191   25.8155 C   0  0  0  0  0  0  0  0  0  0  0  0
   11.7621  -18.6584   27.1614 S   0  0  0  0  0  0  0  0  0  0  0  0
   10.0576  -16.2792   27.4534 C   0  0  0  0  0  0  0  0  0  0  0  0
   10.0269  -14.9184   27.6964 O   0  0  0  0  0  0  0  0  0  0  0  0
   10.1764  -17.0122   28.4940 O   0  0  0  0  0  0  0  0  0  0  0  0
  2  1  1  0
  3  2  2  0
  4  2  1  0
  5  4  1  0
  5  6  1  1
  7  9  1  0
  7  5  1  0
  8  7  2  0
 10  9  1  0
 10 11  1  1
 11 12  1  0
 12 17  2  0
 12 13  1  0
 13 14  2  0
 14 15  1  0
 16 15  2  0
 17 16  1  0
 18 20  1  0
 18 10  1  0
 19 18  2  0
 21 20  1  0
 21 24  1  0
 21 22  1  6
 22 23  1  0
 24 25  1  0
 26 24  2  0
M  END
$$$$
