NFC.pdb
     RDKit          3D

 26 26  0  0  1  0  0  0  0  0999 V2000
    9.2842  -17.4928   18.4241 N   0  0  0  0  0  0  0  0  0  0  0  0
    9.6092  -16.1349   18.6562 C   0  0  0  0  0  0  0  0  0  0  0  0
    9.8029  -15.3816   17.6683 O   0  0  0  0  0  0  0  0  0  0  0  0
    9.7323  -15.5566   20.0151 C   0  0  0  0  0  0  0  0  0  0  0  0
    9.7105  -16.6409   21.0709 C   0  0  2  0  0  0  0  0  0  0  0  0
    8.5343  -17.4527   20.9374 N   0  0  0  0  0  0  0  0  0  0  0  0
    9.7999  -15.9604   22.3900 C   0  0  0  0  0  0  0  0  0  0  0  0
   10.7325  -15.1534   22.5658 O   0  0  0  0  0  0  0  0  0  0  0  0
    8.8955  -16.1727   23.4508 N   0  0  0  0  0  0  0  0  0  0  0  0
    8.9703  -15.5496   24.7396 C   0  0  1  0  0  0  0  0  0  0  0  0
    7.6776  -15.3244   25.4162 C   0  0  0  0  0  0  0  0  0  0  0  0
    7.2932  -13.9421   25.6581 C   0  0  0  0  0  0  0  0  0  0  0  0
    6.0227  -13.6824   26.1237 C   0  0  0  0  0  0  0  0  0  0  0  0
    5.5661  -12.3862   26.3839 C   0  0  0  0  0  0  0  0  0  0  0  0
    6.3891  -11.3221   26.1775 C   0  0  0  0  0  0  0  0  0  0  0  0
    7.6619  -11.5678   25.7122 C   0  0  0  0  0  0  0  0  0  0  0  0
    8.1033  -12.8462   25.4587 C   0  0  0  0  0  0  0  0  0  0  0  0
    9.9725  -16.2158   25.5879 C   0  0  0  0  0  0  0  0  0  0  0  0
   10.3442  -17.4097   25.3294 O   0  0  0  0  0  0  0  0  0  0  0  0
   10.5748  -15.5854   26.7150 N   0  0  0  0  0  0  0  0  0  0  0  0
   11.5660  -16.2510   27.5366 C   0  0  1  0  0  0  0  0  0  0  0  0
   12.0222  -15.3408   28.6748 C   0  0  0  0  0  0  0  0  0  0  0  0
   10.5594  -14.5747   29.4312 S   0  0  0  0  0  0  0  0  0  0  0  0
   10.9735  -17.4515   28.1488 C   0  0  0  0  0  0  0  0  0  0  0  0
   11.6743  -18.3904   28.8832 O   0  0  0  0  0  0  0  0  0  0  0  0
    9.7239  -17.6882   28.0195 O   0  0  0  0  0  0  0  0  0  0  0  0
  2  1  1  0
  3  2  2  0
  4  2  1  0
  5  4  1  0
  5  6  1  1
  7  9  1  0
  7  5  1  0
  8  7  2  0
 10  9  1  0
 10 11  1  1
 11 12  1  0
 12 17  2  0
 12 13  1  0
 13 14  2  0
 14 15  1  0
 16 15  2  0
 17 16  1  0
 18 20  1  0
 18 10  1  0
 19 18  2  0
 21 20  1  0
 21 24  1  0
 21 22  1  1
 22 23  1  0
 24 25  1  0
 26 24  2  0
M  END
$$$$
