NFC.pdb
     RDKit          3D

 26 26  0  0  1  0  0  0  0  0999 V2000
   12.2376  -19.2158   18.7050 N   0  0  0  0  0  0  0  0  0  0  0  0
   11.1342  -19.1745   19.5906 C   0  0  0  0  0  0  0  0  0  0  0  0
   10.1660  -19.9505   19.3876 O   0  0  0  0  0  0  0  0  0  0  0  0
   11.0662  -18.2554   20.7511 C   0  0  0  0  0  0  0  0  0  0  0  0
    9.8808  -17.3214   20.6356 C   0  0  2  0  0  0  0  0  0  0  0  0
    9.9635  -16.5467   19.4301 N   0  0  0  0  0  0  0  0  0  0  0  0
    9.8701  -16.4841   21.8645 C   0  0  0  0  0  0  0  0  0  0  0  0
   10.9460  -15.9724   22.2286 O   0  0  0  0  0  0  0  0  0  0  0  0
    8.7193  -16.2351   22.6402 N   0  0  0  0  0  0  0  0  0  0  0  0
    8.6612  -15.3683   23.7804 C   0  0  1  0  0  0  0  0  0  0  0  0
    7.4639  -14.5091   23.8693 C   0  0  0  0  0  0  0  0  0  0  0  0
    7.3431  -13.6687   25.0509 C   0  0  0  0  0  0  0  0  0  0  0  0
    6.5684  -14.1130   26.1002 C   0  0  0  0  0  0  0  0  0  0  0  0
    6.3947  -13.3731   27.2744 C   0  0  0  0  0  0  0  0  0  0  0  0
    7.0037  -12.1637   27.4114 C   0  0  0  0  0  0  0  0  0  0  0  0
    7.7810  -11.7079   26.3697 C   0  0  0  0  0  0  0  0  0  0  0  0
    7.9468  -12.4420   25.2179 C   0  0  0  0  0  0  0  0  0  0  0  0
    8.9489  -16.1100   25.0194 C   0  0  0  0  0  0  0  0  0  0  0  0
    8.3139  -17.1843   25.2895 O   0  0  0  0  0  0  0  0  0  0  0  0
    9.9288  -15.6882   25.9642 N   0  0  0  0  0  0  0  0  0  0  0  0
   10.4653  -16.5794   26.9733 C   0  0  1  0  0  0  0  0  0  0  0  0
   11.9921  -16.5787   26.9366 C   0  0  0  0  0  0  0  0  0  0  0  0
   12.5717  -14.8621   26.8094 S   0  0  0  0  0  0  0  0  0  0  0  0
   10.0609  -16.1122   28.3094 C   0  0  0  0  0  0  0  0  0  0  0  0
   10.3201  -16.7813   29.4913 O   0  0  0  0  0  0  0  0  0  0  0  0
    9.4203  -15.0135   28.4388 O   0  0  0  0  0  0  0  0  0  0  0  0
  2  1  1  0
  3  2  2  0
  4  2  1  0
  5  4  1  0
  5  6  1  6
  7  9  1  0
  7  5  1  0
  8  7  2  0
 10  9  1  0
 10 11  1  1
 11 12  1  0
 12 17  2  0
 12 13  1  0
 13 14  2  0
 14 15  1  0
 16 15  2  0
 17 16  1  0
 18 20  1  0
 18 10  1  0
 19 18  2  0
 21 20  1  0
 21 24  1  0
 21 22  1  1
 22 23  1  0
 24 25  1  0
 26 24  2  0
M  END
$$$$
