NFC.pdb
     RDKit          3D

 26 26  0  0  1  0  0  0  0  0999 V2000
    4.4995  -21.8738   22.5514 N   0  0  0  0  0  0  0  0  0  0  0  0
    5.9045  -21.8298   22.7173 C   0  0  0  0  0  0  0  0  0  0  0  0
    6.5139  -22.8924   23.0005 O   0  0  0  0  0  0  0  0  0  0  0  0
    6.6945  -20.5844   22.5724 C   0  0  0  0  0  0  0  0  0  0  0  0
    5.7890  -19.3824   22.4103 C   0  0  2  0  0  0  0  0  0  0  0  0
    5.3761  -19.2416   21.0429 N   0  0  0  0  0  0  0  0  0  0  0  0
    6.5428  -18.2036   22.9138 C   0  0  0  0  0  0  0  0  0  0  0  0
    7.4422  -17.7362   22.1897 O   0  0  0  0  0  0  0  0  0  0  0  0
    6.3016  -17.5848   24.1576 N   0  0  0  0  0  0  0  0  0  0  0  0
    6.9882  -16.4284   24.6537 C   0  0  1  0  0  0  0  0  0  0  0  0
    6.2517  -15.6275   25.6517 C   0  0  0  0  0  0  0  0  0  0  0  0
    6.8908  -14.4059   26.1168 C   0  0  0  0  0  0  0  0  0  0  0  0
    7.8019  -14.4890   27.1471 C   0  0  0  0  0  0  0  0  0  0  0  0
    8.4644  -13.3685   27.6589 C   0  0  0  0  0  0  0  0  0  0  0  0
    8.2176  -12.1362   27.1366 C   0  0  0  0  0  0  0  0  0  0  0  0
    7.3090  -12.0393   26.1061 C   0  0  0  0  0  0  0  0  0  0  0  0
    6.6614  -13.1466   25.6083 C   0  0  0  0  0  0  0  0  0  0  0  0
    8.3602  -16.7685   25.0658 C   0  0  0  0  0  0  0  0  0  0  0  0
    8.5616  -17.6287   25.9877 O   0  0  0  0  0  0  0  0  0  0  0  0
    9.5147  -16.1778   24.4752 N   0  0  0  0  0  0  0  0  0  0  0  0
   10.8435  -16.7279   24.6544 C   0  0  1  0  0  0  0  0  0  0  0  0
   11.5792  -16.8069   23.3184 C   0  0  0  0  0  0  0  0  0  0  0  0
   11.4407  -15.2014   22.4805 S   0  0  0  0  0  0  0  0  0  0  0  0
   11.6284  -15.8453   25.5330 C   0  0  0  0  0  0  0  0  0  0  0  0
   12.8939  -16.1306   26.0113 O   0  0  0  0  0  0  0  0  0  0  0  0
   11.1477  -14.7224   25.9101 O   0  0  0  0  0  0  0  0  0  0  0  0
  2  1  1  0
  3  2  2  0
  4  2  1  0
  5  4  1  0
  5  6  1  6
  7  9  1  0
  7  5  1  0
  8  7  2  0
 10  9  1  0
 10 11  1  1
 11 12  1  0
 12 17  2  0
 12 13  1  0
 13 14  2  0
 14 15  1  0
 16 15  2  0
 17 16  1  0
 18 20  1  0
 18 10  1  0
 19 18  2  0
 21 20  1  0
 21 24  1  0
 21 22  1  6
 22 23  1  0
 24 25  1  0
 26 24  2  0
M  END
$$$$
