NFC.pdb
     RDKit          3D

 26 26  0  0  1  0  0  0  0  0999 V2000
   11.0398  -19.3015   19.0843 N   0  0  0  0  0  0  0  0  0  0  0  0
   11.5820  -19.3987   20.3882 C   0  0  0  0  0  0  0  0  0  0  0  0
   12.2840  -20.4005   20.6785 O   0  0  0  0  0  0  0  0  0  0  0  0
   11.3599  -18.3704   21.4320 C   0  0  0  0  0  0  0  0  0  0  0  0
   10.6785  -17.1485   20.8545 C   0  0  2  0  0  0  0  0  0  0  0  0
   11.4839  -16.5617   19.8215 N   0  0  0  0  0  0  0  0  0  0  0  0
   10.4223  -16.2212   21.9885 C   0  0  0  0  0  0  0  0  0  0  0  0
   11.3684  -15.5161   22.3879 O   0  0  0  0  0  0  0  0  0  0  0  0
    9.1769  -16.0924   22.6371 N   0  0  0  0  0  0  0  0  0  0  0  0
    8.9021  -15.2110   23.7336 C   0  0  1  0  0  0  0  0  0  0  0  0
    7.5372  -14.6497   23.7753 C   0  0  0  0  0  0  0  0  0  0  0  0
    7.2207  -13.7708   24.8909 C   0  0  0  0  0  0  0  0  0  0  0  0
    7.7226  -12.4877   24.8829 C   0  0  0  0  0  0  0  0  0  0  0  0
    7.4709  -11.5740   25.9117 C   0  0  0  0  0  0  0  0  0  0  0  0
    6.7032  -11.9416   26.9737 C   0  0  0  0  0  0  0  0  0  0  0  0
    6.1953  -13.2217   26.9940 C   0  0  0  0  0  0  0  0  0  0  0  0
    6.4476  -14.1144   25.9778 C   0  0  0  0  0  0  0  0  0  0  0  0
    9.3341  -15.8078   25.0084 C   0  0  0  0  0  0  0  0  0  0  0  0
    9.1650  -17.0545   25.2263 O   0  0  0  0  0  0  0  0  0  0  0  0
    9.9534  -15.0526   26.0462 N   0  0  0  0  0  0  0  0  0  0  0  0
   10.6906  -15.6791   27.1253 C   0  0  1  0  0  0  0  0  0  0  0  0
   11.2173  -14.6278   28.0999 C   0  0  0  0  0  0  0  0  0  0  0  0
    9.8152  -13.6562   28.7237 S   0  0  0  0  0  0  0  0  0  0  0  0
    9.7948  -16.5673   27.8840 C   0  0  0  0  0  0  0  0  0  0  0  0
   10.2018  -17.4324   28.8829 O   0  0  0  0  0  0  0  0  0  0  0  0
    8.5404  -16.5768   27.6377 O   0  0  0  0  0  0  0  0  0  0  0  0
  2  1  1  0
  3  2  2  0
  4  2  1  0
  5  4  1  0
  5  6  1  6
  7  9  1  0
  7  5  1  0
  8  7  2  0
 10  9  1  0
 10 11  1  1
 11 12  1  0
 12 17  2  0
 12 13  1  0
 13 14  2  0
 14 15  1  0
 16 15  2  0
 17 16  1  0
 18 20  1  0
 18 10  1  0
 19 18  2  0
 21 20  1  0
 21 24  1  0
 21 22  1  1
 22 23  1  0
 24 25  1  0
 26 24  2  0
M  END
$$$$
