NFC.pdb
     RDKit          3D

 26 26  0  0  1  0  0  0  0  0999 V2000
   11.2689  -18.6732   19.1713 N   0  0  0  0  0  0  0  0  0  0  0  0
   12.1924  -17.7447   19.7085 C   0  0  0  0  0  0  0  0  0  0  0  0
   13.3426  -17.6754   19.2056 O   0  0  0  0  0  0  0  0  0  0  0  0
   11.8657  -16.8464   20.8409 C   0  0  0  0  0  0  0  0  0  0  0  0
   10.5188  -17.1930   21.4382 C   0  0  2  0  0  0  0  0  0  0  0  0
    9.4995  -17.1800   20.4277 N   0  0  0  0  0  0  0  0  0  0  0  0
   10.2667  -16.2154   22.5300 C   0  0  0  0  0  0  0  0  0  0  0  0
   11.2528  -15.6703   23.0613 O   0  0  0  0  0  0  0  0  0  0  0  0
    8.9828  -15.8692   22.9989 N   0  0  0  0  0  0  0  0  0  0  0  0
    8.7119  -14.9754   24.0863 C   0  0  1  0  0  0  0  0  0  0  0  0
    7.4723  -14.1823   23.9677 C   0  0  0  0  0  0  0  0  0  0  0  0
    7.1258  -13.3299   25.0947 C   0  0  0  0  0  0  0  0  0  0  0  0
    6.1159  -13.7330   25.9410 C   0  0  0  0  0  0  0  0  0  0  0  0
    5.7152  -12.9786   27.0486 C   0  0  0  0  0  0  0  0  0  0  0  0
    6.3306  -11.7963   27.3236 C   0  0  0  0  0  0  0  0  0  0  0  0
    7.3418  -11.3817   26.4854 C   0  0  0  0  0  0  0  0  0  0  0  0
    7.7300  -12.1298   25.3979 C   0  0  0  0  0  0  0  0  0  0  0  0
    8.8500  -15.6648   25.3800 C   0  0  0  0  0  0  0  0  0  0  0  0
    8.8623  -14.9967   26.4681 O   0  0  0  0  0  0  0  0  0  0  0  0
    8.9711  -17.0801   25.4939 N   0  0  0  0  0  0  0  0  0  0  0  0
    9.0456  -17.7501   26.7769 C   0  0  1  0  0  0  0  0  0  0  0  0
    8.2310  -19.0418   26.7587 C   0  0  0  0  0  0  0  0  0  0  0  0
    6.4726  -18.6202   26.5878 S   0  0  0  0  0  0  0  0  0  0  0  0
   10.4422  -18.1190   27.0603 C   0  0  0  0  0  0  0  0  0  0  0  0
   10.8716  -18.7608   28.2073 O   0  0  0  0  0  0  0  0  0  0  0  0
   11.3624  -17.8468   26.2157 O   0  0  0  0  0  0  0  0  0  0  0  0
  2  1  1  0
  3  2  2  0
  4  2  1  0
  5  4  1  0
  5  6  1  6
  7  9  1  0
  7  5  1  0
  8  7  2  0
 10  9  1  0
 10 11  1  6
 11 12  1  0
 12 17  2  0
 12 13  1  0
 13 14  2  0
 14 15  1  0
 16 15  2  0
 17 16  1  0
 18 20  1  0
 18 10  1  0
 19 18  2  0
 21 20  1  0
 21 24  1  0
 21 22  1  6
 22 23  1  0
 24 25  1  0
 26 24  2  0
M  END
$$$$
