SHF.pdb
     RDKit          3D

 28 29  0  0  1  0  0  0  0  0999 V2000
   15.0408  -11.4532  -15.5427 O   0  0  0  0  0  0  0  0  0  0  0  0
   15.8767  -11.1742  -16.6206 C   0  0  0  0  0  0  0  0  0  0  0  0
   17.2993  -11.5475  -16.2903 C   0  0  2  0  0  0  0  0  0  0  0  0
   17.4158  -12.9808  -16.2587 N   0  0  0  0  0  0  0  0  0  0  0  0
   17.7480  -10.9019  -15.0500 C   0  0  0  0  0  0  0  0  0  0  0  0
   17.8419  -11.5826  -14.0023 O   0  0  0  0  0  0  0  0  0  0  0  0
   18.0799   -9.5380  -14.9897 N   0  0  0  0  0  0  0  0  0  0  0  0
   18.5835   -8.8937  -13.7807 C   0  0  1  0  0  0  0  0  0  0  0  0
   19.4301   -7.7018  -14.1847 C   0  0  0  0  0  0  0  0  0  0  0  0
   20.7663   -8.1483  -14.6214 C   0  0  0  0  0  0  0  0  0  0  0  0
   21.2555   -9.4111  -14.5187 C   0  0  0  0  0  0  0  0  0  0  0  0
   22.5114   -9.4033  -15.0318 N   0  0  0  0  0  0  0  0  0  0  0  0
   22.8094   -8.1661  -15.4489 C   0  0  0  0  0  0  0  0  0  0  0  0
   21.7433   -7.3953  -15.1992 N   0  0  0  0  0  0  0  0  0  0  0  0
   17.4329   -8.3571  -13.0044 C   0  0  0  0  0  0  0  0  0  0  0  0
   16.3842   -8.0056  -13.6105 O   0  0  0  0  0  0  0  0  0  0  0  0
   17.4436   -8.2134  -11.5916 N   0  0  0  0  0  0  0  0  0  0  0  0
   16.3103   -7.7106  -10.8249 C   0  0  1  0  0  0  0  0  0  0  0  0
   16.0868   -8.4886   -9.5794 C   0  0  0  0  0  0  0  0  0  0  0  0
   14.9413   -8.0034   -8.7879 C   0  0  0  0  0  0  0  0  0  0  0  0
   15.1650   -7.0419   -7.7966 C   0  0  0  0  0  0  0  0  0  0  0  0
   14.0723   -6.6008   -7.0947 C   0  0  0  0  0  0  0  0  0  0  0  0
   12.7805   -7.0305   -7.2912 C   0  0  0  0  0  0  0  0  0  0  0  0
   12.5821   -7.9790   -8.2738 C   0  0  0  0  0  0  0  0  0  0  0  0
   13.6382   -8.4635   -9.0149 C   0  0  0  0  0  0  0  0  0  0  0  0
   16.4236   -6.2599  -10.5807 C   0  0  0  0  0  0  0  0  0  0  0  0
   17.5987   -5.7998  -10.3766 O   0  0  0  0  0  0  0  0  0  0  0  0
   15.3504   -5.4224  -10.5678 O   0  0  0  0  0  0  0  0  0  0  0  0
  1  2  1  0
  2  3  1  0
  3  4  1  1
  3  5  1  0
  5  6  2  0
  7  5  1  0
  7  8  1  0
  8  9  1  6
  9 10  1  0
 10 14  1  0
 11 12  1  0
 11 10  2  0
 12 13  1  0
 13 14  2  0
 15  8  1  0
 15 16  2  0
 17 15  1  0
 18 17  1  0
 18 19  1  1
 20 19  1  0
 21 20  2  0
 22 21  1  0
 23 24  1  0
 23 22  2  0
 24 25  2  0
 25 20  1  0
 26 18  1  0
 27 26  2  0
 28 26  1  0
M  END
$$$$
