SHF.pdb
     RDKit          3D

 28 29  0  0  1  0  0  0  0  0999 V2000
   31.9007  -24.2877  -16.1681 O   0  0  0  0  0  0  0  0  0  0  0  0
   30.6094  -24.0387  -15.7108 C   0  0  0  0  0  0  0  0  0  0  0  0
   29.6799  -23.7976  -16.8727 C   0  0  2  0  0  0  0  0  0  0  0  0
   30.4586  -23.5678  -18.0601 N   0  0  0  0  0  0  0  0  0  0  0  0
   28.7308  -22.7150  -16.5834 C   0  0  0  0  0  0  0  0  0  0  0  0
   29.0305  -21.5374  -16.8884 O   0  0  0  0  0  0  0  0  0  0  0  0
   27.4874  -22.9485  -15.9722 N   0  0  0  0  0  0  0  0  0  0  0  0
   26.4606  -21.9200  -15.8375 C   0  0  1  0  0  0  0  0  0  0  0  0
   25.2703  -22.3098  -16.6928 C   0  0  0  0  0  0  0  0  0  0  0  0
   24.2226  -21.2746  -16.6132 C   0  0  0  0  0  0  0  0  0  0  0  0
   24.2973  -20.1209  -15.9004 C   0  0  0  0  0  0  0  0  0  0  0  0
   23.1345  -19.4490  -16.0918 N   0  0  0  0  0  0  0  0  0  0  0  0
   22.3434  -20.1600  -16.9056 C   0  0  0  0  0  0  0  0  0  0  0  0
   23.0065  -21.2782  -17.2267 N   0  0  0  0  0  0  0  0  0  0  0  0
   25.9841  -21.8950  -14.4280 C   0  0  0  0  0  0  0  0  0  0  0  0
   25.6702  -22.9760  -13.8589 O   0  0  0  0  0  0  0  0  0  0  0  0
   25.8584  -20.7023  -13.6674 N   0  0  0  0  0  0  0  0  0  0  0  0
   25.4442  -20.6785  -12.2700 C   0  0  1  0  0  0  0  0  0  0  0  0
   26.3005  -19.7867  -11.4467 C   0  0  0  0  0  0  0  0  0  0  0  0
   27.6301  -20.3567  -11.1622 C   0  0  0  0  0  0  0  0  0  0  0  0
   27.8078  -21.1043   -9.9931 C   0  0  0  0  0  0  0  0  0  0  0  0
   29.0533  -21.6347   -9.7727 C   0  0  0  0  0  0  0  0  0  0  0  0
   30.1345  -21.4876  -10.6101 C   0  0  0  0  0  0  0  0  0  0  0  0
   29.9376  -20.7468  -11.7576 C   0  0  0  0  0  0  0  0  0  0  0  0
   28.7099  -20.1867  -12.0378 C   0  0  0  0  0  0  0  0  0  0  0  0
   24.0066  -20.3735  -12.1373 C   0  0  0  0  0  0  0  0  0  0  0  0
   23.4308  -19.8565  -13.1548 O   0  0  0  0  0  0  0  0  0  0  0  0
   23.2965  -20.6189  -11.0021 O   0  0  0  0  0  0  0  0  0  0  0  0
  1  2  1  0
  2  3  1  0
  3  4  1  6
  3  5  1  0
  5  6  2  0
  7  5  1  0
  7  8  1  0
  8  9  1  6
  9 10  1  0
 10 14  1  0
 11 12  1  0
 11 10  2  0
 12 13  1  0
 13 14  2  0
 15  8  1  0
 15 16  2  0
 17 15  1  0
 18 17  1  0
 18 19  1  1
 20 19  1  0
 21 20  2  0
 22 21  1  0
 23 24  1  0
 23 22  2  0
 24 25  2  0
 25 20  1  0
 26 18  1  0
 27 26  2  0
 28 26  1  0
M  END
$$$$
