SHF.pdb
     RDKit          3D

 28 29  0  0  1  0  0  0  0  0999 V2000
   18.1792  -13.5594  -14.0370 O   0  0  0  0  0  0  0  0  0  0  0  0
   17.4043  -13.4010  -15.1828 C   0  0  0  0  0  0  0  0  0  0  0  0
   18.1853  -13.8138  -16.4042 C   0  0  2  0  0  0  0  0  0  0  0  0
   18.6062  -15.1812  -16.2552 N   0  0  0  0  0  0  0  0  0  0  0  0
   19.2966  -12.8904  -16.6665 C   0  0  0  0  0  0  0  0  0  0  0  0
   20.4517  -13.1969  -16.2904 O   0  0  0  0  0  0  0  0  0  0  0  0
   19.1154  -11.6647  -17.3288 N   0  0  0  0  0  0  0  0  0  0  0  0
   20.2058  -10.7284  -17.5837 C   0  0  1  0  0  0  0  0  0  0  0  0
   19.8883   -9.9479  -18.8447 C   0  0  0  0  0  0  0  0  0  0  0  0
   20.9872   -9.0158  -19.1594 C   0  0  0  0  0  0  0  0  0  0  0  0
   22.2379   -9.3663  -19.5564 C   0  0  0  0  0  0  0  0  0  0  0  0
   22.9409   -8.2211  -19.7431 N   0  0  0  0  0  0  0  0  0  0  0  0
   22.1544   -7.1719  -19.4709 C   0  0  0  0  0  0  0  0  0  0  0  0
   20.9578   -7.6548  -19.1133 N   0  0  0  0  0  0  0  0  0  0  0  0
   20.2634   -9.7403  -16.4725 C   0  0  0  0  0  0  0  0  0  0  0  0
   19.2002   -9.4075  -15.8811 O   0  0  0  0  0  0  0  0  0  0  0  0
   21.4687   -9.1356  -16.0273 N   0  0  0  0  0  0  0  0  0  0  0  0
   21.5277   -8.1560  -14.9494 C   0  0  1  0  0  0  0  0  0  0  0  0
   22.6873   -8.3823  -14.0491 C   0  0  0  0  0  0  0  0  0  0  0  0
   23.8487   -8.9781  -14.7347 C   0  0  0  0  0  0  0  0  0  0  0  0
   24.5065   -8.2331  -15.7193 C   0  0  0  0  0  0  0  0  0  0  0  0
   25.5942   -8.8130  -16.3207 C   0  0  0  0  0  0  0  0  0  0  0  0
   26.0840  -10.0650  -16.0301 C   0  0  0  0  0  0  0  0  0  0  0  0
   25.4206  -10.7829  -15.0560 C   0  0  0  0  0  0  0  0  0  0  0  0
   24.3205  -10.2570  -14.4134 C   0  0  0  0  0  0  0  0  0  0  0  0
   21.4675   -6.7762  -15.4688 C   0  0  0  0  0  0  0  0  0  0  0  0
   21.2786   -5.8459  -14.6126 O   0  0  0  0  0  0  0  0  0  0  0  0
   21.6042   -6.4723  -16.7887 O   0  0  0  0  0  0  0  0  0  0  0  0
  1  2  1  0
  2  3  1  0
  3  4  1  1
  3  5  1  0
  5  6  2  0
  7  5  1  0
  7  8  1  0
  8  9  1  6
  9 10  1  0
 10 14  1  0
 11 12  1  0
 11 10  2  0
 12 13  1  0
 13 14  2  0
 15  8  1  0
 15 16  2  0
 17 15  1  0
 18 17  1  0
 18 19  1  6
 20 19  1  0
 21 20  2  0
 22 21  1  0
 23 24  1  0
 23 22  2  0
 24 25  2  0
 25 20  1  0
 26 18  1  0
 27 26  2  0
 28 26  1  0
M  END
$$$$
