SHF.pdb
     RDKit          3D

 28 29  0  0  1  0  0  0  0  0999 V2000
   22.6352  -13.3912  -18.4670 O   0  0  0  0  0  0  0  0  0  0  0  0
   22.9232  -13.3669  -19.8290 C   0  0  0  0  0  0  0  0  0  0  0  0
   24.3417  -12.9101  -20.0560 C   0  0  2  0  0  0  0  0  0  0  0  0
   25.2385  -13.7891  -19.3546 N   0  0  0  0  0  0  0  0  0  0  0  0
   24.5136  -11.4973  -19.6942 C   0  0  0  0  0  0  0  0  0  0  0  0
   25.5213  -11.1501  -19.0356 O   0  0  0  0  0  0  0  0  0  0  0  0
   23.5846  -10.5089  -20.0603 N   0  0  0  0  0  0  0  0  0  0  0  0
   23.7867   -9.0882  -19.7937 C   0  0  1  0  0  0  0  0  0  0  0  0
   23.0643   -8.2883  -20.8608 C   0  0  0  0  0  0  0  0  0  0  0  0
   23.3816   -6.8541  -20.7272 C   0  0  0  0  0  0  0  0  0  0  0  0
   24.5780   -6.3366  -20.3456 C   0  0  0  0  0  0  0  0  0  0  0  0
   24.4562   -4.9855  -20.3498 N   0  0  0  0  0  0  0  0  0  0  0  0
   23.2135   -4.6561  -20.7249 C   0  0  0  0  0  0  0  0  0  0  0  0
   22.5530   -5.7976  -20.9566 N   0  0  0  0  0  0  0  0  0  0  0  0
   23.1462   -8.7446  -18.4952 C   0  0  0  0  0  0  0  0  0  0  0  0
   22.0861   -9.3343  -18.1499 O   0  0  0  0  0  0  0  0  0  0  0  0
   23.6670   -7.7720  -17.6011 N   0  0  0  0  0  0  0  0  0  0  0  0
   23.0914   -7.4923  -16.2914 C   0  0  1  0  0  0  0  0  0  0  0  0
   24.0923   -7.6169  -15.2009 C   0  0  0  0  0  0  0  0  0  0  0  0
   24.6566   -8.9738  -15.0812 C   0  0  0  0  0  0  0  0  0  0  0  0
   23.9033   -9.9640  -14.4415 C   0  0  0  0  0  0  0  0  0  0  0  0
   24.4531  -11.2183  -14.3669 C   0  0  0  0  0  0  0  0  0  0  0  0
   25.6826  -11.5736  -14.8709 C   0  0  0  0  0  0  0  0  0  0  0  0
   26.4091  -10.5820  -15.4980 C   0  0  0  0  0  0  0  0  0  0  0  0
   25.9131   -9.3007  -15.6063 C   0  0  0  0  0  0  0  0  0  0  0  0
   22.3871   -6.1958  -16.2759 C   0  0  0  0  0  0  0  0  0  0  0  0
   22.6346   -5.3939  -17.2402 O   0  0  0  0  0  0  0  0  0  0  0  0
   21.5087   -5.8387  -15.2991 O   0  0  0  0  0  0  0  0  0  0  0  0
  1  2  1  0
  2  3  1  0
  3  4  1  1
  3  5  1  0
  5  6  2  0
  7  5  1  0
  7  8  1  0
  8  9  1  6
  9 10  1  0
 10 14  1  0
 11 12  1  0
 11 10  2  0
 12 13  1  0
 13 14  2  0
 15  8  1  0
 15 16  2  0
 17 15  1  0
 18 17  1  0
 18 19  1  1
 20 19  1  0
 21 20  2  0
 22 21  1  0
 23 24  1  0
 23 22  2  0
 24 25  2  0
 25 20  1  0
 26 18  1  0
 27 26  2  0
 28 26  1  0
M  END
$$$$
