SHF.pdb
     RDKit          3D

 28 29  0  0  1  0  0  0  0  0999 V2000
   22.0554  -24.2427  -14.8464 O   0  0  0  0  0  0  0  0  0  0  0  0
   22.8160  -23.3312  -14.1190 C   0  0  0  0  0  0  0  0  0  0  0  0
   23.9376  -22.7897  -14.9683 C   0  0  2  0  0  0  0  0  0  0  0  0
   24.2639  -23.7508  -15.9875 N   0  0  0  0  0  0  0  0  0  0  0  0
   25.0913  -22.4010  -14.1472 C   0  0  0  0  0  0  0  0  0  0  0  0
   26.0560  -23.1918  -14.0297 O   0  0  0  0  0  0  0  0  0  0  0  0
   25.1582  -21.1658  -13.4812 N   0  0  0  0  0  0  0  0  0  0  0  0
   26.3278  -20.7318  -12.7234 C   0  0  1  0  0  0  0  0  0  0  0  0
   26.5681  -19.2610  -13.0050 C   0  0  0  0  0  0  0  0  0  0  0  0
   27.0439  -19.0764  -14.3888 C   0  0  0  0  0  0  0  0  0  0  0  0
   26.3469  -18.4930  -15.3980 C   0  0  0  0  0  0  0  0  0  0  0  0
   27.1331  -18.5197  -16.5033 N   0  0  0  0  0  0  0  0  0  0  0  0
   28.2988  -19.1055  -16.2008 C   0  0  0  0  0  0  0  0  0  0  0  0
   28.2476  -19.4476  -14.9073 N   0  0  0  0  0  0  0  0  0  0  0  0
   26.0309  -20.8457  -11.2697 C   0  0  0  0  0  0  0  0  0  0  0  0
   24.8662  -20.6007  -10.8523 O   0  0  0  0  0  0  0  0  0  0  0  0
   27.0001  -21.2218  -10.3022 N   0  0  0  0  0  0  0  0  0  0  0  0
   26.8546  -20.9647   -8.8748 C   0  0  1  0  0  0  0  0  0  0  0  0
   28.1498  -20.6256   -8.2314 C   0  0  0  0  0  0  0  0  0  0  0  0
   28.0208  -20.3018   -6.7987 C   0  0  0  0  0  0  0  0  0  0  0  0
   28.4172  -19.0358   -6.3546 C   0  0  0  0  0  0  0  0  0  0  0  0
   28.2639  -18.7649   -5.0188 C   0  0  0  0  0  0  0  0  0  0  0  0
   27.7527  -19.6396   -4.0885 C   0  0  0  0  0  0  0  0  0  0  0  0
   27.3679  -20.8828   -4.5477 C   0  0  0  0  0  0  0  0  0  0  0  0
   27.4959  -21.2177   -5.8784 C   0  0  0  0  0  0  0  0  0  0  0  0
   25.8047  -19.9623   -8.6101 C   0  0  0  0  0  0  0  0  0  0  0  0
   25.9428  -18.8214   -9.1701 O   0  0  0  0  0  0  0  0  0  0  0  0
   24.7270  -20.2069   -7.8151 O   0  0  0  0  0  0  0  0  0  0  0  0
  1  2  1  0
  2  3  1  0
  3  4  1  6
  3  5  1  0
  5  6  2  0
  7  5  1  0
  7  8  1  0
  8  9  1  1
  9 10  1  0
 10 14  1  0
 11 12  1  0
 11 10  2  0
 12 13  1  0
 13 14  2  0
 15  8  1  0
 15 16  2  0
 17 15  1  0
 18 17  1  0
 18 19  1  6
 20 19  1  0
 21 20  2  0
 22 21  1  0
 23 24  1  0
 23 22  2  0
 24 25  2  0
 25 20  1  0
 26 18  1  0
 27 26  2  0
 28 26  1  0
M  END
$$$$
