SHF.pdb
     RDKit          3D

 28 29  0  0  1  0  0  0  0  0999 V2000
   43.5429   -9.7500  -12.6864 O   0  0  0  0  0  0  0  0  0  0  0  0
   42.2808   -9.1852  -12.5235 C   0  0  0  0  0  0  0  0  0  0  0  0
   41.3793  -10.1273  -11.7671 C   0  0  2  0  0  0  0  0  0  0  0  0
   41.0660  -11.2544  -12.6041 N   0  0  0  0  0  0  0  0  0  0  0  0
   40.1888   -9.4353  -11.2570 C   0  0  0  0  0  0  0  0  0  0  0  0
   39.1146   -9.5074  -11.8978 O   0  0  0  0  0  0  0  0  0  0  0  0
   40.2054   -8.6880  -10.0674 N   0  0  0  0  0  0  0  0  0  0  0  0
   39.0554   -7.9273   -9.5887 C   0  0  1  0  0  0  0  0  0  0  0  0
   39.1240   -7.8475   -8.0756 C   0  0  0  0  0  0  0  0  0  0  0  0
   38.6135   -9.0937   -7.4743 C   0  0  0  0  0  0  0  0  0  0  0  0
   38.0797  -10.1430   -8.1517 C   0  0  0  0  0  0  0  0  0  0  0  0
   37.7352  -11.0840   -7.2373 N   0  0  0  0  0  0  0  0  0  0  0  0
   38.0433  -10.6412   -6.0115 C   0  0  0  0  0  0  0  0  0  0  0  0
   38.5811   -9.4231   -6.1530 N   0  0  0  0  0  0  0  0  0  0  0  0
   39.1548   -6.5315  -10.0952 C   0  0  0  0  0  0  0  0  0  0  0  0
   40.2915   -6.0195  -10.2866 O   0  0  0  0  0  0  0  0  0  0  0  0
   38.0233   -5.7229  -10.3825 N   0  0  0  0  0  0  0  0  0  0  0  0
   38.1156   -4.3361  -10.8221 C   0  0  1  0  0  0  0  0  0  0  0  0
   36.8584   -3.8647  -11.4575 C   0  0  0  0  0  0  0  0  0  0  0  0
   36.9393   -2.4767  -11.9482 C   0  0  0  0  0  0  0  0  0  0  0  0
   37.4691   -2.2408  -13.2214 C   0  0  0  0  0  0  0  0  0  0  0  0
   37.5100   -0.9388  -13.6508 C   0  0  0  0  0  0  0  0  0  0  0  0
   37.0716    0.1461  -12.9278 C   0  0  0  0  0  0  0  0  0  0  0  0
   36.5527   -0.1088  -11.6747 C   0  0  0  0  0  0  0  0  0  0  0  0
   36.4835   -1.3949  -11.1844 C   0  0  0  0  0  0  0  0  0  0  0  0
   38.5719   -3.4525   -9.7321 C   0  0  0  0  0  0  0  0  0  0  0  0
   38.0709   -3.6595   -8.5744 O   0  0  0  0  0  0  0  0  0  0  0  0
   39.4820   -2.4566   -9.9144 O   0  0  0  0  0  0  0  0  0  0  0  0
  1  2  1  0
  2  3  1  0
  3  4  1  6
  3  5  1  0
  5  6  2  0
  7  5  1  0
  7  8  1  0
  8  9  1  1
  9 10  1  0
 10 14  1  0
 11 12  1  0
 11 10  2  0
 12 13  1  0
 13 14  2  0
 15  8  1  0
 15 16  2  0
 17 15  1  0
 18 17  1  0
 18 19  1  1
 20 19  1  0
 21 20  2  0
 22 21  1  0
 23 24  1  0
 23 22  2  0
 24 25  2  0
 25 20  1  0
 26 18  1  0
 27 26  2  0
 28 26  1  0
M  END
$$$$
