SHF.pdb
     RDKit          3D

 28 29  0  0  1  0  0  0  0  0999 V2000
   24.8672  -39.0973  -10.2540 O   0  0  0  0  0  0  0  0  0  0  0  0
   24.5398  -38.3024  -11.3492 C   0  0  0  0  0  0  0  0  0  0  0  0
   25.7781  -37.6565  -11.9162 C   0  0  2  0  0  0  0  0  0  0  0  0
   26.7527  -38.6749  -12.2023 N   0  0  0  0  0  0  0  0  0  0  0  0
   26.2853  -36.6013  -11.0297 C   0  0  0  0  0  0  0  0  0  0  0  0
   27.3913  -36.7553  -10.4616 O   0  0  0  0  0  0  0  0  0  0  0  0
   25.5735  -35.4139  -10.7903 N   0  0  0  0  0  0  0  0  0  0  0  0
   26.0826  -34.3365   -9.9473 C   0  0  1  0  0  0  0  0  0  0  0  0
   25.4131  -33.0403  -10.3622 C   0  0  0  0  0  0  0  0  0  0  0  0
   25.7827  -32.6946  -11.7476 C   0  0  0  0  0  0  0  0  0  0  0  0
   26.6122  -33.4094  -12.5512 C   0  0  0  0  0  0  0  0  0  0  0  0
   26.6893  -32.7574  -13.7384 N   0  0  0  0  0  0  0  0  0  0  0  0
   25.9274  -31.6572  -13.6872 C   0  0  0  0  0  0  0  0  0  0  0  0
   25.3711  -31.6156  -12.4700 N   0  0  0  0  0  0  0  0  0  0  0  0
   25.6791  -34.5939   -8.5383 C   0  0  0  0  0  0  0  0  0  0  0  0
   24.6143  -35.2277   -8.3028 O   0  0  0  0  0  0  0  0  0  0  0  0
   26.4361  -34.1602   -7.4179 N   0  0  0  0  0  0  0  0  0  0  0  0
   26.1584  -34.5765   -6.0487 C   0  0  1  0  0  0  0  0  0  0  0  0
   26.1253  -36.0548   -5.9081 C   0  0  0  0  0  0  0  0  0  0  0  0
   25.8034  -36.5023   -4.5406 C   0  0  0  0  0  0  0  0  0  0  0  0
   26.8280  -37.0209   -3.7415 C   0  0  0  0  0  0  0  0  0  0  0  0
   26.4939  -37.4084   -2.4689 C   0  0  0  0  0  0  0  0  0  0  0  0
   25.2343  -37.3257   -1.9226 C   0  0  0  0  0  0  0  0  0  0  0  0
   24.2385  -36.8113   -2.7276 C   0  0  0  0  0  0  0  0  0  0  0  0
   24.5085  -36.4038   -4.0162 C   0  0  0  0  0  0  0  0  0  0  0  0
   27.0763  -33.9311   -5.0906 C   0  0  0  0  0  0  0  0  0  0  0  0
   28.3107  -33.8812   -5.4193 O   0  0  0  0  0  0  0  0  0  0  0  0
   26.6630  -33.4026   -3.9060 O   0  0  0  0  0  0  0  0  0  0  0  0
  1  2  1  0
  2  3  1  0
  3  4  1  1
  3  5  1  0
  5  6  2  0
  7  5  1  0
  7  8  1  0
  8  9  1  6
  9 10  1  0
 10 14  1  0
 11 12  1  0
 11 10  2  0
 12 13  1  0
 13 14  2  0
 15  8  1  0
 15 16  2  0
 17 15  1  0
 18 17  1  0
 18 19  1  6
 20 19  1  0
 21 20  2  0
 22 21  1  0
 23 24  1  0
 23 22  2  0
 24 25  2  0
 25 20  1  0
 26 18  1  0
 27 26  2  0
 28 26  1  0
M  END
$$$$
