SHF.pdb
     RDKit          3D

 28 29  0  0  1  0  0  0  0  0999 V2000
   29.3373  -18.6178  -13.8873 O   0  0  0  0  0  0  0  0  0  0  0  0
   28.7384  -19.6538  -14.5990 C   0  0  0  0  0  0  0  0  0  0  0  0
   27.2741  -19.3654  -14.8108 C   0  0  2  0  0  0  0  0  0  0  0  0
   27.1368  -18.1385  -15.5490 N   0  0  0  0  0  0  0  0  0  0  0  0
   26.5396  -19.3622  -13.5392 C   0  0  0  0  0  0  0  0  0  0  0  0
   26.1943  -18.2699  -13.0320 O   0  0  0  0  0  0  0  0  0  0  0  0
   26.2049  -20.5464  -12.8612 N   0  0  0  0  0  0  0  0  0  0  0  0
   25.3839  -20.5683  -11.6547 C   0  0  1  0  0  0  0  0  0  0  0  0
   24.4549  -21.7653  -11.7235 C   0  0  0  0  0  0  0  0  0  0  0  0
   23.2281  -21.4183  -12.4652 C   0  0  0  0  0  0  0  0  0  0  0  0
   22.9500  -20.2109  -13.0216 C   0  0  0  0  0  0  0  0  0  0  0  0
   21.7305  -20.3052  -13.6084 N   0  0  0  0  0  0  0  0  0  0  0  0
   21.2487  -21.5416  -13.4276 C   0  0  0  0  0  0  0  0  0  0  0  0
   22.1630  -22.2256  -12.7282 N   0  0  0  0  0  0  0  0  0  0  0  0
   26.2654  -20.7789  -10.4744 C   0  0  0  0  0  0  0  0  0  0  0  0
   27.3036  -21.4853  -10.5924 O   0  0  0  0  0  0  0  0  0  0  0  0
   26.0036  -20.2207   -9.1951 N   0  0  0  0  0  0  0  0  0  0  0  0
   26.8391  -20.4620   -8.0252 C   0  0  1  0  0  0  0  0  0  0  0  0
   27.6092  -19.2555   -7.6279 C   0  0  0  0  0  0  0  0  0  0  0  0
   28.3376  -19.4225   -6.3569 C   0  0  0  0  0  0  0  0  0  0  0  0
   27.8348  -18.8079   -5.2051 C   0  0  0  0  0  0  0  0  0  0  0  0
   28.5290  -19.0021   -4.0383 C   0  0  0  0  0  0  0  0  0  0  0  0
   29.6758  -19.7516   -3.9163 C   0  0  0  0  0  0  0  0  0  0  0  0
   30.1547  -20.3491   -5.0643 C   0  0  0  0  0  0  0  0  0  0  0  0
   29.5037  -20.1931   -6.2691 C   0  0  0  0  0  0  0  0  0  0  0  0
   26.0582  -21.0343   -6.9118 C   0  0  0  0  0  0  0  0  0  0  0  0
   24.7946  -20.8417   -6.9352 O   0  0  0  0  0  0  0  0  0  0  0  0
   26.6227  -21.7400   -5.8937 O   0  0  0  0  0  0  0  0  0  0  0  0
  1  2  1  0
  2  3  1  0
  3  4  1  1
  3  5  1  0
  5  6  2  0
  7  5  1  0
  7  8  1  0
  8  9  1  6
  9 10  1  0
 10 14  1  0
 11 12  1  0
 11 10  2  0
 12 13  1  0
 13 14  2  0
 15  8  1  0
 15 16  2  0
 17 15  1  0
 18 17  1  0
 18 19  1  1
 20 19  1  0
 21 20  2  0
 22 21  1  0
 23 24  1  0
 23 22  2  0
 24 25  2  0
 25 20  1  0
 26 18  1  0
 27 26  2  0
 28 26  1  0
M  END
$$$$
