SHF.pdb
     RDKit          3D

 28 29  0  0  1  0  0  0  0  0999 V2000
   28.1897  -23.3955  -17.1737 O   0  0  0  0  0  0  0  0  0  0  0  0
   28.0777  -22.6800  -18.3628 C   0  0  0  0  0  0  0  0  0  0  0  0
   28.3498  -21.2171  -18.1211 C   0  0  2  0  0  0  0  0  0  0  0  0
   29.7309  -21.0481  -17.7565 N   0  0  0  0  0  0  0  0  0  0  0  0
   27.4171  -20.6547  -17.1361 C   0  0  0  0  0  0  0  0  0  0  0  0
   27.8236  -20.4056  -15.9775 O   0  0  0  0  0  0  0  0  0  0  0  0
   26.0736  -20.3817  -17.4433 N   0  0  0  0  0  0  0  0  0  0  0  0
   25.1371  -19.8094  -16.4810 C   0  0  1  0  0  0  0  0  0  0  0  0
   23.9398  -19.2649  -17.2363 C   0  0  0  0  0  0  0  0  0  0  0  0
   22.9246  -18.7627  -16.2916 C   0  0  0  0  0  0  0  0  0  0  0  0
   21.6851  -19.2854  -16.1044 C   0  0  0  0  0  0  0  0  0  0  0  0
   21.0684  -18.5388  -15.1543 N   0  0  0  0  0  0  0  0  0  0  0  0
   21.8973  -17.5676  -14.7502 C   0  0  0  0  0  0  0  0  0  0  0  0
   23.0344  -17.7017  -15.4444 N   0  0  0  0  0  0  0  0  0  0  0  0
   24.6284  -20.8941  -15.5984 C   0  0  0  0  0  0  0  0  0  0  0  0
   24.3558  -22.0216  -16.0936 O   0  0  0  0  0  0  0  0  0  0  0  0
   24.4267  -20.7340  -14.2019 N   0  0  0  0  0  0  0  0  0  0  0  0
   23.9589  -21.8031  -13.3282 C   0  0  1  0  0  0  0  0  0  0  0  0
   25.0143  -22.2615  -12.3889 C   0  0  0  0  0  0  0  0  0  0  0  0
   25.4197  -21.2273  -11.4194 C   0  0  0  0  0  0  0  0  0  0  0  0
   24.8514  -21.2406  -10.1411 C   0  0  0  0  0  0  0  0  0  0  0  0
   25.2679  -20.2747   -9.2609 C   0  0  0  0  0  0  0  0  0  0  0  0
   26.1972  -19.2995   -9.5392 C   0  0  0  0  0  0  0  0  0  0  0  0
   26.7453  -19.3044  -10.8056 C   0  0  0  0  0  0  0  0  0  0  0  0
   26.3694  -20.2482  -11.7370 C   0  0  0  0  0  0  0  0  0  0  0  0
   22.7054  -21.4326  -12.6436 C   0  0  0  0  0  0  0  0  0  0  0  0
   22.5038  -20.1859  -12.4454 O   0  0  0  0  0  0  0  0  0  0  0  0
   21.7855  -22.3473  -12.2311 O   0  0  0  0  0  0  0  0  0  0  0  0
  1  2  1  0
  2  3  1  0
  3  4  1  1
  3  5  1  0
  5  6  2  0
  7  5  1  0
  7  8  1  0
  8  9  1  6
  9 10  1  0
 10 14  1  0
 11 12  1  0
 11 10  2  0
 12 13  1  0
 13 14  2  0
 15  8  1  0
 15 16  2  0
 17 15  1  0
 18 17  1  0
 18 19  1  1
 20 19  1  0
 21 20  2  0
 22 21  1  0
 23 24  1  0
 23 22  2  0
 24 25  2  0
 25 20  1  0
 26 18  1  0
 27 26  2  0
 28 26  1  0
M  END
$$$$
