SHF.pdb
     RDKit          3D

 28 29  0  0  1  0  0  0  0  0999 V2000
   25.8460  -14.7122  -17.4090 O   0  0  0  0  0  0  0  0  0  0  0  0
   25.2765  -13.4479  -17.5345 C   0  0  0  0  0  0  0  0  0  0  0  0
   24.2533  -13.4421  -18.6415 C   0  0  2  0  0  0  0  0  0  0  0  0
   24.9147  -13.6804  -19.8964 N   0  0  0  0  0  0  0  0  0  0  0  0
   23.4591  -12.2070  -18.6300 C   0  0  0  0  0  0  0  0  0  0  0  0
   23.7931  -11.2549  -19.3728 O   0  0  0  0  0  0  0  0  0  0  0  0
   22.3281  -12.0479  -17.8118 N   0  0  0  0  0  0  0  0  0  0  0  0
   21.4888  -10.8540  -17.8367 C   0  0  1  0  0  0  0  0  0  0  0  0
   20.0375  -11.2807  -17.7265 C   0  0  0  0  0  0  0  0  0  0  0  0
   19.5721  -11.8460  -19.0068 C   0  0  0  0  0  0  0  0  0  0  0  0
   19.3574  -11.1489  -20.1526 C   0  0  0  0  0  0  0  0  0  0  0  0
   18.9377  -12.0320  -21.0929 N   0  0  0  0  0  0  0  0  0  0  0  0
   18.8880  -13.2577  -20.5555 C   0  0  0  0  0  0  0  0  0  0  0  0
   19.2757  -13.1474  -19.2786 N   0  0  0  0  0  0  0  0  0  0  0  0
   21.7847  -10.0305  -16.6331 C   0  0  0  0  0  0  0  0  0  0  0  0
   21.5702  -10.5078  -15.4855 O   0  0  0  0  0  0  0  0  0  0  0  0
   22.3053   -8.7109  -16.6989 N   0  0  0  0  0  0  0  0  0  0  0  0
   22.7338   -7.9552  -15.5283 C   0  0  1  0  0  0  0  0  0  0  0  0
   24.1524   -7.5260  -15.6266 C   0  0  0  0  0  0  0  0  0  0  0  0
   25.0748   -8.6327  -15.9403 C   0  0  0  0  0  0  0  0  0  0  0  0
   25.7005   -8.6556  -17.1914 C   0  0  0  0  0  0  0  0  0  0  0  0
   26.5664   -9.6900  -17.4392 C   0  0  0  0  0  0  0  0  0  0  0  0
   26.8642  -10.7006  -16.5549 C   0  0  0  0  0  0  0  0  0  0  0  0
   26.2362  -10.6590  -15.3268 C   0  0  0  0  0  0  0  0  0  0  0  0
   25.3548   -9.6462  -15.0153 C   0  0  0  0  0  0  0  0  0  0  0  0
   21.8161   -6.8359  -15.2416 C   0  0  0  0  0  0  0  0  0  0  0  0
   20.9861   -6.5210  -16.1615 O   0  0  0  0  0  0  0  0  0  0  0  0
   21.8241   -6.1509  -14.0652 O   0  0  0  0  0  0  0  0  0  0  0  0
  1  2  1  0
  2  3  1  0
  3  4  1  6
  3  5  1  0
  5  6  2  0
  7  5  1  0
  7  8  1  0
  8  9  1  1
  9 10  1  0
 10 14  1  0
 11 12  1  0
 11 10  2  0
 12 13  1  0
 13 14  2  0
 15  8  1  0
 15 16  2  0
 17 15  1  0
 18 17  1  0
 18 19  1  6
 20 19  1  0
 21 20  2  0
 22 21  1  0
 23 24  1  0
 23 22  2  0
 24 25  2  0
 25 20  1  0
 26 18  1  0
 27 26  2  0
 28 26  1  0
M  END
$$$$
