SHF.pdb
     RDKit          3D

 28 29  0  0  1  0  0  0  0  0999 V2000
   24.3064  -25.4020  -16.9799 O   0  0  0  0  0  0  0  0  0  0  0  0
   25.2189  -25.1572  -18.0027 C   0  0  0  0  0  0  0  0  0  0  0  0
   26.6288  -25.2235  -17.4734 C   0  0  2  0  0  0  0  0  0  0  0  0
   26.9235  -26.5766  -17.0844 N   0  0  0  0  0  0  0  0  0  0  0  0
   26.8419  -24.2506  -16.3943 C   0  0  0  0  0  0  0  0  0  0  0  0
   27.1840  -24.6568  -15.2596 O   0  0  0  0  0  0  0  0  0  0  0  0
   26.6762  -22.8684  -16.5846 N   0  0  0  0  0  0  0  0  0  0  0  0
   27.0027  -21.8790  -15.5624 C   0  0  1  0  0  0  0  0  0  0  0  0
   27.1979  -20.5341  -16.2358 C   0  0  0  0  0  0  0  0  0  0  0  0
   27.4533  -19.4893  -15.2266 C   0  0  0  0  0  0  0  0  0  0  0  0
   28.6653  -19.1665  -14.7055 C   0  0  0  0  0  0  0  0  0  0  0  0
   28.4704  -18.1608  -13.8161 N   0  0  0  0  0  0  0  0  0  0  0  0
   27.1673  -17.8548  -13.7754 C   0  0  0  0  0  0  0  0  0  0  0  0
   26.5418  -18.6661  -14.6376 N   0  0  0  0  0  0  0  0  0  0  0  0
   25.8412  -21.7324  -14.6438 C   0  0  0  0  0  0  0  0  0  0  0  0
   24.6719  -21.7254  -15.1167 O   0  0  0  0  0  0  0  0  0  0  0  0
   25.9714  -21.5969  -13.2362 N   0  0  0  0  0  0  0  0  0  0  0  0
   24.8353  -21.4886  -12.3292 C   0  0  1  0  0  0  0  0  0  0  0  0
   25.1444  -22.0211  -10.9775 C   0  0  0  0  0  0  0  0  0  0  0  0
   26.1090  -21.1918  -10.2319 C   0  0  0  0  0  0  0  0  0  0  0  0
   27.4688  -21.5137  -10.2985 C   0  0  0  0  0  0  0  0  0  0  0  0
   28.3373  -20.7077   -9.6076 C   0  0  0  0  0  0  0  0  0  0  0  0
   27.9736  -19.6130   -8.8584 C   0  0  0  0  0  0  0  0  0  0  0  0
   26.6276  -19.3131   -8.8061 C   0  0  0  0  0  0  0  0  0  0  0  0
   25.7032  -20.0835   -9.4780 C   0  0  0  0  0  0  0  0  0  0  0  0
   24.3007  -20.1138  -12.2940 C   0  0  0  0  0  0  0  0  0  0  0  0
   23.1294  -19.9633  -11.8044 O   0  0  0  0  0  0  0  0  0  0  0  0
   24.9940  -19.0348  -12.7503 O   0  0  0  0  0  0  0  0  0  0  0  0
  1  2  1  0
  2  3  1  0
  3  4  1  1
  3  5  1  0
  5  6  2  0
  7  5  1  0
  7  8  1  0
  8  9  1  6
  9 10  1  0
 10 14  1  0
 11 12  1  0
 11 10  2  0
 12 13  1  0
 13 14  2  0
 15  8  1  0
 15 16  2  0
 17 15  1  0
 18 17  1  0
 18 19  1  1
 20 19  1  0
 21 20  2  0
 22 21  1  0
 23 24  1  0
 23 22  2  0
 24 25  2  0
 25 20  1  0
 26 18  1  0
 27 26  2  0
 28 26  1  0
M  END
$$$$
