KSV.pdb
     RDKit          3D

 23 22  0  0  1  0  0  0  0  0999 V2000
    6.5591  -16.6294   19.3399 N   0  0  0  0  0  0  0  0  0  0  0  0
    7.1024  -15.5181   20.0920 C   0  0  1  0  0  0  0  0  0  0  0  0
    6.4442  -14.2120   19.7054 C   0  0  0  0  0  0  0  0  0  0  0  0
    7.4366  -13.2023   19.1961 C   0  0  0  0  0  0  0  0  0  0  0  0
    8.3150  -13.7219   18.0976 C   0  0  0  0  0  0  0  0  0  0  0  0
    9.3359  -12.6799   17.6916 C   0  0  0  0  0  0  0  0  0  0  0  0
   10.3154  -13.2138   16.7700 N   0  0  0  0  0  0  0  0  0  0  0  0
    6.9359  -15.8174   21.5308 C   0  0  0  0  0  0  0  0  0  0  0  0
    5.7893  -16.0235   21.9853 O   0  0  0  0  0  0  0  0  0  0  0  0
    9.8248  -17.4017   23.9179 O   0  0  0  0  0  0  0  0  0  0  0  0
    8.4619  -17.4752   24.1691 C   0  0  0  0  0  0  0  0  0  0  0  0
    7.8747  -16.0945   23.8589 C   0  0  2  0  0  0  0  0  0  0  0  0
    8.0302  -15.8838   22.4383 N   0  0  0  0  0  0  0  0  0  0  0  0
    8.5447  -15.0445   24.6608 C   0  0  0  0  0  0  0  0  0  0  0  0
    9.6944  -14.6668   24.3405 O   0  0  0  0  0  0  0  0  0  0  0  0
    7.0071  -11.6716   25.8547 C   0  0  0  0  0  0  0  0  0  0  0  0
    7.4418  -12.5038   27.0363 C   0  0  1  0  0  0  0  0  0  0  0  0
    6.2177  -13.1294   27.6508 C   0  0  0  0  0  0  0  0  0  0  0  0
    8.4883  -13.5205   26.6674 C   0  0  2  0  0  0  0  0  0  0  0  0
    7.8761  -14.4865   25.7735 N   0  0  0  0  0  0  0  0  0  0  0  0
    9.0112  -14.1448   27.8912 C   0  0  0  0  0  0  0  0  0  0  0  0
    9.7575  -13.3625   28.7577 O   0  0  0  0  0  0  0  0  0  0  0  0
    8.8248  -15.3475   28.2045 O   0  0  0  0  0  0  0  0  0  0  0  0
  2  1  1  6
  2  8  1  0
  3  2  1  0
  4  5  1  0
  4  3  1  0
  5  6  1  0
  6  7  1  0
  8 13  1  0
  8  9  2  0
 10 11  1  0
 12 11  1  1
 12 14  1  0
 13 12  1  0
 14 20  1  0
 14 15  2  0
 17 16  1  6
 17 19  1  0
 17 18  1  0
 19 21  1  0
 19 20  1  6
 21 22  1  0
 23 21  2  0
M  END
$$$$
