KSV.pdb
     RDKit          3D

 23 22  0  0  1  0  0  0  0  0999 V2000
    7.5853  -16.1318   19.6745 N   0  0  0  0  0  0  0  0  0  0  0  0
    7.7546  -14.7988   20.2134 C   0  0  1  0  0  0  0  0  0  0  0  0
    6.8534  -13.8014   19.5195 C   0  0  0  0  0  0  0  0  0  0  0  0
    7.1097  -13.7355   18.0384 C   0  0  0  0  0  0  0  0  0  0  0  0
    8.5322  -14.0213   17.6597 C   0  0  0  0  0  0  0  0  0  0  0  0
    8.7053  -13.9712   16.1563 C   0  0  0  0  0  0  0  0  0  0  0  0
   10.0656  -14.2644   15.7592 N   0  0  0  0  0  0  0  0  0  0  0  0
    7.4961  -14.8598   21.6683 C   0  0  0  0  0  0  0  0  0  0  0  0
    7.4287  -13.7972   22.3241 O   0  0  0  0  0  0  0  0  0  0  0  0
    8.1940  -18.1396   24.1240 O   0  0  0  0  0  0  0  0  0  0  0  0
    6.8984  -17.6421   24.1355 C   0  0  0  0  0  0  0  0  0  0  0  0
    6.9869  -16.1555   23.7756 C   0  0  2  0  0  0  0  0  0  0  0  0
    7.3174  -16.0844   22.3711 N   0  0  0  0  0  0  0  0  0  0  0  0
    7.9857  -15.4660   24.6249 C   0  0  0  0  0  0  0  0  0  0  0  0
    9.1879  -15.4584   24.2763 O   0  0  0  0  0  0  0  0  0  0  0  0
    7.4966  -11.9155   25.9767 C   0  0  0  0  0  0  0  0  0  0  0  0
    7.7805  -12.8452   27.1311 C   0  0  1  0  0  0  0  0  0  0  0  0
    6.4865  -13.1117   27.8537 C   0  0  0  0  0  0  0  0  0  0  0  0
    8.4698  -14.1092   26.6930 C   0  0  2  0  0  0  0  0  0  0  0  0
    7.5659  -14.8285   25.8140 N   0  0  0  0  0  0  0  0  0  0  0  0
    8.8404  -14.8959   27.8783 C   0  0  0  0  0  0  0  0  0  0  0  0
    9.8077  -14.3837   28.7277 O   0  0  0  0  0  0  0  0  0  0  0  0
    8.3347  -16.0081   28.1730 O   0  0  0  0  0  0  0  0  0  0  0  0
  2  1  1  6
  2  8  1  0
  3  2  1  0
  4  5  1  0
  4  3  1  0
  5  6  1  0
  6  7  1  0
  8 13  1  0
  8  9  2  0
 10 11  1  0
 12 11  1  1
 12 14  1  0
 13 12  1  0
 14 20  1  0
 14 15  2  0
 17 16  1  6
 17 19  1  0
 17 18  1  0
 19 21  1  0
 19 20  1  6
 21 22  1  0
 23 21  2  0
M  END
$$$$
