KSV.pdb
     RDKit          3D

 23 22  0  0  1  0  0  0  0  0999 V2000
    7.6659  -16.2740   18.9452 N   0  0  0  0  0  0  0  0  0  0  0  0
    8.1057  -15.1618   19.7611 C   0  0  1  0  0  0  0  0  0  0  0  0
    7.4910  -13.8586   19.3002 C   0  0  0  0  0  0  0  0  0  0  0  0
    8.1258  -13.3441   18.0369 C   0  0  0  0  0  0  0  0  0  0  0  0
    7.8480  -14.1945   16.8335 C   0  0  0  0  0  0  0  0  0  0  0  0
    8.5285  -13.6234   15.6071 C   0  0  0  0  0  0  0  0  0  0  0  0
    8.1997  -14.3684   14.4110 N   0  0  0  0  0  0  0  0  0  0  0  0
    7.7663  -15.4671   21.1679 C   0  0  0  0  0  0  0  0  0  0  0  0
    6.5674  -15.6162   21.4907 O   0  0  0  0  0  0  0  0  0  0  0  0
   10.5322  -16.9577   23.7363 O   0  0  0  0  0  0  0  0  0  0  0  0
    9.1783  -17.2157   23.8990 C   0  0  0  0  0  0  0  0  0  0  0  0
    8.4324  -15.9207   23.5614 C   0  0  2  0  0  0  0  0  0  0  0  0
    8.7490  -15.6018   22.1884 N   0  0  0  0  0  0  0  0  0  0  0  0
    8.8130  -14.8346   24.4942 C   0  0  0  0  0  0  0  0  0  0  0  0
    9.9112  -14.2528   24.3442 O   0  0  0  0  0  0  0  0  0  0  0  0
    7.1685  -11.6108   25.5537 C   0  0  0  0  0  0  0  0  0  0  0  0
    7.2202  -12.5363   26.7446 C   0  0  1  0  0  0  0  0  0  0  0  0
    5.8543  -13.1415   26.9335 C   0  0  0  0  0  0  0  0  0  0  0  0
    8.3011  -13.5755   26.6166 C   0  0  2  0  0  0  0  0  0  0  0  0
    7.9313  -14.4731   25.5374 N   0  0  0  0  0  0  0  0  0  0  0  0
    8.4542  -14.2772   27.8992 C   0  0  0  0  0  0  0  0  0  0  0  0
    8.1383  -15.6254   27.9496 O   0  0  0  0  0  0  0  0  0  0  0  0
    8.8549  -13.7318   28.9581 O   0  0  0  0  0  0  0  0  0  0  0  0
  2  1  1  6
  2  8  1  0
  3  2  1  0
  4  5  1  0
  4  3  1  0
  5  6  1  0
  6  7  1  0
  8 13  1  0
  8  9  2  0
 10 11  1  0
 12 11  1  1
 12 14  1  0
 13 12  1  0
 14 20  1  0
 14 15  2  0
 17 16  1  6
 17 19  1  0
 17 18  1  0
 19 21  1  0
 19 20  1  6
 21 22  1  0
 23 21  2  0
M  END
$$$$
