KSV.pdb
     RDKit          3D

 23 22  0  0  1  0  0  0  0  0999 V2000
    6.5166  -15.9533   19.7780 N   0  0  0  0  0  0  0  0  0  0  0  0
    7.6860  -15.6066   20.5579 C   0  0  1  0  0  0  0  0  0  0  0  0
    8.1740  -14.2114   20.2358 C   0  0  0  0  0  0  0  0  0  0  0  0
    7.2421  -13.4817   19.3070 C   0  0  0  0  0  0  0  0  0  0  0  0
    7.3733  -13.8976   17.8724 C   0  0  0  0  0  0  0  0  0  0  0  0
    8.5015  -13.1449   17.1988 C   0  0  0  0  0  0  0  0  0  0  0  0
    8.5784  -13.4396   15.7843 N   0  0  0  0  0  0  0  0  0  0  0  0
    7.3399  -15.7556   21.9880 C   0  0  0  0  0  0  0  0  0  0  0  0
    6.4031  -15.0789   22.4658 O   0  0  0  0  0  0  0  0  0  0  0  0
    8.6422  -18.8788   24.3979 O   0  0  0  0  0  0  0  0  0  0  0  0
    7.4921  -18.1425   24.6447 C   0  0  0  0  0  0  0  0  0  0  0  0
    7.8082  -16.6862   24.2887 C   0  0  2  0  0  0  0  0  0  0  0  0
    8.0287  -16.6432   22.8617 N   0  0  0  0  0  0  0  0  0  0  0  0
    8.9788  -16.1986   25.0546 C   0  0  0  0  0  0  0  0  0  0  0  0
   10.1274  -16.3408   24.5778 O   0  0  0  0  0  0  0  0  0  0  0  0
    8.2116  -13.7338   28.3820 C   0  0  0  0  0  0  0  0  0  0  0  0
    9.5551  -13.7955   27.6974 C   0  0  1  0  0  0  0  0  0  0  0  0
   10.5987  -13.2859   28.6560 C   0  0  0  0  0  0  0  0  0  0  0  0
    9.8705  -15.1716   27.1765 C   0  0  2  0  0  0  0  0  0  0  0  0
    8.7803  -15.5812   26.3099 N   0  0  0  0  0  0  0  0  0  0  0  0
   10.0579  -16.0886   28.3100 C   0  0  0  0  0  0  0  0  0  0  0  0
   11.2564  -16.0362   29.0033 O   0  0  0  0  0  0  0  0  0  0  0  0
    9.1980  -16.9212   28.6934 O   0  0  0  0  0  0  0  0  0  0  0  0
  2  1  1  6
  2  8  1  0
  3  2  1  0
  4  5  1  0
  4  3  1  0
  5  6  1  0
  6  7  1  0
  8 13  1  0
  8  9  2  0
 10 11  1  0
 12 11  1  1
 12 14  1  0
 13 12  1  0
 14 20  1  0
 14 15  2  0
 17 16  1  1
 17 19  1  0
 17 18  1  0
 19 21  1  0
 19 20  1  6
 21 22  1  0
 23 21  2  0
M  END
$$$$
