KSV.pdb
     RDKit          3D

 23 22  0  0  1  0  0  0  0  0999 V2000
    4.8888  -20.5951   21.7286 N   0  0  0  0  0  0  0  0  0  0  0  0
    4.8428  -19.1482   21.7248 C   0  0  1  0  0  0  0  0  0  0  0  0
    3.5265  -18.6365   21.1823 C   0  0  0  0  0  0  0  0  0  0  0  0
    2.6219  -19.7523   20.7347 C   0  0  0  0  0  0  0  0  0  0  0  0
    1.3509  -19.2782   20.0960 C   0  0  0  0  0  0  0  0  0  0  0  0
    0.5147  -20.4529   19.6336 C   0  0  0  0  0  0  0  0  0  0  0  0
   -0.7330  -20.0263   19.0377 N   0  0  0  0  0  0  0  0  0  0  0  0
    5.0913  -18.6811   23.1059 C   0  0  0  0  0  0  0  0  0  0  0  0
    4.1639  -18.7237   23.9437 O   0  0  0  0  0  0  0  0  0  0  0  0
    8.6584  -18.7237   24.9407 O   0  0  0  0  0  0  0  0  0  0  0  0
    7.4453  -18.6454   25.6103 C   0  0  0  0  0  0  0  0  0  0  0  0
    6.5814  -17.6311   24.8540 C   0  0  2  0  0  0  0  0  0  0  0  0
    6.3510  -18.1781   23.5369 N   0  0  0  0  0  0  0  0  0  0  0  0
    7.2435  -16.3068   24.8059 C   0  0  0  0  0  0  0  0  0  0  0  0
    8.0382  -16.0508   23.8732 O   0  0  0  0  0  0  0  0  0  0  0  0
    7.5190  -11.8147   26.9304 C   0  0  0  0  0  0  0  0  0  0  0  0
    6.8158  -13.1199   26.6480 C   0  0  1  0  0  0  0  0  0  0  0  0
    5.5672  -12.8240   25.8599 C   0  0  0  0  0  0  0  0  0  0  0  0
    7.7107  -14.1165   25.9619 C   0  0  2  0  0  0  0  0  0  0  0  0
    6.9678  -15.3545   25.8127 N   0  0  0  0  0  0  0  0  0  0  0  0
    8.9371  -14.2927   26.7530 C   0  0  0  0  0  0  0  0  0  0  0  0
    9.9327  -13.3357   26.6393 O   0  0  0  0  0  0  0  0  0  0  0  0
    9.1428  -15.2593   27.5294 O   0  0  0  0  0  0  0  0  0  0  0  0
  2  1  1  1
  2  8  1  0
  3  2  1  0
  4  5  1  0
  4  3  1  0
  5  6  1  0
  6  7  1  0
  8 13  1  0
  8  9  2  0
 10 11  1  0
 12 11  1  1
 12 14  1  0
 13 12  1  0
 14 20  1  0
 14 15  2  0
 17 16  1  6
 17 19  1  0
 17 18  1  0
 19 21  1  0
 19 20  1  1
 21 22  1  0
 23 21  2  0
M  END
$$$$
