KSV.pdb
     RDKit          3D

 23 22  0  0  1  0  0  0  0  0999 V2000
    8.3474  -17.9977   19.4096 N   0  0  0  0  0  0  0  0  0  0  0  0
    9.1294  -17.7757   20.6076 C   0  0  1  0  0  0  0  0  0  0  0  0
   10.3957  -17.0039   20.3084 C   0  0  0  0  0  0  0  0  0  0  0  0
   11.4811  -17.8837   19.7501 C   0  0  0  0  0  0  0  0  0  0  0  0
   12.7262  -17.1385   19.3725 C   0  0  0  0  0  0  0  0  0  0  0  0
   13.8110  -18.0989   18.9322 C   0  0  0  0  0  0  0  0  0  0  0  0
   13.7102  -18.4189   17.5246 N   0  0  0  0  0  0  0  0  0  0  0  0
    8.2720  -17.0741   21.5874 C   0  0  0  0  0  0  0  0  0  0  0  0
    7.6203  -16.0706   21.2239 O   0  0  0  0  0  0  0  0  0  0  0  0
    7.8318  -18.3760   25.5903 O   0  0  0  0  0  0  0  0  0  0  0  0
    6.7483  -17.9853   24.8161 C   0  0  0  0  0  0  0  0  0  0  0  0
    7.2419  -16.8735   23.8846 C   0  0  2  0  0  0  0  0  0  0  0  0
    8.1486  -17.4888   22.9432 N   0  0  0  0  0  0  0  0  0  0  0  0
    7.8849  -15.7853   24.6571 C   0  0  0  0  0  0  0  0  0  0  0  0
    9.1322  -15.7588   24.7595 O   0  0  0  0  0  0  0  0  0  0  0  0
    6.9275  -11.6398   27.2892 C   0  0  0  0  0  0  0  0  0  0  0  0
    6.5014  -12.7520   26.3623 C   0  0  1  0  0  0  0  0  0  0  0  0
    5.9223  -12.1346   25.1169 C   0  0  0  0  0  0  0  0  0  0  0  0
    7.6219  -13.7117   26.0654 C   0  0  2  0  0  0  0  0  0  0  0  0
    7.0809  -14.7954   25.2655 N   0  0  0  0  0  0  0  0  0  0  0  0
    8.2024  -14.1864   27.3297 C   0  0  0  0  0  0  0  0  0  0  0  0
    7.9084  -15.4763   27.7416 O   0  0  0  0  0  0  0  0  0  0  0  0
    8.9516  -13.4956   28.0652 O   0  0  0  0  0  0  0  0  0  0  0  0
  2  1  1  6
  2  8  1  0
  3  2  1  0
  4  5  1  0
  4  3  1  0
  5  6  1  0
  6  7  1  0
  8 13  1  0
  8  9  2  0
 10 11  1  0
 12 11  1  1
 12 14  1  0
 13 12  1  0
 14 20  1  0
 14 15  2  0
 17 16  1  1
 17 19  1  0
 17 18  1  0
 19 21  1  0
 19 20  1  1
 21 22  1  0
 23 21  2  0
M  END
$$$$
