PGW.pdb
     RDKit          3D

 26 28  0  0  1  0  0  0  0  0999 V2000
    7.6963  -15.2634   19.7841 N   0  0  0  0  0  0  0  0  0  0  0  0
    6.6568  -14.2819   19.5187 C   0  0  0  0  0  0  0  0  0  0  0  0
    7.1674  -12.9509   19.9653 C   0  0  0  0  0  0  0  0  0  0  0  0
    8.4403  -13.3151   20.7292 C   0  0  0  0  0  0  0  0  0  0  0  0
    8.9219  -14.5008   19.9358 C   0  0  1  0  0  0  0  0  0  0  0  0
    9.9746  -15.2721   20.6418 C   0  0  0  0  0  0  0  0  0  0  0  0
   11.1320  -14.7676   20.8219 O   0  0  0  0  0  0  0  0  0  0  0  0
    9.8094  -16.5840   21.1621 N   0  0  0  0  0  0  0  0  0  0  0  0
   10.9030  -17.3136   21.7359 C   0  0  0  0  0  0  0  0  0  0  0  0
   11.0442  -17.0798   23.1943 C   0  0  0  0  0  0  0  0  0  0  0  0
   12.1328  -17.3890   23.7377 O   0  0  0  0  0  0  0  0  0  0  0  0
   10.0240  -16.5288   24.0088 N   0  0  0  0  0  0  0  0  0  0  0  0
   10.1836  -16.2935   25.4499 C   0  0  1  0  0  0  0  0  0  0  0  0
    9.7786  -14.9154   25.8164 C   0  0  0  0  0  0  0  0  0  0  0  0
    8.3363  -14.6198   25.8383 C   0  0  0  0  0  0  0  0  0  0  0  0
    7.3142  -15.5250   25.5050 C   0  0  0  0  0  0  0  0  0  0  0  0
    6.1244  -14.9159   25.6009 N   0  0  0  0  0  0  0  0  0  0  0  0
    6.3532  -13.6473   25.9865 C   0  0  0  0  0  0  0  0  0  0  0  0
    5.4743  -12.6148   26.2416 C   0  0  0  0  0  0  0  0  0  0  0  0
    5.9414  -11.3907   26.6458 C   0  0  0  0  0  0  0  0  0  0  0  0
    7.3010  -11.1723   26.8037 C   0  0  0  0  0  0  0  0  0  0  0  0
    8.1928  -12.1860   26.5544 C   0  0  0  0  0  0  0  0  0  0  0  0
    7.7071  -13.4143   26.1471 C   0  0  0  0  0  0  0  0  0  0  0  0
    9.6332  -17.3860   26.2473 C   0  0  0  0  0  0  0  0  0  0  0  0
    9.9569  -17.4979   27.5834 O   0  0  0  0  0  0  0  0  0  0  0  0
    8.8689  -18.2275   25.7384 O   0  0  0  0  0  0  0  0  0  0  0  0
  2  1  1  0
  3  4  1  0
  3  2  1  0
  4  5  1  0
  5  6  1  1
  5  1  1  0
  6  8  1  0
  7  6  2  0
  8  9  1  0
  9 10  1  0
 10 11  2  0
 10 12  1  0
 12 13  1  0
 13 24  1  0
 13 14  1  1
 15 14  1  0
 15 23  1  0
 16 17  1  0
 16 15  2  0
 17 18  1  0
 18 19  2  0
 18 23  1  0
 19 20  1  0
 20 21  2  0
 22 21  1  0
 23 22  2  0
 24 26  2  0
 24 25  1  0
M  END
$$$$
