PGW.pdb
     RDKit          3D

 26 28  0  0  1  0  0  0  0  0999 V2000
    7.5036  -15.2831   20.8050 N   0  0  0  0  0  0  0  0  0  0  0  0
    6.4160  -14.4555   20.3085 C   0  0  0  0  0  0  0  0  0  0  0  0
    7.0096  -13.4218   19.4080 C   0  0  0  0  0  0  0  0  0  0  0  0
    8.5098  -13.5768   19.6567 C   0  0  0  0  0  0  0  0  0  0  0  0
    8.6099  -15.0607   19.8922 C   0  0  1  0  0  0  0  0  0  0  0  0
    9.9105  -15.4593   20.4849 C   0  0  0  0  0  0  0  0  0  0  0  0
   10.9574  -15.5222   19.7592 O   0  0  0  0  0  0  0  0  0  0  0  0
   10.1118  -15.7949   21.8509 N   0  0  0  0  0  0  0  0  0  0  0  0
   11.4152  -16.0869   22.3740 C   0  0  0  0  0  0  0  0  0  0  0  0
   11.3933  -16.3951   23.8252 C   0  0  0  0  0  0  0  0  0  0  0  0
   12.4839  -16.6608   24.3874 O   0  0  0  0  0  0  0  0  0  0  0  0
   10.2156  -16.4073   24.6130 N   0  0  0  0  0  0  0  0  0  0  0  0
   10.2255  -16.5651   26.0734 C   0  0  1  0  0  0  0  0  0  0  0  0
    9.6449  -15.3779   26.7449 C   0  0  0  0  0  0  0  0  0  0  0  0
    8.3195  -14.9264   26.2894 C   0  0  0  0  0  0  0  0  0  0  0  0
    7.3371  -15.7439   25.7049 C   0  0  0  0  0  0  0  0  0  0  0  0
    6.2690  -15.0024   25.3803 N   0  0  0  0  0  0  0  0  0  0  0  0
    6.5371  -13.7339   25.7401 C   0  0  0  0  0  0  0  0  0  0  0  0
    5.7702  -12.5915   25.6390 C   0  0  0  0  0  0  0  0  0  0  0  0
    6.2511  -11.3911   26.0948 C   0  0  0  0  0  0  0  0  0  0  0  0
    7.5126  -11.3071   26.6628 C   0  0  0  0  0  0  0  0  0  0  0  0
    8.2925  -12.4319   26.7722 C   0  0  0  0  0  0  0  0  0  0  0  0
    7.7946  -13.6347   26.3079 C   0  0  0  0  0  0  0  0  0  0  0  0
    9.7296  -17.8751   26.4859 C   0  0  0  0  0  0  0  0  0  0  0  0
    9.9737  -18.3360   27.7628 O   0  0  0  0  0  0  0  0  0  0  0  0
    9.0838  -18.5918   25.6982 O   0  0  0  0  0  0  0  0  0  0  0  0
  2  1  1  0
  3  4  1  0
  3  2  1  0
  4  5  1  0
  5  6  1  1
  5  1  1  0
  6  8  1  0
  7  6  2  0
  8  9  1  0
  9 10  1  0
 10 11  2  0
 10 12  1  0
 12 13  1  0
 13 24  1  0
 13 14  1  1
 15 14  1  0
 15 23  1  0
 16 17  1  0
 16 15  2  0
 17 18  1  0
 18 19  2  0
 18 23  1  0
 19 20  1  0
 20 21  2  0
 22 21  1  0
 23 22  2  0
 24 26  2  0
 24 25  1  0
M  END
$$$$
