PGW.pdb
     RDKit          3D

 26 28  0  0  1  0  0  0  0  0999 V2000
    7.3297  -15.2169   20.5738 N   0  0  0  0  0  0  0  0  0  0  0  0
    6.3405  -14.2236   20.1879 C   0  0  0  0  0  0  0  0  0  0  0  0
    6.9069  -12.8769   20.4998 C   0  0  0  0  0  0  0  0  0  0  0  0
    8.1518  -13.2145   21.3201 C   0  0  0  0  0  0  0  0  0  0  0  0
    8.5875  -14.4985   20.6652 C   0  0  1  0  0  0  0  0  0  0  0  0
    9.5942  -15.2367   21.4673 C   0  0  0  0  0  0  0  0  0  0  0  0
   10.7563  -14.7453   21.6535 O   0  0  0  0  0  0  0  0  0  0  0  0
    9.3775  -16.5014   22.0778 N   0  0  0  0  0  0  0  0  0  0  0  0
   10.4253  -17.1986   22.7661 C   0  0  0  0  0  0  0  0  0  0  0  0
   10.6119  -16.7206   24.1583 C   0  0  0  0  0  0  0  0  0  0  0  0
   11.6481  -16.0624   24.4212 O   0  0  0  0  0  0  0  0  0  0  0  0
    9.6908  -16.9631   25.2074 N   0  0  0  0  0  0  0  0  0  0  0  0
   10.0081  -16.7418   26.6245 C   0  0  1  0  0  0  0  0  0  0  0  0
    8.8333  -16.2183   27.3616 C   0  0  0  0  0  0  0  0  0  0  0  0
    7.8401  -15.4521   26.5906 C   0  0  0  0  0  0  0  0  0  0  0  0
    6.9299  -15.9953   25.6677 C   0  0  0  0  0  0  0  0  0  0  0  0
    6.1983  -15.0124   25.1250 N   0  0  0  0  0  0  0  0  0  0  0  0
    6.6117  -13.8552   25.6731 C   0  0  0  0  0  0  0  0  0  0  0  0
    6.1780  -12.5612   25.4707 C   0  0  0  0  0  0  0  0  0  0  0  0
    6.7449  -11.5234   26.1648 C   0  0  0  0  0  0  0  0  0  0  0  0
    7.7604  -11.7581   27.0784 C   0  0  0  0  0  0  0  0  0  0  0  0
    8.2074  -13.0383   27.2944 C   0  0  0  0  0  0  0  0  0  0  0  0
    7.6268  -14.0741   26.5869 C   0  0  0  0  0  0  0  0  0  0  0  0
   10.7133  -17.8776   27.2115 C   0  0  0  0  0  0  0  0  0  0  0  0
   11.2615  -17.7741   28.4730 O   0  0  0  0  0  0  0  0  0  0  0  0
   10.8305  -18.9495   26.5881 O   0  0  0  0  0  0  0  0  0  0  0  0
  2  1  1  0
  3  4  1  0
  3  2  1  0
  4  5  1  0
  5  6  1  1
  5  1  1  0
  6  8  1  0
  7  6  2  0
  8  9  1  0
  9 10  1  0
 10 11  2  0
 10 12  1  0
 12 13  1  0
 13 24  1  0
 13 14  1  1
 15 14  1  0
 15 23  1  0
 16 17  1  0
 16 15  2  0
 17 18  1  0
 18 19  2  0
 18 23  1  0
 19 20  1  0
 20 21  2  0
 22 21  1  0
 23 22  2  0
 24 26  2  0
 24 25  1  0
M  END
$$$$
