PGW.pdb
     RDKit          3D

 26 28  0  0  1  0  0  0  0  0999 V2000
    7.5039  -16.5961   20.8860 N   0  0  0  0  0  0  0  0  0  0  0  0
    6.1862  -16.0054   20.7158 C   0  0  0  0  0  0  0  0  0  0  0  0
    6.2909  -14.5578   21.0700 C   0  0  0  0  0  0  0  0  0  0  0  0
    7.6829  -14.4614   21.6942 C   0  0  0  0  0  0  0  0  0  0  0  0
    8.4338  -15.4817   20.8803 C   0  0  1  0  0  0  0  0  0  0  0  0
    9.7411  -15.8434   21.4817 C   0  0  0  0  0  0  0  0  0  0  0  0
   10.6932  -14.9954   21.5122 O   0  0  0  0  0  0  0  0  0  0  0  0
   10.0499  -17.1064   22.0548 N   0  0  0  0  0  0  0  0  0  0  0  0
   11.3435  -17.3913   22.6055 C   0  0  0  0  0  0  0  0  0  0  0  0
   11.4644  -16.9779   24.0253 C   0  0  0  0  0  0  0  0  0  0  0  0
   12.5866  -16.5883   24.4318 O   0  0  0  0  0  0  0  0  0  0  0  0
   10.3896  -16.9968   24.9485 N   0  0  0  0  0  0  0  0  0  0  0  0
   10.5361  -16.6265   26.3624 C   0  0  1  0  0  0  0  0  0  0  0  0
   10.0331  -15.2546   26.6123 C   0  0  0  0  0  0  0  0  0  0  0  0
    8.6006  -15.0085   26.3773 C   0  0  0  0  0  0  0  0  0  0  0  0
    7.6662  -15.9719   25.9603 C   0  0  0  0  0  0  0  0  0  0  0  0
    6.4639  -15.3989   25.8126 N   0  0  0  0  0  0  0  0  0  0  0  0
    6.5994  -14.0967   26.1232 C   0  0  0  0  0  0  0  0  0  0  0  0
    5.6688  -13.0785   26.1468 C   0  0  0  0  0  0  0  0  0  0  0  0
    6.0372  -11.8109   26.5177 C   0  0  0  0  0  0  0  0  0  0  0  0
    7.3478  -11.5337   26.8736 C   0  0  0  0  0  0  0  0  0  0  0  0
    8.2899  -12.5324   26.8561 C   0  0  0  0  0  0  0  0  0  0  0  0
    7.9037  -13.8050   26.4795 C   0  0  0  0  0  0  0  0  0  0  0  0
   10.0691  -17.6825   27.2561 C   0  0  0  0  0  0  0  0  0  0  0  0
   10.3827  -17.6410   28.5987 O   0  0  0  0  0  0  0  0  0  0  0  0
    9.3856  -18.6301   26.8246 O   0  0  0  0  0  0  0  0  0  0  0  0
  2  1  1  0
  3  4  1  0
  3  2  1  0
  4  5  1  0
  5  6  1  1
  5  1  1  0
  6  8  1  0
  7  6  2  0
  8  9  1  0
  9 10  1  0
 10 11  2  0
 10 12  1  0
 12 13  1  0
 13 24  1  0
 13 14  1  6
 15 14  1  0
 15 23  1  0
 16 17  1  0
 16 15  2  0
 17 18  1  0
 18 19  2  0
 18 23  1  0
 19 20  1  0
 20 21  2  0
 22 21  1  0
 23 22  2  0
 24 26  2  0
 24 25  1  0
M  END
$$$$
