PGW.pdb
     RDKit          3D

 26 28  0  0  1  0  0  0  0  0999 V2000
    7.7113  -16.5051   20.9477 N   0  0  0  0  0  0  0  0  0  0  0  0
    6.3678  -16.0005   20.7135 C   0  0  0  0  0  0  0  0  0  0  0  0
    6.3165  -14.5977   21.2246 C   0  0  0  0  0  0  0  0  0  0  0  0
    7.6349  -14.4663   21.9870 C   0  0  0  0  0  0  0  0  0  0  0  0
    8.5391  -15.3298   21.1477 C   0  0  1  0  0  0  0  0  0  0  0  0
    9.8147  -15.6561   21.8316 C   0  0  0  0  0  0  0  0  0  0  0  0
   10.6733  -14.7423   22.0647 O   0  0  0  0  0  0  0  0  0  0  0  0
   10.1908  -16.9532   22.2734 N   0  0  0  0  0  0  0  0  0  0  0  0
   11.4832  -17.2150   22.8380 C   0  0  0  0  0  0  0  0  0  0  0  0
   11.5054  -17.0583   24.3133 C   0  0  0  0  0  0  0  0  0  0  0  0
   12.6170  -17.1103   24.8945 O   0  0  0  0  0  0  0  0  0  0  0  0
   10.3475  -16.8538   25.1039 N   0  0  0  0  0  0  0  0  0  0  0  0
   10.3837  -16.7266   26.5669 C   0  0  1  0  0  0  0  0  0  0  0  0
    9.8207  -15.4275   27.0063 C   0  0  0  0  0  0  0  0  0  0  0  0
    8.4126  -15.1556   26.6729 C   0  0  0  0  0  0  0  0  0  0  0  0
    7.4505  -16.1268   26.3470 C   0  0  0  0  0  0  0  0  0  0  0  0
    6.2843  -15.5292   26.0666 N   0  0  0  0  0  0  0  0  0  0  0  0
    6.4698  -14.2036   26.2038 C   0  0  0  0  0  0  0  0  0  0  0  0
    5.5893  -13.1533   26.0454 C   0  0  0  0  0  0  0  0  0  0  0  0
    6.0032  -11.8635   26.2578 C   0  0  0  0  0  0  0  0  0  0  0  0
    7.3100  -11.5957   26.6341 C   0  0  0  0  0  0  0  0  0  0  0  0
    8.2027  -12.6263   26.7965 C   0  0  0  0  0  0  0  0  0  0  0  0
    7.7711  -13.9211   26.5782 C   0  0  0  0  0  0  0  0  0  0  0  0
    9.8901  -17.9283   27.2334 C   0  0  0  0  0  0  0  0  0  0  0  0
    9.2955  -18.9322   26.4976 O   0  0  0  0  0  0  0  0  0  0  0  0
    9.9968  -18.0655   28.4667 O   0  0  0  0  0  0  0  0  0  0  0  0
  2  1  1  0
  3  4  1  0
  3  2  1  0
  4  5  1  0
  5  6  1  1
  5  1  1  0
  6  8  1  0
  7  6  2  0
  8  9  1  0
  9 10  1  0
 10 11  2  0
 10 12  1  0
 12 13  1  0
 13 24  1  0
 13 14  1  6
 15 14  1  0
 15 23  1  0
 16 17  1  0
 16 15  2  0
 17 18  1  0
 18 19  2  0
 18 23  1  0
 19 20  1  0
 20 21  2  0
 22 21  1  0
 23 22  2  0
 24 26  2  0
 24 25  1  0
M  END
$$$$
