PGW.pdb
     RDKit          3D

 26 28  0  0  1  0  0  0  0  0999 V2000
    7.6645  -16.8433   20.8534 N   0  0  0  0  0  0  0  0  0  0  0  0
    6.2925  -16.4020   20.6609 C   0  0  0  0  0  0  0  0  0  0  0  0
    6.2433  -14.9380   20.9545 C   0  0  0  0  0  0  0  0  0  0  0  0
    7.6157  -14.6699   21.5720 C   0  0  0  0  0  0  0  0  0  0  0  0
    8.4720  -15.6384   20.8000 C   0  0  1  0  0  0  0  0  0  0  0  0
    9.8084  -15.8353   21.4138 C   0  0  0  0  0  0  0  0  0  0  0  0
   10.6424  -14.8718   21.4652 O   0  0  0  0  0  0  0  0  0  0  0  0
   10.2717  -17.0547   21.9773 N   0  0  0  0  0  0  0  0  0  0  0  0
   11.5923  -17.1824   22.5228 C   0  0  0  0  0  0  0  0  0  0  0  0
   11.6299  -16.9567   23.9888 C   0  0  0  0  0  0  0  0  0  0  0  0
   12.7393  -17.0445   24.5699 O   0  0  0  0  0  0  0  0  0  0  0  0
   10.4892  -16.6484   24.7706 N   0  0  0  0  0  0  0  0  0  0  0  0
   10.5419  -16.4371   26.2233 C   0  0  1  0  0  0  0  0  0  0  0  0
    9.9812  -15.1157   26.5937 C   0  0  0  0  0  0  0  0  0  0  0  0
    8.5462  -14.8988   26.3458 C   0  0  0  0  0  0  0  0  0  0  0  0
    7.6183  -15.8977   26.0045 C   0  0  0  0  0  0  0  0  0  0  0  0
    6.4111  -15.3466   25.8186 N   0  0  0  0  0  0  0  0  0  0  0  0
    6.5370  -14.0240   26.0313 C   0  0  0  0  0  0  0  0  0  0  0  0
    5.5983  -13.0140   25.9825 C   0  0  0  0  0  0  0  0  0  0  0  0
    5.9577  -11.7196   26.2571 C   0  0  0  0  0  0  0  0  0  0  0  0
    7.2670  -11.4066   26.5872 C   0  0  0  0  0  0  0  0  0  0  0  0
    8.2170  -12.3965   26.6407 C   0  0  0  0  0  0  0  0  0  0  0  0
    7.8399  -13.6965   26.3608 C   0  0  0  0  0  0  0  0  0  0  0  0
   10.0586  -17.5992   26.9635 C   0  0  0  0  0  0  0  0  0  0  0  0
   10.3018  -17.7069   28.3170 O   0  0  0  0  0  0  0  0  0  0  0  0
    9.4242  -18.5046   26.3899 O   0  0  0  0  0  0  0  0  0  0  0  0
  2  1  1  0
  3  4  1  0
  3  2  1  0
  4  5  1  0
  5  6  1  1
  5  1  1  0
  6  8  1  0
  7  6  2  0
  8  9  1  0
  9 10  1  0
 10 11  2  0
 10 12  1  0
 12 13  1  0
 13 24  1  0
 13 14  1  6
 15 14  1  0
 15 23  1  0
 16 17  1  0
 16 15  2  0
 17 18  1  0
 18 19  2  0
 18 23  1  0
 19 20  1  0
 20 21  2  0
 22 21  1  0
 23 22  2  0
 24 26  2  0
 24 25  1  0
M  END
$$$$
