PGW.pdb
     RDKit          3D

 26 28  0  0  1  0  0  0  0  0999 V2000
    7.4282  -15.2395   20.4793 N   0  0  0  0  0  0  0  0  0  0  0  0
    6.3058  -14.4040   20.0838 C   0  0  0  0  0  0  0  0  0  0  0  0
    6.7592  -12.9817   20.1408 C   0  0  0  0  0  0  0  0  0  0  0  0
    8.1123  -13.0852   20.8444 C   0  0  0  0  0  0  0  0  0  0  0  0
    8.6071  -14.4078   20.3216 C   0  0  1  0  0  0  0  0  0  0  0  0
    9.7643  -14.9297   21.0899 C   0  0  0  0  0  0  0  0  0  0  0  0
   10.8797  -14.3114   21.0747 O   0  0  0  0  0  0  0  0  0  0  0  0
    9.7488  -16.1108   21.8797 N   0  0  0  0  0  0  0  0  0  0  0  0
   10.9078  -16.5554   22.5985 C   0  0  0  0  0  0  0  0  0  0  0  0
   10.7437  -16.4505   24.0694 C   0  0  0  0  0  0  0  0  0  0  0  0
   11.6475  -15.8746   24.7234 O   0  0  0  0  0  0  0  0  0  0  0  0
    9.6285  -16.9613   24.7788 N   0  0  0  0  0  0  0  0  0  0  0  0
    9.5307  -16.9458   26.2444 C   0  0  1  0  0  0  0  0  0  0  0  0
    8.1496  -16.6380   26.6864 C   0  0  0  0  0  0  0  0  0  0  0  0
    7.4381  -15.5625   25.9758 C   0  0  0  0  0  0  0  0  0  0  0  0
    6.6937  -15.7205   24.7942 C   0  0  0  0  0  0  0  0  0  0  0  0
    6.2108  -14.5329   24.4040 N   0  0  0  0  0  0  0  0  0  0  0  0
    6.6229  -13.6182   25.3006 C   0  0  0  0  0  0  0  0  0  0  0  0
    6.3904  -12.2599   25.3681 C   0  0  0  0  0  0  0  0  0  0  0  0
    6.9065  -11.5186   26.3998 C   0  0  0  0  0  0  0  0  0  0  0  0
    7.6682  -12.1214   27.3885 C   0  0  0  0  0  0  0  0  0  0  0  0
    7.9122  -13.4717   27.3398 C   0  0  0  0  0  0  0  0  0  0  0  0
    7.3859  -14.2057   26.2936 C   0  0  0  0  0  0  0  0  0  0  0  0
   10.1833  -18.1037   26.8489 C   0  0  0  0  0  0  0  0  0  0  0  0
   10.6550  -19.1259   26.0519 O   0  0  0  0  0  0  0  0  0  0  0  0
   10.3235  -18.1867   28.0837 O   0  0  0  0  0  0  0  0  0  0  0  0
  2  1  1  0
  3  4  1  0
  3  2  1  0
  4  5  1  0
  5  6  1  1
  5  1  1  0
  6  8  1  0
  7  6  2  0
  8  9  1  0
  9 10  1  0
 10 11  2  0
 10 12  1  0
 12 13  1  0
 13 24  1  0
 13 14  1  6
 15 14  1  0
 15 23  1  0
 16 17  1  0
 16 15  2  0
 17 18  1  0
 18 19  2  0
 18 23  1  0
 19 20  1  0
 20 21  2  0
 22 21  1  0
 23 22  2  0
 24 26  2  0
 24 25  1  0
M  END
$$$$
