PGW.pdb
     RDKit          3D

 26 28  0  0  1  0  0  0  0  0999 V2000
    8.9593  -14.8428   17.9926 N   0  0  0  0  0  0  0  0  0  0  0  0
    8.6133  -13.9754   16.8780 C   0  0  0  0  0  0  0  0  0  0  0  0
    7.7305  -12.8920   17.4058 C   0  0  0  0  0  0  0  0  0  0  0  0
    7.4068  -13.3767   18.8189 C   0  0  0  0  0  0  0  0  0  0  0  0
    8.6945  -14.0642   19.1885 C   0  0  1  0  0  0  0  0  0  0  0  0
    8.5605  -14.9204   20.3929 C   0  0  0  0  0  0  0  0  0  0  0  0
    8.3995  -14.3940   21.5433 O   0  0  0  0  0  0  0  0  0  0  0  0
    8.5965  -16.3409   20.3877 N   0  0  0  0  0  0  0  0  0  0  0  0
    8.4073  -17.1068   21.5857 C   0  0  0  0  0  0  0  0  0  0  0  0
    9.3627  -16.7360   22.6587 C   0  0  0  0  0  0  0  0  0  0  0  0
   10.2990  -15.9517   22.3683 O   0  0  0  0  0  0  0  0  0  0  0  0
    9.2807  -17.2141   23.9900 N   0  0  0  0  0  0  0  0  0  0  0  0
    9.9875  -16.5879   25.1152 C   0  0  1  0  0  0  0  0  0  0  0  0
    9.6927  -15.1372   25.1930 C   0  0  0  0  0  0  0  0  0  0  0  0
    8.3152  -14.7465   25.5358 C   0  0  0  0  0  0  0  0  0  0  0  0
    7.1955  -15.5952   25.5024 C   0  0  0  0  0  0  0  0  0  0  0  0
    6.0973  -14.9056   25.8403 N   0  0  0  0  0  0  0  0  0  0  0  0
    6.4796  -13.6399   26.0901 C   0  0  0  0  0  0  0  0  0  0  0  0
    5.7439  -12.5420   26.4859 C   0  0  0  0  0  0  0  0  0  0  0  0
    6.3593  -11.3357   26.7004 C   0  0  0  0  0  0  0  0  0  0  0  0
    7.7273  -11.2011   26.5229 C   0  0  0  0  0  0  0  0  0  0  0  0
    8.4781  -12.2809   26.1285 C   0  0  0  0  0  0  0  0  0  0  0  0
    7.8436  -13.4903   25.9156 C   0  0  0  0  0  0  0  0  0  0  0  0
    9.8544  -17.3636   26.3452 C   0  0  0  0  0  0  0  0  0  0  0  0
   10.6617  -17.0858   27.4285 O   0  0  0  0  0  0  0  0  0  0  0  0
    9.0169  -18.2810   26.4355 O   0  0  0  0  0  0  0  0  0  0  0  0
  2  1  1  0
  3  4  1  0
  3  2  1  0
  4  5  1  0
  5  6  1  1
  5  1  1  0
  6  8  1  0
  7  6  2  0
  8  9  1  0
  9 10  1  0
 10 11  2  0
 10 12  1  0
 12 13  1  0
 13 24  1  0
 13 14  1  1
 15 14  1  0
 15 23  1  0
 16 17  1  0
 16 15  2  0
 17 18  1  0
 18 19  2  0
 18 23  1  0
 19 20  1  0
 20 21  2  0
 22 21  1  0
 23 22  2  0
 24 26  2  0
 24 25  1  0
M  END
$$$$
