PGW.pdb
     RDKit          3D

 26 28  0  0  1  0  0  0  0  0999 V2000
    8.7469  -14.8391   18.2838 N   0  0  0  0  0  0  0  0  0  0  0  0
    8.2960  -13.9562   17.2202 C   0  0  0  0  0  0  0  0  0  0  0  0
    7.5234  -12.8449   17.8526 C   0  0  0  0  0  0  0  0  0  0  0  0
    7.3605  -13.3234   19.2952 C   0  0  0  0  0  0  0  0  0  0  0  0
    8.6594  -14.0563   19.5029 C   0  0  1  0  0  0  0  0  0  0  0  0
    8.6459  -14.9118   20.7151 C   0  0  0  0  0  0  0  0  0  0  0  0
    8.4588  -14.3956   21.8663 O   0  0  0  0  0  0  0  0  0  0  0  0
    8.8309  -16.3206   20.7171 N   0  0  0  0  0  0  0  0  0  0  0  0
    8.7045  -17.0985   21.9156 C   0  0  0  0  0  0  0  0  0  0  0  0
    9.5094  -16.5555   23.0376 C   0  0  0  0  0  0  0  0  0  0  0  0
   10.5579  -15.9239   22.7587 O   0  0  0  0  0  0  0  0  0  0  0  0
    9.1649  -16.7075   24.4036 N   0  0  0  0  0  0  0  0  0  0  0  0
    9.9942  -16.1993   25.5044 C   0  0  1  0  0  0  0  0  0  0  0  0
    9.1567  -15.7213   26.6302 C   0  0  0  0  0  0  0  0  0  0  0  0
    7.8868  -15.0575   26.2916 C   0  0  0  0  0  0  0  0  0  0  0  0
    6.6878  -15.7125   25.9621 C   0  0  0  0  0  0  0  0  0  0  0  0
    5.7429  -14.8060   25.6772 N   0  0  0  0  0  0  0  0  0  0  0  0
    6.3002  -13.5891   25.8149 C   0  0  0  0  0  0  0  0  0  0  0  0
    5.7583  -12.3307   25.6530 C   0  0  0  0  0  0  0  0  0  0  0  0
    6.5238  -11.2134   25.8669 C   0  0  0  0  0  0  0  0  0  0  0  0
    7.8512  -11.3310   26.2481 C   0  0  0  0  0  0  0  0  0  0  0  0
    8.4103  -12.5740   26.4140 C   0  0  0  0  0  0  0  0  0  0  0  0
    7.6265  -13.6910   26.1942 C   0  0  0  0  0  0  0  0  0  0  0  0
   11.0921  -17.1064   25.8266 C   0  0  0  0  0  0  0  0  0  0  0  0
   11.1221  -18.3751   25.2862 O   0  0  0  0  0  0  0  0  0  0  0  0
   12.0118  -16.7524   26.5883 O   0  0  0  0  0  0  0  0  0  0  0  0
  2  1  1  0
  3  4  1  0
  3  2  1  0
  4  5  1  0
  5  6  1  1
  5  1  1  0
  6  8  1  0
  7  6  2  0
  8  9  1  0
  9 10  1  0
 10 11  2  0
 10 12  1  0
 12 13  1  0
 13 24  1  0
 13 14  1  1
 15 14  1  0
 15 23  1  0
 16 17  1  0
 16 15  2  0
 17 18  1  0
 18 19  2  0
 18 23  1  0
 19 20  1  0
 20 21  2  0
 22 21  1  0
 23 22  2  0
 24 26  2  0
 24 25  1  0
M  END
$$$$
