PGW.pdb
     RDKit          3D

 26 28  0  0  1  0  0  0  0  0999 V2000
    7.5833  -15.3758   19.9187 N   0  0  0  0  0  0  0  0  0  0  0  0
    6.5017  -14.4461   19.6356 C   0  0  0  0  0  0  0  0  0  0  0  0
    6.9845  -13.0740   19.9762 C   0  0  0  0  0  0  0  0  0  0  0  0
    8.2980  -13.3488   20.7081 C   0  0  0  0  0  0  0  0  0  0  0  0
    8.7876  -14.5674   19.9714 C   0  0  1  0  0  0  0  0  0  0  0  0
    9.8926  -15.2587   20.6803 C   0  0  0  0  0  0  0  0  0  0  0  0
   11.0187  -14.6809   20.8377 O   0  0  0  0  0  0  0  0  0  0  0  0
    9.8133  -16.5677   21.2274 N   0  0  0  0  0  0  0  0  0  0  0  0
   10.9620  -17.2295   21.7755 C   0  0  0  0  0  0  0  0  0  0  0  0
   11.1138  -16.9984   23.2333 C   0  0  0  0  0  0  0  0  0  0  0  0
   12.2438  -17.1903   23.7455 O   0  0  0  0  0  0  0  0  0  0  0  0
   10.0600  -16.5745   24.0804 N   0  0  0  0  0  0  0  0  0  0  0  0
   10.2204  -16.3752   25.5268 C   0  0  1  0  0  0  0  0  0  0  0  0
    9.8505  -14.9953   25.9224 C   0  0  0  0  0  0  0  0  0  0  0  0
    8.4170  -14.6593   25.9365 C   0  0  0  0  0  0  0  0  0  0  0  0
    7.3739  -15.5246   25.5645 C   0  0  0  0  0  0  0  0  0  0  0  0
    6.2006  -14.8849   25.6648 N   0  0  0  0  0  0  0  0  0  0  0  0
    6.4604  -13.6353   26.0909 C   0  0  0  0  0  0  0  0  0  0  0  0
    5.6080  -12.5861   26.3667 C   0  0  0  0  0  0  0  0  0  0  0  0
    6.1044  -11.3883   26.8127 C   0  0  0  0  0  0  0  0  0  0  0  0
    7.4676  -11.2137   26.9928 C   0  0  0  0  0  0  0  0  0  0  0  0
    8.3334  -12.2447   26.7235 C   0  0  0  0  0  0  0  0  0  0  0  0
    7.8183  -13.4460   26.2740 C   0  0  0  0  0  0  0  0  0  0  0  0
    9.6385  -17.4700   26.2982 C   0  0  0  0  0  0  0  0  0  0  0  0
    9.9530  -17.6190   27.6329 O   0  0  0  0  0  0  0  0  0  0  0  0
    8.8553  -18.2805   25.7680 O   0  0  0  0  0  0  0  0  0  0  0  0
  2  1  1  0
  3  4  1  0
  3  2  1  0
  4  5  1  0
  5  6  1  1
  5  1  1  0
  6  8  1  0
  7  6  2  0
  8  9  1  0
  9 10  1  0
 10 11  2  0
 10 12  1  0
 12 13  1  0
 13 24  1  0
 13 14  1  1
 15 14  1  0
 15 23  1  0
 16 17  1  0
 16 15  2  0
 17 18  1  0
 18 19  2  0
 18 23  1  0
 19 20  1  0
 20 21  2  0
 22 21  1  0
 23 22  2  0
 24 26  2  0
 24 25  1  0
M  END
$$$$
