PGW.pdb
     RDKit          3D

 26 28  0  0  1  0  0  0  0  0999 V2000
    7.5814  -16.7448   21.5845 N   0  0  0  0  0  0  0  0  0  0  0  0
    6.2130  -16.4021   21.2320 C   0  0  0  0  0  0  0  0  0  0  0  0
    6.2197  -15.0065   20.6991 C   0  0  0  0  0  0  0  0  0  0  0  0
    7.6314  -14.5235   21.0314 C   0  0  0  0  0  0  0  0  0  0  0  0
    8.4166  -15.7981   20.8685 C   0  0  1  0  0  0  0  0  0  0  0  0
    9.7798  -15.7080   21.4474 C   0  0  0  0  0  0  0  0  0  0  0  0
   10.7760  -15.4133   20.7076 O   0  0  0  0  0  0  0  0  0  0  0  0
   10.0980  -15.9300   22.8143 N   0  0  0  0  0  0  0  0  0  0  0  0
   11.4493  -15.8846   23.2935 C   0  0  0  0  0  0  0  0  0  0  0  0
   11.5476  -16.1361   24.7524 C   0  0  0  0  0  0  0  0  0  0  0  0
   12.6924  -16.1894   25.2651 O   0  0  0  0  0  0  0  0  0  0  0  0
   10.4272  -16.3193   25.6003 N   0  0  0  0  0  0  0  0  0  0  0  0
   10.5413  -16.5539   27.0458 C   0  0  1  0  0  0  0  0  0  0  0  0
    9.5971  -15.6988   27.8040 C   0  0  0  0  0  0  0  0  0  0  0  0
    8.4059  -15.2112   27.0890 C   0  0  0  0  0  0  0  0  0  0  0  0
    7.5118  -16.0103   26.3561 C   0  0  0  0  0  0  0  0  0  0  0  0
    6.5628  -15.2386   25.8088 N   0  0  0  0  0  0  0  0  0  0  0  0
    6.8214  -13.9684   26.1695 C   0  0  0  0  0  0  0  0  0  0  0  0
    6.1455  -12.7997   25.8851 C   0  0  0  0  0  0  0  0  0  0  0  0
    6.5912  -11.6024   26.3830 C   0  0  0  0  0  0  0  0  0  0  0  0
    7.7253  -11.5480   27.1778 C   0  0  0  0  0  0  0  0  0  0  0  0
    8.4132  -12.6992   27.4723 C   0  0  0  0  0  0  0  0  0  0  0  0
    7.9523  -13.8986   26.9629 C   0  0  0  0  0  0  0  0  0  0  0  0
   10.5608  -17.9776   27.3695 C   0  0  0  0  0  0  0  0  0  0  0  0
   10.9202  -18.3942   28.6344 O   0  0  0  0  0  0  0  0  0  0  0  0
   10.2557  -18.8320   26.5161 O   0  0  0  0  0  0  0  0  0  0  0  0
  2  1  1  0
  3  4  1  0
  3  2  1  0
  4  5  1  0
  5  6  1  1
  5  1  1  0
  6  8  1  0
  7  6  2  0
  8  9  1  0
  9 10  1  0
 10 11  2  0
 10 12  1  0
 12 13  1  0
 13 24  1  0
 13 14  1  1
 15 14  1  0
 15 23  1  0
 16 17  1  0
 16 15  2  0
 17 18  1  0
 18 19  2  0
 18 23  1  0
 19 20  1  0
 20 21  2  0
 22 21  1  0
 23 22  2  0
 24 26  2  0
 24 25  1  0
M  END
$$$$
