TSK.pdb
     RDKit          3D

 23 22  0  0  1  0  0  0  0  0999 V2000
    7.5704  -12.0751   19.1618 C   0  0  0  0  0  0  0  0  0  0  0  0
    8.6994  -13.0332   19.4730 C   0  0  1  0  0  0  0  0  0  0  0  0
    8.3151  -13.9054   20.4759 O   0  0  0  0  0  0  0  0  0  0  0  0
    9.1358  -13.7703   18.2148 C   0  0  2  0  0  0  0  0  0  0  0  0
    7.9925  -14.4809   17.6801 N   0  0  0  0  0  0  0  0  0  0  0  0
   10.2519  -14.6703   18.5556 C   0  0  0  0  0  0  0  0  0  0  0  0
    9.9821  -15.8816   18.7489 O   0  0  0  0  0  0  0  0  0  0  0  0
   15.0476  -15.5126   18.7892 O   0  0  0  0  0  0  0  0  0  0  0  0
   14.0130  -14.6669   18.4788 C   0  0  0  0  0  0  0  0  0  0  0  0
   12.6869  -15.1034   19.0306 C   0  0  2  0  0  0  0  0  0  0  0  0
   11.5985  -14.2483   18.6758 N   0  0  0  0  0  0  0  0  0  0  0  0
   12.8028  -15.2182   20.5030 C   0  0  0  0  0  0  0  0  0  0  0  0
   12.7402  -14.1913   21.2254 O   0  0  0  0  0  0  0  0  0  0  0  0
   12.9847  -16.4614   21.1395 N   0  0  0  0  0  0  0  0  0  0  0  0
   13.0589  -16.4936   22.6683 C   0  0  1  0  0  0  0  0  0  0  0  0
   12.6260  -17.8611   23.0030 C   0  0  0  0  0  0  0  0  0  0  0  0
   12.5222  -18.3071   24.3869 C   0  0  0  0  0  0  0  0  0  0  0  0
   11.9107  -19.6182   24.6468 C   0  0  0  0  0  0  0  0  0  0  0  0
   11.7845  -19.8424   26.1780 C   0  0  0  0  0  0  0  0  0  0  0  0
   11.1930  -21.1270   26.3960 N   0  0  0  0  0  0  0  0  0  0  0  0
   14.5008  -16.2213   22.8788 C   0  0  0  0  0  0  0  0  0  0  0  0
   15.0998  -15.6111   23.9508 O   0  0  0  0  0  0  0  0  0  0  0  0
   15.3128  -16.5869   21.9573 O   0  0  0  0  0  0  0  0  0  0  0  0
  2  1  1  6
  2  4  1  0
  3  2  1  0
  4  5  1  1
  6  4  1  0
  6  7  2  0
  8  9  1  0
 10  9  1  1
 10 11  1  0
 10 12  1  0
 11  6  1  0
 12 14  1  0
 13 12  2  0
 14 15  1  0
 15 21  1  0
 16 17  1  0
 15 16  1  6
 18 19  1  0
 18 17  1  0
 20 19  1  0
 21 23  2  0
 21 22  1  0
M  END
$$$$
