TSK.pdb
     RDKit          3D

 23 22  0  0  1  0  0  0  0  0999 V2000
    8.0974  -23.8912   19.4462 C   0  0  0  0  0  0  0  0  0  0  0  0
    8.2339  -22.6763   18.5547 C   0  0  1  0  0  0  0  0  0  0  0  0
    8.3717  -23.0717   17.2361 O   0  0  0  0  0  0  0  0  0  0  0  0
    7.0505  -21.7383   18.7463 C   0  0  2  0  0  0  0  0  0  0  0  0
    7.1169  -20.7040   17.7344 N   0  0  0  0  0  0  0  0  0  0  0  0
    7.0941  -21.1935   20.1150 C   0  0  0  0  0  0  0  0  0  0  0  0
    8.0229  -20.3948   20.3921 O   0  0  0  0  0  0  0  0  0  0  0  0
    4.2082  -22.2124   23.0993 O   0  0  0  0  0  0  0  0  0  0  0  0
    4.9615  -21.0731   23.2270 C   0  0  0  0  0  0  0  0  0  0  0  0
    6.2704  -21.1265   22.4939 C   0  0  2  0  0  0  0  0  0  0  0  0
    6.1555  -21.5182   21.1246 N   0  0  0  0  0  0  0  0  0  0  0  0
    7.1832  -22.0372   23.2232 C   0  0  0  0  0  0  0  0  0  0  0  0
    7.2750  -23.2451   22.8869 O   0  0  0  0  0  0  0  0  0  0  0  0
    7.9701  -21.5925   24.3034 N   0  0  0  0  0  0  0  0  0  0  0  0
    8.9055  -22.5946   24.9850 C   0  0  1  0  0  0  0  0  0  0  0  0
   10.2162  -21.9242   24.9399 C   0  0  0  0  0  0  0  0  0  0  0  0
   11.4177  -22.5710   25.4531 C   0  0  0  0  0  0  0  0  0  0  0  0
   12.7049  -21.8865   25.2661 C   0  0  0  0  0  0  0  0  0  0  0  0
   13.8299  -22.6837   25.9800 C   0  0  0  0  0  0  0  0  0  0  0  0
   15.0896  -22.1256   25.5937 N   0  0  0  0  0  0  0  0  0  0  0  0
    8.2871  -22.6764   26.3297 C   0  0  0  0  0  0  0  0  0  0  0  0
    8.4928  -23.6227   27.3005 O   0  0  0  0  0  0  0  0  0  0  0  0
    7.4467  -21.7639   26.6511 O   0  0  0  0  0  0  0  0  0  0  0  0
  2  1  1  1
  2  4  1  0
  3  2  1  0
  4  5  1  6
  6  4  1  0
  6  7  2  0
  8  9  1  0
 10  9  1  1
 10 11  1  0
 10 12  1  0
 11  6  1  0
 12 14  1  0
 13 12  2  0
 14 15  1  0
 15 21  1  0
 16 17  1  0
 15 16  1  1
 18 19  1  0
 18 17  1  0
 20 19  1  0
 21 23  2  0
 21 22  1  0
M  END
$$$$
