TSK.pdb
     RDKit          3D

 23 22  0  0  1  0  0  0  0  0999 V2000
    4.9793  -20.6993   20.1541 C   0  0  0  0  0  0  0  0  0  0  0  0
    6.4333  -20.3136   20.3175 C   0  0  1  0  0  0  0  0  0  0  0  0
    7.0903  -21.2628   21.0801 O   0  0  0  0  0  0  0  0  0  0  0  0
    7.0905  -20.1220   18.9581 C   0  0  2  0  0  0  0  0  0  0  0  0
    7.0355  -21.3793   18.2410 N   0  0  0  0  0  0  0  0  0  0  0  0
    8.4708  -19.6472   19.1614 C   0  0  0  0  0  0  0  0  0  0  0  0
    9.3860  -20.5073   19.1614 O   0  0  0  0  0  0  0  0  0  0  0  0
    9.5876  -15.5488   18.8986 O   0  0  0  0  0  0  0  0  0  0  0  0
   10.4644  -16.5845   18.6975 C   0  0  0  0  0  0  0  0  0  0  0  0
   10.1548  -17.8076   19.5111 C   0  0  2  0  0  0  0  0  0  0  0  0
    8.8181  -18.2879   19.3550 N   0  0  0  0  0  0  0  0  0  0  0  0
   10.4414  -17.5129   20.9343 C   0  0  0  0  0  0  0  0  0  0  0  0
    9.5376  -17.0610   21.6822 O   0  0  0  0  0  0  0  0  0  0  0  0
   11.7161  -17.7240   21.4949 N   0  0  0  0  0  0  0  0  0  0  0  0
   11.9248  -17.3951   22.9755 C   0  0  1  0  0  0  0  0  0  0  0  0
   12.4460  -18.6539   23.5352 C   0  0  0  0  0  0  0  0  0  0  0  0
   11.8961  -19.2260   24.7581 C   0  0  0  0  0  0  0  0  0  0  0  0
   12.3075  -20.5870   25.1306 C   0  0  0  0  0  0  0  0  0  0  0  0
   11.4936  -21.0601   26.3653 C   0  0  0  0  0  0  0  0  0  0  0  0
   11.8474  -22.4188   26.6420 N   0  0  0  0  0  0  0  0  0  0  0  0
   12.9130  -16.2948   22.8755 C   0  0  0  0  0  0  0  0  0  0  0  0
   13.4658  -15.7530   21.7436 O   0  0  0  0  0  0  0  0  0  0  0  0
   13.3242  -15.7674   23.9687 O   0  0  0  0  0  0  0  0  0  0  0  0
  2  1  1  6
  2  4  1  0
  3  2  1  0
  4  5  1  1
  6  4  1  0
  6  7  2  0
  8  9  1  0
 10  9  1  6
 10 11  1  0
 10 12  1  0
 11  6  1  0
 12 14  1  0
 13 12  2  0
 14 15  1  0
 15 21  1  0
 16 17  1  0
 15 16  1  1
 18 19  1  0
 18 17  1  0
 20 19  1  0
 21 23  2  0
 21 22  1  0
M  END
$$$$
