TSK.pdb
     RDKit          3D

 23 22  0  0  1  0  0  0  0  0999 V2000
    8.3503  -16.5533   17.7475 C   0  0  0  0  0  0  0  0  0  0  0  0
    8.7492  -15.1897   17.2269 C   0  0  1  0  0  0  0  0  0  0  0  0
    8.4747  -15.1026   15.8737 O   0  0  0  0  0  0  0  0  0  0  0  0
    8.0545  -14.0917   18.0198 C   0  0  2  0  0  0  0  0  0  0  0  0
    8.3037  -12.8247   17.3637 N   0  0  0  0  0  0  0  0  0  0  0  0
    8.5551  -14.1186   19.4057 C   0  0  0  0  0  0  0  0  0  0  0  0
    9.7761  -13.8865   19.5860 O   0  0  0  0  0  0  0  0  0  0  0  0
    6.2642  -15.6475   22.6776 O   0  0  0  0  0  0  0  0  0  0  0  0
    7.1489  -14.6247   22.9078 C   0  0  0  0  0  0  0  0  0  0  0  0
    8.2293  -14.5129   21.8716 C   0  0  2  0  0  0  0  0  0  0  0  0
    7.7428  -14.3892   20.5338 N   0  0  0  0  0  0  0  0  0  0  0  0
    9.1254  -15.6861   21.9954 C   0  0  0  0  0  0  0  0  0  0  0  0
    9.1870  -16.5366   21.0717 O   0  0  0  0  0  0  0  0  0  0  0  0
    9.9292  -15.8904   23.1338 N   0  0  0  0  0  0  0  0  0  0  0  0
   10.8344  -17.1245   23.1749 C   0  0  1  0  0  0  0  0  0  0  0  0
   12.0650  -16.6684   22.5064 C   0  0  0  0  0  0  0  0  0  0  0  0
   13.0710  -17.6149   22.0404 C   0  0  0  0  0  0  0  0  0  0  0  0
   14.2731  -17.0796   21.3853 C   0  0  0  0  0  0  0  0  0  0  0  0
   15.1209  -18.2475   20.8128 C   0  0  0  0  0  0  0  0  0  0  0  0
   16.2570  -17.6912   20.1439 N   0  0  0  0  0  0  0  0  0  0  0  0
   10.9527  -17.3293   24.6383 C   0  0  0  0  0  0  0  0  0  0  0  0
   11.4436  -18.4232   25.3036 O   0  0  0  0  0  0  0  0  0  0  0  0
   10.5485  -16.3835   25.4029 O   0  0  0  0  0  0  0  0  0  0  0  0
  2  1  1  1
  2  4  1  0
  3  2  1  0
  4  5  1  6
  6  4  1  0
  6  7  2  0
  8  9  1  0
 10  9  1  1
 10 11  1  0
 10 12  1  0
 11  6  1  0
 12 14  1  0
 13 12  2  0
 14 15  1  0
 15 21  1  0
 16 17  1  0
 15 16  1  1
 18 19  1  0
 18 17  1  0
 20 19  1  0
 21 23  2  0
 21 22  1  0
M  END
$$$$
