TSK.pdb
     RDKit          3D

 23 22  0  0  1  0  0  0  0  0999 V2000
    8.5635  -19.6359   18.7825 C   0  0  0  0  0  0  0  0  0  0  0  0
    9.0268  -18.9629   17.5089 C   0  0  1  0  0  0  0  0  0  0  0  0
    8.7623  -19.7769   16.4220 O   0  0  0  0  0  0  0  0  0  0  0  0
    8.3800  -17.5927   17.3639 C   0  0  2  0  0  0  0  0  0  0  0  0
    8.7421  -17.0493   16.0710 N   0  0  0  0  0  0  0  0  0  0  0  0
    8.8233  -16.7386   18.4801 C   0  0  0  0  0  0  0  0  0  0  0  0
   10.0347  -16.4089   18.5126 O   0  0  0  0  0  0  0  0  0  0  0  0
    6.3788  -15.9140   21.8930 O   0  0  0  0  0  0  0  0  0  0  0  0
    7.2738  -14.9644   21.4696 C   0  0  0  0  0  0  0  0  0  0  0  0
    8.3968  -15.5168   20.6405 C   0  0  2  0  0  0  0  0  0  0  0  0
    7.9666  -16.2739   19.5077 N   0  0  0  0  0  0  0  0  0  0  0  0
    9.2708  -16.3339   21.5140 C   0  0  0  0  0  0  0  0  0  0  0  0
    9.0919  -17.5747   21.6069 O   0  0  0  0  0  0  0  0  0  0  0  0
   10.3184  -15.7615   22.2616 N   0  0  0  0  0  0  0  0  0  0  0  0
   11.1651  -16.6773   23.1494 C   0  0  1  0  0  0  0  0  0  0  0  0
   12.5022  -16.0616   23.0991 C   0  0  0  0  0  0  0  0  0  0  0  0
   13.6935  -16.8002   23.4994 C   0  0  0  0  0  0  0  0  0  0  0  0
   14.9800  -16.0892   23.5005 C   0  0  0  0  0  0  0  0  0  0  0  0
   16.1195  -17.0699   23.8882 C   0  0  0  0  0  0  0  0  0  0  0  0
   17.3479  -16.3370   23.9285 N   0  0  0  0  0  0  0  0  0  0  0  0
   10.4563  -16.5365   24.4437 C   0  0  0  0  0  0  0  0  0  0  0  0
   10.4290  -17.4169   25.4946 O   0  0  0  0  0  0  0  0  0  0  0  0
    9.7708  -15.4699   24.6301 O   0  0  0  0  0  0  0  0  0  0  0  0
  2  1  1  1
  2  4  1  0
  3  2  1  0
  4  5  1  6
  6  4  1  0
  6  7  2  0
  8  9  1  0
 10  9  1  1
 10 11  1  0
 10 12  1  0
 11  6  1  0
 12 14  1  0
 13 12  2  0
 14 15  1  0
 15 21  1  0
 16 17  1  0
 15 16  1  1
 18 19  1  0
 18 17  1  0
 20 19  1  0
 21 23  2  0
 21 22  1  0
M  END
$$$$
