TSK.pdb
     RDKit          3D

 23 22  0  0  1  0  0  0  0  0999 V2000
   10.2205  -15.4599   18.2212 C   0  0  0  0  0  0  0  0  0  0  0  0
    9.7545  -14.0335   18.0266 C   0  0  1  0  0  0  0  0  0  0  0  0
   10.1511  -13.5730   16.7837 O   0  0  0  0  0  0  0  0  0  0  0  0
    8.2474  -13.9342   18.2154 C   0  0  2  0  0  0  0  0  0  0  0  0
    7.8286  -12.5932   17.8627 N   0  0  0  0  0  0  0  0  0  0  0  0
    7.9205  -14.2799   19.6102 C   0  0  0  0  0  0  0  0  0  0  0  0
    8.0725  -13.3868   20.4801 O   0  0  0  0  0  0  0  0  0  0  0  0
    7.1958  -18.2820   21.0348 O   0  0  0  0  0  0  0  0  0  0  0  0
    6.4472  -17.2334   21.5059 C   0  0  0  0  0  0  0  0  0  0  0  0
    7.1183  -15.8980   21.3654 C   0  0  2  0  0  0  0  0  0  0  0  0
    7.4492  -15.5512   20.0193 N   0  0  0  0  0  0  0  0  0  0  0  0
    8.3278  -15.8851   22.2207 C   0  0  0  0  0  0  0  0  0  0  0  0
    9.4694  -15.9933   21.7055 O   0  0  0  0  0  0  0  0  0  0  0  0
    8.2466  -15.7534   23.6207 N   0  0  0  0  0  0  0  0  0  0  0  0
    9.5457  -15.7665   24.4305 C   0  0  1  0  0  0  0  0  0  0  0  0
    9.1599  -15.1394   25.7062 C   0  0  0  0  0  0  0  0  0  0  0  0
   10.0485  -15.1601   26.8616 C   0  0  0  0  0  0  0  0  0  0  0  0
    9.6234  -14.4454   28.0736 C   0  0  0  0  0  0  0  0  0  0  0  0
   10.7360  -14.5376   29.1527 C   0  0  0  0  0  0  0  0  0  0  0  0
   10.3453  -13.7332   30.2698 N   0  0  0  0  0  0  0  0  0  0  0  0
    9.8105  -17.2233   24.5009 C   0  0  0  0  0  0  0  0  0  0  0  0
    8.9072  -18.2527   24.4323 O   0  0  0  0  0  0  0  0  0  0  0  0
   11.0273  -17.5972   24.6492 O   0  0  0  0  0  0  0  0  0  0  0  0
  2  1  1  6
  2  4  1  0
  3  2  1  0
  4  5  1  1
  6  4  1  0
  6  7  2  0
  8  9  1  0
 10  9  1  6
 10 11  1  0
 10 12  1  0
 11  6  1  0
 12 14  1  0
 13 12  2  0
 14 15  1  0
 15 21  1  0
 16 17  1  0
 15 16  1  1
 18 19  1  0
 18 17  1  0
 20 19  1  0
 21 23  2  0
 21 22  1  0
M  END
$$$$
