MFR.pdb
     RDKit          3D

 31 31  0  0  1  0  0  0  0  0999 V2000
    8.1144  -12.0286   17.5715 C   0  0  0  0  0  0  0  0  0  0  0  0
    8.0154  -13.6332   16.7867 S   0  0  0  0  0  0  0  0  0  0  0  0
    8.2557  -14.9874   17.9229 C   0  0  0  0  0  0  0  0  0  0  0  0
    8.9977  -14.6761   19.1741 C   0  0  0  0  0  0  0  0  0  0  0  0
    9.1389  -15.8222   20.1117 C   0  0  2  0  0  0  0  0  0  0  0  0
    8.0368  -16.7549   20.0115 N   0  0  0  0  0  0  0  0  0  0  0  0
    9.1830  -15.2976   21.5093 C   0  0  0  0  0  0  0  0  0  0  0  0
   10.1844  -14.6163   21.8426 O   0  0  0  0  0  0  0  0  0  0  0  0
    8.1350  -15.5543   22.4366 N   0  0  0  0  0  0  0  0  0  0  0  0
    8.2074  -15.0182   23.7500 C   0  0  1  0  0  0  0  0  0  0  0  0
    6.9420  -14.3054   24.1709 C   0  0  0  0  0  0  0  0  0  0  0  0
    7.0098  -13.7201   25.5148 C   0  0  0  0  0  0  0  0  0  0  0  0
    6.4565  -14.3050   26.6268 C   0  0  0  0  0  0  0  0  0  0  0  0
    6.5313  -13.7388   27.8843 C   0  0  0  0  0  0  0  0  0  0  0  0
    7.1729  -12.5566   28.0519 C   0  0  0  0  0  0  0  0  0  0  0  0
    7.7428  -11.9317   26.9715 C   0  0  0  0  0  0  0  0  0  0  0  0
    7.6581  -12.5144   25.7155 C   0  0  0  0  0  0  0  0  0  0  0  0
    8.6865  -15.9767   24.7781 C   0  0  0  0  0  0  0  0  0  0  0  0
    8.0742  -17.0451   25.0526 O   0  0  0  0  0  0  0  0  0  0  0  0
   14.9052  -15.2571   23.6571 N   0  0  0  0  0  0  0  0  0  0  0  0
   14.7923  -16.3798   22.7949 C   0  0  0  0  0  0  0  0  0  0  0  0
   15.8047  -16.6813   22.0464 N   0  0  0  0  0  0  0  0  0  0  0  0
   13.5972  -17.1383   22.7682 N   0  0  0  0  0  0  0  0  0  0  0  0
   12.4701  -16.7302   23.5462 C   0  0  0  0  0  0  0  0  0  0  0  0
   12.1935  -17.7192   24.6679 C   0  0  0  0  0  0  0  0  0  0  0  0
   11.9851  -16.9215   25.9328 C   0  0  0  0  0  0  0  0  0  0  0  0
   10.5017  -16.8336   26.2844 C   0  0  2  0  0  0  0  0  0  0  0  0
    9.8785  -15.7627   25.5313 N   0  0  0  0  0  0  0  0  0  0  0  0
   10.3140  -16.5586   27.7243 C   0  0  0  0  0  0  0  0  0  0  0  0
   10.0057  -17.5032   28.6882 O   0  0  0  0  0  0  0  0  0  0  0  0
   10.4355  -15.3626   28.1648 O   0  0  0  0  0  0  0  0  0  0  0  0
  1  2  1  0
  3  2  1  0
  4  3  1  0
  5  4  1  0
  5  6  1  1
  7  5  1  0
  7  8  2  0
  9  7  1  0
 10 11  1  1
 10  9  1  0
 12 11  1  0
 12 17  2  0
 13 12  1  0
 14 13  2  0
 14 15  1  0
 15 16  2  0
 16 17  1  0
 18 10  1  0
 19 18  2  0
 20 21  1  0
 21 22  2  0
 23 21  1  0
 24 23  1  0
 24 25  1  0
 25 26  1  0
 27 26  1  1
 27 28  1  0
 28 18  1  0
 29 30  1  0
 29 27  1  0
 31 29  2  0
M  END
$$$$
