MFR.pdb
     RDKit          3D

 31 31  0  0  1  0  0  0  0  0999 V2000
    8.7178  -11.5760   19.0502 C   0  0  0  0  0  0  0  0  0  0  0  0
    7.7567  -12.7098   18.0545 S   0  0  0  0  0  0  0  0  0  0  0  0
    7.9922  -14.4186   18.5100 C   0  0  0  0  0  0  0  0  0  0  0  0
    9.2974  -14.7614   19.1361 C   0  0  0  0  0  0  0  0  0  0  0  0
    9.2629  -15.9516   20.0277 C   0  0  2  0  0  0  0  0  0  0  0  0
    8.0777  -16.7572   19.8254 N   0  0  0  0  0  0  0  0  0  0  0  0
    9.2784  -15.4893   21.4477 C   0  0  0  0  0  0  0  0  0  0  0  0
   10.3514  -15.0089   21.8904 O   0  0  0  0  0  0  0  0  0  0  0  0
    8.1262  -15.5852   22.2767 N   0  0  0  0  0  0  0  0  0  0  0  0
    8.1679  -15.0819   23.6043 C   0  0  1  0  0  0  0  0  0  0  0  0
    7.1993  -13.9446   23.8388 C   0  0  0  0  0  0  0  0  0  0  0  0
    7.2551  -13.3881   25.1954 C   0  0  0  0  0  0  0  0  0  0  0  0
    8.1341  -12.4053   25.5777 C   0  0  0  0  0  0  0  0  0  0  0  0
    8.1712  -11.8933   26.8598 C   0  0  0  0  0  0  0  0  0  0  0  0
    7.3131  -12.3654   27.7970 C   0  0  0  0  0  0  0  0  0  0  0  0
    6.4149  -13.3480   27.4648 C   0  0  0  0  0  0  0  0  0  0  0  0
    6.3915  -13.8510   26.1723 C   0  0  0  0  0  0  0  0  0  0  0  0
    8.0834  -16.1245   24.6584 C   0  0  0  0  0  0  0  0  0  0  0  0
    7.1583  -16.9816   24.6974 O   0  0  0  0  0  0  0  0  0  0  0  0
   14.5274  -19.3860   25.3992 N   0  0  0  0  0  0  0  0  0  0  0  0
   14.1277  -20.6339   24.8519 C   0  0  0  0  0  0  0  0  0  0  0  0
   14.9073  -21.6538   25.0193 N   0  0  0  0  0  0  0  0  0  0  0  0
   12.9056  -20.7416   24.1455 N   0  0  0  0  0  0  0  0  0  0  0  0
   12.1094  -19.5791   23.9063 C   0  0  0  0  0  0  0  0  0  0  0  0
   11.2944  -19.2125   25.1368 C   0  0  0  0  0  0  0  0  0  0  0  0
   10.5201  -17.9583   24.8091 C   0  0  0  0  0  0  0  0  0  0  0  0
    9.6922  -17.4993   26.0073 C   0  0  2  0  0  0  0  0  0  0  0  0
    9.0448  -16.2374   25.7057 N   0  0  0  0  0  0  0  0  0  0  0  0
   10.5452  -17.3100   27.1992 C   0  0  0  0  0  0  0  0  0  0  0  0
   10.7936  -18.2668   28.1685 O   0  0  0  0  0  0  0  0  0  0  0  0
   11.1234  -16.1847   27.3958 O   0  0  0  0  0  0  0  0  0  0  0  0
  1  2  1  0
  3  2  1  0
  4  3  1  0
  5  4  1  0
  5  6  1  1
  7  5  1  0
  7  8  2  0
  9  7  1  0
 10 11  1  1
 10  9  1  0
 12 11  1  0
 12 17  2  0
 13 12  1  0
 14 13  2  0
 14 15  1  0
 15 16  2  0
 16 17  1  0
 18 10  1  0
 19 18  2  0
 20 21  1  0
 21 22  2  0
 23 21  1  0
 24 23  1  0
 24 25  1  0
 25 26  1  0
 27 26  1  6
 27 28  1  0
 28 18  1  0
 29 30  1  0
 29 27  1  0
 31 29  2  0
M  END
$$$$
