MFR.pdb
     RDKit          3D

 31 31  0  0  1  0  0  0  0  0999 V2000
    5.6114  -18.2353   20.6639 C   0  0  0  0  0  0  0  0  0  0  0  0
    6.0853  -16.5140   20.5496 S   0  0  0  0  0  0  0  0  0  0  0  0
    7.5395  -16.2500   19.5505 C   0  0  0  0  0  0  0  0  0  0  0  0
    7.9736  -14.8379   19.3760 C   0  0  0  0  0  0  0  0  0  0  0  0
    7.4945  -13.9077   20.4333 C   0  0  2  0  0  0  0  0  0  0  0  0
    7.7907  -12.5248   20.1258 N   0  0  0  0  0  0  0  0  0  0  0  0
    8.1667  -14.2556   21.7207 C   0  0  0  0  0  0  0  0  0  0  0  0
    9.4087  -14.0818   21.7930 O   0  0  0  0  0  0  0  0  0  0  0  0
    7.4366  -14.7659   22.8301 N   0  0  0  0  0  0  0  0  0  0  0  0
    8.1069  -15.0328   24.0538 C   0  0  1  0  0  0  0  0  0  0  0  0
    7.2549  -14.7516   25.2710 C   0  0  0  0  0  0  0  0  0  0  0  0
    7.1897  -13.3314   25.6342 C   0  0  0  0  0  0  0  0  0  0  0  0
    8.2242  -12.4497   25.4413 C   0  0  0  0  0  0  0  0  0  0  0  0
    8.1437  -11.1156   25.7892 C   0  0  0  0  0  0  0  0  0  0  0  0
    7.0055  -10.6338   26.3459 C   0  0  0  0  0  0  0  0  0  0  0  0
    5.9427  -11.4749   26.5595 C   0  0  0  0  0  0  0  0  0  0  0  0
    6.0408  -12.8122   26.2041 C   0  0  0  0  0  0  0  0  0  0  0  0
    8.7625  -16.3638   24.1163 C   0  0  0  0  0  0  0  0  0  0  0  0
    8.1185  -17.4335   24.2978 O   0  0  0  0  0  0  0  0  0  0  0  0
   16.1455  -19.7588   23.5709 N   0  0  0  0  0  0  0  0  0  0  0  0
   16.0225  -18.8591   22.4791 C   0  0  0  0  0  0  0  0  0  0  0  0
   17.1005  -18.4934   21.8625 N   0  0  0  0  0  0  0  0  0  0  0  0
   14.7468  -18.3855   22.0886 N   0  0  0  0  0  0  0  0  0  0  0  0
   13.6385  -19.2847   22.0149 C   0  0  0  0  0  0  0  0  0  0  0  0
   12.7661  -19.1794   23.2561 C   0  0  0  0  0  0  0  0  0  0  0  0
   12.0991  -17.8251   23.2263 C   0  0  0  0  0  0  0  0  0  0  0  0
   10.7830  -17.8477   24.0003 C   0  0  2  0  0  0  0  0  0  0  0  0
   10.1712  -16.5334   23.9723 N   0  0  0  0  0  0  0  0  0  0  0  0
   11.0050  -18.2262   25.4115 C   0  0  0  0  0  0  0  0  0  0  0  0
   10.7311  -17.4281   26.5090 O   0  0  0  0  0  0  0  0  0  0  0  0
   11.4900  -19.3772   25.6930 O   0  0  0  0  0  0  0  0  0  0  0  0
  1  2  1  0
  3  2  1  0
  4  3  1  0
  5  4  1  0
  5  6  1  6
  7  5  1  0
  7  8  2  0
  9  7  1  0
 10 11  1  1
 10  9  1  0
 12 11  1  0
 12 17  2  0
 13 12  1  0
 14 13  2  0
 14 15  1  0
 15 16  2  0
 16 17  1  0
 18 10  1  0
 19 18  2  0
 20 21  1  0
 21 22  2  0
 23 21  1  0
 24 23  1  0
 24 25  1  0
 25 26  1  0
 27 26  1  6
 27 28  1  0
 28 18  1  0
 29 30  1  0
 29 27  1  0
 31 29  2  0
M  END
$$$$
