MFR.pdb
     RDKit          3D

 31 31  0  0  1  0  0  0  0  0999 V2000
    8.6153  -11.9541   18.3495 C   0  0  0  0  0  0  0  0  0  0  0  0
    7.5767  -13.3466   17.9221 S   0  0  0  0  0  0  0  0  0  0  0  0
    7.7281  -14.7120   19.0602 C   0  0  0  0  0  0  0  0  0  0  0  0
    9.1123  -15.1351   19.4038 C   0  0  0  0  0  0  0  0  0  0  0  0
    9.1943  -16.2236   20.4143 C   0  0  2  0  0  0  0  0  0  0  0  0
    8.0898  -17.1534   20.3132 N   0  0  0  0  0  0  0  0  0  0  0  0
    9.1719  -15.6161   21.7784 C   0  0  0  0  0  0  0  0  0  0  0  0
   10.2020  -15.0065   22.1597 O   0  0  0  0  0  0  0  0  0  0  0  0
    8.0314  -15.7185   22.6227 N   0  0  0  0  0  0  0  0  0  0  0  0
    8.0458  -15.1090   23.9057 C   0  0  1  0  0  0  0  0  0  0  0  0
    7.0500  -13.9787   24.0373 C   0  0  0  0  0  0  0  0  0  0  0  0
    7.0651  -13.3247   25.3508 C   0  0  0  0  0  0  0  0  0  0  0  0
    7.9391  -12.3218   25.6900 C   0  0  0  0  0  0  0  0  0  0  0  0
    7.9375  -11.7176   26.9319 C   0  0  0  0  0  0  0  0  0  0  0  0
    7.0447  -12.1149   27.8713 C   0  0  0  0  0  0  0  0  0  0  0  0
    6.1498  -13.1137   27.5814 C   0  0  0  0  0  0  0  0  0  0  0  0
    6.1655  -13.7098   26.3289 C   0  0  0  0  0  0  0  0  0  0  0  0
    7.9710  -16.0649   25.0397 C   0  0  0  0  0  0  0  0  0  0  0  0
    6.9153  -16.6883   25.3377 O   0  0  0  0  0  0  0  0  0  0  0  0
   11.8158  -18.5775   20.5112 N   0  0  0  0  0  0  0  0  0  0  0  0
   12.0541  -19.1072   21.8070 C   0  0  0  0  0  0  0  0  0  0  0  0
   13.2691  -19.4194   22.1270 N   0  0  0  0  0  0  0  0  0  0  0  0
   10.9798  -19.2817   22.7123 N   0  0  0  0  0  0  0  0  0  0  0  0
   11.2332  -19.6968   24.0561 C   0  0  0  0  0  0  0  0  0  0  0  0
   10.9734  -18.5634   25.0362 C   0  0  0  0  0  0  0  0  0  0  0  0
    9.5612  -18.7217   25.5465 C   0  0  0  0  0  0  0  0  0  0  0  0
    9.2196  -17.6275   26.5554 C   0  0  2  0  0  0  0  0  0  0  0  0
    9.0895  -16.3530   25.8763 N   0  0  0  0  0  0  0  0  0  0  0  0
   10.2780  -17.5019   27.5791 C   0  0  0  0  0  0  0  0  0  0  0  0
   11.0188  -16.3599   27.8316 O   0  0  0  0  0  0  0  0  0  0  0  0
   10.5710  -18.5055   28.3181 O   0  0  0  0  0  0  0  0  0  0  0  0
  1  2  1  0
  3  2  1  0
  4  3  1  0
  5  4  1  0
  5  6  1  1
  7  5  1  0
  7  8  2  0
  9  7  1  0
 10 11  1  6
 10  9  1  0
 12 11  1  0
 12 17  2  0
 13 12  1  0
 14 13  2  0
 14 15  1  0
 15 16  2  0
 16 17  1  0
 18 10  1  0
 19 18  2  0
 20 21  1  0
 21 22  2  0
 23 21  1  0
 24 23  1  0
 24 25  1  0
 25 26  1  0
 27 26  1  6
 27 28  1  0
 28 18  1  0
 29 30  1  0
 29 27  1  0
 31 29  2  0
M  END
$$$$
