MFR.pdb
     RDKit          3D

 31 31  0  0  1  0  0  0  0  0999 V2000
    7.8918  -12.5504   17.8675 C   0  0  0  0  0  0  0  0  0  0  0  0
    8.2037  -14.1279   17.0835 S   0  0  0  0  0  0  0  0  0  0  0  0
    8.8087  -15.3677   18.2147 C   0  0  0  0  0  0  0  0  0  0  0  0
    9.4080  -14.8695   19.4818 C   0  0  0  0  0  0  0  0  0  0  0  0
    9.6710  -15.9230   20.4986 C   0  0  2  0  0  0  0  0  0  0  0  0
    8.7252  -17.0154   20.4173 N   0  0  0  0  0  0  0  0  0  0  0  0
    9.5686  -15.3149   21.8587 C   0  0  0  0  0  0  0  0  0  0  0  0
   10.5650  -14.6820   22.2885 O   0  0  0  0  0  0  0  0  0  0  0  0
    8.3908  -15.4419   22.6466 N   0  0  0  0  0  0  0  0  0  0  0  0
    8.3175  -14.8054   23.9144 C   0  0  1  0  0  0  0  0  0  0  0  0
    7.1013  -13.9196   24.0646 C   0  0  0  0  0  0  0  0  0  0  0  0
    7.0436  -13.2029   25.3437 C   0  0  0  0  0  0  0  0  0  0  0  0
    7.8299  -12.1180   25.6427 C   0  0  0  0  0  0  0  0  0  0  0  0
    7.7608  -11.4558   26.8527 C   0  0  0  0  0  0  0  0  0  0  0  0
    6.8874  -11.8765   27.8000 C   0  0  0  0  0  0  0  0  0  0  0  0
    6.0792  -12.9567   27.5499 C   0  0  0  0  0  0  0  0  0  0  0  0
    6.1619  -13.6103   26.3291 C   0  0  0  0  0  0  0  0  0  0  0  0
    8.4991  -15.7192   25.0708 C   0  0  0  0  0  0  0  0  0  0  0  0
    8.5027  -15.3146   26.2659 O   0  0  0  0  0  0  0  0  0  0  0  0
    7.4064  -22.3905   26.2848 N   0  0  0  0  0  0  0  0  0  0  0  0
    6.0928  -22.3196   25.7501 C   0  0  0  0  0  0  0  0  0  0  0  0
    5.1921  -23.1153   26.2311 N   0  0  0  0  0  0  0  0  0  0  0  0
    5.7938  -21.3966   24.7191 N   0  0  0  0  0  0  0  0  0  0  0  0
    6.8418  -20.6490   24.0983 C   0  0  0  0  0  0  0  0  0  0  0  0
    7.0215  -19.2974   24.7717 C   0  0  0  0  0  0  0  0  0  0  0  0
    8.2284  -19.3984   25.6734 C   0  0  0  0  0  0  0  0  0  0  0  0
    8.7359  -18.0120   26.0634 C   0  0  2  0  0  0  0  0  0  0  0  0
    8.6801  -17.1255   24.9173 N   0  0  0  0  0  0  0  0  0  0  0  0
   10.1352  -18.0734   26.5348 C   0  0  0  0  0  0  0  0  0  0  0  0
   11.2196  -17.4831   25.9087 O   0  0  0  0  0  0  0  0  0  0  0  0
   10.4183  -18.7149   27.6061 O   0  0  0  0  0  0  0  0  0  0  0  0
  1  2  1  0
  3  2  1  0
  4  3  1  0
  5  4  1  0
  5  6  1  1
  7  5  1  0
  7  8  2  0
  9  7  1  0
 10 11  1  1
 10  9  1  0
 12 11  1  0
 12 17  2  0
 13 12  1  0
 14 13  2  0
 14 15  1  0
 15 16  2  0
 16 17  1  0
 18 10  1  0
 19 18  2  0
 20 21  1  0
 21 22  2  0
 23 21  1  0
 24 23  1  0
 24 25  1  0
 25 26  1  0
 27 26  1  6
 27 28  1  0
 28 18  1  0
 29 30  1  0
 29 27  1  0
 31 29  2  0
M  END
$$$$
