MFR.pdb
     RDKit          3D

 31 31  0  0  1  0  0  0  0  0999 V2000
    8.1383  -11.1672   19.1746 C   0  0  0  0  0  0  0  0  0  0  0  0
    6.8774  -12.2882   18.5797 S   0  0  0  0  0  0  0  0  0  0  0  0
    6.9742  -13.9100   19.3166 C   0  0  0  0  0  0  0  0  0  0  0  0
    7.7803  -14.0227   20.5618 C   0  0  0  0  0  0  0  0  0  0  0  0
    7.8461  -15.3938   21.1349 C   0  0  2  0  0  0  0  0  0  0  0  0
    6.5365  -15.9910   21.2864 N   0  0  0  0  0  0  0  0  0  0  0  0
    8.4869  -15.3218   22.4819 C   0  0  0  0  0  0  0  0  0  0  0  0
    9.6698  -14.9028   22.5408 O   0  0  0  0  0  0  0  0  0  0  0  0
    7.7921  -15.7108   23.6609 N   0  0  0  0  0  0  0  0  0  0  0  0
    8.4482  -15.6500   24.9194 C   0  0  1  0  0  0  0  0  0  0  0  0
    7.5022  -15.3899   26.0701 C   0  0  0  0  0  0  0  0  0  0  0  0
    7.0326  -14.0020   26.1500 C   0  0  0  0  0  0  0  0  0  0  0  0
    5.7121  -13.6400   26.0500 C   0  0  0  0  0  0  0  0  0  0  0  0
    5.2892  -12.3276   26.1284 C   0  0  0  0  0  0  0  0  0  0  0  0
    6.1978  -11.3385   26.3115 C   0  0  0  0  0  0  0  0  0  0  0  0
    7.5302  -11.6486   26.4174 C   0  0  0  0  0  0  0  0  0  0  0  0
    7.9375  -12.9721   26.3363 C   0  0  0  0  0  0  0  0  0  0  0  0
    9.3676  -16.7849   25.1873 C   0  0  0  0  0  0  0  0  0  0  0  0
    8.9577  -17.9315   25.5177 O   0  0  0  0  0  0  0  0  0  0  0  0
   16.0964  -15.6898   20.7526 N   0  0  0  0  0  0  0  0  0  0  0  0
   14.7818  -15.2570   20.4347 C   0  0  0  0  0  0  0  0  0  0  0  0
   14.6100  -14.5618   19.3562 N   0  0  0  0  0  0  0  0  0  0  0  0
   13.6995  -15.5870   21.2856 N   0  0  0  0  0  0  0  0  0  0  0  0
   13.9057  -16.4442   22.4103 C   0  0  0  0  0  0  0  0  0  0  0  0
   12.5861  -16.7914   23.0818 C   0  0  0  0  0  0  0  0  0  0  0  0
   12.9065  -17.5900   24.3225 C   0  0  0  0  0  0  0  0  0  0  0  0
   11.6511  -17.8256   25.1593 C   0  0  2  0  0  0  0  0  0  0  0  0
   10.7852  -16.6647   25.0877 N   0  0  0  0  0  0  0  0  0  0  0  0
   11.9960  -18.0605   26.5771 C   0  0  0  0  0  0  0  0  0  0  0  0
   12.5501  -19.2224   27.0862 O   0  0  0  0  0  0  0  0  0  0  0  0
   11.7823  -17.1433   27.4444 O   0  0  0  0  0  0  0  0  0  0  0  0
  1  2  1  0
  3  2  1  0
  4  3  1  0
  5  4  1  0
  5  6  1  1
  7  5  1  0
  7  8  2  0
  9  7  1  0
 10 11  1  1
 10  9  1  0
 12 11  1  0
 12 17  2  0
 13 12  1  0
 14 13  2  0
 14 15  1  0
 15 16  2  0
 16 17  1  0
 18 10  1  0
 19 18  2  0
 20 21  1  0
 21 22  2  0
 23 21  1  0
 24 23  1  0
 24 25  1  0
 25 26  1  0
 27 26  1  6
 27 28  1  0
 28 18  1  0
 29 30  1  0
 29 27  1  0
 31 29  2  0
M  END
$$$$
