RMH.pdb
     RDKit          3D

 30 30  0  0  1  0  0  0  0  0999 V2000
   29.3251  -31.3062  -17.0851 N   0  0  0  0  0  0  0  0  0  0  0  0
   30.3135  -30.3374  -17.3814 C   0  0  0  0  0  0  0  0  0  0  0  0
   31.5669  -30.6067  -17.2858 N   0  0  0  0  0  0  0  0  0  0  0  0
   29.9468  -29.0190  -17.7992 N   0  0  0  0  0  0  0  0  0  0  0  0
   28.8070  -28.7768  -18.6568 C   0  0  0  0  0  0  0  0  0  0  0  0
   28.7628  -27.3055  -19.0054 C   0  0  0  0  0  0  0  0  0  0  0  0
   27.5139  -26.6422  -18.4923 C   0  0  0  0  0  0  0  0  0  0  0  0
   27.6827  -26.3428  -17.0357 C   0  0  2  0  0  0  0  0  0  0  0  0
   27.3429  -27.4822  -16.2354 N   0  0  0  0  0  0  0  0  0  0  0  0
   26.9598  -25.1156  -16.6201 C   0  0  0  0  0  0  0  0  0  0  0  0
   25.8551  -25.2494  -16.0356 O   0  0  0  0  0  0  0  0  0  0  0  0
   32.2897  -29.9220  -17.5122 C   0  0  0  0  0  0  0  0  0  0  0  0
   27.6409  -17.4492  -14.8123 S   0  0  0  0  0  0  0  0  0  0  0  0
   28.3728  -19.0389  -15.2923 C   0  0  0  0  0  0  0  0  0  0  0  0
   27.0977  -20.2136  -15.8331 C   0  0  0  0  0  0  0  0  0  0  0  0
   27.7904  -21.5036  -16.2014 C   0  0  1  0  0  0  0  0  0  0  0  0
   26.8033  -22.6083  -16.5190 N   0  0  0  0  0  0  0  0  0  0  0  0
   27.5019  -23.8420  -16.8767 C   0  0  0  0  0  0  0  0  0  0  0  0
   25.9834  -22.1314  -17.6679 O   0  0  0  0  0  0  0  0  0  0  0  0
   26.5354  -21.9963  -18.7818 N   0  0  0  0  0  0  0  0  0  0  0  0
   24.6022  -21.8254  -17.5463 C   0  0  1  0  0  0  0  0  0  0  0  0
   23.7993  -21.2834  -18.6182 C   0  0  0  0  0  0  0  0  0  0  0  0
   22.3304  -21.2299  -18.2710 C   0  0  0  0  0  0  0  0  0  0  0  0
   21.6665  -22.5308  -18.4827 C   0  0  0  0  0  0  0  0  0  0  0  0
   22.2699  -23.6862  -18.9244 N   0  0  0  0  0  0  0  0  0  0  0  0
   21.2940  -24.6133  -18.9685 C   0  0  0  0  0  0  0  0  0  0  0  0
   20.1252  -24.0833  -18.5763 N   0  0  0  0  0  0  0  0  0  0  0  0
   20.3603  -22.8087  -18.2804 C   0  0  0  0  0  0  0  0  0  0  0  0
   24.2499  -19.8891  -18.8682 O   0  0  0  0  0  0  0  0  0  0  0  0
   24.4128  -19.4177  -20.1738 O   0  0  0  0  0  0  0  0  0  0  0  0
  2  1  1  0
  2  4  1  0
  3  2  2  0
  4  5  1  0
  5  6  1  0
  7  6  1  0
  7  8  1  0
  8 10  1  0
  8  9  1  1
 10 11  2  0
 13 14  1  0
 13 12  1  0
 14 15  1  0
 16 15  1  1
 17 16  1  0
 17 10  1  0
 18 20  1  0
 18 16  1  0
 19 18  2  0
 21 20  1  0
 21 22  1  6
 23 27  1  0
 23 22  1  0
 24 23  2  0
 25 24  1  0
 25 26  1  0
 26 27  2  0
 28 21  1  0
 29 28  1  0
 30 28  2  0
M  END
$$$$
