RMH.pdb
     RDKit          3D

 30 30  0  0  1  0  0  0  0  0999 V2000
   27.2581  -23.8881  -21.7634 N   0  0  0  0  0  0  0  0  0  0  0  0
   27.4262  -24.5229  -20.5096 C   0  0  0  0  0  0  0  0  0  0  0  0
   27.5945  -25.7942  -20.4184 N   0  0  0  0  0  0  0  0  0  0  0  0
   27.4139  -23.7652  -19.2959 N   0  0  0  0  0  0  0  0  0  0  0  0
   27.2719  -22.3254  -19.2936 C   0  0  0  0  0  0  0  0  0  0  0  0
   27.3901  -21.8259  -17.8707 C   0  0  0  0  0  0  0  0  0  0  0  0
   26.2356  -22.2760  -17.0178 C   0  0  0  0  0  0  0  0  0  0  0  0
   26.7420  -22.6207  -15.6523 C   0  0  2  0  0  0  0  0  0  0  0  0
   27.3530  -23.9172  -15.6444 N   0  0  0  0  0  0  0  0  0  0  0  0
   25.7008  -22.4725  -14.6057 C   0  0  0  0  0  0  0  0  0  0  0  0
   24.8058  -23.3520  -14.5333 O   0  0  0  0  0  0  0  0  0  0  0  0
   27.6987  -26.2664  -19.5191 C   0  0  0  0  0  0  0  0  0  0  0  0
   26.3012  -20.7097   -7.4358 S   0  0  0  0  0  0  0  0  0  0  0  0
   26.0612  -19.8978   -9.0409 C   0  0  0  0  0  0  0  0  0  0  0  0
   25.3715  -21.0496  -10.2641 C   0  0  0  0  0  0  0  0  0  0  0  0
   25.2416  -20.3053  -11.5713 C   0  0  2  0  0  0  0  0  0  0  0  0
   24.7133  -21.1922  -12.6803 N   0  0  0  0  0  0  0  0  0  0  0  0
   25.7215  -21.3757  -13.7234 C   0  0  0  0  0  0  0  0  0  0  0  0
   23.5145  -20.5075  -13.2405 O   0  0  0  0  0  0  0  0  0  0  0  0
   23.6693  -19.4142  -13.8272 N   0  0  0  0  0  0  0  0  0  0  0  0
   22.2059  -21.0484  -13.1338 C   0  0  1  0  0  0  0  0  0  0  0  0
   21.0081  -20.3447  -13.5302 C   0  0  0  0  0  0  0  0  0  0  0  0
   19.7922  -21.2402  -13.5555 C   0  0  0  0  0  0  0  0  0  0  0  0
   19.7321  -22.0533  -14.7856 C   0  0  0  0  0  0  0  0  0  0  0  0
   20.5688  -21.9414  -15.8725 N   0  0  0  0  0  0  0  0  0  0  0  0
   20.1508  -22.8722  -16.7517 C   0  0  0  0  0  0  0  0  0  0  0  0
   19.1015  -23.5469  -16.2573 N   0  0  0  0  0  0  0  0  0  0  0  0
   18.8505  -23.0407  -15.0539 C   0  0  0  0  0  0  0  0  0  0  0  0
   20.7535  -19.2743  -12.5307 O   0  0  0  0  0  0  0  0  0  0  0  0
   20.3023  -18.0153  -12.9363 O   0  0  0  0  0  0  0  0  0  0  0  0
  2  1  1  0
  2  4  1  0
  3  2  2  0
  4  5  1  0
  5  6  1  0
  7  6  1  0
  7  8  1  0
  8 10  1  0
  8  9  1  6
 10 11  2  0
 13 14  1  0
 13 12  1  0
 14 15  1  0
 16 15  1  1
 17 16  1  0
 17 10  1  0
 18 20  1  0
 18 16  1  0
 19 18  2  0
 21 20  1  0
 21 22  1  1
 23 27  1  0
 23 22  1  0
 24 23  2  0
 25 24  1  0
 25 26  1  0
 26 27  2  0
 28 21  1  0
 29 28  1  0
 30 28  2  0
M  END
$$$$
