RMH.pdb
     RDKit          3D

 30 30  0  0  1  0  0  0  0  0999 V2000
   23.8800  -13.6967  -17.5659 N   0  0  0  0  0  0  0  0  0  0  0  0
   23.1317  -14.8108  -17.1160 C   0  0  0  0  0  0  0  0  0  0  0  0
   21.8894  -14.9499  -17.4160 N   0  0  0  0  0  0  0  0  0  0  0  0
   23.7380  -15.8238  -16.3077 N   0  0  0  0  0  0  0  0  0  0  0  0
   25.0669  -15.6703  -15.7565 C   0  0  0  0  0  0  0  0  0  0  0  0
   25.8071  -16.9820  -15.8957 C   0  0  0  0  0  0  0  0  0  0  0  0
   27.1497  -16.9460  -15.2182 C   0  0  0  0  0  0  0  0  0  0  0  0
   27.7580  -18.3126  -15.2659 C   0  0  2  0  0  0  0  0  0  0  0  0
   28.1554  -18.6505  -16.6008 N   0  0  0  0  0  0  0  0  0  0  0  0
   26.8874  -19.3441  -14.6497 C   0  0  0  0  0  0  0  0  0  0  0  0
   26.1014  -19.9782  -15.3980 O   0  0  0  0  0  0  0  0  0  0  0  0
   21.3236  -15.7170  -17.0500 C   0  0  0  0  0  0  0  0  0  0  0  0
   30.3166  -21.9694   -9.2855 S   0  0  0  0  0  0  0  0  0  0  0  0
   28.5447  -21.6146   -9.4521 C   0  0  0  0  0  0  0  0  0  0  0  0
   28.0890  -21.3411  -11.1888 C   0  0  0  0  0  0  0  0  0  0  0  0
   26.6414  -20.9134  -11.2202 C   0  0  2  0  0  0  0  0  0  0  0  0
   26.1561  -20.6533  -12.6317 N   0  0  0  0  0  0  0  0  0  0  0  0
   26.9459  -19.5992  -13.2665 C   0  0  0  0  0  0  0  0  0  0  0  0
   24.7313  -20.2316  -12.5228 O   0  0  0  0  0  0  0  0  0  0  0  0
   24.4651  -19.1748  -11.9095 N   0  0  0  0  0  0  0  0  0  0  0  0
   23.6666  -20.9823  -13.0878 C   0  0  1  0  0  0  0  0  0  0  0  0
   22.2886  -20.5485  -13.0931 C   0  0  0  0  0  0  0  0  0  0  0  0
   21.9048  -19.8555  -14.3790 C   0  0  0  0  0  0  0  0  0  0  0  0
   20.4913  -19.4316  -14.3759 C   0  0  0  0  0  0  0  0  0  0  0  0
   19.9655  -18.3690  -13.6769 N   0  0  0  0  0  0  0  0  0  0  0  0
   18.6505  -18.3561  -13.9679 C   0  0  0  0  0  0  0  0  0  0  0  0
   18.3462  -19.3564  -14.8090 N   0  0  0  0  0  0  0  0  0  0  0  0
   19.4772  -20.0107  -15.0545 C   0  0  0  0  0  0  0  0  0  0  0  0
   21.4284  -21.7536  -12.9616 O   0  0  0  0  0  0  0  0  0  0  0  0
   20.1354  -21.6510  -12.4410 O   0  0  0  0  0  0  0  0  0  0  0  0
  2  1  1  0
  2  4  1  0
  3  2  2  0
  4  5  1  0
  5  6  1  0
  7  6  1  0
  7  8  1  0
  8 10  1  0
  8  9  1  6
 10 11  2  0
 13 14  1  0
 13 12  1  0
 14 15  1  0
 16 15  1  6
 17 16  1  0
 17 10  1  0
 18 20  1  0
 18 16  1  0
 19 18  2  0
 21 20  1  0
 21 22  1  1
 23 27  1  0
 23 22  1  0
 24 23  2  0
 25 24  1  0
 25 26  1  0
 26 27  2  0
 28 21  1  0
 29 28  1  0
 30 28  2  0
M  END
$$$$
