RMH.pdb
     RDKit          3D

 30 30  0  0  1  0  0  0  0  0999 V2000
   24.3940  -18.6754  -18.8250 N   0  0  0  0  0  0  0  0  0  0  0  0
   24.1369  -17.9083  -17.6636 C   0  0  0  0  0  0  0  0  0  0  0  0
   22.9822  -17.3867  -17.4461 N   0  0  0  0  0  0  0  0  0  0  0  0
   25.1606  -17.6872  -16.6887 N   0  0  0  0  0  0  0  0  0  0  0  0
   26.4802  -18.2660  -16.8192 C   0  0  0  0  0  0  0  0  0  0  0  0
   26.4911  -19.6147  -16.1344 C   0  0  0  0  0  0  0  0  0  0  0  0
   27.4095  -19.6343  -14.9432 C   0  0  0  0  0  0  0  0  0  0  0  0
   27.4800  -21.0284  -14.4034 C   0  0  2  0  0  0  0  0  0  0  0  0
   27.3311  -21.9928  -15.4532 N   0  0  0  0  0  0  0  0  0  0  0  0
   26.5342  -21.2524  -13.2824 C   0  0  0  0  0  0  0  0  0  0  0  0
   25.4259  -21.7858  -13.5414 O   0  0  0  0  0  0  0  0  0  0  0  0
   22.7809  -16.8404  -16.6073 C   0  0  0  0  0  0  0  0  0  0  0  0
   26.6149  -18.4572   -6.7753 S   0  0  0  0  0  0  0  0  0  0  0  0
   26.6123  -20.2688   -6.8825 C   0  0  0  0  0  0  0  0  0  0  0  0
   25.7194  -20.8392   -8.3576 C   0  0  0  0  0  0  0  0  0  0  0  0
   26.5826  -20.5394   -9.5595 C   0  0  2  0  0  0  0  0  0  0  0  0
   25.9463  -21.0157  -10.8493 N   0  0  0  0  0  0  0  0  0  0  0  0
   26.8754  -20.8756  -11.9696 C   0  0  0  0  0  0  0  0  0  0  0  0
   24.7430  -20.1657  -11.0715 O   0  0  0  0  0  0  0  0  0  0  0  0
   24.8619  -19.1282  -11.7593 N   0  0  0  0  0  0  0  0  0  0  0  0
   23.4693  -20.4884  -10.5332 C   0  0  1  0  0  0  0  0  0  0  0  0
   22.2304  -20.3690  -11.2668 C   0  0  0  0  0  0  0  0  0  0  0  0
   22.1727  -21.2936  -12.4596 C   0  0  0  0  0  0  0  0  0  0  0  0
   22.4041  -20.5735  -13.7268 C   0  0  0  0  0  0  0  0  0  0  0  0
   21.7771  -20.8223  -14.9264 N   0  0  0  0  0  0  0  0  0  0  0  0
   22.2930  -19.9349  -15.7984 C   0  0  0  0  0  0  0  0  0  0  0  0
   23.2032  -19.1568  -15.1927 N   0  0  0  0  0  0  0  0  0  0  0  0
   23.2662  -19.5529  -13.9252 C   0  0  0  0  0  0  0  0  0  0  0  0
   21.1194  -20.7472  -10.3546 O   0  0  0  0  0  0  0  0  0  0  0  0
   21.3462  -21.6059   -9.2756 O   0  0  0  0  0  0  0  0  0  0  0  0
  2  1  1  0
  2  4  1  0
  3  2  2  0
  4  5  1  0
  5  6  1  0
  7  6  1  0
  7  8  1  0
  8 10  1  0
  8  9  1  6
 10 11  2  0
 13 14  1  0
 13 12  1  0
 14 15  1  0
 16 15  1  1
 17 16  1  0
 17 10  1  0
 18 20  1  0
 18 16  1  0
 19 18  2  0
 21 20  1  0
 21 22  1  1
 23 27  1  0
 23 22  1  0
 24 23  2  0
 25 24  1  0
 25 26  1  0
 26 27  2  0
 28 21  1  0
 29 28  1  0
 30 28  2  0
M  END
$$$$
