RMH.pdb
     RDKit          3D

 30 30  0  0  1  0  0  0  0  0999 V2000
   27.8791  -17.8891  -18.4872 N   0  0  0  0  0  0  0  0  0  0  0  0
   26.7701  -18.6655  -18.9004 C   0  0  0  0  0  0  0  0  0  0  0  0
   26.1344  -18.4025  -19.9865 N   0  0  0  0  0  0  0  0  0  0  0  0
   26.3182  -19.7745  -18.1174 N   0  0  0  0  0  0  0  0  0  0  0  0
   26.4346  -19.7918  -16.6754 C   0  0  0  0  0  0  0  0  0  0  0  0
   27.7891  -19.2404  -16.2888 C   0  0  0  0  0  0  0  0  0  0  0  0
   28.0054  -19.2695  -14.8005 C   0  0  0  0  0  0  0  0  0  0  0  0
   28.1337  -20.6920  -14.3531 C   0  0  2  0  0  0  0  0  0  0  0  0
   28.1860  -21.5801  -15.4769 N   0  0  0  0  0  0  0  0  0  0  0  0
   27.0910  -21.0747  -13.3695 C   0  0  0  0  0  0  0  0  0  0  0  0
   26.0882  -21.7072  -13.7867 O   0  0  0  0  0  0  0  0  0  0  0  0
   25.3330  -18.9546  -20.2955 C   0  0  0  0  0  0  0  0  0  0  0  0
   27.8995  -19.6691   -7.1399 S   0  0  0  0  0  0  0  0  0  0  0  0
   26.1702  -20.2052   -7.0156 C   0  0  0  0  0  0  0  0  0  0  0  0
   25.5646  -20.8467   -8.6032 C   0  0  0  0  0  0  0  0  0  0  0  0
   26.5747  -20.4751   -9.6621 C   0  0  2  0  0  0  0  0  0  0  0  0
   26.1578  -20.9535  -11.0380 N   0  0  0  0  0  0  0  0  0  0  0  0
   27.2281  -20.7356  -12.0100 C   0  0  0  0  0  0  0  0  0  0  0  0
   24.9520  -20.1649  -11.4173 O   0  0  0  0  0  0  0  0  0  0  0  0
   25.1112  -19.0178  -11.8891 N   0  0  0  0  0  0  0  0  0  0  0  0
   23.6320  -20.6653  -11.2640 C   0  0  1  0  0  0  0  0  0  0  0  0
   22.5388  -20.3407  -12.1510 C   0  0  0  0  0  0  0  0  0  0  0  0
   22.6004  -21.1081  -13.4504 C   0  0  0  0  0  0  0  0  0  0  0  0
   21.4591  -20.7926  -14.3313 C   0  0  0  0  0  0  0  0  0  0  0  0
   20.4009  -19.9687  -14.0227 N   0  0  0  0  0  0  0  0  0  0  0  0
   19.6062  -19.9730  -15.1101 C   0  0  0  0  0  0  0  0  0  0  0  0
   20.1251  -20.7575  -16.0673 N   0  0  0  0  0  0  0  0  0  0  0  0
   21.2589  -21.2559  -15.5841 C   0  0  0  0  0  0  0  0  0  0  0  0
   21.2708  -20.7146  -11.4715 O   0  0  0  0  0  0  0  0  0  0  0  0
   20.1126  -19.9553  -11.6592 O   0  0  0  0  0  0  0  0  0  0  0  0
  2  1  1  0
  2  4  1  0
  3  2  2  0
  4  5  1  0
  5  6  1  0
  7  6  1  0
  7  8  1  0
  8 10  1  0
  8  9  1  6
 10 11  2  0
 13 14  1  0
 13 12  1  0
 14 15  1  0
 16 15  1  1
 17 16  1  0
 17 10  1  0
 18 20  1  0
 18 16  1  0
 19 18  2  0
 21 20  1  0
 21 22  1  1
 23 27  1  0
 23 22  1  0
 24 23  2  0
 25 24  1  0
 25 26  1  0
 26 27  2  0
 28 21  1  0
 29 28  1  0
 30 28  2  0
M  END
$$$$
