RMH.pdb
     RDKit          3D

 30 30  0  0  1  0  0  0  0  0999 V2000
   25.5497  -15.6737  -17.5416 N   0  0  0  0  0  0  0  0  0  0  0  0
   26.6339  -15.6687  -16.6317 C   0  0  0  0  0  0  0  0  0  0  0  0
   26.6367  -14.9078  -15.5955 N   0  0  0  0  0  0  0  0  0  0  0  0
   27.7688  -16.5154  -16.8378 N   0  0  0  0  0  0  0  0  0  0  0  0
   27.8506  -17.4271  -17.9582 C   0  0  0  0  0  0  0  0  0  0  0  0
   28.3202  -18.7748  -17.4571 C   0  0  0  0  0  0  0  0  0  0  0  0
   27.3850  -19.3509  -16.4293 C   0  0  0  0  0  0  0  0  0  0  0  0
   27.8948  -20.6915  -16.0016 C   0  0  2  0  0  0  0  0  0  0  0  0
   27.8628  -21.6232  -17.0903 N   0  0  0  0  0  0  0  0  0  0  0  0
   27.2053  -21.2021  -14.7911 C   0  0  0  0  0  0  0  0  0  0  0  0
   26.3373  -22.0991  -14.9391 O   0  0  0  0  0  0  0  0  0  0  0  0
   27.3642  -14.9632  -14.8812 C   0  0  0  0  0  0  0  0  0  0  0  0
   30.9727  -22.1033   -9.2908 S   0  0  0  0  0  0  0  0  0  0  0  0
   29.2221  -21.6499   -9.4428 C   0  0  0  0  0  0  0  0  0  0  0  0
   28.8860  -20.8495  -11.0381 C   0  0  0  0  0  0  0  0  0  0  0  0
   27.4169  -20.5032  -11.0758 C   0  0  2  0  0  0  0  0  0  0  0  0
   26.7412  -21.0279  -12.3263 N   0  0  0  0  0  0  0  0  0  0  0  0
   27.5197  -20.6916  -13.5174 C   0  0  0  0  0  0  0  0  0  0  0  0
   25.4003  -20.3817  -12.3905 O   0  0  0  0  0  0  0  0  0  0  0  0
   25.3369  -19.1329  -12.3866 N   0  0  0  0  0  0  0  0  0  0  0  0
   24.1943  -21.1285  -12.4561 C   0  0  1  0  0  0  0  0  0  0  0  0
   22.9043  -20.5515  -12.7563 C   0  0  0  0  0  0  0  0  0  0  0  0
   22.4926  -20.7703  -14.1929 C   0  0  0  0  0  0  0  0  0  0  0  0
   21.1874  -20.1501  -14.4925 C   0  0  0  0  0  0  0  0  0  0  0  0
   20.9327  -19.2424  -15.4952 N   0  0  0  0  0  0  0  0  0  0  0  0
   19.6213  -18.9507  -15.3983 C   0  0  0  0  0  0  0  0  0  0  0  0
   19.0620  -19.6338  -14.3878 N   0  0  0  0  0  0  0  0  0  0  0  0
   20.0259  -20.3658  -13.8377 C   0  0  0  0  0  0  0  0  0  0  0  0
   21.8925  -21.2184  -11.8955 O   0  0  0  0  0  0  0  0  0  0  0  0
   20.7099  -20.5599  -11.5474 O   0  0  0  0  0  0  0  0  0  0  0  0
  2  1  1  0
  2  4  1  0
  3  2  2  0
  4  5  1  0
  5  6  1  0
  7  6  1  0
  7  8  1  0
  8 10  1  0
  8  9  1  6
 10 11  2  0
 13 14  1  0
 13 12  1  0
 14 15  1  0
 16 15  1  1
 17 16  1  0
 17 10  1  0
 18 20  1  0
 18 16  1  0
 19 18  2  0
 21 20  1  0
 21 22  1  1
 23 27  1  0
 23 22  1  0
 24 23  2  0
 25 24  1  0
 25 26  1  0
 26 27  2  0
 28 21  1  0
 29 28  1  0
 30 28  2  0
M  END
$$$$
