RMH.pdb
     RDKit          3D

 30 30  0  0  1  0  0  0  0  0999 V2000
   19.0034  -26.7668  -13.1460 N   0  0  0  0  0  0  0  0  0  0  0  0
   19.8499  -26.5875  -14.2661 C   0  0  0  0  0  0  0  0  0  0  0  0
   20.6094  -27.5335  -14.6913 N   0  0  0  0  0  0  0  0  0  0  0  0
   19.8877  -25.3395  -14.9650 N   0  0  0  0  0  0  0  0  0  0  0  0
   19.3918  -24.1156  -14.3740 C   0  0  0  0  0  0  0  0  0  0  0  0
   20.2823  -23.7402  -13.2103 C   0  0  0  0  0  0  0  0  0  0  0  0
   20.4802  -22.2524  -13.1093 C   0  0  0  0  0  0  0  0  0  0  0  0
   21.7556  -21.8812  -13.7990 C   0  0  2  0  0  0  0  0  0  0  0  0
   22.5007  -23.0502  -14.1628 N   0  0  0  0  0  0  0  0  0  0  0  0
   22.5610  -20.9089  -13.0197 C   0  0  0  0  0  0  0  0  0  0  0  0
   22.0008  -19.8522  -12.6332 O   0  0  0  0  0  0  0  0  0  0  0  0
   21.2119  -27.4225  -15.5081 C   0  0  0  0  0  0  0  0  0  0  0  0
   25.4723  -21.1978   -7.6013 S   0  0  0  0  0  0  0  0  0  0  0  0
   26.8499  -20.5202   -8.5689 C   0  0  0  0  0  0  0  0  0  0  0  0
   26.2590  -19.7466  -10.1021 C   0  0  0  0  0  0  0  0  0  0  0  0
   25.4155  -20.7638  -10.8324 C   0  0  2  0  0  0  0  0  0  0  0  0
   24.7764  -20.1836  -12.0775 N   0  0  0  0  0  0  0  0  0  0  0  0
   23.9129  -21.1696  -12.7258 C   0  0  0  0  0  0  0  0  0  0  0  0
   25.8898  -19.7984  -12.9895 O   0  0  0  0  0  0  0  0  0  0  0  0
   26.5728  -20.7040  -13.5158 N   0  0  0  0  0  0  0  0  0  0  0  0
   26.2038  -18.4451  -13.2832 C   0  0  2  0  0  0  0  0  0  0  0  0
   26.9926  -18.0291  -14.4198 C   0  0  0  0  0  0  0  0  0  0  0  0
   27.7003  -19.1844  -15.0872 C   0  0  0  0  0  0  0  0  0  0  0  0
   28.5505  -18.7368  -16.2074 C   0  0  0  0  0  0  0  0  0  0  0  0
   28.7705  -17.4323  -16.5867 N   0  0  0  0  0  0  0  0  0  0  0  0
   29.6018  -17.4955  -17.6446 C   0  0  0  0  0  0  0  0  0  0  0  0
   29.9008  -18.7720  -17.9307 N   0  0  0  0  0  0  0  0  0  0  0  0
   29.2542  -19.5264  -17.0474 C   0  0  0  0  0  0  0  0  0  0  0  0
   26.0724  -17.4304  -15.4218 O   0  0  0  0  0  0  0  0  0  0  0  0
   24.6891  -17.4611  -15.2247 O   0  0  0  0  0  0  0  0  0  0  0  0
  2  1  1  0
  2  4  1  0
  3  2  2  0
  4  5  1  0
  5  6  1  0
  7  6  1  0
  7  8  1  0
  8 10  1  0
  8  9  1  1
 10 11  2  0
 13 14  1  0
 13 12  1  0
 14 15  1  0
 16 15  1  1
 17 16  1  0
 17 10  1  0
 18 20  1  0
 18 16  1  0
 19 18  2  0
 21 20  1  0
 21 22  1  1
 23 27  1  0
 23 22  1  0
 24 23  2  0
 25 24  1  0
 25 26  1  0
 26 27  2  0
 28 21  1  0
 29 28  1  0
 30 28  2  0
M  END
$$$$
