DVE.pdb
     RDKit          3D

 25 24  0  0  1  0  0  0  0  0999 V2000
   16.5796  -14.9319  -13.4965 N   0  0  0  0  0  0  0  0  0  0  0  0
   16.6431  -15.0006  -14.9240 C   0  0  1  0  0  0  0  0  0  0  0  0
   15.7715  -16.0749  -15.5190 C   0  0  0  0  0  0  0  0  0  0  0  0
   15.9422  -17.3615  -14.8368 C   0  0  0  0  0  0  0  0  0  0  0  0
   15.0898  -18.2662  -15.0374 O   0  0  0  0  0  0  0  0  0  0  0  0
   16.3006  -13.6853  -15.5160 C   0  0  0  0  0  0  0  0  0  0  0  0
   16.3564  -13.5118  -16.7578 O   0  0  0  0  0  0  0  0  0  0  0  0
   16.9867  -17.6661  -13.9729 O   0  0  0  0  0  0  0  0  0  0  0  0
   13.1265  -11.6183  -15.5309 C   0  0  0  0  0  0  0  0  0  0  0  0
   14.1829  -10.9087  -14.7526 C   0  0  2  0  0  0  0  0  0  0  0  0
   13.9696   -9.4201  -14.8427 C   0  0  0  0  0  0  0  0  0  0  0  0
   15.5844  -11.2661  -15.2417 C   0  0  2  0  0  0  0  0  0  0  0  0
   15.8998  -12.5765  -14.7247 N   0  0  0  0  0  0  0  0  0  0  0  0
   16.5053  -10.2771  -14.6452 C   0  0  0  0  0  0  0  0  0  0  0  0
   16.8153  -10.4131  -13.4297 O   0  0  0  0  0  0  0  0  0  0  0  0
   17.0493   -9.1897  -15.3822 N   0  0  0  0  0  0  0  0  0  0  0  0
   18.0923   -8.3892  -14.7309 C   0  0  1  0  0  0  0  0  0  0  0  0
   19.2529   -8.2079  -15.6557 C   0  0  0  0  0  0  0  0  0  0  0  0
   20.3312   -7.3856  -15.0265 C   0  0  0  0  0  0  0  0  0  0  0  0
   21.4762   -7.1711  -15.9702 C   0  0  0  0  0  0  0  0  0  0  0  0
   21.4691   -7.7023  -17.0919 O   0  0  0  0  0  0  0  0  0  0  0  0
   17.4684   -7.0852  -14.4316 C   0  0  0  0  0  0  0  0  0  0  0  0
   16.5236   -6.6918  -15.2057 O   0  0  0  0  0  0  0  0  0  0  0  0
   22.5301   -6.3826  -15.5811 O   0  0  0  0  0  0  0  0  0  0  0  0
   17.8328   -6.2716  -13.3771 O   0  0  0  0  0  0  0  0  0  0  0  0
  2  1  1  1
  2  6  1  0
  2  3  1  0
  4  3  1  0
  4  5  2  0
  6  7  2  0
  8  4  1  0
 10  9  1  6
 10 12  1  0
 11 10  1  0
 12 14  1  0
 13  6  1  0
 12 13  1  1
 14 15  2  0
 16 14  1  0
 16 17  1  0
 17 22  1  0
 18 19  1  0
 17 18  1  6
 19 20  1  0
 20 24  1  0
 21 20  2  0
 22 25  1  0
 23 22  2  0
M  END
$$$$
