DVE.pdb
     RDKit          3D

 25 24  0  0  1  0  0  0  0  0999 V2000
   22.4654  -14.6140  -17.2354 N   0  0  0  0  0  0  0  0  0  0  0  0
   22.6135  -13.3173  -17.8212 C   0  0  1  0  0  0  0  0  0  0  0  0
   21.3994  -12.8527  -18.5812 C   0  0  0  0  0  0  0  0  0  0  0  0
   21.0013  -13.8091  -19.6189 C   0  0  0  0  0  0  0  0  0  0  0  0
   21.8717  -14.2042  -20.4384 O   0  0  0  0  0  0  0  0  0  0  0  0
   22.9707  -12.3231  -16.7811 C   0  0  0  0  0  0  0  0  0  0  0  0
   22.3469  -12.2881  -15.6926 O   0  0  0  0  0  0  0  0  0  0  0  0
   19.7192  -14.3219  -19.7719 O   0  0  0  0  0  0  0  0  0  0  0  0
   26.6877  -11.3830  -15.8002 C   0  0  0  0  0  0  0  0  0  0  0  0
   25.9055  -10.1589  -16.1394 C   0  0  2  0  0  0  0  0  0  0  0  0
   26.3462   -9.0137  -15.2656 C   0  0  0  0  0  0  0  0  0  0  0  0
   24.4033  -10.3849  -15.9861 C   0  0  2  0  0  0  0  0  0  0  0  0
   24.0157  -11.3785  -16.9591 N   0  0  0  0  0  0  0  0  0  0  0  0
   23.7471   -9.1035  -16.3167 C   0  0  0  0  0  0  0  0  0  0  0  0
   23.8147   -8.6925  -17.5077 O   0  0  0  0  0  0  0  0  0  0  0  0
   23.0497   -8.3248  -15.3529 N   0  0  0  0  0  0  0  0  0  0  0  0
   22.3793   -7.1087  -15.8267 C   0  0  1  0  0  0  0  0  0  0  0  0
   20.8958   -7.2765  -15.7482 C   0  0  0  0  0  0  0  0  0  0  0  0
   20.1813   -6.0264  -16.1503 C   0  0  0  0  0  0  0  0  0  0  0  0
   18.6941   -6.2139  -16.1229 C   0  0  0  0  0  0  0  0  0  0  0  0
   18.2098   -7.3332  -15.8928 O   0  0  0  0  0  0  0  0  0  0  0  0
   22.8205   -6.0294  -14.9213 C   0  0  0  0  0  0  0  0  0  0  0  0
   23.2529   -6.3713  -13.7626 O   0  0  0  0  0  0  0  0  0  0  0  0
   17.8759   -5.1366  -16.3547 O   0  0  0  0  0  0  0  0  0  0  0  0
   22.8002   -4.6866  -15.2429 O   0  0  0  0  0  0  0  0  0  0  0  0
  2  1  1  1
  2  6  1  0
  2  3  1  0
  4  3  1  0
  4  5  2  0
  6  7  2  0
  8  4  1  0
 10  9  1  1
 10 12  1  0
 11 10  1  0
 12 14  1  0
 13  6  1  0
 12 13  1  6
 14 15  2  0
 16 14  1  0
 16 17  1  0
 17 22  1  0
 18 19  1  0
 17 18  1  1
 19 20  1  0
 20 24  1  0
 21 20  2  0
 22 25  1  0
 23 22  2  0
M  END
$$$$
