DVE.pdb
     RDKit          3D

 25 24  0  0  1  0  0  0  0  0999 V2000
   17.7243  -13.8043  -16.6541 N   0  0  0  0  0  0  0  0  0  0  0  0
   18.7535  -13.1012  -15.9521 C   0  0  1  0  0  0  0  0  0  0  0  0
   20.0789  -13.8160  -15.9431 C   0  0  0  0  0  0  0  0  0  0  0  0
   19.9979  -15.1155  -15.2687 C   0  0  0  0  0  0  0  0  0  0  0  0
   18.9004  -15.4600  -14.7568 O   0  0  0  0  0  0  0  0  0  0  0  0
   18.9171  -11.7386  -16.5128 C   0  0  0  0  0  0  0  0  0  0  0  0
   18.9225  -11.5574  -17.7547 O   0  0  0  0  0  0  0  0  0  0  0  0
   21.0532  -16.0109  -15.1479 O   0  0  0  0  0  0  0  0  0  0  0  0
   17.5716   -8.6940  -14.3406 C   0  0  0  0  0  0  0  0  0  0  0  0
   17.8936   -8.5106  -15.7856 C   0  0  2  0  0  0  0  0  0  0  0  0
   16.7466   -9.0012  -16.6300 C   0  0  0  0  0  0  0  0  0  0  0  0
   19.1785   -9.2367  -16.1771 C   0  0  2  0  0  0  0  0  0  0  0  0
   19.0728  -10.5917  -15.6904 N   0  0  0  0  0  0  0  0  0  0  0  0
   20.2817   -8.5544  -15.4707 C   0  0  0  0  0  0  0  0  0  0  0  0
   20.6745   -9.0405  -14.3745 O   0  0  0  0  0  0  0  0  0  0  0  0
   20.9106   -7.3830  -15.9749 N   0  0  0  0  0  0  0  0  0  0  0  0
   22.1499   -6.9489  -15.3203 C   0  0  1  0  0  0  0  0  0  0  0  0
   23.0842   -6.3610  -16.3285 C   0  0  0  0  0  0  0  0  0  0  0  0
   24.3521   -5.8907  -15.6912 C   0  0  0  0  0  0  0  0  0  0  0  0
   25.2528   -5.2278  -16.6898 C   0  0  0  0  0  0  0  0  0  0  0  0
   24.9240   -5.1692  -17.8851 O   0  0  0  0  0  0  0  0  0  0  0  0
   21.7463   -5.9235  -14.3380 C   0  0  0  0  0  0  0  0  0  0  0  0
   20.6857   -5.2476  -14.5929 O   0  0  0  0  0  0  0  0  0  0  0  0
   26.4421   -4.6876  -16.2686 O   0  0  0  0  0  0  0  0  0  0  0  0
   22.4315   -5.6516  -13.1704 O   0  0  0  0  0  0  0  0  0  0  0  0
  2  1  1  6
  2  6  1  0
  2  3  1  0
  4  3  1  0
  4  5  2  0
  6  7  2  0
  8  4  1  0
 10  9  1  1
 10 12  1  0
 11 10  1  0
 12 14  1  0
 13  6  1  0
 12 13  1  1
 14 15  2  0
 16 14  1  0
 16 17  1  0
 17 22  1  0
 18 19  1  0
 17 18  1  6
 19 20  1  0
 20 24  1  0
 21 20  2  0
 22 25  1  0
 23 22  2  0
M  END
$$$$
