DVE.pdb
     RDKit          3D

 25 24  0  0  1  0  0  0  0  0999 V2000
   27.3744  -21.8542  -16.1843 N   0  0  0  0  0  0  0  0  0  0  0  0
   26.9157  -20.7526  -15.3954 C   0  0  1  0  0  0  0  0  0  0  0  0
   26.2854  -19.6489  -16.2030 C   0  0  0  0  0  0  0  0  0  0  0  0
   27.1973  -19.1264  -17.2254 C   0  0  0  0  0  0  0  0  0  0  0  0
   28.3686  -18.8150  -16.8841 O   0  0  0  0  0  0  0  0  0  0  0  0
   25.9682  -21.2250  -14.3577 C   0  0  0  0  0  0  0  0  0  0  0  0
   25.2687  -22.2488  -14.5526 O   0  0  0  0  0  0  0  0  0  0  0  0
   26.8659  -18.9449  -18.5623 O   0  0  0  0  0  0  0  0  0  0  0  0
   26.6197  -20.8196  -10.3258 C   0  0  0  0  0  0  0  0  0  0  0  0
   25.3082  -20.2814  -10.7900 C   0  0  2  0  0  0  0  0  0  0  0  0
   24.2653  -20.4886   -9.7227 C   0  0  0  0  0  0  0  0  0  0  0  0
   24.8570  -20.9336  -12.0947 C   0  0  2  0  0  0  0  0  0  0  0  0
   25.8064  -20.5574  -13.1151 N   0  0  0  0  0  0  0  0  0  0  0  0
   23.5391  -20.3534  -12.4238 C   0  0  0  0  0  0  0  0  0  0  0  0
   23.4796  -19.1169  -12.6675 O   0  0  0  0  0  0  0  0  0  0  0  0
   22.3481  -21.1285  -12.4754 N   0  0  0  0  0  0  0  0  0  0  0  0
   21.1115  -20.4386  -12.8595 C   0  0  1  0  0  0  0  0  0  0  0  0
   20.5894  -20.9976  -14.1439 C   0  0  0  0  0  0  0  0  0  0  0  0
   20.0048  -19.9279  -15.0093 C   0  0  0  0  0  0  0  0  0  0  0  0
   19.5720  -20.4742  -16.3366 C   0  0  0  0  0  0  0  0  0  0  0  0
   19.1268  -21.6297  -16.4214 O   0  0  0  0  0  0  0  0  0  0  0  0
   20.1544  -20.6926  -11.7646 C   0  0  0  0  0  0  0  0  0  0  0  0
   20.3182  -21.7616  -11.0741 O   0  0  0  0  0  0  0  0  0  0  0  0
   19.6731  -19.6844  -17.4546 O   0  0  0  0  0  0  0  0  0  0  0  0
   19.1051  -19.8563  -11.4382 O   0  0  0  0  0  0  0  0  0  0  0  0
  2  1  1  6
  2  6  1  0
  2  3  1  0
  4  3  1  0
  4  5  2  0
  6  7  2  0
  8  4  1  0
 10  9  1  1
 10 12  1  0
 11 10  1  0
 12 14  1  0
 13  6  1  0
 12 13  1  6
 14 15  2  0
 16 14  1  0
 16 17  1  0
 17 22  1  0
 18 19  1  0
 17 18  1  6
 19 20  1  0
 20 24  1  0
 21 20  2  0
 22 25  1  0
 23 22  2  0
M  END
$$$$
