DVE.pdb
     RDKit          3D

 25 24  0  0  1  0  0  0  0  0999 V2000
   18.6438  -13.1346  -16.8224 N   0  0  0  0  0  0  0  0  0  0  0  0
   19.4625  -12.0790  -17.3343 C   0  0  1  0  0  0  0  0  0  0  0  0
   18.7411  -11.1563  -18.2808 C   0  0  0  0  0  0  0  0  0  0  0  0
   18.2552  -11.8608  -19.4714 C   0  0  0  0  0  0  0  0  0  0  0  0
   18.5530  -13.0757  -19.6148 O   0  0  0  0  0  0  0  0  0  0  0  0
   20.0512  -11.3003  -16.2186 C   0  0  0  0  0  0  0  0  0  0  0  0
   19.3724  -11.0408  -15.1952 O   0  0  0  0  0  0  0  0  0  0  0  0
   17.4797  -11.2845  -20.4697 O   0  0  0  0  0  0  0  0  0  0  0  0
   24.1790  -10.3239  -16.4112 C   0  0  0  0  0  0  0  0  0  0  0  0
   23.4686  -10.5025  -15.1117 C   0  0  2  0  0  0  0  0  0  0  0  0
   23.5406  -11.9455  -14.6851 C   0  0  0  0  0  0  0  0  0  0  0  0
   22.0114  -10.0546  -15.1955 C   0  0  2  0  0  0  0  0  0  0  0  0
   21.3862  -10.8177  -16.2494 N   0  0  0  0  0  0  0  0  0  0  0  0
   22.0289   -8.6278  -15.5774 C   0  0  0  0  0  0  0  0  0  0  0  0
   21.8543   -8.3370  -16.7927 O   0  0  0  0  0  0  0  0  0  0  0  0
   22.2330   -7.5816  -14.6364 N   0  0  0  0  0  0  0  0  0  0  0  0
   21.9057   -6.2170  -15.0647 C   0  0  1  0  0  0  0  0  0  0  0  0
   20.4694   -6.1371  -15.4715 C   0  0  0  0  0  0  0  0  0  0  0  0
   20.0957   -4.7522  -15.8926 C   0  0  0  0  0  0  0  0  0  0  0  0
   18.6695   -4.6860  -16.3502 C   0  0  0  0  0  0  0  0  0  0  0  0
   17.9603   -5.7044  -16.3334 O   0  0  0  0  0  0  0  0  0  0  0  0
   22.1530   -5.3581  -13.8897 C   0  0  0  0  0  0  0  0  0  0  0  0
   22.1123   -5.9138  -12.7338 O   0  0  0  0  0  0  0  0  0  0  0  0
   18.1580   -3.4896  -16.7870 O   0  0  0  0  0  0  0  0  0  0  0  0
   22.4266   -4.0063  -13.9574 O   0  0  0  0  0  0  0  0  0  0  0  0
  2  1  1  1
  2  6  1  0
  2  3  1  0
  4  3  1  0
  4  5  2  0
  6  7  2  0
  8  4  1  0
 10  9  1  6
 10 12  1  0
 11 10  1  0
 12 14  1  0
 13  6  1  0
 12 13  1  6
 14 15  2  0
 16 14  1  0
 16 17  1  0
 17 22  1  0
 18 19  1  0
 17 18  1  1
 19 20  1  0
 20 24  1  0
 21 20  2  0
 22 25  1  0
 23 22  2  0
M  END
$$$$
