DVE.pdb
     RDKit          3D

 25 24  0  0  1  0  0  0  0  0999 V2000
   17.9111  -12.1275  -17.7032 N   0  0  0  0  0  0  0  0  0  0  0  0
   18.8597  -11.1057  -18.0235 C   0  0  1  0  0  0  0  0  0  0  0  0
   18.2622   -9.9287  -18.7482 C   0  0  0  0  0  0  0  0  0  0  0  0
   17.8008  -10.2877  -20.0928 C   0  0  0  0  0  0  0  0  0  0  0  0
   17.9676  -11.4708  -20.4900 O   0  0  0  0  0  0  0  0  0  0  0  0
   19.5517  -10.6460  -16.7956 C   0  0  0  0  0  0  0  0  0  0  0  0
   18.9343  -10.5757  -15.7051 O   0  0  0  0  0  0  0  0  0  0  0  0
   17.1841   -9.4117  -20.9774 O   0  0  0  0  0  0  0  0  0  0  0  0
   23.0769  -11.8674  -15.6901 C   0  0  0  0  0  0  0  0  0  0  0  0
   23.0641  -10.3762  -15.7295 C   0  0  2  0  0  0  0  0  0  0  0  0
   23.9156   -9.8292  -14.6137 C   0  0  0  0  0  0  0  0  0  0  0  0
   21.6466   -9.8181  -15.6267 C   0  0  2  0  0  0  0  0  0  0  0  0
   20.9207  -10.2693  -16.7900 N   0  0  0  0  0  0  0  0  0  0  0  0
   21.7673   -8.3467  -15.6733 C   0  0  0  0  0  0  0  0  0  0  0  0
   21.7204   -7.7832  -16.8013 O   0  0  0  0  0  0  0  0  0  0  0  0
   21.9325   -7.5506  -14.5068 N   0  0  0  0  0  0  0  0  0  0  0  0
   21.8434   -6.0949  -14.6665 C   0  0  1  0  0  0  0  0  0  0  0  0
   20.4900   -5.7162  -15.1764 C   0  0  0  0  0  0  0  0  0  0  0  0
   20.3338   -4.2321  -15.2653 C   0  0  0  0  0  0  0  0  0  0  0  0
   18.9793   -3.8551  -15.7858 C   0  0  0  0  0  0  0  0  0  0  0  0
   18.8298   -3.5599  -16.9820 O   0  0  0  0  0  0  0  0  0  0  0  0
   22.0588   -5.5301  -13.3197 C   0  0  0  0  0  0  0  0  0  0  0  0
   22.3624   -4.2857  -13.2435 O   0  0  0  0  0  0  0  0  0  0  0  0
   17.9088   -3.8401  -14.9270 O   0  0  0  0  0  0  0  0  0  0  0  0
   21.9509   -6.2510  -12.1468 O   0  0  0  0  0  0  0  0  0  0  0  0
  2  1  1  1
  2  6  1  0
  2  3  1  0
  4  3  1  0
  4  5  2  0
  6  7  2  0
  8  4  1  0
 10  9  1  1
 10 12  1  0
 11 10  1  0
 12 14  1  0
 13  6  1  0
 12 13  1  6
 14 15  2  0
 16 14  1  0
 16 17  1  0
 17 22  1  0
 18 19  1  0
 17 18  1  1
 19 20  1  0
 20 24  1  0
 21 20  2  0
 22 25  1  0
 23 22  2  0
M  END
$$$$
