DVE.pdb
     RDKit          3D

 25 24  0  0  1  0  0  0  0  0999 V2000
   20.5145  -13.4909  -15.6219 N   0  0  0  0  0  0  0  0  0  0  0  0
   20.8350  -12.3843  -16.4699 C   0  0  1  0  0  0  0  0  0  0  0  0
   19.6290  -11.7077  -17.0662 C   0  0  0  0  0  0  0  0  0  0  0  0
   18.8152  -12.6341  -17.8594 C   0  0  0  0  0  0  0  0  0  0  0  0
   17.6368  -12.8715  -17.4848 O   0  0  0  0  0  0  0  0  0  0  0  0
   21.6575  -11.3954  -15.7328 C   0  0  0  0  0  0  0  0  0  0  0  0
   21.2738  -10.9474  -14.6249 O   0  0  0  0  0  0  0  0  0  0  0  0
   19.2485  -13.2811  -19.0100 O   0  0  0  0  0  0  0  0  0  0  0  0
   25.5807  -11.5951  -15.2639 C   0  0  0  0  0  0  0  0  0  0  0  0
   25.1824  -10.2964  -15.8802 C   0  0  2  0  0  0  0  0  0  0  0  0
   26.0967   -9.2009  -15.3970 C   0  0  0  0  0  0  0  0  0  0  0  0
   23.7308   -9.9413  -15.5671 C   0  0  2  0  0  0  0  0  0  0  0  0
   22.8965  -10.9140  -16.2318 N   0  0  0  0  0  0  0  0  0  0  0  0
   23.4845   -8.6099  -16.1575 C   0  0  0  0  0  0  0  0  0  0  0  0
   23.5458   -8.4971  -17.4127 O   0  0  0  0  0  0  0  0  0  0  0  0
   23.1842   -7.4633  -15.3721 N   0  0  0  0  0  0  0  0  0  0  0  0
   22.8463   -6.2271  -16.0864 C   0  0  1  0  0  0  0  0  0  0  0  0
   21.6802   -5.5583  -15.4322 C   0  0  0  0  0  0  0  0  0  0  0  0
   21.4425   -4.1951  -15.9978 C   0  0  0  0  0  0  0  0  0  0  0  0
   20.3142   -3.5010  -15.2958 C   0  0  0  0  0  0  0  0  0  0  0  0
   19.7134   -4.0664  -14.3685 O   0  0  0  0  0  0  0  0  0  0  0  0
   24.0450   -5.3704  -15.9940 C   0  0  0  0  0  0  0  0  0  0  0  0
   24.7334   -5.4338  -14.9129 O   0  0  0  0  0  0  0  0  0  0  0  0
   19.9538   -2.2363  -15.6888 O   0  0  0  0  0  0  0  0  0  0  0  0
   24.4697   -4.5155  -16.9917 O   0  0  0  0  0  0  0  0  0  0  0  0
  2  1  1  1
  2  6  1  0
  2  3  1  0
  4  3  1  0
  4  5  2  0
  6  7  2  0
  8  4  1  0
 10  9  1  1
 10 12  1  0
 11 10  1  0
 12 14  1  0
 13  6  1  0
 12 13  1  6
 14 15  2  0
 16 14  1  0
 16 17  1  0
 17 22  1  0
 18 19  1  0
 17 18  1  1
 19 20  1  0
 20 24  1  0
 21 20  2  0
 22 25  1  0
 23 22  2  0
M  END
$$$$
