DVE.pdb
     RDKit          3D

 25 24  0  0  1  0  0  0  0  0999 V2000
   18.7552  -12.6310  -17.6242 N   0  0  0  0  0  0  0  0  0  0  0  0
   19.5493  -11.5206  -18.0518 C   0  0  1  0  0  0  0  0  0  0  0  0
   18.7734  -10.4760  -18.8097 C   0  0  0  0  0  0  0  0  0  0  0  0
   18.1750  -11.0167  -20.0343 C   0  0  0  0  0  0  0  0  0  0  0  0
   16.9547  -10.7986  -20.2543 O   0  0  0  0  0  0  0  0  0  0  0  0
   20.2314  -10.9011  -16.8905 C   0  0  0  0  0  0  0  0  0  0  0  0
   19.5882  -10.6192  -15.8502 O   0  0  0  0  0  0  0  0  0  0  0  0
   18.8591  -11.7625  -20.9861 O   0  0  0  0  0  0  0  0  0  0  0  0
   23.9021  -12.0102  -15.7820 C   0  0  0  0  0  0  0  0  0  0  0  0
   23.7937  -10.5269  -15.8969 C   0  0  2  0  0  0  0  0  0  0  0  0
   24.6418   -9.8701  -14.8392 C   0  0  0  0  0  0  0  0  0  0  0  0
   22.3475  -10.0526  -15.7757 C   0  0  2  0  0  0  0  0  0  0  0  0
   21.6191  -10.6009  -16.8950 N   0  0  0  0  0  0  0  0  0  0  0  0
   22.3743   -8.5803  -15.8915 C   0  0  0  0  0  0  0  0  0  0  0  0
   22.7261   -8.0784  -16.9944 O   0  0  0  0  0  0  0  0  0  0  0  0
   22.0221   -7.7172  -14.8178 N   0  0  0  0  0  0  0  0  0  0  0  0
   22.0197   -6.2747  -15.0860 C   0  0  1  0  0  0  0  0  0  0  0  0
   20.6698   -5.8433  -15.5621 C   0  0  0  0  0  0  0  0  0  0  0  0
   20.5783   -4.3553  -15.6740 C   0  0  0  0  0  0  0  0  0  0  0  0
   19.2106   -3.9230  -16.1098 C   0  0  0  0  0  0  0  0  0  0  0  0
   18.3824   -4.7639  -16.4938 O   0  0  0  0  0  0  0  0  0  0  0  0
   22.3387   -5.6272  -13.7983 C   0  0  0  0  0  0  0  0  0  0  0  0
   22.7238   -4.4037  -13.8326 O   0  0  0  0  0  0  0  0  0  0  0  0
   18.8849   -2.5900  -16.0797 O   0  0  0  0  0  0  0  0  0  0  0  0
   22.2456   -6.2503  -12.5695 O   0  0  0  0  0  0  0  0  0  0  0  0
  2  1  1  1
  2  6  1  0
  2  3  1  0
  4  3  1  0
  4  5  2  0
  6  7  2  0
  8  4  1  0
 10  9  1  1
 10 12  1  0
 11 10  1  0
 12 14  1  0
 13  6  1  0
 12 13  1  6
 14 15  2  0
 16 14  1  0
 16 17  1  0
 17 22  1  0
 18 19  1  0
 17 18  1  1
 19 20  1  0
 20 24  1  0
 21 20  2  0
 22 25  1  0
 23 22  2  0
M  END
$$$$
