CDL.pdb
     RDKit          3D

 23 22  0  0  1  0  0  0  0  0999 V2000
    7.0965  -14.8564   18.9425 N   0  0  0  0  0  0  0  0  0  0  0  0
    8.1758  -14.4648   19.8128 C   0  0  1  0  0  0  0  0  0  0  0  0
    7.9193  -13.0717   20.4000 C   0  0  0  0  0  0  0  0  0  0  0  0
    8.1557  -11.8157   19.1419 S   0  0  0  0  0  0  0  0  0  0  0  0
    8.2174  -15.3899   21.0114 C   0  0  0  0  0  0  0  0  0  0  0  0
    7.1571  -15.9399   21.2979 O   0  0  0  0  0  0  0  0  0  0  0  0
    9.4325  -15.5422   21.6838 N   0  0  0  0  0  0  0  0  0  0  0  0
    9.7892  -16.4310   22.7251 C   0  0  1  0  0  0  0  0  0  0  0  0
   10.8990  -17.4197   22.4457 C   0  0  0  0  0  0  0  0  0  0  0  0
   11.1405  -18.3713   23.5602 C   0  0  0  0  0  0  0  0  0  0  0  0
   10.1658  -19.1269   23.8997 O   0  0  0  0  0  0  0  0  0  0  0  0
    9.9126  -15.7535   24.0242 C   0  0  0  0  0  0  0  0  0  0  0  0
   10.9672  -15.0847   24.3105 O   0  0  0  0  0  0  0  0  0  0  0  0
   12.3187  -18.4845   24.2314 O   0  0  0  0  0  0  0  0  0  0  0  0
    8.2624  -12.0913   25.7055 C   0  0  0  0  0  0  0  0  0  0  0  0
    7.4859  -13.3456   25.8451 C   0  0  2  0  0  0  0  0  0  0  0  0
    6.0341  -12.9692   26.1804 C   0  0  0  0  0  0  0  0  0  0  0  0
    7.9677  -14.4035   26.7495 C   0  0  0  0  0  0  0  0  0  0  0  0
    9.0981  -15.2587   26.3904 C   0  0  2  0  0  0  0  0  0  0  0  0
    8.9039  -15.7935   25.0174 N   0  0  0  0  0  0  0  0  0  0  0  0
    9.4819  -16.3279   27.2949 C   0  0  0  0  0  0  0  0  0  0  0  0
    9.4929  -17.5562   27.0802 O   0  0  0  0  0  0  0  0  0  0  0  0
    9.9025  -15.9610   28.6002 O   0  0  0  0  0  0  0  0  0  0  0  0
  2  1  1  6
  2  5  1  0
  3  2  1  0
  4  3  1  0
  5  6  2  0
  7  8  1  0
  7  5  1  0
  8 12  1  0
  8  9  1  6
 10  9  1  0
 11 10  2  0
 12 13  2  0
 12 20  1  0
 14 10  1  0
 16 17  1  1
 16 15  1  0
 18 16  1  0
 19 18  1  1
 20 19  1  0
 21 19  1  0
 21 23  1  0
 22 21  2  0
M  END
$$$$
