CDL.pdb
     RDKit          3D

 23 22  0  0  1  0  0  0  0  0999 V2000
    7.0874  -15.4001   18.5009 N   0  0  0  0  0  0  0  0  0  0  0  0
    7.8839  -14.7858   19.5324 C   0  0  1  0  0  0  0  0  0  0  0  0
    7.4346  -13.3398   19.7741 C   0  0  0  0  0  0  0  0  0  0  0  0
    8.3875  -12.6092   21.1062 S   0  0  0  0  0  0  0  0  0  0  0  0
    7.6374  -15.4943   20.8483 C   0  0  0  0  0  0  0  0  0  0  0  0
    6.4649  -15.7613   21.0991 O   0  0  0  0  0  0  0  0  0  0  0  0
    8.7392  -15.7825   21.6574 N   0  0  0  0  0  0  0  0  0  0  0  0
    8.8109  -16.5089   22.8694 C   0  0  1  0  0  0  0  0  0  0  0  0
    9.5701  -17.8167   22.8523 C   0  0  0  0  0  0  0  0  0  0  0  0
   10.9423  -17.6991   22.2965 C   0  0  0  0  0  0  0  0  0  0  0  0
   11.8696  -18.3421   22.8990 O   0  0  0  0  0  0  0  0  0  0  0  0
    9.1334  -15.6517   24.0196 C   0  0  0  0  0  0  0  0  0  0  0  0
   10.1351  -14.8543   23.9749 O   0  0  0  0  0  0  0  0  0  0  0  0
   11.2666  -16.9587   21.2018 O   0  0  0  0  0  0  0  0  0  0  0  0
    7.9794  -11.8367   25.5850 C   0  0  0  0  0  0  0  0  0  0  0  0
    7.1420  -12.9935   25.9800 C   0  0  2  0  0  0  0  0  0  0  0  0
    5.8220  -12.4503   26.5496 C   0  0  0  0  0  0  0  0  0  0  0  0
    7.7009  -14.0279   26.8672 C   0  0  0  0  0  0  0  0  0  0  0  0
    8.7933  -14.8975   26.4327 C   0  0  2  0  0  0  0  0  0  0  0  0
    8.3807  -15.6500   25.2193 N   0  0  0  0  0  0  0  0  0  0  0  0
    9.3981  -15.7974   27.3987 C   0  0  0  0  0  0  0  0  0  0  0  0
    9.3744  -17.0440   27.4152 O   0  0  0  0  0  0  0  0  0  0  0  0
   10.1149  -15.2141   28.4764 O   0  0  0  0  0  0  0  0  0  0  0  0
  2  1  1  6
  2  5  1  0
  3  2  1  0
  4  3  1  0
  5  6  2  0
  7  8  1  0
  7  5  1  0
  8 12  1  0
  8  9  1  6
 10  9  1  0
 11 10  2  0
 12 13  2  0
 12 20  1  0
 14 10  1  0
 16 17  1  1
 16 15  1  0
 18 16  1  0
 19 18  1  1
 20 19  1  0
 21 19  1  0
 21 23  1  0
 22 21  2  0
M  END
$$$$
