CDL.pdb
     RDKit          3D

 23 22  0  0  1  0  0  0  0  0999 V2000
    8.5132  -13.9669   17.6352 N   0  0  0  0  0  0  0  0  0  0  0  0
    8.8334  -13.7419   19.0217 C   0  0  1  0  0  0  0  0  0  0  0  0
    7.9861  -12.5994   19.5944 C   0  0  0  0  0  0  0  0  0  0  0  0
    8.3148  -12.4019   21.3463 S   0  0  0  0  0  0  0  0  0  0  0  0
    8.4425  -14.9598   19.8330 C   0  0  0  0  0  0  0  0  0  0  0  0
    7.8832  -15.8587   19.2101 O   0  0  0  0  0  0  0  0  0  0  0  0
    8.7416  -14.9657   21.1977 N   0  0  0  0  0  0  0  0  0  0  0  0
    9.0190  -16.0509   22.0620 C   0  0  1  0  0  0  0  0  0  0  0  0
    9.9834  -17.1053   21.5668 C   0  0  0  0  0  0  0  0  0  0  0  0
    9.9335  -18.3684   22.3466 C   0  0  0  0  0  0  0  0  0  0  0  0
   10.9396  -19.1520   22.2471 O   0  0  0  0  0  0  0  0  0  0  0  0
    9.2734  -15.6175   23.4437 C   0  0  0  0  0  0  0  0  0  0  0  0
   10.3702  -15.0297   23.7487 O   0  0  0  0  0  0  0  0  0  0  0  0
    8.8965  -18.7359   23.1473 O   0  0  0  0  0  0  0  0  0  0  0  0
    7.9583  -12.0987   25.8768 C   0  0  0  0  0  0  0  0  0  0  0  0
    7.0241  -13.2387   25.7242 C   0  0  2  0  0  0  0  0  0  0  0  0
    5.6394  -12.7851   26.2127 C   0  0  0  0  0  0  0  0  0  0  0  0
    7.3725  -14.5482   26.3016 C   0  0  0  0  0  0  0  0  0  0  0  0
    8.5623  -15.2806   25.8702 C   0  0  2  0  0  0  0  0  0  0  0  0
    8.3506  -15.8151   24.4997 N   0  0  0  0  0  0  0  0  0  0  0  0
    9.0979  -16.3171   26.7349 C   0  0  0  0  0  0  0  0  0  0  0  0
    9.0479  -17.5537   26.5828 O   0  0  0  0  0  0  0  0  0  0  0  0
    9.7698  -15.9020   27.9146 O   0  0  0  0  0  0  0  0  0  0  0  0
  2  1  1  6
  2  5  1  0
  3  2  1  0
  4  3  1  0
  5  6  2  0
  7  8  1  0
  7  5  1  0
  8 12  1  0
  8  9  1  6
 10  9  1  0
 11 10  2  0
 12 13  2  0
 12 20  1  0
 14 10  1  0
 16 17  1  1
 16 15  1  0
 18 16  1  0
 19 18  1  1
 20 19  1  0
 21 19  1  0
 21 23  1  0
 22 21  2  0
M  END
$$$$
