CDL.pdb
     RDKit          3D

 23 22  0  0  1  0  0  0  0  0999 V2000
    8.7667  -14.6652   17.6328 N   0  0  0  0  0  0  0  0  0  0  0  0
    8.8711  -14.1764   18.9840 C   0  0  1  0  0  0  0  0  0  0  0  0
    8.0077  -12.9236   19.1746 C   0  0  0  0  0  0  0  0  0  0  0  0
    8.2363  -12.2584   20.8243 S   0  0  0  0  0  0  0  0  0  0  0  0
    8.2872  -15.1993   19.9363 C   0  0  0  0  0  0  0  0  0  0  0  0
    7.5627  -16.0503   19.4266 O   0  0  0  0  0  0  0  0  0  0  0  0
    8.6106  -15.0972   21.2916 N   0  0  0  0  0  0  0  0  0  0  0  0
    8.8233  -16.1126   22.2536 C   0  0  1  0  0  0  0  0  0  0  0  0
    9.6682  -17.2966   21.8397 C   0  0  0  0  0  0  0  0  0  0  0  0
    8.9124  -18.5737   21.7817 C   0  0  0  0  0  0  0  0  0  0  0  0
    7.7121  -18.5583   22.2238 O   0  0  0  0  0  0  0  0  0  0  0  0
    9.1706  -15.5701   23.5753 C   0  0  0  0  0  0  0  0  0  0  0  0
   10.3471  -15.1170   23.8029 O   0  0  0  0  0  0  0  0  0  0  0  0
    9.4136  -19.7412   21.2944 O   0  0  0  0  0  0  0  0  0  0  0  0
    7.8894  -11.7629   25.6378 C   0  0  0  0  0  0  0  0  0  0  0  0
    6.9800  -12.9253   25.7708 C   0  0  2  0  0  0  0  0  0  0  0  0
    5.6621  -12.4278   26.3851 C   0  0  0  0  0  0  0  0  0  0  0  0
    7.4464  -14.1396   26.4616 C   0  0  0  0  0  0  0  0  0  0  0  0
    8.5896  -14.9069   25.9690 C   0  0  2  0  0  0  0  0  0  0  0  0
    8.2550  -15.5138   24.6543 N   0  0  0  0  0  0  0  0  0  0  0  0
    9.1938  -15.8995   26.8398 C   0  0  0  0  0  0  0  0  0  0  0  0
    9.7866  -15.7209   27.9222 O   0  0  0  0  0  0  0  0  0  0  0  0
    9.1181  -17.2579   26.4344 O   0  0  0  0  0  0  0  0  0  0  0  0
  2  1  1  6
  2  5  1  0
  3  2  1  0
  4  3  1  0
  5  6  2  0
  7  8  1  0
  7  5  1  0
  8 12  1  0
  8  9  1  6
 10  9  1  0
 11 10  2  0
 12 13  2  0
 12 20  1  0
 14 10  1  0
 16 17  1  1
 16 15  1  0
 18 16  1  0
 19 18  1  1
 20 19  1  0
 21 19  1  0
 21 23  1  0
 22 21  2  0
M  END
$$$$
