CDL.pdb
     RDKit          3D

 23 22  0  0  1  0  0  0  0  0999 V2000
    7.7667  -16.0336   18.0665 N   0  0  0  0  0  0  0  0  0  0  0  0
    8.3616  -15.2882   19.1464 C   0  0  1  0  0  0  0  0  0  0  0  0
    7.6268  -13.9587   19.3556 C   0  0  0  0  0  0  0  0  0  0  0  0
    8.3393  -13.0678   20.7394 S   0  0  0  0  0  0  0  0  0  0  0  0
    8.1726  -16.0450   20.4448 C   0  0  0  0  0  0  0  0  0  0  0  0
    7.0807  -16.5881   20.5918 O   0  0  0  0  0  0  0  0  0  0  0  0
    9.2322  -16.0656   21.3552 N   0  0  0  0  0  0  0  0  0  0  0  0
    9.3547  -16.7429   22.5912 C   0  0  1  0  0  0  0  0  0  0  0  0
   10.3217  -17.9039   22.6550 C   0  0  0  0  0  0  0  0  0  0  0  0
   10.2741  -18.6460   23.9407 C   0  0  0  0  0  0  0  0  0  0  0  0
   11.0739  -18.2621   24.8622 O   0  0  0  0  0  0  0  0  0  0  0  0
    9.4627  -15.8189   23.7297 C   0  0  0  0  0  0  0  0  0  0  0  0
   10.4208  -14.9703   23.7891 O   0  0  0  0  0  0  0  0  0  0  0  0
    9.4435  -19.6941   24.1920 O   0  0  0  0  0  0  0  0  0  0  0  0
    8.0718  -11.8029   26.4755 C   0  0  0  0  0  0  0  0  0  0  0  0
    7.1532  -12.8305   25.9317 C   0  0  2  0  0  0  0  0  0  0  0  0
    5.7175  -12.4259   26.3016 C   0  0  0  0  0  0  0  0  0  0  0  0
    7.3855  -14.2518   26.2406 C   0  0  0  0  0  0  0  0  0  0  0  0
    8.6726  -14.8913   25.9708 C   0  0  2  0  0  0  0  0  0  0  0  0
    8.5422  -15.8050   24.8059 N   0  0  0  0  0  0  0  0  0  0  0  0
    9.3627  -15.5616   27.0585 C   0  0  0  0  0  0  0  0  0  0  0  0
   10.1195  -15.0659   27.9166 O   0  0  0  0  0  0  0  0  0  0  0  0
    9.1732  -16.9625   27.1885 O   0  0  0  0  0  0  0  0  0  0  0  0
  2  1  1  6
  2  5  1  0
  3  2  1  0
  4  3  1  0
  5  6  2  0
  7  8  1  0
  7  5  1  0
  8 12  1  0
  8  9  1  6
 10  9  1  0
 11 10  2  0
 12 13  2  0
 12 20  1  0
 14 10  1  0
 16 17  1  1
 16 15  1  0
 18 16  1  0
 19 18  1  1
 20 19  1  0
 21 19  1  0
 21 23  1  0
 22 21  2  0
M  END
$$$$
