CDL.pdb
     RDKit          3D

 23 22  0  0  1  0  0  0  0  0999 V2000
    7.8282  -14.4990   17.9988 N   0  0  0  0  0  0  0  0  0  0  0  0
    8.8969  -14.3927   18.9591 C   0  0  1  0  0  0  0  0  0  0  0  0
    9.0397  -12.9478   19.4522 C   0  0  0  0  0  0  0  0  0  0  0  0
    7.4900  -12.3750   20.1499 S   0  0  0  0  0  0  0  0  0  0  0  0
    8.5440  -15.1923   20.1962 C   0  0  0  0  0  0  0  0  0  0  0  0
    7.3567  -15.4797   20.3249 O   0  0  0  0  0  0  0  0  0  0  0  0
    9.5743  -15.5330   21.0761 N   0  0  0  0  0  0  0  0  0  0  0  0
    9.5811  -16.4464   22.1565 C   0  0  1  0  0  0  0  0  0  0  0  0
   10.4947  -17.6465   22.0467 C   0  0  0  0  0  0  0  0  0  0  0  0
   10.2580  -18.6706   23.0960 C   0  0  0  0  0  0  0  0  0  0  0  0
   10.8547  -18.5035   24.2151 O   0  0  0  0  0  0  0  0  0  0  0  0
    9.6432  -15.7721   23.4616 C   0  0  0  0  0  0  0  0  0  0  0  0
   10.6734  -15.0844   23.7891 O   0  0  0  0  0  0  0  0  0  0  0  0
    9.4571  -19.7594   22.9395 O   0  0  0  0  0  0  0  0  0  0  0  0
    8.2192  -12.0919   26.5534 C   0  0  0  0  0  0  0  0  0  0  0  0
    7.2643  -12.9573   25.8221 C   0  0  2  0  0  0  0  0  0  0  0  0
    5.8414  -12.4943   26.1725 C   0  0  0  0  0  0  0  0  0  0  0  0
    7.3741  -14.4216   25.9359 C   0  0  0  0  0  0  0  0  0  0  0  0
    8.6440  -15.1116   25.7138 C   0  0  2  0  0  0  0  0  0  0  0  0
    8.5994  -15.8355   24.4166 N   0  0  0  0  0  0  0  0  0  0  0  0
    9.1591  -15.9821   26.7558 C   0  0  0  0  0  0  0  0  0  0  0  0
    9.8656  -15.6793   27.7376 O   0  0  0  0  0  0  0  0  0  0  0  0
    8.8356  -17.3620   26.6744 O   0  0  0  0  0  0  0  0  0  0  0  0
  2  1  1  6
  2  5  1  0
  3  2  1  0
  4  3  1  0
  5  6  2  0
  7  8  1  0
  7  5  1  0
  8 12  1  0
  8  9  1  6
 10  9  1  0
 11 10  2  0
 12 13  2  0
 12 20  1  0
 14 10  1  0
 16 17  1  1
 16 15  1  0
 18 16  1  0
 19 18  1  1
 20 19  1  0
 21 19  1  0
 21 23  1  0
 22 21  2  0
M  END
$$$$
