CDL.pdb
     RDKit          3D

 23 22  0  0  1  0  0  0  0  0999 V2000
    7.6632  -20.7707   19.3035 N   0  0  0  0  0  0  0  0  0  0  0  0
    8.2618  -19.4660   19.1803 C   0  0  1  0  0  0  0  0  0  0  0  0
    7.1825  -18.3783   19.1249 C   0  0  0  0  0  0  0  0  0  0  0  0
    6.0676  -18.6808   17.7531 S   0  0  0  0  0  0  0  0  0  0  0  0
    9.0601  -19.1579   20.4301 C   0  0  0  0  0  0  0  0  0  0  0  0
    8.6566  -19.6842   21.4641 O   0  0  0  0  0  0  0  0  0  0  0  0
   10.1693  -18.3167   20.3124 N   0  0  0  0  0  0  0  0  0  0  0  0
   11.0498  -17.8300   21.3071 C   0  0  1  0  0  0  0  0  0  0  0  0
   12.4978  -17.6332   20.9179 C   0  0  0  0  0  0  0  0  0  0  0  0
   12.6811  -17.2191   19.5034 C   0  0  0  0  0  0  0  0  0  0  0  0
   12.1729  -16.0976   19.1565 O   0  0  0  0  0  0  0  0  0  0  0  0
   10.4798  -16.7021   22.0586 C   0  0  0  0  0  0  0  0  0  0  0  0
   11.1163  -16.1918   23.0465 O   0  0  0  0  0  0  0  0  0  0  0  0
   13.3466  -17.9511   18.5690 O   0  0  0  0  0  0  0  0  0  0  0  0
    9.0773  -12.7566   20.2981 C   0  0  0  0  0  0  0  0  0  0  0  0
    7.9744  -13.7398   20.4100 C   0  0  2  0  0  0  0  0  0  0  0  0
    6.7275  -13.1302   19.7501 C   0  0  0  0  0  0  0  0  0  0  0  0
    7.6368  -14.3089   21.7259 C   0  0  0  0  0  0  0  0  0  0  0  0
    8.6355  -15.0055   22.5355 C   0  0  2  0  0  0  0  0  0  0  0  0
    9.2256  -16.1210   21.7504 N   0  0  0  0  0  0  0  0  0  0  0  0
    8.2635  -15.4678   23.8609 C   0  0  0  0  0  0  0  0  0  0  0  0
    8.1091  -16.6403   24.2562 O   0  0  0  0  0  0  0  0  0  0  0  0
    8.0380  -14.4825   24.8577 O   0  0  0  0  0  0  0  0  0  0  0  0
  2  1  1  1
  2  5  1  0
  3  2  1  0
  4  3  1  0
  5  6  2  0
  7  8  1  0
  7  5  1  0
  8 12  1  0
  8  9  1  6
 10  9  1  0
 11 10  2  0
 12 13  2  0
 12 20  1  0
 14 10  1  0
 16 17  1  1
 16 15  1  0
 18 16  1  0
 19 18  1  6
 20 19  1  0
 21 19  1  0
 21 23  1  0
 22 21  2  0
M  END
$$$$
