CDL.pdb
     RDKit          3D

 23 22  0  0  1  0  0  0  0  0999 V2000
    4.5673  -17.0200   22.7966 N   0  0  0  0  0  0  0  0  0  0  0  0
    5.0582  -18.3728   22.8633 C   0  0  1  0  0  0  0  0  0  0  0  0
    4.6737  -19.1511   21.5993 C   0  0  0  0  0  0  0  0  0  0  0  0
    2.9648  -18.8232   21.1654 S   0  0  0  0  0  0  0  0  0  0  0  0
    6.5728  -18.3596   22.8657 C   0  0  0  0  0  0  0  0  0  0  0  0
    7.1156  -19.4472   23.0429 O   0  0  0  0  0  0  0  0  0  0  0  0
    7.2210  -17.1374   22.6709 N   0  0  0  0  0  0  0  0  0  0  0  0
    8.6027  -16.8334   22.6612 C   0  0  1  0  0  0  0  0  0  0  0  0
    9.1534  -16.1396   21.4355 C   0  0  0  0  0  0  0  0  0  0  0  0
   10.6349  -16.0347   21.4282 C   0  0  0  0  0  0  0  0  0  0  0  0
   11.1398  -14.9856   20.8986 O   0  0  0  0  0  0  0  0  0  0  0  0
    9.0571  -16.2447   23.9295 C   0  0  0  0  0  0  0  0  0  0  0  0
   10.2927  -15.9547   24.1053 O   0  0  0  0  0  0  0  0  0  0  0  0
   11.4737  -16.9745   21.9429 O   0  0  0  0  0  0  0  0  0  0  0  0
    8.1704  -12.2761   25.5781 C   0  0  0  0  0  0  0  0  0  0  0  0
    7.2444  -13.3613   25.9787 C   0  0  2  0  0  0  0  0  0  0  0  0
    5.9935  -12.7138   26.5935 C   0  0  0  0  0  0  0  0  0  0  0  0
    7.7327  -14.4568   26.8336 C   0  0  0  0  0  0  0  0  0  0  0  0
    8.6619  -15.4653   26.3261 C   0  0  2  0  0  0  0  0  0  0  0  0
    8.1855  -15.9667   25.0106 N   0  0  0  0  0  0  0  0  0  0  0  0
    9.0243  -16.5785   27.1852 C   0  0  0  0  0  0  0  0  0  0  0  0
    8.8994  -17.7993   26.9636 O   0  0  0  0  0  0  0  0  0  0  0  0
    9.5958  -16.2712   28.4478 O   0  0  0  0  0  0  0  0  0  0  0  0
  2  1  1  6
  2  5  1  0
  3  2  1  0
  4  3  1  0
  5  6  2  0
  7  8  1  0
  7  5  1  0
  8 12  1  0
  8  9  1  6
 10  9  1  0
 11 10  2  0
 12 13  2  0
 12 20  1  0
 14 10  1  0
 16 17  1  1
 16 15  1  0
 18 16  1  0
 19 18  1  1
 20 19  1  0
 21 19  1  0
 21 23  1  0
 22 21  2  0
M  END
$$$$
