KQR.pdb
     RDKit          3D

 30 29  0  0  1  0  0  0  0  0999 V2000
   25.0464  -25.5774  -18.3314 N   0  0  0  0  0  0  0  0  0  0  0  0
   24.8801  -25.9781  -16.9629 C   0  0  1  0  0  0  0  0  0  0  0  0
   26.0826  -25.7512  -16.1315 C   0  0  0  0  0  0  0  0  0  0  0  0
   27.3491  -26.1445  -16.7961 C   0  0  0  0  0  0  0  0  0  0  0  0
   27.4015  -27.5825  -17.1786 C   0  0  0  0  0  0  0  0  0  0  0  0
   28.4949  -28.2093  -16.2809 C   0  0  0  0  0  0  0  0  0  0  0  0
   29.3388  -29.0659  -17.0735 N   0  0  0  0  0  0  0  0  0  0  0  0
   23.7377  -25.2104  -16.3722 C   0  0  0  0  0  0  0  0  0  0  0  0
   23.4494  -24.0542  -16.7567 O   0  0  0  0  0  0  0  0  0  0  0  0
   19.6643  -27.8364  -12.2669 N   0  0  0  0  0  0  0  0  0  0  0  0
   19.0709  -26.5589  -12.4626 C   0  0  0  0  0  0  0  0  0  0  0  0
   17.9849  -26.3295  -11.8848 O   0  0  0  0  0  0  0  0  0  0  0  0
   19.7986  -25.6109  -13.3400 C   0  0  0  0  0  0  0  0  0  0  0  0
   21.0697  -26.1438  -13.9167 C   0  0  0  0  0  0  0  0  0  0  0  0
   21.7434  -25.1740  -14.8218 C   0  0  2  0  0  0  0  0  0  0  0  0
   22.9738  -25.8010  -15.3649 N   0  0  0  0  0  0  0  0  0  0  0  0
   22.2305  -24.0085  -14.0592 C   0  0  0  0  0  0  0  0  0  0  0  0
   23.0287  -24.2022  -13.0759 O   0  0  0  0  0  0  0  0  0  0  0  0
   21.6600  -20.0211  -18.7767 N   0  0  0  0  0  0  0  0  0  0  0  0
   21.3923  -18.7364  -18.2363 C   0  0  0  0  0  0  0  0  0  0  0  0
   20.5164  -17.9895  -18.7834 N   0  0  0  0  0  0  0  0  0  0  0  0
   22.1082  -18.3120  -17.0962 N   0  0  0  0  0  0  0  0  0  0  0  0
   23.0310  -19.2146  -16.4437 C   0  0  0  0  0  0  0  0  0  0  0  0
   22.3901  -19.6815  -15.1572 C   0  0  0  0  0  0  0  0  0  0  0  0
   23.2544  -20.6260  -14.3855 C   0  0  0  0  0  0  0  0  0  0  0  0
   22.4809  -21.5915  -13.5075 C   0  0  2  0  0  0  0  0  0  0  0  0
   21.9018  -22.6593  -14.3132 N   0  0  0  0  0  0  0  0  0  0  0  0
   21.3840  -20.9067  -12.7851 C   0  0  0  0  0  0  0  0  0  0  0  0
   20.1703  -21.0857  -13.0583 O   0  0  0  0  0  0  0  0  0  0  0  0
   21.6736  -20.0248  -11.7580 O   0  0  0  0  0  0  0  0  0  0  0  0
  2  1  1  6
  2  3  1  0
  4  3  1  0
  5  4  1  0
  6  5  1  0
  7  6  1  0
  8  9  2  0
  8  2  1  0
 10 11  1  0
 11 12  2  0
 11 13  1  0
 13 14  1  0
 15 14  1  1
 15 16  1  0
 16  8  1  0
 17 15  1  0
 17 27  1  0
 18 17  2  0
 19 20  1  0
 20 22  1  0
 21 20  2  0
 22 23  1  0
 23 24  1  0
 24 25  1  0
 26 25  1  6
 26 27  1  0
 26 28  1  0
 28 29  2  0
 28 30  1  0
M  END
$$$$
