KQR.pdb
     RDKit          3D

 30 29  0  0  1  0  0  0  0  0999 V2000
   26.6873  -20.9150  -16.7143 N   0  0  0  0  0  0  0  0  0  0  0  0
   25.6481  -21.7786  -16.2293 C   0  0  1  0  0  0  0  0  0  0  0  0
   26.1539  -22.9296  -15.4493 C   0  0  0  0  0  0  0  0  0  0  0  0
   26.4724  -24.1174  -16.2788 C   0  0  0  0  0  0  0  0  0  0  0  0
   25.6334  -25.3069  -15.9658 C   0  0  0  0  0  0  0  0  0  0  0  0
   26.1230  -26.4210  -16.9216 C   0  0  0  0  0  0  0  0  0  0  0  0
   25.2896  -27.5862  -16.7730 N   0  0  0  0  0  0  0  0  0  0  0  0
   24.7252  -20.9803  -15.3611 C   0  0  0  0  0  0  0  0  0  0  0  0
   25.1331  -20.0166  -14.6735 O   0  0  0  0  0  0  0  0  0  0  0  0
   20.3950  -17.7187  -16.9606 N   0  0  0  0  0  0  0  0  0  0  0  0
   20.6848  -17.3123  -15.6290 C   0  0  0  0  0  0  0  0  0  0  0  0
   20.3595  -16.1515  -15.2932 O   0  0  0  0  0  0  0  0  0  0  0  0
   21.3512  -18.3082  -14.7559 C   0  0  0  0  0  0  0  0  0  0  0  0
   21.6722  -19.6066  -15.4218 C   0  0  0  0  0  0  0  0  0  0  0  0
   22.3803  -20.5566  -14.5218 C   0  0  2  0  0  0  0  0  0  0  0  0
   23.3727  -21.3207  -15.3175 N   0  0  0  0  0  0  0  0  0  0  0  0
   21.4471  -21.5815  -14.0158 C   0  0  0  0  0  0  0  0  0  0  0  0
   21.1288  -22.5595  -14.7797 O   0  0  0  0  0  0  0  0  0  0  0  0
   18.2417  -25.5758   -6.5269 N   0  0  0  0  0  0  0  0  0  0  0  0
   17.9527  -26.1197   -7.8054 C   0  0  0  0  0  0  0  0  0  0  0  0
   17.7883  -27.3768   -7.9361 N   0  0  0  0  0  0  0  0  0  0  0  0
   17.8534  -25.2489   -8.9120 N   0  0  0  0  0  0  0  0  0  0  0  0
   18.9146  -24.3058   -9.1881 C   0  0  0  0  0  0  0  0  0  0  0  0
   18.5477  -23.5509  -10.4448 C   0  0  0  0  0  0  0  0  0  0  0  0
   19.6124  -22.5975  -10.8831 C   0  0  0  0  0  0  0  0  0  0  0  0
   19.9073  -22.6446  -12.3704 C   0  0  2  0  0  0  0  0  0  0  0  0
   20.8552  -21.5989  -12.7343 N   0  0  0  0  0  0  0  0  0  0  0  0
   18.6765  -22.4565  -13.1728 C   0  0  0  0  0  0  0  0  0  0  0  0
   18.2087  -21.3234  -13.4501 O   0  0  0  0  0  0  0  0  0  0  0  0
   17.9869  -23.5561  -13.6543 O   0  0  0  0  0  0  0  0  0  0  0  0
  2  1  1  1
  2  3  1  0
  4  3  1  0
  5  4  1  0
  6  5  1  0
  7  6  1  0
  8  9  2  0
  8  2  1  0
 10 11  1  0
 11 12  2  0
 11 13  1  0
 13 14  1  0
 15 14  1  6
 15 16  1  0
 16  8  1  0
 17 15  1  0
 17 27  1  0
 18 17  2  0
 19 20  1  0
 20 22  1  0
 21 20  2  0
 22 23  1  0
 23 24  1  0
 24 25  1  0
 26 25  1  1
 26 27  1  0
 26 28  1  0
 28 29  2  0
 28 30  1  0
M  END
$$$$
