KQR.pdb
     RDKit          3D

 30 29  0  0  1  0  0  0  0  0999 V2000
   28.1495  -22.0215  -16.1597 N   0  0  0  0  0  0  0  0  0  0  0  0
   27.3097  -20.8778  -15.9410 C   0  0  1  0  0  0  0  0  0  0  0  0
   26.6184  -20.4114  -17.1630 C   0  0  0  0  0  0  0  0  0  0  0  0
   27.5249  -20.2092  -18.3197 C   0  0  0  0  0  0  0  0  0  0  0  0
   26.8309  -19.7258  -19.5451 C   0  0  0  0  0  0  0  0  0  0  0  0
   27.9351  -19.5961  -20.6214 C   0  0  0  0  0  0  0  0  0  0  0  0
   28.6551  -18.3637  -20.4292 N   0  0  0  0  0  0  0  0  0  0  0  0
   26.2793  -21.2274  -14.9118 C   0  0  0  0  0  0  0  0  0  0  0  0
   25.5877  -22.2678  -14.9958 O   0  0  0  0  0  0  0  0  0  0  0  0
   25.0625  -21.8252   -9.7413 N   0  0  0  0  0  0  0  0  0  0  0  0
   26.4087  -21.4058   -9.9262 C   0  0  0  0  0  0  0  0  0  0  0  0
   27.2975  -22.0107   -9.2859 O   0  0  0  0  0  0  0  0  0  0  0  0
   26.6360  -20.2821  -10.8663 C   0  0  0  0  0  0  0  0  0  0  0  0
   25.4115  -19.8057  -11.5775 C   0  0  0  0  0  0  0  0  0  0  0  0
   25.0794  -20.6313  -12.7700 C   0  0  2  0  0  0  0  0  0  0  0  0
   26.0849  -20.3688  -13.8292 N   0  0  0  0  0  0  0  0  0  0  0  0
   23.8000  -20.1938  -13.3609 C   0  0  0  0  0  0  0  0  0  0  0  0
   23.8196  -19.5301  -14.4566 O   0  0  0  0  0  0  0  0  0  0  0  0
   20.7970  -25.7226  -18.0656 N   0  0  0  0  0  0  0  0  0  0  0  0
   19.7327  -24.7858  -18.1287 C   0  0  0  0  0  0  0  0  0  0  0  0
   18.8304  -24.9119  -19.0199 N   0  0  0  0  0  0  0  0  0  0  0  0
   19.6978  -23.7274  -17.1953 N   0  0  0  0  0  0  0  0  0  0  0  0
   20.7541  -23.5903  -16.2169 C   0  0  0  0  0  0  0  0  0  0  0  0
   20.4945  -22.3270  -15.4293 C   0  0  0  0  0  0  0  0  0  0  0  0
   21.6327  -21.9544  -14.5346 C   0  0  0  0  0  0  0  0  0  0  0  0
   21.3865  -20.7030  -13.7133 C   0  0  2  0  0  0  0  0  0  0  0  0
   22.5164  -20.4442  -12.8295 N   0  0  0  0  0  0  0  0  0  0  0  0
   20.1666  -20.8313  -12.8831 C   0  0  0  0  0  0  0  0  0  0  0  0
   20.1704  -21.3536  -11.7399 O   0  0  0  0  0  0  0  0  0  0  0  0
   18.9521  -20.3653  -13.3570 O   0  0  0  0  0  0  0  0  0  0  0  0
  2  1  1  6
  2  3  1  0
  4  3  1  0
  5  4  1  0
  6  5  1  0
  7  6  1  0
  8  9  2  0
  8  2  1  0
 10 11  1  0
 11 12  2  0
 11 13  1  0
 13 14  1  0
 15 14  1  1
 15 16  1  0
 16  8  1  0
 17 15  1  0
 17 27  1  0
 18 17  2  0
 19 20  1  0
 20 22  1  0
 21 20  2  0
 22 23  1  0
 23 24  1  0
 24 25  1  0
 26 25  1  1
 26 27  1  0
 26 28  1  0
 28 29  2  0
 28 30  1  0
M  END
$$$$
