KQR.pdb
     RDKit          3D

 30 29  0  0  1  0  0  0  0  0999 V2000
   28.5534  -21.1369  -17.1554 N   0  0  0  0  0  0  0  0  0  0  0  0
   28.0979  -20.2698  -16.1058 C   0  0  1  0  0  0  0  0  0  0  0  0
   27.7150  -18.9214  -16.5792 C   0  0  0  0  0  0  0  0  0  0  0  0
   27.4991  -18.8437  -18.0448 C   0  0  0  0  0  0  0  0  0  0  0  0
   28.5717  -18.1072  -18.7685 C   0  0  0  0  0  0  0  0  0  0  0  0
   28.0999  -18.0308  -20.2402 C   0  0  0  0  0  0  0  0  0  0  0  0
   29.0782  -17.3233  -21.0254 N   0  0  0  0  0  0  0  0  0  0  0  0
   26.9116  -20.8991  -15.4427 C   0  0  0  0  0  0  0  0  0  0  0  0
   26.3331  -21.8964  -15.9312 O   0  0  0  0  0  0  0  0  0  0  0  0
   25.8102  -20.0615   -9.3195 N   0  0  0  0  0  0  0  0  0  0  0  0
   24.7973  -21.0028   -9.6518 C   0  0  0  0  0  0  0  0  0  0  0  0
   24.1644  -21.5302   -8.7100 O   0  0  0  0  0  0  0  0  0  0  0  0
   24.5844  -21.2748  -11.0936 C   0  0  0  0  0  0  0  0  0  0  0  0
   25.5835  -20.6375  -12.0035 C   0  0  0  0  0  0  0  0  0  0  0  0
   25.3910  -21.0188  -13.4287 C   0  0  2  0  0  0  0  0  0  0  0  0
   26.4381  -20.3583  -14.2468 N   0  0  0  0  0  0  0  0  0  0  0  0
   24.1216  -20.4698  -13.9432 C   0  0  0  0  0  0  0  0  0  0  0  0
   23.8605  -19.2304  -13.7507 O   0  0  0  0  0  0  0  0  0  0  0  0
   17.2002  -24.6144  -14.1703 N   0  0  0  0  0  0  0  0  0  0  0  0
   18.4960  -25.1788  -14.2985 C   0  0  0  0  0  0  0  0  0  0  0  0
   18.6843  -26.1582  -15.0921 N   0  0  0  0  0  0  0  0  0  0  0  0
   19.5552  -24.6382  -13.5379 N   0  0  0  0  0  0  0  0  0  0  0  0
   19.3019  -23.5578  -12.6102 C   0  0  0  0  0  0  0  0  0  0  0  0
   19.7834  -22.2760  -13.2498 C   0  0  0  0  0  0  0  0  0  0  0  0
   21.2244  -22.3277  -13.6441 C   0  0  0  0  0  0  0  0  0  0  0  0
   21.7278  -21.0588  -14.3058 C   0  0  2  0  0  0  0  0  0  0  0  0
   23.1373  -21.1910  -14.6529 N   0  0  0  0  0  0  0  0  0  0  0  0
   21.5765  -19.8861  -13.4137 C   0  0  0  0  0  0  0  0  0  0  0  0
   22.0782  -19.8346  -12.2625 O   0  0  0  0  0  0  0  0  0  0  0  0
   20.8574  -18.7809  -13.8359 O   0  0  0  0  0  0  0  0  0  0  0  0
  2  1  1  6
  2  3  1  0
  4  3  1  0
  5  4  1  0
  6  5  1  0
  7  6  1  0
  8  9  2  0
  8  2  1  0
 10 11  1  0
 11 12  2  0
 11 13  1  0
 13 14  1  0
 15 14  1  1
 15 16  1  0
 16  8  1  0
 17 15  1  0
 17 27  1  0
 18 17  2  0
 19 20  1  0
 20 22  1  0
 21 20  2  0
 22 23  1  0
 23 24  1  0
 24 25  1  0
 26 25  1  1
 26 27  1  0
 26 28  1  0
 28 29  2  0
 28 30  1  0
M  END
$$$$
