YRP.pdb
     RDKit          3D

 31 32  0  0  1  0  0  0  0  0999 V2000
   14.9879  -14.8711  -11.7063 O   0  0  0  0  0  0  0  0  0  0  0  0
   16.0081  -15.7925  -11.9127 C   0  0  0  0  0  0  0  0  0  0  0  0
   17.2457  -15.3989  -12.3637 C   0  0  0  0  0  0  0  0  0  0  0  0
   18.2445  -16.3560  -12.5581 C   0  0  0  0  0  0  0  0  0  0  0  0
   18.0236  -17.6910  -12.3085 C   0  0  0  0  0  0  0  0  0  0  0  0
   19.1126  -18.6743  -12.5288 C   0  0  0  0  0  0  0  0  0  0  0  0
   18.9950  -19.1328  -13.9682 C   0  0  2  0  0  0  0  0  0  0  0  0
   17.8960  -20.0160  -14.1811 N   0  0  0  0  0  0  0  0  0  0  0  0
   20.2784  -19.7285  -14.3948 C   0  0  0  0  0  0  0  0  0  0  0  0
   20.6309  -20.8944  -14.0409 O   0  0  0  0  0  0  0  0  0  0  0  0
   16.7800  -18.0857  -11.8559 C   0  0  0  0  0  0  0  0  0  0  0  0
   15.7986  -17.1287  -11.6676 C   0  0  0  0  0  0  0  0  0  0  0  0
   27.4760  -17.2151  -15.5166 N   0  0  0  0  0  0  0  0  0  0  0  0
   27.8815  -18.0983  -16.5531 C   0  0  0  0  0  0  0  0  0  0  0  0
   29.0631  -18.5445  -16.5673 N   0  0  0  0  0  0  0  0  0  0  0  0
   26.8953  -18.4312  -17.5378 N   0  0  0  0  0  0  0  0  0  0  0  0
   25.5273  -17.9672  -17.2555 C   0  0  0  0  0  0  0  0  0  0  0  0
   24.7745  -19.0075  -16.5054 C   0  0  0  0  0  0  0  0  0  0  0  0
   23.3596  -18.6872  -16.2871 C   0  0  0  0  0  0  0  0  0  0  0  0
   22.5293  -19.5819  -15.4102 C   0  0  2  0  0  0  0  0  0  0  0  0
   21.2243  -19.0412  -15.2396 N   0  0  0  0  0  0  0  0  0  0  0  0
   23.2574  -19.7062  -14.1191 C   0  0  0  0  0  0  0  0  0  0  0  0
   23.0212  -18.9026  -13.2144 O   0  0  0  0  0  0  0  0  0  0  0  0
   29.5147  -19.1903  -17.2243 N   0  0  0  0  0  0  0  0  0  0  0  0
   24.1993  -20.7352  -13.9443 C   0  0  0  0  0  0  0  0  0  0  0  0
   24.5283  -21.7445  -14.9729 C   0  0  0  0  0  0  0  0  0  0  0  0
   24.6811  -23.0017  -14.1579 C   0  0  0  0  0  0  0  0  0  0  0  0
   24.6359  -22.5690  -12.6840 C   0  0  2  0  0  0  0  0  0  0  0  0
   25.0438  -21.1005  -12.8179 C   0  0  0  0  0  0  0  0  0  0  0  0
   26.4823  -20.9504  -13.0821 O   0  0  0  0  0  0  0  0  0  0  0  0
   27.3463  -20.9489  -11.9961 O   0  0  0  0  0  0  0  0  0  0  0  0
  2  1  1  0
  2  3  2  0
  4  3  1  0
  5  4  2  0
  6  5  1  0
  7  6  1  0
  7  8  1  1
  9  7  1  0
  9 10  2  0
 11 12  2  0
 11  5  1  0
 12  2  1  0
 14 13  1  0
 15 14  2  0
 16 14  1  0
 17 16  1  0
 18 19  1  0
 18 17  1  0
 20 19  1  6
 20 21  1  0
 21  9  1  0
 22 20  1  0
 23 22  2  0
 24 28  1  0
 24 22  1  0
 25 24  1  0
 26 25  1  0
 26 27  1  0
 27 28  1  0
 28 29  1  1
 29 31  2  0
 29 30  1  0
M  END
$$$$
