YRP.pdb
     RDKit          3D

 31 32  0  0  1  0  0  0  0  0999 V2000
   16.8749  -24.1621  -11.0526 O   0  0  0  0  0  0  0  0  0  0  0  0
   18.0366  -23.6494  -11.6181 C   0  0  0  0  0  0  0  0  0  0  0  0
   19.1128  -23.2933  -10.8403 C   0  0  0  0  0  0  0  0  0  0  0  0
   20.2624  -22.7820  -11.4473 C   0  0  0  0  0  0  0  0  0  0  0  0
   20.3492  -22.6244  -12.8115 C   0  0  0  0  0  0  0  0  0  0  0  0
   21.5894  -22.0773  -13.4149 C   0  0  0  0  0  0  0  0  0  0  0  0
   21.8250  -20.7277  -12.7673 C   0  0  2  0  0  0  0  0  0  0  0  0
   20.8997  -19.7342  -13.2029 N   0  0  0  0  0  0  0  0  0  0  0  0
   23.2273  -20.3191  -12.9923 C   0  0  0  0  0  0  0  0  0  0  0  0
   23.5862  -19.6856  -14.0309 O   0  0  0  0  0  0  0  0  0  0  0  0
   19.2676  -22.9820  -13.5921 C   0  0  0  0  0  0  0  0  0  0  0  0
   18.1344  -23.4867  -12.9794 C   0  0  0  0  0  0  0  0  0  0  0  0
   30.7187  -22.0440   -8.7105 N   0  0  0  0  0  0  0  0  0  0  0  0
   31.2044  -22.0127  -10.0453 C   0  0  0  0  0  0  0  0  0  0  0  0
   32.4053  -22.3255  -10.2809 N   0  0  0  0  0  0  0  0  0  0  0  0
   30.2732  -21.6177  -11.0601 N   0  0  0  0  0  0  0  0  0  0  0  0
   28.8584  -21.5906  -10.6548 C   0  0  0  0  0  0  0  0  0  0  0  0
   28.0021  -21.1803  -11.7993 C   0  0  0  0  0  0  0  0  0  0  0  0
   26.5766  -21.0623  -11.4730 C   0  0  0  0  0  0  0  0  0  0  0  0
   25.6425  -20.4379  -12.4711 C   0  0  2  0  0  0  0  0  0  0  0  0
   24.2905  -20.6031  -12.0598 N   0  0  0  0  0  0  0  0  0  0  0  0
   25.9149  -21.0950  -13.7774 C   0  0  0  0  0  0  0  0  0  0  0  0
   25.2052  -22.0365  -14.1378 O   0  0  0  0  0  0  0  0  0  0  0  0
   32.9090  -22.3764  -11.1732 N   0  0  0  0  0  0  0  0  0  0  0  0
   26.9707  -20.6356  -14.5840 C   0  0  0  0  0  0  0  0  0  0  0  0
   28.0224  -19.7036  -14.1254 C   0  0  0  0  0  0  0  0  0  0  0  0
   28.2151  -18.8144  -15.3255 C   0  0  0  0  0  0  0  0  0  0  0  0
   27.4006  -19.4455  -16.4657 C   0  0  2  0  0  0  0  0  0  0  0  0
   27.3166  -20.8917  -15.9733 C   0  0  0  0  0  0  0  0  0  0  0  0
   28.5896  -21.6068  -16.1453 O   0  0  0  0  0  0  0  0  0  0  0  0
   28.9397  -22.0129  -17.4253 O   0  0  0  0  0  0  0  0  0  0  0  0
  2  1  1  0
  2  3  2  0
  4  3  1  0
  5  4  2  0
  6  5  1  0
  7  6  1  0
  7  8  1  6
  9  7  1  0
  9 10  2  0
 11 12  2  0
 11  5  1  0
 12  2  1  0
 14 13  1  0
 15 14  2  0
 16 14  1  0
 17 16  1  0
 18 19  1  0
 18 17  1  0
 20 19  1  1
 20 21  1  0
 21  9  1  0
 22 20  1  0
 23 22  2  0
 24 28  1  0
 24 22  1  0
 25 24  1  0
 26 25  1  0
 26 27  1  0
 27 28  1  0
 28 29  1  6
 29 31  2  0
 29 30  1  0
M  END
$$$$
