YRP.pdb
     RDKit          3D

 31 32  0  0  1  0  0  0  0  0999 V2000
   18.9736  -22.3892   -9.9364 O   0  0  0  0  0  0  0  0  0  0  0  0
   20.1314  -21.7657  -10.3870 C   0  0  0  0  0  0  0  0  0  0  0  0
   20.8349  -22.2560  -11.4616 C   0  0  0  0  0  0  0  0  0  0  0  0
   21.9938  -21.6000  -11.8837 C   0  0  0  0  0  0  0  0  0  0  0  0
   22.4540  -20.4683  -11.2505 C   0  0  0  0  0  0  0  0  0  0  0  0
   23.6897  -19.8029  -11.7317 C   0  0  0  0  0  0  0  0  0  0  0  0
   24.8335  -20.7518  -11.4361 C   0  0  2  0  0  0  0  0  0  0  0  0
   25.2834  -20.6749  -10.0852 N   0  0  0  0  0  0  0  0  0  0  0  0
   25.9265  -20.5109  -12.4012 C   0  0  0  0  0  0  0  0  0  0  0  0
   26.5508  -19.4078  -12.4507 O   0  0  0  0  0  0  0  0  0  0  0  0
   21.7470  -19.9766  -10.1709 C   0  0  0  0  0  0  0  0  0  0  0  0
   20.6011  -20.6353   -9.7618 C   0  0  0  0  0  0  0  0  0  0  0  0
   30.8122  -25.9682  -16.4517 N   0  0  0  0  0  0  0  0  0  0  0  0
   29.3993  -25.8678  -16.5619 C   0  0  0  0  0  0  0  0  0  0  0  0
   28.7201  -26.8940  -16.8468 N   0  0  0  0  0  0  0  0  0  0  0  0
   28.8262  -24.5741  -16.3361 N   0  0  0  0  0  0  0  0  0  0  0  0
   29.7822  -23.4594  -16.2364 C   0  0  0  0  0  0  0  0  0  0  0  0
   29.0715  -22.2004  -15.8877 C   0  0  0  0  0  0  0  0  0  0  0  0
   28.0762  -22.3466  -14.8198 C   0  0  0  0  0  0  0  0  0  0  0  0
   27.3235  -21.1357  -14.3446 C   0  0  2  0  0  0  0  0  0  0  0  0
   26.3686  -21.4991  -13.3544 N   0  0  0  0  0  0  0  0  0  0  0  0
   26.6842  -20.5343  -15.5455 C   0  0  0  0  0  0  0  0  0  0  0  0
   25.5248  -20.8430  -15.8291 O   0  0  0  0  0  0  0  0  0  0  0  0
   27.7048  -27.0051  -16.9436 N   0  0  0  0  0  0  0  0  0  0  0  0
   27.4038  -19.6225  -16.3375 C   0  0  0  0  0  0  0  0  0  0  0  0
   28.8406  -19.3227  -16.1625 C   0  0  0  0  0  0  0  0  0  0  0  0
   28.8938  -17.8361  -16.3978 C   0  0  0  0  0  0  0  0  0  0  0  0
   27.5011  -17.4291  -16.9039 C   0  0  1  0  0  0  0  0  0  0  0  0
   27.0048  -18.7706  -17.4468 C   0  0  0  0  0  0  0  0  0  0  0  0
   27.6463  -19.1196  -18.7229 O   0  0  0  0  0  0  0  0  0  0  0  0
   27.1330  -18.5583  -19.8837 O   0  0  0  0  0  0  0  0  0  0  0  0
  2  1  1  0
  2  3  2  0
  4  3  1  0
  5  4  2  0
  6  5  1  0
  7  6  1  0
  7  8  1  1
  9  7  1  0
  9 10  2  0
 11 12  2  0
 11  5  1  0
 12  2  1  0
 14 13  1  0
 15 14  2  0
 16 14  1  0
 17 16  1  0
 18 19  1  0
 18 17  1  0
 20 19  1  6
 20 21  1  0
 21  9  1  0
 22 20  1  0
 23 22  2  0
 24 28  1  0
 24 22  1  0
 25 24  1  0
 26 25  1  0
 26 27  1  0
 27 28  1  0
 28 29  1  6
 29 31  2  0
 29 30  1  0
M  END
$$$$
