YRP.pdb
     RDKit          3D

 31 32  0  0  1  0  0  0  0  0999 V2000
   28.4402  -18.5417   -2.7669 O   0  0  0  0  0  0  0  0  0  0  0  0
   28.2572  -19.0341   -4.0540 C   0  0  0  0  0  0  0  0  0  0  0  0
   28.5693  -20.3345   -4.3724 C   0  0  0  0  0  0  0  0  0  0  0  0
   28.3704  -20.7910   -5.6776 C   0  0  0  0  0  0  0  0  0  0  0  0
   27.8665  -19.9705   -6.6604 C   0  0  0  0  0  0  0  0  0  0  0  0
   27.6711  -20.4962   -8.0340 C   0  0  0  0  0  0  0  0  0  0  0  0
   26.1765  -20.6537   -8.2270 C   0  0  2  0  0  0  0  0  0  0  0  0
   25.5757  -21.4945   -7.2446 N   0  0  0  0  0  0  0  0  0  0  0  0
   25.9112  -21.1266   -9.6017 C   0  0  0  0  0  0  0  0  0  0  0  0
   26.5454  -22.0981  -10.1143 O   0  0  0  0  0  0  0  0  0  0  0  0
   27.5535  -18.6641   -6.3399 C   0  0  0  0  0  0  0  0  0  0  0  0
   27.7554  -18.2234   -5.0440 C   0  0  0  0  0  0  0  0  0  0  0  0
   19.1888  -20.6911  -14.5402 N   0  0  0  0  0  0  0  0  0  0  0  0
   19.9458  -19.5243  -14.2500 C   0  0  0  0  0  0  0  0  0  0  0  0
   19.3860  -18.3924  -14.2813 N   0  0  0  0  0  0  0  0  0  0  0  0
   21.3297  -19.7171  -13.9330 N   0  0  0  0  0  0  0  0  0  0  0  0
   21.8772  -21.0482  -14.2407 C   0  0  0  0  0  0  0  0  0  0  0  0
   23.2995  -21.1319  -13.8143 C   0  0  0  0  0  0  0  0  0  0  0  0
   23.5205  -20.8396  -12.3938 C   0  0  0  0  0  0  0  0  0  0  0  0
   24.9221  -20.8428  -11.8512 C   0  0  2  0  0  0  0  0  0  0  0  0
   24.9202  -20.5297  -10.4633 N   0  0  0  0  0  0  0  0  0  0  0  0
   25.6889  -19.8487  -12.6488 C   0  0  0  0  0  0  0  0  0  0  0  0
   25.7256  -18.6748  -12.2739 O   0  0  0  0  0  0  0  0  0  0  0  0
   19.7692  -17.4630  -14.0763 N   0  0  0  0  0  0  0  0  0  0  0  0
   26.3628  -20.2570  -13.8130 C   0  0  0  0  0  0  0  0  0  0  0  0
   26.2307  -21.5968  -14.4234 C   0  0  0  0  0  0  0  0  0  0  0  0
   27.6408  -21.8963  -14.8592 C   0  0  0  0  0  0  0  0  0  0  0  0
   28.4409  -20.6006  -14.6529 C   0  0  1  0  0  0  0  0  0  0  0  0
   27.3080  -19.5726  -14.6812 C   0  0  0  0  0  0  0  0  0  0  0  0
   26.8045  -19.3454  -16.0436 O   0  0  0  0  0  0  0  0  0  0  0  0
   25.6374  -19.9940  -16.4222 O   0  0  0  0  0  0  0  0  0  0  0  0
  2  1  1  0
  2  3  2  0
  4  3  1  0
  5  4  2  0
  6  5  1  0
  7  6  1  0
  7  8  1  1
  9  7  1  0
  9 10  2  0
 11 12  2  0
 11  5  1  0
 12  2  1  0
 14 13  1  0
 15 14  2  0
 16 14  1  0
 17 16  1  0
 18 19  1  0
 18 17  1  0
 20 19  1  6
 20 21  1  0
 21  9  1  0
 22 20  1  0
 23 22  2  0
 24 28  1  0
 24 22  1  0
 25 24  1  0
 26 25  1  0
 26 27  1  0
 27 28  1  0
 28 29  1  6
 29 31  2  0
 29 30  1  0
M  END
$$$$
