YRP.pdb
     RDKit          3D

 31 32  0  0  1  0  0  0  0  0999 V2000
   17.4297  -24.1324  -13.3414 O   0  0  0  0  0  0  0  0  0  0  0  0
   18.4957  -23.2512  -13.2017 C   0  0  0  0  0  0  0  0  0  0  0  0
   19.7704  -23.6077  -13.5732 C   0  0  0  0  0  0  0  0  0  0  0  0
   20.8147  -22.6930  -13.4171 C   0  0  0  0  0  0  0  0  0  0  0  0
   20.6021  -21.4361  -12.8991 C   0  0  0  0  0  0  0  0  0  0  0  0
   21.7400  -20.4958  -12.7502 C   0  0  0  0  0  0  0  0  0  0  0  0
   22.5533  -20.9864  -11.5696 C   0  0  2  0  0  0  0  0  0  0  0  0
   21.9734  -20.6399  -10.3139 N   0  0  0  0  0  0  0  0  0  0  0  0
   23.9407  -20.4935  -11.6968 C   0  0  0  0  0  0  0  0  0  0  0  0
   24.2355  -19.2675  -11.5598 O   0  0  0  0  0  0  0  0  0  0  0  0
   19.3214  -21.0789  -12.5257 C   0  0  0  0  0  0  0  0  0  0  0  0
   18.2955  -21.9936  -12.6846 C   0  0  0  0  0  0  0  0  0  0  0  0
   31.0540  -21.2524   -9.1533 N   0  0  0  0  0  0  0  0  0  0  0  0
   31.4396  -21.9983  -10.2994 C   0  0  0  0  0  0  0  0  0  0  0  0
   32.4787  -22.7152  -10.2580 N   0  0  0  0  0  0  0  0  0  0  0  0
   30.6003  -21.8828  -11.4550 N   0  0  0  0  0  0  0  0  0  0  0  0
   29.5242  -20.8825  -11.3669 C   0  0  0  0  0  0  0  0  0  0  0  0
   28.2146  -21.5520  -11.1475 C   0  0  0  0  0  0  0  0  0  0  0  0
   27.4084  -21.7111  -12.3628 C   0  0  0  0  0  0  0  0  0  0  0  0
   26.2275  -20.8087  -12.5858 C   0  0  2  0  0  0  0  0  0  0  0  0
   25.0607  -21.3563  -11.9831 N   0  0  0  0  0  0  0  0  0  0  0  0
   26.0795  -20.6584  -14.0583 C   0  0  0  0  0  0  0  0  0  0  0  0
   25.2582  -21.3575  -14.6557 O   0  0  0  0  0  0  0  0  0  0  0  0
   32.9329  -23.2590  -10.9999 N   0  0  0  0  0  0  0  0  0  0  0  0
   26.8708  -19.7235  -14.7483 C   0  0  0  0  0  0  0  0  0  0  0  0
   28.0282  -19.0180  -14.1587 C   0  0  0  0  0  0  0  0  0  0  0  0
   27.8890  -17.6312  -14.7291 C   0  0  0  0  0  0  0  0  0  0  0  0
   26.7709  -17.7071  -15.7806 C   0  0  1  0  0  0  0  0  0  0  0  0
   26.8014  -19.2021  -16.1043 C   0  0  0  0  0  0  0  0  0  0  0  0
   27.9580  -19.5617  -16.9377 O   0  0  0  0  0  0  0  0  0  0  0  0
   27.8927  -19.2832  -18.2957 O   0  0  0  0  0  0  0  0  0  0  0  0
  2  1  1  0
  2  3  2  0
  4  3  1  0
  5  4  2  0
  6  5  1  0
  7  6  1  0
  7  8  1  1
  9  7  1  0
  9 10  2  0
 11 12  2  0
 11  5  1  0
 12  2  1  0
 14 13  1  0
 15 14  2  0
 16 14  1  0
 17 16  1  0
 18 19  1  0
 18 17  1  0
 20 19  1  6
 20 21  1  0
 21  9  1  0
 22 20  1  0
 23 22  2  0
 24 28  1  0
 24 22  1  0
 25 24  1  0
 26 25  1  0
 26 27  1  0
 27 28  1  0
 28 29  1  6
 29 31  2  0
 29 30  1  0
M  END
$$$$
