YRP.pdb
     RDKit          3D

 31 32  0  0  1  0  0  0  0  0999 V2000
   22.3670  -11.6592  -19.2238 O   0  0  0  0  0  0  0  0  0  0  0  0
   22.0937  -12.9864  -18.9138 C   0  0  0  0  0  0  0  0  0  0  0  0
   21.9427  -13.3992  -17.6112 C   0  0  0  0  0  0  0  0  0  0  0  0
   21.6682  -14.7422  -17.3415 C   0  0  0  0  0  0  0  0  0  0  0  0
   21.5431  -15.6700  -18.3498 C   0  0  0  0  0  0  0  0  0  0  0  0
   21.2513  -17.0866  -18.0188 C   0  0  0  0  0  0  0  0  0  0  0  0
   22.5764  -17.7270  -17.6582 C   0  0  2  0  0  0  0  0  0  0  0  0
   23.3899  -17.9979  -18.7975 N   0  0  0  0  0  0  0  0  0  0  0  0
   22.3264  -18.9398  -16.8517 C   0  0  0  0  0  0  0  0  0  0  0  0
   21.9943  -20.0440  -17.3803 O   0  0  0  0  0  0  0  0  0  0  0  0
   21.6954  -15.2547  -19.6581 C   0  0  0  0  0  0  0  0  0  0  0  0
   21.9675  -13.9222  -19.9126 C   0  0  0  0  0  0  0  0  0  0  0  0
   23.7385  -21.0549   -8.5305 N   0  0  0  0  0  0  0  0  0  0  0  0
   24.5933  -21.0205   -9.6649 C   0  0  0  0  0  0  0  0  0  0  0  0
   25.8433  -20.9375   -9.5032 N   0  0  0  0  0  0  0  0  0  0  0  0
   23.9614  -21.0843  -10.9493 N   0  0  0  0  0  0  0  0  0  0  0  0
   22.4974  -20.9328  -10.9504 C   0  0  0  0  0  0  0  0  0  0  0  0
   21.9645  -21.0830  -12.3307 C   0  0  0  0  0  0  0  0  0  0  0  0
   22.4331  -20.0598  -13.2718 C   0  0  0  0  0  0  0  0  0  0  0  0
   21.9603  -20.0999  -14.6978 C   0  0  2  0  0  0  0  0  0  0  0  0
   22.4392  -18.9676  -15.4139 N   0  0  0  0  0  0  0  0  0  0  0  0
   20.4743  -20.1463  -14.6519 C   0  0  0  0  0  0  0  0  0  0  0  0
   19.8377  -19.0907  -14.6725 O   0  0  0  0  0  0  0  0  0  0  0  0
   26.5926  -20.8543  -10.1990 N   0  0  0  0  0  0  0  0  0  0  0  0
   19.8154  -21.3866  -14.5895 C   0  0  0  0  0  0  0  0  0  0  0  0
   20.5000  -22.6829  -14.3995 C   0  0  0  0  0  0  0  0  0  0  0  0
   19.7312  -23.5946  -15.3192 C   0  0  0  0  0  0  0  0  0  0  0  0
   18.5181  -22.7894  -15.8105 C   0  0  1  0  0  0  0  0  0  0  0  0
   18.4107  -21.7488  -14.6941 C   0  0  0  0  0  0  0  0  0  0  0  0
   17.8524  -22.3207  -13.4600 O   0  0  0  0  0  0  0  0  0  0  0  0
   16.4771  -22.4916  -13.3866 O   0  0  0  0  0  0  0  0  0  0  0  0
  2  1  1  0
  2  3  2  0
  4  3  1  0
  5  4  2  0
  6  5  1  0
  7  6  1  0
  7  8  1  6
  9  7  1  0
  9 10  2  0
 11 12  2  0
 11  5  1  0
 12  2  1  0
 14 13  1  0
 15 14  2  0
 16 14  1  0
 17 16  1  0
 18 19  1  0
 18 17  1  0
 20 19  1  1
 20 21  1  0
 21  9  1  0
 22 20  1  0
 23 22  2  0
 24 28  1  0
 24 22  1  0
 25 24  1  0
 26 25  1  0
 26 27  1  0
 27 28  1  0
 28 29  1  1
 29 31  2  0
 29 30  1  0
M  END
$$$$
