YRP.pdb
     RDKit          3D

 31 32  0  0  1  0  0  0  0  0999 V2000
   16.2534  -19.1458  -19.4349 O   0  0  0  0  0  0  0  0  0  0  0  0
   17.5841  -19.0003  -19.0602 C   0  0  0  0  0  0  0  0  0  0  0  0
   18.2545  -17.8154  -19.2512 C   0  0  0  0  0  0  0  0  0  0  0  0
   19.5916  -17.7097  -18.8606 C   0  0  0  0  0  0  0  0  0  0  0  0
   20.2612  -18.7651  -18.2852 C   0  0  0  0  0  0  0  0  0  0  0  0
   21.6815  -18.6095  -17.8853 C   0  0  0  0  0  0  0  0  0  0  0  0
   21.6996  -18.5549  -16.3711 C   0  0  2  0  0  0  0  0  0  0  0  0
   21.0634  -17.3899  -15.8503 N   0  0  0  0  0  0  0  0  0  0  0  0
   23.0930  -18.6871  -15.8968 C   0  0  0  0  0  0  0  0  0  0  0  0
   23.9876  -17.8363  -16.1878 O   0  0  0  0  0  0  0  0  0  0  0  0
   19.5872  -19.9552  -18.0941 C   0  0  0  0  0  0  0  0  0  0  0  0
   18.2634  -20.0479  -18.4855 C   0  0  0  0  0  0  0  0  0  0  0  0
   24.3641  -20.3833   -9.0322 N   0  0  0  0  0  0  0  0  0  0  0  0
   23.4889  -21.0337   -9.9429 C   0  0  0  0  0  0  0  0  0  0  0  0
   22.2393  -20.9126   -9.8035 N   0  0  0  0  0  0  0  0  0  0  0  0
   24.1005  -21.8032  -10.9854 N   0  0  0  0  0  0  0  0  0  0  0  0
   25.5013  -21.4690  -11.2897 C   0  0  0  0  0  0  0  0  0  0  0  0
   25.5645  -20.4344  -12.3561 C   0  0  0  0  0  0  0  0  0  0  0  0
   25.1490  -20.9086  -13.6807 C   0  0  0  0  0  0  0  0  0  0  0  0
   24.9320  -19.9118  -14.7844 C   0  0  2  0  0  0  0  0  0  0  0  0
   23.5448  -19.7814  -15.0727 N   0  0  0  0  0  0  0  0  0  0  0  0
   25.7043  -20.4016  -15.9575 C   0  0  0  0  0  0  0  0  0  0  0  0
   25.1042  -20.9309  -16.8955 O   0  0  0  0  0  0  0  0  0  0  0  0
   21.4735  -21.3333  -10.3412 N   0  0  0  0  0  0  0  0  0  0  0  0
   27.1020  -20.2533  -15.9853 C   0  0  0  0  0  0  0  0  0  0  0  0
   27.9052  -19.7324  -14.8590 C   0  0  0  0  0  0  0  0  0  0  0  0
   28.9312  -18.8799  -15.5579 C   0  0  0  0  0  0  0  0  0  0  0  0
   28.7654  -19.1503  -17.0615 C   0  0  1  0  0  0  0  0  0  0  0  0
   28.0889  -20.5219  -17.0194 C   0  0  0  0  0  0  0  0  0  0  0  0
   29.0351  -21.5923  -16.6722 O   0  0  0  0  0  0  0  0  0  0  0  0
   29.8967  -22.0448  -17.6616 O   0  0  0  0  0  0  0  0  0  0  0  0
  2  1  1  0
  2  3  2  0
  4  3  1  0
  5  4  2  0
  6  5  1  0
  7  6  1  0
  7  8  1  6
  9  7  1  0
  9 10  2  0
 11 12  2  0
 11  5  1  0
 12  2  1  0
 14 13  1  0
 15 14  2  0
 16 14  1  0
 17 16  1  0
 18 19  1  0
 18 17  1  0
 20 19  1  1
 20 21  1  0
 21  9  1  0
 22 20  1  0
 23 22  2  0
 24 28  1  0
 24 22  1  0
 25 24  1  0
 26 25  1  0
 26 27  1  0
 27 28  1  0
 28 29  1  1
 29 31  2  0
 29 30  1  0
M  END
$$$$
