YRP.pdb
     RDKit          3D

 31 32  0  0  1  0  0  0  0  0999 V2000
   28.6434  -18.2311   -3.2814 O   0  0  0  0  0  0  0  0  0  0  0  0
   28.3361  -18.7412   -4.5375 C   0  0  0  0  0  0  0  0  0  0  0  0
   27.8336  -17.9361   -5.5321 C   0  0  0  0  0  0  0  0  0  0  0  0
   27.5378  -18.4874   -6.7811 C   0  0  0  0  0  0  0  0  0  0  0  0
   27.7372  -19.8228   -7.0464 C   0  0  0  0  0  0  0  0  0  0  0  0
   27.4092  -20.3671   -8.3871 C   0  0  0  0  0  0  0  0  0  0  0  0
   25.9001  -20.4910   -8.4448 C   0  0  2  0  0  0  0  0  0  0  0  0
   25.3674  -21.2822   -7.3849 N   0  0  0  0  0  0  0  0  0  0  0  0
   25.5051  -21.0025   -9.7739 C   0  0  0  0  0  0  0  0  0  0  0  0
   25.6882  -22.2111  -10.1124 O   0  0  0  0  0  0  0  0  0  0  0  0
   28.2416  -20.6310   -6.0466 C   0  0  0  0  0  0  0  0  0  0  0  0
   28.5303  -20.0736   -4.8136 C   0  0  0  0  0  0  0  0  0  0  0  0
   19.4762  -23.0442  -14.8455 N   0  0  0  0  0  0  0  0  0  0  0  0
   19.8789  -21.9083  -14.0931 C   0  0  0  0  0  0  0  0  0  0  0  0
   19.7576  -20.7538  -14.5911 N   0  0  0  0  0  0  0  0  0  0  0  0
   20.4091  -22.1571  -12.7855 N   0  0  0  0  0  0  0  0  0  0  0  0
   20.8522  -20.9691  -12.0380 C   0  0  0  0  0  0  0  0  0  0  0  0
   22.2512  -21.1488  -11.5665 C   0  0  0  0  0  0  0  0  0  0  0  0
   23.2694  -20.6535  -12.4994 C   0  0  0  0  0  0  0  0  0  0  0  0
   24.7172  -20.6951  -12.0984 C   0  0  2  0  0  0  0  0  0  0  0  0
   24.8853  -20.1792  -10.7831 N   0  0  0  0  0  0  0  0  0  0  0  0
   25.4618  -19.9002  -13.1114 C   0  0  0  0  0  0  0  0  0  0  0  0
   25.6455  -18.6967  -12.9167 O   0  0  0  0  0  0  0  0  0  0  0  0
   20.0288  -19.8408  -14.2096 N   0  0  0  0  0  0  0  0  0  0  0  0
   25.9485  -20.5272  -14.2718 C   0  0  0  0  0  0  0  0  0  0  0  0
   25.6726  -21.9333  -14.6349 C   0  0  0  0  0  0  0  0  0  0  0  0
   26.9936  -22.3897  -15.1958 C   0  0  0  0  0  0  0  0  0  0  0  0
   27.8722  -21.1339  -15.3076 C   0  0  1  0  0  0  0  0  0  0  0  0
   26.7940  -20.0494  -15.3545 C   0  0  0  0  0  0  0  0  0  0  0  0
   26.1171  -20.0020  -16.6587 O   0  0  0  0  0  0  0  0  0  0  0  0
   26.7813  -19.3936  -17.7145 O   0  0  0  0  0  0  0  0  0  0  0  0
  2  1  1  0
  2  3  2  0
  4  3  1  0
  5  4  2  0
  6  5  1  0
  7  6  1  0
  7  8  1  1
  9  7  1  0
  9 10  2  0
 11 12  2  0
 11  5  1  0
 12  2  1  0
 14 13  1  0
 15 14  2  0
 16 14  1  0
 17 16  1  0
 18 19  1  0
 18 17  1  0
 20 19  1  6
 20 21  1  0
 21  9  1  0
 22 20  1  0
 23 22  2  0
 24 28  1  0
 24 22  1  0
 25 24  1  0
 26 25  1  0
 26 27  1  0
 27 28  1  0
 28 29  1  6
 29 31  2  0
 29 30  1  0
M  END
$$$$
