YRP.pdb
     RDKit          3D

 31 32  0  0  1  0  0  0  0  0999 V2000
   21.5224  -24.6987  -21.0886 O   0  0  0  0  0  0  0  0  0  0  0  0
   22.5997  -24.9366  -20.2430 C   0  0  0  0  0  0  0  0  0  0  0  0
   23.2132  -23.9119  -19.5621 C   0  0  0  0  0  0  0  0  0  0  0  0
   24.2930  -24.1927  -18.7215 C   0  0  0  0  0  0  0  0  0  0  0  0
   24.7629  -25.4750  -18.5536 C   0  0  0  0  0  0  0  0  0  0  0  0
   25.9127  -25.7287  -17.6509 C   0  0  0  0  0  0  0  0  0  0  0  0
   25.3306  -26.0199  -16.2826 C   0  0  2  0  0  0  0  0  0  0  0  0
   24.2926  -26.9970  -16.3176 N   0  0  0  0  0  0  0  0  0  0  0  0
   24.8826  -24.7539  -15.6657 C   0  0  0  0  0  0  0  0  0  0  0  0
   23.6817  -24.3535  -15.7451 O   0  0  0  0  0  0  0  0  0  0  0  0
   24.1463  -26.5038  -19.2383 C   0  0  0  0  0  0  0  0  0  0  0  0
   23.0782  -26.2132  -20.0683 C   0  0  0  0  0  0  0  0  0  0  0  0
   25.1354  -20.7867   -8.7686 N   0  0  0  0  0  0  0  0  0  0  0  0
   24.0330  -20.8706   -9.6610 C   0  0  0  0  0  0  0  0  0  0  0  0
   22.8614  -20.9696   -9.1994 N   0  0  0  0  0  0  0  0  0  0  0  0
   24.3342  -20.8362  -11.0614 N   0  0  0  0  0  0  0  0  0  0  0  0
   25.7625  -20.7518  -11.4068 C   0  0  0  0  0  0  0  0  0  0  0  0
   25.9346  -20.7180  -12.8835 C   0  0  0  0  0  0  0  0  0  0  0  0
   26.2439  -22.0204  -13.4838 C   0  0  0  0  0  0  0  0  0  0  0  0
   25.2715  -22.6340  -14.4516 C   0  0  2  0  0  0  0  0  0  0  0  0
   25.7638  -23.8802  -14.9303 N   0  0  0  0  0  0  0  0  0  0  0  0
   25.0836  -21.6473  -15.5487 C   0  0  0  0  0  0  0  0  0  0  0  0
   25.9494  -21.5432  -16.4203 O   0  0  0  0  0  0  0  0  0  0  0  0
   21.9685  -21.0884   -9.6905 N   0  0  0  0  0  0  0  0  0  0  0  0
   23.9255  -20.8511  -15.5816 C   0  0  0  0  0  0  0  0  0  0  0  0
   22.9415  -20.7691  -14.4815 C   0  0  0  0  0  0  0  0  0  0  0  0
   21.6302  -20.7226  -15.2207 C   0  0  0  0  0  0  0  0  0  0  0  0
   21.9790  -20.5659  -16.7091 C   0  0  1  0  0  0  0  0  0  0  0  0
   23.3819  -19.9654  -16.5992 C   0  0  0  0  0  0  0  0  0  0  0  0
   23.3458  -18.5518  -16.1971 O   0  0  0  0  0  0  0  0  0  0  0  0
   23.7856  -18.2271  -14.9215 O   0  0  0  0  0  0  0  0  0  0  0  0
  2  1  1  0
  2  3  2  0
  4  3  1  0
  5  4  2  0
  6  5  1  0
  7  6  1  0
  7  8  1  6
  9  7  1  0
  9 10  2  0
 11 12  2  0
 11  5  1  0
 12  2  1  0
 14 13  1  0
 15 14  2  0
 16 14  1  0
 17 16  1  0
 18 19  1  0
 18 17  1  0
 20 19  1  1
 20 21  1  0
 21  9  1  0
 22 20  1  0
 23 22  2  0
 24 28  1  0
 24 22  1  0
 25 24  1  0
 26 25  1  0
 26 27  1  0
 27 28  1  0
 28 29  1  1
 29 31  2  0
 29 30  1  0
M  END
$$$$
