HGG.pdb
     RDKit          3D

 19 19  0  0  1  0  0  0  0  0999 V2000
    9.7446  -15.3108   21.4430 N   0  0  0  0  0  0  0  0  0  0  0  0
    8.7690  -14.5980   22.2568 C   0  0  1  0  0  0  0  0  0  0  0  0
    7.5160  -14.4689   21.4276 C   0  0  0  0  0  0  0  0  0  0  0  0
    7.7703  -13.7514   20.1619 C   0  0  0  0  0  0  0  0  0  0  0  0
    8.5713  -12.6241   20.0126 C   0  0  0  0  0  0  0  0  0  0  0  0
    8.5602  -12.2614   18.7329 N   0  0  0  0  0  0  0  0  0  0  0  0
    7.7797  -13.1204   18.0664 C   0  0  0  0  0  0  0  0  0  0  0  0
    7.2961  -14.0246   18.9144 N   0  0  0  0  0  0  0  0  0  0  0  0
    8.5533  -15.4217   23.4747 C   0  0  0  0  0  0  0  0  0  0  0  0
    7.7510  -14.9997   24.3356 O   0  0  0  0  0  0  0  0  0  0  0  0
    9.2113  -16.6617   23.7100 N   0  0  0  0  0  0  0  0  0  0  0  0
    9.0179  -17.4749   24.8636 C   0  0  0  0  0  0  0  0  0  0  0  0
   10.2141  -17.4513   25.7792 C   0  0  0  0  0  0  0  0  0  0  0  0
   11.2208  -16.7448   25.5154 O   0  0  0  0  0  0  0  0  0  0  0  0
   10.2398  -18.2275   26.9688 N   0  0  0  0  0  0  0  0  0  0  0  0
   11.3875  -18.2769   27.8538 C   0  0  0  0  0  0  0  0  0  0  0  0
   11.1169  -19.0330   29.0854 C   0  0  0  0  0  0  0  0  0  0  0  0
   10.0297  -19.6124   29.2340 O   0  0  0  0  0  0  0  0  0  0  0  0
   12.0694  -19.0964   30.0701 O   0  0  0  0  0  0  0  0  0  0  0  0
  2  1  1  6
  3  2  1  0
  4  3  1  0
  5  4  2  0
  6  5  1  0
  7  6  1  0
  7  8  2  0
  8  4  1  0
  9  2  1  0
 10  9  2  0
 11  9  1  0
 12 11  1  0
 13 12  1  0
 14 13  2  0
 15 13  1  0
 16 15  1  0
 17 16  1  0
 17 19  1  0
 18 17  2  0
M  END
$$$$
