HGG.pdb
     RDKit          3D

 19 19  0  0  1  0  0  0  0  0999 V2000
    5.6804  -15.0824   21.4696 N   0  0  0  0  0  0  0  0  0  0  0  0
    6.9582  -15.6198   21.9174 C   0  0  1  0  0  0  0  0  0  0  0  0
    7.9856  -14.5344   21.7165 C   0  0  0  0  0  0  0  0  0  0  0  0
    8.0901  -14.1370   20.2978 C   0  0  0  0  0  0  0  0  0  0  0  0
    7.3017  -14.6187   19.2581 C   0  0  0  0  0  0  0  0  0  0  0  0
    7.6858  -14.0331   18.1272 N   0  0  0  0  0  0  0  0  0  0  0  0
    8.6904  -13.1969   18.4150 C   0  0  0  0  0  0  0  0  0  0  0  0
    8.9456  -13.2484   19.7199 N   0  0  0  0  0  0  0  0  0  0  0  0
    6.7883  -15.9731   23.3508 C   0  0  0  0  0  0  0  0  0  0  0  0
    6.2961  -15.1139   24.1140 O   0  0  0  0  0  0  0  0  0  0  0  0
    7.1559  -17.2351   23.8968 N   0  0  0  0  0  0  0  0  0  0  0  0
    7.1902  -17.5362   25.2887 C   0  0  0  0  0  0  0  0  0  0  0  0
    8.5243  -17.2064   25.9061 C   0  0  0  0  0  0  0  0  0  0  0  0
    8.7959  -17.5454   27.0865 O   0  0  0  0  0  0  0  0  0  0  0  0
    9.5158  -16.5019   25.1718 N   0  0  0  0  0  0  0  0  0  0  0  0
   10.7917  -16.1136   25.7410 C   0  0  0  0  0  0  0  0  0  0  0  0
   11.8226  -17.1480   25.5704 C   0  0  0  0  0  0  0  0  0  0  0  0
   11.5946  -18.3173   25.9175 O   0  0  0  0  0  0  0  0  0  0  0  0
   13.0374  -16.8172   25.0266 O   0  0  0  0  0  0  0  0  0  0  0  0
  2  1  1  1
  3  2  1  0
  4  3  1  0
  5  4  2  0
  6  5  1  0
  7  6  1  0
  7  8  2  0
  8  4  1  0
  9  2  1  0
 10  9  2  0
 11  9  1  0
 12 11  1  0
 13 12  1  0
 14 13  2  0
 15 13  1  0
 16 15  1  0
 17 16  1  0
 17 19  1  0
 18 17  2  0
M  END
$$$$
