HGG.pdb
     RDKit          3D

 19 19  0  0  1  0  0  0  0  0999 V2000
    9.4911  -16.3225   20.4736 N   0  0  0  0  0  0  0  0  0  0  0  0
    8.1887  -16.4115   21.1200 C   0  0  1  0  0  0  0  0  0  0  0  0
    7.1812  -15.8312   20.1596 C   0  0  0  0  0  0  0  0  0  0  0  0
    7.5220  -14.4443   19.7825 C   0  0  0  0  0  0  0  0  0  0  0  0
    7.6473  -13.9619   18.4840 C   0  0  0  0  0  0  0  0  0  0  0  0
    7.9622  -12.6708   18.5390 N   0  0  0  0  0  0  0  0  0  0  0  0
    8.0406  -12.3187   19.8278 C   0  0  0  0  0  0  0  0  0  0  0  0
    7.7777  -13.3774   20.5899 N   0  0  0  0  0  0  0  0  0  0  0  0
    7.9462  -17.8536   21.3838 C   0  0  0  0  0  0  0  0  0  0  0  0
    6.9281  -18.3799   20.8843 O   0  0  0  0  0  0  0  0  0  0  0  0
    8.8109  -18.6631   22.1732 N   0  0  0  0  0  0  0  0  0  0  0  0
    8.5510  -20.0179   22.5287 C   0  0  0  0  0  0  0  0  0  0  0  0
    9.6202  -20.5817   23.4279 C   0  0  0  0  0  0  0  0  0  0  0  0
    9.6344  -21.8013   23.7353 O   0  0  0  0  0  0  0  0  0  0  0  0
   10.6451  -19.7511   23.9553 N   0  0  0  0  0  0  0  0  0  0  0  0
   12.0416  -20.1408   23.9803 C   0  0  0  0  0  0  0  0  0  0  0  0
   12.4896  -20.5453   25.3210 C   0  0  0  0  0  0  0  0  0  0  0  0
   11.6759  -20.6118   26.2555 O   0  0  0  0  0  0  0  0  0  0  0  0
   13.8095  -20.8492   25.5363 O   0  0  0  0  0  0  0  0  0  0  0  0
  2  1  1  6
  3  2  1  0
  4  3  1  0
  5  4  2  0
  6  5  1  0
  7  6  1  0
  7  8  2  0
  8  4  1  0
  9  2  1  0
 10  9  2  0
 11  9  1  0
 12 11  1  0
 13 12  1  0
 14 13  2  0
 15 13  1  0
 16 15  1  0
 17 16  1  0
 17 19  1  0
 18 17  2  0
M  END
$$$$
