HGG.pdb
     RDKit          3D

 19 19  0  0  1  0  0  0  0  0999 V2000
    9.8011  -15.2975   20.1210 N   0  0  0  0  0  0  0  0  0  0  0  0
    8.8364  -14.6189   20.9760 C   0  0  1  0  0  0  0  0  0  0  0  0
    7.4911  -14.7451   20.3064 C   0  0  0  0  0  0  0  0  0  0  0  0
    7.5494  -14.3491   18.8846 C   0  0  0  0  0  0  0  0  0  0  0  0
    7.8659  -13.0822   18.4055 C   0  0  0  0  0  0  0  0  0  0  0  0
    7.8171  -13.1062   17.0765 N   0  0  0  0  0  0  0  0  0  0  0  0
    7.4806  -14.3449   16.6972 C   0  0  0  0  0  0  0  0  0  0  0  0
    7.3158  -15.1058   17.7763 N   0  0  0  0  0  0  0  0  0  0  0  0
    8.8763  -15.3120   22.2898 C   0  0  0  0  0  0  0  0  0  0  0  0
    8.1014  -14.9162   23.1874 O   0  0  0  0  0  0  0  0  0  0  0  0
    9.7487  -16.3995   22.5771 N   0  0  0  0  0  0  0  0  0  0  0  0
    9.9351  -16.9683   23.8698 C   0  0  0  0  0  0  0  0  0  0  0  0
   11.2918  -16.6451   24.4396 C   0  0  0  0  0  0  0  0  0  0  0  0
   11.6535  -17.1000   25.5551 O   0  0  0  0  0  0  0  0  0  0  0  0
   12.2034  -15.8159   23.7324 N   0  0  0  0  0  0  0  0  0  0  0  0
   13.5344  -15.5113   24.2206 C   0  0  0  0  0  0  0  0  0  0  0  0
   14.5550  -16.4202   23.6781 C   0  0  0  0  0  0  0  0  0  0  0  0
   14.2375  -17.5595   23.3025 O   0  0  0  0  0  0  0  0  0  0  0  0
   15.8592  -16.0056   23.5883 O   0  0  0  0  0  0  0  0  0  0  0  0
  2  1  1  6
  3  2  1  0
  4  3  1  0
  5  4  2  0
  6  5  1  0
  7  6  1  0
  7  8  2  0
  8  4  1  0
  9  2  1  0
 10  9  2  0
 11  9  1  0
 12 11  1  0
 13 12  1  0
 14 13  2  0
 15 13  1  0
 16 15  1  0
 17 16  1  0
 17 19  1  0
 18 17  2  0
M  END
$$$$
