HGG.pdb
     RDKit          3D

 19 19  0  0  1  0  0  0  0  0999 V2000
    8.3864  -17.1303   21.3901 N   0  0  0  0  0  0  0  0  0  0  0  0
    9.5391  -16.3989   20.8818 C   0  0  1  0  0  0  0  0  0  0  0  0
    9.3733  -14.9634   21.3128 C   0  0  0  0  0  0  0  0  0  0  0  0
    8.3267  -14.2754   20.5299 C   0  0  0  0  0  0  0  0  0  0  0  0
    7.6245  -14.8170   19.4583 C   0  0  0  0  0  0  0  0  0  0  0  0
    6.7677  -13.9049   19.0074 N   0  0  0  0  0  0  0  0  0  0  0  0
    6.9031  -12.8042   19.7566 C   0  0  0  0  0  0  0  0  0  0  0  0
    7.8394  -13.0122   20.6789 N   0  0  0  0  0  0  0  0  0  0  0  0
   10.7401  -17.0312   21.4868 C   0  0  0  0  0  0  0  0  0  0  0  0
   10.6608  -17.4345   22.6675 O   0  0  0  0  0  0  0  0  0  0  0  0
   11.9714  -17.2003   20.7930 N   0  0  0  0  0  0  0  0  0  0  0  0
   13.1376  -17.8015   21.3480 C   0  0  0  0  0  0  0  0  0  0  0  0
   13.8645  -16.8694   22.2822 C   0  0  0  0  0  0  0  0  0  0  0  0
   14.6656  -16.0044   21.8441 O   0  0  0  0  0  0  0  0  0  0  0  0
   13.6658  -16.9407   23.6871 N   0  0  0  0  0  0  0  0  0  0  0  0
   14.3135  -16.0410   24.6220 C   0  0  0  0  0  0  0  0  0  0  0  0
   15.7680  -16.2463   24.6855 C   0  0  0  0  0  0  0  0  0  0  0  0
   16.4652  -16.0784   23.6727 O   0  0  0  0  0  0  0  0  0  0  0  0
   16.3526  -16.6241   25.8671 O   0  0  0  0  0  0  0  0  0  0  0  0
  2  1  1  1
  3  2  1  0
  4  3  1  0
  5  4  2  0
  6  5  1  0
  7  6  1  0
  7  8  2  0
  8  4  1  0
  9  2  1  0
 10  9  2  0
 11  9  1  0
 12 11  1  0
 13 12  1  0
 14 13  2  0
 15 13  1  0
 16 15  1  0
 17 16  1  0
 17 19  1  0
 18 17  2  0
M  END
$$$$
