TMA.pdb
     RDKit          3D

 21 20  0  0  1  0  0  0  0  0999 V2000
    7.6461  -12.5095   20.0500 C   0  0  0  0  0  0  0  0  0  0  0  0
    7.5300  -13.9490   19.5948 C   0  0  1  0  0  0  0  0  0  0  0  0
    7.6258  -14.0138   18.2144 O   0  0  0  0  0  0  0  0  0  0  0  0
    8.6158  -14.7541   20.2743 C   0  0  2  0  0  0  0  0  0  0  0  0
    8.8193  -15.9759   19.5396 N   0  0  0  0  0  0  0  0  0  0  0  0
    8.3089  -15.0019   21.7038 C   0  0  0  0  0  0  0  0  0  0  0  0
    7.6631  -16.0297   22.0332 O   0  0  0  0  0  0  0  0  0  0  0  0
    7.6324  -11.4772   27.7352 C   0  0  0  0  0  0  0  0  0  0  0  0
    6.3116  -12.2196   26.7823 S   0  0  0  0  0  0  0  0  0  0  0  0
    6.7303  -13.7611   25.9899 C   0  0  0  0  0  0  0  0  0  0  0  0
    7.0654  -13.6641   24.5408 C   0  0  0  0  0  0  0  0  0  0  0  0
    8.3734  -14.2577   24.1324 C   0  0  2  0  0  0  0  0  0  0  0  0
    8.7032  -14.1368   22.7583 N   0  0  0  0  0  0  0  0  0  0  0  0
    8.5080  -15.6251   24.6447 C   0  0  0  0  0  0  0  0  0  0  0  0
    7.5015  -16.3663   24.7063 O   0  0  0  0  0  0  0  0  0  0  0  0
   11.2492  -18.0013   25.0201 C   0  0  0  0  0  0  0  0  0  0  0  0
    9.9373  -17.4869   25.5694 C   0  0  2  0  0  0  0  0  0  0  0  0
    9.7583  -16.1336   25.0753 N   0  0  0  0  0  0  0  0  0  0  0  0
   10.0284  -17.5336   27.0527 C   0  0  0  0  0  0  0  0  0  0  0  0
    9.9162  -16.4980   27.7691 O   0  0  0  0  0  0  0  0  0  0  0  0
   10.2428  -18.7633   27.6356 O   0  0  0  0  0  0  0  0  0  0  0  0
  2  3  1  0
  2  4  1  0
  2  1  1  1
  4  5  1  6
  6  4  1  0
  6  7  2  0
  9  8  1  0
  9 10  1  0
 10 11  1  0
 12 11  1  6
 12 13  1  0
 12 14  1  0
 13  6  1  0
 14 15  2  0
 14 18  1  0
 17 16  1  6
 17 19  1  0
 18 17  1  0
 19 20  2  0
 19 21  1  0
M  END
$$$$
