TMA.pdb
     RDKit          3D

 21 20  0  0  1  0  0  0  0  0999 V2000
    7.0791  -17.6357   18.9781 C   0  0  0  0  0  0  0  0  0  0  0  0
    7.5613  -17.3496   20.3848 C   0  0  1  0  0  0  0  0  0  0  0  0
    8.3205  -18.4126   20.8459 O   0  0  0  0  0  0  0  0  0  0  0  0
    8.3501  -16.0588   20.3663 C   0  0  2  0  0  0  0  0  0  0  0  0
    9.4744  -16.2119   19.4793 N   0  0  0  0  0  0  0  0  0  0  0  0
    8.7613  -15.6416   21.7287 C   0  0  0  0  0  0  0  0  0  0  0  0
    9.9329  -15.8723   22.1238 O   0  0  0  0  0  0  0  0  0  0  0  0
    6.8116  -11.6621   28.4538 C   0  0  0  0  0  0  0  0  0  0  0  0
    6.3548  -12.2144   26.8136 S   0  0  0  0  0  0  0  0  0  0  0  0
    7.4831  -13.3780   26.0702 C   0  0  0  0  0  0  0  0  0  0  0  0
    7.2208  -13.6962   24.6379 C   0  0  0  0  0  0  0  0  0  0  0  0
    8.1976  -14.6177   23.9847 C   0  0  2  0  0  0  0  0  0  0  0  0
    7.9022  -14.9811   22.6460 N   0  0  0  0  0  0  0  0  0  0  0  0
    8.4885  -15.7664   24.8485 C   0  0  0  0  0  0  0  0  0  0  0  0
    7.5622  -16.5346   25.1920 O   0  0  0  0  0  0  0  0  0  0  0  0
   11.4976  -17.6691   25.7069 C   0  0  0  0  0  0  0  0  0  0  0  0
   10.1363  -17.1731   26.1409 C   0  0  2  0  0  0  0  0  0  0  0  0
    9.8021  -16.0318   25.3083 N   0  0  0  0  0  0  0  0  0  0  0  0
   10.2348  -16.8072   27.5787 C   0  0  0  0  0  0  0  0  0  0  0  0
   10.5145  -17.6553   28.4736 O   0  0  0  0  0  0  0  0  0  0  0  0
   10.0079  -15.4904   27.9140 O   0  0  0  0  0  0  0  0  0  0  0  0
  2  3  1  0
  2  4  1  0
  2  1  1  6
  4  5  1  6
  6  4  1  0
  6  7  2  0
  9  8  1  0
  9 10  1  0
 10 11  1  0
 12 11  1  1
 12 13  1  0
 12 14  1  0
 13  6  1  0
 14 15  2  0
 14 18  1  0
 17 16  1  6
 17 19  1  0
 18 17  1  0
 19 20  2  0
 19 21  1  0
M  END
$$$$
