TMA.pdb
     RDKit          3D

 21 20  0  0  1  0  0  0  0  0999 V2000
    6.8815  -17.8131   20.7548 C   0  0  0  0  0  0  0  0  0  0  0  0
    7.8559  -17.2019   19.7699 C   0  0  1  0  0  0  0  0  0  0  0  0
    7.4541  -17.4855   18.4749 O   0  0  0  0  0  0  0  0  0  0  0  0
    7.9236  -15.7125   20.0264 C   0  0  2  0  0  0  0  0  0  0  0  0
    8.6912  -15.0930   18.9770 N   0  0  0  0  0  0  0  0  0  0  0  0
    8.4632  -15.4066   21.3734 C   0  0  0  0  0  0  0  0  0  0  0  0
    9.6550  -15.6996   21.6484 O   0  0  0  0  0  0  0  0  0  0  0  0
    7.2771  -10.9615   27.4042 C   0  0  0  0  0  0  0  0  0  0  0  0
    6.5157  -12.5229   26.9726 S   0  0  0  0  0  0  0  0  0  0  0  0
    7.5464  -13.6256   26.0233 C   0  0  0  0  0  0  0  0  0  0  0  0
    7.1798  -13.7633   24.5852 C   0  0  0  0  0  0  0  0  0  0  0  0
    8.1075  -14.5837   23.7509 C   0  0  2  0  0  0  0  0  0  0  0  0
    7.7088  -14.7886   22.4053 N   0  0  0  0  0  0  0  0  0  0  0  0
    8.4742  -15.8228   24.4440 C   0  0  0  0  0  0  0  0  0  0  0  0
    7.6058  -16.7012   24.6455 O   0  0  0  0  0  0  0  0  0  0  0  0
   11.6044  -17.6062   25.0918 C   0  0  0  0  0  0  0  0  0  0  0  0
   10.2059  -17.2762   25.5636 C   0  0  2  0  0  0  0  0  0  0  0  0
    9.7972  -16.0539   24.8953 N   0  0  0  0  0  0  0  0  0  0  0  0
   10.2623  -17.1145   27.0406 C   0  0  0  0  0  0  0  0  0  0  0  0
   10.0111  -16.0137   27.6094 O   0  0  0  0  0  0  0  0  0  0  0  0
   10.6032  -18.2215   27.7863 O   0  0  0  0  0  0  0  0  0  0  0  0
  2  3  1  0
  2  4  1  0
  2  1  1  1
  4  5  1  6
  6  4  1  0
  6  7  2  0
  9  8  1  0
  9 10  1  0
 10 11  1  0
 12 11  1  1
 12 13  1  0
 12 14  1  0
 13  6  1  0
 14 15  2  0
 14 18  1  0
 17 16  1  6
 17 19  1  0
 18 17  1  0
 19 20  2  0
 19 21  1  0
M  END
$$$$
