TMA.pdb
     RDKit          3D

 21 20  0  0  1  0  0  0  0  0999 V2000
    6.6938  -17.9790   20.9566 C   0  0  0  0  0  0  0  0  0  0  0  0
    7.7415  -17.6782   19.9055 C   0  0  1  0  0  0  0  0  0  0  0  0
    7.3227  -18.1570   18.6750 O   0  0  0  0  0  0  0  0  0  0  0  0
    7.9767  -16.1839   19.8793 C   0  0  2  0  0  0  0  0  0  0  0  0
    8.8450  -15.8678   18.7746 N   0  0  0  0  0  0  0  0  0  0  0  0
    8.5058  -15.6840   21.1714 C   0  0  0  0  0  0  0  0  0  0  0  0
    9.7369  -15.7685   21.4150 O   0  0  0  0  0  0  0  0  0  0  0  0
    7.1981  -11.5180   27.9175 C   0  0  0  0  0  0  0  0  0  0  0  0
    6.6095  -12.0898   26.3267 S   0  0  0  0  0  0  0  0  0  0  0  0
    7.6242  -13.3350   25.5524 C   0  0  0  0  0  0  0  0  0  0  0  0
    7.2325  -13.7046   24.1626 C   0  0  0  0  0  0  0  0  0  0  0  0
    8.1086  -14.7040   23.4817 C   0  0  2  0  0  0  0  0  0  0  0  0
    7.6988  -15.0996   22.1828 N   0  0  0  0  0  0  0  0  0  0  0  0
    8.3978  -15.8344   24.3699 C   0  0  0  0  0  0  0  0  0  0  0  0
    7.4701  -16.5929   24.7309 O   0  0  0  0  0  0  0  0  0  0  0  0
   11.4365  -17.7201   25.1339 C   0  0  0  0  0  0  0  0  0  0  0  0
   10.0657  -17.2775   25.5946 C   0  0  2  0  0  0  0  0  0  0  0  0
    9.7113  -16.0929   24.8339 N   0  0  0  0  0  0  0  0  0  0  0  0
   10.1555  -17.0001   27.0526 C   0  0  0  0  0  0  0  0  0  0  0  0
    9.9663  -15.8462   27.5333 O   0  0  0  0  0  0  0  0  0  0  0  0
   10.4572  -18.0585   27.8813 O   0  0  0  0  0  0  0  0  0  0  0  0
  2  3  1  0
  2  4  1  0
  2  1  1  1
  4  5  1  6
  6  4  1  0
  6  7  2  0
  9  8  1  0
  9 10  1  0
 10 11  1  0
 12 11  1  1
 12 13  1  0
 12 14  1  0
 13  6  1  0
 14 15  2  0
 14 18  1  0
 17 16  1  6
 17 19  1  0
 18 17  1  0
 19 20  2  0
 19 21  1  0
M  END
$$$$
