TMA.pdb
     RDKit          3D

 21 20  0  0  1  0  0  0  0  0999 V2000
    6.7851  -17.8226   20.7532 C   0  0  0  0  0  0  0  0  0  0  0  0
    7.9089  -17.4306   19.8171 C   0  0  1  0  0  0  0  0  0  0  0  0
    7.5776  -17.7736   18.5165 O   0  0  0  0  0  0  0  0  0  0  0  0
    8.1566  -15.9453   19.9634 C   0  0  2  0  0  0  0  0  0  0  0  0
    9.0927  -15.5267   18.9521 N   0  0  0  0  0  0  0  0  0  0  0  0
    8.6099  -15.5916   21.3304 C   0  0  0  0  0  0  0  0  0  0  0  0
    9.7854  -15.8626   21.6865 O   0  0  0  0  0  0  0  0  0  0  0  0
    6.9743  -11.6443   28.1539 C   0  0  0  0  0  0  0  0  0  0  0  0
    6.4245  -12.2292   26.5541 S   0  0  0  0  0  0  0  0  0  0  0  0
    7.5447  -13.3509   25.7375 C   0  0  0  0  0  0  0  0  0  0  0  0
    7.2191  -13.6562   24.3155 C   0  0  0  0  0  0  0  0  0  0  0  0
    8.1378  -14.6107   23.6262 C   0  0  2  0  0  0  0  0  0  0  0  0
    7.7882  -14.9501   22.2943 N   0  0  0  0  0  0  0  0  0  0  0  0
    8.4075  -15.7777   24.4722 C   0  0  0  0  0  0  0  0  0  0  0  0
    7.4766  -16.5625   24.7616 O   0  0  0  0  0  0  0  0  0  0  0  0
   11.3681  -17.7395   25.2402 C   0  0  0  0  0  0  0  0  0  0  0  0
   10.0333  -17.2324   25.7390 C   0  0  2  0  0  0  0  0  0  0  0  0
    9.7055  -16.0425   24.9747 N   0  0  0  0  0  0  0  0  0  0  0  0
   10.1827  -16.9423   27.1896 C   0  0  0  0  0  0  0  0  0  0  0  0
   10.0924  -15.7709   27.6567 O   0  0  0  0  0  0  0  0  0  0  0  0
   10.4274  -18.0086   28.0268 O   0  0  0  0  0  0  0  0  0  0  0  0
  2  3  1  0
  2  4  1  0
  2  1  1  1
  4  5  1  6
  6  4  1  0
  6  7  2  0
  9  8  1  0
  9 10  1  0
 10 11  1  0
 12 11  1  1
 12 13  1  0
 12 14  1  0
 13  6  1  0
 14 15  2  0
 14 18  1  0
 17 16  1  6
 17 19  1  0
 18 17  1  0
 19 20  2  0
 19 21  1  0
M  END
$$$$
