TMA.pdb
     RDKit          3D

 21 20  0  0  1  0  0  0  0  0999 V2000
    6.9193  -16.5003   20.2747 C   0  0  0  0  0  0  0  0  0  0  0  0
    7.7064  -15.3971   19.5992 C   0  0  1  0  0  0  0  0  0  0  0  0
    7.2664  -15.2372   18.2955 O   0  0  0  0  0  0  0  0  0  0  0  0
    7.5442  -14.1295   20.4091 C   0  0  2  0  0  0  0  0  0  0  0  0
    8.0198  -13.0149   19.6310 N   0  0  0  0  0  0  0  0  0  0  0  0
    8.2183  -14.2242   21.7266 C   0  0  0  0  0  0  0  0  0  0  0  0
    9.4600  -14.0396   21.8057 O   0  0  0  0  0  0  0  0  0  0  0  0
    6.2213  -10.1919   26.9279 C   0  0  0  0  0  0  0  0  0  0  0  0
    6.3990  -11.9726   26.8909 S   0  0  0  0  0  0  0  0  0  0  0  0
    7.0601  -12.6313   25.3715 C   0  0  0  0  0  0  0  0  0  0  0  0
    7.2863  -14.1044   25.3589 C   0  0  0  0  0  0  0  0  0  0  0  0
    8.1164  -14.6275   24.2332 C   0  0  2  0  0  0  0  0  0  0  0  0
    7.5429  -14.5167   22.9407 N   0  0  0  0  0  0  0  0  0  0  0  0
    8.6153  -15.9731   24.5348 C   0  0  0  0  0  0  0  0  0  0  0  0
    7.8163  -16.9353   24.5792 O   0  0  0  0  0  0  0  0  0  0  0  0
   11.9495  -17.5824   24.7250 C   0  0  0  0  0  0  0  0  0  0  0  0
   10.5093  -17.5093   25.1808 C   0  0  2  0  0  0  0  0  0  0  0  0
    9.9898  -16.2145   24.7790 N   0  0  0  0  0  0  0  0  0  0  0  0
   10.5018  -17.6814   26.6577 C   0  0  0  0  0  0  0  0  0  0  0  0
   10.9236  -18.7339   27.2169 O   0  0  0  0  0  0  0  0  0  0  0  0
   10.0119  -16.6395   27.4143 O   0  0  0  0  0  0  0  0  0  0  0  0
  2  3  1  0
  2  4  1  0
  2  1  1  1
  4  5  1  6
  6  4  1  0
  6  7  2  0
  9  8  1  0
  9 10  1  0
 10 11  1  0
 12 11  1  1
 12 13  1  0
 12 14  1  0
 13  6  1  0
 14 15  2  0
 14 18  1  0
 17 16  1  1
 17 19  1  0
 18 17  1  0
 19 20  2  0
 19 21  1  0
M  END
$$$$
