TMA.pdb
     RDKit          3D

 21 20  0  0  1  0  0  0  0  0999 V2000
    7.3387  -18.3635   20.8333 C   0  0  0  0  0  0  0  0  0  0  0  0
    8.2873  -17.8893   19.7525 C   0  0  1  0  0  0  0  0  0  0  0  0
    7.8974  -18.4039   18.5269 O   0  0  0  0  0  0  0  0  0  0  0  0
    8.2943  -16.3764   19.7529 C   0  0  2  0  0  0  0  0  0  0  0  0
    9.0701  -15.9134   18.6314 N   0  0  0  0  0  0  0  0  0  0  0  0
    8.7823  -15.8254   21.0403 C   0  0  0  0  0  0  0  0  0  0  0  0
   10.0191  -15.7244   21.2458 O   0  0  0  0  0  0  0  0  0  0  0  0
    7.1002  -11.8949   27.8396 C   0  0  0  0  0  0  0  0  0  0  0  0
    6.5826  -12.4850   26.2309 S   0  0  0  0  0  0  0  0  0  0  0  0
    7.7057  -13.6306   25.4527 C   0  0  0  0  0  0  0  0  0  0  0  0
    7.3496  -14.0288   24.0613 C   0  0  0  0  0  0  0  0  0  0  0  0
    8.3167  -14.9359   23.3744 C   0  0  2  0  0  0  0  0  0  0  0  0
    7.9287  -15.3908   22.0883 N   0  0  0  0  0  0  0  0  0  0  0  0
    8.7438  -16.0164   24.2691 C   0  0  0  0  0  0  0  0  0  0  0  0
    7.8990  -16.8288   24.7079 O   0  0  0  0  0  0  0  0  0  0  0  0
   12.0731  -17.3996   25.1982 C   0  0  0  0  0  0  0  0  0  0  0  0
   10.5835  -17.2893   25.4351 C   0  0  2  0  0  0  0  0  0  0  0  0
   10.0994  -16.1662   24.6530 N   0  0  0  0  0  0  0  0  0  0  0  0
   10.3800  -17.0846   26.8937 C   0  0  0  0  0  0  0  0  0  0  0  0
    9.8876  -16.0193   27.3638 O   0  0  0  0  0  0  0  0  0  0  0  0
   10.7512  -18.1104   27.7351 O   0  0  0  0  0  0  0  0  0  0  0  0
  2  3  1  0
  2  4  1  0
  2  1  1  1
  4  5  1  6
  6  4  1  0
  6  7  2  0
  9  8  1  0
  9 10  1  0
 10 11  1  0
 12 11  1  1
 12 13  1  0
 12 14  1  0
 13  6  1  0
 14 15  2  0
 14 18  1  0
 17 16  1  1
 17 19  1  0
 18 17  1  0
 19 20  2  0
 19 21  1  0
M  END
$$$$
