CQW.pdb
     RDKit          3D

 30 31  0  0  1  0  0  0  0  0999 V2000
   26.4406  -17.7630  -16.6981 N   0  0  0  0  0  0  0  0  0  0  0  0
   25.6896  -17.0505  -15.6962 C   0  0  1  0  0  0  0  0  0  0  0  0
   26.5799  -16.0651  -14.9698 C   0  0  0  0  0  0  0  0  0  0  0  0
   27.8888  -16.9211  -14.0386 S   0  0  0  0  0  0  0  0  0  0  0  0
   24.5093  -16.3402  -16.2312 C   0  0  0  0  0  0  0  0  0  0  0  0
   24.4358  -15.9464  -17.4181 O   0  0  0  0  0  0  0  0  0  0  0  0
   19.7663  -18.7390  -16.0128 N   0  0  0  0  0  0  0  0  0  0  0  0
   19.7623  -17.9444  -17.1655 C   0  0  0  0  0  0  0  0  0  0  0  0
   19.2528  -18.3250  -18.2438 O   0  0  0  0  0  0  0  0  0  0  0  0
   20.3840  -16.5818  -17.1452 C   0  0  0  0  0  0  0  0  0  0  0  0
   21.0477  -16.3002  -15.8335 C   0  0  0  0  0  0  0  0  0  0  0  0
   22.1948  -15.3653  -15.8908 C   0  0  2  0  0  0  0  0  0  0  0  0
   23.3989  -16.0790  -15.3889 N   0  0  0  0  0  0  0  0  0  0  0  0
   22.0950  -14.1174  -15.0970 C   0  0  0  0  0  0  0  0  0  0  0  0
   22.2732  -14.2557  -13.8617 O   0  0  0  0  0  0  0  0  0  0  0  0
   21.8275  -12.8608  -15.5977 N   0  0  0  0  0  0  0  0  0  0  0  0
   21.7842  -11.5563  -15.0313 C   0  0  1  0  0  0  0  0  0  0  0  0
   23.0607  -11.3752  -14.2413 C   0  0  0  0  0  0  0  0  0  0  0  0
   24.1409  -10.6732  -14.9593 C   0  0  0  0  0  0  0  0  0  0  0  0
   24.1541   -9.3597  -15.3663 C   0  0  0  0  0  0  0  0  0  0  0  0
   25.3186   -9.1020  -15.9822 N   0  0  0  0  0  0  0  0  0  0  0  0
   26.0598  -10.2155  -15.9851 C   0  0  0  0  0  0  0  0  0  0  0  0
   27.3340  -10.4424  -16.5090 C   0  0  0  0  0  0  0  0  0  0  0  0
   27.9023  -11.6894  -16.3943 C   0  0  0  0  0  0  0  0  0  0  0  0
   27.1931  -12.7197  -15.7515 C   0  0  0  0  0  0  0  0  0  0  0  0
   25.9437  -12.4390  -15.2568 C   0  0  0  0  0  0  0  0  0  0  0  0
   25.3489  -11.2006  -15.3567 C   0  0  0  0  0  0  0  0  0  0  0  0
   21.4421  -10.4067  -15.8444 C   0  0  0  0  0  0  0  0  0  0  0  0
   21.0053   -9.2945  -15.5030 O   0  0  0  0  0  0  0  0  0  0  0  0
   21.6171  -10.5111  -17.2580 O   0  0  0  0  0  0  0  0  0  0  0  0
  2  1  1  6
  2  5  1  0
  3  2  1  0
  4  3  1  0
  5  6  2  0
  8  7  1  0
  8  9  2  0
 10 11  1  0
 10  8  1  0
 12 11  1  1
 12 14  1  0
 13  5  1  0
 13 12  1  0
 14 15  2  0
 16 17  1  0
 16 14  1  0
 17 28  1  0
 17 18  1  6
 19 18  1  0
 20 19  2  0
 21 22  1  0
 21 20  1  0
 22 27  2  0
 23 24  2  0
 23 22  1  0
 24 25  1  0
 25 26  2  0
 27 19  1  0
 27 26  1  0
 28 29  2  0
 28 30  1  0
M  END
$$$$
