CQW.pdb
     RDKit          3D

 30 31  0  0  1  0  0  0  0  0999 V2000
   25.9852  -16.9006  -16.2790 N   0  0  0  0  0  0  0  0  0  0  0  0
   26.7247  -17.5488  -15.2263 C   0  0  1  0  0  0  0  0  0  0  0  0
   27.4910  -16.5278  -14.4128 C   0  0  0  0  0  0  0  0  0  0  0  0
   28.6955  -15.6331  -15.4432 S   0  0  0  0  0  0  0  0  0  0  0  0
   25.8841  -18.3620  -14.3229 C   0  0  0  0  0  0  0  0  0  0  0  0
   24.7384  -18.0075  -13.9614 O   0  0  0  0  0  0  0  0  0  0  0  0
   25.0929  -24.1401  -15.1931 N   0  0  0  0  0  0  0  0  0  0  0  0
   24.3767  -24.0423  -13.9940 C   0  0  0  0  0  0  0  0  0  0  0  0
   23.6217  -24.9530  -13.5847 O   0  0  0  0  0  0  0  0  0  0  0  0
   24.4926  -22.8148  -13.1436 C   0  0  0  0  0  0  0  0  0  0  0  0
   25.3771  -21.7878  -13.7787 C   0  0  0  0  0  0  0  0  0  0  0  0
   25.5020  -20.5121  -13.0369 C   0  0  2  0  0  0  0  0  0  0  0  0
   26.3687  -19.5995  -13.8285 N   0  0  0  0  0  0  0  0  0  0  0  0
   26.0959  -20.5702  -11.6799 C   0  0  0  0  0  0  0  0  0  0  0  0
   27.3287  -20.3369  -11.6272 O   0  0  0  0  0  0  0  0  0  0  0  0
   25.4183  -20.8544  -10.5131 N   0  0  0  0  0  0  0  0  0  0  0  0
   25.8159  -21.0831   -9.1663 C   0  0  1  0  0  0  0  0  0  0  0  0
   26.7522  -19.9587   -8.7851 C   0  0  0  0  0  0  0  0  0  0  0  0
   27.8178  -20.3324   -7.8364 C   0  0  0  0  0  0  0  0  0  0  0  0
   28.6457  -21.4284   -7.9032 C   0  0  0  0  0  0  0  0  0  0  0  0
   29.4839  -21.4105   -6.8549 N   0  0  0  0  0  0  0  0  0  0  0  0
   29.2194  -20.3312   -6.1103 C   0  0  0  0  0  0  0  0  0  0  0  0
   29.8176  -19.8892   -4.9287 C   0  0  0  0  0  0  0  0  0  0  0  0
   29.3685  -18.7345   -4.3318 C   0  0  0  0  0  0  0  0  0  0  0  0
   28.3128  -18.0143   -4.9187 C   0  0  0  0  0  0  0  0  0  0  0  0
   27.7623  -18.4971   -6.0799 C   0  0  0  0  0  0  0  0  0  0  0  0
   28.1906  -19.6499   -6.7004 C   0  0  0  0  0  0  0  0  0  0  0  0
   24.8333  -21.3853   -8.1451 C   0  0  0  0  0  0  0  0  0  0  0  0
   23.6177  -21.1292   -8.1124 O   0  0  0  0  0  0  0  0  0  0  0  0
   25.2725  -22.0849   -6.9799 O   0  0  0  0  0  0  0  0  0  0  0  0
  2  1  1  6
  2  5  1  0
  3  2  1  0
  4  3  1  0
  5  6  2  0
  8  7  1  0
  8  9  2  0
 10 11  1  0
 10  8  1  0
 12 11  1  6
 12 14  1  0
 13  5  1  0
 13 12  1  0
 14 15  2  0
 16 17  1  0
 16 14  1  0
 17 28  1  0
 17 18  1  1
 19 18  1  0
 20 19  2  0
 21 22  1  0
 21 20  1  0
 22 27  2  0
 23 24  2  0
 23 22  1  0
 24 25  1  0
 25 26  2  0
 27 19  1  0
 27 26  1  0
 28 29  2  0
 28 30  1  0
M  END
$$$$
