CQW.pdb
     RDKit          3D

 30 31  0  0  1  0  0  0  0  0999 V2000
   28.1215  -19.4497  -16.7483 N   0  0  0  0  0  0  0  0  0  0  0  0
   27.7021  -19.0091  -15.4425 C   0  0  1  0  0  0  0  0  0  0  0  0
   26.8387  -17.7709  -15.5546 C   0  0  0  0  0  0  0  0  0  0  0  0
   27.8401  -16.3015  -15.9429 S   0  0  0  0  0  0  0  0  0  0  0  0
   26.9786  -20.0411  -14.6708 C   0  0  0  0  0  0  0  0  0  0  0  0
   26.1893  -20.8555  -15.2024 O   0  0  0  0  0  0  0  0  0  0  0  0
   26.1006  -19.7394   -8.8521 N   0  0  0  0  0  0  0  0  0  0  0  0
   25.7259  -21.0868   -8.9173 C   0  0  0  0  0  0  0  0  0  0  0  0
   25.0691  -21.6475   -8.0112 O   0  0  0  0  0  0  0  0  0  0  0  0
   26.1098  -21.9205  -10.1010 C   0  0  0  0  0  0  0  0  0  0  0  0
   26.9002  -21.1303  -11.0966 C   0  0  0  0  0  0  0  0  0  0  0  0
   26.2558  -20.9487  -12.4176 C   0  0  2  0  0  0  0  0  0  0  0  0
   27.1655  -20.1366  -13.2684 N   0  0  0  0  0  0  0  0  0  0  0  0
   24.9430  -20.2609  -12.4448 C   0  0  0  0  0  0  0  0  0  0  0  0
   24.9536  -19.0756  -12.0300 O   0  0  0  0  0  0  0  0  0  0  0  0
   23.7528  -20.8087  -12.8743 N   0  0  0  0  0  0  0  0  0  0  0  0
   22.4305  -20.3077  -13.0321 C   0  0  1  0  0  0  0  0  0  0  0  0
   22.5348  -19.0316  -13.8364 C   0  0  0  0  0  0  0  0  0  0  0  0
   21.4637  -18.8351  -14.8310 C   0  0  0  0  0  0  0  0  0  0  0  0
   20.1079  -18.8133  -14.6018 C   0  0  0  0  0  0  0  0  0  0  0  0
   19.4690  -18.6044  -15.7637 N   0  0  0  0  0  0  0  0  0  0  0  0
   20.3765  -18.4911  -16.7399 C   0  0  0  0  0  0  0  0  0  0  0  0
   20.1989  -18.2745  -18.1077 C   0  0  0  0  0  0  0  0  0  0  0  0
   21.2982  -18.1959  -18.9303 C   0  0  0  0  0  0  0  0  0  0  0  0
   22.5863  -18.3352  -18.3837 C   0  0  0  0  0  0  0  0  0  0  0  0
   22.7001  -18.5479  -17.0323 C   0  0  0  0  0  0  0  0  0  0  0  0
   21.6182  -18.6312  -16.1838 C   0  0  0  0  0  0  0  0  0  0  0  0
   21.3562  -21.1769  -13.4680 C   0  0  0  0  0  0  0  0  0  0  0  0
   21.3664  -22.0909  -14.3100 O   0  0  0  0  0  0  0  0  0  0  0  0
   20.0706  -21.0032  -12.8704 O   0  0  0  0  0  0  0  0  0  0  0  0
  2  1  1  6
  2  5  1  0
  3  2  1  0
  4  3  1  0
  5  6  2  0
  8  7  1  0
  8  9  2  0
 10 11  1  0
 10  8  1  0
 12 11  1  1
 12 14  1  0
 13  5  1  0
 13 12  1  0
 14 15  2  0
 16 17  1  0
 16 14  1  0
 17 28  1  0
 17 18  1  6
 19 18  1  0
 20 19  2  0
 21 22  1  0
 21 20  1  0
 22 27  2  0
 23 24  2  0
 23 22  1  0
 24 25  1  0
 25 26  2  0
 27 19  1  0
 27 26  1  0
 28 29  2  0
 28 30  1  0
M  END
$$$$
