CQW.pdb
     RDKit          3D

 30 31  0  0  1  0  0  0  0  0999 V2000
   25.9535  -29.8676  -22.6110 N   0  0  0  0  0  0  0  0  0  0  0  0
   26.6734  -30.9738  -22.0337 C   0  0  1  0  0  0  0  0  0  0  0  0
   27.5629  -31.6246  -23.0713 C   0  0  0  0  0  0  0  0  0  0  0  0
   26.5847  -32.5805  -24.2723 S   0  0  0  0  0  0  0  0  0  0  0  0
   27.4861  -30.6045  -20.8559 C   0  0  0  0  0  0  0  0  0  0  0  0
   27.8449  -29.4274  -20.6223 O   0  0  0  0  0  0  0  0  0  0  0  0
   27.8371  -33.7682  -15.7414 N   0  0  0  0  0  0  0  0  0  0  0  0
   28.5383  -32.6303  -15.3245 C   0  0  0  0  0  0  0  0  0  0  0  0
   29.0816  -32.5489  -14.1998 O   0  0  0  0  0  0  0  0  0  0  0  0
   28.6620  -31.4453  -16.2322 C   0  0  0  0  0  0  0  0  0  0  0  0
   27.9595  -31.6745  -17.5338 C   0  0  0  0  0  0  0  0  0  0  0  0
   28.7150  -31.2712  -18.7421 C   0  0  2  0  0  0  0  0  0  0  0  0
   27.8918  -31.6035  -19.9349 N   0  0  0  0  0  0  0  0  0  0  0  0
   30.0353  -31.9083  -18.9624 C   0  0  0  0  0  0  0  0  0  0  0  0
   30.0001  -33.0193  -19.5467 O   0  0  0  0  0  0  0  0  0  0  0  0
   31.2556  -31.3900  -18.5835 N   0  0  0  0  0  0  0  0  0  0  0  0
   32.5777  -31.9116  -18.5199 C   0  0  1  0  0  0  0  0  0  0  0  0
   33.5223  -30.7414  -18.6766 C   0  0  0  0  0  0  0  0  0  0  0  0
   33.6566  -30.2318  -20.0541 C   0  0  0  0  0  0  0  0  0  0  0  0
   32.6946  -29.5983  -20.8053 C   0  0  0  0  0  0  0  0  0  0  0  0
   33.2091  -29.2854  -22.0049 N   0  0  0  0  0  0  0  0  0  0  0  0
   34.4799  -29.7008  -22.0501 C   0  0  0  0  0  0  0  0  0  0  0  0
   35.4174  -29.6062  -23.0804 C   0  0  0  0  0  0  0  0  0  0  0  0
   36.6815  -30.1156  -22.8960 C   0  0  0  0  0  0  0  0  0  0  0  0
   37.0132  -30.7252  -21.6730 C   0  0  0  0  0  0  0  0  0  0  0  0
   36.0507  -30.7908  -20.6965 C   0  0  0  0  0  0  0  0  0  0  0  0
   34.7769  -30.2899  -20.8521 C   0  0  0  0  0  0  0  0  0  0  0  0
   32.9634  -32.8255  -17.4635 C   0  0  0  0  0  0  0  0  0  0  0  0
   33.8824  -33.6615  -17.4332 O   0  0  0  0  0  0  0  0  0  0  0  0
   32.2100  -32.8021  -16.2504 O   0  0  0  0  0  0  0  0  0  0  0  0
  2  1  1  6
  2  5  1  0
  3  2  1  0
  4  3  1  0
  5  6  2  0
  8  7  1  0
  8  9  2  0
 10 11  1  0
 10  8  1  0
 12 11  1  1
 12 14  1  0
 13  5  1  0
 13 12  1  0
 14 15  2  0
 16 17  1  0
 16 14  1  0
 17 28  1  0
 17 18  1  1
 19 18  1  0
 20 19  2  0
 21 22  1  0
 21 20  1  0
 22 27  2  0
 23 24  2  0
 23 22  1  0
 24 25  1  0
 25 26  2  0
 27 19  1  0
 27 26  1  0
 28 29  2  0
 28 30  1  0
M  END
$$$$
