NWL.pdb
     RDKit          3D

 31 32  0  0  1  0  0  0  0  0999 V2000
   39.4508  -28.8261    4.4883 N   0  0  0  0  0  0  0  0  0  0  0  0
   38.3179  -28.0353    4.8727 C   0  0  0  0  0  0  0  0  0  0  0  0
   37.1946  -28.4018    4.4845 O   0  0  0  0  0  0  0  0  0  0  0  0
   38.4681  -26.8304    5.6978 C   0  0  0  0  0  0  0  0  0  0  0  0
   38.3812  -25.6047    4.8503 C   0  0  2  0  0  0  0  0  0  0  0  0
   39.6577  -25.2319    4.3252 N   0  0  0  0  0  0  0  0  0  0  0  0
   37.7697  -24.4704    5.6286 C   0  0  0  0  0  0  0  0  0  0  0  0
   38.2204  -24.1293    6.7469 O   0  0  0  0  0  0  0  0  0  0  0  0
   36.6691  -23.7774    5.0925 N   0  0  0  0  0  0  0  0  0  0  0  0
   36.0551  -22.6575    5.8347 C   0  0  1  0  0  0  0  0  0  0  0  0
   35.2113  -21.8558    4.9210 C   0  0  0  0  0  0  0  0  0  0  0  0
   34.4325  -20.7755    5.5184 C   0  0  0  0  0  0  0  0  0  0  0  0
   34.9489  -19.7830    6.3211 C   0  0  0  0  0  0  0  0  0  0  0  0
   33.9615  -18.9689    6.7246 N   0  0  0  0  0  0  0  0  0  0  0  0
   32.7905  -19.4087    6.1980 C   0  0  0  0  0  0  0  0  0  0  0  0
   31.5081  -18.9354    6.2860 C   0  0  0  0  0  0  0  0  0  0  0  0
   30.5103  -19.5913    5.6159 C   0  0  0  0  0  0  0  0  0  0  0  0
   30.7712  -20.7080    4.8624 C   0  0  0  0  0  0  0  0  0  0  0  0
   32.0530  -21.1729    4.7812 C   0  0  0  0  0  0  0  0  0  0  0  0
   33.0882  -20.5383    5.4441 C   0  0  0  0  0  0  0  0  0  0  0  0
   35.4352  -23.1572    7.0760 C   0  0  0  0  0  0  0  0  0  0  0  0
   34.7385  -24.1902    7.1553 O   0  0  0  0  0  0  0  0  0  0  0  0
   37.1258  -22.5475   12.8568 C   0  0  0  0  0  0  0  0  0  0  0  0
   36.1088  -23.2497   11.9485 C   0  0  2  0  0  0  0  0  0  0  0  0
   36.5112  -24.7266   11.9951 C   0  0  0  0  0  0  0  0  0  0  0  0
   36.3103  -22.7147   10.5720 C   0  0  0  0  0  0  0  0  0  0  0  0
   35.2078  -23.0097    9.5997 C   0  0  2  0  0  0  0  0  0  0  0  0
   35.6040  -22.4492    8.3263 N   0  0  0  0  0  0  0  0  0  0  0  0
   33.9161  -22.3907   10.0074 C   0  0  0  0  0  0  0  0  0  0  0  0
   32.9047  -23.0559   10.6628 O   0  0  0  0  0  0  0  0  0  0  0  0
   33.7149  -21.1782    9.7441 O   0  0  0  0  0  0  0  0  0  0  0  0
  1  2  1  0
  2  3  2  0
  4  5  1  0
  4  2  1  0
  5  6  1  1
  7  5  1  0
  7  8  2  0
  9  7  1  0
 10  9  1  0
 10 11  1  6
 12 13  2  0
 12 11  1  0
 14 13  1  0
 15 20  2  0
 15 14  1  0
 16 15  1  0
 17 18  1  0
 17 16  2  0
 18 19  2  0
 19 20  1  0
 20 12  1  0
 21 28  1  0
 21 10  1  0
 22 21  2  0
 24 23  1  1
 24 26  1  0
 25 24  1  0
 27 26  1  1
 27 28  1  0
 27 29  1  0
 29 31  2  0
 29 30  1  0
M  END
$$$$
