NWL.pdb
     RDKit          3D

 31 32  0  0  1  0  0  0  0  0999 V2000
   27.6513  -22.9193  -19.6655 N   0  0  0  0  0  0  0  0  0  0  0  0
   26.6261  -23.7378  -19.0862 C   0  0  0  0  0  0  0  0  0  0  0  0
   26.3732  -24.8262  -19.6326 O   0  0  0  0  0  0  0  0  0  0  0  0
   25.8928  -23.3144  -17.8869 C   0  0  0  0  0  0  0  0  0  0  0  0
   26.3270  -21.9497  -17.4658 C   0  0  2  0  0  0  0  0  0  0  0  0
   27.7306  -21.8991  -17.1985 N   0  0  0  0  0  0  0  0  0  0  0  0
   25.5364  -21.4934  -16.2686 C   0  0  0  0  0  0  0  0  0  0  0  0
   25.0445  -22.3148  -15.4604 O   0  0  0  0  0  0  0  0  0  0  0  0
   25.3437  -20.1171  -16.0503 N   0  0  0  0  0  0  0  0  0  0  0  0
   24.5589  -19.6451  -14.8913 C   0  0  1  0  0  0  0  0  0  0  0  0
   25.3882  -18.7450  -14.0597 C   0  0  0  0  0  0  0  0  0  0  0  0
   26.3922  -19.3727  -13.2062 C   0  0  0  0  0  0  0  0  0  0  0  0
   27.7113  -19.5636  -13.5516 C   0  0  0  0  0  0  0  0  0  0  0  0
   28.3529  -20.1923  -12.5546 N   0  0  0  0  0  0  0  0  0  0  0  0
   27.4738  -20.4221  -11.5464 C   0  0  0  0  0  0  0  0  0  0  0  0
   27.6185  -21.0088  -10.3171 C   0  0  0  0  0  0  0  0  0  0  0  0
   26.5335  -21.0845   -9.4853 C   0  0  0  0  0  0  0  0  0  0  0  0
   25.3111  -20.5859   -9.8596 C   0  0  0  0  0  0  0  0  0  0  0  0
   25.1765  -20.0033  -11.0877 C   0  0  0  0  0  0  0  0  0  0  0  0
   26.2488  -19.9084  -11.9566 C   0  0  0  0  0  0  0  0  0  0  0  0
   23.2476  -19.1437  -15.3429 C   0  0  0  0  0  0  0  0  0  0  0  0
   23.0680  -18.4429  -16.3605 O   0  0  0  0  0  0  0  0  0  0  0  0
   19.1078  -21.3707  -17.7941 C   0  0  0  0  0  0  0  0  0  0  0  0
   19.3416  -20.0069  -17.1324 C   0  0  2  0  0  0  0  0  0  0  0  0
   19.4885  -19.0335  -18.3056 C   0  0  0  0  0  0  0  0  0  0  0  0
   20.6294  -20.0980  -16.3876 C   0  0  0  0  0  0  0  0  0  0  0  0
   20.7189  -19.2532  -15.1523 C   0  0  2  0  0  0  0  0  0  0  0  0
   22.0426  -19.4459  -14.6015 N   0  0  0  0  0  0  0  0  0  0  0  0
   19.7168  -19.6497  -14.1244 C   0  0  0  0  0  0  0  0  0  0  0  0
   19.7707  -20.8130  -13.3903 O   0  0  0  0  0  0  0  0  0  0  0  0
   18.7466  -18.8839  -13.8962 O   0  0  0  0  0  0  0  0  0  0  0  0
  1  2  1  0
  2  3  2  0
  4  5  1  0
  4  2  1  0
  5  6  1  1
  7  5  1  0
  7  8  2  0
  9  7  1  0
 10  9  1  0
 10 11  1  6
 12 13  2  0
 12 11  1  0
 14 13  1  0
 15 20  2  0
 15 14  1  0
 16 15  1  0
 17 18  1  0
 17 16  2  0
 18 19  2  0
 19 20  1  0
 20 12  1  0
 21 28  1  0
 21 10  1  0
 22 21  2  0
 24 23  1  6
 24 26  1  0
 25 24  1  0
 27 26  1  6
 27 28  1  0
 27 29  1  0
 29 31  2  0
 29 30  1  0
M  END
$$$$
