NWL.pdb
     RDKit          3D

 31 32  0  0  1  0  0  0  0  0999 V2000
   29.1039  -25.4167  -17.4701 N   0  0  0  0  0  0  0  0  0  0  0  0
   27.9624  -24.7312  -16.9375 C   0  0  0  0  0  0  0  0  0  0  0  0
   26.8419  -25.0339  -17.3845 O   0  0  0  0  0  0  0  0  0  0  0  0
   28.1007  -23.7039  -15.8979 C   0  0  0  0  0  0  0  0  0  0  0  0
   27.0996  -22.6161  -16.1043 C   0  0  2  0  0  0  0  0  0  0  0  0
   27.3338  -21.9044  -17.3220 N   0  0  0  0  0  0  0  0  0  0  0  0
   27.0942  -21.6774  -14.9273 C   0  0  0  0  0  0  0  0  0  0  0  0
   28.1470  -21.1298  -14.5251 O   0  0  0  0  0  0  0  0  0  0  0  0
   25.8840  -21.4078  -14.2627 N   0  0  0  0  0  0  0  0  0  0  0  0
   25.8425  -20.4457  -13.1426 C   0  0  1  0  0  0  0  0  0  0  0  0
   24.9730  -19.3024  -13.4981 C   0  0  0  0  0  0  0  0  0  0  0  0
   25.3215  -18.5573  -14.7038 C   0  0  0  0  0  0  0  0  0  0  0  0
   24.4130  -18.0230  -15.5896 C   0  0  0  0  0  0  0  0  0  0  0  0
   25.0642  -17.4280  -16.6009 N   0  0  0  0  0  0  0  0  0  0  0  0
   26.3996  -17.5598  -16.3976 C   0  0  0  0  0  0  0  0  0  0  0  0
   27.4850  -17.1272  -17.1125 C   0  0  0  0  0  0  0  0  0  0  0  0
   28.7418  -17.3985  -16.6415 C   0  0  0  0  0  0  0  0  0  0  0  0
   28.9316  -18.0921  -15.4729 C   0  0  0  0  0  0  0  0  0  0  0  0
   27.8431  -18.5200  -14.7673 C   0  0  0  0  0  0  0  0  0  0  0  0
   26.5575  -18.2662  -15.2106 C   0  0  0  0  0  0  0  0  0  0  0  0
   25.5580  -21.1548  -11.8812 C   0  0  0  0  0  0  0  0  0  0  0  0
   25.0408  -22.2887  -11.8057 O   0  0  0  0  0  0  0  0  0  0  0  0
   28.2531  -21.7961   -8.2463 C   0  0  0  0  0  0  0  0  0  0  0  0
   27.7081  -20.3817   -8.4806 C   0  0  2  0  0  0  0  0  0  0  0  0
   28.3591  -19.5351   -7.3829 C   0  0  0  0  0  0  0  0  0  0  0  0
   26.2344  -20.4405   -8.2656 C   0  0  0  0  0  0  0  0  0  0  0  0
   25.4541  -21.1283   -9.3453 C   0  0  2  0  0  0  0  0  0  0  0  0
   25.8733  -20.5523  -10.6043 N   0  0  0  0  0  0  0  0  0  0  0  0
   23.9863  -20.9240   -9.1973 C   0  0  0  0  0  0  0  0  0  0  0  0
   23.2084  -21.5239   -8.2330 O   0  0  0  0  0  0  0  0  0  0  0  0
   23.3973  -20.1549   -9.9983 O   0  0  0  0  0  0  0  0  0  0  0  0
  1  2  1  0
  2  3  2  0
  4  5  1  0
  4  2  1  0
  5  6  1  6
  7  5  1  0
  7  8  2  0
  9  7  1  0
 10  9  1  0
 10 11  1  6
 12 13  2  0
 12 11  1  0
 14 13  1  0
 15 20  2  0
 15 14  1  0
 16 15  1  0
 17 18  1  0
 17 16  2  0
 18 19  2  0
 19 20  1  0
 20 12  1  0
 21 28  1  0
 21 10  1  0
 22 21  2  0
 24 23  1  1
 24 26  1  0
 25 24  1  0
 27 26  1  1
 27 28  1  0
 27 29  1  0
 29 31  2  0
 29 30  1  0
M  END
$$$$
