NWL.pdb
     RDKit          3D

 31 32  0  0  1  0  0  0  0  0999 V2000
   26.6730  -15.6951  -19.4662 N   0  0  0  0  0  0  0  0  0  0  0  0
   26.0604  -16.9214  -19.8875 C   0  0  0  0  0  0  0  0  0  0  0  0
   25.7983  -17.0551  -21.0959 O   0  0  0  0  0  0  0  0  0  0  0  0
   25.7485  -17.9910  -18.9314 C   0  0  0  0  0  0  0  0  0  0  0  0
   26.9173  -18.2494  -18.0396 C   0  0  2  0  0  0  0  0  0  0  0  0
   28.0356  -18.7635  -18.7671 N   0  0  0  0  0  0  0  0  0  0  0  0
   26.5296  -19.1817  -16.9229 C   0  0  0  0  0  0  0  0  0  0  0  0
   25.9424  -20.2646  -17.1519 O   0  0  0  0  0  0  0  0  0  0  0  0
   26.8310  -18.8327  -15.5939 N   0  0  0  0  0  0  0  0  0  0  0  0
   26.3799  -19.6848  -14.4749 C   0  0  1  0  0  0  0  0  0  0  0  0
   27.3545  -19.6078  -13.3640 C   0  0  0  0  0  0  0  0  0  0  0  0
   27.1017  -20.4562  -12.2035 C   0  0  0  0  0  0  0  0  0  0  0  0
   27.2258  -21.8273  -12.1882 C   0  0  0  0  0  0  0  0  0  0  0  0
   26.8926  -22.2976  -10.9764 N   0  0  0  0  0  0  0  0  0  0  0  0
   26.5477  -21.2525  -10.1823 C   0  0  0  0  0  0  0  0  0  0  0  0
   26.1495  -21.1852   -8.8734 C   0  0  0  0  0  0  0  0  0  0  0  0
   25.8807  -19.9606   -8.3228 C   0  0  0  0  0  0  0  0  0  0  0  0
   26.0024  -18.8067   -9.0553 C   0  0  0  0  0  0  0  0  0  0  0  0
   26.3994  -18.8839  -10.3600 C   0  0  0  0  0  0  0  0  0  0  0  0
   26.6795  -20.1024  -10.9522 C   0  0  0  0  0  0  0  0  0  0  0  0
   24.9663  -19.4009  -14.1650 C   0  0  0  0  0  0  0  0  0  0  0  0
   24.4873  -18.2569  -14.0217 O   0  0  0  0  0  0  0  0  0  0  0  0
   21.1103  -19.0549  -15.9051 C   0  0  0  0  0  0  0  0  0  0  0  0
   21.8041  -20.4227  -15.8858 C   0  0  2  0  0  0  0  0  0  0  0  0
   20.9402  -21.3018  -16.7948 C   0  0  0  0  0  0  0  0  0  0  0  0
   21.7376  -20.9264  -14.4847 C   0  0  0  0  0  0  0  0  0  0  0  0
   22.6670  -20.2583  -13.5164 C   0  0  2  0  0  0  0  0  0  0  0  0
   24.0126  -20.4763  -14.0008 N   0  0  0  0  0  0  0  0  0  0  0  0
   22.5596  -20.8306  -12.1456 C   0  0  0  0  0  0  0  0  0  0  0  0
   21.6506  -20.4188  -11.1974 O   0  0  0  0  0  0  0  0  0  0  0  0
   23.3438  -21.7539  -11.8108 O   0  0  0  0  0  0  0  0  0  0  0  0
  1  2  1  0
  2  3  2  0
  4  5  1  0
  4  2  1  0
  5  6  1  6
  7  5  1  0
  7  8  2  0
  9  7  1  0
 10  9  1  0
 10 11  1  1
 12 13  2  0
 12 11  1  0
 14 13  1  0
 15 20  2  0
 15 14  1  0
 16 15  1  0
 17 18  1  0
 17 16  2  0
 18 19  2  0
 19 20  1  0
 20 12  1  0
 21 28  1  0
 21 10  1  0
 22 21  2  0
 24 23  1  1
 24 26  1  0
 25 24  1  0
 27 26  1  6
 27 28  1  0
 27 29  1  0
 29 31  2  0
 29 30  1  0
M  END
$$$$
