NWL.pdb
     RDKit          3D

 31 32  0  0  1  0  0  0  0  0999 V2000
   29.4680  -21.3263  -16.5845 N   0  0  0  0  0  0  0  0  0  0  0  0
   28.3990  -20.3906  -16.3890 C   0  0  0  0  0  0  0  0  0  0  0  0
   28.3353  -19.4125  -17.1546 O   0  0  0  0  0  0  0  0  0  0  0  0
   27.4064  -20.5720  -15.3226 C   0  0  0  0  0  0  0  0  0  0  0  0
   27.6649  -21.8412  -14.5808 C   0  0  2  0  0  0  0  0  0  0  0  0
   27.3628  -22.9906  -15.3758 N   0  0  0  0  0  0  0  0  0  0  0  0
   26.8893  -21.8627  -13.2907 C   0  0  0  0  0  0  0  0  0  0  0  0
   25.7610  -22.4026  -13.2171 O   0  0  0  0  0  0  0  0  0  0  0  0
   27.4396  -21.2647  -12.1424 N   0  0  0  0  0  0  0  0  0  0  0  0
   26.6486  -21.1617  -10.8992 C   0  0  1  0  0  0  0  0  0  0  0  0
   27.5363  -20.8044   -9.7705 C   0  0  0  0  0  0  0  0  0  0  0  0
   26.9080  -20.6359   -8.4638 C   0  0  0  0  0  0  0  0  0  0  0  0
   25.5687  -20.8217   -8.2040 C   0  0  0  0  0  0  0  0  0  0  0  0
   25.3183  -20.5582   -6.9123 N   0  0  0  0  0  0  0  0  0  0  0  0
   26.4787  -20.1986   -6.3073 C   0  0  0  0  0  0  0  0  0  0  0  0
   26.7718  -19.8501   -5.0154 C   0  0  0  0  0  0  0  0  0  0  0  0
   28.0662  -19.5488   -4.6859 C   0  0  0  0  0  0  0  0  0  0  0  0
   29.0689  -19.5898   -5.6219 C   0  0  0  0  0  0  0  0  0  0  0  0
   28.7667  -19.9378   -6.9077 C   0  0  0  0  0  0  0  0  0  0  0  0
   27.4710  -20.2484   -7.2798 C   0  0  0  0  0  0  0  0  0  0  0  0
   25.4604  -20.3186  -11.1279 C   0  0  0  0  0  0  0  0  0  0  0  0
   25.4955  -19.0960  -11.3783 O   0  0  0  0  0  0  0  0  0  0  0  0
   22.8992  -18.5421  -13.9671 C   0  0  0  0  0  0  0  0  0  0  0  0
   23.1837  -20.0461  -13.8691 C   0  0  2  0  0  0  0  0  0  0  0  0
   22.5935  -20.6309  -15.1556 C   0  0  0  0  0  0  0  0  0  0  0  0
   22.4293  -20.5572  -12.6896 C   0  0  0  0  0  0  0  0  0  0  0  0
   22.9412  -20.1066  -11.3545 C   0  0  2  0  0  0  0  0  0  0  0  0
   24.1292  -20.8822  -11.0718 N   0  0  0  0  0  0  0  0  0  0  0  0
   21.9538  -20.3399  -10.2642 C   0  0  0  0  0  0  0  0  0  0  0  0
   20.8660  -19.5350  -10.0114 O   0  0  0  0  0  0  0  0  0  0  0  0
   22.1059  -21.3346   -9.5110 O   0  0  0  0  0  0  0  0  0  0  0  0
  1  2  1  0
  2  3  2  0
  4  5  1  0
  4  2  1  0
  5  6  1  6
  7  5  1  0
  7  8  2  0
  9  7  1  0
 10  9  1  0
 10 11  1  1
 12 13  2  0
 12 11  1  0
 14 13  1  0
 15 20  2  0
 15 14  1  0
 16 15  1  0
 17 18  1  0
 17 16  2  0
 18 19  2  0
 19 20  1  0
 20 12  1  0
 21 28  1  0
 21 10  1  0
 22 21  2  0
 24 23  1  6
 24 26  1  0
 25 24  1  0
 27 26  1  6
 27 28  1  0
 27 29  1  0
 29 31  2  0
 29 30  1  0
M  END
$$$$
