NWL.pdb
     RDKit          3D

 31 32  0  0  1  0  0  0  0  0999 V2000
   19.9993   -9.1157  -21.5297 N   0  0  0  0  0  0  0  0  0  0  0  0
   18.8291   -9.1951  -20.7044 C   0  0  0  0  0  0  0  0  0  0  0  0
   17.7827   -9.6270  -21.2196 O   0  0  0  0  0  0  0  0  0  0  0  0
   18.8547   -8.7828  -19.2956 C   0  0  0  0  0  0  0  0  0  0  0  0
   20.2625   -8.6489  -18.8177 C   0  0  2  0  0  0  0  0  0  0  0  0
   20.8687   -9.9237  -18.5909 N   0  0  0  0  0  0  0  0  0  0  0  0
   20.3167   -7.8007  -17.5751 C   0  0  0  0  0  0  0  0  0  0  0  0
   19.5341   -7.9977  -16.6166 O   0  0  0  0  0  0  0  0  0  0  0  0
   21.2639   -6.7645  -17.4852 N   0  0  0  0  0  0  0  0  0  0  0  0
   21.3242   -5.9068  -16.2842 C   0  0  1  0  0  0  0  0  0  0  0  0
   22.6624   -6.0124  -15.6615 C   0  0  0  0  0  0  0  0  0  0  0  0
   22.9794   -7.2669  -14.9860 C   0  0  0  0  0  0  0  0  0  0  0  0
   23.9396   -8.1630  -15.3991 C   0  0  0  0  0  0  0  0  0  0  0  0
   23.9551   -9.2210  -14.5738 N   0  0  0  0  0  0  0  0  0  0  0  0
   23.0140   -9.0387  -13.6129 C   0  0  0  0  0  0  0  0  0  0  0  0
   22.6385   -9.8006  -12.5382 C   0  0  0  0  0  0  0  0  0  0  0  0
   21.6480   -9.3413  -11.7119 C   0  0  0  0  0  0  0  0  0  0  0  0
   21.0288   -8.1383  -11.9404 C   0  0  0  0  0  0  0  0  0  0  0  0
   21.4096   -7.3860  -13.0149 C   0  0  0  0  0  0  0  0  0  0  0  0
   22.4058   -7.8160  -13.8731 C   0  0  0  0  0  0  0  0  0  0  0  0
   20.8240   -4.5570  -16.6049 C   0  0  0  0  0  0  0  0  0  0  0  0
   21.1062   -3.9240  -17.6434 O   0  0  0  0  0  0  0  0  0  0  0  0
   17.4625   -1.7945  -18.0998 C   0  0  0  0  0  0  0  0  0  0  0  0
   17.3012   -2.9194  -17.0697 C   0  0  2  0  0  0  0  0  0  0  0  0
   15.7942   -2.9801  -16.8037 C   0  0  0  0  0  0  0  0  0  0  0  0
   18.0148   -2.4863  -15.8349 C   0  0  0  0  0  0  0  0  0  0  0  0
   19.5116   -2.4949  -15.9208 C   0  0  2  0  0  0  0  0  0  0  0  0
   19.9415   -3.8578  -15.6964 N   0  0  0  0  0  0  0  0  0  0  0  0
   20.1404   -1.6248  -14.8887 C   0  0  0  0  0  0  0  0  0  0  0  0
   20.0889   -0.2491  -14.8914 O   0  0  0  0  0  0  0  0  0  0  0  0
   20.7667   -2.1633  -13.9412 O   0  0  0  0  0  0  0  0  0  0  0  0
  1  2  1  0
  2  3  2  0
  4  5  1  0
  4  2  1  0
  5  6  1  1
  7  5  1  0
  7  8  2  0
  9  7  1  0
 10  9  1  0
 10 11  1  6
 12 13  2  0
 12 11  1  0
 14 13  1  0
 15 20  2  0
 15 14  1  0
 16 15  1  0
 17 18  1  0
 17 16  2  0
 18 19  2  0
 19 20  1  0
 20 12  1  0
 21 28  1  0
 21 10  1  0
 22 21  2  0
 24 23  1  6
 24 26  1  0
 25 24  1  0
 27 26  1  1
 27 28  1  0
 27 29  1  0
 29 31  2  0
 29 30  1  0
M  END
$$$$
