NWL.pdb
     RDKit          3D

 31 32  0  0  1  0  0  0  0  0999 V2000
   28.7217  -20.6154  -16.0464 N   0  0  0  0  0  0  0  0  0  0  0  0
   29.1078  -21.7414  -15.2466 C   0  0  0  0  0  0  0  0  0  0  0  0
   29.9447  -22.5306  -15.7194 O   0  0  0  0  0  0  0  0  0  0  0  0
   28.5397  -21.9646  -13.9114 C   0  0  0  0  0  0  0  0  0  0  0  0
   27.4734  -20.9601  -13.6246 C   0  0  2  0  0  0  0  0  0  0  0  0
   28.0075  -19.6389  -13.5085 N   0  0  0  0  0  0  0  0  0  0  0  0
   26.7127  -21.3420  -12.3828 C   0  0  0  0  0  0  0  0  0  0  0  0
   26.2335  -22.4907  -12.2391 O   0  0  0  0  0  0  0  0  0  0  0  0
   26.5341  -20.3917  -11.3610 N   0  0  0  0  0  0  0  0  0  0  0  0
   25.5424  -20.6203  -10.2904 C   0  0  1  0  0  0  0  0  0  0  0  0
   25.9866  -19.9520   -9.0471 C   0  0  0  0  0  0  0  0  0  0  0  0
   27.2627  -20.3835   -8.4850 C   0  0  0  0  0  0  0  0  0  0  0  0
   28.2485  -21.0430   -9.1841 C   0  0  0  0  0  0  0  0  0  0  0  0
   29.2758  -21.3182   -8.3657 N   0  0  0  0  0  0  0  0  0  0  0  0
   28.9846  -20.8476   -7.1265 C   0  0  0  0  0  0  0  0  0  0  0  0
   29.6890  -20.8555   -5.9517 C   0  0  0  0  0  0  0  0  0  0  0  0
   29.1361  -20.2751   -4.8416 C   0  0  0  0  0  0  0  0  0  0  0  0
   27.8961  -19.6891   -4.8854 C   0  0  0  0  0  0  0  0  0  0  0  0
   27.2010  -19.6868   -6.0612 C   0  0  0  0  0  0  0  0  0  0  0  0
   27.7254  -20.2635   -7.2041 C   0  0  0  0  0  0  0  0  0  0  0  0
   24.1880  -20.3122  -10.7858 C   0  0  0  0  0  0  0  0  0  0  0  0
   23.8152  -19.1875  -11.1794 O   0  0  0  0  0  0  0  0  0  0  0  0
   20.7718  -20.8980  -14.3724 C   0  0  0  0  0  0  0  0  0  0  0  0
   22.0118  -21.7022  -13.9625 C   0  0  2  0  0  0  0  0  0  0  0  0
   22.0296  -22.8934  -14.9248 C   0  0  0  0  0  0  0  0  0  0  0  0
   21.7809  -22.1813  -12.5701 C   0  0  0  0  0  0  0  0  0  0  0  0
   21.8963  -21.1349  -11.5026 C   0  0  2  0  0  0  0  0  0  0  0  0
   23.1692  -21.3376  -10.8458 N   0  0  0  0  0  0  0  0  0  0  0  0
   20.8155  -21.2472  -10.4841 C   0  0  0  0  0  0  0  0  0  0  0  0
   19.6237  -20.5600  -10.5322 O   0  0  0  0  0  0  0  0  0  0  0  0
   20.9830  -22.0168   -9.5045 O   0  0  0  0  0  0  0  0  0  0  0  0
  1  2  1  0
  2  3  2  0
  4  5  1  0
  4  2  1  0
  5  6  1  1
  7  5  1  0
  7  8  2  0
  9  7  1  0
 10  9  1  0
 10 11  1  1
 12 13  2  0
 12 11  1  0
 14 13  1  0
 15 20  2  0
 15 14  1  0
 16 15  1  0
 17 18  1  0
 17 16  2  0
 18 19  2  0
 19 20  1  0
 20 12  1  0
 21 28  1  0
 21 10  1  0
 22 21  2  0
 24 23  1  6
 24 26  1  0
 25 24  1  0
 27 26  1  6
 27 28  1  0
 27 29  1  0
 29 31  2  0
 29 30  1  0
M  END
$$$$
