WTG.pdb
     RDKit          3D

 26 27  0  0  1  0  0  0  0  0999 V2000
   27.7123  -22.0536  -14.7648 N   0  0  0  0  0  0  0  0  0  0  0  0
   26.6769  -21.3150  -14.0684 C   0  0  1  0  0  0  0  0  0  0  0  0
   27.2860  -20.0521  -13.4675 C   0  0  0  0  0  0  0  0  0  0  0  0
   27.9124  -20.3584  -12.1534 C   0  0  0  0  0  0  0  0  0  0  0  0
   29.2560  -20.5200  -11.8988 C   0  0  0  0  0  0  0  0  0  0  0  0
   29.4059  -20.7872  -10.5801 N   0  0  0  0  0  0  0  0  0  0  0  0
   28.2080  -20.8018   -9.9856 C   0  0  0  0  0  0  0  0  0  0  0  0
   27.8001  -21.0213   -8.6723 C   0  0  0  0  0  0  0  0  0  0  0  0
   26.4760  -20.9752   -8.3371 C   0  0  0  0  0  0  0  0  0  0  0  0
   25.5342  -20.7079   -9.3127 C   0  0  0  0  0  0  0  0  0  0  0  0
   25.9220  -20.4878  -10.6208 C   0  0  0  0  0  0  0  0  0  0  0  0
   27.2552  -20.5358  -10.9500 C   0  0  0  0  0  0  0  0  0  0  0  0
   25.5709  -20.9239  -14.9627 C   0  0  0  0  0  0  0  0  0  0  0  0
   25.8633  -20.2955  -16.0104 O   0  0  0  0  0  0  0  0  0  0  0  0
   21.5902  -21.3684  -17.3678 C   0  0  0  0  0  0  0  0  0  0  0  0
   22.7042  -21.9056  -16.4923 C   0  0  1  0  0  0  0  0  0  0  0  0
   23.7436  -22.4187  -17.2784 O   0  0  0  0  0  0  0  0  0  0  0  0
   23.1986  -20.7645  -15.6264 C   0  0  2  0  0  0  0  0  0  0  0  0
   24.2148  -21.2214  -14.6957 N   0  0  0  0  0  0  0  0  0  0  0  0
   22.0329  -20.1954  -14.8916 C   0  0  0  0  0  0  0  0  0  0  0  0
   21.6720  -20.6524  -13.7876 O   0  0  0  0  0  0  0  0  0  0  0  0
   21.3017  -19.1090  -15.4407 N   0  0  0  0  0  0  0  0  0  0  0  0
   20.1000  -18.5836  -14.7786 C   0  0  0  0  0  0  0  0  0  0  0  0
   19.0487  -19.6232  -14.8864 C   0  0  0  0  0  0  0  0  0  0  0  0
   18.8087  -20.5675  -13.8964 O   0  0  0  0  0  0  0  0  0  0  0  0
   18.3409  -19.6537  -15.9199 O   0  0  0  0  0  0  0  0  0  0  0  0
  2  1  1  6
  2 13  1  0
  3  2  1  0
  4  3  1  0
  5  4  2  0
  6  7  1  0
  6  5  1  0
  7 12  2  0
  8  7  1  0
  8  9  2  0
  9 10  1  0
 10 11  2  0
 12  4  1  0
 12 11  1  0
 13 19  1  0
 13 14  2  0
 16 15  1  6
 16 17  1  0
 18 16  1  0
 18 19  1  1
 20 18  1  0
 20 21  2  0
 22 20  1  0
 23 22  1  0
 24 23  1  0
 25 24  1  0
 26 24  2  0
M  END
$$$$
