WTG.pdb
     RDKit          3D

 26 27  0  0  1  0  0  0  0  0999 V2000
   19.7975   -8.8469  -16.7324 N   0  0  0  0  0  0  0  0  0  0  0  0
   19.9935   -7.8585  -15.6896 C   0  0  1  0  0  0  0  0  0  0  0  0
   21.4847   -7.5675  -15.5547 C   0  0  0  0  0  0  0  0  0  0  0  0
   22.1511   -8.6470  -14.7776 C   0  0  0  0  0  0  0  0  0  0  0  0
   23.0201   -9.5972  -15.2656 C   0  0  0  0  0  0  0  0  0  0  0  0
   23.3989  -10.3902  -14.2357 N   0  0  0  0  0  0  0  0  0  0  0  0
   22.8036   -9.9804  -13.1105 C   0  0  0  0  0  0  0  0  0  0  0  0
   22.8436  -10.4323  -11.7938 C   0  0  0  0  0  0  0  0  0  0  0  0
   22.1153   -9.8079  -10.8205 C   0  0  0  0  0  0  0  0  0  0  0  0
   21.3320   -8.7174  -11.1484 C   0  0  0  0  0  0  0  0  0  0  0  0
   21.2809   -8.2561  -12.4502 C   0  0  0  0  0  0  0  0  0  0  0  0
   22.0161   -8.8892  -13.4231 C   0  0  0  0  0  0  0  0  0  0  0  0
   19.2919   -6.5935  -15.9790 C   0  0  0  0  0  0  0  0  0  0  0  0
   19.1265   -6.2815  -17.1845 O   0  0  0  0  0  0  0  0  0  0  0  0
   16.1307   -3.1027  -15.0872 C   0  0  0  0  0  0  0  0  0  0  0  0
   16.8018   -4.3741  -14.6082 C   0  0  1  0  0  0  0  0  0  0  0  0
   15.9746   -5.4817  -14.8328 O   0  0  0  0  0  0  0  0  0  0  0  0
   18.1076   -4.5168  -15.3638 C   0  0  2  0  0  0  0  0  0  0  0  0
   18.8043   -5.7288  -14.9723 N   0  0  0  0  0  0  0  0  0  0  0  0
   18.9454   -3.3164  -15.0816 C   0  0  0  0  0  0  0  0  0  0  0  0
   19.4050   -3.0955  -13.9424 O   0  0  0  0  0  0  0  0  0  0  0  0
   19.2401   -2.3898  -16.1165 N   0  0  0  0  0  0  0  0  0  0  0  0
   19.9613   -1.1397  -15.8412 C   0  0  0  0  0  0  0  0  0  0  0  0
   21.4070   -1.4197  -16.0117 C   0  0  0  0  0  0  0  0  0  0  0  0
   22.3925   -0.4538  -15.8526 O   0  0  0  0  0  0  0  0  0  0  0  0
   21.7597   -2.5834  -16.3142 O   0  0  0  0  0  0  0  0  0  0  0  0
  2  1  1  6
  2 13  1  0
  3  2  1  0
  4  3  1  0
  5  4  2  0
  6  7  1  0
  6  5  1  0
  7 12  2  0
  8  7  1  0
  8  9  2  0
  9 10  1  0
 10 11  2  0
 12  4  1  0
 12 11  1  0
 13 19  1  0
 13 14  2  0
 16 15  1  6
 16 17  1  0
 18 16  1  0
 18 19  1  1
 20 18  1  0
 20 21  2  0
 22 20  1  0
 23 22  1  0
 24 23  1  0
 25 24  1  0
 26 24  2  0
M  END
$$$$
