WTG.pdb
     RDKit          3D

 26 27  0  0  1  0  0  0  0  0999 V2000
   27.9656  -21.7961  -10.3917 N   0  0  0  0  0  0  0  0  0  0  0  0
   26.8707  -21.0380   -9.8180 C   0  0  1  0  0  0  0  0  0  0  0  0
   27.4370  -19.8318   -9.0755 C   0  0  0  0  0  0  0  0  0  0  0  0
   28.4244  -20.2738   -8.0542 C   0  0  0  0  0  0  0  0  0  0  0  0
   29.5389  -21.0536   -8.2691 C   0  0  0  0  0  0  0  0  0  0  0  0
   30.1681  -21.2251   -7.0827 N   0  0  0  0  0  0  0  0  0  0  0  0
   29.4961  -20.5837   -6.1207 C   0  0  0  0  0  0  0  0  0  0  0  0
   29.7020  -20.4381   -4.7511 C   0  0  0  0  0  0  0  0  0  0  0  0
   28.8331  -19.7080   -3.9897 C   0  0  0  0  0  0  0  0  0  0  0  0
   27.7400  -19.1091   -4.5869 C   0  0  0  0  0  0  0  0  0  0  0  0
   27.5209  -19.2437   -5.9448 C   0  0  0  0  0  0  0  0  0  0  0  0
   28.3990  -19.9794   -6.7036 C   0  0  0  0  0  0  0  0  0  0  0  0
   25.9253  -20.5575  -10.8433 C   0  0  0  0  0  0  0  0  0  0  0  0
   26.4045  -20.0042  -11.8641 O   0  0  0  0  0  0  0  0  0  0  0  0
   25.4044  -21.0556  -13.4148 C   0  0  0  0  0  0  0  0  0  0  0  0
   23.9390  -21.1839  -13.0511 C   0  0  1  0  0  0  0  0  0  0  0  0
   23.6184  -22.5165  -12.7633 O   0  0  0  0  0  0  0  0  0  0  0  0
   23.6853  -20.2984  -11.8478 C   0  0  2  0  0  0  0  0  0  0  0  0
   24.5225  -20.6908  -10.7286 N   0  0  0  0  0  0  0  0  0  0  0  0
   22.2430  -20.4030  -11.4853 C   0  0  0  0  0  0  0  0  0  0  0  0
   21.8651  -21.0700  -10.5004 O   0  0  0  0  0  0  0  0  0  0  0  0
   21.2592  -19.7375  -12.2636 N   0  0  0  0  0  0  0  0  0  0  0  0
   19.8789  -19.5851  -11.7838 C   0  0  0  0  0  0  0  0  0  0  0  0
   19.1332  -20.7975  -12.1979 C   0  0  0  0  0  0  0  0  0  0  0  0
   17.7561  -20.9246  -12.0680 O   0  0  0  0  0  0  0  0  0  0  0  0
   19.7740  -21.7557  -12.6892 O   0  0  0  0  0  0  0  0  0  0  0  0
  2  1  1  6
  2 13  1  0
  3  2  1  0
  4  3  1  0
  5  4  2  0
  6  7  1  0
  6  5  1  0
  7 12  2  0
  8  7  1  0
  8  9  2  0
  9 10  1  0
 10 11  2  0
 12  4  1  0
 12 11  1  0
 13 19  1  0
 13 14  2  0
 16 15  1  1
 16 17  1  0
 18 16  1  0
 18 19  1  1
 20 18  1  0
 20 21  2  0
 22 20  1  0
 23 22  1  0
 24 23  1  0
 25 24  1  0
 26 24  2  0
M  END
$$$$
