WTG.pdb
     RDKit          3D

 26 27  0  0  1  0  0  0  0  0999 V2000
   28.0882  -20.9499  -10.7212 N   0  0  0  0  0  0  0  0  0  0  0  0
   26.7814  -20.9622  -10.0928 C   0  0  1  0  0  0  0  0  0  0  0  0
   26.7969  -20.0173   -8.8954 C   0  0  0  0  0  0  0  0  0  0  0  0
   27.9793  -20.2952   -8.0364 C   0  0  0  0  0  0  0  0  0  0  0  0
   29.1005  -21.0144   -8.3855 C   0  0  0  0  0  0  0  0  0  0  0  0
   29.9376  -21.0326   -7.3216 N   0  0  0  0  0  0  0  0  0  0  0  0
   29.3913  -20.3519   -6.3083 C   0  0  0  0  0  0  0  0  0  0  0  0
   29.8182  -20.0667   -5.0138 C   0  0  0  0  0  0  0  0  0  0  0  0
   29.0367  -19.3298   -4.1689 C   0  0  0  0  0  0  0  0  0  0  0  0
   27.8109  -18.8639   -4.6055 C   0  0  0  0  0  0  0  0  0  0  0  0
   27.3722  -19.1380   -5.8871 C   0  0  0  0  0  0  0  0  0  0  0  0
   28.1636  -19.8796   -6.7307 C   0  0  0  0  0  0  0  0  0  0  0  0
   25.7129  -20.5344  -11.0155 C   0  0  0  0  0  0  0  0  0  0  0  0
   25.8309  -19.4096  -11.5621 O   0  0  0  0  0  0  0  0  0  0  0  0
   25.1194  -20.8806  -14.1372 C   0  0  0  0  0  0  0  0  0  0  0  0
   23.7883  -21.3882  -13.6206 C   0  0  1  0  0  0  0  0  0  0  0  0
   23.7766  -22.7882  -13.5834 O   0  0  0  0  0  0  0  0  0  0  0  0
   23.5840  -20.8123  -12.2340 C   0  0  2  0  0  0  0  0  0  0  0  0
   24.5774  -21.3245  -11.3074 N   0  0  0  0  0  0  0  0  0  0  0  0
   22.2098  -21.1667  -11.7776 C   0  0  0  0  0  0  0  0  0  0  0  0
   22.0153  -21.7704  -10.7026 O   0  0  0  0  0  0  0  0  0  0  0  0
   21.0816  -20.8200  -12.5672 N   0  0  0  0  0  0  0  0  0  0  0  0
   19.7132  -21.0937  -12.1075 C   0  0  0  0  0  0  0  0  0  0  0  0
   18.9318  -19.8467  -12.2864 C   0  0  0  0  0  0  0  0  0  0  0  0
   17.5845  -19.7410  -11.9655 O   0  0  0  0  0  0  0  0  0  0  0  0
   19.5127  -18.8375  -12.7493 O   0  0  0  0  0  0  0  0  0  0  0  0
  2  1  1  6
  2 13  1  0
  3  2  1  0
  4  3  1  0
  5  4  2  0
  6  7  1  0
  6  5  1  0
  7 12  2  0
  8  7  1  0
  8  9  2  0
  9 10  1  0
 10 11  2  0
 12  4  1  0
 12 11  1  0
 13 19  1  0
 13 14  2  0
 16 15  1  1
 16 17  1  0
 18 16  1  0
 18 19  1  1
 20 18  1  0
 20 21  2  0
 22 20  1  0
 23 22  1  0
 24 23  1  0
 25 24  1  0
 26 24  2  0
M  END
$$$$
