WTG.pdb
     RDKit          3D

 26 27  0  0  1  0  0  0  0  0999 V2000
   27.9898  -21.7315  -10.4833 N   0  0  0  0  0  0  0  0  0  0  0  0
   26.8721  -21.0286   -9.8838 C   0  0  1  0  0  0  0  0  0  0  0  0
   27.4020  -19.8410   -9.0865 C   0  0  0  0  0  0  0  0  0  0  0  0
   28.3673  -20.3046   -8.0538 C   0  0  0  0  0  0  0  0  0  0  0  0
   29.4016  -21.1957   -8.2338 C   0  0  0  0  0  0  0  0  0  0  0  0
   30.0384  -21.3470   -7.0487 N   0  0  0  0  0  0  0  0  0  0  0  0
   29.4484  -20.5856   -6.1210 C   0  0  0  0  0  0  0  0  0  0  0  0
   29.6964  -20.3710   -4.7676 C   0  0  0  0  0  0  0  0  0  0  0  0
   28.9141  -19.5163   -4.0429 C   0  0  0  0  0  0  0  0  0  0  0  0
   27.8669  -18.8596   -4.6613 C   0  0  0  0  0  0  0  0  0  0  0  0
   27.6070  -19.0613   -6.0037 C   0  0  0  0  0  0  0  0  0  0  0  0
   28.3981  -19.9221   -6.7255 C   0  0  0  0  0  0  0  0  0  0  0  0
   25.9188  -20.5296  -10.8929 C   0  0  0  0  0  0  0  0  0  0  0  0
   26.3891  -19.9378  -11.8962 O   0  0  0  0  0  0  0  0  0  0  0  0
   25.4396  -20.8126  -13.4918 C   0  0  0  0  0  0  0  0  0  0  0  0
   23.9882  -21.0667  -13.1380 C   0  0  1  0  0  0  0  0  0  0  0  0
   23.7657  -22.4331  -12.9256 O   0  0  0  0  0  0  0  0  0  0  0  0
   23.6743  -20.2706  -11.8874 C   0  0  2  0  0  0  0  0  0  0  0  0
   24.5182  -20.6864  -10.7816 N   0  0  0  0  0  0  0  0  0  0  0  0
   22.2355  -20.4721  -11.5530 C   0  0  0  0  0  0  0  0  0  0  0  0
   21.8827  -21.2055  -10.6068 O   0  0  0  0  0  0  0  0  0  0  0  0
   21.2263  -19.8253  -12.3144 N   0  0  0  0  0  0  0  0  0  0  0  0
   19.8298  -19.7894  -11.8592 C   0  0  0  0  0  0  0  0  0  0  0  0
   19.2046  -21.0732  -12.2575 C   0  0  0  0  0  0  0  0  0  0  0  0
   19.9021  -22.0949  -12.8892 O   0  0  0  0  0  0  0  0  0  0  0  0
   17.9880  -21.2475  -12.0135 O   0  0  0  0  0  0  0  0  0  0  0  0
  2  1  1  6
  2 13  1  0
  3  2  1  0
  4  3  1  0
  5  4  2  0
  6  7  1  0
  6  5  1  0
  7 12  2  0
  8  7  1  0
  8  9  2  0
  9 10  1  0
 10 11  2  0
 12  4  1  0
 12 11  1  0
 13 19  1  0
 13 14  2  0
 16 15  1  1
 16 17  1  0
 18 16  1  0
 18 19  1  1
 20 18  1  0
 20 21  2  0
 22 20  1  0
 23 22  1  0
 24 23  1  0
 25 24  1  0
 26 24  2  0
M  END
$$$$
