WTG.pdb
     RDKit          3D

 26 27  0  0  1  0  0  0  0  0999 V2000
   21.4238  -11.1054  -15.6500 N   0  0  0  0  0  0  0  0  0  0  0  0
   20.5071  -10.1603  -16.2574 C   0  0  1  0  0  0  0  0  0  0  0  0
   19.0780  -10.6529  -16.0532 C   0  0  0  0  0  0  0  0  0  0  0  0
   18.8573  -11.9171  -16.8057 C   0  0  0  0  0  0  0  0  0  0  0  0
   18.9229  -13.1973  -16.3028 C   0  0  0  0  0  0  0  0  0  0  0  0
   18.6589  -14.0604  -17.3120 N   0  0  0  0  0  0  0  0  0  0  0  0
   18.4277  -13.3775  -18.4384 C   0  0  0  0  0  0  0  0  0  0  0  0
   18.1155  -13.7651  -19.7390 C   0  0  0  0  0  0  0  0  0  0  0  0
   17.9275  -12.8306  -20.7183 C   0  0  0  0  0  0  0  0  0  0  0  0
   18.0491  -11.4881  -20.4127 C   0  0  0  0  0  0  0  0  0  0  0  0
   18.3586  -11.0865  -19.1270 C   0  0  0  0  0  0  0  0  0  0  0  0
   18.5460  -12.0321  -18.1479 C   0  0  0  0  0  0  0  0  0  0  0  0
   20.6271   -8.8107  -15.6742 C   0  0  0  0  0  0  0  0  0  0  0  0
   20.6543   -8.7176  -14.4217 O   0  0  0  0  0  0  0  0  0  0  0  0
   23.2367   -6.8318  -15.2461 C   0  0  0  0  0  0  0  0  0  0  0  0
   22.3168   -5.8578  -15.9542 C   0  0  1  0  0  0  0  0  0  0  0  0
   22.6495   -5.7650  -17.3115 O   0  0  0  0  0  0  0  0  0  0  0  0
   20.8972   -6.3593  -15.7823 C   0  0  2  0  0  0  0  0  0  0  0  0
   20.7118   -7.6336  -16.4527 N   0  0  0  0  0  0  0  0  0  0  0  0
   19.9681   -5.3346  -16.3384 C   0  0  0  0  0  0  0  0  0  0  0  0
   19.4419   -5.4729  -17.4617 O   0  0  0  0  0  0  0  0  0  0  0  0
   19.6602   -4.1668  -15.5914 N   0  0  0  0  0  0  0  0  0  0  0  0
   18.6662   -3.1949  -16.0666 C   0  0  0  0  0  0  0  0  0  0  0  0
   18.6011   -2.1062  -15.0627 C   0  0  0  0  0  0  0  0  0  0  0  0
   17.8376   -0.9585  -15.2340 O   0  0  0  0  0  0  0  0  0  0  0  0
   19.2664   -2.2244  -14.0075 O   0  0  0  0  0  0  0  0  0  0  0  0
  2  1  1  1
  2 13  1  0
  3  2  1  0
  4  3  1  0
  5  4  2  0
  6  7  1  0
  6  5  1  0
  7 12  2  0
  8  7  1  0
  8  9  2  0
  9 10  1  0
 10 11  2  0
 12  4  1  0
 12 11  1  0
 13 19  1  0
 13 14  2  0
 16 15  1  1
 16 17  1  0
 18 16  1  0
 18 19  1  6
 20 18  1  0
 20 21  2  0
 22 20  1  0
 23 22  1  0
 24 23  1  0
 25 24  1  0
 26 24  2  0
M  END
$$$$
