WTG.pdb
     RDKit          3D

 26 27  0  0  1  0  0  0  0  0999 V2000
   28.0814  -20.7136   -9.4945 N   0  0  0  0  0  0  0  0  0  0  0  0
   26.6604  -20.9587   -9.3409 C   0  0  1  0  0  0  0  0  0  0  0  0
   26.1363  -20.1283   -8.1737 C   0  0  0  0  0  0  0  0  0  0  0  0
   27.2685  -19.6367   -7.3431 C   0  0  0  0  0  0  0  0  0  0  0  0
   28.0873  -18.5643   -7.6183 C   0  0  0  0  0  0  0  0  0  0  0  0
   28.9885  -18.4537   -6.6140 N   0  0  0  0  0  0  0  0  0  0  0  0
   28.7740  -19.4155   -5.7098 C   0  0  0  0  0  0  0  0  0  0  0  0
   29.3982  -19.7507   -4.5109 C   0  0  0  0  0  0  0  0  0  0  0  0
   28.9590  -20.8115   -3.7696 C   0  0  0  0  0  0  0  0  0  0  0  0
   27.8846  -21.5576   -4.2161 C   0  0  0  0  0  0  0  0  0  0  0  0
   27.2539  -21.2385   -5.4037 C   0  0  0  0  0  0  0  0  0  0  0  0
   27.7013  -20.1705   -6.1434 C   0  0  0  0  0  0  0  0  0  0  0  0
   25.8971  -20.6021  -10.5518 C   0  0  0  0  0  0  0  0  0  0  0  0
   26.1827  -19.5204  -11.1230 O   0  0  0  0  0  0  0  0  0  0  0  0
   26.0914  -21.5888  -13.6953 C   0  0  0  0  0  0  0  0  0  0  0  0
   24.6052  -21.8009  -13.4893 C   0  0  1  0  0  0  0  0  0  0  0  0
   24.3263  -23.1572  -13.2788 O   0  0  0  0  0  0  0  0  0  0  0  0
   24.1851  -20.9739  -12.2909 C   0  0  2  0  0  0  0  0  0  0  0  0
   24.8722  -21.4136  -11.0900 N   0  0  0  0  0  0  0  0  0  0  0  0
   22.7090  -21.1032  -12.1272 C   0  0  0  0  0  0  0  0  0  0  0  0
   22.2124  -21.7876  -11.2091 O   0  0  0  0  0  0  0  0  0  0  0  0
   21.8286  -20.4418  -13.0239 N   0  0  0  0  0  0  0  0  0  0  0  0
   20.3709  -20.5095  -12.8538 C   0  0  0  0  0  0  0  0  0  0  0  0
   19.8977  -21.7067  -13.5886 C   0  0  0  0  0  0  0  0  0  0  0  0
   18.5536  -22.0172  -13.7512 O   0  0  0  0  0  0  0  0  0  0  0  0
   20.7496  -22.4778  -14.0884 O   0  0  0  0  0  0  0  0  0  0  0  0
  2  1  1  6
  2 13  1  0
  3  2  1  0
  4  3  1  0
  5  4  2  0
  6  7  1  0
  6  5  1  0
  7 12  2  0
  8  7  1  0
  8  9  2  0
  9 10  1  0
 10 11  2  0
 12  4  1  0
 12 11  1  0
 13 19  1  0
 13 14  2  0
 16 15  1  1
 16 17  1  0
 18 16  1  0
 18 19  1  1
 20 18  1  0
 20 21  2  0
 22 20  1  0
 23 22  1  0
 24 23  1  0
 25 24  1  0
 26 24  2  0
M  END
$$$$
