WTG.pdb
     RDKit          3D

 26 27  0  0  1  0  0  0  0  0999 V2000
   25.2934  -20.9927   -8.5785 N   0  0  0  0  0  0  0  0  0  0  0  0
   26.3825  -20.2189   -9.1423 C   0  0  1  0  0  0  0  0  0  0  0  0
   27.6687  -20.5522   -8.3930 C   0  0  0  0  0  0  0  0  0  0  0  0
   27.7390  -19.7799   -7.1234 C   0  0  0  0  0  0  0  0  0  0  0  0
   27.2296  -18.5210   -6.8956 C   0  0  0  0  0  0  0  0  0  0  0  0
   27.5050  -18.1805   -5.6145 N   0  0  0  0  0  0  0  0  0  0  0  0
   28.1707  -19.1755   -5.0183 C   0  0  0  0  0  0  0  0  0  0  0  0
   28.6834  -19.3420   -3.7343 C   0  0  0  0  0  0  0  0  0  0  0  0
   29.3363  -20.4917   -3.3885 C   0  0  0  0  0  0  0  0  0  0  0  0
   29.4882  -21.4978   -4.3240 C   0  0  0  0  0  0  0  0  0  0  0  0
   28.9854  -21.3486   -5.6027 C   0  0  0  0  0  0  0  0  0  0  0  0
   28.3302  -20.1897   -5.9427 C   0  0  0  0  0  0  0  0  0  0  0  0
   26.5866  -20.5020  -10.5756 C   0  0  0  0  0  0  0  0  0  0  0  0
   26.9059  -21.6733  -10.8984 O   0  0  0  0  0  0  0  0  0  0  0  0
   25.8967  -22.1917  -12.5160 C   0  0  0  0  0  0  0  0  0  0  0  0
   25.6667  -20.9792  -13.3953 C   0  0  1  0  0  0  0  0  0  0  0  0
   24.3504  -20.5191  -13.2644 O   0  0  0  0  0  0  0  0  0  0  0  0
   26.6539  -19.9106  -12.9713 C   0  0  2  0  0  0  0  0  0  0  0  0
   26.4404  -19.5259  -11.5878 N   0  0  0  0  0  0  0  0  0  0  0  0
   26.4880  -18.7354  -13.8735 C   0  0  0  0  0  0  0  0  0  0  0  0
   25.6347  -17.8536  -13.6452 O   0  0  0  0  0  0  0  0  0  0  0  0
   27.3078  -18.5952  -15.0245 N   0  0  0  0  0  0  0  0  0  0  0  0
   27.4444  -17.3048  -15.7135 C   0  0  0  0  0  0  0  0  0  0  0  0
   26.3165  -17.1952  -16.6691 C   0  0  0  0  0  0  0  0  0  0  0  0
   25.4048  -18.2196  -16.8900 O   0  0  0  0  0  0  0  0  0  0  0  0
   26.1765  -16.1276  -17.3099 O   0  0  0  0  0  0  0  0  0  0  0  0
  2  1  1  1
  2 13  1  0
  3  2  1  0
  4  3  1  0
  5  4  2  0
  6  7  1  0
  6  5  1  0
  7 12  2  0
  8  7  1  0
  8  9  2  0
  9 10  1  0
 10 11  2  0
 12  4  1  0
 12 11  1  0
 13 19  1  0
 13 14  2  0
 16 15  1  1
 16 17  1  0
 18 16  1  0
 18 19  1  1
 20 18  1  0
 20 21  2  0
 22 20  1  0
 23 22  1  0
 24 23  1  0
 25 24  1  0
 26 24  2  0
M  END
$$$$
