WTG.pdb
     RDKit          3D

 26 27  0  0  1  0  0  0  0  0999 V2000
   24.2377  -20.8633  -11.6176 N   0  0  0  0  0  0  0  0  0  0  0  0
   25.6331  -20.5298  -11.8284 C   0  0  1  0  0  0  0  0  0  0  0  0
   26.5000  -21.4752  -11.0029 C   0  0  0  0  0  0  0  0  0  0  0  0
   26.4909  -21.0648   -9.5730 C   0  0  0  0  0  0  0  0  0  0  0  0
   25.3965  -20.6710   -8.8359 C   0  0  0  0  0  0  0  0  0  0  0  0
   25.8153  -20.3823   -7.5812 N   0  0  0  0  0  0  0  0  0  0  0  0
   27.1353  -20.5777   -7.4920 C   0  0  0  0  0  0  0  0  0  0  0  0
   28.0504  -20.4335   -6.4522 C   0  0  0  0  0  0  0  0  0  0  0  0
   29.3746  -20.7106   -6.6461 C   0  0  0  0  0  0  0  0  0  0  0  0
   29.8076  -21.1379   -7.8872 C   0  0  0  0  0  0  0  0  0  0  0  0
   28.9125  -21.2862   -8.9298 C   0  0  0  0  0  0  0  0  0  0  0  0
   27.5829  -21.0056   -8.7270 C   0  0  0  0  0  0  0  0  0  0  0  0
   26.0281  -20.6457  -13.2449 C   0  0  0  0  0  0  0  0  0  0  0  0
   25.2696  -21.2912  -14.0103 O   0  0  0  0  0  0  0  0  0  0  0  0
   27.8601  -17.9565  -16.7972 C   0  0  0  0  0  0  0  0  0  0  0  0
   27.7812  -18.2633  -15.3154 C   0  0  1  0  0  0  0  0  0  0  0  0
   26.9586  -17.3355  -14.6641 O   0  0  0  0  0  0  0  0  0  0  0  0
   27.2307  -19.6672  -15.1658 C   0  0  2  0  0  0  0  0  0  0  0  0
   27.2072  -20.0699  -13.7712 N   0  0  0  0  0  0  0  0  0  0  0  0
   28.0848  -20.5924  -15.9640 C   0  0  0  0  0  0  0  0  0  0  0  0
   28.3465  -20.3665  -17.1633 O   0  0  0  0  0  0  0  0  0  0  0  0
   28.6235  -21.7631  -15.3676 N   0  0  0  0  0  0  0  0  0  0  0  0
   29.5402  -22.6440  -16.1039 C   0  0  0  0  0  0  0  0  0  0  0  0
   28.7084  -23.6055  -16.8662 C   0  0  0  0  0  0  0  0  0  0  0  0
   29.2411  -24.5532  -17.7308 O   0  0  0  0  0  0  0  0  0  0  0  0
   27.4640  -23.5634  -16.7255 O   0  0  0  0  0  0  0  0  0  0  0  0
  2  1  1  6
  2 13  1  0
  3  2  1  0
  4  3  1  0
  5  4  2  0
  6  7  1  0
  6  5  1  0
  7 12  2  0
  8  7  1  0
  8  9  2  0
  9 10  1  0
 10 11  2  0
 12  4  1  0
 12 11  1  0
 13 19  1  0
 13 14  2  0
 16 15  1  6
 16 17  1  0
 18 16  1  0
 18 19  1  1
 20 18  1  0
 20 21  2  0
 22 20  1  0
 23 22  1  0
 24 23  1  0
 25 24  1  0
 26 24  2  0
M  END
$$$$
