CDH.pdb
     RDKit          3D

 25 25  0  0  1  0  0  0  0  0999 V2000
   28.4493  -20.0278  -16.9469 N   0  0  0  0  0  0  0  0  0  0  0  0
   27.3309  -20.9379  -16.8725 C   0  0  1  0  0  0  0  0  0  0  0  0
   27.6174  -21.9479  -15.7588 C   0  0  0  0  0  0  0  0  0  0  0  0
   28.8832  -23.0903  -16.3377 S   0  0  0  0  0  0  0  0  0  0  0  0
   26.0876  -20.1753  -16.6298 C   0  0  0  0  0  0  0  0  0  0  0  0
   26.0574  -19.3112  -15.6901 O   0  0  0  0  0  0  0  0  0  0  0  0
   24.9015  -20.3535  -17.4004 N   0  0  0  0  0  0  0  0  0  0  0  0
   23.7248  -19.6257  -17.0470 C   0  0  1  0  0  0  0  0  0  0  0  0
   22.8455  -19.5937  -18.3113 C   0  0  0  0  0  0  0  0  0  0  0  0
   23.3253  -18.4395  -19.1174 C   0  0  0  0  0  0  0  0  0  0  0  0
   24.0829  -18.5960  -20.0969 O   0  0  0  0  0  0  0  0  0  0  0  0
   22.9300  -20.2382  -15.9786 C   0  0  0  0  0  0  0  0  0  0  0  0
   22.6923  -21.4684  -15.8814 O   0  0  0  0  0  0  0  0  0  0  0  0
   22.9316  -17.1479  -18.7868 O   0  0  0  0  0  0  0  0  0  0  0  0
   22.3822  -19.3761  -14.9688 N   0  0  0  0  0  0  0  0  0  0  0  0
   21.6059  -19.9236  -13.8568 C   0  0  1  0  0  0  0  0  0  0  0  0
   21.6216  -18.9304  -12.7367 C   0  0  0  0  0  0  0  0  0  0  0  0
   20.8059  -19.3019  -11.5767 C   0  0  0  0  0  0  0  0  0  0  0  0
   20.1477  -20.5007  -11.4273 C   0  0  0  0  0  0  0  0  0  0  0  0
   19.5197  -20.4429  -10.2440 N   0  0  0  0  0  0  0  0  0  0  0  0
   19.7692  -19.2608   -9.6695 C   0  0  0  0  0  0  0  0  0  0  0  0
   20.5604  -18.5581  -10.4881 N   0  0  0  0  0  0  0  0  0  0  0  0
   20.1966  -20.1763  -14.2859 C   0  0  0  0  0  0  0  0  0  0  0  0
   19.5387  -21.1619  -13.8636 O   0  0  0  0  0  0  0  0  0  0  0  0
   19.5524  -19.3279  -15.1729 O   0  0  0  0  0  0  0  0  0  0  0  0
  2  5  1  0
  2  1  1  1
  3  2  1  0
  4  3  1  0
  5  6  2  0
  7  8  1  0
  7  5  1  0
  9 10  1  0
  8  9  1  6
 10 14  1  0
 11 10  2  0
 12 15  1  0
 12  8  1  0
 13 12  2  0
 16 15  1  0
 16 17  1  1
 18 17  1  0
 18 19  2  0
 20 19  1  0
 21 22  2  0
 21 20  1  0
 22 18  1  0
 23 16  1  0
 24 23  2  0
 25 23  1  0
M  END
$$$$
