CDH.pdb
     RDKit          3D

 25 25  0  0  1  0  0  0  0  0999 V2000
   20.9317  -14.5423  -16.1080 N   0  0  0  0  0  0  0  0  0  0  0  0
   20.1783  -13.5032  -16.7693 C   0  0  1  0  0  0  0  0  0  0  0  0
   18.7428  -14.0027  -16.9491 C   0  0  0  0  0  0  0  0  0  0  0  0
   18.7044  -15.1334  -18.3500 S   0  0  0  0  0  0  0  0  0  0  0  0
   20.2423  -12.2607  -15.9704 C   0  0  0  0  0  0  0  0  0  0  0  0
   19.9272  -12.2958  -14.7334 O   0  0  0  0  0  0  0  0  0  0  0  0
   20.6440  -11.0053  -16.5133 N   0  0  0  0  0  0  0  0  0  0  0  0
   20.5507   -9.8333  -15.7027 C   0  0  1  0  0  0  0  0  0  0  0  0
   21.8519   -9.0440  -15.9403 C   0  0  0  0  0  0  0  0  0  0  0  0
   21.8335   -7.9179  -14.9688 C   0  0  0  0  0  0  0  0  0  0  0  0
   21.8737   -6.7286  -15.3455 O   0  0  0  0  0  0  0  0  0  0  0  0
   19.4345   -8.9466  -16.0435 C   0  0  0  0  0  0  0  0  0  0  0  0
   19.1383   -8.5884  -17.2110 O   0  0  0  0  0  0  0  0  0  0  0  0
   21.7707   -8.1765  -13.6044 O   0  0  0  0  0  0  0  0  0  0  0  0
   18.6185   -8.4495  -14.9711 N   0  0  0  0  0  0  0  0  0  0  0  0
   17.4974   -7.5491  -15.2381 C   0  0  1  0  0  0  0  0  0  0  0  0
   16.3593   -7.9359  -14.3457 C   0  0  0  0  0  0  0  0  0  0  0  0
   15.5917   -9.0990  -14.8006 C   0  0  0  0  0  0  0  0  0  0  0  0
   15.7931   -9.7602  -15.9900 C   0  0  0  0  0  0  0  0  0  0  0  0
   14.8920  -10.7524  -16.0290 N   0  0  0  0  0  0  0  0  0  0  0  0
   14.1533  -10.7213  -14.9141 C   0  0  0  0  0  0  0  0  0  0  0  0
   14.5827   -9.7049  -14.1576 N   0  0  0  0  0  0  0  0  0  0  0  0
   17.8944   -6.1346  -14.9634 C   0  0  0  0  0  0  0  0  0  0  0  0
   19.0185   -5.8403  -14.4813 O   0  0  0  0  0  0  0  0  0  0  0  0
   17.0337   -5.0816  -15.2314 O   0  0  0  0  0  0  0  0  0  0  0  0
  2  5  1  0
  2  1  1  1
  3  2  1  0
  4  3  1  0
  5  6  2  0
  7  8  1  0
  7  5  1  0
  9 10  1  0
  8  9  1  6
 10 14  1  0
 11 10  2  0
 12 15  1  0
 12  8  1  0
 13 12  2  0
 16 15  1  0
 16 17  1  1
 18 17  1  0
 18 19  2  0
 20 19  1  0
 21 22  2  0
 21 20  1  0
 22 18  1  0
 23 16  1  0
 24 23  2  0
 25 23  1  0
M  END
$$$$
