CDH.pdb
     RDKit          3D

 25 25  0  0  1  0  0  0  0  0999 V2000
   15.4141  -12.4402  -15.3375 N   0  0  0  0  0  0  0  0  0  0  0  0
   16.7481  -12.0258  -14.9725 C   0  0  1  0  0  0  0  0  0  0  0  0
   17.7387  -12.9848  -15.6368 C   0  0  0  0  0  0  0  0  0  0  0  0
   18.0587  -14.3477  -14.5044 S   0  0  0  0  0  0  0  0  0  0  0  0
   16.9621  -10.6234  -15.3892 C   0  0  0  0  0  0  0  0  0  0  0  0
   17.0536  -10.3476  -16.6327 O   0  0  0  0  0  0  0  0  0  0  0  0
   17.0725   -9.5441  -14.4644 N   0  0  0  0  0  0  0  0  0  0  0  0
   17.4151   -8.2446  -14.9473 C   0  0  1  0  0  0  0  0  0  0  0  0
   16.6115   -7.2453  -14.0940 C   0  0  0  0  0  0  0  0  0  0  0  0
   16.7596   -5.9234  -14.7594 C   0  0  0  0  0  0  0  0  0  0  0  0
   17.3334   -4.9685  -14.1964 O   0  0  0  0  0  0  0  0  0  0  0  0
   18.8323   -7.8982  -14.8054 C   0  0  0  0  0  0  0  0  0  0  0  0
   19.5437   -8.1952  -13.8131 O   0  0  0  0  0  0  0  0  0  0  0  0
   16.2527   -5.7274  -16.0390 O   0  0  0  0  0  0  0  0  0  0  0  0
   19.4566   -7.1680  -15.8732 N   0  0  0  0  0  0  0  0  0  0  0  0
   20.8625   -6.7739  -15.7894 C   0  0  1  0  0  0  0  0  0  0  0  0
   21.5098   -7.0529  -17.1102 C   0  0  0  0  0  0  0  0  0  0  0  0
   22.9225   -6.6701  -17.1933 C   0  0  0  0  0  0  0  0  0  0  0  0
   23.4171   -5.4164  -16.9174 C   0  0  0  0  0  0  0  0  0  0  0  0
   24.7417   -5.4799  -17.1153 N   0  0  0  0  0  0  0  0  0  0  0  0
   25.0715   -6.7184  -17.4990 C   0  0  0  0  0  0  0  0  0  0  0  0
   23.9534   -7.4515  -17.5473 N   0  0  0  0  0  0  0  0  0  0  0  0
   20.9724   -5.3173  -15.4725 C   0  0  0  0  0  0  0  0  0  0  0  0
   20.1819   -4.4686  -15.9597 O   0  0  0  0  0  0  0  0  0  0  0  0
   21.9570   -4.8392  -14.6220 O   0  0  0  0  0  0  0  0  0  0  0  0
  2  5  1  0
  2  1  1  6
  3  2  1  0
  4  3  1  0
  5  6  2  0
  7  8  1  0
  7  5  1  0
  9 10  1  0
  8  9  1  1
 10 14  1  0
 11 10  2  0
 12 15  1  0
 12  8  1  0
 13 12  2  0
 16 15  1  0
 16 17  1  6
 18 17  1  0
 18 19  2  0
 20 19  1  0
 21 22  2  0
 21 20  1  0
 22 18  1  0
 23 16  1  0
 24 23  2  0
 25 23  1  0
M  END
$$$$
