CDH.pdb
     RDKit          3D

 25 25  0  0  1  0  0  0  0  0999 V2000
   27.6634  -10.7621  -18.9933 N   0  0  0  0  0  0  0  0  0  0  0  0
   26.2692  -10.7605  -19.3689 C   0  0  1  0  0  0  0  0  0  0  0  0
   25.6552  -12.0853  -18.9102 C   0  0  0  0  0  0  0  0  0  0  0  0
   26.3992  -13.4186  -19.8647 S   0  0  0  0  0  0  0  0  0  0  0  0
   25.5949   -9.5921  -18.7636 C   0  0  0  0  0  0  0  0  0  0  0  0
   25.8898   -9.2494  -17.5693 O   0  0  0  0  0  0  0  0  0  0  0  0
   24.6185   -8.8135  -19.4511 N   0  0  0  0  0  0  0  0  0  0  0  0
   24.0262   -7.6954  -18.7891 C   0  0  1  0  0  0  0  0  0  0  0  0
   23.5994   -6.7173  -19.8999 C   0  0  0  0  0  0  0  0  0  0  0  0
   24.8585   -6.1887  -20.4892 C   0  0  0  0  0  0  0  0  0  0  0  0
   25.7110   -5.6017  -19.7916 O   0  0  0  0  0  0  0  0  0  0  0  0
   22.8286   -8.0170  -18.0076 C   0  0  0  0  0  0  0  0  0  0  0  0
   21.9397   -8.8299  -18.3656 O   0  0  0  0  0  0  0  0  0  0  0  0
   25.1094   -6.3423  -21.8479 O   0  0  0  0  0  0  0  0  0  0  0  0
   22.6542   -7.3597  -16.7425 N   0  0  0  0  0  0  0  0  0  0  0  0
   21.5043   -7.6647  -15.8919 C   0  0  1  0  0  0  0  0  0  0  0  0
   22.0103   -8.2103  -14.5928 C   0  0  0  0  0  0  0  0  0  0  0  0
   20.9699   -8.4897  -13.5987 C   0  0  0  0  0  0  0  0  0  0  0  0
   19.6161   -8.4253  -13.8349 C   0  0  0  0  0  0  0  0  0  0  0  0
   19.0145   -8.7443  -12.6799 N   0  0  0  0  0  0  0  0  0  0  0  0
   19.9454   -8.9997  -11.7536 C   0  0  0  0  0  0  0  0  0  0  0  0
   21.1486   -8.8436  -12.3175 N   0  0  0  0  0  0  0  0  0  0  0  0
   20.7049   -6.4270  -15.6409 C   0  0  0  0  0  0  0  0  0  0  0  0
   21.2319   -5.2847  -15.6311 O   0  0  0  0  0  0  0  0  0  0  0  0
   19.3399   -6.4880  -15.4077 O   0  0  0  0  0  0  0  0  0  0  0  0
  2  5  1  0
  2  1  1  1
  3  2  1  0
  4  3  1  0
  5  6  2  0
  7  8  1  0
  7  5  1  0
  9 10  1  0
  8  9  1  6
 10 14  1  0
 11 10  2  0
 12 15  1  0
 12  8  1  0
 13 12  2  0
 16 15  1  0
 16 17  1  1
 18 17  1  0
 18 19  2  0
 20 19  1  0
 21 22  2  0
 21 20  1  0
 22 18  1  0
 23 16  1  0
 24 23  2  0
 25 23  1  0
M  END
$$$$
