CDH.pdb
     RDKit          3D

 25 25  0  0  1  0  0  0  0  0999 V2000
   25.3418  -11.2067  -17.0851 N   0  0  0  0  0  0  0  0  0  0  0  0
   25.2887  -10.1362  -16.1178 C   0  0  1  0  0  0  0  0  0  0  0  0
   26.5490   -9.2845  -16.2865 C   0  0  0  0  0  0  0  0  0  0  0  0
   27.9302  -10.1541  -15.5260 S   0  0  0  0  0  0  0  0  0  0  0  0
   24.0519   -9.3506  -16.3165 C   0  0  0  0  0  0  0  0  0  0  0  0
   23.7246   -8.9873  -17.4962 O   0  0  0  0  0  0  0  0  0  0  0  0
   23.1897   -8.9710  -15.2465 N   0  0  0  0  0  0  0  0  0  0  0  0
   22.0484   -8.1594  -15.5253 C   0  0  1  0  0  0  0  0  0  0  0  0
   20.9415   -8.6327  -14.5644 C   0  0  0  0  0  0  0  0  0  0  0  0
   19.6950   -7.9510  -15.0044 C   0  0  0  0  0  0  0  0  0  0  0  0
   19.3617   -7.9098  -16.2065 O   0  0  0  0  0  0  0  0  0  0  0  0
   22.2491   -6.7271  -15.2875 C   0  0  0  0  0  0  0  0  0  0  0  0
   22.8781   -6.2469  -14.3112 O   0  0  0  0  0  0  0  0  0  0  0  0
   18.8689   -7.3389  -14.0688 O   0  0  0  0  0  0  0  0  0  0  0  0
   21.6898   -5.8029  -16.2341 N   0  0  0  0  0  0  0  0  0  0  0  0
   21.8799   -4.3615  -16.0760 C   0  0  1  0  0  0  0  0  0  0  0  0
   22.7803   -3.8818  -17.1717 C   0  0  0  0  0  0  0  0  0  0  0  0
   23.0730   -2.4457  -17.1397 C   0  0  0  0  0  0  0  0  0  0  0  0
   23.9314   -1.8357  -16.2545 C   0  0  0  0  0  0  0  0  0  0  0  0
   23.9164   -0.5284  -16.5522 N   0  0  0  0  0  0  0  0  0  0  0  0
   23.0859   -0.3197  -17.5801 C   0  0  0  0  0  0  0  0  0  0  0  0
   22.5666   -1.4982  -17.9425 N   0  0  0  0  0  0  0  0  0  0  0  0
   20.5653   -3.6551  -16.1590 C   0  0  0  0  0  0  0  0  0  0  0  0
   19.6479   -4.0442  -16.9268 O   0  0  0  0  0  0  0  0  0  0  0  0
   20.3016   -2.5345  -15.3869 O   0  0  0  0  0  0  0  0  0  0  0  0
  2  5  1  0
  2  1  1  6
  3  2  1  0
  4  3  1  0
  5  6  2  0
  7  8  1  0
  7  5  1  0
  9 10  1  0
  8  9  1  1
 10 14  1  0
 11 10  2  0
 12 15  1  0
 12  8  1  0
 13 12  2  0
 16 15  1  0
 16 17  1  6
 18 17  1  0
 18 19  2  0
 20 19  1  0
 21 22  2  0
 21 20  1  0
 22 18  1  0
 23 16  1  0
 24 23  2  0
 25 23  1  0
M  END
$$$$
