CDH.pdb
     RDKit          3D

 25 25  0  0  1  0  0  0  0  0999 V2000
   19.6293  -12.7528  -15.9431 N   0  0  0  0  0  0  0  0  0  0  0  0
   19.0581  -11.6954  -16.7433 C   0  0  1  0  0  0  0  0  0  0  0  0
   17.5772  -12.0150  -16.9603 C   0  0  0  0  0  0  0  0  0  0  0  0
   17.4558  -13.5763  -17.8493 S   0  0  0  0  0  0  0  0  0  0  0  0
   19.2564  -10.3977  -16.0629 C   0  0  0  0  0  0  0  0  0  0  0  0
   18.7399  -10.2107  -14.9101 O   0  0  0  0  0  0  0  0  0  0  0  0
   20.0057   -9.3265  -16.6315 N   0  0  0  0  0  0  0  0  0  0  0  0
   20.0387   -8.0660  -15.9611 C   0  0  1  0  0  0  0  0  0  0  0  0
   21.4790   -7.8945  -15.4427 C   0  0  0  0  0  0  0  0  0  0  0  0
   21.5422   -8.6301  -14.1516 C   0  0  0  0  0  0  0  0  0  0  0  0
   20.9251   -8.2330  -13.1419 O   0  0  0  0  0  0  0  0  0  0  0  0
   19.7439   -6.9143  -16.8185 C   0  0  0  0  0  0  0  0  0  0  0  0
   20.2169   -6.7420  -17.9698 O   0  0  0  0  0  0  0  0  0  0  0  0
   22.3022   -9.7896  -14.0474 O   0  0  0  0  0  0  0  0  0  0  0  0
   18.8518   -5.9091  -16.3117 N   0  0  0  0  0  0  0  0  0  0  0  0
   18.5354   -4.7205  -17.1029 C   0  0  1  0  0  0  0  0  0  0  0  0
   17.3123   -4.0804  -16.5235 C   0  0  0  0  0  0  0  0  0  0  0  0
   16.7818   -2.9569  -17.3015 C   0  0  0  0  0  0  0  0  0  0  0  0
   17.0482   -2.7229  -18.6307 C   0  0  0  0  0  0  0  0  0  0  0  0
   16.3831   -1.6060  -18.9594 N   0  0  0  0  0  0  0  0  0  0  0  0
   15.7245   -1.1530  -17.8866 C   0  0  0  0  0  0  0  0  0  0  0  0
   15.9688   -1.9831  -16.8662 N   0  0  0  0  0  0  0  0  0  0  0  0
   19.6758   -3.7552  -17.0631 C   0  0  0  0  0  0  0  0  0  0  0  0
   20.2467   -3.4433  -15.9863 O   0  0  0  0  0  0  0  0  0  0  0  0
   20.1547   -3.1605  -18.2200 O   0  0  0  0  0  0  0  0  0  0  0  0
  2  5  1  0
  2  1  1  1
  3  2  1  0
  4  3  1  0
  5  6  2  0
  7  8  1  0
  7  5  1  0
  9 10  1  0
  8  9  1  6
 10 14  1  0
 11 10  2  0
 12 15  1  0
 12  8  1  0
 13 12  2  0
 16 15  1  0
 16 17  1  1
 18 17  1  0
 18 19  2  0
 20 19  1  0
 21 22  2  0
 21 20  1  0
 22 18  1  0
 23 16  1  0
 24 23  2  0
 25 23  1  0
M  END
$$$$
