CDH.pdb
     RDKit          3D

 25 25  0  0  1  0  0  0  0  0999 V2000
   24.3354  -12.3360  -16.3968 N   0  0  0  0  0  0  0  0  0  0  0  0
   23.3004  -11.7433  -17.2105 C   0  0  1  0  0  0  0  0  0  0  0  0
   22.4708  -12.8767  -17.8184 C   0  0  0  0  0  0  0  0  0  0  0  0
   23.4625  -13.6959  -19.0785 S   0  0  0  0  0  0  0  0  0  0  0  0
   22.4812  -10.8321  -16.3830 C   0  0  0  0  0  0  0  0  0  0  0  0
   22.0976  -11.2131  -15.2260 O   0  0  0  0  0  0  0  0  0  0  0  0
   22.0903   -9.5299  -16.8118 N   0  0  0  0  0  0  0  0  0  0  0  0
   21.3187   -8.7094  -15.9340 C   0  0  1  0  0  0  0  0  0  0  0  0
   21.8359   -7.2714  -16.1274 C   0  0  0  0  0  0  0  0  0  0  0  0
   21.1465   -6.4444  -15.1012 C   0  0  0  0  0  0  0  0  0  0  0  0
   20.3165   -5.5676  -15.4177 O   0  0  0  0  0  0  0  0  0  0  0  0
   19.8813   -8.6979  -16.2205 C   0  0  0  0  0  0  0  0  0  0  0  0
   19.3827   -8.5509  -17.3646 O   0  0  0  0  0  0  0  0  0  0  0  0
   21.4205   -6.6380  -13.7521 O   0  0  0  0  0  0  0  0  0  0  0  0
   18.9744   -8.8665  -15.1195 N   0  0  0  0  0  0  0  0  0  0  0  0
   17.5362   -9.0023  -15.3475 C   0  0  1  0  0  0  0  0  0  0  0  0
   17.0095  -10.0550  -14.4224 C   0  0  0  0  0  0  0  0  0  0  0  0
   15.5769  -10.3325  -14.5621 C   0  0  0  0  0  0  0  0  0  0  0  0
   14.7334   -9.6980  -15.4444 C   0  0  0  0  0  0  0  0  0  0  0  0
   13.5179  -10.2320  -15.2568 N   0  0  0  0  0  0  0  0  0  0  0  0
   13.5883  -11.1632  -14.2988 C   0  0  0  0  0  0  0  0  0  0  0  0
   14.8543  -11.2261  -13.8708 N   0  0  0  0  0  0  0  0  0  0  0  0
   16.8459   -7.7043  -15.0783 C   0  0  0  0  0  0  0  0  0  0  0  0
   17.3789   -6.7974  -14.3885 O   0  0  0  0  0  0  0  0  0  0  0  0
   15.5809   -7.4450  -15.5823 O   0  0  0  0  0  0  0  0  0  0  0  0
  2  5  1  0
  2  1  1  1
  3  2  1  0
  4  3  1  0
  5  6  2  0
  7  8  1  0
  7  5  1  0
  9 10  1  0
  8  9  1  6
 10 14  1  0
 11 10  2  0
 12 15  1  0
 12  8  1  0
 13 12  2  0
 16 15  1  0
 16 17  1  1
 18 17  1  0
 18 19  2  0
 20 19  1  0
 21 22  2  0
 21 20  1  0
 22 18  1  0
 23 16  1  0
 24 23  2  0
 25 23  1  0
M  END
$$$$
