CDH.pdb
     RDKit          3D

 25 25  0  0  1  0  0  0  0  0999 V2000
   25.2769  -10.5190  -15.8251 N   0  0  0  0  0  0  0  0  0  0  0  0
   23.8659  -10.7962  -15.9552 C   0  0  1  0  0  0  0  0  0  0  0  0
   23.5590  -12.0667  -15.1588 C   0  0  0  0  0  0  0  0  0  0  0  0
   24.3764  -13.4547  -15.9635 S   0  0  0  0  0  0  0  0  0  0  0  0
   23.0871   -9.6341  -15.4765 C   0  0  0  0  0  0  0  0  0  0  0  0
   23.3752   -9.1102  -14.3481 O   0  0  0  0  0  0  0  0  0  0  0  0
   22.0154   -9.0558  -16.2178 N   0  0  0  0  0  0  0  0  0  0  0  0
   21.3150   -7.9370  -15.6729 C   0  0  1  0  0  0  0  0  0  0  0  0
   20.8399   -7.1019  -16.8769 C   0  0  0  0  0  0  0  0  0  0  0  0
   22.0593   -6.4674  -17.4448 C   0  0  0  0  0  0  0  0  0  0  0  0
   22.6351   -5.5232  -16.8661 O   0  0  0  0  0  0  0  0  0  0  0  0
   20.1269   -8.2873  -14.8893 C   0  0  0  0  0  0  0  0  0  0  0  0
   19.3391   -9.2258  -15.1682 O   0  0  0  0  0  0  0  0  0  0  0  0
   22.5850   -6.9232  -18.6484 O   0  0  0  0  0  0  0  0  0  0  0  0
   19.8384   -7.5062  -13.7189 N   0  0  0  0  0  0  0  0  0  0  0  0
   18.6675   -7.7986  -12.8929 C   0  0  1  0  0  0  0  0  0  0  0  0
   19.0100   -7.4992  -11.4666 C   0  0  0  0  0  0  0  0  0  0  0  0
   17.9226   -7.7361  -10.5125 C   0  0  0  0  0  0  0  0  0  0  0  0
   17.3767   -8.9666  -10.2289 C   0  0  0  0  0  0  0  0  0  0  0  0
   16.4159   -8.7538   -9.3182 N   0  0  0  0  0  0  0  0  0  0  0  0
   16.3560   -7.4472   -9.0373 C   0  0  0  0  0  0  0  0  0  0  0  0
   17.2823   -6.8201   -9.7711 N   0  0  0  0  0  0  0  0  0  0  0  0
   17.5102   -6.9549  -13.3206 C   0  0  0  0  0  0  0  0  0  0  0  0
   16.3412   -7.4145  -13.3903 O   0  0  0  0  0  0  0  0  0  0  0  0
   17.6794   -5.6216  -13.6597 O   0  0  0  0  0  0  0  0  0  0  0  0
  2  5  1  0
  2  1  1  1
  3  2  1  0
  4  3  1  0
  5  6  2  0
  7  8  1  0
  7  5  1  0
  9 10  1  0
  8  9  1  6
 10 14  1  0
 11 10  2  0
 12 15  1  0
 12  8  1  0
 13 12  2  0
 16 15  1  0
 16 17  1  1
 18 17  1  0
 18 19  2  0
 20 19  1  0
 21 22  2  0
 21 20  1  0
 22 18  1  0
 23 16  1  0
 24 23  2  0
 25 23  1  0
M  END
$$$$
