CDH.pdb
     RDKit          3D

 25 25  0  0  1  0  0  0  0  0999 V2000
   27.9105  -21.9123  -14.5868 N   0  0  0  0  0  0  0  0  0  0  0  0
   27.4351  -20.9107  -13.6619 C   0  0  1  0  0  0  0  0  0  0  0  0
   27.8255  -19.5369  -14.2121 C   0  0  0  0  0  0  0  0  0  0  0  0
   29.5475  -19.2226  -13.7900 S   0  0  0  0  0  0  0  0  0  0  0  0
   25.9731  -21.0497  -13.4903 C   0  0  0  0  0  0  0  0  0  0  0  0
   25.2987  -21.6894  -14.3660 O   0  0  0  0  0  0  0  0  0  0  0  0
   25.2631  -20.5012  -12.3824 N   0  0  0  0  0  0  0  0  0  0  0  0
   23.8413  -20.6253  -12.3352 C   0  0  1  0  0  0  0  0  0  0  0  0
   23.4145  -20.1296  -10.9407 C   0  0  0  0  0  0  0  0  0  0  0  0
   21.9994  -20.5537  -10.7682 C   0  0  0  0  0  0  0  0  0  0  0  0
   21.3427  -20.2430   -9.7533 O   0  0  0  0  0  0  0  0  0  0  0  0
   23.1276  -19.8122  -13.3242 C   0  0  0  0  0  0  0  0  0  0  0  0
   23.4761  -18.6606  -13.6867 O   0  0  0  0  0  0  0  0  0  0  0  0
   21.3763  -21.3153  -11.7502 O   0  0  0  0  0  0  0  0  0  0  0  0
   21.9462  -20.3663  -13.9244 N   0  0  0  0  0  0  0  0  0  0  0  0
   21.3809  -19.7848  -15.1414 C   0  0  1  0  0  0  0  0  0  0  0  0
   21.9486  -20.5132  -16.3197 C   0  0  0  0  0  0  0  0  0  0  0  0
   22.8548  -19.7178  -17.1535 C   0  0  0  0  0  0  0  0  0  0  0  0
   23.1694  -18.3962  -16.9367 C   0  0  0  0  0  0  0  0  0  0  0  0
   24.0169  -18.0435  -17.9141 N   0  0  0  0  0  0  0  0  0  0  0  0
   24.2298  -19.0946  -18.7139 C   0  0  0  0  0  0  0  0  0  0  0  0
   23.5156  -20.1251  -18.2470 N   0  0  0  0  0  0  0  0  0  0  0  0
   19.8924  -19.9201  -15.1351 C   0  0  0  0  0  0  0  0  0  0  0  0
   19.2925  -20.6347  -14.2913 O   0  0  0  0  0  0  0  0  0  0  0  0
   19.1066  -19.2580  -16.0656 O   0  0  0  0  0  0  0  0  0  0  0  0
  2  5  1  0
  2  1  1  6
  3  2  1  0
  4  3  1  0
  5  6  2  0
  7  8  1  0
  7  5  1  0
  9 10  1  0
  8  9  1  1
 10 14  1  0
 11 10  2  0
 12 15  1  0
 12  8  1  0
 13 12  2  0
 16 15  1  0
 16 17  1  6
 18 17  1  0
 18 19  2  0
 20 19  1  0
 21 22  2  0
 21 20  1  0
 22 18  1  0
 23 16  1  0
 24 23  2  0
 25 23  1  0
M  END
$$$$
