HFF.pdb
     RDKit          3D

 33 35  0  0  1  0  0  0  0  0999 V2000
   11.6624  -18.1890    1.5867 N   0  0  0  0  0  0  0  0  0  0  0  0
   11.9811  -18.1583    3.0076 C   0  0  1  0  0  0  0  0  0  0  0  0
   10.9053  -18.9258    3.7874 C   0  0  0  0  0  0  0  0  0  0  0  0
    9.6409  -18.1870    3.7913 C   0  0  0  0  0  0  0  0  0  0  0  0
    9.4454  -16.9212    4.3364 C   0  0  0  0  0  0  0  0  0  0  0  0
    8.1549  -16.6007    4.1412 N   0  0  0  0  0  0  0  0  0  0  0  0
    7.5515  -17.6192    3.4987 C   0  0  0  0  0  0  0  0  0  0  0  0
    8.4667  -18.5757    3.2924 N   0  0  0  0  0  0  0  0  0  0  0  0
   13.2159  -18.9927    3.1597 C   0  0  0  0  0  0  0  0  0  0  0  0
   13.4876  -19.9365    2.4112 O   0  0  0  0  0  0  0  0  0  0  0  0
   14.1311  -18.6981    4.2108 N   0  0  0  0  0  0  0  0  0  0  0  0
   15.3015  -19.4821    4.4746 C   0  0  1  0  0  0  0  0  0  0  0  0
   16.5711  -18.6595    4.4196 C   0  0  0  0  0  0  0  0  0  0  0  0
   17.0254  -18.3530    3.0460 C   0  0  0  0  0  0  0  0  0  0  0  0
   16.9519  -17.0552    2.5564 C   0  0  0  0  0  0  0  0  0  0  0  0
   17.3744  -16.7084    1.3038 C   0  0  0  0  0  0  0  0  0  0  0  0
   17.8921  -17.6623    0.4863 C   0  0  0  0  0  0  0  0  0  0  0  0
   17.9877  -18.9647    0.9194 C   0  0  0  0  0  0  0  0  0  0  0  0
   17.5551  -19.3020    2.1960 C   0  0  0  0  0  0  0  0  0  0  0  0
   15.2085  -20.3695    5.6506 C   0  0  0  0  0  0  0  0  0  0  0  0
   14.5644  -20.0204    6.7025 O   0  0  0  0  0  0  0  0  0  0  0  0
   15.8541  -21.6236    5.5866 N   0  0  0  0  0  0  0  0  0  0  0  0
   15.9216  -22.5353    6.7026 C   0  0  1  0  0  0  0  0  0  0  0  0
   15.8242  -23.9338    6.1131 C   0  0  0  0  0  0  0  0  0  0  0  0
   16.9010  -24.2679    5.2064 C   0  0  0  0  0  0  0  0  0  0  0  0
   17.9988  -24.9301    5.7176 C   0  0  0  0  0  0  0  0  0  0  0  0
   19.0637  -25.2945    4.8846 C   0  0  0  0  0  0  0  0  0  0  0  0
   19.0156  -24.9944    3.5611 C   0  0  0  0  0  0  0  0  0  0  0  0
   17.9210  -24.3246    3.0060 C   0  0  0  0  0  0  0  0  0  0  0  0
   16.8731  -23.9765    3.8774 C   0  0  0  0  0  0  0  0  0  0  0  0
   17.1211  -22.2956    7.4767 C   0  0  0  0  0  0  0  0  0  0  0  0
   17.3039  -22.9213    8.7012 O   0  0  0  0  0  0  0  0  0  0  0  0
   18.0468  -21.5190    7.0828 O   0  0  0  0  0  0  0  0  0  0  0  0
  2  1  1  6
  2  3  1  0
  4  3  1  0
  5  4  2  0
  6  7  1  0
  6  5  1  0
  7  8  2  0
  8  4  1  0
  9 11  1  0
  9  2  1  0
 10  9  2  0
 12 11  1  0
 12 13  1  1
 13 14  1  0
 14 19  1  0
 15 14  2  0
 15 16  1  0
 16 17  2  0
 17 18  1  0
 19 18  2  0
 20 12  1  0
 21 20  2  0
 22 20  1  0
 23 31  1  0
 23 22  1  0
 23 24  1  6
 25 24  1  0
 25 26  2  0
 27 26  1  0
 28 27  2  0
 29 30  2  0
 29 28  1  0
 30 25  1  0
 31 32  1  0
 33 31  2  0
M  END
$$$$
