HFF.pdb
     RDKit          3D

 33 35  0  0  1  0  0  0  0  0999 V2000
   32.0163  -32.5133  -17.1319 N   0  0  0  0  0  0  0  0  0  0  0  0
   30.5808  -32.5403  -17.3776 C   0  0  1  0  0  0  0  0  0  0  0  0
   30.2637  -33.6159  -18.4250 C   0  0  0  0  0  0  0  0  0  0  0  0
   30.5213  -33.1157  -19.7769 C   0  0  0  0  0  0  0  0  0  0  0  0
   29.9241  -31.9984  -20.3535 C   0  0  0  0  0  0  0  0  0  0  0  0
   30.4215  -31.8802  -21.5965 N   0  0  0  0  0  0  0  0  0  0  0  0
   31.2993  -32.8803  -21.8050 C   0  0  0  0  0  0  0  0  0  0  0  0
   31.3500  -33.6227  -20.6908 N   0  0  0  0  0  0  0  0  0  0  0  0
   29.9674  -33.0608  -16.1138 C   0  0  0  0  0  0  0  0  0  0  0  0
   30.5076  -33.9155  -15.4051 O   0  0  0  0  0  0  0  0  0  0  0  0
   28.7027  -32.5572  -15.6941 N   0  0  0  0  0  0  0  0  0  0  0  0
   28.0479  -32.9841  -14.4928 C   0  0  1  0  0  0  0  0  0  0  0  0
   27.3257  -31.8507  -13.7958 C   0  0  0  0  0  0  0  0  0  0  0  0
   26.5438  -32.2770  -12.6151 C   0  0  0  0  0  0  0  0  0  0  0  0
   25.1952  -32.5846  -12.7413 C   0  0  0  0  0  0  0  0  0  0  0  0
   24.4268  -33.0026  -11.6911 C   0  0  0  0  0  0  0  0  0  0  0  0
   24.9899  -33.1285  -10.4609 C   0  0  0  0  0  0  0  0  0  0  0  0
   26.3219  -32.8362  -10.2784 C   0  0  0  0  0  0  0  0  0  0  0  0
   27.0907  -32.4135  -11.3558 C   0  0  0  0  0  0  0  0  0  0  0  0
   27.2501  -34.2196  -14.6198 C   0  0  0  0  0  0  0  0  0  0  0  0
   26.2402  -34.2856  -15.4065 O   0  0  0  0  0  0  0  0  0  0  0  0
   27.6313  -35.3365  -13.8446 N   0  0  0  0  0  0  0  0  0  0  0  0
   26.9102  -36.5860  -13.8514 C   0  0  1  0  0  0  0  0  0  0  0  0
   27.9577  -37.6799  -13.7145 C   0  0  0  0  0  0  0  0  0  0  0  0
   27.4328  -39.0205  -13.8585 C   0  0  0  0  0  0  0  0  0  0  0  0
   28.2991  -40.0800  -13.6803 C   0  0  0  0  0  0  0  0  0  0  0  0
   27.8441  -41.3997  -13.7904 C   0  0  0  0  0  0  0  0  0  0  0  0
   26.5380  -41.6394  -14.0740 C   0  0  0  0  0  0  0  0  0  0  0  0
   25.6299  -40.5929  -14.2615 C   0  0  0  0  0  0  0  0  0  0  0  0
   26.1280  -39.2828  -14.1425 C   0  0  0  0  0  0  0  0  0  0  0  0
   25.9019  -36.5911  -12.8129 C   0  0  0  0  0  0  0  0  0  0  0  0
   24.9701  -37.6164  -12.7431 O   0  0  0  0  0  0  0  0  0  0  0  0
   25.8214  -35.6787  -11.9318 O   0  0  0  0  0  0  0  0  0  0  0  0
  2  1  1  1
  2  3  1  0
  4  3  1  0
  5  4  2  0
  6  7  1  0
  6  5  1  0
  7  8  2  0
  8  4  1  0
  9 11  1  0
  9  2  1  0
 10  9  2  0
 12 11  1  0
 12 13  1  6
 13 14  1  0
 14 19  1  0
 15 14  2  0
 15 16  1  0
 16 17  2  0
 17 18  1  0
 19 18  2  0
 20 12  1  0
 21 20  2  0
 22 20  1  0
 23 31  1  0
 23 22  1  0
 23 24  1  1
 25 24  1  0
 25 26  2  0
 27 26  1  0
 28 27  2  0
 29 30  2  0
 29 28  1  0
 30 25  1  0
 31 32  1  0
 33 31  2  0
M  END
$$$$
