HFF.pdb
     RDKit          3D

 33 35  0  0  1  0  0  0  0  0999 V2000
   23.7021  -21.2876  -15.9697 N   0  0  0  0  0  0  0  0  0  0  0  0
   23.3221  -20.9932  -14.5947 C   0  0  1  0  0  0  0  0  0  0  0  0
   22.4357  -22.1249  -14.0581 C   0  0  0  0  0  0  0  0  0  0  0  0
   21.0794  -22.0236  -14.6006 C   0  0  0  0  0  0  0  0  0  0  0  0
   20.0664  -21.2108  -14.0997 C   0  0  0  0  0  0  0  0  0  0  0  0
   18.9823  -21.4093  -14.8688 N   0  0  0  0  0  0  0  0  0  0  0  0
   19.2899  -22.3112  -15.8207 C   0  0  0  0  0  0  0  0  0  0  0  0
   20.5673  -22.6752  -15.6456 N   0  0  0  0  0  0  0  0  0  0  0  0
   24.5858  -21.1017  -13.7974 C   0  0  0  0  0  0  0  0  0  0  0  0
   25.3142  -22.0984  -13.8218 O   0  0  0  0  0  0  0  0  0  0  0  0
   24.9817  -20.0139  -12.9673 N   0  0  0  0  0  0  0  0  0  0  0  0
   26.1553  -20.0412  -12.1452 C   0  0  1  0  0  0  0  0  0  0  0  0
   26.9867  -18.7838  -12.2852 C   0  0  0  0  0  0  0  0  0  0  0  0
   27.4656  -18.5344  -13.6620 C   0  0  0  0  0  0  0  0  0  0  0  0
   28.5383  -19.2543  -14.1723 C   0  0  0  0  0  0  0  0  0  0  0  0
   29.0122  -19.0817  -15.4426 C   0  0  0  0  0  0  0  0  0  0  0  0
   28.4203  -18.1694  -16.2572 C   0  0  0  0  0  0  0  0  0  0  0  0
   27.3543  -17.4276  -15.8033 C   0  0  0  0  0  0  0  0  0  0  0  0
   26.8829  -17.6149  -14.5097 C   0  0  0  0  0  0  0  0  0  0  0  0
   25.9317  -20.4637  -10.7486 C   0  0  0  0  0  0  0  0  0  0  0  0
   24.7647  -20.4326  -10.2192 O   0  0  0  0  0  0  0  0  0  0  0  0
   27.0469  -20.9061  -10.0040 N   0  0  0  0  0  0  0  0  0  0  0  0
   27.0571  -20.9766   -8.5631 C   0  0  1  0  0  0  0  0  0  0  0  0
   28.3846  -20.3815   -8.1198 C   0  0  0  0  0  0  0  0  0  0  0  0
   28.4860  -20.1636   -6.6930 C   0  0  0  0  0  0  0  0  0  0  0  0
   29.0030  -21.1801   -5.9158 C   0  0  0  0  0  0  0  0  0  0  0  0
   29.1410  -21.0200   -4.5315 C   0  0  0  0  0  0  0  0  0  0  0  0
   28.7636  -19.8531   -3.9485 C   0  0  0  0  0  0  0  0  0  0  0  0
   28.2356  -18.8003   -4.7020 C   0  0  0  0  0  0  0  0  0  0  0  0
   28.1135  -19.0026   -6.0887 C   0  0  0  0  0  0  0  0  0  0  0  0
   25.8926  -20.3114   -8.0182 C   0  0  0  0  0  0  0  0  0  0  0  0
   25.1754  -20.8881   -6.9803 O   0  0  0  0  0  0  0  0  0  0  0  0
   25.4782  -19.1910   -8.4519 O   0  0  0  0  0  0  0  0  0  0  0  0
  2  1  1  6
  2  3  1  0
  4  3  1  0
  5  4  2  0
  6  7  1  0
  6  5  1  0
  7  8  2  0
  8  4  1  0
  9 11  1  0
  9  2  1  0
 10  9  2  0
 12 11  1  0
 12 13  1  1
 13 14  1  0
 14 19  1  0
 15 14  2  0
 15 16  1  0
 16 17  2  0
 17 18  1  0
 19 18  2  0
 20 12  1  0
 21 20  2  0
 22 20  1  0
 23 31  1  0
 23 22  1  0
 23 24  1  1
 25 24  1  0
 25 26  2  0
 27 26  1  0
 28 27  2  0
 29 30  2  0
 29 28  1  0
 30 25  1  0
 31 32  1  0
 33 31  2  0
M  END
$$$$
