HFF.pdb
     RDKit          3D

 33 35  0  0  1  0  0  0  0  0999 V2000
   25.6671  -22.0700  -13.0049 N   0  0  0  0  0  0  0  0  0  0  0  0
   25.8131  -20.7981  -12.3102 C   0  0  1  0  0  0  0  0  0  0  0  0
   24.4521  -20.0921  -12.2493 C   0  0  0  0  0  0  0  0  0  0  0  0
   24.0850  -19.5585  -13.5626 C   0  0  0  0  0  0  0  0  0  0  0  0
   22.9522  -19.9105  -14.2909 C   0  0  0  0  0  0  0  0  0  0  0  0
   22.9829  -19.2074  -15.4359 N   0  0  0  0  0  0  0  0  0  0  0  0
   24.0890  -18.4389  -15.4388 C   0  0  0  0  0  0  0  0  0  0  0  0
   24.7487  -18.6623  -14.2942 N   0  0  0  0  0  0  0  0  0  0  0  0
   26.1120  -21.1514  -10.8854 C   0  0  0  0  0  0  0  0  0  0  0  0
   25.5251  -22.0515  -10.2771 O   0  0  0  0  0  0  0  0  0  0  0  0
   27.1175  -20.4263  -10.1837 N   0  0  0  0  0  0  0  0  0  0  0  0
   27.3428  -20.5610   -8.7748 C   0  0  1  0  0  0  0  0  0  0  0  0
   28.7067  -20.0535   -8.3578 C   0  0  0  0  0  0  0  0  0  0  0  0
   28.8872  -19.9599   -6.8929 C   0  0  0  0  0  0  0  0  0  0  0  0
   28.5736  -18.7850   -6.2216 C   0  0  0  0  0  0  0  0  0  0  0  0
   28.7007  -18.6459   -4.8679 C   0  0  0  0  0  0  0  0  0  0  0  0
   29.1529  -19.6929   -4.1292 C   0  0  0  0  0  0  0  0  0  0  0  0
   29.4794  -20.8804   -4.7425 C   0  0  0  0  0  0  0  0  0  0  0  0
   29.3439  -21.0072   -6.1194 C   0  0  0  0  0  0  0  0  0  0  0  0
   26.2370  -20.0926   -7.9164 C   0  0  0  0  0  0  0  0  0  0  0  0
   25.7507  -18.9127   -8.0366 O   0  0  0  0  0  0  0  0  0  0  0  0
   25.7248  -20.9859   -6.9501 N   0  0  0  0  0  0  0  0  0  0  0  0
   24.7388  -20.6065   -5.9677 C   0  0  1  0  0  0  0  0  0  0  0  0
   23.3862  -20.7525   -6.6474 C   0  0  0  0  0  0  0  0  0  0  0  0
   22.2582  -20.5113   -5.7740 C   0  0  0  0  0  0  0  0  0  0  0  0
   21.7844  -19.2195   -5.6665 C   0  0  0  0  0  0  0  0  0  0  0  0
   20.6848  -18.9287   -4.8498 C   0  0  0  0  0  0  0  0  0  0  0  0
   20.0781  -19.9272   -4.1578 C   0  0  0  0  0  0  0  0  0  0  0  0
   20.5288  -21.2482   -4.2406 C   0  0  0  0  0  0  0  0  0  0  0  0
   21.6360  -21.4970   -5.0717 C   0  0  0  0  0  0  0  0  0  0  0  0
   24.8929  -21.4004   -4.7671 C   0  0  0  0  0  0  0  0  0  0  0  0
   25.1864  -22.7535   -4.8523 O   0  0  0  0  0  0  0  0  0  0  0  0
   24.7711  -20.9098   -3.6011 O   0  0  0  0  0  0  0  0  0  0  0  0
  2  1  1  6
  2  3  1  0
  4  3  1  0
  5  4  2  0
  6  7  1  0
  6  5  1  0
  7  8  2  0
  8  4  1  0
  9 11  1  0
  9  2  1  0
 10  9  2  0
 12 11  1  0
 12 13  1  1
 13 14  1  0
 14 19  1  0
 15 14  2  0
 15 16  1  0
 16 17  2  0
 17 18  1  0
 19 18  2  0
 20 12  1  0
 21 20  2  0
 22 20  1  0
 23 31  1  0
 23 22  1  0
 23 24  1  6
 25 24  1  0
 25 26  2  0
 27 26  1  0
 28 27  2  0
 29 30  2  0
 29 28  1  0
 30 25  1  0
 31 32  1  0
 33 31  2  0
M  END
$$$$
