HFF.pdb
     RDKit          3D

 33 35  0  0  1  0  0  0  0  0999 V2000
   28.2387  -19.5054  -19.1029 N   0  0  0  0  0  0  0  0  0  0  0  0
   27.7457  -18.5185  -18.1517 C   0  0  1  0  0  0  0  0  0  0  0  0
   26.5732  -17.7508  -18.7764 C   0  0  0  0  0  0  0  0  0  0  0  0
   27.0544  -16.7800  -19.7615 C   0  0  0  0  0  0  0  0  0  0  0  0
   26.4073  -16.4417  -20.9466 C   0  0  0  0  0  0  0  0  0  0  0  0
   27.1703  -15.5257  -21.5671 N   0  0  0  0  0  0  0  0  0  0  0  0
   28.2591  -15.2892  -20.8102 C   0  0  0  0  0  0  0  0  0  0  0  0
   28.1748  -16.0580  -19.7161 N   0  0  0  0  0  0  0  0  0  0  0  0
   27.1228  -19.3080  -17.0414 C   0  0  0  0  0  0  0  0  0  0  0  0
   26.4358  -20.3157  -17.2344 O   0  0  0  0  0  0  0  0  0  0  0  0
   27.3221  -18.8922  -15.6936 N   0  0  0  0  0  0  0  0  0  0  0  0
   26.6494  -19.4928  -14.5797 C   0  0  1  0  0  0  0  0  0  0  0  0
   27.4223  -19.3375  -13.2873 C   0  0  0  0  0  0  0  0  0  0  0  0
   26.7476  -19.9311  -12.1127 C   0  0  0  0  0  0  0  0  0  0  0  0
   26.8793  -21.2865  -11.8394 C   0  0  0  0  0  0  0  0  0  0  0  0
   26.2962  -21.8870  -10.7589 C   0  0  0  0  0  0  0  0  0  0  0  0
   25.5503  -21.1406   -9.9028 C   0  0  0  0  0  0  0  0  0  0  0  0
   25.3855  -19.7930  -10.1258 C   0  0  0  0  0  0  0  0  0  0  0  0
   25.9854  -19.1964  -11.2279 C   0  0  0  0  0  0  0  0  0  0  0  0
   25.2138  -19.1684  -14.4664 C   0  0  0  0  0  0  0  0  0  0  0  0
   24.8075  -17.9563  -14.3720 O   0  0  0  0  0  0  0  0  0  0  0  0
   24.2915  -20.2376  -14.4635 N   0  0  0  0  0  0  0  0  0  0  0  0
   22.8728  -20.0566  -14.2746 C   0  0  1  0  0  0  0  0  0  0  0  0
   22.2569  -20.0605  -15.6651 C   0  0  0  0  0  0  0  0  0  0  0  0
   20.8105  -20.0260  -15.6696 C   0  0  0  0  0  0  0  0  0  0  0  0
   20.1904  -18.7974  -15.7745 C   0  0  0  0  0  0  0  0  0  0  0  0
   18.7935  -18.7035  -15.8012 C   0  0  0  0  0  0  0  0  0  0  0  0
   18.0419  -19.8318  -15.7243 C   0  0  0  0  0  0  0  0  0  0  0  0
   18.6331  -21.0943  -15.6170 C   0  0  0  0  0  0  0  0  0  0  0  0
   20.0386  -21.1441  -15.5932 C   0  0  0  0  0  0  0  0  0  0  0  0
   22.3493  -21.0728  -13.3866 C   0  0  0  0  0  0  0  0  0  0  0  0
   22.8903  -22.3501  -13.3841 O   0  0  0  0  0  0  0  0  0  0  0  0
   21.3908  -20.8516  -12.5820 O   0  0  0  0  0  0  0  0  0  0  0  0
  2  1  1  6
  2  3  1  0
  4  3  1  0
  5  4  2  0
  6  7  1  0
  6  5  1  0
  7  8  2  0
  8  4  1  0
  9 11  1  0
  9  2  1  0
 10  9  2  0
 12 11  1  0
 12 13  1  1
 13 14  1  0
 14 19  1  0
 15 14  2  0
 15 16  1  0
 16 17  2  0
 17 18  1  0
 19 18  2  0
 20 12  1  0
 21 20  2  0
 22 20  1  0
 23 31  1  0
 23 22  1  0
 23 24  1  6
 25 24  1  0
 25 26  2  0
 27 26  1  0
 28 27  2  0
 29 30  2  0
 29 28  1  0
 30 25  1  0
 31 32  1  0
 33 31  2  0
M  END
$$$$
