HFF.pdb
     RDKit          3D

 33 35  0  0  1  0  0  0  0  0999 V2000
   29.2891  -23.4452  -18.6244 N   0  0  0  0  0  0  0  0  0  0  0  0
   28.2447  -22.4588  -18.3835 C   0  0  1  0  0  0  0  0  0  0  0  0
   26.8997  -23.0115  -18.8734 C   0  0  0  0  0  0  0  0  0  0  0  0
   26.6856  -22.6813  -20.2839 C   0  0  0  0  0  0  0  0  0  0  0  0
   27.0635  -23.4713  -21.3659 C   0  0  0  0  0  0  0  0  0  0  0  0
   26.6958  -22.8178  -22.4812 N   0  0  0  0  0  0  0  0  0  0  0  0
   26.1082  -21.6589  -22.1264 C   0  0  0  0  0  0  0  0  0  0  0  0
   26.1087  -21.5898  -20.7884 N   0  0  0  0  0  0  0  0  0  0  0  0
   28.0964  -22.3874  -16.8945 C   0  0  0  0  0  0  0  0  0  0  0  0
   28.2311  -23.3679  -16.1562 O   0  0  0  0  0  0  0  0  0  0  0  0
   27.7863  -21.1381  -16.2842 N   0  0  0  0  0  0  0  0  0  0  0  0
   27.6834  -20.9623  -14.8655 C   0  0  1  0  0  0  0  0  0  0  0  0
   28.6068  -19.8789  -14.3504 C   0  0  0  0  0  0  0  0  0  0  0  0
   29.3343  -20.2503  -13.1175 C   0  0  0  0  0  0  0  0  0  0  0  0
   29.0660  -19.5971  -11.9214 C   0  0  0  0  0  0  0  0  0  0  0  0
   29.6915  -19.9100  -10.7472 C   0  0  0  0  0  0  0  0  0  0  0  0
   30.6205  -20.9014  -10.7297 C   0  0  0  0  0  0  0  0  0  0  0  0
   30.9263  -21.5813  -11.8861 C   0  0  0  0  0  0  0  0  0  0  0  0
   30.2813  -21.2527  -13.0720 C   0  0  0  0  0  0  0  0  0  0  0  0
   26.3052  -20.8784  -14.3434 C   0  0  0  0  0  0  0  0  0  0  0  0
   25.3994  -20.2057  -14.9519 O   0  0  0  0  0  0  0  0  0  0  0  0
   26.0082  -21.5637  -13.1451 N   0  0  0  0  0  0  0  0  0  0  0  0
   24.7102  -21.5294  -12.5164 C   0  0  1  0  0  0  0  0  0  0  0  0
   24.8704  -22.2309  -11.1766 C   0  0  0  0  0  0  0  0  0  0  0  0
   25.6781  -21.5025  -10.2224 C   0  0  0  0  0  0  0  0  0  0  0  0
   25.0779  -20.4891   -9.5028 C   0  0  0  0  0  0  0  0  0  0  0  0
   25.8052  -19.7611   -8.5532 C   0  0  0  0  0  0  0  0  0  0  0  0
   27.1132  -20.0556   -8.3374 C   0  0  0  0  0  0  0  0  0  0  0  0
   27.7564  -21.0746   -9.0464 C   0  0  0  0  0  0  0  0  0  0  0  0
   26.9899  -21.7810   -9.9910 C   0  0  0  0  0  0  0  0  0  0  0  0
   24.2315  -20.1665  -12.4236 C   0  0  0  0  0  0  0  0  0  0  0  0
   25.1060  -19.1020  -12.5858 O   0  0  0  0  0  0  0  0  0  0  0  0
   23.0140  -19.8822  -12.1955 O   0  0  0  0  0  0  0  0  0  0  0  0
  2  1  1  1
  2  3  1  0
  4  3  1  0
  5  4  2  0
  6  7  1  0
  6  5  1  0
  7  8  2  0
  8  4  1  0
  9 11  1  0
  9  2  1  0
 10  9  2  0
 12 11  1  0
 12 13  1  6
 13 14  1  0
 14 19  1  0
 15 14  2  0
 15 16  1  0
 16 17  2  0
 17 18  1  0
 19 18  2  0
 20 12  1  0
 21 20  2  0
 22 20  1  0
 23 31  1  0
 23 22  1  0
 23 24  1  1
 25 24  1  0
 25 26  2  0
 27 26  1  0
 28 27  2  0
 29 30  2  0
 29 28  1  0
 30 25  1  0
 31 32  1  0
 33 31  2  0
M  END
$$$$
