HFF.pdb
     RDKit          3D

 33 35  0  0  1  0  0  0  0  0999 V2000
   12.7446  -15.0801    3.9427 N   0  0  0  0  0  0  0  0  0  0  0  0
   13.3357  -15.5953    5.1703 C   0  0  1  0  0  0  0  0  0  0  0  0
   12.4285  -16.6870    5.7530 C   0  0  0  0  0  0  0  0  0  0  0  0
   11.3290  -16.0947    6.5177 C   0  0  0  0  0  0  0  0  0  0  0  0
   10.0445  -15.8580    6.0364 C   0  0  0  0  0  0  0  0  0  0  0  0
    9.3415  -15.3038    7.0389 N   0  0  0  0  0  0  0  0  0  0  0  0
   10.1435  -15.1911    8.1151 C   0  0  0  0  0  0  0  0  0  0  0  0
   11.3478  -15.6760    7.7838 N   0  0  0  0  0  0  0  0  0  0  0  0
   14.5709  -16.3278    4.7439 C   0  0  0  0  0  0  0  0  0  0  0  0
   14.6456  -16.9659    3.6894 O   0  0  0  0  0  0  0  0  0  0  0  0
   15.7231  -16.2974    5.5811 N   0  0  0  0  0  0  0  0  0  0  0  0
   16.9290  -17.0118    5.2821 C   0  0  1  0  0  0  0  0  0  0  0  0
   18.1704  -16.2251    5.6452 C   0  0  0  0  0  0  0  0  0  0  0  0
   18.3412  -14.9829    4.8610 C   0  0  0  0  0  0  0  0  0  0  0  0
   18.6559  -15.0447    3.5095 C   0  0  0  0  0  0  0  0  0  0  0  0
   18.8064  -13.9323    2.7298 C   0  0  0  0  0  0  0  0  0  0  0  0
   18.6451  -12.7023    3.2842 C   0  0  0  0  0  0  0  0  0  0  0  0
   18.3337  -12.5821    4.6189 C   0  0  0  0  0  0  0  0  0  0  0  0
   18.1827  -13.7222    5.3986 C   0  0  0  0  0  0  0  0  0  0  0  0
   16.9524  -18.4171    5.7333 C   0  0  0  0  0  0  0  0  0  0  0  0
   16.3097  -18.7955    6.7759 O   0  0  0  0  0  0  0  0  0  0  0  0
   17.7086  -19.3419    4.9805 N   0  0  0  0  0  0  0  0  0  0  0  0
   17.8114  -20.7402    5.3198 C   0  0  1  0  0  0  0  0  0  0  0  0
   18.0832  -21.4733    4.0154 C   0  0  0  0  0  0  0  0  0  0  0  0
   18.2896  -22.8969    4.1708 C   0  0  0  0  0  0  0  0  0  0  0  0
   19.5871  -23.3670    4.1898 C   0  0  0  0  0  0  0  0  0  0  0  0
   19.8486  -24.7327    4.3546 C   0  0  0  0  0  0  0  0  0  0  0  0
   18.8160  -25.6028    4.4982 C   0  0  0  0  0  0  0  0  0  0  0  0
   17.4881  -25.1652    4.4842 C   0  0  0  0  0  0  0  0  0  0  0  0
   17.2694  -23.7858    4.3160 C   0  0  0  0  0  0  0  0  0  0  0  0
   18.8210  -20.9385    6.3380 C   0  0  0  0  0  0  0  0  0  0  0  0
   18.6824  -21.9495    7.2776 O   0  0  0  0  0  0  0  0  0  0  0  0
   19.8621  -20.2143    6.4205 O   0  0  0  0  0  0  0  0  0  0  0  0
  2  1  1  6
  2  3  1  0
  4  3  1  0
  5  4  2  0
  6  7  1  0
  6  5  1  0
  7  8  2  0
  8  4  1  0
  9 11  1  0
  9  2  1  0
 10  9  2  0
 12 11  1  0
 12 13  1  1
 13 14  1  0
 14 19  1  0
 15 14  2  0
 15 16  1  0
 16 17  2  0
 17 18  1  0
 19 18  2  0
 20 12  1  0
 21 20  2  0
 22 20  1  0
 23 31  1  0
 23 22  1  0
 23 24  1  6
 25 24  1  0
 25 26  2  0
 27 26  1  0
 28 27  2  0
 29 30  2  0
 29 28  1  0
 30 25  1  0
 31 32  1  0
 33 31  2  0
M  END
$$$$
