NIT.pdb
     RDKit          3D

 24 23  0  0  1  0  0  0  0  0999 V2000
   28.1818  -19.1348  -17.9764 N   0  0  0  0  0  0  0  0  0  0  0  0
   27.9510  -18.8987  -16.5863 C   0  0  0  0  0  0  0  0  0  0  0  0
   28.6858  -18.0339  -16.0396 O   0  0  0  0  0  0  0  0  0  0  0  0
   26.9259  -19.6088  -15.8179 C   0  0  0  0  0  0  0  0  0  0  0  0
   27.6309  -20.5409  -14.8321 C   0  0  2  0  0  0  0  0  0  0  0  0
   28.2467  -21.6471  -15.4955 N   0  0  0  0  0  0  0  0  0  0  0  0
   26.5800  -21.0418  -13.9055 C   0  0  0  0  0  0  0  0  0  0  0  0
   25.8900  -22.0233  -14.2735 O   0  0  0  0  0  0  0  0  0  0  0  0
   27.0643  -20.4455   -8.4865 C   0  0  0  0  0  0  0  0  0  0  0  0
   26.6923  -21.0756   -9.7792 C   0  0  0  0  0  0  0  0  0  0  0  0
   25.4364  -20.5851  -10.4162 C   0  0  2  0  0  0  0  0  0  0  0  0
   24.2741  -21.0233   -9.5436 C   0  0  0  0  0  0  0  0  0  0  0  0
   25.2339  -20.9600  -11.8459 C   0  0  2  0  0  0  0  0  0  0  0  0
   26.3406  -20.4496  -12.6394 N   0  0  0  0  0  0  0  0  0  0  0  0
   23.9423  -20.4011  -12.3191 C   0  0  0  0  0  0  0  0  0  0  0  0
   23.8334  -19.1567  -12.4175 O   0  0  0  0  0  0  0  0  0  0  0  0
   21.7766  -22.3233  -15.1616 C   0  0  0  0  0  0  0  0  0  0  0  0
   21.7646  -20.8212  -14.8315 C   0  0  1  0  0  0  0  0  0  0  0  0
   20.6114  -20.3287  -15.4234 O   0  0  0  0  0  0  0  0  0  0  0  0
   21.7070  -20.6285  -13.3302 C   0  0  2  0  0  0  0  0  0  0  0  0
   22.8336  -21.2201  -12.6621 N   0  0  0  0  0  0  0  0  0  0  0  0
   20.4346  -21.1726  -12.7901 C   0  0  0  0  0  0  0  0  0  0  0  0
   20.4645  -22.2844  -11.9874 O   0  0  0  0  0  0  0  0  0  0  0  0
   19.3632  -20.6229  -13.0669 O   0  0  0  0  0  0  0  0  0  0  0  0
  1  2  1  0
  2  3  2  0
  4  2  1  0
  5  4  1  0
  5  6  1  6
  7 14  1  0
  7  5  1  0
  8  7  2  0
 10  9  1  0
 11 10  1  0
 11 12  1  1
 13 11  1  0
 13 14  1  6
 15 13  1  0
 16 15  2  0
 18 20  1  0
 18 17  1  1
 19 18  1  0
 20 21  1  1
 21 15  1  0
 22 20  1  0
 22 23  1  0
 24 22  2  0
M  END
$$$$
