NIT.pdb
     RDKit          3D

 24 23  0  0  1  0  0  0  0  0999 V2000
   23.0838  -12.7027  -19.9641 N   0  0  0  0  0  0  0  0  0  0  0  0
   23.4294  -11.3166  -19.9878 C   0  0  0  0  0  0  0  0  0  0  0  0
   24.5349  -11.0282  -20.5184 O   0  0  0  0  0  0  0  0  0  0  0  0
   22.5662  -10.2713  -19.4332 C   0  0  0  0  0  0  0  0  0  0  0  0
   21.3529  -10.9465  -18.7930 C   0  0  2  0  0  0  0  0  0  0  0  0
   20.4082  -11.3806  -19.7739 N   0  0  0  0  0  0  0  0  0  0  0  0
   20.7209   -9.9253  -17.9147 C   0  0  0  0  0  0  0  0  0  0  0  0
   19.9520   -9.0873  -18.4452 O   0  0  0  0  0  0  0  0  0  0  0  0
   18.0825  -11.6867  -14.5035 C   0  0  0  0  0  0  0  0  0  0  0  0
   18.2918  -10.3861  -15.1900 C   0  0  0  0  0  0  0  0  0  0  0  0
   19.4256   -9.5530  -14.6959 C   0  0  2  0  0  0  0  0  0  0  0  0
   18.8692   -8.5701  -13.6817 C   0  0  0  0  0  0  0  0  0  0  0  0
   20.2467   -8.8737  -15.7398 C   0  0  2  0  0  0  0  0  0  0  0  0
   20.9605   -9.8736  -16.5179 N   0  0  0  0  0  0  0  0  0  0  0  0
   21.1952   -7.9388  -15.0834 C   0  0  0  0  0  0  0  0  0  0  0  0
   22.0272   -8.4081  -14.2724 O   0  0  0  0  0  0  0  0  0  0  0  0
   23.0317   -5.0388  -17.0388 C   0  0  0  0  0  0  0  0  0  0  0  0
   22.5755   -4.5421  -15.6566 C   0  0  1  0  0  0  0  0  0  0  0  0
   21.4417   -3.7818  -15.9001 O   0  0  0  0  0  0  0  0  0  0  0  0
   22.2338   -5.7259  -14.7755 C   0  0  2  0  0  0  0  0  0  0  0  0
   21.1937   -6.5417  -15.3397 N   0  0  0  0  0  0  0  0  0  0  0  0
   21.8550   -5.2629  -13.4158 C   0  0  0  0  0  0  0  0  0  0  0  0
   22.8151   -4.7300  -12.5939 O   0  0  0  0  0  0  0  0  0  0  0  0
   20.6832   -5.3611  -13.0361 O   0  0  0  0  0  0  0  0  0  0  0  0
  1  2  1  0
  2  3  2  0
  4  2  1  0
  5  4  1  0
  5  6  1  6
  7 14  1  0
  7  5  1  0
  8  7  2  0
 10  9  1  0
 11 10  1  0
 11 12  1  1
 13 11  1  0
 13 14  1  1
 15 13  1  0
 16 15  2  0
 18 20  1  0
 18 17  1  6
 19 18  1  0
 20 21  1  6
 21 15  1  0
 22 20  1  0
 22 23  1  0
 24 22  2  0
M  END
$$$$
