NIT.pdb
     RDKit          3D

 24 23  0  0  1  0  0  0  0  0999 V2000
   18.4965  -15.9622  -15.6292 N   0  0  0  0  0  0  0  0  0  0  0  0
   19.1157  -14.9155  -16.3792 C   0  0  0  0  0  0  0  0  0  0  0  0
   20.0689  -15.2572  -17.1285 O   0  0  0  0  0  0  0  0  0  0  0  0
   18.6865  -13.5174  -16.2986 C   0  0  0  0  0  0  0  0  0  0  0  0
   17.5685  -13.4221  -15.2601 C   0  0  2  0  0  0  0  0  0  0  0  0
   16.3527  -14.0051  -15.7342 N   0  0  0  0  0  0  0  0  0  0  0  0
   17.3559  -11.9715  -15.0062 C   0  0  0  0  0  0  0  0  0  0  0  0
   16.6219  -11.3362  -15.8014 O   0  0  0  0  0  0  0  0  0  0  0  0
   15.6779   -7.5509  -12.9638 C   0  0  0  0  0  0  0  0  0  0  0  0
   16.6455   -8.2587  -12.0867 C   0  0  0  0  0  0  0  0  0  0  0  0
   16.9519   -9.6730  -12.4468 C   0  0  2  0  0  0  0  0  0  0  0  0
   17.6963  -10.2960  -11.2798 C   0  0  0  0  0  0  0  0  0  0  0  0
   17.6650   -9.8828  -13.7403 C   0  0  2  0  0  0  0  0  0  0  0  0
   17.9510  -11.2987  -13.9088 N   0  0  0  0  0  0  0  0  0  0  0  0
   18.9183   -9.0866  -13.7418 C   0  0  0  0  0  0  0  0  0  0  0  0
   19.7536   -9.2910  -12.8304 O   0  0  0  0  0  0  0  0  0  0  0  0
   21.8025   -9.0697  -15.9385 C   0  0  0  0  0  0  0  0  0  0  0  0
   21.2951   -7.6181  -15.9105 C   0  0  1  0  0  0  0  0  0  0  0  0
   20.5204   -7.4823  -17.0526 O   0  0  0  0  0  0  0  0  0  0  0  0
   20.4495   -7.3961  -14.6737 C   0  0  2  0  0  0  0  0  0  0  0  0
   19.2027   -8.1088  -14.7320 N   0  0  0  0  0  0  0  0  0  0  0  0
   20.2121   -5.9444  -14.4663 C   0  0  0  0  0  0  0  0  0  0  0  0
   21.2512   -5.1421  -14.0690 O   0  0  0  0  0  0  0  0  0  0  0  0
   19.0854   -5.4721  -14.6517 O   0  0  0  0  0  0  0  0  0  0  0  0
  1  2  1  0
  2  3  2  0
  4  2  1  0
  5  4  1  0
  5  6  1  6
  7 14  1  0
  7  5  1  0
  8  7  2  0
 10  9  1  0
 11 10  1  0
 11 12  1  1
 13 11  1  0
 13 14  1  1
 15 13  1  0
 16 15  2  0
 18 20  1  0
 18 17  1  1
 19 18  1  0
 20 21  1  6
 21 15  1  0
 22 20  1  0
 22 23  1  0
 24 22  2  0
M  END
$$$$
