NIT.pdb
     RDKit          3D

 24 23  0  0  1  0  0  0  0  0999 V2000
   18.6340  -11.0065  -19.5580 N   0  0  0  0  0  0  0  0  0  0  0  0
   18.0273   -9.7461  -19.2667 C   0  0  0  0  0  0  0  0  0  0  0  0
   17.6841   -9.0515  -20.2599 O   0  0  0  0  0  0  0  0  0  0  0  0
   17.8067   -9.2657  -17.9007 C   0  0  0  0  0  0  0  0  0  0  0  0
   18.3762  -10.3038  -16.9335 C   0  0  2  0  0  0  0  0  0  0  0  0
   17.3925  -11.2671  -16.5494 N   0  0  0  0  0  0  0  0  0  0  0  0
   18.8288   -9.5521  -15.7319 C   0  0  0  0  0  0  0  0  0  0  0  0
   17.9616   -9.2032  -14.8947 O   0  0  0  0  0  0  0  0  0  0  0  0
   22.5557   -9.5445  -11.1962 C   0  0  0  0  0  0  0  0  0  0  0  0
   21.8471   -8.6680  -12.1638 C   0  0  0  0  0  0  0  0  0  0  0  0
   21.3283   -9.3280  -13.3962 C   0  0  2  0  0  0  0  0  0  0  0  0
   22.5054   -9.9727  -14.1055 C   0  0  0  0  0  0  0  0  0  0  0  0
   20.5252   -8.4691  -14.3142 C   0  0  2  0  0  0  0  0  0  0  0  0
   20.1907   -9.2241  -15.5113 N   0  0  0  0  0  0  0  0  0  0  0  0
   21.3083   -7.2549  -14.6568 C   0  0  0  0  0  0  0  0  0  0  0  0
   22.3539   -7.3931  -15.3332 O   0  0  0  0  0  0  0  0  0  0  0  0
   20.5146   -4.4721  -16.8332 C   0  0  0  0  0  0  0  0  0  0  0  0
   20.8982   -3.8362  -15.4864 C   0  0  1  0  0  0  0  0  0  0  0  0
   19.6928   -3.5607  -14.8586 O   0  0  0  0  0  0  0  0  0  0  0  0
   21.7031   -4.8229  -14.6663 C   0  0  2  0  0  0  0  0  0  0  0  0
   20.9175   -5.9517  -14.2486 N   0  0  0  0  0  0  0  0  0  0  0  0
   22.3072   -4.1436  -13.4914 C   0  0  0  0  0  0  0  0  0  0  0  0
   23.2969   -3.2141  -13.6861 O   0  0  0  0  0  0  0  0  0  0  0  0
   21.9162   -4.4196  -12.3522 O   0  0  0  0  0  0  0  0  0  0  0  0
  1  2  1  0
  2  3  2  0
  4  2  1  0
  5  4  1  0
  5  6  1  1
  7 14  1  0
  7  5  1  0
  8  7  2  0
 10  9  1  0
 11 10  1  0
 11 12  1  6
 13 11  1  0
 13 14  1  6
 15 13  1  0
 16 15  2  0
 18 20  1  0
 18 17  1  6
 19 18  1  0
 20 21  1  1
 21 15  1  0
 22 20  1  0
 22 23  1  0
 24 22  2  0
M  END
$$$$
