NIT.pdb
     RDKit          3D

 24 23  0  0  1  0  0  0  0  0999 V2000
   21.0273  -14.0596  -21.3266 N   0  0  0  0  0  0  0  0  0  0  0  0
   20.0959  -13.4531  -20.4289 C   0  0  0  0  0  0  0  0  0  0  0  0
   18.9866  -13.1169  -20.9220 O   0  0  0  0  0  0  0  0  0  0  0  0
   20.3897  -13.2234  -19.0124 C   0  0  0  0  0  0  0  0  0  0  0  0
   21.8211  -13.6877  -18.7421 C   0  0  2  0  0  0  0  0  0  0  0  0
   21.8794  -15.0859  -18.4513 N   0  0  0  0  0  0  0  0  0  0  0  0
   22.2953  -12.9162  -17.5615 C   0  0  0  0  0  0  0  0  0  0  0  0
   21.6981  -13.0835  -16.4706 O   0  0  0  0  0  0  0  0  0  0  0  0
   27.2234  -10.6210  -14.8701 C   0  0  0  0  0  0  0  0  0  0  0  0
   25.7481  -10.6087  -15.0434 C   0  0  0  0  0  0  0  0  0  0  0  0
   25.2205  -11.2835  -16.2641 C   0  0  2  0  0  0  0  0  0  0  0  0
   25.9356  -10.6912  -17.4650 C   0  0  0  0  0  0  0  0  0  0  0  0
   23.7385  -11.2709  -16.4343 C   0  0  2  0  0  0  0  0  0  0  0  0
   23.3849  -12.0115  -17.6348 N   0  0  0  0  0  0  0  0  0  0  0  0
   23.2691   -9.8651  -16.5231 C   0  0  0  0  0  0  0  0  0  0  0  0
   23.8160   -9.1072  -17.3577 O   0  0  0  0  0  0  0  0  0  0  0  0
   19.3890   -8.7891  -16.1796 C   0  0  0  0  0  0  0  0  0  0  0  0
   20.5315   -7.9934  -16.8330 C   0  0  1  0  0  0  0  0  0  0  0  0
   20.0492   -6.6989  -16.9543 O   0  0  0  0  0  0  0  0  0  0  0  0
   21.7500   -8.0169  -15.9336 C   0  0  2  0  0  0  0  0  0  0  0  0
   22.2297   -9.3519  -15.7022 N   0  0  0  0  0  0  0  0  0  0  0  0
   21.4524   -7.3383  -14.6461 C   0  0  0  0  0  0  0  0  0  0  0  0
   21.1280   -6.0056  -14.6464 O   0  0  0  0  0  0  0  0  0  0  0  0
   21.4997   -7.9758  -13.5887 O   0  0  0  0  0  0  0  0  0  0  0  0
  1  2  1  0
  2  3  2  0
  4  2  1  0
  5  4  1  0
  5  6  1  1
  7 14  1  0
  7  5  1  0
  8  7  2  0
 10  9  1  0
 11 10  1  0
 11 12  1  6
 13 11  1  0
 13 14  1  6
 15 13  1  0
 16 15  2  0
 18 20  1  0
 18 17  1  1
 19 18  1  0
 20 21  1  1
 21 15  1  0
 22 20  1  0
 22 23  1  0
 24 22  2  0
M  END
$$$$
