NIT.pdb
     RDKit          3D

 24 23  0  0  1  0  0  0  0  0999 V2000
   22.8269   -9.3180  -21.5347 N   0  0  0  0  0  0  0  0  0  0  0  0
   21.5527   -8.7097  -21.3162 C   0  0  0  0  0  0  0  0  0  0  0  0
   20.8373   -8.5351  -22.3382 O   0  0  0  0  0  0  0  0  0  0  0  0
   21.0820   -8.3023  -19.9903 C   0  0  0  0  0  0  0  0  0  0  0  0
   20.9461   -9.5571  -19.1275 C   0  0  2  0  0  0  0  0  0  0  0  0
   19.8162  -10.3445  -19.5104 N   0  0  0  0  0  0  0  0  0  0  0  0
   20.7690   -9.0851  -17.7276 C   0  0  0  0  0  0  0  0  0  0  0  0
   19.5996   -8.8948  -17.3141 O   0  0  0  0  0  0  0  0  0  0  0  0
   23.0640  -11.4625  -13.7441 C   0  0  0  0  0  0  0  0  0  0  0  0
   22.1670  -10.6442  -14.5998 C   0  0  0  0  0  0  0  0  0  0  0  0
   22.3549   -9.1665  -14.5307 C   0  0  2  0  0  0  0  0  0  0  0  0
   22.0742   -8.7313  -13.1038 C   0  0  0  0  0  0  0  0  0  0  0  0
   21.5873   -8.3585  -15.5224 C   0  0  2  0  0  0  0  0  0  0  0  0
   21.8676   -8.8477  -16.8629 N   0  0  0  0  0  0  0  0  0  0  0  0
   21.9706   -6.9302  -15.3901 C   0  0  0  0  0  0  0  0  0  0  0  0
   23.1618   -6.6113  -15.6124 O   0  0  0  0  0  0  0  0  0  0  0  0
   20.8938   -2.1373  -15.1928 C   0  0  0  0  0  0  0  0  0  0  0  0
   20.3874   -3.5806  -15.3533 C   0  0  1  0  0  0  0  0  0  0  0  0
   20.0833   -3.7109  -16.6999 O   0  0  0  0  0  0  0  0  0  0  0  0
   21.4829   -4.5525  -14.9666 C   0  0  2  0  0  0  0  0  0  0  0  0
   21.0425   -5.9194  -15.0234 N   0  0  0  0  0  0  0  0  0  0  0  0
   22.0052   -4.2277  -13.6144 C   0  0  0  0  0  0  0  0  0  0  0  0
   21.5262   -4.9104  -12.5255 O   0  0  0  0  0  0  0  0  0  0  0  0
   22.8630   -3.3484  -13.4805 O   0  0  0  0  0  0  0  0  0  0  0  0
  1  2  1  0
  2  3  2  0
  4  2  1  0
  5  4  1  0
  5  6  1  6
  7 14  1  0
  7  5  1  0
  8  7  2  0
 10  9  1  0
 11 10  1  0
 11 12  1  1
 13 11  1  0
 13 14  1  6
 15 13  1  0
 16 15  2  0
 18 20  1  0
 18 17  1  6
 19 18  1  0
 20 21  1  1
 21 15  1  0
 22 20  1  0
 22 23  1  0
 24 22  2  0
M  END
$$$$
