NIT.pdb
     RDKit          3D

 24 23  0  0  1  0  0  0  0  0999 V2000
   29.5321  -21.4960  -17.3629 N   0  0  0  0  0  0  0  0  0  0  0  0
   28.1312  -21.6278  -17.6108 C   0  0  0  0  0  0  0  0  0  0  0  0
   27.8041  -22.0030  -18.7679 O   0  0  0  0  0  0  0  0  0  0  0  0
   27.1135  -21.3480  -16.5953 C   0  0  0  0  0  0  0  0  0  0  0  0
   27.2112  -22.4250  -15.5144 C   0  0  2  0  0  0  0  0  0  0  0  0
   27.2803  -23.7370  -16.0775 N   0  0  0  0  0  0  0  0  0  0  0  0
   25.9781  -22.3041  -14.6906 C   0  0  0  0  0  0  0  0  0  0  0  0
   25.0635  -23.1436  -14.8733 O   0  0  0  0  0  0  0  0  0  0  0  0
   26.3973  -20.7085   -9.5308 C   0  0  0  0  0  0  0  0  0  0  0  0
   25.9920  -21.3778  -10.7935 C   0  0  0  0  0  0  0  0  0  0  0  0
   24.9005  -20.7209  -11.5687 C   0  0  2  0  0  0  0  0  0  0  0  0
   23.6679  -20.6760  -10.6838 C   0  0  0  0  0  0  0  0  0  0  0  0
   24.6042  -21.3026  -12.9101 C   0  0  2  0  0  0  0  0  0  0  0  0
   25.8110  -21.2824  -13.7214 N   0  0  0  0  0  0  0  0  0  0  0  0
   23.5211  -20.5176  -13.5544 C   0  0  0  0  0  0  0  0  0  0  0  0
   23.6575  -19.2750  -13.6399 O   0  0  0  0  0  0  0  0  0  0  0  0
   22.3161  -20.6046  -16.9845 C   0  0  0  0  0  0  0  0  0  0  0  0
   21.0509  -20.7334  -16.1196 C   0  0  1  0  0  0  0  0  0  0  0  0
   20.7308  -22.0824  -16.1434 O   0  0  0  0  0  0  0  0  0  0  0  0
   21.3531  -20.2909  -14.7029 C   0  0  2  0  0  0  0  0  0  0  0  0
   22.3442  -21.1201  -14.0737 N   0  0  0  0  0  0  0  0  0  0  0  0
   20.1064  -20.2630  -13.8956 C   0  0  0  0  0  0  0  0  0  0  0  0
   19.1147  -19.3721  -14.2184 O   0  0  0  0  0  0  0  0  0  0  0  0
   19.9724  -21.0383  -12.9428 O   0  0  0  0  0  0  0  0  0  0  0  0
  1  2  1  0
  2  3  2  0
  4  2  1  0
  5  4  1  0
  5  6  1  6
  7 14  1  0
  7  5  1  0
  8  7  2  0
 10  9  1  0
 11 10  1  0
 11 12  1  1
 13 11  1  0
 13 14  1  6
 15 13  1  0
 16 15  2  0
 18 20  1  0
 18 17  1  6
 19 18  1  0
 20 21  1  1
 21 15  1  0
 22 20  1  0
 22 23  1  0
 24 22  2  0
M  END
$$$$
