NIT.pdb
     RDKit          3D

 24 23  0  0  1  0  0  0  0  0999 V2000
   17.6045  -22.1565  -10.6161 N   0  0  0  0  0  0  0  0  0  0  0  0
   18.1363  -21.8885  -11.9148 C   0  0  0  0  0  0  0  0  0  0  0  0
   17.5891  -22.4924  -12.8753 O   0  0  0  0  0  0  0  0  0  0  0  0
   19.2537  -20.9694  -12.1432 C   0  0  0  0  0  0  0  0  0  0  0  0
   20.1835  -21.5995  -13.1806 C   0  0  2  0  0  0  0  0  0  0  0  0
   20.3930  -22.9910  -12.9297 N   0  0  0  0  0  0  0  0  0  0  0  0
   21.4796  -20.8766  -13.0746 C   0  0  0  0  0  0  0  0  0  0  0  0
   21.4643  -19.6249  -13.1620 O   0  0  0  0  0  0  0  0  0  0  0  0
   25.0339  -21.1317   -9.2318 C   0  0  0  0  0  0  0  0  0  0  0  0
   24.1831  -20.8250  -10.4101 C   0  0  0  0  0  0  0  0  0  0  0  0
   24.7821  -21.1011  -11.7475 C   0  0  2  0  0  0  0  0  0  0  0  0
   26.1311  -20.4070  -11.8017 C   0  0  0  0  0  0  0  0  0  0  0  0
   23.9348  -20.7682  -12.9294 C   0  0  2  0  0  0  0  0  0  0  0  0
   22.7112  -21.5527  -12.8814 N   0  0  0  0  0  0  0  0  0  0  0  0
   24.6964  -21.0524  -14.1719 C   0  0  0  0  0  0  0  0  0  0  0  0
   25.5519  -21.9676  -14.1487 O   0  0  0  0  0  0  0  0  0  0  0  0
   24.1181  -22.8861  -16.8548 C   0  0  0  0  0  0  0  0  0  0  0  0
   24.4568  -21.5367  -17.5104 C   0  0  1  0  0  0  0  0  0  0  0  0
   23.2313  -20.9445  -17.7759 O   0  0  0  0  0  0  0  0  0  0  0  0
   25.2527  -20.6845  -16.5438 C   0  0  2  0  0  0  0  0  0  0  0  0
   24.4915  -20.3296  -15.3774 N   0  0  0  0  0  0  0  0  0  0  0  0
   25.7586  -19.4667  -17.2278 C   0  0  0  0  0  0  0  0  0  0  0  0
   26.6838  -19.5937  -18.2324 O   0  0  0  0  0  0  0  0  0  0  0  0
   25.3450  -18.3530  -16.8881 O   0  0  0  0  0  0  0  0  0  0  0  0
  1  2  1  0
  2  3  2  0
  4  2  1  0
  5  4  1  0
  5  6  1  1
  7 14  1  0
  7  5  1  0
  8  7  2  0
 10  9  1  0
 11 10  1  0
 11 12  1  6
 13 11  1  0
 13 14  1  6
 15 13  1  0
 16 15  2  0
 18 20  1  0
 18 17  1  1
 19 18  1  0
 20 21  1  1
 21 15  1  0
 22 20  1  0
 22 23  1  0
 24 22  2  0
M  END
$$$$
