NIT.pdb
     RDKit          3D

 24 23  0  0  1  0  0  0  0  0999 V2000
   26.2598  -24.9497  -15.4954 N   0  0  0  0  0  0  0  0  0  0  0  0
   24.9567  -24.5669  -15.9389 C   0  0  0  0  0  0  0  0  0  0  0  0
   24.3593  -25.3883  -16.6838 O   0  0  0  0  0  0  0  0  0  0  0  0
   24.3294  -23.2975  -15.5640 C   0  0  0  0  0  0  0  0  0  0  0  0
   25.2954  -22.5404  -14.6523 C   0  0  2  0  0  0  0  0  0  0  0  0
   25.3880  -23.1435  -13.3598 N   0  0  0  0  0  0  0  0  0  0  0  0
   24.7506  -21.1624  -14.5178 C   0  0  0  0  0  0  0  0  0  0  0  0
   23.8282  -20.9725  -13.6885 O   0  0  0  0  0  0  0  0  0  0  0  0
   26.3358  -15.2702  -15.1988 C   0  0  0  0  0  0  0  0  0  0  0  0
   25.2842  -16.3071  -15.0399 C   0  0  0  0  0  0  0  0  0  0  0  0
   25.7172  -17.7217  -15.2275 C   0  0  2  0  0  0  0  0  0  0  0  0
   26.3966  -17.8212  -16.5813 C   0  0  0  0  0  0  0  0  0  0  0  0
   24.6615  -18.7614  -15.0545 C   0  0  2  0  0  0  0  0  0  0  0  0
   25.2369  -20.0763  -15.2891 N   0  0  0  0  0  0  0  0  0  0  0  0
   23.5517  -18.4932  -16.0038 C   0  0  0  0  0  0  0  0  0  0  0  0
   23.7012  -18.8259  -17.2025 O   0  0  0  0  0  0  0  0  0  0  0  0
   18.8110  -18.2508  -16.9404 C   0  0  0  0  0  0  0  0  0  0  0  0
   19.9794  -18.4527  -15.9609 C   0  0  1  0  0  0  0  0  0  0  0  0
   20.1285  -19.8270  -15.8522 O   0  0  0  0  0  0  0  0  0  0  0  0
   21.2376  -17.8321  -16.5316 C   0  0  2  0  0  0  0  0  0  0  0  0
   22.3353  -17.8776  -15.6049 N   0  0  0  0  0  0  0  0  0  0  0  0
   20.9734  -16.4344  -16.9600 C   0  0  0  0  0  0  0  0  0  0  0  0
   20.2563  -16.2056  -18.1067 O   0  0  0  0  0  0  0  0  0  0  0  0
   21.3999  -15.4921  -16.2840 O   0  0  0  0  0  0  0  0  0  0  0  0
  1  2  1  0
  2  3  2  0
  4  2  1  0
  5  4  1  0
  5  6  1  1
  7 14  1  0
  7  5  1  0
  8  7  2  0
 10  9  1  0
 11 10  1  0
 11 12  1  6
 13 11  1  0
 13 14  1  6
 15 13  1  0
 16 15  2  0
 18 20  1  0
 18 17  1  6
 19 18  1  0
 20 21  1  1
 21 15  1  0
 22 20  1  0
 22 23  1  0
 24 22  2  0
M  END
$$$$
