NIT.pdb
     RDKit          3D

 24 23  0  0  1  0  0  0  0  0999 V2000
   14.1339  -10.0580  -17.0330 N   0  0  0  0  0  0  0  0  0  0  0  0
   15.5384  -10.2222  -17.2369 C   0  0  0  0  0  0  0  0  0  0  0  0
   15.8851  -10.7300  -18.3363 O   0  0  0  0  0  0  0  0  0  0  0  0
   16.5384   -9.8317  -16.2404 C   0  0  0  0  0  0  0  0  0  0  0  0
   17.8129  -10.6333  -16.5060 C   0  0  2  0  0  0  0  0  0  0  0  0
   17.6338  -12.0233  -16.2248 N   0  0  0  0  0  0  0  0  0  0  0  0
   18.8542  -10.0754  -15.6014 C   0  0  0  0  0  0  0  0  0  0  0  0
   18.6096  -10.0441  -14.3710 O   0  0  0  0  0  0  0  0  0  0  0  0
   23.6933  -11.8217  -15.1856 C   0  0  0  0  0  0  0  0  0  0  0  0
   22.3807  -11.1493  -15.0082 C   0  0  0  0  0  0  0  0  0  0  0  0
   22.3513   -9.6801  -15.2619 C   0  0  2  0  0  0  0  0  0  0  0  0
   23.4051   -9.0375  -14.3783 C   0  0  0  0  0  0  0  0  0  0  0  0
   21.0235   -9.0147  -15.1218 C   0  0  2  0  0  0  0  0  0  0  0  0
   20.0944   -9.5855  -16.0841 N   0  0  0  0  0  0  0  0  0  0  0  0
   21.1828   -7.5552  -15.3429 C   0  0  0  0  0  0  0  0  0  0  0  0
   21.5136   -7.1594  -16.4848 O   0  0  0  0  0  0  0  0  0  0  0  0
   20.1278   -2.9120  -14.5391 C   0  0  0  0  0  0  0  0  0  0  0  0
   19.8809   -4.4054  -14.2663 C   0  0  1  0  0  0  0  0  0  0  0  0
   18.8309   -4.7579  -15.1006 O   0  0  0  0  0  0  0  0  0  0  0  0
   21.1206   -5.2010  -14.6186 C   0  0  2  0  0  0  0  0  0  0  0  0
   20.9752   -6.5981  -14.3140 N   0  0  0  0  0  0  0  0  0  0  0  0
   22.3080   -4.6365  -13.9271 C   0  0  0  0  0  0  0  0  0  0  0  0
   23.1003   -3.7283  -14.5820 O   0  0  0  0  0  0  0  0  0  0  0  0
   22.5729   -4.9878  -12.7724 O   0  0  0  0  0  0  0  0  0  0  0  0
  1  2  1  0
  2  3  2  0
  4  2  1  0
  5  4  1  0
  5  6  1  1
  7 14  1  0
  7  5  1  0
  8  7  2  0
 10  9  1  0
 11 10  1  0
 11 12  1  1
 13 11  1  0
 13 14  1  6
 15 13  1  0
 16 15  2  0
 18 20  1  0
 18 17  1  6
 19 18  1  0
 20 21  1  1
 21 15  1  0
 22 20  1  0
 22 23  1  0
 24 22  2  0
M  END
$$$$
