PMA.pdb
     RDKit          3D

 21 21  0  0  1  0  0  0  0  0999 V2000
    7.6611  -14.9478   19.8843 N   0  0  0  0  0  0  0  0  0  0  0  0
    7.3939  -14.2554   18.6382 C   0  0  0  0  0  0  0  0  0  0  0  0
    7.8683  -12.8471   18.7791 C   0  0  0  0  0  0  0  0  0  0  0  0
    8.2630  -12.7661   20.2571 C   0  0  0  0  0  0  0  0  0  0  0  0
    8.7158  -14.2020   20.4701 C   0  0  1  0  0  0  0  0  0  0  0  0
    8.9432  -14.4810   21.9017 C   0  0  0  0  0  0  0  0  0  0  0  0
   10.1148  -14.7046   22.2815 O   0  0  0  0  0  0  0  0  0  0  0  0
    6.0823  -11.6473   27.4704 C   0  0  0  0  0  0  0  0  0  0  0  0
    7.4621  -11.7227   26.2906 S   0  0  0  0  0  0  0  0  0  0  0  0
    6.8232  -12.5317   24.7824 C   0  0  0  0  0  0  0  0  0  0  0  0
    6.8812  -14.0223   24.9177 C   0  0  0  0  0  0  0  0  0  0  0  0
    8.1471  -14.5894   24.3091 C   0  0  2  0  0  0  0  0  0  0  0  0
    7.8950  -14.5054   22.8550 N   0  0  0  0  0  0  0  0  0  0  0  0
    8.4221  -15.9834   24.6884 C   0  0  0  0  0  0  0  0  0  0  0  0
    7.7931  -16.9438   24.1176 O   0  0  0  0  0  0  0  0  0  0  0  0
   10.7837  -17.9122   24.3762 C   0  0  0  0  0  0  0  0  0  0  0  0
    9.9715  -17.7262   25.6406 C   0  0  2  0  0  0  0  0  0  0  0  0
    9.3638  -16.3866   25.6672 N   0  0  0  0  0  0  0  0  0  0  0  0
   10.8403  -17.9453   26.7993 C   0  0  0  0  0  0  0  0  0  0  0  0
   11.4963  -16.9815   27.2641 O   0  0  0  0  0  0  0  0  0  0  0  0
   10.9759  -19.1790   27.4157 O   0  0  0  0  0  0  0  0  0  0  0  0
  2  1  1  0
  3  2  1  0
  4  3  1  0
  4  5  1  0
  5  1  1  0
  6 13  1  0
  5  6  1  1
  7  6  2  0
  9  8  1  0
 10  9  1  0
 12 11  1  1
 11 10  1  0
 12 14  1  0
 12 13  1  0
 14 18  1  0
 15 14  2  0
 17 19  1  0
 17 16  1  6
 18 17  1  0
 19 21  1  0
 20 19  2  0
M  END
$$$$
