PMA.pdb
     RDKit          3D

 21 21  0  0  1  0  0  0  0  0999 V2000
    7.3307  -15.0565   20.0179 N   0  0  0  0  0  0  0  0  0  0  0  0
    7.0176  -14.6679   18.6561 C   0  0  0  0  0  0  0  0  0  0  0  0
    7.6371  -13.3341   18.4003 C   0  0  0  0  0  0  0  0  0  0  0  0
    8.1730  -12.9365   19.7793 C   0  0  0  0  0  0  0  0  0  0  0  0
    8.5023  -14.3177   20.3232 C   0  0  1  0  0  0  0  0  0  0  0  0
    8.8332  -14.2582   21.7605 C   0  0  0  0  0  0  0  0  0  0  0  0
    9.9567  -13.8157   22.0906 O   0  0  0  0  0  0  0  0  0  0  0  0
    6.1501  -11.2395   26.8254 C   0  0  0  0  0  0  0  0  0  0  0  0
    7.6125  -12.3156   26.7549 S   0  0  0  0  0  0  0  0  0  0  0  0
    7.0187  -13.9842   26.3070 C   0  0  0  0  0  0  0  0  0  0  0  0
    6.9227  -14.1289   24.8192 C   0  0  0  0  0  0  0  0  0  0  0  0
    8.2455  -14.5485   24.2124 C   0  0  2  0  0  0  0  0  0  0  0  0
    7.9356  -14.6792   22.7730 N   0  0  0  0  0  0  0  0  0  0  0  0
    8.7643  -15.8239   24.7292 C   0  0  0  0  0  0  0  0  0  0  0  0
    7.9957  -16.8468   24.8131 O   0  0  0  0  0  0  0  0  0  0  0  0
   12.0489  -17.5175   25.3105 C   0  0  0  0  0  0  0  0  0  0  0  0
   10.5622  -17.3788   25.5624 C   0  0  2  0  0  0  0  0  0  0  0  0
   10.0963  -16.0428   25.1591 N   0  0  0  0  0  0  0  0  0  0  0  0
   10.2948  -17.6362   26.9793 C   0  0  0  0  0  0  0  0  0  0  0  0
   10.5610  -18.7657   27.4576 O   0  0  0  0  0  0  0  0  0  0  0  0
    9.7558  -16.6832   27.8287 O   0  0  0  0  0  0  0  0  0  0  0  0
  2  1  1  0
  3  2  1  0
  4  3  1  0
  4  5  1  0
  5  1  1  0
  6 13  1  0
  5  6  1  1
  7  6  2  0
  9  8  1  0
 10  9  1  0
 12 11  1  1
 11 10  1  0
 12 14  1  0
 12 13  1  0
 14 18  1  0
 15 14  2  0
 17 19  1  0
 17 16  1  1
 18 17  1  0
 19 21  1  0
 20 19  2  0
M  END
$$$$
