PMA.pdb
     RDKit          3D

 21 21  0  0  1  0  0  0  0  0999 V2000
    7.4540  -15.1167   19.7339 N   0  0  0  0  0  0  0  0  0  0  0  0
    7.0097  -14.6513   18.4341 C   0  0  0  0  0  0  0  0  0  0  0  0
    7.4491  -13.2338   18.2738 C   0  0  0  0  0  0  0  0  0  0  0  0
    8.0221  -12.8959   19.6539 C   0  0  0  0  0  0  0  0  0  0  0  0
    8.5471  -14.2683   20.0452 C   0  0  1  0  0  0  0  0  0  0  0  0
    8.9609  -14.2952   21.4619 C   0  0  0  0  0  0  0  0  0  0  0  0
   10.1755  -14.1475   21.7259 O   0  0  0  0  0  0  0  0  0  0  0  0
    6.8878  -11.9111   28.4330 C   0  0  0  0  0  0  0  0  0  0  0  0
    6.4971  -12.0809   26.6667 S   0  0  0  0  0  0  0  0  0  0  0  0
    7.3974  -13.5527   26.0663 C   0  0  0  0  0  0  0  0  0  0  0  0
    7.2200  -13.7135   24.5876 C   0  0  0  0  0  0  0  0  0  0  0  0
    8.4369  -14.3460   23.9447 C   0  0  2  0  0  0  0  0  0  0  0  0
    8.0436  -14.4801   22.5261 N   0  0  0  0  0  0  0  0  0  0  0  0
    8.7867  -15.6652   24.4926 C   0  0  0  0  0  0  0  0  0  0  0  0
    7.9172  -16.6074   24.5119 O   0  0  0  0  0  0  0  0  0  0  0  0
   11.7367  -17.7959   25.0030 C   0  0  0  0  0  0  0  0  0  0  0  0
   10.3519  -17.3862   25.4584 C   0  0  2  0  0  0  0  0  0  0  0  0
   10.0539  -16.0131   25.0220 N   0  0  0  0  0  0  0  0  0  0  0  0
   10.2736  -17.5161   26.9153 C   0  0  0  0  0  0  0  0  0  0  0  0
   10.5210  -18.6265   27.4455 O   0  0  0  0  0  0  0  0  0  0  0  0
    9.9360  -16.4610   27.7479 O   0  0  0  0  0  0  0  0  0  0  0  0
  2  1  1  0
  3  2  1  0
  4  3  1  0
  4  5  1  0
  5  1  1  0
  6 13  1  0
  5  6  1  1
  7  6  2  0
  9  8  1  0
 10  9  1  0
 12 11  1  1
 11 10  1  0
 12 14  1  0
 12 13  1  0
 14 18  1  0
 15 14  2  0
 17 19  1  0
 17 16  1  1
 18 17  1  0
 19 21  1  0
 20 19  2  0
M  END
$$$$
