PMA.pdb
     RDKit          3D

 21 21  0  0  1  0  0  0  0  0999 V2000
    8.2451  -15.1250   19.4259 N   0  0  0  0  0  0  0  0  0  0  0  0
    7.7466  -14.5086   18.2114 C   0  0  0  0  0  0  0  0  0  0  0  0
    7.3245  -13.1146   18.5381 C   0  0  0  0  0  0  0  0  0  0  0  0
    7.4683  -13.0628   20.0625 C   0  0  0  0  0  0  0  0  0  0  0  0
    8.6334  -14.0250   20.2328 C   0  0  1  0  0  0  0  0  0  0  0  0
    8.8483  -14.3533   21.6558 C   0  0  0  0  0  0  0  0  0  0  0  0
    9.9588  -14.8223   21.9931 O   0  0  0  0  0  0  0  0  0  0  0  0
    7.1823  -11.1343   27.6369 C   0  0  0  0  0  0  0  0  0  0  0  0
    6.0147  -12.3592   26.9755 S   0  0  0  0  0  0  0  0  0  0  0  0
    7.0155  -13.6980   26.2384 C   0  0  0  0  0  0  0  0  0  0  0  0
    6.9173  -13.6693   24.7440 C   0  0  0  0  0  0  0  0  0  0  0  0
    8.1409  -14.2791   24.0921 C   0  0  2  0  0  0  0  0  0  0  0  0
    7.8542  -14.1595   22.6469 N   0  0  0  0  0  0  0  0  0  0  0  0
    8.3658  -15.6899   24.4413 C   0  0  0  0  0  0  0  0  0  0  0  0
    7.4437  -16.5587   24.2438 O   0  0  0  0  0  0  0  0  0  0  0  0
   10.7438  -18.2925   24.4834 C   0  0  0  0  0  0  0  0  0  0  0  0
    9.6923  -17.6296   25.3482 C   0  0  2  0  0  0  0  0  0  0  0  0
    9.5621  -16.2068   24.9971 N   0  0  0  0  0  0  0  0  0  0  0  0
   10.0565  -17.8046   26.7561 C   0  0  0  0  0  0  0  0  0  0  0  0
   10.2976  -16.7917   27.4569 O   0  0  0  0  0  0  0  0  0  0  0  0
   10.1493  -19.0481   27.3605 O   0  0  0  0  0  0  0  0  0  0  0  0
  2  1  1  0
  3  2  1  0
  4  3  1  0
  4  5  1  0
  5  1  1  0
  6 13  1  0
  5  6  1  1
  7  6  2  0
  9  8  1  0
 10  9  1  0
 12 11  1  1
 11 10  1  0
 12 14  1  0
 12 13  1  0
 14 18  1  0
 15 14  2  0
 17 19  1  0
 17 16  1  6
 18 17  1  0
 19 21  1  0
 20 19  2  0
M  END
$$$$
