PMA.pdb
     RDKit          3D

 21 21  0  0  1  0  0  0  0  0999 V2000
    7.1961  -15.5511   20.3177 N   0  0  0  0  0  0  0  0  0  0  0  0
    6.7992  -15.4988   18.9237 C   0  0  0  0  0  0  0  0  0  0  0  0
    7.4575  -14.3142   18.2980 C   0  0  0  0  0  0  0  0  0  0  0  0
    8.1132  -13.6167   19.4941 C   0  0  0  0  0  0  0  0  0  0  0  0
    8.4196  -14.8345   20.3516 C   0  0  1  0  0  0  0  0  0  0  0  0
    8.8602  -14.4360   21.7029 C   0  0  0  0  0  0  0  0  0  0  0  0
   10.0598  -14.1164   21.8633 O   0  0  0  0  0  0  0  0  0  0  0  0
    5.5566  -12.6491   28.0724 C   0  0  0  0  0  0  0  0  0  0  0  0
    5.8778  -11.7046   26.5538 S   0  0  0  0  0  0  0  0  0  0  0  0
    7.4448  -12.3377   25.8601 C   0  0  0  0  0  0  0  0  0  0  0  0
    7.2039  -13.0217   24.5494 C   0  0  0  0  0  0  0  0  0  0  0  0
    8.3934  -13.8606   24.1304 C   0  0  2  0  0  0  0  0  0  0  0  0
    7.9848  -14.4015   22.8168 N   0  0  0  0  0  0  0  0  0  0  0  0
    8.7019  -14.9651   25.0510 C   0  0  0  0  0  0  0  0  0  0  0  0
    9.0416  -14.7197   26.2628 O   0  0  0  0  0  0  0  0  0  0  0  0
    8.2451  -18.6768   25.3324 C   0  0  0  0  0  0  0  0  0  0  0  0
    8.9404  -17.3850   25.7079 C   0  0  2  0  0  0  0  0  0  0  0  0
    8.6529  -16.3401   24.7129 N   0  0  0  0  0  0  0  0  0  0  0  0
   10.3788  -17.6364   25.8230 C   0  0  0  0  0  0  0  0  0  0  0  0
   10.7892  -18.4727   26.6641 O   0  0  0  0  0  0  0  0  0  0  0  0
   11.3210  -16.9888   25.0399 O   0  0  0  0  0  0  0  0  0  0  0  0
  2  1  1  0
  3  2  1  0
  4  3  1  0
  4  5  1  0
  5  1  1  0
  6 13  1  0
  5  6  1  1
  7  6  2  0
  9  8  1  0
 10  9  1  0
 12 11  1  1
 11 10  1  0
 12 14  1  0
 12 13  1  0
 14 18  1  0
 15 14  2  0
 17 19  1  0
 17 16  1  6
 18 17  1  0
 19 21  1  0
 20 19  2  0
M  END
$$$$
