PMA.pdb
     RDKit          3D

 21 21  0  0  1  0  0  0  0  0999 V2000
    7.3693  -15.2257   19.8273 N   0  0  0  0  0  0  0  0  0  0  0  0
    7.0142  -14.8539   18.4711 C   0  0  0  0  0  0  0  0  0  0  0  0
    7.4271  -13.4356   18.2557 C   0  0  0  0  0  0  0  0  0  0  0  0
    7.8831  -12.9973   19.6511 C   0  0  0  0  0  0  0  0  0  0  0  0
    8.4124  -14.3265   20.1661 C   0  0  1  0  0  0  0  0  0  0  0  0
    8.7165  -14.2547   21.6088 C   0  0  0  0  0  0  0  0  0  0  0  0
    9.8481  -13.8466   21.9548 O   0  0  0  0  0  0  0  0  0  0  0  0
    7.4930  -12.1593   28.3572 C   0  0  0  0  0  0  0  0  0  0  0  0
    7.5523  -12.3094   26.5475 S   0  0  0  0  0  0  0  0  0  0  0  0
    6.8126  -13.9262   26.1276 C   0  0  0  0  0  0  0  0  0  0  0  0
    6.7326  -14.1006   24.6420 C   0  0  0  0  0  0  0  0  0  0  0  0
    8.0725  -14.4895   24.0524 C   0  0  2  0  0  0  0  0  0  0  0  0
    7.7844  -14.6269   22.6091 N   0  0  0  0  0  0  0  0  0  0  0  0
    8.6137  -15.7528   24.5759 C   0  0  0  0  0  0  0  0  0  0  0  0
    7.8783  -16.8023   24.6170 O   0  0  0  0  0  0  0  0  0  0  0  0
   11.9023  -17.3714   25.3078 C   0  0  0  0  0  0  0  0  0  0  0  0
   10.4091  -17.2432   25.5244 C   0  0  2  0  0  0  0  0  0  0  0  0
    9.9340  -15.9313   25.0577 N   0  0  0  0  0  0  0  0  0  0  0  0
   10.1165  -17.4464   26.9452 C   0  0  0  0  0  0  0  0  0  0  0  0
    9.6869  -16.4835   27.6260 O   0  0  0  0  0  0  0  0  0  0  0  0
   10.2924  -18.6640   27.5832 O   0  0  0  0  0  0  0  0  0  0  0  0
  2  1  1  0
  3  2  1  0
  4  3  1  0
  4  5  1  0
  5  1  1  0
  6 13  1  0
  5  6  1  1
  7  6  2  0
  9  8  1  0
 10  9  1  0
 12 11  1  1
 11 10  1  0
 12 14  1  0
 12 13  1  0
 14 18  1  0
 15 14  2  0
 17 19  1  0
 17 16  1  1
 18 17  1  0
 19 21  1  0
 20 19  2  0
M  END
$$$$
