PMA.pdb
     RDKit          3D

 21 21  0  0  1  0  0  0  0  0999 V2000
    7.4718  -14.7976   20.2902 N   0  0  0  0  0  0  0  0  0  0  0  0
    7.2146  -14.2225   18.9837 C   0  0  0  0  0  0  0  0  0  0  0  0
    7.8226  -12.8597   18.9489 C   0  0  0  0  0  0  0  0  0  0  0  0
    8.2883  -12.6567   20.3942 C   0  0  0  0  0  0  0  0  0  0  0  0
    8.6157  -14.0978   20.7522 C   0  0  1  0  0  0  0  0  0  0  0  0
    8.8797  -14.2399   22.1976 C   0  0  0  0  0  0  0  0  0  0  0  0
    9.9647  -13.8052   22.6458 O   0  0  0  0  0  0  0  0  0  0  0  0
    6.7905  -10.9602   26.9599 C   0  0  0  0  0  0  0  0  0  0  0  0
    7.3863  -12.6673   26.7807 S   0  0  0  0  0  0  0  0  0  0  0  0
    6.5166  -13.3815   25.3416 C   0  0  0  0  0  0  0  0  0  0  0  0
    6.8738  -14.8263   25.1724 C   0  0  0  0  0  0  0  0  0  0  0  0
    8.2373  -14.9934   24.5344 C   0  0  2  0  0  0  0  0  0  0  0  0
    7.9599  -14.8443   23.0902 N   0  0  0  0  0  0  0  0  0  0  0  0
    8.8628  -16.2996   24.7904 C   0  0  0  0  0  0  0  0  0  0  0  0
    8.1645  -17.3731   24.7271 O   0  0  0  0  0  0  0  0  0  0  0  0
   12.2337  -17.8760   24.8187 C   0  0  0  0  0  0  0  0  0  0  0  0
   10.7913  -17.8447   25.2784 C   0  0  2  0  0  0  0  0  0  0  0  0
   10.2289  -16.4955   25.1107 N   0  0  0  0  0  0  0  0  0  0  0  0
   10.7284  -18.2835   26.6744 C   0  0  0  0  0  0  0  0  0  0  0  0
   11.1878  -19.4098   26.9838 O   0  0  0  0  0  0  0  0  0  0  0  0
   10.1803  -17.5076   27.6833 O   0  0  0  0  0  0  0  0  0  0  0  0
  2  1  1  0
  3  2  1  0
  4  3  1  0
  4  5  1  0
  5  1  1  0
  6 13  1  0
  5  6  1  1
  7  6  2  0
  9  8  1  0
 10  9  1  0
 12 11  1  1
 11 10  1  0
 12 14  1  0
 12 13  1  0
 14 18  1  0
 15 14  2  0
 17 19  1  0
 17 16  1  1
 18 17  1  0
 19 21  1  0
 20 19  2  0
M  END
$$$$
