PMA.pdb
     RDKit          3D

 21 21  0  0  1  0  0  0  0  0999 V2000
    7.2707  -15.0145   19.9573 N   0  0  0  0  0  0  0  0  0  0  0  0
    6.8920  -14.5857   18.6245 C   0  0  0  0  0  0  0  0  0  0  0  0
    7.4625  -13.2254   18.3953 C   0  0  0  0  0  0  0  0  0  0  0  0
    8.0419  -12.8628   19.7663 C   0  0  0  0  0  0  0  0  0  0  0  0
    8.4321  -14.2525   20.2442 C   0  0  1  0  0  0  0  0  0  0  0  0
    8.8188  -14.2359   21.6687 C   0  0  0  0  0  0  0  0  0  0  0  0
   10.0067  -13.9647   21.9556 O   0  0  0  0  0  0  0  0  0  0  0  0
    6.9154  -11.1173   26.9802 C   0  0  0  0  0  0  0  0  0  0  0  0
    6.0894  -12.7317   27.0930 S   0  0  0  0  0  0  0  0  0  0  0  0
    7.2080  -13.9519   26.3201 C   0  0  0  0  0  0  0  0  0  0  0  0
    7.0625  -13.9317   24.8294 C   0  0  0  0  0  0  0  0  0  0  0  0
    8.2961  -14.4772   24.1405 C   0  0  2  0  0  0  0  0  0  0  0  0
    7.9047  -14.5129   22.7155 N   0  0  0  0  0  0  0  0  0  0  0  0
    8.6848  -15.8241   24.5853 C   0  0  0  0  0  0  0  0  0  0  0  0
    7.8264  -16.7765   24.5856 O   0  0  0  0  0  0  0  0  0  0  0  0
   11.7002  -17.9337   24.9600 C   0  0  0  0  0  0  0  0  0  0  0  0
   10.2987  -17.5747   25.4070 C   0  0  2  0  0  0  0  0  0  0  0  0
    9.9795  -16.1888   25.0302 N   0  0  0  0  0  0  0  0  0  0  0  0
   10.1961  -17.7754   26.8543 C   0  0  0  0  0  0  0  0  0  0  0  0
   10.4345  -18.9105   27.3338 O   0  0  0  0  0  0  0  0  0  0  0  0
    9.8446  -16.7619   27.7316 O   0  0  0  0  0  0  0  0  0  0  0  0
  2  1  1  0
  3  2  1  0
  4  3  1  0
  4  5  1  0
  5  1  1  0
  6 13  1  0
  5  6  1  1
  7  6  2  0
  9  8  1  0
 10  9  1  0
 12 11  1  1
 11 10  1  0
 12 14  1  0
 12 13  1  0
 14 18  1  0
 15 14  2  0
 17 19  1  0
 17 16  1  1
 18 17  1  0
 19 21  1  0
 20 19  2  0
M  END
$$$$
