QFY.pdb
     RDKit          3D

 33 34  0  0  1  0  0  0  0  0999 V2000
   26.2005  -19.6855  -16.4525 N   0  0  0  0  0  0  0  0  0  0  0  0
   27.4985  -19.6715  -15.8378 C   0  0  0  0  0  0  0  0  0  0  0  0
   28.3854  -20.3310  -16.4031 O   0  0  0  0  0  0  0  0  0  0  0  0
   27.6400  -18.8866  -14.6123 C   0  0  0  0  0  0  0  0  0  0  0  0
   27.1179  -19.5145  -13.3600 C   0  0  0  0  0  0  0  0  0  0  0  0
   27.8358  -20.7358  -12.9193 C   0  0  2  0  0  0  0  0  0  0  0  0
   27.7005  -21.8955  -13.7541 N   0  0  0  0  0  0  0  0  0  0  0  0
   27.4720  -21.1118  -11.5041 C   0  0  0  0  0  0  0  0  0  0  0  0
   26.5944  -21.9835  -11.3086 O   0  0  0  0  0  0  0  0  0  0  0  0
   28.1117  -20.4903  -10.3960 N   0  0  0  0  0  0  0  0  0  0  0  0
   27.6436  -20.6482   -9.0336 C   0  0  1  0  0  0  0  0  0  0  0  0
   28.6977  -20.0922   -8.1093 C   0  0  0  0  0  0  0  0  0  0  0  0
   28.2987  -20.1006   -6.6996 C   0  0  0  0  0  0  0  0  0  0  0  0
   28.6211  -21.1856   -5.9153 C   0  0  0  0  0  0  0  0  0  0  0  0
   28.2612  -21.2336   -4.5724 C   0  0  0  0  0  0  0  0  0  0  0  0
   27.5676  -20.1802   -4.0039 C   0  0  0  0  0  0  0  0  0  0  0  0
   27.2341  -19.0769   -4.7818 C   0  0  0  0  0  0  0  0  0  0  0  0
   27.6084  -19.0624   -6.1157 C   0  0  0  0  0  0  0  0  0  0  0  0
   26.3142  -20.0145   -8.8242 C   0  0  0  0  0  0  0  0  0  0  0  0
   26.0605  -18.8393   -9.1851 O   0  0  0  0  0  0  0  0  0  0  0  0
   18.0215  -19.7115  -10.7230 O   0  0  0  0  0  0  0  0  0  0  0  0
   19.3709  -19.9442  -10.5134 C   0  0  0  0  0  0  0  0  0  0  0  0
   20.2889  -18.9554  -10.7722 C   0  0  0  0  0  0  0  0  0  0  0  0
   21.6202  -19.2075  -10.5576 C   0  0  0  0  0  0  0  0  0  0  0  0
   22.0924  -20.4096  -10.0924 C   0  0  0  0  0  0  0  0  0  0  0  0
   23.5230  -20.6982   -9.8622 C   0  0  0  0  0  0  0  0  0  0  0  0
   23.8717  -20.5274   -8.4337 C   0  0  2  0  0  0  0  0  0  0  0  0
   25.3078  -20.7640   -8.1982 N   0  0  0  0  0  0  0  0  0  0  0  0
   23.0637  -21.3777   -7.5315 C   0  0  0  0  0  0  0  0  0  0  0  0
   23.3856  -22.5369   -7.1740 O   0  0  0  0  0  0  0  0  0  0  0  0
   21.1442  -21.4063   -9.8337 C   0  0  0  0  0  0  0  0  0  0  0  0
   19.8095  -21.1540  -10.0486 C   0  0  0  0  0  0  0  0  0  0  0  0
   21.8578  -20.8486   -7.0471 O   0  0  0  0  0  0  0  0  0  0  0  0
  2  1  1  0
  3  2  2  0
  4  2  1  0
  5  4  1  0
  6  5  1  0
  6  7  1  6
  8  6  1  0
  8  9  2  0
 10  8  1  0
 11 10  1  0
 11 12  1  1
 12 13  1  0
 13 18  1  0
 13 14  2  0
 14 15  1  0
 15 16  2  0
 17 16  1  0
 18 17  2  0
 19 11  1  0
 20 19  2  0
 22 21  1  0
 22 32  2  0
 23 22  1  0
 24 23  2  0
 24 25  1  0
 25 31  2  0
 26 25  1  0
 27 26  1  6
 27 28  1  0
 28 19  1  0
 29 33  1  0
 29 27  1  0
 30 29  2  0
 31 32  1  0
M  END
$$$$
