QFY.pdb
     RDKit          3D

 33 34  0  0  1  0  0  0  0  0999 V2000
   30.0008  -17.7393  -17.7819 N   0  0  0  0  0  0  0  0  0  0  0  0
   28.7497  -18.2773  -18.2380 C   0  0  0  0  0  0  0  0  0  0  0  0
   28.3885  -17.9471  -19.3789 O   0  0  0  0  0  0  0  0  0  0  0  0
   28.0316  -19.1534  -17.3135 C   0  0  0  0  0  0  0  0  0  0  0  0
   28.6850  -19.3987  -15.9914 C   0  0  0  0  0  0  0  0  0  0  0  0
   28.7806  -20.8236  -15.5890 C   0  0  2  0  0  0  0  0  0  0  0  0
   28.4180  -21.7956  -16.5809 N   0  0  0  0  0  0  0  0  0  0  0  0
   27.9940  -21.0978  -14.3310 C   0  0  0  0  0  0  0  0  0  0  0  0
   27.0425  -21.9111  -14.3689 O   0  0  0  0  0  0  0  0  0  0  0  0
   28.3199  -20.4460  -13.1093 N   0  0  0  0  0  0  0  0  0  0  0  0
   27.5277  -20.6000  -11.9056 C   0  0  1  0  0  0  0  0  0  0  0  0
   28.3473  -20.1063  -10.7398 C   0  0  0  0  0  0  0  0  0  0  0  0
   29.4705  -20.9852  -10.4044 C   0  0  0  0  0  0  0  0  0  0  0  0
   29.6350  -21.3999   -9.1016 C   0  0  0  0  0  0  0  0  0  0  0  0
   30.6879  -22.2343   -8.7408 C   0  0  0  0  0  0  0  0  0  0  0  0
   31.5912  -22.6616   -9.6975 C   0  0  0  0  0  0  0  0  0  0  0  0
   31.4397  -22.2523  -11.0178 C   0  0  0  0  0  0  0  0  0  0  0  0
   30.3797  -21.4211  -11.3419 C   0  0  0  0  0  0  0  0  0  0  0  0
   26.2153  -19.9074  -12.0098 C   0  0  0  0  0  0  0  0  0  0  0  0
   26.0600  -18.8467  -12.6628 O   0  0  0  0  0  0  0  0  0  0  0  0
   18.1973  -20.4361  -14.9019 O   0  0  0  0  0  0  0  0  0  0  0  0
   19.5192  -20.5226  -14.4969 C   0  0  0  0  0  0  0  0  0  0  0  0
   20.5047  -19.9001  -15.2241 C   0  0  0  0  0  0  0  0  0  0  0  0
   21.8072  -19.9987  -14.8049 C   0  0  0  0  0  0  0  0  0  0  0  0
   22.1856  -20.6947  -13.6836 C   0  0  0  0  0  0  0  0  0  0  0  0
   23.5842  -20.8150  -13.2230 C   0  0  0  0  0  0  0  0  0  0  0  0
   23.7278  -20.3126  -11.8379 C   0  0  2  0  0  0  0  0  0  0  0  0
   25.1109  -20.4659  -11.3505 N   0  0  0  0  0  0  0  0  0  0  0  0
   22.7835  -20.9433  -10.8890 C   0  0  0  0  0  0  0  0  0  0  0  0
   21.7175  -20.4126  -10.4926 O   0  0  0  0  0  0  0  0  0  0  0  0
   21.1695  -21.3228  -12.9540 C   0  0  0  0  0  0  0  0  0  0  0  0
   19.8637  -21.2242  -13.3738 C   0  0  0  0  0  0  0  0  0  0  0  0
   23.1066  -22.2190  -10.4023 O   0  0  0  0  0  0  0  0  0  0  0  0
  2  1  1  0
  3  2  2  0
  4  2  1  0
  5  4  1  0
  6  5  1  0
  6  7  1  6
  8  6  1  0
  8  9  2  0
 10  8  1  0
 11 10  1  0
 11 12  1  1
 12 13  1  0
 13 18  1  0
 13 14  2  0
 14 15  1  0
 15 16  2  0
 17 16  1  0
 18 17  2  0
 19 11  1  0
 20 19  2  0
 22 21  1  0
 22 32  2  0
 23 22  1  0
 24 23  2  0
 24 25  1  0
 25 31  2  0
 26 25  1  0
 27 26  1  6
 27 28  1  0
 28 19  1  0
 29 33  1  0
 29 27  1  0
 30 29  2  0
 31 32  1  0
M  END
$$$$
