QFY.pdb
     RDKit          3D

 33 34  0  0  1  0  0  0  0  0999 V2000
   28.5066  -24.6740  -18.3681 N   0  0  0  0  0  0  0  0  0  0  0  0
   29.5679  -23.7682  -18.7087 C   0  0  0  0  0  0  0  0  0  0  0  0
   30.0550  -23.8887  -19.8442 O   0  0  0  0  0  0  0  0  0  0  0  0
   29.9656  -22.8027  -17.6851 C   0  0  0  0  0  0  0  0  0  0  0  0
   29.1475  -22.7896  -16.4339 C   0  0  0  0  0  0  0  0  0  0  0  0
   27.8309  -22.1151  -16.5474 C   0  0  2  0  0  0  0  0  0  0  0  0
   27.8447  -20.7548  -17.0054 N   0  0  0  0  0  0  0  0  0  0  0  0
   27.0603  -22.1828  -15.2520 C   0  0  0  0  0  0  0  0  0  0  0  0
   26.9608  -23.2792  -14.6553 O   0  0  0  0  0  0  0  0  0  0  0  0
   26.4491  -21.0208  -14.7044 N   0  0  0  0  0  0  0  0  0  0  0  0
   25.6785  -21.0474  -13.4774 C   0  0  1  0  0  0  0  0  0  0  0  0
   26.1843  -19.9432  -12.5832 C   0  0  0  0  0  0  0  0  0  0  0  0
   26.8318  -20.4327  -11.3634 C   0  0  0  0  0  0  0  0  0  0  0  0
   26.1622  -20.3429  -10.1635 C   0  0  0  0  0  0  0  0  0  0  0  0
   26.7408  -20.7957   -8.9823 C   0  0  0  0  0  0  0  0  0  0  0  0
   28.0093  -21.3474   -9.0004 C   0  0  0  0  0  0  0  0  0  0  0  0
   28.6994  -21.4455  -10.2036 C   0  0  0  0  0  0  0  0  0  0  0  0
   28.0930  -20.9846  -11.3609 C   0  0  0  0  0  0  0  0  0  0  0  0
   24.2170  -20.9440  -13.7348 C   0  0  0  0  0  0  0  0  0  0  0  0
   23.7348  -20.1663  -14.5940 O   0  0  0  0  0  0  0  0  0  0  0  0
   15.6029  -22.5448  -12.9434 O   0  0  0  0  0  0  0  0  0  0  0  0
   16.9807  -22.6101  -12.8148 C   0  0  0  0  0  0  0  0  0  0  0  0
   17.7206  -23.3559  -13.7000 C   0  0  0  0  0  0  0  0  0  0  0  0
   19.0838  -23.4066  -13.5541 C   0  0  0  0  0  0  0  0  0  0  0  0
   19.7585  -22.7445  -12.5586 C   0  0  0  0  0  0  0  0  0  0  0  0
   21.2249  -22.7942  -12.3849 C   0  0  0  0  0  0  0  0  0  0  0  0
   21.8825  -21.7052  -13.1419 C   0  0  2  0  0  0  0  0  0  0  0  0
   23.3478  -21.7496  -12.9852 N   0  0  0  0  0  0  0  0  0  0  0  0
   21.3755  -20.3610  -12.7869 C   0  0  0  0  0  0  0  0  0  0  0  0
   21.6717  -19.7480  -11.7326 O   0  0  0  0  0  0  0  0  0  0  0  0
   18.9899  -21.9892  -11.6652 C   0  0  0  0  0  0  0  0  0  0  0  0
   17.6234  -21.9380  -11.8112 C   0  0  0  0  0  0  0  0  0  0  0  0
   20.5054  -19.7349  -13.6923 O   0  0  0  0  0  0  0  0  0  0  0  0
  2  1  1  0
  3  2  2  0
  4  2  1  0
  5  4  1  0
  6  5  1  0
  6  7  1  1
  8  6  1  0
  8  9  2  0
 10  8  1  0
 11 10  1  0
 11 12  1  1
 12 13  1  0
 13 18  1  0
 13 14  2  0
 14 15  1  0
 15 16  2  0
 17 16  1  0
 18 17  2  0
 19 11  1  0
 20 19  2  0
 22 21  1  0
 22 32  2  0
 23 22  1  0
 24 23  2  0
 24 25  1  0
 25 31  2  0
 26 25  1  0
 27 26  1  1
 27 28  1  0
 28 19  1  0
 29 33  1  0
 29 27  1  0
 30 29  2  0
 31 32  1  0
M  END
$$$$
