QFY.pdb
     RDKit          3D

 33 34  0  0  1  0  0  0  0  0999 V2000
   24.3394  -23.4821  -19.1803 N   0  0  0  0  0  0  0  0  0  0  0  0
   24.9259  -23.1781  -20.4555 C   0  0  0  0  0  0  0  0  0  0  0  0
   24.2679  -22.4389  -21.2050 O   0  0  0  0  0  0  0  0  0  0  0  0
   26.2321  -23.7709  -20.7395 C   0  0  0  0  0  0  0  0  0  0  0  0
   26.8483  -24.5734  -19.6388 C   0  0  0  0  0  0  0  0  0  0  0  0
   28.0862  -23.9996  -19.0561 C   0  0  2  0  0  0  0  0  0  0  0  0
   29.2773  -24.7920  -19.1737 N   0  0  0  0  0  0  0  0  0  0  0  0
   27.8943  -23.6248  -17.6072 C   0  0  0  0  0  0  0  0  0  0  0  0
   27.8713  -24.5270  -16.7392 O   0  0  0  0  0  0  0  0  0  0  0  0
   27.7401  -22.2649  -17.2191 N   0  0  0  0  0  0  0  0  0  0  0  0
   27.4170  -21.8710  -15.8624 C   0  0  1  0  0  0  0  0  0  0  0  0
   28.2748  -20.6838  -15.5030 C   0  0  0  0  0  0  0  0  0  0  0  0
   27.9922  -20.1435  -14.1709 C   0  0  0  0  0  0  0  0  0  0  0  0
   28.4786  -20.7986  -13.0616 C   0  0  0  0  0  0  0  0  0  0  0  0
   28.2332  -20.3194  -11.7790 C   0  0  0  0  0  0  0  0  0  0  0  0
   27.4894  -19.1664  -11.6018 C   0  0  0  0  0  0  0  0  0  0  0  0
   26.9907  -18.4925  -12.7112 C   0  0  0  0  0  0  0  0  0  0  0  0
   27.2543  -18.9980  -13.9740 C   0  0  0  0  0  0  0  0  0  0  0  0
   25.9653  -21.5936  -15.6935 C   0  0  0  0  0  0  0  0  0  0  0  0
   25.2879  -20.9847  -16.5572 O   0  0  0  0  0  0  0  0  0  0  0  0
   18.0407  -21.3267  -11.9196 O   0  0  0  0  0  0  0  0  0  0  0  0
   19.3873  -21.5541  -12.1522 C   0  0  0  0  0  0  0  0  0  0  0  0
   20.3330  -20.7428  -11.5735 C   0  0  0  0  0  0  0  0  0  0  0  0
   21.6609  -20.9860  -11.8174 C   0  0  0  0  0  0  0  0  0  0  0  0
   22.1031  -22.0091  -12.6189 C   0  0  0  0  0  0  0  0  0  0  0  0
   23.5289  -22.2799  -12.8958 C   0  0  0  0  0  0  0  0  0  0  0  0
   23.9246  -21.7267  -14.2106 C   0  0  2  0  0  0  0  0  0  0  0  0
   25.3333  -22.0319  -14.5210 N   0  0  0  0  0  0  0  0  0  0  0  0
   23.6844  -20.2710  -14.3259 C   0  0  0  0  0  0  0  0  0  0  0  0
   24.4207  -19.3895  -13.8202 O   0  0  0  0  0  0  0  0  0  0  0  0
   21.1269  -22.8264  -13.2006 C   0  0  0  0  0  0  0  0  0  0  0  0
   19.7956  -22.5830  -12.9563 C   0  0  0  0  0  0  0  0  0  0  0  0
   22.5564  -19.8540  -15.0487 O   0  0  0  0  0  0  0  0  0  0  0  0
  2  1  1  0
  3  2  2  0
  4  2  1  0
  5  4  1  0
  6  5  1  0
  6  7  1  1
  8  6  1  0
  8  9  2  0
 10  8  1  0
 11 10  1  0
 11 12  1  6
 12 13  1  0
 13 18  1  0
 13 14  2  0
 14 15  1  0
 15 16  2  0
 17 16  1  0
 18 17  2  0
 19 11  1  0
 20 19  2  0
 22 21  1  0
 22 32  2  0
 23 22  1  0
 24 23  2  0
 24 25  1  0
 25 31  2  0
 26 25  1  0
 27 26  1  1
 27 28  1  0
 28 19  1  0
 29 33  1  0
 29 27  1  0
 30 29  2  0
 31 32  1  0
M  END
$$$$
