QFY.pdb
     RDKit          3D

 33 34  0  0  1  0  0  0  0  0999 V2000
   23.2248  -20.1717  -18.5504 N   0  0  0  0  0  0  0  0  0  0  0  0
   22.2467  -21.0922  -18.0417 C   0  0  0  0  0  0  0  0  0  0  0  0
   22.3087  -22.2566  -18.4677 O   0  0  0  0  0  0  0  0  0  0  0  0
   21.2804  -20.5638  -17.0799 C   0  0  0  0  0  0  0  0  0  0  0  0
   21.4984  -19.1554  -16.6282 C   0  0  0  0  0  0  0  0  0  0  0  0
   22.5153  -18.9848  -15.5615 C   0  0  2  0  0  0  0  0  0  0  0  0
   22.2709  -19.6740  -14.3264 N   0  0  0  0  0  0  0  0  0  0  0  0
   22.7650  -17.5272  -15.2622 C   0  0  0  0  0  0  0  0  0  0  0  0
   21.8570  -16.8467  -14.7325 O   0  0  0  0  0  0  0  0  0  0  0  0
   24.0138  -16.9213  -15.5735 N   0  0  0  0  0  0  0  0  0  0  0  0
   24.2340  -15.4920  -15.4804 C   0  0  1  0  0  0  0  0  0  0  0  0
   25.6072  -15.2671  -14.8986 C   0  0  0  0  0  0  0  0  0  0  0  0
   26.6345  -16.1356  -15.4790 C   0  0  0  0  0  0  0  0  0  0  0  0
   27.2850  -15.7358  -16.6250 C   0  0  0  0  0  0  0  0  0  0  0  0
   28.2665  -16.5304  -17.2083 C   0  0  0  0  0  0  0  0  0  0  0  0
   28.6036  -17.7445  -16.6372 C   0  0  0  0  0  0  0  0  0  0  0  0
   27.9564  -18.1633  -15.4799 C   0  0  0  0  0  0  0  0  0  0  0  0
   26.9839  -17.3468  -14.9257 C   0  0  0  0  0  0  0  0  0  0  0  0
   24.0560  -14.8141  -16.7925 C   0  0  0  0  0  0  0  0  0  0  0  0
   24.2705  -15.3908  -17.8865 O   0  0  0  0  0  0  0  0  0  0  0  0
   17.1903  -12.9570  -16.8176 O   0  0  0  0  0  0  0  0  0  0  0  0
   18.4716  -13.0785  -17.3302 C   0  0  0  0  0  0  0  0  0  0  0  0
   19.2036  -14.2165  -17.0925 C   0  0  0  0  0  0  0  0  0  0  0  0
   20.4704  -14.3157  -17.6097 C   0  0  0  0  0  0  0  0  0  0  0  0
   21.0550  -13.3272  -18.3618 C   0  0  0  0  0  0  0  0  0  0  0  0
   22.4199  -13.4168  -18.9203 C   0  0  0  0  0  0  0  0  0  0  0  0
   23.3934  -12.7237  -18.0465 C   0  0  2  0  0  0  0  0  0  0  0  0
   23.6315  -13.4777  -16.8020 N   0  0  0  0  0  0  0  0  0  0  0  0
   23.0028  -11.3322  -17.7288 C   0  0  0  0  0  0  0  0  0  0  0  0
   22.7440  -10.4554  -18.5886 O   0  0  0  0  0  0  0  0  0  0  0  0
   20.2958  -12.1745  -18.5948 C   0  0  0  0  0  0  0  0  0  0  0  0
   19.0259  -12.0747  -18.0766 C   0  0  0  0  0  0  0  0  0  0  0  0
   22.9186  -10.9740  -16.3748 O   0  0  0  0  0  0  0  0  0  0  0  0
  2  1  1  0
  3  2  2  0
  4  2  1  0
  5  4  1  0
  6  5  1  0
  6  7  1  1
  8  6  1  0
  8  9  2  0
 10  8  1  0
 11 10  1  0
 11 12  1  6
 12 13  1  0
 13 18  1  0
 13 14  2  0
 14 15  1  0
 15 16  2  0
 17 16  1  0
 18 17  2  0
 19 11  1  0
 20 19  2  0
 22 21  1  0
 22 32  2  0
 23 22  1  0
 24 23  2  0
 24 25  1  0
 25 31  2  0
 26 25  1  0
 27 26  1  1
 27 28  1  0
 28 19  1  0
 29 33  1  0
 29 27  1  0
 30 29  2  0
 31 32  1  0
M  END
$$$$
