SHE.pdb
     RDKit          3D

 26 26  0  0  1  0  0  0  0  0999 V2000
    7.7074  -14.9081   17.5303 O   0  0  0  0  0  0  0  0  0  0  0  0
    8.3939  -14.8754   18.7313 C   0  0  0  0  0  0  0  0  0  0  0  0
    7.7232  -13.9186   19.7271 C   0  0  2  0  0  0  0  0  0  0  0  0
    7.9848  -12.5866   19.2394 N   0  0  0  0  0  0  0  0  0  0  0  0
    8.3719  -14.1871   21.0376 C   0  0  0  0  0  0  0  0  0  0  0  0
    9.4529  -13.6044   21.2711 O   0  0  0  0  0  0  0  0  0  0  0  0
    7.8429  -15.0517   22.0206 N   0  0  0  0  0  0  0  0  0  0  0  0
    8.4571  -15.2113   23.3398 C   0  0  1  0  0  0  0  0  0  0  0  0
    7.3439  -15.2685   24.3722 C   0  0  0  0  0  0  0  0  0  0  0  0
    6.9764  -13.9421   24.8894 C   0  0  0  0  0  0  0  0  0  0  0  0
    7.6237  -12.7624   24.5926 C   0  0  0  0  0  0  0  0  0  0  0  0
    7.0102  -11.7478   25.2463 N   0  0  0  0  0  0  0  0  0  0  0  0
    5.9782  -12.2875   25.9537 C   0  0  0  0  0  0  0  0  0  0  0  0
    5.9750  -13.6245   25.7227 N   0  0  0  0  0  0  0  0  0  0  0  0
    9.2335  -16.4829   23.4052 C   0  0  0  0  0  0  0  0  0  0  0  0
    8.6655  -17.5617   23.0980 O   0  0  0  0  0  0  0  0  0  0  0  0
   10.5862  -16.5414   23.7975 N   0  0  0  0  0  0  0  0  0  0  0  0
   11.3728  -17.7881   23.8108 C   0  0  1  0  0  0  0  0  0  0  0  0
   12.7435  -17.4506   23.3168 C   0  0  0  0  0  0  0  0  0  0  0  0
   13.4772  -16.4244   24.1251 C   0  0  0  0  0  0  0  0  0  0  0  0
   14.8547  -16.2112   23.5468 C   0  0  0  0  0  0  0  0  0  0  0  0
   15.7099  -17.1215   23.4954 O   0  0  0  0  0  0  0  0  0  0  0  0
   11.3705  -18.2728   25.2005 C   0  0  0  0  0  0  0  0  0  0  0  0
   10.8749  -17.5720   26.1080 O   0  0  0  0  0  0  0  0  0  0  0  0
   15.1810  -14.9563   23.0545 O   0  0  0  0  0  0  0  0  0  0  0  0
   11.9075  -19.4992   25.5366 O   0  0  0  0  0  0  0  0  0  0  0  0
  1  2  1  0
  2  3  1  0
  3  5  1  0
  3  4  1  6
  5  6  2  0
  7  8  1  0
  7  5  1  0
  8  9  1  1
  9 10  1  0
 10 11  2  0
 11 12  1  0
 13 12  1  0
 14 10  1  0
 14 13  2  0
 15 16  2  0
 15  8  1  0
 17 15  1  0
 18 17  1  0
 18 23  1  0
 18 19  1  1
 20 21  1  0
 20 19  1  0
 21 25  1  0
 22 21  2  0
 23 26  1  0
 24 23  2  0
M  END
$$$$
