SHE.pdb
     RDKit          3D

 26 26  0  0  1  0  0  0  0  0999 V2000
   12.9575  -17.1292   12.5079 O   0  0  0  0  0  0  0  0  0  0  0  0
   11.8561  -17.4125   13.2961 C   0  0  0  0  0  0  0  0  0  0  0  0
   10.9141  -16.2037   13.3870 C   0  0  2  0  0  0  0  0  0  0  0  0
   11.2809  -15.3287   12.3005 N   0  0  0  0  0  0  0  0  0  0  0  0
   11.1681  -15.5988   14.7212 C   0  0  0  0  0  0  0  0  0  0  0  0
   12.0226  -14.6886   14.7834 O   0  0  0  0  0  0  0  0  0  0  0  0
   10.5072  -15.9892   15.9063 N   0  0  0  0  0  0  0  0  0  0  0  0
   10.8470  -15.4305   17.2161 C   0  0  1  0  0  0  0  0  0  0  0  0
    9.8616  -15.9831   18.2321 C   0  0  0  0  0  0  0  0  0  0  0  0
   10.1021  -15.4801   19.5925 C   0  0  0  0  0  0  0  0  0  0  0  0
   11.1095  -14.6131   19.9564 C   0  0  0  0  0  0  0  0  0  0  0  0
   11.0227  -14.3714   21.2858 N   0  0  0  0  0  0  0  0  0  0  0  0
    9.9625  -15.0849   21.7585 C   0  0  0  0  0  0  0  0  0  0  0  0
    9.4157  -15.7530   20.7118 N   0  0  0  0  0  0  0  0  0  0  0  0
   12.2242  -15.8378   17.6175 C   0  0  0  0  0  0  0  0  0  0  0  0
   12.6494  -16.9711   17.2775 O   0  0  0  0  0  0  0  0  0  0  0  0
   13.0856  -15.0109   18.3668 N   0  0  0  0  0  0  0  0  0  0  0  0
   14.4100  -15.4446   18.8474 C   0  0  1  0  0  0  0  0  0  0  0  0
   15.3871  -14.3760   18.4731 C   0  0  0  0  0  0  0  0  0  0  0  0
   16.7714  -14.5601   19.0157 C   0  0  0  0  0  0  0  0  0  0  0  0
   17.6663  -13.4540   18.5124 C   0  0  0  0  0  0  0  0  0  0  0  0
   18.0348  -12.5054   19.2383 O   0  0  0  0  0  0  0  0  0  0  0  0
   14.2915  -15.6249   20.3032 C   0  0  0  0  0  0  0  0  0  0  0  0
   15.2171  -16.1644   20.9455 O   0  0  0  0  0  0  0  0  0  0  0  0
   18.0942  -13.4947   17.1937 O   0  0  0  0  0  0  0  0  0  0  0  0
   13.1702  -15.2078   20.9919 O   0  0  0  0  0  0  0  0  0  0  0  0
  1  2  1  0
  2  3  1  0
  3  5  1  0
  3  4  1  6
  5  6  2  0
  7  8  1  0
  7  5  1  0
  8  9  1  1
  9 10  1  0
 10 11  2  0
 11 12  1  0
 13 12  1  0
 14 10  1  0
 14 13  2  0
 15 16  2  0
 15  8  1  0
 17 15  1  0
 18 17  1  0
 18 23  1  0
 18 19  1  1
 20 21  1  0
 20 19  1  0
 21 25  1  0
 22 21  2  0
 23 26  1  0
 24 23  2  0
M  END
$$$$
