SHE.pdb
     RDKit          3D

 26 26  0  0  1  0  0  0  0  0999 V2000
    8.0216  -18.4041   19.6243 O   0  0  0  0  0  0  0  0  0  0  0  0
    9.0662  -17.5260   19.8528 C   0  0  0  0  0  0  0  0  0  0  0  0
    8.5925  -16.0680   19.7705 C   0  0  2  0  0  0  0  0  0  0  0  0
    9.4084  -15.4393   18.7607 N   0  0  0  0  0  0  0  0  0  0  0  0
    8.8165  -15.4982   21.1253 C   0  0  0  0  0  0  0  0  0  0  0  0
   10.0010  -15.3717   21.5042 O   0  0  0  0  0  0  0  0  0  0  0  0
    7.7805  -15.0971   21.9968 N   0  0  0  0  0  0  0  0  0  0  0  0
    8.0401  -14.5876   23.3444 C   0  0  1  0  0  0  0  0  0  0  0  0
    6.7451  -14.0034   23.8830 C   0  0  0  0  0  0  0  0  0  0  0  0
    6.8494  -13.5833   25.2881 C   0  0  0  0  0  0  0  0  0  0  0  0
    7.1281  -12.3048   25.7203 C   0  0  0  0  0  0  0  0  0  0  0  0
    7.1443  -12.2921   27.0741 N   0  0  0  0  0  0  0  0  0  0  0  0
    6.8764  -13.5604   27.4941 C   0  0  0  0  0  0  0  0  0  0  0  0
    6.7000  -14.3310   26.3913 N   0  0  0  0  0  0  0  0  0  0  0  0
    8.4762  -15.6921   24.2465 C   0  0  0  0  0  0  0  0  0  0  0  0
    7.7652  -16.7254   24.3344 O   0  0  0  0  0  0  0  0  0  0  0  0
    9.6566  -15.6397   25.0152 N   0  0  0  0  0  0  0  0  0  0  0  0
   10.0867  -16.7256   25.9147 C   0  0  1  0  0  0  0  0  0  0  0  0
   11.4354  -17.1754   25.4505 C   0  0  0  0  0  0  0  0  0  0  0  0
   12.3214  -16.0898   24.9203 C   0  0  0  0  0  0  0  0  0  0  0  0
   13.6214  -16.6847   24.4374 C   0  0  0  0  0  0  0  0  0  0  0  0
   14.4067  -17.2903   25.1984 O   0  0  0  0  0  0  0  0  0  0  0  0
   10.1099  -16.1621   27.2742 C   0  0  0  0  0  0  0  0  0  0  0  0
    9.8622  -14.9512   27.4552 O   0  0  0  0  0  0  0  0  0  0  0  0
   13.9546  -16.5527   23.0975 O   0  0  0  0  0  0  0  0  0  0  0  0
   10.4008  -16.9446   28.3735 O   0  0  0  0  0  0  0  0  0  0  0  0
  1  2  1  0
  2  3  1  0
  3  5  1  0
  3  4  1  6
  5  6  2  0
  7  8  1  0
  7  5  1  0
  8  9  1  1
  9 10  1  0
 10 11  2  0
 11 12  1  0
 13 12  1  0
 14 10  1  0
 14 13  2  0
 15 16  2  0
 15  8  1  0
 17 15  1  0
 18 17  1  0
 18 23  1  0
 18 19  1  6
 20 21  1  0
 20 19  1  0
 21 25  1  0
 22 21  2  0
 23 26  1  0
 24 23  2  0
M  END
$$$$
