SHE.pdb
     RDKit          3D

 26 26  0  0  1  0  0  0  0  0999 V2000
   10.7475  -19.9076   19.3380 O   0  0  0  0  0  0  0  0  0  0  0  0
   11.6035  -19.3792   18.3879 C   0  0  0  0  0  0  0  0  0  0  0  0
   11.2200  -17.9342   18.0390 C   0  0  2  0  0  0  0  0  0  0  0  0
   12.2504  -17.4502   17.1532 N   0  0  0  0  0  0  0  0  0  0  0  0
   11.1886  -17.2054   19.3344 C   0  0  0  0  0  0  0  0  0  0  0  0
   12.2874  -16.8913   19.8410 O   0  0  0  0  0  0  0  0  0  0  0  0
   10.0034  -16.8527   20.0160 N   0  0  0  0  0  0  0  0  0  0  0  0
   10.0147  -16.2100   21.3312 C   0  0  1  0  0  0  0  0  0  0  0  0
    8.7476  -15.3814   21.4597 C   0  0  0  0  0  0  0  0  0  0  0  0
    8.7406  -14.2082   20.5735 C   0  0  0  0  0  0  0  0  0  0  0  0
    9.7891  -13.8042   19.7758 C   0  0  0  0  0  0  0  0  0  0  0  0
    9.4238  -12.6887   19.1010 N   0  0  0  0  0  0  0  0  0  0  0  0
    8.1473  -12.3904   19.4730 C   0  0  0  0  0  0  0  0  0  0  0  0
    7.7498  -13.3277   20.3700 N   0  0  0  0  0  0  0  0  0  0  0  0
   10.0258  -17.2348   22.4144 C   0  0  0  0  0  0  0  0  0  0  0  0
    9.2366  -18.2108   22.3398 O   0  0  0  0  0  0  0  0  0  0  0  0
   10.8836  -17.1678   23.5311 N   0  0  0  0  0  0  0  0  0  0  0  0
   10.9198  -18.1949   24.5879 C   0  0  1  0  0  0  0  0  0  0  0  0
   12.1981  -18.9534   24.4228 C   0  0  0  0  0  0  0  0  0  0  0  0
   13.3826  -18.1268   24.0253 C   0  0  0  0  0  0  0  0  0  0  0  0
   14.5869  -19.0179   23.8438 C   0  0  0  0  0  0  0  0  0  0  0  0
   15.7358  -18.5638   23.6525 O   0  0  0  0  0  0  0  0  0  0  0  0
   10.8422  -17.4805   25.8723 C   0  0  0  0  0  0  0  0  0  0  0  0
   10.7814  -16.2330   25.8932 O   0  0  0  0  0  0  0  0  0  0  0  0
   14.4087  -20.3925   23.8916 O   0  0  0  0  0  0  0  0  0  0  0  0
   10.8334  -18.1588   27.0746 O   0  0  0  0  0  0  0  0  0  0  0  0
  1  2  1  0
  2  3  1  0
  3  5  1  0
  3  4  1  6
  5  6  2  0
  7  8  1  0
  7  5  1  0
  8  9  1  1
  9 10  1  0
 10 11  2  0
 11 12  1  0
 13 12  1  0
 14 10  1  0
 14 13  2  0
 15 16  2  0
 15  8  1  0
 17 15  1  0
 18 17  1  0
 18 23  1  0
 18 19  1  1
 20 21  1  0
 20 19  1  0
 21 25  1  0
 22 21  2  0
 23 26  1  0
 24 23  2  0
M  END
$$$$
