SHE.pdb
     RDKit          3D

 26 26  0  0  1  0  0  0  0  0999 V2000
    8.6586  -20.7662   18.2230 O   0  0  0  0  0  0  0  0  0  0  0  0
    8.8084  -19.8919   17.1610 C   0  0  0  0  0  0  0  0  0  0  0  0
    9.1922  -20.6406   15.8768 C   0  0  2  0  0  0  0  0  0  0  0  0
    8.3054  -21.7753   15.7957 N   0  0  0  0  0  0  0  0  0  0  0  0
   10.6143  -21.0358   16.0548 C   0  0  0  0  0  0  0  0  0  0  0  0
   10.8379  -22.1409   16.5945 O   0  0  0  0  0  0  0  0  0  0  0  0
   11.7123  -20.2437   15.6539 N   0  0  0  0  0  0  0  0  0  0  0  0
   13.0993  -20.6365   15.9086 C   0  0  1  0  0  0  0  0  0  0  0  0
   13.9865  -19.8897   14.9269 C   0  0  0  0  0  0  0  0  0  0  0  0
   13.9677  -20.4775   13.5793 C   0  0  0  0  0  0  0  0  0  0  0  0
   13.1365  -20.0898   12.5510 C   0  0  0  0  0  0  0  0  0  0  0  0
   13.4000  -20.8500   11.4621 N   0  0  0  0  0  0  0  0  0  0  0  0
   14.3956  -21.7153   11.8039 C   0  0  0  0  0  0  0  0  0  0  0  0
   14.7270  -21.4721   13.0970 N   0  0  0  0  0  0  0  0  0  0  0  0
   13.5029  -20.2632   17.2948 C   0  0  0  0  0  0  0  0  0  0  0  0
   13.0490  -19.2044   17.7987 O   0  0  0  0  0  0  0  0  0  0  0  0
   14.3762  -21.0426   18.0803 N   0  0  0  0  0  0  0  0  0  0  0  0
   14.7231  -20.7140   19.4749 C   0  0  1  0  0  0  0  0  0  0  0  0
   14.1745  -21.8071   20.3356 C   0  0  0  0  0  0  0  0  0  0  0  0
   14.9630  -23.0809   20.3275 C   0  0  0  0  0  0  0  0  0  0  0  0
   14.3254  -24.0798   21.2620 C   0  0  0  0  0  0  0  0  0  0  0  0
   14.9971  -24.8517   21.9799 O   0  0  0  0  0  0  0  0  0  0  0  0
   16.1910  -20.6239   19.5337 C   0  0  0  0  0  0  0  0  0  0  0  0
   16.8791  -20.9458   18.5421 O   0  0  0  0  0  0  0  0  0  0  0  0
   12.9412  -24.1409   21.3241 O   0  0  0  0  0  0  0  0  0  0  0  0
   16.8409  -20.1861   20.6701 O   0  0  0  0  0  0  0  0  0  0  0  0
  1  2  1  0
  2  3  1  0
  3  5  1  0
  3  4  1  1
  5  6  2  0
  7  8  1  0
  7  5  1  0
  8  9  1  6
  9 10  1  0
 10 11  2  0
 11 12  1  0
 13 12  1  0
 14 10  1  0
 14 13  2  0
 15 16  2  0
 15  8  1  0
 17 15  1  0
 18 17  1  0
 18 23  1  0
 18 19  1  1
 20 21  1  0
 20 19  1  0
 21 25  1  0
 22 21  2  0
 23 26  1  0
 24 23  2  0
M  END
$$$$
