SHE.pdb
     RDKit          3D

 26 26  0  0  1  0  0  0  0  0999 V2000
    7.6182  -18.1888   18.4679 O   0  0  0  0  0  0  0  0  0  0  0  0
    7.7017  -17.5543   19.6947 C   0  0  0  0  0  0  0  0  0  0  0  0
    7.9287  -16.0456   19.5241 C   0  0  2  0  0  0  0  0  0  0  0  0
    8.9828  -15.9080   18.5492 N   0  0  0  0  0  0  0  0  0  0  0  0
    8.3219  -15.5464   20.8682 C   0  0  0  0  0  0  0  0  0  0  0  0
    9.5294  -15.6323   21.1797 O   0  0  0  0  0  0  0  0  0  0  0  0
    7.4202  -14.9880   21.8003 N   0  0  0  0  0  0  0  0  0  0  0  0
    7.8363  -14.5609   23.1373 C   0  0  1  0  0  0  0  0  0  0  0  0
    6.6420  -13.9107   23.8152 C   0  0  0  0  0  0  0  0  0  0  0  0
    6.9245  -13.5006   25.1986 C   0  0  0  0  0  0  0  0  0  0  0  0
    8.1801  -13.3493   25.7457 C   0  0  0  0  0  0  0  0  0  0  0  0
    8.0535  -12.9626   27.0371 N   0  0  0  0  0  0  0  0  0  0  0  0
    6.7202  -12.8704   27.3030 C   0  0  0  0  0  0  0  0  0  0  0  0
    6.0502  -13.2020   26.1707 N   0  0  0  0  0  0  0  0  0  0  0  0
    8.2659  -15.7341   23.9515 C   0  0  0  0  0  0  0  0  0  0  0  0
    7.5112  -16.7372   24.0229 O   0  0  0  0  0  0  0  0  0  0  0  0
    9.4873  -15.7799   24.6538 N   0  0  0  0  0  0  0  0  0  0  0  0
    9.9260  -16.9465   25.4412 C   0  0  1  0  0  0  0  0  0  0  0  0
   11.3736  -17.1659   25.1360 C   0  0  0  0  0  0  0  0  0  0  0  0
   12.0314  -18.2597   25.9206 C   0  0  0  0  0  0  0  0  0  0  0  0
   13.4147  -18.5161   25.3746 C   0  0  0  0  0  0  0  0  0  0  0  0
   14.0515  -19.5627   25.6228 O   0  0  0  0  0  0  0  0  0  0  0  0
    9.6848  -16.6154   26.8548 C   0  0  0  0  0  0  0  0  0  0  0  0
    9.2435  -17.4846   27.6358 O   0  0  0  0  0  0  0  0  0  0  0  0
   13.9989  -17.5515   24.5670 O   0  0  0  0  0  0  0  0  0  0  0  0
    9.9366  -15.3525   27.3520 O   0  0  0  0  0  0  0  0  0  0  0  0
  1  2  1  0
  2  3  1  0
  3  5  1  0
  3  4  1  6
  5  6  2  0
  7  8  1  0
  7  5  1  0
  8  9  1  1
  9 10  1  0
 10 11  2  0
 11 12  1  0
 13 12  1  0
 14 10  1  0
 14 13  2  0
 15 16  2  0
 15  8  1  0
 17 15  1  0
 18 17  1  0
 18 23  1  0
 18 19  1  1
 20 21  1  0
 20 19  1  0
 21 25  1  0
 22 21  2  0
 23 26  1  0
 24 23  2  0
M  END
$$$$
