SHE.pdb
     RDKit          3D

 26 26  0  0  1  0  0  0  0  0999 V2000
   10.4946  -20.3437   17.7171 O   0  0  0  0  0  0  0  0  0  0  0  0
    9.2351  -19.7751   17.6469 C   0  0  0  0  0  0  0  0  0  0  0  0
    9.3001  -18.3535   17.0710 C   0  0  2  0  0  0  0  0  0  0  0  0
   10.1559  -18.4306   15.9125 N   0  0  0  0  0  0  0  0  0  0  0  0
    9.8738  -17.5102   18.1527 C   0  0  0  0  0  0  0  0  0  0  0  0
   11.0750  -17.1813   18.0455 O   0  0  0  0  0  0  0  0  0  0  0  0
    9.1481  -17.0657   19.2793 N   0  0  0  0  0  0  0  0  0  0  0  0
    9.7387  -16.2038   20.3047 C   0  0  1  0  0  0  0  0  0  0  0  0
    8.6086  -15.4829   21.0199 C   0  0  0  0  0  0  0  0  0  0  0  0
    7.9694  -14.4545   20.1858 C   0  0  0  0  0  0  0  0  0  0  0  0
    8.3610  -13.1359   20.1047 C   0  0  0  0  0  0  0  0  0  0  0  0
    7.5446  -12.4871   19.2411 N   0  0  0  0  0  0  0  0  0  0  0  0
    6.6403  -13.3956   18.7790 C   0  0  0  0  0  0  0  0  0  0  0  0
    6.9162  -14.5872   19.3664 N   0  0  0  0  0  0  0  0  0  0  0  0
   10.4915  -17.0176   21.3022 C   0  0  0  0  0  0  0  0  0  0  0  0
   10.0717  -18.1660   21.5952 O   0  0  0  0  0  0  0  0  0  0  0  0
   11.6626  -16.5634   21.9421 N   0  0  0  0  0  0  0  0  0  0  0  0
   12.4838  -17.4107   22.8257 C   0  0  1  0  0  0  0  0  0  0  0  0
   13.8635  -16.8335   22.8335 C   0  0  0  0  0  0  0  0  0  0  0  0
   14.8069  -17.4510   23.8201 C   0  0  0  0  0  0  0  0  0  0  0  0
   16.1596  -16.7909   23.7121 C   0  0  0  0  0  0  0  0  0  0  0  0
   16.3570  -15.6041   24.0515 O   0  0  0  0  0  0  0  0  0  0  0  0
   11.8451  -17.3801   24.1513 C   0  0  0  0  0  0  0  0  0  0  0  0
   11.0355  -16.4725   24.4363 O   0  0  0  0  0  0  0  0  0  0  0  0
   17.2223  -17.5321   23.2170 O   0  0  0  0  0  0  0  0  0  0  0  0
   12.1175  -18.3406   25.1046 O   0  0  0  0  0  0  0  0  0  0  0  0
  1  2  1  0
  2  3  1  0
  3  5  1  0
  3  4  1  6
  5  6  2  0
  7  8  1  0
  7  5  1  0
  8  9  1  1
  9 10  1  0
 10 11  2  0
 11 12  1  0
 13 12  1  0
 14 10  1  0
 14 13  2  0
 15 16  2  0
 15  8  1  0
 17 15  1  0
 18 17  1  0
 18 23  1  0
 18 19  1  1
 20 21  1  0
 20 19  1  0
 21 25  1  0
 22 21  2  0
 23 26  1  0
 24 23  2  0
M  END
$$$$
