SHE.pdb
     RDKit          3D

 26 26  0  0  1  0  0  0  0  0999 V2000
   13.7429  -17.6787   16.8558 O   0  0  0  0  0  0  0  0  0  0  0  0
   12.5559  -17.3787   16.2110 C   0  0  0  0  0  0  0  0  0  0  0  0
   12.3438  -15.8611   16.1184 C   0  0  2  0  0  0  0  0  0  0  0  0
   13.4301  -15.3541   15.3163 N   0  0  0  0  0  0  0  0  0  0  0  0
   12.3857  -15.3657   17.5196 C   0  0  0  0  0  0  0  0  0  0  0  0
   13.4685  -14.8920   17.9268 O   0  0  0  0  0  0  0  0  0  0  0  0
   11.2861  -15.3996   18.4046 N   0  0  0  0  0  0  0  0  0  0  0  0
   11.3588  -14.8737   19.7689 C   0  0  1  0  0  0  0  0  0  0  0  0
    9.9531  -14.8690   20.3457 C   0  0  0  0  0  0  0  0  0  0  0  0
    9.0670  -13.9017   19.6818 C   0  0  0  0  0  0  0  0  0  0  0  0
    9.4325  -13.0585   18.6550 C   0  0  0  0  0  0  0  0  0  0  0  0
    8.3610  -12.3127   18.2959 N   0  0  0  0  0  0  0  0  0  0  0  0
    7.3223  -12.6855   19.0952 C   0  0  0  0  0  0  0  0  0  0  0  0
    7.7730  -13.6539   19.9319 N   0  0  0  0  0  0  0  0  0  0  0  0
   12.2202  -15.7440   20.6200 C   0  0  0  0  0  0  0  0  0  0  0  0
   12.1938  -16.9886   20.4440 O   0  0  0  0  0  0  0  0  0  0  0  0
   13.0729  -15.2405   21.6233 N   0  0  0  0  0  0  0  0  0  0  0  0
   14.0789  -16.0629   22.3195 C   0  0  1  0  0  0  0  0  0  0  0  0
   15.3599  -15.2909   22.3152 C   0  0  0  0  0  0  0  0  0  0  0  0
   16.4929  -15.9325   23.0563 C   0  0  0  0  0  0  0  0  0  0  0  0
   17.7077  -15.0390   23.0010 C   0  0  0  0  0  0  0  0  0  0  0  0
   17.6427  -13.8370   22.6641 O   0  0  0  0  0  0  0  0  0  0  0  0
   13.5615  -16.3021   23.6764 C   0  0  0  0  0  0  0  0  0  0  0  0
   12.5943  -15.6377   24.1047 O   0  0  0  0  0  0  0  0  0  0  0  0
   18.9419  -15.5751   23.3373 O   0  0  0  0  0  0  0  0  0  0  0  0
   14.1215  -17.2550   24.5034 O   0  0  0  0  0  0  0  0  0  0  0  0
  1  2  1  0
  2  3  1  0
  3  5  1  0
  3  4  1  6
  5  6  2  0
  7  8  1  0
  7  5  1  0
  8  9  1  1
  9 10  1  0
 10 11  2  0
 11 12  1  0
 13 12  1  0
 14 10  1  0
 14 13  2  0
 15 16  2  0
 15  8  1  0
 17 15  1  0
 18 17  1  0
 18 23  1  0
 18 19  1  1
 20 21  1  0
 20 19  1  0
 21 25  1  0
 22 21  2  0
 23 26  1  0
 24 23  2  0
M  END
$$$$
