SHE.pdb
     RDKit          3D

 26 26  0  0  1  0  0  0  0  0999 V2000
   12.5466  -17.3057   17.2367 O   0  0  0  0  0  0  0  0  0  0  0  0
   11.8922  -16.4794   16.3402 C   0  0  0  0  0  0  0  0  0  0  0  0
   12.4576  -15.0529   16.3869 C   0  0  2  0  0  0  0  0  0  0  0  0
   13.7358  -15.1077   15.7208 N   0  0  0  0  0  0  0  0  0  0  0  0
   12.5772  -14.7177   17.8305 C   0  0  0  0  0  0  0  0  0  0  0  0
   13.6830  -14.9235   18.3759 O   0  0  0  0  0  0  0  0  0  0  0  0
   11.5262  -14.1871   18.6098 N   0  0  0  0  0  0  0  0  0  0  0  0
   11.6831  -13.8720   20.0308 C   0  0  1  0  0  0  0  0  0  0  0  0
   10.4334  -13.1401   20.4902 C   0  0  0  0  0  0  0  0  0  0  0  0
    9.2794  -13.3728   19.6093 C   0  0  0  0  0  0  0  0  0  0  0  0
    9.3046  -14.0922   18.4343 C   0  0  0  0  0  0  0  0  0  0  0  0
    8.0630  -14.0955   17.8941 N   0  0  0  0  0  0  0  0  0  0  0  0
    7.2571  -13.3794   18.7275 C   0  0  0  0  0  0  0  0  0  0  0  0
    8.0170  -12.9482   19.7656 N   0  0  0  0  0  0  0  0  0  0  0  0
   11.8247  -15.1221   20.8315 C   0  0  0  0  0  0  0  0  0  0  0  0
   11.3934  -16.2035   20.3568 O   0  0  0  0  0  0  0  0  0  0  0  0
   12.4231  -15.1573   22.1074 N   0  0  0  0  0  0  0  0  0  0  0  0
   12.7371  -16.4085   22.8209 C   0  0  1  0  0  0  0  0  0  0  0  0
   14.1874  -16.3585   23.1826 C   0  0  0  0  0  0  0  0  0  0  0  0
   15.1351  -16.4055   22.0232 C   0  0  0  0  0  0  0  0  0  0  0  0
   16.5566  -16.3347   22.5250 C   0  0  0  0  0  0  0  0  0  0  0  0
   17.1889  -15.2592   22.6021 O   0  0  0  0  0  0  0  0  0  0  0  0
   11.8565  -16.4536   23.9993 C   0  0  0  0  0  0  0  0  0  0  0  0
   11.8354  -17.4683   24.7277 O   0  0  0  0  0  0  0  0  0  0  0  0
   17.1822  -17.5097   22.9146 O   0  0  0  0  0  0  0  0  0  0  0  0
   11.0404  -15.3905   24.3300 O   0  0  0  0  0  0  0  0  0  0  0  0
  1  2  1  0
  2  3  1  0
  3  5  1  0
  3  4  1  1
  5  6  2  0
  7  8  1  0
  7  5  1  0
  8  9  1  1
  9 10  1  0
 10 11  2  0
 11 12  1  0
 13 12  1  0
 14 10  1  0
 14 13  2  0
 15 16  2  0
 15  8  1  0
 17 15  1  0
 18 17  1  0
 18 23  1  0
 18 19  1  1
 20 21  1  0
 20 19  1  0
 21 25  1  0
 22 21  2  0
 23 26  1  0
 24 23  2  0
M  END
$$$$
