HWL.pdb
     RDKit          3D

 33 35  0  0  1  0  0  0  0  0999 V2000
   29.1445  -21.9631  -17.7548 N   0  0  0  0  0  0  0  0  0  0  0  0
   28.6321  -22.6484  -16.5980 C   0  0  1  0  0  0  0  0  0  0  0  0
   29.7497  -23.1213  -15.6844 C   0  0  0  0  0  0  0  0  0  0  0  0
   30.5083  -24.2356  -16.2792 C   0  0  0  0  0  0  0  0  0  0  0  0
   31.8326  -24.3453  -16.5967 C   0  0  0  0  0  0  0  0  0  0  0  0
   32.0449  -25.5518  -17.1166 N   0  0  0  0  0  0  0  0  0  0  0  0
   30.8758  -26.2121  -17.1350 C   0  0  0  0  0  0  0  0  0  0  0  0
   29.9261  -25.4059  -16.6200 N   0  0  0  0  0  0  0  0  0  0  0  0
   27.7971  -21.7153  -15.8091 C   0  0  0  0  0  0  0  0  0  0  0  0
   28.2431  -20.5505  -15.5877 O   0  0  0  0  0  0  0  0  0  0  0  0
   26.5480  -22.1015  -15.3174 N   0  0  0  0  0  0  0  0  0  0  0  0
   25.7596  -21.1835  -14.5301 C   0  0  1  0  0  0  0  0  0  0  0  0
   24.4210  -20.9976  -15.1214 C   0  0  0  0  0  0  0  0  0  0  0  0
   23.4318  -20.2352  -14.4110 C   0  0  0  0  0  0  0  0  0  0  0  0
   23.4527  -18.9266  -14.0167 C   0  0  0  0  0  0  0  0  0  0  0  0
   22.2723  -18.6488  -13.3780 N   0  0  0  0  0  0  0  0  0  0  0  0
   21.5170  -19.7585  -13.3674 C   0  0  0  0  0  0  0  0  0  0  0  0
   20.2588  -20.0098  -12.8583 C   0  0  0  0  0  0  0  0  0  0  0  0
   19.6732  -21.2716  -12.9764 C   0  0  0  0  0  0  0  0  0  0  0  0
   20.3735  -22.2700  -13.6129 C   0  0  0  0  0  0  0  0  0  0  0  0
   21.6164  -21.9938  -14.1071 C   0  0  0  0  0  0  0  0  0  0  0  0
   22.2096  -20.7430  -13.9961 C   0  0  0  0  0  0  0  0  0  0  0  0
   25.7887  -21.5993  -13.1317 C   0  0  0  0  0  0  0  0  0  0  0  0
   25.7261  -22.8061  -12.8304 O   0  0  0  0  0  0  0  0  0  0  0  0
   27.1930  -19.0794   -7.7000 C   0  0  0  0  0  0  0  0  0  0  0  0
   26.9604  -20.3462   -8.4976 C   0  0  2  0  0  0  0  0  0  0  0  0
   27.7485  -21.4822   -7.9784 C   0  0  0  0  0  0  0  0  0  0  0  0
   26.8859  -20.1646   -9.9625 C   0  0  0  0  0  0  0  0  0  0  0  0
   25.8448  -20.9055  -10.6941 C   0  0  2  0  0  0  0  0  0  0  0  0
   25.8872  -20.6206  -12.1285 N   0  0  0  0  0  0  0  0  0  0  0  0
   24.4626  -20.8213  -10.2633 C   0  0  0  0  0  0  0  0  0  0  0  0
   23.7818  -19.7934  -10.6215 O   0  0  0  0  0  0  0  0  0  0  0  0
   23.7526  -21.7276   -9.4989 O   0  0  0  0  0  0  0  0  0  0  0  0
  2  1  1  6
  2  3  1  0
  3  4  1  0
  4  5  2  0
  4  8  1  0
  5  6  1  0
  6  7  1  0
  8  7  2  0
  9 10  2  0
  9  2  1  0
 11  9  1  0
 12 13  1  6
 12 11  1  0
 13 14  1  0
 14 15  2  0
 14 22  1  0
 15 16  1  0
 16 17  1  0
 17 18  2  0
 19 18  1  0
 20 19  2  0
 21 22  2  0
 21 20  1  0
 22 17  1  0
 23 12  1  0
 24 23  2  0
 26 25  1  1
 26 28  1  0
 27 26  1  0
 29 28  1  1
 29 30  1  0
 30 23  1  0
 31 33  1  0
 31 29  1  0
 32 31  2  0
M  END
$$$$
