HWL.pdb
     RDKit          3D

 33 35  0  0  1  0  0  0  0  0999 V2000
   27.0862  -23.2482  -16.3447 N   0  0  0  0  0  0  0  0  0  0  0  0
   27.2092  -21.9568  -15.7223 C   0  0  1  0  0  0  0  0  0  0  0  0
   26.6203  -20.8571  -16.5891 C   0  0  0  0  0  0  0  0  0  0  0  0
   27.4650  -20.5737  -17.7625 C   0  0  0  0  0  0  0  0  0  0  0  0
   28.7277  -20.0591  -17.8506 C   0  0  0  0  0  0  0  0  0  0  0  0
   29.0670  -19.9875  -19.1354 N   0  0  0  0  0  0  0  0  0  0  0  0
   28.0397  -20.4486  -19.8669 C   0  0  0  0  0  0  0  0  0  0  0  0
   27.0505  -20.8112  -19.0260 N   0  0  0  0  0  0  0  0  0  0  0  0
   26.4519  -21.9546  -14.4508 C   0  0  0  0  0  0  0  0  0  0  0  0
   25.4333  -22.7019  -14.3569 O   0  0  0  0  0  0  0  0  0  0  0  0
   26.8435  -21.1517  -13.3770 N   0  0  0  0  0  0  0  0  0  0  0  0
   26.1237  -21.2054  -12.1268 C   0  0  1  0  0  0  0  0  0  0  0  0
   26.9858  -20.7899  -11.0042 C   0  0  0  0  0  0  0  0  0  0  0  0
   26.4127  -20.6099   -9.6990 C   0  0  0  0  0  0  0  0  0  0  0  0
   25.1471  -20.8738   -9.2552 C   0  0  0  0  0  0  0  0  0  0  0  0
   25.0784  -20.5471   -7.9259 N   0  0  0  0  0  0  0  0  0  0  0  0
   26.2762  -20.0853   -7.5336 C   0  0  0  0  0  0  0  0  0  0  0  0
   26.7320  -19.6316   -6.3122 C   0  0  0  0  0  0  0  0  0  0  0  0
   28.0488  -19.1968   -6.1514 C   0  0  0  0  0  0  0  0  0  0  0  0
   28.8936  -19.2270   -7.2366 C   0  0  0  0  0  0  0  0  0  0  0  0
   28.4164  -19.6806   -8.4333 C   0  0  0  0  0  0  0  0  0  0  0  0
   27.1090  -20.1159   -8.6059 C   0  0  0  0  0  0  0  0  0  0  0  0
   24.8625  -20.4848  -12.2650 C   0  0  0  0  0  0  0  0  0  0  0  0
   24.1605  -20.2431  -11.2652 O   0  0  0  0  0  0  0  0  0  0  0  0
   21.7045  -16.5537  -14.5207 C   0  0  0  0  0  0  0  0  0  0  0  0
   22.1628  -17.6883  -15.4139 C   0  0  2  0  0  0  0  0  0  0  0  0
   21.0293  -18.4840  -15.9271 C   0  0  0  0  0  0  0  0  0  0  0  0
   23.3645  -18.4117  -14.9483 C   0  0  0  0  0  0  0  0  0  0  0  0
   23.2146  -19.3277  -13.8052 C   0  0  2  0  0  0  0  0  0  0  0  0
   24.4489  -20.0674  -13.5413 N   0  0  0  0  0  0  0  0  0  0  0  0
   22.1142  -20.2719  -13.7775 C   0  0  0  0  0  0  0  0  0  0  0  0
   21.0642  -19.9535  -13.1107 O   0  0  0  0  0  0  0  0  0  0  0  0
   22.0358  -21.5061  -14.3943 O   0  0  0  0  0  0  0  0  0  0  0  0
  2  1  1  6
  2  3  1  0
  3  4  1  0
  4  5  2  0
  4  8  1  0
  5  6  1  0
  6  7  1  0
  8  7  2  0
  9 10  2  0
  9  2  1  0
 11  9  1  0
 12 13  1  1
 12 11  1  0
 13 14  1  0
 14 15  2  0
 14 22  1  0
 15 16  1  0
 16 17  1  0
 17 18  2  0
 19 18  1  0
 20 19  2  0
 21 22  2  0
 21 20  1  0
 22 17  1  0
 23 12  1  0
 24 23  2  0
 26 25  1  1
 26 28  1  0
 27 26  1  0
 29 28  1  6
 29 30  1  0
 30 23  1  0
 31 33  1  0
 31 29  1  0
 32 31  2  0
M  END
$$$$
