HWL.pdb
     RDKit          3D

 33 35  0  0  1  0  0  0  0  0999 V2000
   29.4596  -22.3563  -18.2263 N   0  0  0  0  0  0  0  0  0  0  0  0
   28.8763  -23.0382  -17.1016 C   0  0  1  0  0  0  0  0  0  0  0  0
   29.9163  -23.3716  -16.0457 C   0  0  0  0  0  0  0  0  0  0  0  0
   30.8401  -24.4252  -16.5009 C   0  0  0  0  0  0  0  0  0  0  0  0
   32.2013  -24.5142  -16.4227 C   0  0  0  0  0  0  0  0  0  0  0  0
   32.5831  -25.6620  -16.9775 N   0  0  0  0  0  0  0  0  0  0  0  0
   31.4858  -26.3052  -17.4079 C   0  0  0  0  0  0  0  0  0  0  0  0
   30.4095  -25.5478  -17.1165 N   0  0  0  0  0  0  0  0  0  0  0  0
   27.8789  -22.1535  -16.4591 C   0  0  0  0  0  0  0  0  0  0  0  0
   28.1947  -20.9447  -16.2496 O   0  0  0  0  0  0  0  0  0  0  0  0
   26.6195  -22.6316  -16.0898 N   0  0  0  0  0  0  0  0  0  0  0  0
   25.6448  -21.7408  -15.5060 C   0  0  1  0  0  0  0  0  0  0  0  0
   24.4875  -21.5650  -16.4037 C   0  0  0  0  0  0  0  0  0  0  0  0
   23.3488  -20.8133  -15.9535 C   0  0  0  0  0  0  0  0  0  0  0  0
   22.1129  -21.2470  -15.5628 C   0  0  0  0  0  0  0  0  0  0  0  0
   21.3641  -20.1555  -15.2074 N   0  0  0  0  0  0  0  0  0  0  0  0
   22.1097  -19.0509  -15.3688 C   0  0  0  0  0  0  0  0  0  0  0  0
   21.8340  -17.7156  -15.1537 C   0  0  0  0  0  0  0  0  0  0  0  0
   22.7954  -16.7334  -15.3986 C   0  0  0  0  0  0  0  0  0  0  0  0
   24.0325  -17.1180  -15.8613 C   0  0  0  0  0  0  0  0  0  0  0  0
   24.2783  -18.4459  -16.0654 C   0  0  0  0  0  0  0  0  0  0  0  0
   23.3306  -19.4323  -15.8254 C   0  0  0  0  0  0  0  0  0  0  0  0
   25.3400  -22.1821  -14.1490 C   0  0  0  0  0  0  0  0  0  0  0  0
   25.2017  -23.3934  -13.8950 O   0  0  0  0  0  0  0  0  0  0  0  0
   28.2850  -20.1776  -11.3584 C   0  0  0  0  0  0  0  0  0  0  0  0
   26.8504  -20.1441  -10.8723 C   0  0  2  0  0  0  0  0  0  0  0  0
   26.6892  -19.2946   -9.6750 C   0  0  0  0  0  0  0  0  0  0  0  0
   26.1434  -21.4416  -10.9034 C   0  0  0  0  0  0  0  0  0  0  0  0
   24.9295  -21.5424  -11.7306 C   0  0  2  0  0  0  0  0  0  0  0  0
   25.2034  -21.2227  -13.1317 N   0  0  0  0  0  0  0  0  0  0  0  0
   23.7282  -20.8313  -11.3375 C   0  0  0  0  0  0  0  0  0  0  0  0
   23.2271  -19.9904  -12.1684 O   0  0  0  0  0  0  0  0  0  0  0  0
   23.0227  -20.9413  -10.1543 O   0  0  0  0  0  0  0  0  0  0  0  0
  2  1  1  6
  2  3  1  0
  3  4  1  0
  4  5  2  0
  4  8  1  0
  5  6  1  0
  6  7  1  0
  8  7  2  0
  9 10  2  0
  9  2  1  0
 11  9  1  0
 12 13  1  6
 12 11  1  0
 13 14  1  0
 14 15  2  0
 14 22  1  0
 15 16  1  0
 16 17  1  0
 17 18  2  0
 19 18  1  0
 20 19  2  0
 21 22  2  0
 21 20  1  0
 22 17  1  0
 23 12  1  0
 24 23  2  0
 26 25  1  1
 26 28  1  0
 27 26  1  0
 29 28  1  1
 29 30  1  0
 30 23  1  0
 31 33  1  0
 31 29  1  0
 32 31  2  0
M  END
$$$$
