HWL.pdb
     RDKit          3D

 33 35  0  0  1  0  0  0  0  0999 V2000
   29.0565  -22.1023  -15.9213 N   0  0  0  0  0  0  0  0  0  0  0  0
   27.9974  -21.1303  -15.9835 C   0  0  1  0  0  0  0  0  0  0  0  0
   27.2134  -21.2359  -17.2803 C   0  0  0  0  0  0  0  0  0  0  0  0
   28.0739  -21.0295  -18.4583 C   0  0  0  0  0  0  0  0  0  0  0  0
   28.1300  -21.6943  -19.6507 C   0  0  0  0  0  0  0  0  0  0  0  0
   29.0775  -21.1379  -20.4015 N   0  0  0  0  0  0  0  0  0  0  0  0
   29.6256  -20.1288  -19.7054 C   0  0  0  0  0  0  0  0  0  0  0  0
   29.0107  -20.0576  -18.5079 N   0  0  0  0  0  0  0  0  0  0  0  0
   27.0416  -21.3800  -14.8813 C   0  0  0  0  0  0  0  0  0  0  0  0
   25.8139  -21.5044  -15.1675 O   0  0  0  0  0  0  0  0  0  0  0  0
   27.4744  -21.4770  -13.5568 N   0  0  0  0  0  0  0  0  0  0  0  0
   26.5208  -21.6801  -12.4921 C   0  0  1  0  0  0  0  0  0  0  0  0
   27.2027  -21.7946  -11.1890 C   0  0  0  0  0  0  0  0  0  0  0  0
   26.6162  -21.1875  -10.0262 C   0  0  0  0  0  0  0  0  0  0  0  0
   25.3163  -20.8441   -9.7799 C   0  0  0  0  0  0  0  0  0  0  0  0
   25.2430  -20.3033   -8.5227 N   0  0  0  0  0  0  0  0  0  0  0  0
   26.4714  -20.3036   -7.9815 C   0  0  0  0  0  0  0  0  0  0  0  0
   26.9356  -19.8769   -6.7536 C   0  0  0  0  0  0  0  0  0  0  0  0
   28.2858  -19.9874   -6.4163 C   0  0  0  0  0  0  0  0  0  0  0  0
   29.1551  -20.5324   -7.3325 C   0  0  0  0  0  0  0  0  0  0  0  0
   28.6689  -20.9464   -8.5399 C   0  0  0  0  0  0  0  0  0  0  0  0
   27.3283  -20.8420   -8.8871 C   0  0  0  0  0  0  0  0  0  0  0  0
   25.4762  -20.6652  -12.5800 C   0  0  0  0  0  0  0  0  0  0  0  0
   25.7695  -19.4743  -12.7965 O   0  0  0  0  0  0  0  0  0  0  0  0
   21.6848  -17.8800  -14.2879 C   0  0  0  0  0  0  0  0  0  0  0  0
   22.1166  -19.1421  -15.0062 C   0  0  2  0  0  0  0  0  0  0  0  0
   20.9672  -19.8905  -15.5538 C   0  0  0  0  0  0  0  0  0  0  0  0
   23.1921  -19.9088  -14.3430 C   0  0  0  0  0  0  0  0  0  0  0  0
   22.9940  -20.2923  -12.9352 C   0  0  2  0  0  0  0  0  0  0  0  0
   24.1343  -21.0480  -12.4165 N   0  0  0  0  0  0  0  0  0  0  0  0
   21.7829  -20.9855  -12.5404 C   0  0  0  0  0  0  0  0  0  0  0  0
   20.7840  -20.2786  -12.1517 O   0  0  0  0  0  0  0  0  0  0  0  0
   21.5466  -22.3470  -12.5290 O   0  0  0  0  0  0  0  0  0  0  0  0
  2  1  1  6
  2  3  1  0
  3  4  1  0
  4  5  2  0
  4  8  1  0
  5  6  1  0
  6  7  1  0
  8  7  2  0
  9 10  2  0
  9  2  1  0
 11  9  1  0
 12 13  1  1
 12 11  1  0
 13 14  1  0
 14 15  2  0
 14 22  1  0
 15 16  1  0
 16 17  1  0
 17 18  2  0
 19 18  1  0
 20 19  2  0
 21 22  2  0
 21 20  1  0
 22 17  1  0
 23 12  1  0
 24 23  2  0
 26 25  1  1
 26 28  1  0
 27 26  1  0
 29 28  1  6
 29 30  1  0
 30 23  1  0
 31 33  1  0
 31 29  1  0
 32 31  2  0
M  END
$$$$
