FGT.pdb
     RDKit          3D

 23 23  0  0  1  0  0  0  0  0999 V2000
   19.2733  -10.0427  -15.7785 N   0  0  0  0  0  0  0  0  0  0  0  0
   18.1425   -9.6375  -14.9991 C   0  0  1  0  0  0  0  0  0  0  0  0
   17.4403  -10.9239  -14.5428 C   0  0  0  0  0  0  0  0  0  0  0  0
   16.9269  -11.6740  -15.7033 C   0  0  0  0  0  0  0  0  0  0  0  0
   15.9130  -11.1227  -16.4559 C   0  0  0  0  0  0  0  0  0  0  0  0
   15.4204  -11.8203  -17.5524 C   0  0  0  0  0  0  0  0  0  0  0  0
   15.9350  -13.0617  -17.8983 C   0  0  0  0  0  0  0  0  0  0  0  0
   16.9628  -13.5965  -17.1172 C   0  0  0  0  0  0  0  0  0  0  0  0
   17.4560  -12.9075  -16.0265 C   0  0  0  0  0  0  0  0  0  0  0  0
   18.5179   -8.9177  -13.7625 C   0  0  0  0  0  0  0  0  0  0  0  0
   19.7175   -8.9376  -13.4026 O   0  0  0  0  0  0  0  0  0  0  0  0
   17.5133   -8.2359  -13.0341 N   0  0  0  0  0  0  0  0  0  0  0  0
   17.8425   -7.4445  -11.8370 C   0  0  0  0  0  0  0  0  0  0  0  0
   16.5888   -6.8420  -11.3299 C   0  0  0  0  0  0  0  0  0  0  0  0
   15.5357   -6.8311  -12.0205 O   0  0  0  0  0  0  0  0  0  0  0  0
   14.4483   -7.8752   -8.7635 C   0  0  0  0  0  0  0  0  0  0  0  0
   14.9021   -6.4917   -8.3579 C   0  0  1  0  0  0  0  0  0  0  0  0
   15.9535   -6.6492   -7.4570 O   0  0  0  0  0  0  0  0  0  0  0  0
   15.3263   -5.6650   -9.5552 C   0  0  2  0  0  0  0  0  0  0  0  0
   16.5471   -6.2635  -10.0539 N   0  0  0  0  0  0  0  0  0  0  0  0
   15.4828   -4.2447   -9.2319 C   0  0  0  0  0  0  0  0  0  0  0  0
   14.5002   -3.5084   -8.9707 O   0  0  0  0  0  0  0  0  0  0  0  0
   16.7411   -3.6673   -9.2055 O   0  0  0  0  0  0  0  0  0  0  0  0
  2  1  1  1
  2 10  1  0
  3  2  1  0
  4  5  2  0
  4  3  1  0
  6  5  1  0
  7  6  2  0
  8  7  1  0
  8  9  2  0
  9  4  1  0
 10 11  2  0
 10 12  1  0
 12 13  1  0
 13 14  1  0
 14 15  2  0
 17 16  1  6
 18 17  1  0
 19 17  1  0
 20 14  1  0
 19 20  1  1
 21 23  1  0
 21 19  1  0
 22 21  2  0
M  END
$$$$
