FGT.pdb
     RDKit          3D

 23 23  0  0  1  0  0  0  0  0999 V2000
   25.7711  -20.6172   -7.1609 N   0  0  0  0  0  0  0  0  0  0  0  0
   26.6972  -20.0580   -8.0991 C   0  0  1  0  0  0  0  0  0  0  0  0
   28.0955  -20.5153   -7.6612 C   0  0  0  0  0  0  0  0  0  0  0  0
   28.4255  -19.9730   -6.3308 C   0  0  0  0  0  0  0  0  0  0  0  0
   28.4295  -18.6069   -6.1517 C   0  0  0  0  0  0  0  0  0  0  0  0
   28.7392  -18.0834   -4.9020 C   0  0  0  0  0  0  0  0  0  0  0  0
   29.0436  -18.9165   -3.8349 C   0  0  0  0  0  0  0  0  0  0  0  0
   29.0318  -20.2978   -4.0454 C   0  0  0  0  0  0  0  0  0  0  0  0
   28.7248  -20.8233   -5.2852 C   0  0  0  0  0  0  0  0  0  0  0  0
   26.5124  -20.5721   -9.4737 C   0  0  0  0  0  0  0  0  0  0  0  0
   27.4593  -21.1924  -10.0101 O   0  0  0  0  0  0  0  0  0  0  0  0
   25.2784  -20.3459  -10.1302 N   0  0  0  0  0  0  0  0  0  0  0  0
   25.0918  -20.6993  -11.5473 C   0  0  0  0  0  0  0  0  0  0  0  0
   23.6926  -20.3841  -11.9151 C   0  0  0  0  0  0  0  0  0  0  0  0
   22.8821  -19.9065  -11.0780 O   0  0  0  0  0  0  0  0  0  0  0  0
   22.7420  -18.6433  -15.3145 C   0  0  0  0  0  0  0  0  0  0  0  0
   21.9340  -19.8975  -15.0716 C   0  0  1  0  0  0  0  0  0  0  0  0
   22.5185  -20.9171  -15.8203 O   0  0  0  0  0  0  0  0  0  0  0  0
   21.8837  -20.2583  -13.6005 C   0  0  2  0  0  0  0  0  0  0  0  0
   23.2349  -20.6138  -13.2198 N   0  0  0  0  0  0  0  0  0  0  0  0
   20.9164  -21.3208  -13.3141 C   0  0  0  0  0  0  0  0  0  0  0  0
   21.2520  -22.5287  -13.2519 O   0  0  0  0  0  0  0  0  0  0  0  0
   19.5830  -21.0144  -13.1006 O   0  0  0  0  0  0  0  0  0  0  0  0
  2  1  1  1
  2 10  1  0
  3  2  1  0
  4  5  2  0
  4  3  1  0
  6  5  1  0
  7  6  2  0
  8  7  1  0
  8  9  2  0
  9  4  1  0
 10 11  2  0
 10 12  1  0
 12 13  1  0
 13 14  1  0
 14 15  2  0
 17 16  1  1
 18 17  1  0
 19 17  1  0
 20 14  1  0
 19 20  1  6
 21 23  1  0
 21 19  1  0
 22 21  2  0
M  END
$$$$
