FGT.pdb
     RDKit          3D

 23 23  0  0  1  0  0  0  0  0999 V2000
   24.5151  -10.6624  -15.4642 N   0  0  0  0  0  0  0  0  0  0  0  0
   23.3459  -10.1324  -16.0989 C   0  0  1  0  0  0  0  0  0  0  0  0
   22.3983  -11.3170  -16.3326 C   0  0  0  0  0  0  0  0  0  0  0  0
   22.9903  -12.2748  -17.2840 C   0  0  0  0  0  0  0  0  0  0  0  0
   23.0754  -11.9248  -18.6139 C   0  0  0  0  0  0  0  0  0  0  0  0
   23.6315  -12.8194  -19.5207 C   0  0  0  0  0  0  0  0  0  0  0  0
   24.1009  -14.0573  -19.1053 C   0  0  0  0  0  0  0  0  0  0  0  0
   24.0018  -14.3856  -17.7507 C   0  0  0  0  0  0  0  0  0  0  0  0
   23.4501  -13.5004  -16.8454 C   0  0  0  0  0  0  0  0  0  0  0  0
   22.6038   -9.1793  -15.2451 C   0  0  0  0  0  0  0  0  0  0  0  0
   22.7565   -9.2480  -14.0037 O   0  0  0  0  0  0  0  0  0  0  0  0
   21.7522   -8.2289  -15.8584 N   0  0  0  0  0  0  0  0  0  0  0  0
   21.0662   -7.1950  -15.0656 C   0  0  0  0  0  0  0  0  0  0  0  0
   20.3641   -6.2914  -16.0052 C   0  0  0  0  0  0  0  0  0  0  0  0
   20.5009   -6.4010  -17.2523 O   0  0  0  0  0  0  0  0  0  0  0  0
   16.7911   -5.9947  -16.2769 C   0  0  0  0  0  0  0  0  0  0  0  0
   17.3074   -4.5956  -16.0307 C   0  0  1  0  0  0  0  0  0  0  0  0
   17.1309   -4.3226  -14.6756 O   0  0  0  0  0  0  0  0  0  0  0  0
   18.7616   -4.4535  -16.4329 C   0  0  2  0  0  0  0  0  0  0  0  0
   19.5217   -5.2818  -15.5199 N   0  0  0  0  0  0  0  0  0  0  0  0
   19.2103   -3.0588  -16.4397 C   0  0  0  0  0  0  0  0  0  0  0  0
   19.9205   -2.5827  -15.5207 O   0  0  0  0  0  0  0  0  0  0  0  0
   18.8563   -2.2148  -17.4787 O   0  0  0  0  0  0  0  0  0  0  0  0
  2  1  1  1
  2 10  1  0
  3  2  1  0
  4  5  2  0
  4  3  1  0
  6  5  1  0
  7  6  2  0
  8  7  1  0
  8  9  2  0
  9  4  1  0
 10 11  2  0
 10 12  1  0
 12 13  1  0
 13 14  1  0
 14 15  2  0
 17 16  1  1
 18 17  1  0
 19 17  1  0
 20 14  1  0
 19 20  1  1
 21 23  1  0
 21 19  1  0
 22 21  2  0
M  END
$$$$
