FGT.pdb
     RDKit          3D

 23 23  0  0  1  0  0  0  0  0999 V2000
   24.6079  -17.0258  -18.8715 N   0  0  0  0  0  0  0  0  0  0  0  0
   24.7592  -15.9430  -17.9466 C   0  0  1  0  0  0  0  0  0  0  0  0
   23.3870  -15.2635  -17.8382 C   0  0  0  0  0  0  0  0  0  0  0  0
   23.0393  -14.5923  -19.1038 C   0  0  0  0  0  0  0  0  0  0  0  0
   23.6626  -13.4049  -19.4200 C   0  0  0  0  0  0  0  0  0  0  0  0
   23.3432  -12.7625  -20.6104 C   0  0  0  0  0  0  0  0  0  0  0  0
   22.4071  -13.2998  -21.4824 C   0  0  0  0  0  0  0  0  0  0  0  0
   21.7908  -14.5052  -21.1360 C   0  0  0  0  0  0  0  0  0  0  0  0
   22.1045  -15.1477  -19.9544 C   0  0  0  0  0  0  0  0  0  0  0  0
   25.1008  -16.3914  -16.5791 C   0  0  0  0  0  0  0  0  0  0  0  0
   25.2177  -15.5267  -15.6804 O   0  0  0  0  0  0  0  0  0  0  0  0
   25.2824  -17.7745  -16.3364 N   0  0  0  0  0  0  0  0  0  0  0  0
   25.4296  -18.2963  -14.9674 C   0  0  0  0  0  0  0  0  0  0  0  0
   24.5789  -19.5020  -14.8454 C   0  0  0  0  0  0  0  0  0  0  0  0
   23.8073  -19.8616  -15.7734 O   0  0  0  0  0  0  0  0  0  0  0  0
   25.9957  -22.7600  -13.6104 C   0  0  0  0  0  0  0  0  0  0  0  0
   24.7060  -22.5061  -12.8642 C   0  0  1  0  0  0  0  0  0  0  0  0
   25.0474  -22.0655  -11.5870 O   0  0  0  0  0  0  0  0  0  0  0  0
   23.8331  -21.4932  -13.5776 C   0  0  2  0  0  0  0  0  0  0  0  0
   24.6150  -20.2785  -13.6791 N   0  0  0  0  0  0  0  0  0  0  0  0
   22.5479  -21.2851  -12.9058 C   0  0  0  0  0  0  0  0  0  0  0  0
   22.3033  -20.2487  -12.2411 O   0  0  0  0  0  0  0  0  0  0  0  0
   21.5518  -22.2435  -12.9881 O   0  0  0  0  0  0  0  0  0  0  0  0
  2  1  1  6
  2 10  1  0
  3  2  1  0
  4  5  2  0
  4  3  1  0
  6  5  1  0
  7  6  2  0
  8  7  1  0
  8  9  2  0
  9  4  1  0
 10 11  2  0
 10 12  1  0
 12 13  1  0
 13 14  1  0
 14 15  2  0
 17 16  1  6
 18 17  1  0
 19 17  1  0
 20 14  1  0
 19 20  1  1
 21 23  1  0
 21 19  1  0
 22 21  2  0
M  END
$$$$
