FGT.pdb
     RDKit          3D

 23 23  0  0  1  0  0  0  0  0999 V2000
   27.9733  -22.5729  -11.4670 N   0  0  0  0  0  0  0  0  0  0  0  0
   27.6727  -21.3081  -10.8667 C   0  0  1  0  0  0  0  0  0  0  0  0
   28.9515  -20.4640  -10.9580 C   0  0  0  0  0  0  0  0  0  0  0  0
   30.0476  -21.1002  -10.2051 C   0  0  0  0  0  0  0  0  0  0  0  0
   30.0518  -21.0071   -8.8304 C   0  0  0  0  0  0  0  0  0  0  0  0
   31.0800  -21.6026   -8.1094 C   0  0  0  0  0  0  0  0  0  0  0  0
   32.0998  -22.2880   -8.7541 C   0  0  0  0  0  0  0  0  0  0  0  0
   32.0699  -22.3664  -10.1490 C   0  0  0  0  0  0  0  0  0  0  0  0
   31.0506  -21.7764  -10.8703 C   0  0  0  0  0  0  0  0  0  0  0  0
   26.6323  -20.5518  -11.5971 C   0  0  0  0  0  0  0  0  0  0  0  0
   26.3142  -19.4163  -11.1746 O   0  0  0  0  0  0  0  0  0  0  0  0
   26.0366  -21.1353  -12.7414 N   0  0  0  0  0  0  0  0  0  0  0  0
   25.0102  -20.4190  -13.5168 C   0  0  0  0  0  0  0  0  0  0  0  0
   23.7132  -21.0967  -13.2914 C   0  0  0  0  0  0  0  0  0  0  0  0
   23.6163  -22.3524  -13.2912 O   0  0  0  0  0  0  0  0  0  0  0  0
   21.6823  -21.0899  -10.4170 C   0  0  0  0  0  0  0  0  0  0  0  0
   20.7732  -20.5917  -11.5171 C   0  0  1  0  0  0  0  0  0  0  0  0
   20.7041  -19.2049  -11.3996 O   0  0  0  0  0  0  0  0  0  0  0  0
   21.2725  -21.0007  -12.8883 C   0  0  2  0  0  0  0  0  0  0  0  0
   22.5509  -20.3452  -13.0707 N   0  0  0  0  0  0  0  0  0  0  0  0
   20.3169  -20.6848  -13.9529 C   0  0  0  0  0  0  0  0  0  0  0  0
   20.5258  -19.7695  -14.7861 O   0  0  0  0  0  0  0  0  0  0  0  0
   19.1374  -21.4007  -14.0697 O   0  0  0  0  0  0  0  0  0  0  0  0
  2  1  1  6
  2 10  1  0
  3  2  1  0
  4  5  2  0
  4  3  1  0
  6  5  1  0
  7  6  2  0
  8  7  1  0
  8  9  2  0
  9  4  1  0
 10 11  2  0
 10 12  1  0
 12 13  1  0
 13 14  1  0
 14 15  2  0
 17 16  1  1
 18 17  1  0
 19 17  1  0
 20 14  1  0
 19 20  1  6
 21 23  1  0
 21 19  1  0
 22 21  2  0
M  END
$$$$
