EWY.pdb
     RDKit          3D

 36 38  0  0  1  0  0  0  0  0999 V2000
   10.5662  -16.8839   19.9774 N   0  0  0  0  0  0  0  0  0  0  0  0
   10.8265  -17.6149   21.1917 C   0  0  1  0  0  0  0  0  0  0  0  0
   12.3277  -17.8406   21.2703 C   0  0  0  0  0  0  0  0  0  0  0  0
   12.6824  -18.9753   20.3595 C   0  0  0  0  0  0  0  0  0  0  0  0
   13.6257  -19.8994   21.0113 C   0  0  0  0  0  0  0  0  0  0  0  0
   13.9818  -19.7271   22.1860 O   0  0  0  0  0  0  0  0  0  0  0  0
   10.4468  -16.7578   22.3477 C   0  0  0  0  0  0  0  0  0  0  0  0
   10.9555  -15.5866   22.4543 O   0  0  0  0  0  0  0  0  0  0  0  0
   14.1338  -20.9923   20.3040 O   0  0  0  0  0  0  0  0  0  0  0  0
    9.5349  -17.2600   23.2985 N   0  0  0  0  0  0  0  0  0  0  0  0
    9.1807  -16.3835   24.4317 C   0  0  1  0  0  0  0  0  0  0  0  0
    7.6807  -16.3134   24.4400 C   0  0  0  0  0  0  0  0  0  0  0  0
    7.2357  -14.9220   24.2477 C   0  0  0  0  0  0  0  0  0  0  0  0
    6.8878  -14.3155   23.0616 C   0  0  0  0  0  0  0  0  0  0  0  0
    6.5621  -13.0468   23.3462 N   0  0  0  0  0  0  0  0  0  0  0  0
    6.6820  -12.8046   24.6521 C   0  0  0  0  0  0  0  0  0  0  0  0
    6.4617  -11.6604   25.4225 C   0  0  0  0  0  0  0  0  0  0  0  0
    6.6833  -11.7460   26.7827 C   0  0  0  0  0  0  0  0  0  0  0  0
    7.1073  -12.9163   27.3678 C   0  0  0  0  0  0  0  0  0  0  0  0
    7.3241  -14.0365   26.6199 C   0  0  0  0  0  0  0  0  0  0  0  0
    7.1031  -13.9671   25.2342 C   0  0  0  0  0  0  0  0  0  0  0  0
    9.8326  -16.9231   25.6014 C   0  0  0  0  0  0  0  0  0  0  0  0
    9.9327  -18.1991   25.6960 O   0  0  0  0  0  0  0  0  0  0  0  0
   16.0074  -16.9907   23.7259 O   0  0  0  0  0  0  0  0  0  0  0  0
   15.0966  -16.6849   24.7170 C   0  0  0  0  0  0  0  0  0  0  0  0
   15.0482  -17.5539   25.8072 C   0  0  0  0  0  0  0  0  0  0  0  0
   14.1521  -17.2724   26.8067 C   0  0  0  0  0  0  0  0  0  0  0  0
   13.3158  -16.1639   26.7489 C   0  0  0  0  0  0  0  0  0  0  0  0
   12.3772  -15.9223   27.8460 C   0  0  0  0  0  0  0  0  0  0  0  0
   11.0916  -16.7384   27.7138 C   0  0  2  0  0  0  0  0  0  0  0  0
   10.3626  -16.1315   26.6322 N   0  0  0  0  0  0  0  0  0  0  0  0
   10.3584  -16.8296   28.9720 C   0  0  0  0  0  0  0  0  0  0  0  0
    9.0619  -16.3550   29.0903 O   0  0  0  0  0  0  0  0  0  0  0  0
   13.3901  -15.3269   25.6579 C   0  0  0  0  0  0  0  0  0  0  0  0
   14.2863  -15.5923   24.6392 C   0  0  0  0  0  0  0  0  0  0  0  0
   10.8523  -17.3369   30.0125 O   0  0  0  0  0  0  0  0  0  0  0  0
  2  1  1  6
  3  2  1  0
  4  3  1  0
  5  9  1  0
  5  4  1  0
  6  5  2  0
  7  8  2  0
  7  2  1  0
 10  7  1  0
 11 10  1  0
 11 12  1  1
 13 12  1  0
 13 14  2  0
 15 14  1  0
 16 15  1  0
 17 16  2  0
 18 17  1  0
 19 18  2  0
 19 20  1  0
 20 21  2  0
 21 16  1  0
 21 13  1  0
 22 11  1  0
 23 22  2  0
 24 25  1  0
 25 35  2  0
 26 25  1  0
 26 27  2  0
 27 28  1  0
 28 34  2  0
 28 29  1  0
 30 29  1  1
 30 31  1  0
 31 22  1  0
 32 30  1  0
 33 32  1  0
 35 34  1  0
 36 32  2  0
M  END
$$$$
