EWY.pdb
     RDKit          3D

 36 38  0  0  1  0  0  0  0  0999 V2000
    9.0061  -17.9531   19.5390 N   0  0  0  0  0  0  0  0  0  0  0  0
   10.3255  -17.3893   19.6735 C   0  0  1  0  0  0  0  0  0  0  0  0
   10.4664  -16.3107   18.6116 C   0  0  0  0  0  0  0  0  0  0  0  0
   10.1465  -16.9157   17.2795 C   0  0  0  0  0  0  0  0  0  0  0  0
   11.3766  -17.2107   16.5255 C   0  0  0  0  0  0  0  0  0  0  0  0
   12.4934  -16.9492   16.9953 O   0  0  0  0  0  0  0  0  0  0  0  0
   10.4183  -16.7197   20.9994 C   0  0  0  0  0  0  0  0  0  0  0  0
   11.4183  -15.9585   21.2493 O   0  0  0  0  0  0  0  0  0  0  0  0
   11.2959  -17.7959   15.2590 O   0  0  0  0  0  0  0  0  0  0  0  0
    9.4001  -16.9426   21.9488 N   0  0  0  0  0  0  0  0  0  0  0  0
    9.5727  -16.3429   23.2861 C   0  0  1  0  0  0  0  0  0  0  0  0
    8.2121  -16.3636   23.9212 C   0  0  0  0  0  0  0  0  0  0  0  0
    7.5032  -15.1016   23.6459 C   0  0  0  0  0  0  0  0  0  0  0  0
    6.9266  -14.7126   22.4577 C   0  0  0  0  0  0  0  0  0  0  0  0
    6.4074  -13.4920   22.6503 N   0  0  0  0  0  0  0  0  0  0  0  0
    6.6193  -13.0747   23.8991 C   0  0  0  0  0  0  0  0  0  0  0  0
    6.2775  -11.8986   24.5705 C   0  0  0  0  0  0  0  0  0  0  0  0
    6.6543  -11.7781   25.8935 C   0  0  0  0  0  0  0  0  0  0  0  0
    7.3442  -12.7793   26.5365 C   0  0  0  0  0  0  0  0  0  0  0  0
    7.6806  -13.9299   25.8852 C   0  0  0  0  0  0  0  0  0  0  0  0
    7.3046  -14.0692   24.5388 C   0  0  0  0  0  0  0  0  0  0  0  0
   10.6296  -17.0750   23.9428 C   0  0  0  0  0  0  0  0  0  0  0  0
   10.5479  -18.3556   23.9632 O   0  0  0  0  0  0  0  0  0  0  0  0
   10.8656  -15.6013   32.1534 O   0  0  0  0  0  0  0  0  0  0  0  0
   10.8591  -15.5697   30.7734 C   0  0  0  0  0  0  0  0  0  0  0  0
   10.4745  -16.7439   30.1260 C   0  0  0  0  0  0  0  0  0  0  0  0
   10.4586  -16.7391   28.7545 C   0  0  0  0  0  0  0  0  0  0  0  0
   10.8106  -15.6113   28.0226 C   0  0  0  0  0  0  0  0  0  0  0  0
   10.7783  -15.6729   26.5604 C   0  0  0  0  0  0  0  0  0  0  0  0
   11.9061  -16.5260   25.9802 C   0  0  2  0  0  0  0  0  0  0  0  0
   11.7367  -16.4647   24.5529 N   0  0  0  0  0  0  0  0  0  0  0  0
   11.9274  -17.8742   26.5376 C   0  0  0  0  0  0  0  0  0  0  0  0
   10.8429  -18.7273   26.4103 O   0  0  0  0  0  0  0  0  0  0  0  0
   11.1853  -14.4689   28.6941 C   0  0  0  0  0  0  0  0  0  0  0  0
   11.2083  -14.4523   30.0763 C   0  0  0  0  0  0  0  0  0  0  0  0
   12.9180  -18.3379   27.1603 O   0  0  0  0  0  0  0  0  0  0  0  0
  2  1  1  1
  3  2  1  0
  4  3  1  0
  5  9  1  0
  5  4  1  0
  6  5  2  0
  7  8  2  0
  7  2  1  0
 10  7  1  0
 11 10  1  0
 11 12  1  1
 13 12  1  0
 13 14  2  0
 15 14  1  0
 16 15  1  0
 17 16  2  0
 18 17  1  0
 19 18  2  0
 19 20  1  0
 20 21  2  0
 21 16  1  0
 21 13  1  0
 22 11  1  0
 23 22  2  0
 24 25  1  0
 25 35  2  0
 26 25  1  0
 26 27  2  0
 27 28  1  0
 28 34  2  0
 28 29  1  0
 30 29  1  1
 30 31  1  0
 31 22  1  0
 32 30  1  0
 33 32  1  0
 35 34  1  0
 36 32  2  0
M  END
$$$$
