EWY.pdb
     RDKit          3D

 36 38  0  0  1  0  0  0  0  0999 V2000
    9.5115  -15.5070   17.7158 N   0  0  0  0  0  0  0  0  0  0  0  0
    9.6080  -16.5675   18.6867 C   0  0  1  0  0  0  0  0  0  0  0  0
   10.9871  -17.1900   18.5404 C   0  0  0  0  0  0  0  0  0  0  0  0
   11.0789  -17.8198   17.1848 C   0  0  0  0  0  0  0  0  0  0  0  0
   12.3698  -17.5115   16.5467 C   0  0  0  0  0  0  0  0  0  0  0  0
   13.2302  -16.8404   17.1346 O   0  0  0  0  0  0  0  0  0  0  0  0
    9.5351  -15.9684   20.0471 C   0  0  0  0  0  0  0  0  0  0  0  0
   10.1386  -14.8621   20.2788 O   0  0  0  0  0  0  0  0  0  0  0  0
   12.6408  -17.9787   15.2577 O   0  0  0  0  0  0  0  0  0  0  0  0
    8.8018  -16.6373   21.0485 N   0  0  0  0  0  0  0  0  0  0  0  0
    8.6814  -15.9749   22.3617 C   0  0  1  0  0  0  0  0  0  0  0  0
    7.2112  -15.9343   22.6649 C   0  0  0  0  0  0  0  0  0  0  0  0
    6.9893  -15.4639   24.0436 C   0  0  0  0  0  0  0  0  0  0  0  0
    6.5747  -16.2126   25.1221 C   0  0  0  0  0  0  0  0  0  0  0  0
    6.4917  -15.3830   26.1716 N   0  0  0  0  0  0  0  0  0  0  0  0
    6.8308  -14.1404   25.8259 C   0  0  0  0  0  0  0  0  0  0  0  0
    6.9028  -12.9475   26.5489 C   0  0  0  0  0  0  0  0  0  0  0  0
    7.3004  -11.8087   25.8767 C   0  0  0  0  0  0  0  0  0  0  0  0
    7.6169  -11.8397   24.5386 C   0  0  0  0  0  0  0  0  0  0  0  0
    7.5481  -13.0021   23.8279 C   0  0  0  0  0  0  0  0  0  0  0  0
    7.1457  -14.1704   24.4964 C   0  0  0  0  0  0  0  0  0  0  0  0
    9.5344  -16.6957   23.2767 C   0  0  0  0  0  0  0  0  0  0  0  0
    9.1170  -17.8250   23.7211 O   0  0  0  0  0  0  0  0  0  0  0  0
   10.5301  -15.3449   31.3629 O   0  0  0  0  0  0  0  0  0  0  0  0
   10.3817  -15.4344   29.9935 C   0  0  0  0  0  0  0  0  0  0  0  0
   10.6518  -14.2780   29.2615 C   0  0  0  0  0  0  0  0  0  0  0  0
   10.5128  -14.3401   27.8984 C   0  0  0  0  0  0  0  0  0  0  0  0
   10.1178  -15.5073   27.2556 C   0  0  0  0  0  0  0  0  0  0  0  0
    9.9828  -15.5064   25.7979 C   0  0  0  0  0  0  0  0  0  0  0  0
   11.1313  -16.2326   25.0980 C   0  0  2  0  0  0  0  0  0  0  0  0
   10.7895  -16.2317   23.7006 N   0  0  0  0  0  0  0  0  0  0  0  0
   11.3839  -17.5524   25.6664 C   0  0  0  0  0  0  0  0  0  0  0  0
   12.4277  -17.7718   26.5511 O   0  0  0  0  0  0  0  0  0  0  0  0
    9.8593  -16.6306   28.0091 C   0  0  0  0  0  0  0  0  0  0  0  0
    9.9931  -16.5896   29.3845 C   0  0  0  0  0  0  0  0  0  0  0  0
   10.6797  -18.5585   25.3910 O   0  0  0  0  0  0  0  0  0  0  0  0
  2  1  1  6
  3  2  1  0
  4  3  1  0
  5  9  1  0
  5  4  1  0
  6  5  2  0
  7  8  2  0
  7  2  1  0
 10  7  1  0
 11 10  1  0
 11 12  1  1
 13 12  1  0
 13 14  2  0
 15 14  1  0
 16 15  1  0
 17 16  2  0
 18 17  1  0
 19 18  2  0
 19 20  1  0
 20 21  2  0
 21 16  1  0
 21 13  1  0
 22 11  1  0
 23 22  2  0
 24 25  1  0
 25 35  2  0
 26 25  1  0
 26 27  2  0
 27 28  1  0
 28 34  2  0
 28 29  1  0
 30 29  1  1
 30 31  1  0
 31 22  1  0
 32 30  1  0
 33 32  1  0
 35 34  1  0
 36 32  2  0
M  END
$$$$
