EWY.pdb
     RDKit          3D

 36 38  0  0  1  0  0  0  0  0999 V2000
    9.0984  -17.2411   20.7581 N   0  0  0  0  0  0  0  0  0  0  0  0
    9.7115  -18.0225   21.8022 C   0  0  1  0  0  0  0  0  0  0  0  0
   11.2030  -18.0721   21.5129 C   0  0  0  0  0  0  0  0  0  0  0  0
   11.4683  -19.2294   20.6002 C   0  0  0  0  0  0  0  0  0  0  0  0
   12.6480  -18.9755   19.7561 C   0  0  0  0  0  0  0  0  0  0  0  0
   13.3645  -17.9811   19.9402 O   0  0  0  0  0  0  0  0  0  0  0  0
    9.5349  -17.3039   23.0935 C   0  0  0  0  0  0  0  0  0  0  0  0
   10.1253  -16.1808   23.2725 O   0  0  0  0  0  0  0  0  0  0  0  0
   12.9753  -19.8639   18.7282 O   0  0  0  0  0  0  0  0  0  0  0  0
    8.7205  -17.8809   24.0893 N   0  0  0  0  0  0  0  0  0  0  0  0
    8.6347  -17.1839   25.3872 C   0  0  1  0  0  0  0  0  0  0  0  0
    7.2056  -16.7421   25.5194 C   0  0  0  0  0  0  0  0  0  0  0  0
    7.0155  -15.4342   24.8680 C   0  0  0  0  0  0  0  0  0  0  0  0
    6.9361  -15.1807   23.5170 C   0  0  0  0  0  0  0  0  0  0  0  0
    6.7769  -13.8578   23.3710 N   0  0  0  0  0  0  0  0  0  0  0  0
    6.7496  -13.2466   24.5560 C   0  0  0  0  0  0  0  0  0  0  0  0
    6.6060  -11.9063   24.9219 C   0  0  0  0  0  0  0  0  0  0  0  0
    6.6192  -11.6002   26.2683 C   0  0  0  0  0  0  0  0  0  0  0  0
    6.7687  -12.5776   27.2244 C   0  0  0  0  0  0  0  0  0  0  0  0
    6.9095  -13.8881   26.8723 C   0  0  0  0  0  0  0  0  0  0  0  0
    6.8978  -14.2173   25.5066 C   0  0  0  0  0  0  0  0  0  0  0  0
    9.1510  -18.0892   26.3863 C   0  0  0  0  0  0  0  0  0  0  0  0
    8.3202  -18.8745   26.9696 O   0  0  0  0  0  0  0  0  0  0  0  0
   14.3546  -15.2657   23.2338 O   0  0  0  0  0  0  0  0  0  0  0  0
   13.5348  -15.4515   24.3287 C   0  0  0  0  0  0  0  0  0  0  0  0
   14.0553  -16.2163   25.3729 C   0  0  0  0  0  0  0  0  0  0  0  0
   13.2613  -16.4156   26.4735 C   0  0  0  0  0  0  0  0  0  0  0  0
   11.9816  -15.8803   26.5591 C   0  0  0  0  0  0  0  0  0  0  0  0
   11.1825  -16.1345   27.7590 C   0  0  0  0  0  0  0  0  0  0  0  0
   10.9493  -17.6244   28.0086 C   0  0  2  0  0  0  0  0  0  0  0  0
   10.5053  -18.1585   26.7488 N   0  0  0  0  0  0  0  0  0  0  0  0
   10.0469  -17.8665   29.1292 C   0  0  0  0  0  0  0  0  0  0  0  0
   10.3785  -17.4882   30.4204 O   0  0  0  0  0  0  0  0  0  0  0  0
   11.4993  -15.1302   25.5098 C   0  0  0  0  0  0  0  0  0  0  0  0
   12.2830  -14.9172   24.3910 C   0  0  0  0  0  0  0  0  0  0  0  0
    8.9281  -18.4267   28.9937 O   0  0  0  0  0  0  0  0  0  0  0  0
  2  1  1  6
  3  2  1  0
  4  3  1  0
  5  9  1  0
  5  4  1  0
  6  5  2  0
  7  8  2  0
  7  2  1  0
 10  7  1  0
 11 10  1  0
 11 12  1  1
 13 12  1  0
 13 14  2  0
 15 14  1  0
 16 15  1  0
 17 16  2  0
 18 17  1  0
 19 18  2  0
 19 20  1  0
 20 21  2  0
 21 16  1  0
 21 13  1  0
 22 11  1  0
 23 22  2  0
 24 25  1  0
 25 35  2  0
 26 25  1  0
 26 27  2  0
 27 28  1  0
 28 34  2  0
 28 29  1  0
 30 29  1  6
 30 31  1  0
 31 22  1  0
 32 30  1  0
 33 32  1  0
 35 34  1  0
 36 32  2  0
M  END
$$$$
