EWY.pdb
     RDKit          3D

 36 38  0  0  1  0  0  0  0  0999 V2000
    9.8141  -17.9772   18.6317 N   0  0  0  0  0  0  0  0  0  0  0  0
   10.6095  -18.3659   19.7689 C   0  0  1  0  0  0  0  0  0  0  0  0
   12.0692  -18.2223   19.3696 C   0  0  0  0  0  0  0  0  0  0  0  0
   12.2226  -18.7063   17.9607 C   0  0  0  0  0  0  0  0  0  0  0  0
   13.6211  -18.5925   17.5135 C   0  0  0  0  0  0  0  0  0  0  0  0
   14.3662  -19.5825   17.4843 O   0  0  0  0  0  0  0  0  0  0  0  0
   10.3557  -17.4006   20.8729 C   0  0  0  0  0  0  0  0  0  0  0  0
   11.3486  -16.9030   21.5120 O   0  0  0  0  0  0  0  0  0  0  0  0
   14.1272  -17.3531   17.1125 O   0  0  0  0  0  0  0  0  0  0  0  0
    9.0245  -17.0592   21.1878 N   0  0  0  0  0  0  0  0  0  0  0  0
    8.7729  -16.4424   22.5045 C   0  0  1  0  0  0  0  0  0  0  0  0
    7.4043  -15.8310   22.4139 C   0  0  0  0  0  0  0  0  0  0  0  0
    7.4584  -14.4061   22.7851 C   0  0  0  0  0  0  0  0  0  0  0  0
    8.0275  -13.3793   22.0658 C   0  0  0  0  0  0  0  0  0  0  0  0
    7.8615  -12.2566   22.7790 N   0  0  0  0  0  0  0  0  0  0  0  0
    7.2160  -12.5062   23.9189 C   0  0  0  0  0  0  0  0  0  0  0  0
    6.8133  -11.6836   24.9735 C   0  0  0  0  0  0  0  0  0  0  0  0
    6.1472  -12.2703   26.0312 C   0  0  0  0  0  0  0  0  0  0  0  0
    5.8850  -13.6203   26.0533 C   0  0  0  0  0  0  0  0  0  0  0  0
    6.2762  -14.4281   25.0259 C   0  0  0  0  0  0  0  0  0  0  0  0
    6.9548  -13.8475   23.9414 C   0  0  0  0  0  0  0  0  0  0  0  0
    8.9834  -17.4689   23.4977 C   0  0  0  0  0  0  0  0  0  0  0  0
    9.9802  -18.2613   23.3378 O   0  0  0  0  0  0  0  0  0  0  0  0
   11.8952  -15.2795   30.9650 O   0  0  0  0  0  0  0  0  0  0  0  0
   11.3104  -15.5683   29.7484 C   0  0  0  0  0  0  0  0  0  0  0  0
   10.6629  -14.5143   29.1035 C   0  0  0  0  0  0  0  0  0  0  0  0
   10.0739  -14.7743   27.8924 C   0  0  0  0  0  0  0  0  0  0  0  0
   10.1131  -16.0383   27.3160 C   0  0  0  0  0  0  0  0  0  0  0  0
    9.4600  -16.2518   26.0234 C   0  0  0  0  0  0  0  0  0  0  0  0
    8.7245  -17.5895   25.9472 C   0  0  2  0  0  0  0  0  0  0  0  0
    8.1635  -17.6429   24.6235 N   0  0  0  0  0  0  0  0  0  0  0  0
    7.7598  -17.7567   27.0289 C   0  0  0  0  0  0  0  0  0  0  0  0
    8.0615  -18.4989   28.1595 O   0  0  0  0  0  0  0  0  0  0  0  0
   10.7610  -17.0559   27.9802 C   0  0  0  0  0  0  0  0  0  0  0  0
   11.3612  -16.8155   29.2022 C   0  0  0  0  0  0  0  0  0  0  0  0
    6.6103  -17.2449   27.0012 O   0  0  0  0  0  0  0  0  0  0  0  0
  2  1  1  6
  3  2  1  0
  4  3  1  0
  5  9  1  0
  5  4  1  0
  6  5  2  0
  7  8  2  0
  7  2  1  0
 10  7  1  0
 11 10  1  0
 11 12  1  6
 13 12  1  0
 13 14  2  0
 15 14  1  0
 16 15  1  0
 17 16  2  0
 18 17  1  0
 19 18  2  0
 19 20  1  0
 20 21  2  0
 21 16  1  0
 21 13  1  0
 22 11  1  0
 23 22  2  0
 24 25  1  0
 25 35  2  0
 26 25  1  0
 26 27  2  0
 27 28  1  0
 28 34  2  0
 28 29  1  0
 30 29  1  1
 30 31  1  0
 31 22  1  0
 32 30  1  0
 33 32  1  0
 35 34  1  0
 36 32  2  0
M  END
$$$$
