EWY.pdb
     RDKit          3D

 36 38  0  0  1  0  0  0  0  0999 V2000
    7.3620  -16.8400   19.0076 N   0  0  0  0  0  0  0  0  0  0  0  0
    8.5499  -17.3762   19.6225 C   0  0  1  0  0  0  0  0  0  0  0  0
    9.6679  -17.2910   18.5961 C   0  0  0  0  0  0  0  0  0  0  0  0
    9.0922  -17.5884   17.2459 C   0  0  0  0  0  0  0  0  0  0  0  0
   10.1582  -17.7631   16.2451 C   0  0  0  0  0  0  0  0  0  0  0  0
   11.3535  -17.6775   16.5617 O   0  0  0  0  0  0  0  0  0  0  0  0
    8.9278  -16.4970   20.7623 C   0  0  0  0  0  0  0  0  0  0  0  0
    9.7020  -15.4974   20.5540 O   0  0  0  0  0  0  0  0  0  0  0  0
    9.8289  -18.0310   14.9136 O   0  0  0  0  0  0  0  0  0  0  0  0
    8.4228  -16.7893   22.0458 N   0  0  0  0  0  0  0  0  0  0  0  0
    9.0683  -16.1309   23.1979 C   0  0  1  0  0  0  0  0  0  0  0  0
    8.3970  -16.6930   24.4179 C   0  0  0  0  0  0  0  0  0  0  0  0
    7.3348  -15.7820   24.8790 C   0  0  0  0  0  0  0  0  0  0  0  0
    6.0658  -16.1231   25.2902 C   0  0  0  0  0  0  0  0  0  0  0  0
    5.4328  -14.9848   25.6070 N   0  0  0  0  0  0  0  0  0  0  0  0
    6.2268  -13.9295   25.4216 C   0  0  0  0  0  0  0  0  0  0  0  0
    6.0315  -12.5590   25.6077 C   0  0  0  0  0  0  0  0  0  0  0  0
    7.0825  -11.7122   25.3162 C   0  0  0  0  0  0  0  0  0  0  0  0
    8.2859  -12.1947   24.8571 C   0  0  0  0  0  0  0  0  0  0  0  0
    8.4817  -13.5322   24.6734 C   0  0  0  0  0  0  0  0  0  0  0  0
    7.4229  -14.4081   24.9655 C   0  0  0  0  0  0  0  0  0  0  0  0
   10.4903  -16.3394   23.0598 C   0  0  0  0  0  0  0  0  0  0  0  0
   10.8933  -17.1141   22.1193 O   0  0  0  0  0  0  0  0  0  0  0  0
   10.7446  -14.6181   31.0152 O   0  0  0  0  0  0  0  0  0  0  0  0
   10.7401  -15.1105   29.7257 C   0  0  0  0  0  0  0  0  0  0  0  0
   10.6702  -16.4971   29.5895 C   0  0  0  0  0  0  0  0  0  0  0  0
   10.6634  -17.0126   28.3184 C   0  0  0  0  0  0  0  0  0  0  0  0
   10.7232  -16.1943   27.1966 C   0  0  0  0  0  0  0  0  0  0  0  0
   10.7180  -16.8073   25.8673 C   0  0  0  0  0  0  0  0  0  0  0  0
   11.9522  -16.4412   25.0432 C   0  0  2  0  0  0  0  0  0  0  0  0
   11.4494  -15.7408   23.8916 N   0  0  0  0  0  0  0  0  0  0  0  0
   12.7834  -17.6014   24.7404 C   0  0  0  0  0  0  0  0  0  0  0  0
   12.2248  -18.8329   24.4378 O   0  0  0  0  0  0  0  0  0  0  0  0
   10.7914  -14.8296   27.3677 C   0  0  0  0  0  0  0  0  0  0  0  0
   10.7996  -14.2892   28.6402 C   0  0  0  0  0  0  0  0  0  0  0  0
   14.0411  -17.5555   24.7365 O   0  0  0  0  0  0  0  0  0  0  0  0
  2  1  1  6
  3  2  1  0
  4  3  1  0
  5  9  1  0
  5  4  1  0
  6  5  2  0
  7  8  2  0
  7  2  1  0
 10  7  1  0
 11 10  1  0
 11 12  1  1
 13 12  1  0
 13 14  2  0
 15 14  1  0
 16 15  1  0
 17 16  2  0
 18 17  1  0
 19 18  2  0
 19 20  1  0
 20 21  2  0
 21 16  1  0
 21 13  1  0
 22 11  1  0
 23 22  2  0
 24 25  1  0
 25 35  2  0
 26 25  1  0
 26 27  2  0
 27 28  1  0
 28 34  2  0
 28 29  1  0
 30 29  1  1
 30 31  1  0
 31 22  1  0
 32 30  1  0
 33 32  1  0
 35 34  1  0
 36 32  2  0
M  END
$$$$
