EWY.pdb
     RDKit          3D

 36 38  0  0  1  0  0  0  0  0999 V2000
    9.7911  -17.3769   18.4385 N   0  0  0  0  0  0  0  0  0  0  0  0
   10.7168  -17.6970   19.4955 C   0  0  1  0  0  0  0  0  0  0  0  0
   12.1166  -17.4290   18.9668 C   0  0  0  0  0  0  0  0  0  0  0  0
   12.3151  -18.2414   17.7244 C   0  0  0  0  0  0  0  0  0  0  0  0
   13.7415  -18.5389   17.5114 C   0  0  0  0  0  0  0  0  0  0  0  0
   14.5763  -18.3449   18.4067 O   0  0  0  0  0  0  0  0  0  0  0  0
   10.4835  -16.7575   20.6260 C   0  0  0  0  0  0  0  0  0  0  0  0
   11.2518  -15.7418   20.7667 O   0  0  0  0  0  0  0  0  0  0  0  0
   14.1725  -19.0494   16.2840 O   0  0  0  0  0  0  0  0  0  0  0  0
    9.4199  -17.0121   21.5159 N   0  0  0  0  0  0  0  0  0  0  0  0
    9.2152  -16.0583   22.6231 C   0  0  1  0  0  0  0  0  0  0  0  0
    7.7316  -15.8411   22.7056 C   0  0  0  0  0  0  0  0  0  0  0  0
    7.4392  -14.4191   22.9574 C   0  0  0  0  0  0  0  0  0  0  0  0
    7.4330  -13.3948   22.0374 C   0  0  0  0  0  0  0  0  0  0  0  0
    7.1311  -12.2693   22.6999 N   0  0  0  0  0  0  0  0  0  0  0  0
    6.9427  -12.5148   23.9971 C   0  0  0  0  0  0  0  0  0  0  0  0
    6.6154  -11.6887   25.0748 C   0  0  0  0  0  0  0  0  0  0  0  0
    6.4907  -12.2720   26.3201 C   0  0  0  0  0  0  0  0  0  0  0  0
    6.6810  -13.6220   26.5019 C   0  0  0  0  0  0  0  0  0  0  0  0
    7.0009  -14.4331   25.4528 C   0  0  0  0  0  0  0  0  0  0  0  0
    7.1314  -13.8562   24.1785 C   0  0  0  0  0  0  0  0  0  0  0  0
    9.8768  -16.6097   23.7818 C   0  0  0  0  0  0  0  0  0  0  0  0
    9.9775  -17.8866   23.8628 O   0  0  0  0  0  0  0  0  0  0  0  0
   12.1348  -16.8715   32.2572 O   0  0  0  0  0  0  0  0  0  0  0  0
   11.9436  -16.5062   30.9399 C   0  0  0  0  0  0  0  0  0  0  0  0
   10.8644  -15.6618   30.6788 C   0  0  0  0  0  0  0  0  0  0  0  0
   10.6525  -15.2829   29.3777 C   0  0  0  0  0  0  0  0  0  0  0  0
   11.4760  -15.7169   28.3457 C   0  0  0  0  0  0  0  0  0  0  0  0
   11.1927  -15.2807   26.9774 C   0  0  0  0  0  0  0  0  0  0  0  0
   10.8248  -16.4404   26.0521 C   0  0  2  0  0  0  0  0  0  0  0  0
   10.4157  -15.8286   24.8160 N   0  0  0  0  0  0  0  0  0  0  0  0
    9.8398  -17.3369   26.6478 C   0  0  0  0  0  0  0  0  0  0  0  0
    8.4927  -17.0136   26.6798 O   0  0  0  0  0  0  0  0  0  0  0  0
   12.5326  -16.5500   28.6393 C   0  0  0  0  0  0  0  0  0  0  0  0
   12.7639  -16.9442   29.9440 C   0  0  0  0  0  0  0  0  0  0  0  0
   10.1493  -18.4428   27.1627 O   0  0  0  0  0  0  0  0  0  0  0  0
  2  1  1  6
  3  2  1  0
  4  3  1  0
  5  9  1  0
  5  4  1  0
  6  5  2  0
  7  8  2  0
  7  2  1  0
 10  7  1  0
 11 10  1  0
 11 12  1  1
 13 12  1  0
 13 14  2  0
 15 14  1  0
 16 15  1  0
 17 16  2  0
 18 17  1  0
 19 18  2  0
 19 20  1  0
 20 21  2  0
 21 16  1  0
 21 13  1  0
 22 11  1  0
 23 22  2  0
 24 25  1  0
 25 35  2  0
 26 25  1  0
 26 27  2  0
 27 28  1  0
 28 34  2  0
 28 29  1  0
 30 29  1  1
 30 31  1  0
 31 22  1  0
 32 30  1  0
 33 32  1  0
 35 34  1  0
 36 32  2  0
M  END
$$$$
