AVG.pdb
     RDKit          3D

 17 16  0  0  1  0  0  0  0  0999 V2000
    6.2044  -18.5541   24.5975 C   0  0  0  0  0  0  0  0  0  0  0  0
    6.3194  -17.3321   23.6895 C   0  0  2  0  0  0  0  0  0  0  0  0
    7.0411  -17.8250   22.5073 N   0  0  0  0  0  0  0  0  0  0  0  0
    7.2079  -16.3028   24.3279 C   0  0  0  0  0  0  0  0  0  0  0  0
    8.4608  -16.4102   24.3078 O   0  0  0  0  0  0  0  0  0  0  0  0
    7.8281  -11.8952   26.5217 C   0  0  0  0  0  0  0  0  0  0  0  0
    6.8457  -12.8583   25.8383 C   0  0  2  0  0  0  0  0  0  0  0  0
    5.7107  -13.0323   26.8117 C   0  0  0  0  0  0  0  0  0  0  0  0
    7.4994  -14.2147   25.6551 C   0  0  2  0  0  0  0  0  0  0  0  0
    6.6594  -15.1529   24.9842 N   0  0  0  0  0  0  0  0  0  0  0  0
    8.0154  -14.7566   26.9184 C   0  0  0  0  0  0  0  0  0  0  0  0
    7.2305  -15.1445   27.8382 O   0  0  0  0  0  0  0  0  0  0  0  0
    9.4061  -14.8924   27.2116 N   0  0  0  0  0  0  0  0  0  0  0  0
    9.9284  -15.3449   28.4842 C   0  0  0  0  0  0  0  0  0  0  0  0
   11.4080  -15.3265   28.3904 C   0  0  0  0  0  0  0  0  0  0  0  0
   12.0093  -15.0276   27.3260 O   0  0  0  0  0  0  0  0  0  0  0  0
   12.2243  -15.6454   29.4865 O   0  0  0  0  0  0  0  0  0  0  0  0
  2  4  1  0
  2  1  1  1
  3  2  1  0
  4  5  2  0
  7  6  1  1
  7  8  1  0
  7  9  1  0
  9 10  1  1
 10  4  1  0
 11  9  1  0
 12 11  2  0
 13 11  1  0
 14 13  1  0
 14 15  1  0
 15 17  1  0
 16 15  2  0
M  END
$$$$
