AVG.pdb
     RDKit          3D

 17 16  0  0  1  0  0  0  0  0999 V2000
    6.6807  -20.1331   25.7429 C   0  0  0  0  0  0  0  0  0  0  0  0
    5.9512  -19.2776   24.7102 C   0  0  2  0  0  0  0  0  0  0  0  0
    5.6315  -20.2146   23.6232 N   0  0  0  0  0  0  0  0  0  0  0  0
    6.8941  -18.2628   24.1291 C   0  0  0  0  0  0  0  0  0  0  0  0
    7.6034  -18.5223   23.1236 O   0  0  0  0  0  0  0  0  0  0  0  0
    8.1729  -13.5821   23.4182 C   0  0  0  0  0  0  0  0  0  0  0  0
    7.1931  -14.6008   24.0197 C   0  0  2  0  0  0  0  0  0  0  0  0
    6.9457  -14.1362   25.4300 C   0  0  0  0  0  0  0  0  0  0  0  0
    7.8535  -15.9639   24.0993 C   0  0  2  0  0  0  0  0  0  0  0  0
    7.0193  -16.9539   24.6991 N   0  0  0  0  0  0  0  0  0  0  0  0
    9.1719  -15.9045   24.7428 C   0  0  0  0  0  0  0  0  0  0  0  0
    9.2863  -15.7252   25.9947 O   0  0  0  0  0  0  0  0  0  0  0  0
   10.4044  -16.0420   24.0354 N   0  0  0  0  0  0  0  0  0  0  0  0
   11.7106  -15.9736   24.6570 C   0  0  0  0  0  0  0  0  0  0  0  0
   12.7230  -16.1045   23.5816 C   0  0  0  0  0  0  0  0  0  0  0  0
   12.7602  -17.1000   22.8125 O   0  0  0  0  0  0  0  0  0  0  0  0
   13.7020  -15.1235   23.3618 O   0  0  0  0  0  0  0  0  0  0  0  0
  2  4  1  0
  2  1  1  1
  3  2  1  0
  4  5  2  0
  7  6  1  1
  7  8  1  0
  7  9  1  0
  9 10  1  1
 10  4  1  0
 11  9  1  0
 12 11  2  0
 13 11  1  0
 14 13  1  0
 14 15  1  0
 15 17  1  0
 16 15  2  0
M  END
$$$$
