AVG.pdb
     RDKit          3D

 17 16  0  0  1  0  0  0  0  0999 V2000
   -6.3310  -26.5606   23.9476 C   0  0  0  0  0  0  0  0  0  0  0  0
   -4.9113  -26.0380   24.1529 C   0  0  2  0  0  0  0  0  0  0  0  0
   -4.0742  -27.2466   24.1402 N   0  0  0  0  0  0  0  0  0  0  0  0
   -4.7781  -25.4466   25.5274 C   0  0  0  0  0  0  0  0  0  0  0  0
   -4.7317  -26.1707   26.5546 O   0  0  0  0  0  0  0  0  0  0  0  0
   -3.2429  -21.9316   28.5172 C   0  0  0  0  0  0  0  0  0  0  0  0
   -3.2881  -22.5954   27.1326 C   0  0  2  0  0  0  0  0  0  0  0  0
   -3.4464  -21.4658   26.1504 C   0  0  0  0  0  0  0  0  0  0  0  0
   -4.5223  -23.4701   27.0222 C   0  0  2  0  0  0  0  0  0  0  0  0
   -4.6954  -24.0290   25.7208 N   0  0  0  0  0  0  0  0  0  0  0  0
   -5.7342  -22.7795   27.4805 C   0  0  0  0  0  0  0  0  0  0  0  0
   -6.1666  -21.7438   26.8864 O   0  0  0  0  0  0  0  0  0  0  0  0
   -6.5104  -23.2033   28.6013 N   0  0  0  0  0  0  0  0  0  0  0  0
   -7.6839  -22.5079   29.0873 C   0  0  0  0  0  0  0  0  0  0  0  0
   -7.2813  -21.7427   30.2918 C   0  0  0  0  0  0  0  0  0  0  0  0
   -6.1153  -21.7965   30.7624 O   0  0  0  0  0  0  0  0  0  0  0  0
   -8.1818  -20.9145   30.9792 O   0  0  0  0  0  0  0  0  0  0  0  0
  2  4  1  0
  2  1  1  1
  3  2  1  0
  4  5  2  0
  7  6  1  1
  7  8  1  0
  7  9  1  0
  9 10  1  6
 10  4  1  0
 11  9  1  0
 12 11  2  0
 13 11  1  0
 14 13  1  0
 14 15  1  0
 15 17  1  0
 16 15  2  0
M  END
$$$$
