AVG.pdb
     RDKit          3D

 17 16  0  0  1  0  0  0  0  0999 V2000
    7.9010  -18.8979   18.1720 C   0  0  0  0  0  0  0  0  0  0  0  0
    7.9903  -17.5175   17.5261 C   0  0  2  0  0  0  0  0  0  0  0  0
    8.9903  -17.6794   16.4605 N   0  0  0  0  0  0  0  0  0  0  0  0
    8.5689  -16.5329   18.5020 C   0  0  0  0  0  0  0  0  0  0  0  0
    9.8112  -16.4040   18.6497 O   0  0  0  0  0  0  0  0  0  0  0  0
    7.3071  -12.7534   19.2308 C   0  0  0  0  0  0  0  0  0  0  0  0
    7.4041  -13.5874   20.5172 C   0  0  2  0  0  0  0  0  0  0  0  0
    8.1226  -12.7131   21.5098 C   0  0  0  0  0  0  0  0  0  0  0  0
    8.2717  -14.8075   20.2743 C   0  0  2  0  0  0  0  0  0  0  0  0
    7.7237  -15.6975   19.3030 N   0  0  0  0  0  0  0  0  0  0  0  0
    8.6067  -15.5067   21.5212 C   0  0  0  0  0  0  0  0  0  0  0  0
    7.7056  -16.0387   22.2407 O   0  0  0  0  0  0  0  0  0  0  0  0
    9.9384  -15.6465   22.0167 N   0  0  0  0  0  0  0  0  0  0  0  0
   10.2824  -16.3432   23.2387 C   0  0  0  0  0  0  0  0  0  0  0  0
   11.7471  -16.2127   23.4287 C   0  0  0  0  0  0  0  0  0  0  0  0
   12.4968  -15.7189   22.5467 O   0  0  0  0  0  0  0  0  0  0  0  0
   12.3826  -16.6365   24.6059 O   0  0  0  0  0  0  0  0  0  0  0  0
  2  4  1  0
  2  1  1  1
  3  2  1  0
  4  5  2  0
  7  6  1  6
  7  8  1  0
  7  9  1  0
  9 10  1  6
 10  4  1  0
 11  9  1  0
 12 11  2  0
 13 11  1  0
 14 13  1  0
 14 15  1  0
 15 17  1  0
 16 15  2  0
M  END
$$$$
