AVG.pdb
     RDKit          3D

 17 16  0  0  1  0  0  0  0  0999 V2000
    5.9907  -19.2756   20.1620 C   0  0  0  0  0  0  0  0  0  0  0  0
    6.2388  -18.2410   19.0671 C   0  0  2  0  0  0  0  0  0  0  0  0
    6.7811  -19.0222   17.9458 N   0  0  0  0  0  0  0  0  0  0  0  0
    7.3291  -17.2989   19.4916 C   0  0  0  0  0  0  0  0  0  0  0  0
    8.5430  -17.6177   19.4128 O   0  0  0  0  0  0  0  0  0  0  0  0
    8.8068  -12.6808   20.4143 C   0  0  0  0  0  0  0  0  0  0  0  0
    7.6048  -13.6188   20.2267 C   0  0  2  0  0  0  0  0  0  0  0  0
    6.7064  -13.3618   21.4067 C   0  0  0  0  0  0  0  0  0  0  0  0
    8.0620  -15.0627   20.3093 C   0  0  2  0  0  0  0  0  0  0  0  0
    7.0260  -15.9944   20.0018 N   0  0  0  0  0  0  0  0  0  0  0  0
    8.7017  -15.3690   21.5948 C   0  0  0  0  0  0  0  0  0  0  0  0
    8.0161  -15.5125   22.6541 O   0  0  0  0  0  0  0  0  0  0  0  0
   10.1108  -15.5298   21.7589 N   0  0  0  0  0  0  0  0  0  0  0  0
   10.7436  -15.9435   22.9940 C   0  0  0  0  0  0  0  0  0  0  0  0
   12.2103  -15.8855   22.7842 C   0  0  0  0  0  0  0  0  0  0  0  0
   12.7179  -15.6167   21.6644 O   0  0  0  0  0  0  0  0  0  0  0  0
   13.1184  -16.1308   23.8256 O   0  0  0  0  0  0  0  0  0  0  0  0
  2  4  1  0
  2  1  1  1
  3  2  1  0
  4  5  2  0
  7  6  1  1
  7  8  1  0
  7  9  1  0
  9 10  1  1
 10  4  1  0
 11  9  1  0
 12 11  2  0
 13 11  1  0
 14 13  1  0
 14 15  1  0
 15 17  1  0
 16 15  2  0
M  END
$$$$
