AVG.pdb
     RDKit          3D

 17 16  0  0  1  0  0  0  0  0999 V2000
    6.8370  -18.8200   26.0474 C   0  0  0  0  0  0  0  0  0  0  0  0
    5.8717  -17.9555   25.2402 C   0  0  2  0  0  0  0  0  0  0  0  0
    5.6824  -18.6977   23.9852 N   0  0  0  0  0  0  0  0  0  0  0  0
    6.5345  -16.6597   24.8686 C   0  0  0  0  0  0  0  0  0  0  0  0
    7.2984  -16.5721   23.8734 O   0  0  0  0  0  0  0  0  0  0  0  0
    7.1498  -11.7781   25.4691 C   0  0  0  0  0  0  0  0  0  0  0  0
    6.3501  -13.0251   25.8759 C   0  0  2  0  0  0  0  0  0  0  0  0
    6.4066  -13.0660   27.3795 C   0  0  0  0  0  0  0  0  0  0  0  0
    7.0444  -14.2714   25.3608 C   0  0  2  0  0  0  0  0  0  0  0  0
    6.3182  -15.4685   25.6354 N   0  0  0  0  0  0  0  0  0  0  0  0
    8.4346  -14.3631   25.8240 C   0  0  0  0  0  0  0  0  0  0  0  0
    8.7477  -14.0950   27.0251 O   0  0  0  0  0  0  0  0  0  0  0  0
    9.5234  -14.7534   24.9869 N   0  0  0  0  0  0  0  0  0  0  0  0
   10.9166  -14.6680   25.3724 C   0  0  0  0  0  0  0  0  0  0  0  0
   11.7176  -15.2836   24.2870 C   0  0  0  0  0  0  0  0  0  0  0  0
   11.4668  -15.0814   23.0704 O   0  0  0  0  0  0  0  0  0  0  0  0
   12.8027  -16.1318   24.5561 O   0  0  0  0  0  0  0  0  0  0  0  0
  2  4  1  0
  2  1  1  1
  3  2  1  0
  4  5  2  0
  7  6  1  6
  7  8  1  0
  7  9  1  0
  9 10  1  1
 10  4  1  0
 11  9  1  0
 12 11  2  0
 13 11  1  0
 14 13  1  0
 14 15  1  0
 15 17  1  0
 16 15  2  0
M  END
$$$$
