AVG.pdb
     RDKit          3D

 17 16  0  0  1  0  0  0  0  0999 V2000
    7.0843  -17.0158   22.3901 C   0  0  0  0  0  0  0  0  0  0  0  0
    7.2185  -15.5493   21.9877 C   0  0  2  0  0  0  0  0  0  0  0  0
    8.1995  -15.5617   20.8926 N   0  0  0  0  0  0  0  0  0  0  0  0
    7.8451  -14.7675   23.1070 C   0  0  0  0  0  0  0  0  0  0  0  0
    9.0898  -14.6027   23.1794 O   0  0  0  0  0  0  0  0  0  0  0  0
    7.4900  -11.5770   26.8560 C   0  0  0  0  0  0  0  0  0  0  0  0
    6.7438  -12.3632   25.7674 C   0  0  2  0  0  0  0  0  0  0  0  0
    5.5986  -13.0387   26.4731 C   0  0  0  0  0  0  0  0  0  0  0  0
    7.6422  -13.4522   25.2130 C   0  0  2  0  0  0  0  0  0  0  0  0
    7.0447  -14.1746   24.1373 N   0  0  0  0  0  0  0  0  0  0  0  0
    8.1342  -14.3531   26.2629 C   0  0  0  0  0  0  0  0  0  0  0  0
    8.7825  -13.9096   27.2607 O   0  0  0  0  0  0  0  0  0  0  0  0
    7.9292  -15.7659   26.2532 N   0  0  0  0  0  0  0  0  0  0  0  0
    8.2272  -16.6385   27.3698 C   0  0  0  0  0  0  0  0  0  0  0  0
    9.5861  -17.1908   27.1532 C   0  0  0  0  0  0  0  0  0  0  0  0
   10.2984  -16.8548   26.1716 O   0  0  0  0  0  0  0  0  0  0  0  0
   10.1554  -18.1249   28.0322 O   0  0  0  0  0  0  0  0  0  0  0  0
  2  4  1  0
  2  1  1  1
  3  2  1  0
  4  5  2  0
  7  6  1  1
  7  8  1  0
  7  9  1  0
  9 10  1  6
 10  4  1  0
 11  9  1  0
 12 11  2  0
 13 11  1  0
 14 13  1  0
 14 15  1  0
 15 17  1  0
 16 15  2  0
M  END
$$$$
