AVG.pdb
     RDKit          3D

 17 16  0  0  1  0  0  0  0  0999 V2000
    6.2858  -19.2311   20.0029 C   0  0  0  0  0  0  0  0  0  0  0  0
    6.4236  -18.0275   19.0739 C   0  0  2  0  0  0  0  0  0  0  0  0
    7.0216  -18.5803   17.8498 N   0  0  0  0  0  0  0  0  0  0  0  0
    7.4276  -17.0611   19.6350 C   0  0  0  0  0  0  0  0  0  0  0  0
    8.6636  -17.2267   19.4726 O   0  0  0  0  0  0  0  0  0  0  0  0
    7.0994  -13.0633   19.4404 C   0  0  0  0  0  0  0  0  0  0  0  0
    7.4069  -13.5342   20.8699 C   0  0  2  0  0  0  0  0  0  0  0  0
    8.5041  -12.6298   21.3638 C   0  0  0  0  0  0  0  0  0  0  0  0
    7.9612  -14.9457   20.8378 C   0  0  2  0  0  0  0  0  0  0  0  0
    7.0131  -15.9072   20.3769 N   0  0  0  0  0  0  0  0  0  0  0  0
    8.5502  -15.3394   22.1239 C   0  0  0  0  0  0  0  0  0  0  0  0
    7.8271  -15.5168   23.1527 O   0  0  0  0  0  0  0  0  0  0  0  0
    9.9479  -15.5532   22.3216 N   0  0  0  0  0  0  0  0  0  0  0  0
   10.5504  -15.8593   23.6023 C   0  0  0  0  0  0  0  0  0  0  0  0
   12.0170  -15.9353   23.3978 C   0  0  0  0  0  0  0  0  0  0  0  0
   12.5363  -15.9224   22.2515 O   0  0  0  0  0  0  0  0  0  0  0  0
   12.9118  -16.0290   24.4748 O   0  0  0  0  0  0  0  0  0  0  0  0
  2  4  1  0
  2  1  1  1
  3  2  1  0
  4  5  2  0
  7  6  1  6
  7  8  1  0
  7  9  1  0
  9 10  1  1
 10  4  1  0
 11  9  1  0
 12 11  2  0
 13 11  1  0
 14 13  1  0
 14 15  1  0
 15 17  1  0
 16 15  2  0
M  END
$$$$
