AVG.pdb
     RDKit          3D

 17 16  0  0  1  0  0  0  0  0999 V2000
    5.5498  -18.5228   20.2016 C   0  0  0  0  0  0  0  0  0  0  0  0
    5.9183  -17.3837   19.2544 C   0  0  2  0  0  0  0  0  0  0  0  0
    6.3446  -18.0607   18.0209 N   0  0  0  0  0  0  0  0  0  0  0  0
    7.1249  -16.6560   19.7751 C   0  0  0  0  0  0  0  0  0  0  0  0
    8.2805  -17.1429   19.6788 O   0  0  0  0  0  0  0  0  0  0  0  0
    6.9183  -12.8129   22.0319 C   0  0  0  0  0  0  0  0  0  0  0  0
    8.0046  -13.2180   21.0242 C   0  0  2  0  0  0  0  0  0  0  0  0
    7.4900  -12.7777   19.6799 C   0  0  0  0  0  0  0  0  0  0  0  0
    8.1348  -14.7288   20.9886 C   0  0  2  0  0  0  0  0  0  0  0  0
    7.0049  -15.3725   20.4013 N   0  0  0  0  0  0  0  0  0  0  0  0
    8.4520  -15.2892   22.3081 C   0  0  0  0  0  0  0  0  0  0  0  0
    7.5375  -15.5546   23.1482 O   0  0  0  0  0  0  0  0  0  0  0  0
    9.7797  -15.5782   22.7465 N   0  0  0  0  0  0  0  0  0  0  0  0
   10.1155  -16.0262   24.0820 C   0  0  0  0  0  0  0  0  0  0  0  0
   11.5934  -16.1146   24.1636 C   0  0  0  0  0  0  0  0  0  0  0  0
   12.3347  -15.8934   23.1710 O   0  0  0  0  0  0  0  0  0  0  0  0
   12.2509  -16.4538   25.3560 O   0  0  0  0  0  0  0  0  0  0  0  0
  2  4  1  0
  2  1  1  1
  3  2  1  0
  4  5  2  0
  7  6  1  1
  7  8  1  0
  7  9  1  0
  9 10  1  1
 10  4  1  0
 11  9  1  0
 12 11  2  0
 13 11  1  0
 14 13  1  0
 14 15  1  0
 15 17  1  0
 16 15  2  0
M  END
$$$$
