AVG.pdb
     RDKit          3D

 17 16  0  0  1  0  0  0  0  0999 V2000
    6.5345  -20.0996   25.1943 C   0  0  0  0  0  0  0  0  0  0  0  0
    5.6575  -18.9295   24.7556 C   0  0  2  0  0  0  0  0  0  0  0  0
    5.0473  -19.3848   23.4978 N   0  0  0  0  0  0  0  0  0  0  0  0
    6.5179  -17.7493   24.4044 C   0  0  0  0  0  0  0  0  0  0  0  0
    7.0728  -17.6496   23.2802 O   0  0  0  0  0  0  0  0  0  0  0  0
    5.8575  -13.9324   25.5554 C   0  0  0  0  0  0  0  0  0  0  0  0
    7.3141  -14.3468   25.8134 C   0  0  2  0  0  0  0  0  0  0  0  0
    8.1552  -13.2426   25.2311 C   0  0  0  0  0  0  0  0  0  0  0  0
    7.6317  -15.6145   25.0436 C   0  0  2  0  0  0  0  0  0  0  0  0
    6.7376  -16.6861   25.3400 N   0  0  0  0  0  0  0  0  0  0  0  0
    9.0341  -16.0207   25.1987 C   0  0  0  0  0  0  0  0  0  0  0  0
    9.5447  -16.1997   26.3475 O   0  0  0  0  0  0  0  0  0  0  0  0
    9.9188  -16.2454   24.1009 N   0  0  0  0  0  0  0  0  0  0  0  0
   11.2332  -16.8403   24.2245 C   0  0  0  0  0  0  0  0  0  0  0  0
   12.2305  -15.7787   23.9473 C   0  0  0  0  0  0  0  0  0  0  0  0
   12.3824  -15.2837   22.8003 O   0  0  0  0  0  0  0  0  0  0  0  0
   13.0663  -15.2663   24.9514 O   0  0  0  0  0  0  0  0  0  0  0  0
  2  4  1  0
  2  1  1  6
  3  2  1  0
  4  5  2  0
  7  6  1  6
  7  8  1  0
  7  9  1  0
  9 10  1  1
 10  4  1  0
 11  9  1  0
 12 11  2  0
 13 11  1  0
 14 13  1  0
 14 15  1  0
 15 17  1  0
 16 15  2  0
M  END
$$$$
