VGN.pdb
     RDKit          3D

 20 19  0  0  1  0  0  0  0  0999 V2000
   13.5420  -11.8934  -11.0392 C   0  0  0  0  0  0  0  0  0  0  0  0
   12.7022  -10.9483  -10.2387 C   0  0  1  0  0  0  0  0  0  0  0  0
   12.2100  -11.6548   -8.9863 C   0  0  0  0  0  0  0  0  0  0  0  0
   13.4760   -9.7299   -9.7956 C   0  0  2  0  0  0  0  0  0  0  0  0
   12.5902   -8.9242   -8.9677 N   0  0  0  0  0  0  0  0  0  0  0  0
   13.9705   -8.9445  -10.9646 C   0  0  0  0  0  0  0  0  0  0  0  0
   13.1493   -8.3311  -11.6613 O   0  0  0  0  0  0  0  0  0  0  0  0
   15.3472   -8.8780  -11.3026 N   0  0  0  0  0  0  0  0  0  0  0  0
   15.8450   -8.1601  -12.4554 C   0  0  0  0  0  0  0  0  0  0  0  0
   17.3387   -8.1619  -12.4937 C   0  0  0  0  0  0  0  0  0  0  0  0
   17.9846   -8.9142  -11.7088 O   0  0  0  0  0  0  0  0  0  0  0  0
   22.2179   -9.1552  -12.8938 N   0  0  0  0  0  0  0  0  0  0  0  0
   21.4040   -8.8951  -14.0320 C   0  0  0  0  0  0  0  0  0  0  0  0
   21.9450   -8.7339  -15.1581 O   0  0  0  0  0  0  0  0  0  0  0  0
   19.9409   -8.8248  -13.8373 C   0  0  0  0  0  0  0  0  0  0  0  0
   19.4987   -7.4224  -13.5657 C   0  0  2  0  0  0  0  0  0  0  0  0
   18.0548   -7.3327  -13.3968 N   0  0  0  0  0  0  0  0  0  0  0  0
   19.9830   -6.4970  -14.5987 C   0  0  0  0  0  0  0  0  0  0  0  0
   21.1637   -5.7838  -14.5311 O   0  0  0  0  0  0  0  0  0  0  0  0
   19.2984   -6.2984  -15.6609 O   0  0  0  0  0  0  0  0  0  0  0  0
  2  1  1  1
  3  2  1  0
  4  2  1  0
  4  5  1  1
  6  8  1  0
  6  4  1  0
  7  6  2  0
  9  8  1  0
 10  9  1  0
 11 10  2  0
 13 12  1  0
 14 13  2  0
 15 13  1  0
 16 15  1  6
 16 17  1  0
 17 10  1  0
 18 19  1  0
 18 16  1  0
 20 18  2  0
M  END
$$$$
