VGN.pdb
     RDKit          3D

 20 19  0  0  1  0  0  0  0  0999 V2000
   29.6514  -18.9234  -20.8204 C   0  0  0  0  0  0  0  0  0  0  0  0
   28.6792  -17.9709  -20.1987 C   0  0  1  0  0  0  0  0  0  0  0  0
   27.9723  -17.1912  -21.2952 C   0  0  0  0  0  0  0  0  0  0  0  0
   27.6179  -18.6808  -19.3931 C   0  0  2  0  0  0  0  0  0  0  0  0
   26.7426  -17.6645  -18.8274 N   0  0  0  0  0  0  0  0  0  0  0  0
   28.2223  -19.5201  -18.3167 C   0  0  0  0  0  0  0  0  0  0  0  0
   28.4627  -20.7124  -18.5543 O   0  0  0  0  0  0  0  0  0  0  0  0
   28.5295  -18.9974  -17.0336 N   0  0  0  0  0  0  0  0  0  0  0  0
   29.1249  -19.7882  -15.9790 C   0  0  0  0  0  0  0  0  0  0  0  0
   28.1034  -20.6337  -15.2905 C   0  0  0  0  0  0  0  0  0  0  0  0
   28.4639  -21.4381  -14.3837 O   0  0  0  0  0  0  0  0  0  0  0  0
   22.2257  -20.8607  -13.6660 N   0  0  0  0  0  0  0  0  0  0  0  0
   23.4915  -21.4415  -13.9591 C   0  0  0  0  0  0  0  0  0  0  0  0
   23.6961  -22.6541  -13.6864 O   0  0  0  0  0  0  0  0  0  0  0  0
   24.5221  -20.5826  -14.5786 C   0  0  0  0  0  0  0  0  0  0  0  0
   25.7132  -21.3840  -14.9969 C   0  0  2  0  0  0  0  0  0  0  0  0
   26.7277  -20.5549  -15.6332 N   0  0  0  0  0  0  0  0  0  0  0  0
   25.3263  -22.5172  -15.8477 C   0  0  0  0  0  0  0  0  0  0  0  0
   25.2292  -23.8279  -15.4236 O   0  0  0  0  0  0  0  0  0  0  0  0
   25.0487  -22.3330  -17.0827 O   0  0  0  0  0  0  0  0  0  0  0  0
  2  1  1  6
  3  2  1  0
  4  2  1  0
  4  5  1  1
  6  8  1  0
  6  4  1  0
  7  6  2  0
  9  8  1  0
 10  9  1  0
 11 10  2  0
 13 12  1  0
 14 13  2  0
 15 13  1  0
 16 15  1  6
 16 17  1  0
 17 10  1  0
 18 19  1  0
 18 16  1  0
 20 18  2  0
M  END
$$$$
