VGN.pdb
     RDKit          3D

 20 19  0  0  1  0  0  0  0  0999 V2000
   19.1040  -15.0729  -16.8735 C   0  0  0  0  0  0  0  0  0  0  0  0
   18.6679  -13.7439  -17.4051 C   0  0  1  0  0  0  0  0  0  0  0  0
   17.5539  -13.1959  -16.5284 C   0  0  0  0  0  0  0  0  0  0  0  0
   19.7869  -12.7304  -17.4001 C   0  0  2  0  0  0  0  0  0  0  0  0
   20.2599  -12.6052  -16.0290 N   0  0  0  0  0  0  0  0  0  0  0  0
   19.3283  -11.4109  -17.9262 C   0  0  0  0  0  0  0  0  0  0  0  0
   19.1652  -11.2799  -19.1477 O   0  0  0  0  0  0  0  0  0  0  0  0
   19.0736  -10.3048  -17.0743 N   0  0  0  0  0  0  0  0  0  0  0  0
   18.8178   -8.9691  -17.5671 C   0  0  0  0  0  0  0  0  0  0  0  0
   19.3463   -7.9331  -16.6291 C   0  0  0  0  0  0  0  0  0  0  0  0
   18.6333   -7.5431  -15.6602 O   0  0  0  0  0  0  0  0  0  0  0  0
   22.4167   -5.1631  -13.7777 N   0  0  0  0  0  0  0  0  0  0  0  0
   22.0170   -6.4838  -13.4293 C   0  0  0  0  0  0  0  0  0  0  0  0
   22.1961   -6.8964  -12.2527 O   0  0  0  0  0  0  0  0  0  0  0  0
   21.4018   -7.3222  -14.4792 C   0  0  0  0  0  0  0  0  0  0  0  0
   21.2918   -6.5766  -15.7706 C   0  0  2  0  0  0  0  0  0  0  0  0
   20.6392   -7.3720  -16.8015 N   0  0  0  0  0  0  0  0  0  0  0  0
   22.5998   -6.0782  -16.2162 C   0  0  0  0  0  0  0  0  0  0  0  0
   23.4330   -5.2671  -15.4711 O   0  0  0  0  0  0  0  0  0  0  0  0
   23.0492   -6.3871  -17.3734 O   0  0  0  0  0  0  0  0  0  0  0  0
  2  1  1  1
  3  2  1  0
  4  2  1  0
  4  5  1  1
  6  8  1  0
  6  4  1  0
  7  6  2  0
  9  8  1  0
 10  9  1  0
 11 10  2  0
 13 12  1  0
 14 13  2  0
 15 13  1  0
 16 15  1  1
 16 17  1  0
 17 10  1  0
 18 19  1  0
 18 16  1  0
 20 18  2  0
M  END
$$$$
