VGN.pdb
     RDKit          3D

 20 19  0  0  1  0  0  0  0  0999 V2000
   17.2195   -9.8425  -17.3767 C   0  0  0  0  0  0  0  0  0  0  0  0
   18.3489   -8.9735  -17.8330 C   0  0  1  0  0  0  0  0  0  0  0  0
   18.6945   -7.9838  -16.7326 C   0  0  0  0  0  0  0  0  0  0  0  0
   19.5968   -9.7681  -18.1341 C   0  0  2  0  0  0  0  0  0  0  0  0
   19.8973  -10.5754  -16.9606 N   0  0  0  0  0  0  0  0  0  0  0  0
   20.7434   -8.8737  -18.4711 C   0  0  0  0  0  0  0  0  0  0  0  0
   20.6897   -8.2013  -19.5108 O   0  0  0  0  0  0  0  0  0  0  0  0
   21.8897   -8.7692  -17.6411 N   0  0  0  0  0  0  0  0  0  0  0  0
   22.9874   -7.8687  -17.9178 C   0  0  0  0  0  0  0  0  0  0  0  0
   23.0055   -6.7228  -16.9592 C   0  0  0  0  0  0  0  0  0  0  0  0
   23.9882   -5.9268  -16.9527 O   0  0  0  0  0  0  0  0  0  0  0  0
   21.8966   -3.4648  -13.2310 N   0  0  0  0  0  0  0  0  0  0  0  0
   20.7832   -3.5060  -14.1166 C   0  0  0  0  0  0  0  0  0  0  0  0
   19.8686   -2.6472  -14.0039 O   0  0  0  0  0  0  0  0  0  0  0  0
   20.7510   -4.5697  -15.1418 C   0  0  0  0  0  0  0  0  0  0  0  0
   21.9619   -5.4425  -15.0530 C   0  0  2  0  0  0  0  0  0  0  0  0
   21.9379   -6.5052  -16.0487 N   0  0  0  0  0  0  0  0  0  0  0  0
   22.1422   -5.9744  -13.6956 C   0  0  0  0  0  0  0  0  0  0  0  0
   22.1431   -7.3152  -13.3650 O   0  0  0  0  0  0  0  0  0  0  0  0
   22.3142   -5.1801  -12.7077 O   0  0  0  0  0  0  0  0  0  0  0  0
  2  1  1  1
  3  2  1  0
  4  2  1  0
  4  5  1  1
  6  8  1  0
  6  4  1  0
  7  6  2  0
  9  8  1  0
 10  9  1  0
 11 10  2  0
 13 12  1  0
 14 13  2  0
 15 13  1  0
 16 15  1  1
 16 17  1  0
 17 10  1  0
 18 19  1  0
 18 16  1  0
 20 18  2  0
M  END
$$$$
