VGN.pdb
     RDKit          3D

 20 19  0  0  1  0  0  0  0  0999 V2000
   17.6293  -16.6185  -18.5923 C   0  0  0  0  0  0  0  0  0  0  0  0
   17.5811  -15.1251  -18.6720 C   0  0  1  0  0  0  0  0  0  0  0  0
   16.1394  -14.6635  -18.5370 C   0  0  0  0  0  0  0  0  0  0  0  0
   18.3716  -14.4671  -17.5668 C   0  0  2  0  0  0  0  0  0  0  0  0
   17.8889  -15.0034  -16.3024 N   0  0  0  0  0  0  0  0  0  0  0  0
   18.2263  -12.9820  -17.6037 C   0  0  0  0  0  0  0  0  0  0  0  0
   18.8285  -12.3454  -18.4801 O   0  0  0  0  0  0  0  0  0  0  0  0
   17.4227  -12.2778  -16.6698 N   0  0  0  0  0  0  0  0  0  0  0  0
   17.2695  -10.8395  -16.6838 C   0  0  0  0  0  0  0  0  0  0  0  0
   18.1574  -10.1883  -15.6739 C   0  0  0  0  0  0  0  0  0  0  0  0
   18.4137  -10.7840  -14.5881 O   0  0  0  0  0  0  0  0  0  0  0  0
   22.5588   -9.4147  -13.2362 N   0  0  0  0  0  0  0  0  0  0  0  0
   22.1528   -8.7053  -14.4013 C   0  0  0  0  0  0  0  0  0  0  0  0
   22.7465   -7.6404  -14.7179 O   0  0  0  0  0  0  0  0  0  0  0  0
   21.0372   -9.2585  -15.1969 C   0  0  0  0  0  0  0  0  0  0  0  0
   19.8277   -8.3834  -15.1132 C   0  0  2  0  0  0  0  0  0  0  0  0
   18.7240   -8.9073  -15.9061 N   0  0  0  0  0  0  0  0  0  0  0  0
   20.1436   -6.9947  -15.4731 C   0  0  0  0  0  0  0  0  0  0  0  0
   20.5788   -6.0276  -14.5884 O   0  0  0  0  0  0  0  0  0  0  0  0
   20.0228   -6.5970  -16.6829 O   0  0  0  0  0  0  0  0  0  0  0  0
  2  1  1  1
  3  2  1  0
  4  2  1  0
  4  5  1  1
  6  8  1  0
  6  4  1  0
  7  6  2  0
  9  8  1  0
 10  9  1  0
 11 10  2  0
 13 12  1  0
 14 13  2  0
 15 13  1  0
 16 15  1  6
 16 17  1  0
 17 10  1  0
 18 19  1  0
 18 16  1  0
 20 18  2  0
M  END
$$$$
