VGN.pdb
     RDKit          3D

 20 19  0  0  1  0  0  0  0  0999 V2000
   17.1797  -10.0514  -18.7748 C   0  0  0  0  0  0  0  0  0  0  0  0
   17.4542  -11.1390  -17.7845 C   0  0  1  0  0  0  0  0  0  0  0  0
   17.5210  -12.4720  -18.5116 C   0  0  0  0  0  0  0  0  0  0  0  0
   18.7718  -10.9460  -17.0730 C   0  0  2  0  0  0  0  0  0  0  0  0
   18.9437  -12.0637  -16.1563 N   0  0  0  0  0  0  0  0  0  0  0  0
   18.8086   -9.6468  -16.3390 C   0  0  0  0  0  0  0  0  0  0  0  0
   18.9382   -8.5988  -16.9877 O   0  0  0  0  0  0  0  0  0  0  0  0
   18.7000   -9.5738  -14.9259 N   0  0  0  0  0  0  0  0  0  0  0  0
   18.6789   -8.3242  -14.1975 C   0  0  0  0  0  0  0  0  0  0  0  0
   20.0429   -7.7201  -14.1147 C   0  0  0  0  0  0  0  0  0  0  0  0
   21.0632   -8.4589  -14.2262 O   0  0  0  0  0  0  0  0  0  0  0  0
   23.9668   -5.1622  -16.8843 N   0  0  0  0  0  0  0  0  0  0  0  0
   23.3973   -5.2354  -15.5820 C   0  0  0  0  0  0  0  0  0  0  0  0
   24.0154   -4.7349  -14.6052 O   0  0  0  0  0  0  0  0  0  0  0  0
   22.0885   -5.9053  -15.4339 C   0  0  0  0  0  0  0  0  0  0  0  0
   21.5119   -5.6701  -14.0744 C   0  0  2  0  0  0  0  0  0  0  0  0
   20.2217   -6.3262  -13.9122 N   0  0  0  0  0  0  0  0  0  0  0  0
   21.4347   -4.2363  -13.7645 C   0  0  0  0  0  0  0  0  0  0  0  0
   20.2792   -3.4808  -13.7983 O   0  0  0  0  0  0  0  0  0  0  0  0
   22.4873   -3.5889  -13.4336 O   0  0  0  0  0  0  0  0  0  0  0  0
  2  1  1  6
  3  2  1  0
  4  2  1  0
  4  5  1  1
  6  8  1  0
  6  4  1  0
  7  6  2  0
  9  8  1  0
 10  9  1  0
 11 10  2  0
 13 12  1  0
 14 13  2  0
 15 13  1  0
 16 15  1  6
 16 17  1  0
 17 10  1  0
 18 19  1  0
 18 16  1  0
 20 18  2  0
M  END
$$$$
