VGN.pdb
     RDKit          3D

 20 19  0  0  1  0  0  0  0  0999 V2000
   25.3015  -14.1773  -15.8421 C   0  0  0  0  0  0  0  0  0  0  0  0
   25.6598  -15.5687  -15.4241 C   0  0  1  0  0  0  0  0  0  0  0  0
   24.3860  -16.3603  -15.1776 C   0  0  0  0  0  0  0  0  0  0  0  0
   26.4481  -16.2996  -16.4841 C   0  0  2  0  0  0  0  0  0  0  0  0
   25.6973  -16.2122  -17.7282 N   0  0  0  0  0  0  0  0  0  0  0  0
   26.6812  -17.7240  -16.1036 C   0  0  0  0  0  0  0  0  0  0  0  0
   25.8984  -18.5889  -16.5220 O   0  0  0  0  0  0  0  0  0  0  0  0
   27.7678  -18.1182  -15.2803 N   0  0  0  0  0  0  0  0  0  0  0  0
   27.9163  -19.4571  -14.7535 C   0  0  0  0  0  0  0  0  0  0  0  0
   27.1020  -19.6475  -13.5153 C   0  0  0  0  0  0  0  0  0  0  0  0
   26.4543  -18.6731  -13.0353 O   0  0  0  0  0  0  0  0  0  0  0  0
   25.0880  -21.4424   -9.2399 N   0  0  0  0  0  0  0  0  0  0  0  0
   26.0910  -20.4328   -9.2627 C   0  0  0  0  0  0  0  0  0  0  0  0
   26.3070  -19.7491   -8.2271 O   0  0  0  0  0  0  0  0  0  0  0  0
   26.8430  -20.2303  -10.5184 C   0  0  0  0  0  0  0  0  0  0  0  0
   26.3144  -21.1028  -11.6116 C   0  0  2  0  0  0  0  0  0  0  0  0
   27.0381  -20.9056  -12.8601 N   0  0  0  0  0  0  0  0  0  0  0  0
   24.8671  -20.9240  -11.7890 C   0  0  0  0  0  0  0  0  0  0  0  0
   23.8968  -21.7476  -11.2530 O   0  0  0  0  0  0  0  0  0  0  0  0
   24.4166  -19.9492  -12.4841 O   0  0  0  0  0  0  0  0  0  0  0  0
  2  1  1  6
  3  2  1  0
  4  2  1  0
  4  5  1  6
  6  8  1  0
  6  4  1  0
  7  6  2  0
  9  8  1  0
 10  9  1  0
 11 10  2  0
 13 12  1  0
 14 13  2  0
 15 13  1  0
 16 15  1  1
 16 17  1  0
 17 10  1  0
 18 19  1  0
 18 16  1  0
 20 18  2  0
M  END
$$$$
