GWR.pdb
     RDKit          3D

 30 31  0  0  1  0  0  0  0  0999 V2000
   20.8514  -20.1434   -9.7788 N   0  0  0  0  0  0  0  0  0  0  0  0
   21.9035  -21.0821   -9.4962 C   0  0  0  0  0  0  0  0  0  0  0  0
   23.2521  -20.4877   -9.7312 C   0  0  0  0  0  0  0  0  0  0  0  0
   23.3171  -19.2956  -10.1270 O   0  0  0  0  0  0  0  0  0  0  0  0
   24.4542  -21.1949   -9.5319 N   0  0  0  0  0  0  0  0  0  0  0  0
   25.7703  -20.6655   -9.8666 C   0  0  1  0  0  0  0  0  0  0  0  0
   26.8204  -21.1329   -8.9363 C   0  0  0  0  0  0  0  0  0  0  0  0
   26.7582  -20.6641   -7.5565 C   0  0  0  0  0  0  0  0  0  0  0  0
   25.6441  -20.8437   -6.7158 C   0  0  0  0  0  0  0  0  0  0  0  0
   25.9418  -20.3152   -5.5327 N   0  0  0  0  0  0  0  0  0  0  0  0
   27.1938  -19.7867   -5.5223 C   0  0  0  0  0  0  0  0  0  0  0  0
   27.9253  -19.1449   -4.5536 C   0  0  0  0  0  0  0  0  0  0  0  0
   29.1868  -18.7041   -4.8291 C   0  0  0  0  0  0  0  0  0  0  0  0
   29.7175  -18.9054   -6.0762 C   0  0  0  0  0  0  0  0  0  0  0  0
   28.9700  -19.5484   -7.0278 C   0  0  0  0  0  0  0  0  0  0  0  0
   27.6851  -20.0194   -6.8083 C   0  0  0  0  0  0  0  0  0  0  0  0
   26.0337  -20.8399  -11.2935 C   0  0  0  0  0  0  0  0  0  0  0  0
   25.6045  -21.9054  -11.8609 O   0  0  0  0  0  0  0  0  0  0  0  0
   26.8897  -16.2246  -18.2741 N   0  0  0  0  0  0  0  0  0  0  0  0
   26.1896  -15.9671  -17.0507 C   0  0  0  0  0  0  0  0  0  0  0  0
   25.0297  -15.3693  -17.0808 N   0  0  0  0  0  0  0  0  0  0  0  0
   26.8162  -16.3876  -15.8650 N   0  0  0  0  0  0  0  0  0  0  0  0
   27.9938  -17.2925  -16.0041 C   0  0  0  0  0  0  0  0  0  0  0  0
   27.5179  -18.6178  -15.5202 C   0  0  0  0  0  0  0  0  0  0  0  0
   27.2193  -18.8050  -14.1063 C   0  0  0  0  0  0  0  0  0  0  0  0
   26.8016  -20.1292  -13.5712 C   0  0  2  0  0  0  0  0  0  0  0  0
   26.7266  -19.8967  -12.0789 N   0  0  0  0  0  0  0  0  0  0  0  0
   27.8697  -21.1314  -13.6718 C   0  0  0  0  0  0  0  0  0  0  0  0
   28.0162  -21.8305  -14.8972 O   0  0  0  0  0  0  0  0  0  0  0  0
   28.6403  -21.4011  -12.7570 O   0  0  0  0  0  0  0  0  0  0  0  0
  1  2  1  0
  2  3  1  0
  3  4  2  0
  5  6  1  0
  5  3  1  0
  6  7  1  1
  7  8  1  0
  8 16  1  0
  9 10  1  0
  9  8  2  0
 10 11  1  0
 11 16  2  0
 11 12  1  0
 12 13  2  0
 13 14  1  0
 15 14  2  0
 16 15  1  0
 17  6  1  0
 17 18  2  0
 20 19  1  0
 21 20  2  0
 22 20  1  0
 23 22  1  0
 24 23  1  0
 24 25  1  0
 26 27  1  0
 26 25  1  6
 27 17  1  0
 28 26  1  0
 29 28  1  0
 30 28  2  0
M  END
$$$$
