GWR.pdb
     RDKit          3D

 30 31  0  0  1  0  0  0  0  0999 V2000
   29.6547  -22.8120  -15.4094 N   0  0  0  0  0  0  0  0  0  0  0  0
   29.4502  -21.5277  -14.7959 C   0  0  0  0  0  0  0  0  0  0  0  0
   28.4714  -21.6020  -13.6717 C   0  0  0  0  0  0  0  0  0  0  0  0
   27.3467  -22.1194  -13.8941 O   0  0  0  0  0  0  0  0  0  0  0  0
   28.7446  -21.1219  -12.3756 N   0  0  0  0  0  0  0  0  0  0  0  0
   27.7748  -21.1308  -11.2876 C   0  0  1  0  0  0  0  0  0  0  0  0
   28.3979  -20.8645   -9.9733 C   0  0  0  0  0  0  0  0  0  0  0  0
   27.5135  -20.7278   -8.8215 C   0  0  0  0  0  0  0  0  0  0  0  0
   26.1104  -20.8072   -8.8952 C   0  0  0  0  0  0  0  0  0  0  0  0
   25.6325  -20.6606   -7.6633 N   0  0  0  0  0  0  0  0  0  0  0  0
   26.6307  -20.4858   -6.7576 C   0  0  0  0  0  0  0  0  0  0  0  0
   26.6309  -20.2937   -5.3981 C   0  0  0  0  0  0  0  0  0  0  0  0
   27.8101  -20.1375   -4.7298 C   0  0  0  0  0  0  0  0  0  0  0  0
   28.9915  -20.1731   -5.4230 C   0  0  0  0  0  0  0  0  0  0  0  0
   28.9680  -20.3662   -6.7795 C   0  0  0  0  0  0  0  0  0  0  0  0
   27.8039  -20.5318   -7.5131 C   0  0  0  0  0  0  0  0  0  0  0  0
   26.6159  -20.3135  -11.6412 C   0  0  0  0  0  0  0  0  0  0  0  0
   26.8255  -19.1660  -12.1712 O   0  0  0  0  0  0  0  0  0  0  0  0
   20.4887  -21.3916  -16.7376 N   0  0  0  0  0  0  0  0  0  0  0  0
   21.2920  -22.4382  -16.1789 C   0  0  0  0  0  0  0  0  0  0  0  0
   21.2264  -23.6426  -16.6777 N   0  0  0  0  0  0  0  0  0  0  0  0
   22.1215  -22.0887  -15.0995 N   0  0  0  0  0  0  0  0  0  0  0  0
   21.9637  -20.7153  -14.5397 C   0  0  0  0  0  0  0  0  0  0  0  0
   23.3290  -20.1230  -14.5867 C   0  0  0  0  0  0  0  0  0  0  0  0
   24.3063  -20.4810  -13.5669 C   0  0  0  0  0  0  0  0  0  0  0  0
   24.1889  -19.9791  -12.1710 C   0  0  2  0  0  0  0  0  0  0  0  0
   25.2826  -20.7227  -11.4378 N   0  0  0  0  0  0  0  0  0  0  0  0
   22.9798  -20.4747  -11.5019 C   0  0  0  0  0  0  0  0  0  0  0  0
   21.8639  -19.6042  -11.4085 O   0  0  0  0  0  0  0  0  0  0  0  0
   22.8799  -21.5962  -11.0166 O   0  0  0  0  0  0  0  0  0  0  0  0
  1  2  1  0
  2  3  1  0
  3  4  2  0
  5  6  1  0
  5  3  1  0
  6  7  1  1
  7  8  1  0
  8 16  1  0
  9 10  1  0
  9  8  2  0
 10 11  1  0
 11 16  2  0
 11 12  1  0
 12 13  2  0
 13 14  1  0
 15 14  2  0
 16 15  1  0
 17  6  1  0
 17 18  2  0
 20 19  1  0
 21 20  2  0
 22 20  1  0
 23 22  1  0
 24 23  1  0
 24 25  1  0
 26 27  1  0
 26 25  1  6
 27 17  1  0
 28 26  1  0
 29 28  1  0
 30 28  2  0
M  END
$$$$
