GWR.pdb
     RDKit          3D

 30 31  0  0  1  0  0  0  0  0999 V2000
   28.6276  -21.5861  -14.6896 N   0  0  0  0  0  0  0  0  0  0  0  0
   28.6560  -20.6571  -13.5923 C   0  0  0  0  0  0  0  0  0  0  0  0
   27.7047  -21.0495  -12.5114 C   0  0  0  0  0  0  0  0  0  0  0  0
   27.3080  -22.2424  -12.4709 O   0  0  0  0  0  0  0  0  0  0  0  0
   27.2296  -20.1510  -11.5357 N   0  0  0  0  0  0  0  0  0  0  0  0
   26.2937  -20.5209  -10.4814 C   0  0  1  0  0  0  0  0  0  0  0  0
   26.5873  -19.8410   -9.2015 C   0  0  0  0  0  0  0  0  0  0  0  0
   27.7637  -20.2783   -8.4584 C   0  0  0  0  0  0  0  0  0  0  0  0
   28.7969  -21.0574   -9.0115 C   0  0  0  0  0  0  0  0  0  0  0  0
   29.7097  -21.2489   -8.0640 N   0  0  0  0  0  0  0  0  0  0  0  0
   29.3552  -20.6448   -6.8993 C   0  0  0  0  0  0  0  0  0  0  0  0
   29.9598  -20.5680   -5.6690 C   0  0  0  0  0  0  0  0  0  0  0  0
   29.3595  -19.8821   -4.6537 C   0  0  0  0  0  0  0  0  0  0  0  0
   28.1517  -19.2720   -4.8697 C   0  0  0  0  0  0  0  0  0  0  0  0
   27.5663  -19.3612   -6.1054 C   0  0  0  0  0  0  0  0  0  0  0  0
   28.1265  -20.0418   -7.1750 C   0  0  0  0  0  0  0  0  0  0  0  0
   24.9207  -20.4277  -10.9732 C   0  0  0  0  0  0  0  0  0  0  0  0
   24.5434  -19.3249  -11.5053 O   0  0  0  0  0  0  0  0  0  0  0  0
   19.5416  -26.2712  -13.1715 N   0  0  0  0  0  0  0  0  0  0  0  0
   18.6766  -25.1913  -13.5439 C   0  0  0  0  0  0  0  0  0  0  0  0
   17.3932  -25.3987  -13.6597 N   0  0  0  0  0  0  0  0  0  0  0  0
   19.2850  -23.9440  -13.7662 N   0  0  0  0  0  0  0  0  0  0  0  0
   20.7419  -23.8365  -13.4652 C   0  0  0  0  0  0  0  0  0  0  0  0
   20.8201  -22.9786  -12.2508 C   0  0  0  0  0  0  0  0  0  0  0  0
   22.1168  -22.6964  -11.6489 C   0  0  0  0  0  0  0  0  0  0  0  0
   22.6555  -21.3109  -11.5831 C   0  0  2  0  0  0  0  0  0  0  0  0
   23.9935  -21.4868  -10.9007 N   0  0  0  0  0  0  0  0  0  0  0  0
   21.9274  -20.4766  -10.6191 C   0  0  0  0  0  0  0  0  0  0  0  0
   22.3414  -20.5074   -9.2628 O   0  0  0  0  0  0  0  0  0  0  0  0
   20.9805  -19.7573  -10.9180 O   0  0  0  0  0  0  0  0  0  0  0  0
  1  2  1  0
  2  3  1  0
  3  4  2  0
  5  6  1  0
  5  3  1  0
  6  7  1  1
  7  8  1  0
  8 16  1  0
  9 10  1  0
  9  8  2  0
 10 11  1  0
 11 16  2  0
 11 12  1  0
 12 13  2  0
 13 14  1  0
 15 14  2  0
 16 15  1  0
 17  6  1  0
 17 18  2  0
 20 19  1  0
 21 20  2  0
 22 20  1  0
 23 22  1  0
 24 23  1  0
 24 25  1  0
 26 27  1  0
 26 25  1  1
 27 17  1  0
 28 26  1  0
 29 28  1  0
 30 28  2  0
M  END
$$$$
