GWR.pdb
     RDKit          3D

 30 31  0  0  1  0  0  0  0  0999 V2000
   28.2393  -23.1048  -15.2252 N   0  0  0  0  0  0  0  0  0  0  0  0
   27.9093  -21.8168  -14.6775 C   0  0  0  0  0  0  0  0  0  0  0  0
   27.0305  -21.9356  -13.4772 C   0  0  0  0  0  0  0  0  0  0  0  0
   26.4140  -23.0167  -13.2946 O   0  0  0  0  0  0  0  0  0  0  0  0
   26.8575  -20.8982  -12.5397 N   0  0  0  0  0  0  0  0  0  0  0  0
   25.8685  -20.9302  -11.4696 C   0  0  1  0  0  0  0  0  0  0  0  0
   26.2462  -20.0729  -10.3256 C   0  0  0  0  0  0  0  0  0  0  0  0
   27.4666  -20.4109   -9.6019 C   0  0  0  0  0  0  0  0  0  0  0  0
   28.5199  -21.1669  -10.1490 C   0  0  0  0  0  0  0  0  0  0  0  0
   29.4713  -21.2617   -9.2251 N   0  0  0  0  0  0  0  0  0  0  0  0
   29.1239  -20.6138   -8.0821 C   0  0  0  0  0  0  0  0  0  0  0  0
   29.7630  -20.4409   -6.8792 C   0  0  0  0  0  0  0  0  0  0  0  0
   29.1613  -19.7316   -5.8810 C   0  0  0  0  0  0  0  0  0  0  0  0
   27.9176  -19.1942   -6.0865 C   0  0  0  0  0  0  0  0  0  0  0  0
   27.2982  -19.3788   -7.2948 C   0  0  0  0  0  0  0  0  0  0  0  0
   27.8579  -20.0878   -8.3460 C   0  0  0  0  0  0  0  0  0  0  0  0
   24.5279  -20.7372  -12.0188 C   0  0  0  0  0  0  0  0  0  0  0  0
   24.3235  -19.7186  -12.7686 O   0  0  0  0  0  0  0  0  0  0  0  0
   21.9227  -26.2191  -14.5161 N   0  0  0  0  0  0  0  0  0  0  0  0
   22.9085  -25.8051  -15.4698 C   0  0  0  0  0  0  0  0  0  0  0  0
   23.7535  -26.6769  -15.9491 N   0  0  0  0  0  0  0  0  0  0  0  0
   22.9003  -24.4484  -15.8368 N   0  0  0  0  0  0  0  0  0  0  0  0
   21.9041  -23.5685  -15.1600 C   0  0  0  0  0  0  0  0  0  0  0  0
   22.3117  -23.5592  -13.7279 C   0  0  0  0  0  0  0  0  0  0  0  0
   21.6179  -22.6903  -12.7859 C   0  0  0  0  0  0  0  0  0  0  0  0
   22.1335  -21.3333  -12.4592 C   0  0  2  0  0  0  0  0  0  0  0  0
   23.4521  -21.6145  -11.7745 N   0  0  0  0  0  0  0  0  0  0  0  0
   21.3633  -20.6891  -11.3880 C   0  0  0  0  0  0  0  0  0  0  0  0
   20.1114  -20.1113  -11.7204 O   0  0  0  0  0  0  0  0  0  0  0  0
   21.7412  -20.6191  -10.2237 O   0  0  0  0  0  0  0  0  0  0  0  0
  1  2  1  0
  2  3  1  0
  3  4  2  0
  5  6  1  0
  5  3  1  0
  6  7  1  1
  7  8  1  0
  8 16  1  0
  9 10  1  0
  9  8  2  0
 10 11  1  0
 11 16  2  0
 11 12  1  0
 12 13  2  0
 13 14  1  0
 15 14  2  0
 16 15  1  0
 17  6  1  0
 17 18  2  0
 20 19  1  0
 21 20  2  0
 22 20  1  0
 23 22  1  0
 24 23  1  0
 24 25  1  0
 26 27  1  0
 26 25  1  1
 27 17  1  0
 28 26  1  0
 29 28  1  0
 30 28  2  0
M  END
$$$$
