GWR.pdb
     RDKit          3D

 30 31  0  0  1  0  0  0  0  0999 V2000
   26.6229  -24.9627  -16.1637 N   0  0  0  0  0  0  0  0  0  0  0  0
   26.7582  -23.5415  -15.9920 C   0  0  0  0  0  0  0  0  0  0  0  0
   26.1605  -23.0812  -14.7043 C   0  0  0  0  0  0  0  0  0  0  0  0
   25.5685  -23.9273  -13.9861 O   0  0  0  0  0  0  0  0  0  0  0  0
   26.2264  -21.7478  -14.2541 N   0  0  0  0  0  0  0  0  0  0  0  0
   25.6462  -21.2872  -12.9989 C   0  0  1  0  0  0  0  0  0  0  0  0
   26.4258  -20.1910  -12.3849 C   0  0  0  0  0  0  0  0  0  0  0  0
   27.5225  -20.5575  -11.4958 C   0  0  0  0  0  0  0  0  0  0  0  0
   28.7349  -21.1205  -11.9356 C   0  0  0  0  0  0  0  0  0  0  0  0
   29.5053  -21.3048  -10.8678 N   0  0  0  0  0  0  0  0  0  0  0  0
   28.8851  -20.8995   -9.7284 C   0  0  0  0  0  0  0  0  0  0  0  0
   29.2698  -20.8950   -8.4104 C   0  0  0  0  0  0  0  0  0  0  0  0
   28.4210  -20.4233   -7.4519 C   0  0  0  0  0  0  0  0  0  0  0  0
   27.1847  -19.9553   -7.8128 C   0  0  0  0  0  0  0  0  0  0  0  0
   26.8215  -19.9689   -9.1340 C   0  0  0  0  0  0  0  0  0  0  0  0
   27.6389  -20.4340  -10.1520 C   0  0  0  0  0  0  0  0  0  0  0  0
   24.2118  -21.0597  -13.1624 C   0  0  0  0  0  0  0  0  0  0  0  0
   23.8201  -20.3771  -14.1735 O   0  0  0  0  0  0  0  0  0  0  0  0
   17.6423  -24.0045  -10.0737 N   0  0  0  0  0  0  0  0  0  0  0  0
   16.8694  -23.4912  -11.1655 C   0  0  0  0  0  0  0  0  0  0  0  0
   15.5942  -23.2627  -11.0064 N   0  0  0  0  0  0  0  0  0  0  0  0
   17.5553  -23.2610  -12.3704 N   0  0  0  0  0  0  0  0  0  0  0  0
   19.0247  -23.5169  -12.3741 C   0  0  0  0  0  0  0  0  0  0  0  0
   19.6182  -22.3531  -11.6598 C   0  0  0  0  0  0  0  0  0  0  0  0
   21.0660  -22.1919  -11.6213 C   0  0  0  0  0  0  0  0  0  0  0  0
   21.7812  -21.3686  -12.6336 C   0  0  2  0  0  0  0  0  0  0  0  0
   23.2377  -21.5568  -12.2732 N   0  0  0  0  0  0  0  0  0  0  0  0
   21.5944  -19.9293  -12.4122 C   0  0  0  0  0  0  0  0  0  0  0  0
   20.7238  -19.2270  -13.2844 O   0  0  0  0  0  0  0  0  0  0  0  0
   22.1497  -19.2989  -11.5191 O   0  0  0  0  0  0  0  0  0  0  0  0
  1  2  1  0
  2  3  1  0
  3  4  2  0
  5  6  1  0
  5  3  1  0
  6  7  1  6
  7  8  1  0
  8 16  1  0
  9 10  1  0
  9  8  2  0
 10 11  1  0
 11 16  2  0
 11 12  1  0
 12 13  2  0
 13 14  1  0
 15 14  2  0
 16 15  1  0
 17  6  1  0
 17 18  2  0
 20 19  1  0
 21 20  2  0
 22 20  1  0
 23 22  1  0
 24 23  1  0
 24 25  1  0
 26 27  1  0
 26 25  1  1
 27 17  1  0
 28 26  1  0
 29 28  1  0
 30 28  2  0
M  END
$$$$
