LGM.pdb
     RDKit          3D

 21 20  0  0  1  0  0  0  0  0999 V2000
   14.8676  -11.8460  -17.8893 C   0  0  0  0  0  0  0  0  0  0  0  0
   16.2989  -11.5467  -18.3798 C   0  0  2  0  0  0  0  0  0  0  0  0
   16.8141  -12.7879  -19.0135 C   0  0  0  0  0  0  0  0  0  0  0  0
   17.0336  -11.0078  -17.2167 C   0  0  0  0  0  0  0  0  0  0  0  0
   16.5127   -9.7204  -16.6473 C   0  0  2  0  0  0  0  0  0  0  0  0
   16.5575   -8.6401  -17.6136 N   0  0  0  0  0  0  0  0  0  0  0  0
   17.2033   -9.3271  -15.4329 C   0  0  0  0  0  0  0  0  0  0  0  0
   17.2879  -10.1133  -14.4268 O   0  0  0  0  0  0  0  0  0  0  0  0
   17.8159   -8.0223  -15.3460 N   0  0  0  0  0  0  0  0  0  0  0  0
   18.5703   -7.7352  -14.1819 C   0  0  0  0  0  0  0  0  0  0  0  0
   20.0317   -7.6680  -14.3472 C   0  0  0  0  0  0  0  0  0  0  0  0
   20.6910   -7.0587  -13.4291 O   0  0  0  0  0  0  0  0  0  0  0  0
   26.8376  -11.1775  -15.5968 C   0  0  0  0  0  0  0  0  0  0  0  0
   25.0591  -11.1464  -15.5558 S   0  0  0  0  0  0  0  0  0  0  0  0
   24.3189   -9.5489  -15.4862 C   0  0  0  0  0  0  0  0  0  0  0  0
   22.8677   -9.4121  -15.3485 C   0  0  0  0  0  0  0  0  0  0  0  0
   22.2778   -8.0404  -15.4069 C   0  0  2  0  0  0  0  0  0  0  0  0
   20.7838   -8.1958  -15.3963 N   0  0  0  0  0  0  0  0  0  0  0  0
   22.5582   -7.3298  -16.6453 C   0  0  0  0  0  0  0  0  0  0  0  0
   23.6264   -6.4829  -16.7828 O   0  0  0  0  0  0  0  0  0  0  0  0
   21.8146   -7.4692  -17.6399 O   0  0  0  0  0  0  0  0  0  0  0  0
  2  3  1  1
  2  1  1  0
  4  2  1  0
  5  4  1  0
  5  6  1  6
  7  5  1  0
  7  8  2  0
  9  7  1  0
 10  9  1  0
 10 11  1  0
 11 18  1  0
 12 11  2  0
 14 13  1  0
 15 14  1  0
 16 15  1  0
 17 16  1  6
 18 17  1  0
 19 20  1  0
 19 17  1  0
 21 19  2  0
M  END
$$$$
