LGM.pdb
     RDKit          3D

 21 20  0  0  1  0  0  0  0  0999 V2000
   25.9506  -15.7065  -17.3143 C   0  0  0  0  0  0  0  0  0  0  0  0
   26.5206  -15.3023  -15.9393 C   0  0  2  0  0  0  0  0  0  0  0  0
   27.3099  -14.0596  -16.1397 C   0  0  0  0  0  0  0  0  0  0  0  0
   27.2239  -16.4910  -15.4144 C   0  0  0  0  0  0  0  0  0  0  0  0
   26.3741  -17.7035  -15.1676 C   0  0  2  0  0  0  0  0  0  0  0  0
   25.2493  -17.4127  -14.2999 N   0  0  0  0  0  0  0  0  0  0  0  0
   27.1346  -18.8191  -14.6350 C   0  0  0  0  0  0  0  0  0  0  0  0
   28.0855  -19.3587  -15.2998 O   0  0  0  0  0  0  0  0  0  0  0  0
   26.8227  -19.3399  -13.3247 N   0  0  0  0  0  0  0  0  0  0  0  0
   27.5645  -20.4609  -12.8780 C   0  0  0  0  0  0  0  0  0  0  0  0
   27.3428  -20.8814  -11.4845 C   0  0  0  0  0  0  0  0  0  0  0  0
   27.9041  -21.9750  -11.1132 O   0  0  0  0  0  0  0  0  0  0  0  0
   29.2317  -19.5005   -5.5901 C   0  0  0  0  0  0  0  0  0  0  0  0
   27.4619  -19.5864   -5.4285 S   0  0  0  0  0  0  0  0  0  0  0  0
   26.6074  -20.3913   -6.7426 C   0  0  0  0  0  0  0  0  0  0  0  0
   26.9580  -20.1074   -8.1355 C   0  0  0  0  0  0  0  0  0  0  0  0
   26.2781  -20.8922   -9.2101 C   0  0  2  0  0  0  0  0  0  0  0  0
   26.5865  -20.2199  -10.5175 N   0  0  0  0  0  0  0  0  0  0  0  0
   24.8256  -20.8710   -9.1270 C   0  0  0  0  0  0  0  0  0  0  0  0
   24.0390  -20.3389  -10.1146 O   0  0  0  0  0  0  0  0  0  0  0  0
   24.2395  -21.3424   -8.1290 O   0  0  0  0  0  0  0  0  0  0  0  0
  2  3  1  6
  2  1  1  0
  4  2  1  0
  5  4  1  0
  5  6  1  1
  7  5  1  0
  7  8  2  0
  9  7  1  0
 10  9  1  0
 10 11  1  0
 11 18  1  0
 12 11  2  0
 14 13  1  0
 15 14  1  0
 16 15  1  0
 17 16  1  1
 18 17  1  0
 19 20  1  0
 19 17  1  0
 21 19  2  0
M  END
$$$$
