LGM.pdb
     RDKit          3D

 21 20  0  0  1  0  0  0  0  0999 V2000
   25.1565  -15.4688  -17.1903 C   0  0  0  0  0  0  0  0  0  0  0  0
   26.6894  -15.5718  -17.0547 C   0  0  2  0  0  0  0  0  0  0  0  0
   27.2757  -15.1046  -18.3374 C   0  0  0  0  0  0  0  0  0  0  0  0
   26.9775  -16.9562  -16.6265 C   0  0  0  0  0  0  0  0  0  0  0  0
   26.3004  -17.4102  -15.3661 C   0  0  2  0  0  0  0  0  0  0  0  0
   26.6357  -16.5681  -14.2342 N   0  0  0  0  0  0  0  0  0  0  0  0
   26.5816  -18.7987  -15.0503 C   0  0  0  0  0  0  0  0  0  0  0  0
   26.1719  -19.7515  -15.7999 O   0  0  0  0  0  0  0  0  0  0  0  0
   27.3425  -19.1259  -13.8674 N   0  0  0  0  0  0  0  0  0  0  0  0
   27.5126  -20.4990  -13.5638 C   0  0  0  0  0  0  0  0  0  0  0  0
   26.6939  -21.0339  -12.4632 C   0  0  0  0  0  0  0  0  0  0  0  0
   26.2446  -22.2287  -12.6034 O   0  0  0  0  0  0  0  0  0  0  0  0
   27.0725  -18.4353   -6.6729 C   0  0  0  0  0  0  0  0  0  0  0  0
   27.6116  -20.1231   -6.8357 S   0  0  0  0  0  0  0  0  0  0  0  0
   26.8983  -21.0338   -8.1648 C   0  0  0  0  0  0  0  0  0  0  0  0
   25.7866  -20.4711   -8.9335 C   0  0  0  0  0  0  0  0  0  0  0  0
   25.4754  -21.0681  -10.2676 C   0  0  2  0  0  0  0  0  0  0  0  0
   26.3504  -20.3834  -11.2786 N   0  0  0  0  0  0  0  0  0  0  0  0
   24.1199  -20.8085  -10.7285 C   0  0  0  0  0  0  0  0  0  0  0  0
   23.0242  -21.4155  -10.1732 O   0  0  0  0  0  0  0  0  0  0  0  0
   23.9100  -20.0116  -11.6679 O   0  0  0  0  0  0  0  0  0  0  0  0
  2  3  1  6
  2  1  1  0
  4  2  1  0
  5  4  1  0
  5  6  1  1
  7  5  1  0
  7  8  2  0
  9  7  1  0
 10  9  1  0
 10 11  1  0
 11 18  1  0
 12 11  2  0
 14 13  1  0
 15 14  1  0
 16 15  1  0
 17 16  1  1
 18 17  1  0
 19 20  1  0
 19 17  1  0
 21 19  2  0
M  END
$$$$
