LGM.pdb
     RDKit          3D

 21 20  0  0  1  0  0  0  0  0999 V2000
   25.5926  -16.0238  -14.3791 C   0  0  0  0  0  0  0  0  0  0  0  0
   26.7556  -16.9491  -14.7916 C   0  0  2  0  0  0  0  0  0  0  0  0
   27.8894  -16.0767  -15.1924 C   0  0  0  0  0  0  0  0  0  0  0  0
   26.2093  -17.8801  -15.8005 C   0  0  0  0  0  0  0  0  0  0  0  0
   25.5288  -19.1063  -15.2652 C   0  0  2  0  0  0  0  0  0  0  0  0
   24.4770  -18.7776  -14.3226 N   0  0  0  0  0  0  0  0  0  0  0  0
   26.4592  -20.0426  -14.6618 C   0  0  0  0  0  0  0  0  0  0  0  0
   27.4739  -20.4851  -15.3038 O   0  0  0  0  0  0  0  0  0  0  0  0
   26.2480  -20.4911  -13.3055 N   0  0  0  0  0  0  0  0  0  0  0  0
   27.2539  -21.3025  -12.7256 C   0  0  0  0  0  0  0  0  0  0  0  0
   27.2146  -21.4502  -11.2613 C   0  0  0  0  0  0  0  0  0  0  0  0
   27.6991  -22.5356  -10.7754 O   0  0  0  0  0  0  0  0  0  0  0  0
   28.9817  -18.5624   -5.8386 C   0  0  0  0  0  0  0  0  0  0  0  0
   27.4312  -19.2794   -5.3407 S   0  0  0  0  0  0  0  0  0  0  0  0
   26.5874  -20.2180   -6.5702 C   0  0  0  0  0  0  0  0  0  0  0  0
   26.9759  -20.1110   -7.9777 C   0  0  0  0  0  0  0  0  0  0  0  0
   26.2942  -20.9973   -8.9691 C   0  0  2  0  0  0  0  0  0  0  0  0
   26.7068  -20.5367  -10.3381 N   0  0  0  0  0  0  0  0  0  0  0  0
   24.8442  -20.8765   -8.9693 C   0  0  0  0  0  0  0  0  0  0  0  0
   24.0560  -21.4646   -8.0152 O   0  0  0  0  0  0  0  0  0  0  0  0
   24.2613  -20.2238   -9.8613 O   0  0  0  0  0  0  0  0  0  0  0  0
  2  3  1  6
  2  1  1  0
  4  2  1  0
  5  4  1  0
  5  6  1  1
  7  5  1  0
  7  8  2  0
  9  7  1  0
 10  9  1  0
 10 11  1  0
 11 18  1  0
 12 11  2  0
 14 13  1  0
 15 14  1  0
 16 15  1  0
 17 16  1  1
 18 17  1  0
 19 20  1  0
 19 17  1  0
 21 19  2  0
M  END
$$$$
