LGM.pdb
     RDKit          3D

 21 20  0  0  1  0  0  0  0  0999 V2000
   23.4681  -18.1768  -16.7331 C   0  0  0  0  0  0  0  0  0  0  0  0
   25.0007  -18.3015  -16.8528 C   0  0  2  0  0  0  0  0  0  0  0  0
   25.3279  -18.3162  -18.3019 C   0  0  0  0  0  0  0  0  0  0  0  0
   25.3872  -19.4765  -16.0447 C   0  0  0  0  0  0  0  0  0  0  0  0
   25.3419  -19.2955  -14.5553 C   0  0  2  0  0  0  0  0  0  0  0  0
   25.5715  -17.9173  -14.1671 N   0  0  0  0  0  0  0  0  0  0  0  0
   26.2700  -20.1670  -13.8585 C   0  0  0  0  0  0  0  0  0  0  0  0
   26.2365  -21.4373  -14.0092 O   0  0  0  0  0  0  0  0  0  0  0  0
   27.2609  -19.6001  -12.9741 N   0  0  0  0  0  0  0  0  0  0  0  0
   28.1442  -20.4989  -12.3272 C   0  0  0  0  0  0  0  0  0  0  0  0
   27.7777  -20.9105  -10.9620 C   0  0  0  0  0  0  0  0  0  0  0  0
   28.5860  -21.7064  -10.3603 O   0  0  0  0  0  0  0  0  0  0  0  0
   28.9881  -20.0014   -4.1375 C   0  0  0  0  0  0  0  0  0  0  0  0
   28.2042  -19.1384   -5.4815 S   0  0  0  0  0  0  0  0  0  0  0  0
   27.1709  -20.1136   -6.5237 C   0  0  0  0  0  0  0  0  0  0  0  0
   27.3215  -20.0535   -7.9787 C   0  0  0  0  0  0  0  0  0  0  0  0
   26.4751  -20.9572   -8.8154 C   0  0  2  0  0  0  0  0  0  0  0  0
   26.6435  -20.5297  -10.2456 N   0  0  0  0  0  0  0  0  0  0  0  0
   25.0476  -20.8272   -8.5654 C   0  0  0  0  0  0  0  0  0  0  0  0
   24.1933  -20.2404   -9.4616 O   0  0  0  0  0  0  0  0  0  0  0  0
   24.5480  -21.2508   -7.5012 O   0  0  0  0  0  0  0  0  0  0  0  0
  2  3  1  6
  2  1  1  0
  4  2  1  0
  5  4  1  0
  5  6  1  6
  7  5  1  0
  7  8  2  0
  9  7  1  0
 10  9  1  0
 10 11  1  0
 11 18  1  0
 12 11  2  0
 14 13  1  0
 15 14  1  0
 16 15  1  0
 17 16  1  1
 18 17  1  0
 19 20  1  0
 19 17  1  0
 21 19  2  0
M  END
$$$$
