LGM.pdb
     RDKit          3D

 21 20  0  0  1  0  0  0  0  0999 V2000
   21.1375  -18.4085  -15.6784 C   0  0  0  0  0  0  0  0  0  0  0  0
   22.4238  -19.2002  -15.3663 C   0  0  2  0  0  0  0  0  0  0  0  0
   23.3511  -18.9991  -16.5096 C   0  0  0  0  0  0  0  0  0  0  0  0
   21.9981  -20.5806  -15.0558 C   0  0  0  0  0  0  0  0  0  0  0  0
   21.6626  -20.8591  -13.6196 C   0  0  2  0  0  0  0  0  0  0  0  0
   21.2932  -19.6538  -12.9030 N   0  0  0  0  0  0  0  0  0  0  0  0
   22.7337  -21.5430  -12.9185 C   0  0  0  0  0  0  0  0  0  0  0  0
   23.2843  -22.5933  -13.3992 O   0  0  0  0  0  0  0  0  0  0  0  0
   23.2001  -21.0352  -11.6497 N   0  0  0  0  0  0  0  0  0  0  0  0
   24.2615  -21.7320  -11.0217 C   0  0  0  0  0  0  0  0  0  0  0  0
   25.3533  -20.9097  -10.4746 C   0  0  0  0  0  0  0  0  0  0  0  0
   25.4417  -19.7033  -10.9055 O   0  0  0  0  0  0  0  0  0  0  0  0
   27.2438  -19.9074   -4.3349 C   0  0  0  0  0  0  0  0  0  0  0  0
   28.7322  -19.5932   -5.2578 S   0  0  0  0  0  0  0  0  0  0  0  0
   28.5648  -19.5955   -7.0119 C   0  0  0  0  0  0  0  0  0  0  0  0
   27.5609  -20.4433   -7.6574 C   0  0  0  0  0  0  0  0  0  0  0  0
   27.4073  -20.3533   -9.1411 C   0  0  2  0  0  0  0  0  0  0  0  0
   26.3075  -21.2978   -9.5346 N   0  0  0  0  0  0  0  0  0  0  0  0
   28.5678  -20.8210   -9.8839 C   0  0  0  0  0  0  0  0  0  0  0  0
   29.6243  -20.0041  -10.1904 O   0  0  0  0  0  0  0  0  0  0  0  0
   28.6350  -22.0050  -10.2777 O   0  0  0  0  0  0  0  0  0  0  0  0
  2  3  1  6
  2  1  1  0
  4  2  1  0
  5  4  1  0
  5  6  1  1
  7  5  1  0
  7  8  2  0
  9  7  1  0
 10  9  1  0
 10 11  1  0
 11 18  1  0
 12 11  2  0
 14 13  1  0
 15 14  1  0
 16 15  1  0
 17 16  1  1
 18 17  1  0
 19 20  1  0
 19 17  1  0
 21 19  2  0
M  END
$$$$
