LGM.pdb
     RDKit          3D

 21 20  0  0  1  0  0  0  0  0999 V2000
   21.0895  -21.1584  -17.0271 C   0  0  0  0  0  0  0  0  0  0  0  0
   21.1581  -20.9842  -15.4962 C   0  0  2  0  0  0  0  0  0  0  0  0
   19.8012  -20.5883  -15.0384 C   0  0  0  0  0  0  0  0  0  0  0  0
   22.2755  -20.0542  -15.2325 C   0  0  0  0  0  0  0  0  0  0  0  0
   23.6422  -20.5404  -15.6182 C   0  0  2  0  0  0  0  0  0  0  0  0
   23.6667  -21.9723  -15.8455 N   0  0  0  0  0  0  0  0  0  0  0  0
   24.6587  -20.1757  -14.6485 C   0  0  0  0  0  0  0  0  0  0  0  0
   24.8411  -18.9593  -14.2958 O   0  0  0  0  0  0  0  0  0  0  0  0
   25.4882  -21.2000  -14.0586 N   0  0  0  0  0  0  0  0  0  0  0  0
   26.4671  -20.7841  -13.1231 C   0  0  0  0  0  0  0  0  0  0  0  0
   26.2252  -21.1445  -11.7163 C   0  0  0  0  0  0  0  0  0  0  0  0
   25.6271  -22.2598  -11.4987 O   0  0  0  0  0  0  0  0  0  0  0  0
   29.4351  -19.1780   -6.0065 C   0  0  0  0  0  0  0  0  0  0  0  0
   27.7282  -19.4713   -5.5987 S   0  0  0  0  0  0  0  0  0  0  0  0
   26.7881  -20.3458   -6.8055 C   0  0  0  0  0  0  0  0  0  0  0  0
   27.0147  -20.1093   -8.2325 C   0  0  0  0  0  0  0  0  0  0  0  0
   26.2206  -20.9059   -9.2163 C   0  0  2  0  0  0  0  0  0  0  0  0
   26.5758  -20.4049  -10.5872 N   0  0  0  0  0  0  0  0  0  0  0  0
   24.7833  -20.7011   -9.1182 C   0  0  0  0  0  0  0  0  0  0  0  0
   23.9972  -21.4044   -8.2438 O   0  0  0  0  0  0  0  0  0  0  0  0
   24.2098  -19.8641   -9.8475 O   0  0  0  0  0  0  0  0  0  0  0  0
  2  3  1  6
  2  1  1  0
  4  2  1  0
  5  4  1  0
  5  6  1  1
  7  5  1  0
  7  8  2  0
  9  7  1  0
 10  9  1  0
 10 11  1  0
 11 18  1  0
 12 11  2  0
 14 13  1  0
 15 14  1  0
 16 15  1  0
 17 16  1  1
 18 17  1  0
 19 20  1  0
 19 17  1  0
 21 19  2  0
M  END
$$$$
