MED.pdb
     RDKit          3D

 26 25  0  0  1  0  0  0  0  0999 V2000
   29.4762  -12.6558  -16.1090 C   0  0  0  0  0  0  0  0  0  0  0  0
   28.1251  -13.7486  -15.5744 S   0  0  0  0  0  0  0  0  0  0  0  0
   27.1108  -14.1237  -16.9897 C   0  0  0  0  0  0  0  0  0  0  0  0
   26.0219  -13.1843  -17.3161 C   0  0  0  0  0  0  0  0  0  0  0  0
   25.3420  -12.4452  -16.2293 C   0  0  2  0  0  0  0  0  0  0  0  0
   24.5626  -13.4918  -15.5022 N   0  0  0  0  0  0  0  0  0  0  0  0
   24.4232  -11.3953  -16.6971 C   0  0  0  0  0  0  0  0  0  0  0  0
   24.7616  -10.4618  -17.4581 O   0  0  0  0  0  0  0  0  0  0  0  0
   23.0347  -11.3706  -16.2999 N   0  0  0  0  0  0  0  0  0  0  0  0
   22.1298  -10.3109  -16.7468 C   0  0  1  0  0  0  0  0  0  0  0  0
   20.8094  -10.9803  -17.0039 C   0  0  0  0  0  0  0  0  0  0  0  0
   20.7375  -11.7883  -18.2518 C   0  0  0  0  0  0  0  0  0  0  0  0
   19.4411  -12.5119  -18.2804 C   0  0  0  0  0  0  0  0  0  0  0  0
   18.3623  -11.9298  -18.5665 O   0  0  0  0  0  0  0  0  0  0  0  0
   22.0799   -9.2070  -15.7811 C   0  0  0  0  0  0  0  0  0  0  0  0
   22.1667   -9.4616  -14.5647 O   0  0  0  0  0  0  0  0  0  0  0  0
   19.3925  -13.8644  -17.9881 O   0  0  0  0  0  0  0  0  0  0  0  0
   21.9358   -7.8668  -16.2064 N   0  0  0  0  0  0  0  0  0  0  0  0
   21.8449   -6.7157  -15.3232 C   0  0  1  0  0  0  0  0  0  0  0  0
   22.5603   -5.5290  -15.8774 C   0  0  0  0  0  0  0  0  0  0  0  0
   22.4442   -4.2927  -15.1141 C   0  0  0  0  0  0  0  0  0  0  0  0
   22.8366   -4.1098  -13.9289 O   0  0  0  0  0  0  0  0  0  0  0  0
   20.4845   -6.4426  -14.8442 C   0  0  0  0  0  0  0  0  0  0  0  0
   20.2920   -5.9473  -13.5718 O   0  0  0  0  0  0  0  0  0  0  0  0
   21.8453   -3.1632  -15.7071 O   0  0  0  0  0  0  0  0  0  0  0  0
   19.4968   -6.6516  -15.5682 O   0  0  0  0  0  0  0  0  0  0  0  0
  2  1  1  0
  3  4  1  0
  3  2  1  0
  4  5  1  0
  5  7  1  0
  5  6  1  6
  7  8  2  0
  9  7  1  0
 10  9  1  0
 10 11  1  1
 11 12  1  0
 12 13  1  0
 13 14  2  0
 13 17  1  0
 15 10  1  0
 16 15  2  0
 18 15  1  0
 19 20  1  6
 19 18  1  0
 20 21  1  0
 21 22  2  0
 21 25  1  0
 23 19  1  0
 24 23  1  0
 26 23  2  0
M  END
$$$$
