MED.pdb
     RDKit          3D

 26 25  0  0  1  0  0  0  0  0999 V2000
   28.9299  -12.9882  -15.2984 C   0  0  0  0  0  0  0  0  0  0  0  0
   27.2386  -12.3281  -15.3942 S   0  0  0  0  0  0  0  0  0  0  0  0
   27.2578  -10.8778  -16.4281 C   0  0  0  0  0  0  0  0  0  0  0  0
   25.9998  -10.1203  -16.5631 C   0  0  0  0  0  0  0  0  0  0  0  0
   24.7222  -10.8469  -16.7349 C   0  0  2  0  0  0  0  0  0  0  0  0
   24.8701  -11.5494  -18.0449 N   0  0  0  0  0  0  0  0  0  0  0  0
   23.5360   -9.9776  -16.7833 C   0  0  0  0  0  0  0  0  0  0  0  0
   23.2474   -9.2462  -17.7563 O   0  0  0  0  0  0  0  0  0  0  0  0
   22.6015   -9.9080  -15.6840 N   0  0  0  0  0  0  0  0  0  0  0  0
   21.4179   -9.0493  -15.7392 C   0  0  1  0  0  0  0  0  0  0  0  0
   20.3095   -9.8368  -15.0996 C   0  0  0  0  0  0  0  0  0  0  0  0
   19.7150  -10.9047  -15.9491 C   0  0  0  0  0  0  0  0  0  0  0  0
   18.6566  -11.6003  -15.1739 C   0  0  0  0  0  0  0  0  0  0  0  0
   18.4928  -12.8464  -15.2443 O   0  0  0  0  0  0  0  0  0  0  0  0
   21.6757   -7.7423  -15.1237 C   0  0  0  0  0  0  0  0  0  0  0  0
   22.7061   -7.5865  -14.4410 O   0  0  0  0  0  0  0  0  0  0  0  0
   17.8145  -10.8798  -14.3439 O   0  0  0  0  0  0  0  0  0  0  0  0
   20.7787   -6.6629  -15.2919 N   0  0  0  0  0  0  0  0  0  0  0  0
   21.0129   -5.3034  -14.8335 C   0  0  1  0  0  0  0  0  0  0  0  0
   22.3321   -4.7788  -15.2933 C   0  0  0  0  0  0  0  0  0  0  0  0
   22.6246   -3.3903  -14.9601 C   0  0  0  0  0  0  0  0  0  0  0  0
   21.8689   -2.6010  -14.3291 O   0  0  0  0  0  0  0  0  0  0  0  0
   19.8801   -4.3980  -15.0615 C   0  0  0  0  0  0  0  0  0  0  0  0
   19.5340   -3.4762  -14.0962 O   0  0  0  0  0  0  0  0  0  0  0  0
   23.8531   -2.8243  -15.3557 O   0  0  0  0  0  0  0  0  0  0  0  0
   19.2227   -4.4476  -16.1145 O   0  0  0  0  0  0  0  0  0  0  0  0
  2  1  1  0
  3  4  1  0
  3  2  1  0
  4  5  1  0
  5  7  1  0
  5  6  1  6
  7  8  2  0
  9  7  1  0
 10  9  1  0
 10 11  1  1
 11 12  1  0
 12 13  1  0
 13 14  2  0
 13 17  1  0
 15 10  1  0
 16 15  2  0
 18 15  1  0
 19 20  1  6
 19 18  1  0
 20 21  1  0
 21 22  2  0
 21 25  1  0
 23 19  1  0
 24 23  1  0
 26 23  2  0
M  END
$$$$
