MED.pdb
     RDKit          3D

 26 25  0  0  1  0  0  0  0  0999 V2000
   28.4551  -20.2312   -4.1791 C   0  0  0  0  0  0  0  0  0  0  0  0
   27.9798  -20.5895   -5.8970 S   0  0  0  0  0  0  0  0  0  0  0  0
   27.7148  -19.0440   -6.7419 C   0  0  0  0  0  0  0  0  0  0  0  0
   27.2998  -19.1026   -8.1558 C   0  0  0  0  0  0  0  0  0  0  0  0
   27.2027  -20.4127   -8.8369 C   0  0  2  0  0  0  0  0  0  0  0  0
   28.6132  -20.8998   -8.9034 N   0  0  0  0  0  0  0  0  0  0  0  0
   26.6494  -20.3448  -10.1987 C   0  0  0  0  0  0  0  0  0  0  0  0
   27.2721  -19.8848  -11.1814 O   0  0  0  0  0  0  0  0  0  0  0  0
   25.3178  -20.8159  -10.5006 N   0  0  0  0  0  0  0  0  0  0  0  0
   24.8149  -20.8598  -11.8741 C   0  0  1  0  0  0  0  0  0  0  0  0
   25.4424  -22.0721  -12.5022 C   0  0  0  0  0  0  0  0  0  0  0  0
   25.0835  -22.3088  -13.9271 C   0  0  0  0  0  0  0  0  0  0  0  0
   25.7818  -23.5307  -14.4008 C   0  0  0  0  0  0  0  0  0  0  0  0
   25.3148  -24.6822  -14.1994 O   0  0  0  0  0  0  0  0  0  0  0  0
   23.3479  -20.8417  -11.9079 C   0  0  0  0  0  0  0  0  0  0  0  0
   22.7187  -20.7086  -10.8409 O   0  0  0  0  0  0  0  0  0  0  0  0
   26.9808  -23.4259  -15.0852 O   0  0  0  0  0  0  0  0  0  0  0  0
   22.6409  -20.9722  -13.1248 N   0  0  0  0  0  0  0  0  0  0  0  0
   21.3042  -20.4573  -13.3733 C   0  0  1  0  0  0  0  0  0  0  0  0
   21.1416  -19.0614  -12.8713 C   0  0  0  0  0  0  0  0  0  0  0  0
   20.0016  -18.8207  -11.9954 C   0  0  0  0  0  0  0  0  0  0  0  0
   19.1063  -19.6565  -11.6920 O   0  0  0  0  0  0  0  0  0  0  0  0
   20.8318  -20.6739  -14.7462 C   0  0  0  0  0  0  0  0  0  0  0  0
   21.7272  -21.0355  -15.7304 O   0  0  0  0  0  0  0  0  0  0  0  0
   19.8345  -17.5523  -11.4045 O   0  0  0  0  0  0  0  0  0  0  0  0
   19.6326  -20.5358  -15.0399 O   0  0  0  0  0  0  0  0  0  0  0  0
  2  1  1  0
  3  4  1  0
  3  2  1  0
  4  5  1  0
  5  7  1  0
  5  6  1  6
  7  8  2  0
  9  7  1  0
 10  9  1  0
 10 11  1  1
 11 12  1  0
 12 13  1  0
 13 14  2  0
 13 17  1  0
 15 10  1  0
 16 15  2  0
 18 15  1  0
 19 20  1  6
 19 18  1  0
 20 21  1  0
 21 22  2  0
 21 25  1  0
 23 19  1  0
 24 23  1  0
 26 23  2  0
M  END
$$$$
