MED.pdb
     RDKit          3D

 26 25  0  0  1  0  0  0  0  0999 V2000
   11.7287  -11.5049   -9.4908 C   0  0  0  0  0  0  0  0  0  0  0  0
   12.0398  -10.2887   -8.1757 S   0  0  0  0  0  0  0  0  0  0  0  0
   12.9622   -8.9323   -8.8699 C   0  0  0  0  0  0  0  0  0  0  0  0
   14.2724   -9.2374   -9.4741 C   0  0  0  0  0  0  0  0  0  0  0  0
   15.0215   -8.1713  -10.1755 C   0  0  2  0  0  0  0  0  0  0  0  0
   14.1000   -7.7273  -11.2641 N   0  0  0  0  0  0  0  0  0  0  0  0
   16.2919   -8.6175  -10.7689 C   0  0  0  0  0  0  0  0  0  0  0  0
   17.3083   -8.9097  -10.1006 O   0  0  0  0  0  0  0  0  0  0  0  0
   16.4557   -8.7517  -12.1977 N   0  0  0  0  0  0  0  0  0  0  0  0
   17.7497   -9.0910  -12.7910 C   0  0  1  0  0  0  0  0  0  0  0  0
   17.4626  -10.1365  -13.8313 C   0  0  0  0  0  0  0  0  0  0  0  0
   18.6366  -10.5746  -14.6346 C   0  0  0  0  0  0  0  0  0  0  0  0
   18.1843  -11.5667  -15.6427 C   0  0  0  0  0  0  0  0  0  0  0  0
   18.1885  -12.8029  -15.4056 O   0  0  0  0  0  0  0  0  0  0  0  0
   18.4370   -7.8966  -13.2954 C   0  0  0  0  0  0  0  0  0  0  0  0
   17.7656   -6.9855  -13.8161 O   0  0  0  0  0  0  0  0  0  0  0  0
   17.7415  -11.1444  -16.8847 O   0  0  0  0  0  0  0  0  0  0  0  0
   19.8410   -7.7636  -13.2006 N   0  0  0  0  0  0  0  0  0  0  0  0
   20.6109   -6.6456  -13.7209 C   0  0  1  0  0  0  0  0  0  0  0  0
   21.2852   -5.8779  -12.6332 C   0  0  0  0  0  0  0  0  0  0  0  0
   22.1285   -4.7670  -13.0564 C   0  0  0  0  0  0  0  0  0  0  0  0
   23.3900   -4.7574  -13.0817 O   0  0  0  0  0  0  0  0  0  0  0  0
   21.4792   -6.9991  -14.8505 C   0  0  0  0  0  0  0  0  0  0  0  0
   21.9379   -6.0125  -15.6976 O   0  0  0  0  0  0  0  0  0  0  0  0
   21.5311   -3.5657  -13.4879 O   0  0  0  0  0  0  0  0  0  0  0  0
   21.8100   -8.1782  -15.0594 O   0  0  0  0  0  0  0  0  0  0  0  0
  2  1  1  0
  3  4  1  0
  3  2  1  0
  4  5  1  0
  5  7  1  0
  5  6  1  6
  7  8  2  0
  9  7  1  0
 10  9  1  0
 10 11  1  6
 11 12  1  0
 12 13  1  0
 13 14  2  0
 13 17  1  0
 15 10  1  0
 16 15  2  0
 18 15  1  0
 19 20  1  1
 19 18  1  0
 20 21  1  0
 21 22  2  0
 21 25  1  0
 23 19  1  0
 24 23  1  0
 26 23  2  0
M  END
$$$$
