MED.pdb
     RDKit          3D

 26 25  0  0  1  0  0  0  0  0999 V2000
   30.6022  -16.3062  -17.5297 C   0  0  0  0  0  0  0  0  0  0  0  0
   28.8137  -16.5912  -17.3700 S   0  0  0  0  0  0  0  0  0  0  0  0
   28.2392  -15.7571  -15.9048 C   0  0  0  0  0  0  0  0  0  0  0  0
   26.8235  -15.9328  -15.5313 C   0  0  0  0  0  0  0  0  0  0  0  0
   25.8592  -16.4393  -16.5330 C   0  0  2  0  0  0  0  0  0  0  0  0
   25.5797  -15.2598  -17.4059 N   0  0  0  0  0  0  0  0  0  0  0  0
   24.5950  -16.9276  -15.9598 C   0  0  0  0  0  0  0  0  0  0  0  0
   23.8456  -16.2360  -15.2352 O   0  0  0  0  0  0  0  0  0  0  0  0
   24.1220  -18.2709  -16.2007 N   0  0  0  0  0  0  0  0  0  0  0  0
   23.1695  -18.9199  -15.2990 C   0  0  1  0  0  0  0  0  0  0  0  0
   22.2498  -19.7181  -16.1792 C   0  0  0  0  0  0  0  0  0  0  0  0
   21.2402  -20.5439  -15.4623 C   0  0  0  0  0  0  0  0  0  0  0  0
   20.0988  -19.6764  -15.0751 C   0  0  0  0  0  0  0  0  0  0  0  0
   19.9275  -18.5383  -15.5847 O   0  0  0  0  0  0  0  0  0  0  0  0
   23.8582  -19.7001  -14.2643 C   0  0  0  0  0  0  0  0  0  0  0  0
   24.8806  -20.3431  -14.5700 O   0  0  0  0  0  0  0  0  0  0  0  0
   19.1847  -20.1098  -14.1297 O   0  0  0  0  0  0  0  0  0  0  0  0
   23.3829  -19.7339  -12.9336 N   0  0  0  0  0  0  0  0  0  0  0  0
   23.8823  -20.6151  -11.8908 C   0  0  1  0  0  0  0  0  0  0  0  0
   25.2007  -20.1603  -11.3598 C   0  0  0  0  0  0  0  0  0  0  0  0
   25.8417  -21.0387  -10.3891 C   0  0  0  0  0  0  0  0  0  0  0  0
   25.6169  -22.2710  -10.2379 O   0  0  0  0  0  0  0  0  0  0  0  0
   22.8863  -20.9396  -10.8623 C   0  0  0  0  0  0  0  0  0  0  0  0
   21.5643  -20.5993  -11.0565 O   0  0  0  0  0  0  0  0  0  0  0  0
   26.8118  -20.5146   -9.5115 O   0  0  0  0  0  0  0  0  0  0  0  0
   23.2146  -21.5182   -9.8131 O   0  0  0  0  0  0  0  0  0  0  0  0
  2  1  1  0
  3  4  1  0
  3  2  1  0
  4  5  1  0
  5  7  1  0
  5  6  1  6
  7  8  2  0
  9  7  1  0
 10  9  1  0
 10 11  1  6
 11 12  1  0
 12 13  1  0
 13 14  2  0
 13 17  1  0
 15 10  1  0
 16 15  2  0
 18 15  1  0
 19 20  1  1
 19 18  1  0
 20 21  1  0
 21 22  2  0
 21 25  1  0
 23 19  1  0
 24 23  1  0
 26 23  2  0
M  END
$$$$
