MED.pdb
     RDKit          3D

 26 25  0  0  1  0  0  0  0  0999 V2000
   24.5567  -20.7226   -7.6295 C   0  0  0  0  0  0  0  0  0  0  0  0
   24.6706  -21.0320   -9.4174 S   0  0  0  0  0  0  0  0  0  0  0  0
   26.1441  -20.2428  -10.0327 C   0  0  0  0  0  0  0  0  0  0  0  0
   26.2907  -20.1182  -11.4948 C   0  0  0  0  0  0  0  0  0  0  0  0
   25.2311  -20.6429  -12.3845 C   0  0  2  0  0  0  0  0  0  0  0  0
   25.6887  -22.0221  -12.7303 N   0  0  0  0  0  0  0  0  0  0  0  0
   25.0459  -19.8698  -13.6227 C   0  0  0  0  0  0  0  0  0  0  0  0
   24.5908  -18.7049  -13.6552 O   0  0  0  0  0  0  0  0  0  0  0  0
   25.3851  -20.4164  -14.9159 N   0  0  0  0  0  0  0  0  0  0  0  0
   25.1508  -19.6649  -16.1496 C   0  0  1  0  0  0  0  0  0  0  0  0
   26.4295  -19.7544  -16.9336 C   0  0  0  0  0  0  0  0  0  0  0  0
   26.4106  -19.0818  -18.2613 C   0  0  0  0  0  0  0  0  0  0  0  0
   27.7614  -19.1841  -18.8697 C   0  0  0  0  0  0  0  0  0  0  0  0
   28.5174  -18.1837  -18.9793 O   0  0  0  0  0  0  0  0  0  0  0  0
   23.9622  -20.1547  -16.8571 C   0  0  0  0  0  0  0  0  0  0  0  0
   23.7722  -21.3828  -16.9449 O   0  0  0  0  0  0  0  0  0  0  0  0
   28.2238  -20.4029  -19.3366 O   0  0  0  0  0  0  0  0  0  0  0  0
   23.0342  -19.2604  -17.4377 N   0  0  0  0  0  0  0  0  0  0  0  0
   21.6080  -19.2382  -17.1568 C   0  0  1  0  0  0  0  0  0  0  0  0
   21.3276  -19.2485  -15.6910 C   0  0  0  0  0  0  0  0  0  0  0  0
   19.9223  -19.2579  -15.3042 C   0  0  0  0  0  0  0  0  0  0  0  0
   18.9341  -19.2269  -16.0882 O   0  0  0  0  0  0  0  0  0  0  0  0
   20.8708  -18.2199  -17.9147 C   0  0  0  0  0  0  0  0  0  0  0  0
   19.6631  -18.5400  -18.4981 O   0  0  0  0  0  0  0  0  0  0  0  0
   19.5774  -19.3052  -13.9386 O   0  0  0  0  0  0  0  0  0  0  0  0
   21.3179  -17.0678  -18.0417 O   0  0  0  0  0  0  0  0  0  0  0  0
  2  1  1  0
  3  4  1  0
  3  2  1  0
  4  5  1  0
  5  7  1  0
  5  6  1  6
  7  8  2  0
  9  7  1  0
 10  9  1  0
 10 11  1  6
 11 12  1  0
 12 13  1  0
 13 14  2  0
 13 17  1  0
 15 10  1  0
 16 15  2  0
 18 15  1  0
 19 20  1  1
 19 18  1  0
 20 21  1  0
 21 22  2  0
 21 25  1  0
 23 19  1  0
 24 23  1  0
 26 23  2  0
M  END
$$$$
