MED.pdb
     RDKit          3D

 26 25  0  0  1  0  0  0  0  0999 V2000
   27.1732  -18.5369   -5.2380 C   0  0  0  0  0  0  0  0  0  0  0  0
   27.2895  -20.2437   -5.8536 S   0  0  0  0  0  0  0  0  0  0  0  0
   28.1382  -20.2209   -7.4194 C   0  0  0  0  0  0  0  0  0  0  0  0
   27.3252  -20.0148   -8.6324 C   0  0  0  0  0  0  0  0  0  0  0  0
   27.2282  -21.0932   -9.6410 C   0  0  2  0  0  0  0  0  0  0  0  0
   28.6315  -21.2804  -10.1176 N   0  0  0  0  0  0  0  0  0  0  0  0
   26.3663  -20.7696  -10.7888 C   0  0  0  0  0  0  0  0  0  0  0  0
   26.4926  -19.7384  -11.4859 O   0  0  0  0  0  0  0  0  0  0  0  0
   25.2901  -21.6414  -11.1987 N   0  0  0  0  0  0  0  0  0  0  0  0
   24.6157  -21.4712  -12.4863 C   0  0  1  0  0  0  0  0  0  0  0  0
   24.7284  -22.7958  -13.1867 C   0  0  0  0  0  0  0  0  0  0  0  0
   24.0698  -22.8693  -14.5194 C   0  0  0  0  0  0  0  0  0  0  0  0
   24.2834  -24.2254  -15.0855 C   0  0  0  0  0  0  0  0  0  0  0  0
   23.6952  -24.6086  -16.1304 O   0  0  0  0  0  0  0  0  0  0  0  0
   23.2422  -20.9852  -12.3110 C   0  0  0  0  0  0  0  0  0  0  0  0
   22.6035  -21.3258  -11.2970 O   0  0  0  0  0  0  0  0  0  0  0  0
   25.1485  -25.1104  -14.4646 O   0  0  0  0  0  0  0  0  0  0  0  0
   22.6353  -20.1414  -13.2688 N   0  0  0  0  0  0  0  0  0  0  0  0
   21.2902  -19.5986  -13.1705 C   0  0  1  0  0  0  0  0  0  0  0  0
   21.0150  -18.5923  -14.2376 C   0  0  0  0  0  0  0  0  0  0  0  0
   19.6921  -17.9807  -14.2203 C   0  0  0  0  0  0  0  0  0  0  0  0
   18.7975  -18.1659  -13.3499 O   0  0  0  0  0  0  0  0  0  0  0  0
   20.2492  -20.6209  -13.0089 C   0  0  0  0  0  0  0  0  0  0  0  0
   20.3007  -21.7764  -13.7595 O   0  0  0  0  0  0  0  0  0  0  0  0
   19.3243  -17.0902  -15.2488 O   0  0  0  0  0  0  0  0  0  0  0  0
   19.3163  -20.4631  -12.2039 O   0  0  0  0  0  0  0  0  0  0  0  0
  2  1  1  0
  3  4  1  0
  3  2  1  0
  4  5  1  0
  5  7  1  0
  5  6  1  6
  7  8  2  0
  9  7  1  0
 10  9  1  0
 10 11  1  1
 11 12  1  0
 12 13  1  0
 13 14  2  0
 13 17  1  0
 15 10  1  0
 16 15  2  0
 18 15  1  0
 19 20  1  6
 19 18  1  0
 20 21  1  0
 21 22  2  0
 21 25  1  0
 23 19  1  0
 24 23  1  0
 26 23  2  0
M  END
$$$$
