MED.pdb
     RDKit          3D

 26 25  0  0  1  0  0  0  0  0999 V2000
   28.1511  -16.3282  -15.3846 C   0  0  0  0  0  0  0  0  0  0  0  0
   27.4626  -14.9875  -16.4014 S   0  0  0  0  0  0  0  0  0  0  0  0
   27.1707  -13.5781  -15.3521 C   0  0  0  0  0  0  0  0  0  0  0  0
   26.6456  -12.3540  -15.9853 C   0  0  0  0  0  0  0  0  0  0  0  0
   25.7119  -12.4634  -17.1280 C   0  0  2  0  0  0  0  0  0  0  0  0
   26.5751  -12.8872  -18.2711 N   0  0  0  0  0  0  0  0  0  0  0  0
   25.0334  -11.2046  -17.4748 C   0  0  0  0  0  0  0  0  0  0  0  0
   25.5790  -10.2684  -18.1001 O   0  0  0  0  0  0  0  0  0  0  0  0
   23.6582  -10.9583  -17.1080 N   0  0  0  0  0  0  0  0  0  0  0  0
   22.9797   -9.7143  -17.4739 C   0  0  1  0  0  0  0  0  0  0  0  0
   21.8291  -10.1176  -18.3520 C   0  0  0  0  0  0  0  0  0  0  0  0
   22.1961  -10.5227  -19.7363 C   0  0  0  0  0  0  0  0  0  0  0  0
   20.9641  -10.9275  -20.4600 C   0  0  0  0  0  0  0  0  0  0  0  0
   20.7028  -10.5015  -21.6152 O   0  0  0  0  0  0  0  0  0  0  0  0
   22.6024   -8.9408  -16.2853 C   0  0  0  0  0  0  0  0  0  0  0  0
   22.3243   -9.5452  -15.2319 O   0  0  0  0  0  0  0  0  0  0  0  0
   20.0631  -11.7963  -19.8681 O   0  0  0  0  0  0  0  0  0  0  0  0
   22.5495   -7.5287  -16.3159 N   0  0  0  0  0  0  0  0  0  0  0  0
   22.2051   -6.6814  -15.1859 C   0  0  1  0  0  0  0  0  0  0  0  0
   22.6633   -5.2749  -15.3828 C   0  0  0  0  0  0  0  0  0  0  0  0
   22.4124   -4.3554  -14.2801 C   0  0  0  0  0  0  0  0  0  0  0  0
   22.0683   -4.6740  -13.1086 O   0  0  0  0  0  0  0  0  0  0  0  0
   20.8105   -6.8160  -14.7479 C   0  0  0  0  0  0  0  0  0  0  0  0
   20.5303   -7.0888  -13.4257 O   0  0  0  0  0  0  0  0  0  0  0  0
   22.5522   -2.9682  -14.4859 O   0  0  0  0  0  0  0  0  0  0  0  0
   19.8718   -6.6887  -15.5517 O   0  0  0  0  0  0  0  0  0  0  0  0
  2  1  1  0
  3  4  1  0
  3  2  1  0
  4  5  1  0
  5  7  1  0
  5  6  1  6
  7  8  2  0
  9  7  1  0
 10  9  1  0
 10 11  1  1
 11 12  1  0
 12 13  1  0
 13 14  2  0
 13 17  1  0
 15 10  1  0
 16 15  2  0
 18 15  1  0
 19 20  1  6
 19 18  1  0
 20 21  1  0
 21 22  2  0
 21 25  1  0
 23 19  1  0
 24 23  1  0
 26 23  2  0
M  END
$$$$
