MED.pdb
     RDKit          3D

 26 25  0  0  1  0  0  0  0  0999 V2000
   19.3356  -15.7904  -16.6477 C   0  0  0  0  0  0  0  0  0  0  0  0
   20.2300  -15.5933  -18.2183 S   0  0  0  0  0  0  0  0  0  0  0  0
   20.0206  -13.9156  -18.7788 C   0  0  0  0  0  0  0  0  0  0  0  0
   19.9087  -12.8629  -17.7521 C   0  0  0  0  0  0  0  0  0  0  0  0
   19.6277  -11.4687  -18.1605 C   0  0  2  0  0  0  0  0  0  0  0  0
   20.5073  -11.2470  -19.3472 N   0  0  0  0  0  0  0  0  0  0  0  0
   19.9408  -10.4643  -17.1316 C   0  0  0  0  0  0  0  0  0  0  0  0
   19.4608  -10.4774  -15.9764 O   0  0  0  0  0  0  0  0  0  0  0  0
   20.8456   -9.3688  -17.3918 N   0  0  0  0  0  0  0  0  0  0  0  0
   21.1339   -8.3567  -16.3749 C   0  0  1  0  0  0  0  0  0  0  0  0
   22.4340   -8.7679  -15.7439 C   0  0  0  0  0  0  0  0  0  0  0  0
   23.5605   -8.9872  -16.6917 C   0  0  0  0  0  0  0  0  0  0  0  0
   24.8185   -9.1319  -15.9161 C   0  0  0  0  0  0  0  0  0  0  0  0
   25.9297   -9.3080  -16.4806 O   0  0  0  0  0  0  0  0  0  0  0  0
   21.1307   -7.0059  -16.9483 C   0  0  0  0  0  0  0  0  0  0  0  0
   21.5639   -6.8370  -18.1041 O   0  0  0  0  0  0  0  0  0  0  0  0
   24.7936   -9.0750  -14.5329 O   0  0  0  0  0  0  0  0  0  0  0  0
   20.6468   -5.8990  -16.2144 N   0  0  0  0  0  0  0  0  0  0  0  0
   20.6148   -4.5276  -16.6956 C   0  0  1  0  0  0  0  0  0  0  0  0
   19.2361   -3.9574  -16.6652 C   0  0  0  0  0  0  0  0  0  0  0  0
   19.0956   -2.5863  -17.1394 C   0  0  0  0  0  0  0  0  0  0  0  0
   19.0647   -1.5495  -16.4208 O   0  0  0  0  0  0  0  0  0  0  0  0
   21.6468   -3.6678  -16.1034 C   0  0  0  0  0  0  0  0  0  0  0  0
   21.9494   -2.4568  -16.6892 O   0  0  0  0  0  0  0  0  0  0  0  0
   18.9793   -2.3371  -18.5216 O   0  0  0  0  0  0  0  0  0  0  0  0
   22.2571   -4.0136  -15.0780 O   0  0  0  0  0  0  0  0  0  0  0  0
  2  1  1  0
  3  4  1  0
  3  2  1  0
  4  5  1  0
  5  7  1  0
  5  6  1  6
  7  8  2  0
  9  7  1  0
 10  9  1  0
 10 11  1  6
 11 12  1  0
 12 13  1  0
 13 14  2  0
 13 17  1  0
 15 10  1  0
 16 15  2  0
 18 15  1  0
 19 20  1  1
 19 18  1  0
 20 21  1  0
 21 22  2  0
 21 25  1  0
 23 19  1  0
 24 23  1  0
 26 23  2  0
M  END
$$$$
