MED.pdb
     RDKit          3D

 26 25  0  0  1  0  0  0  0  0999 V2000
   28.9370  -13.0548  -15.4487 C   0  0  0  0  0  0  0  0  0  0  0  0
   27.2302  -12.5628  -15.8362 S   0  0  0  0  0  0  0  0  0  0  0  0
   27.2012  -10.8042  -16.1175 C   0  0  0  0  0  0  0  0  0  0  0  0
   25.8881  -10.1713  -16.3411 C   0  0  0  0  0  0  0  0  0  0  0  0
   24.8330  -10.9109  -17.0688 C   0  0  2  0  0  0  0  0  0  0  0  0
   25.3245  -10.9643  -18.4783 N   0  0  0  0  0  0  0  0  0  0  0  0
   23.5129  -10.2614  -17.0409 C   0  0  0  0  0  0  0  0  0  0  0  0
   23.2241   -9.2415  -17.7052 O   0  0  0  0  0  0  0  0  0  0  0  0
   22.4348  -10.7697  -16.2249 N   0  0  0  0  0  0  0  0  0  0  0  0
   21.1431  -10.0858  -16.1512 C   0  0  1  0  0  0  0  0  0  0  0  0
   20.1388  -11.1438  -15.7910 C   0  0  0  0  0  0  0  0  0  0  0  0
   18.7432  -10.6604  -15.6067 C   0  0  0  0  0  0  0  0  0  0  0  0
   17.8762  -11.8171  -15.2667 C   0  0  0  0  0  0  0  0  0  0  0  0
   17.3532  -12.5385  -16.1558 O   0  0  0  0  0  0  0  0  0  0  0  0
   21.1923   -8.9470  -15.2271 C   0  0  0  0  0  0  0  0  0  0  0  0
   21.9699   -8.9887  -14.2546 O   0  0  0  0  0  0  0  0  0  0  0  0
   17.6215  -12.1303  -13.9422 O   0  0  0  0  0  0  0  0  0  0  0  0
   20.3761   -7.8095  -15.4212 N   0  0  0  0  0  0  0  0  0  0  0  0
   20.4532   -6.5839  -14.6432 C   0  0  1  0  0  0  0  0  0  0  0  0
   21.8639   -6.1482  -14.4263 C   0  0  0  0  0  0  0  0  0  0  0  0
   22.0473   -4.8955  -13.7040 C   0  0  0  0  0  0  0  0  0  0  0  0
   21.1307   -4.1291  -13.2981 O   0  0  0  0  0  0  0  0  0  0  0  0
   19.5504   -5.5261  -15.1133 C   0  0  0  0  0  0  0  0  0  0  0  0
   18.8172   -5.7126  -16.2661 O   0  0  0  0  0  0  0  0  0  0  0  0
   23.3503   -4.4503  -13.4040 O   0  0  0  0  0  0  0  0  0  0  0  0
   19.4346   -4.4587  -14.4883 O   0  0  0  0  0  0  0  0  0  0  0  0
  2  1  1  0
  3  4  1  0
  3  2  1  0
  4  5  1  0
  5  7  1  0
  5  6  1  6
  7  8  2  0
  9  7  1  0
 10  9  1  0
 10 11  1  1
 11 12  1  0
 12 13  1  0
 13 14  2  0
 13 17  1  0
 15 10  1  0
 16 15  2  0
 18 15  1  0
 19 20  1  6
 19 18  1  0
 20 21  1  0
 21 22  2  0
 21 25  1  0
 23 19  1  0
 24 23  1  0
 26 23  2  0
M  END
$$$$
