MED.pdb
     RDKit          3D

 26 25  0  0  1  0  0  0  0  0999 V2000
   15.0645  -11.3069  -19.8083 C   0  0  0  0  0  0  0  0  0  0  0  0
   15.8919  -12.6381  -18.8871 S   0  0  0  0  0  0  0  0  0  0  0  0
   15.6742  -12.3370  -17.1451 C   0  0  0  0  0  0  0  0  0  0  0  0
   16.7262  -11.5733  -16.4487 C   0  0  0  0  0  0  0  0  0  0  0  0
   18.1489  -11.9076  -16.6805 C   0  0  2  0  0  0  0  0  0  0  0  0
   18.3166  -13.2573  -16.0628 N   0  0  0  0  0  0  0  0  0  0  0  0
   19.0976  -10.9698  -16.0593 C   0  0  0  0  0  0  0  0  0  0  0  0
   19.2236  -10.8230  -14.8233 O   0  0  0  0  0  0  0  0  0  0  0  0
   19.9688  -10.1351  -16.8534 N   0  0  0  0  0  0  0  0  0  0  0  0
   20.9860   -9.2842  -16.2347 C   0  0  1  0  0  0  0  0  0  0  0  0
   22.2343   -9.4798  -17.0478 C   0  0  0  0  0  0  0  0  0  0  0  0
   23.0493  -10.6717  -16.6864 C   0  0  0  0  0  0  0  0  0  0  0  0
   24.2389  -10.7260  -17.5735 C   0  0  0  0  0  0  0  0  0  0  0  0
   24.7938   -9.6815  -18.0042 O   0  0  0  0  0  0  0  0  0  0  0  0
   20.5311   -7.8926  -16.1347 C   0  0  0  0  0  0  0  0  0  0  0  0
   19.5534   -7.5243  -16.8133 O   0  0  0  0  0  0  0  0  0  0  0  0
   24.7704  -11.9475  -17.9508 O   0  0  0  0  0  0  0  0  0  0  0  0
   21.1808   -6.9682  -15.2854 N   0  0  0  0  0  0  0  0  0  0  0  0
   20.7798   -5.5837  -15.0961 C   0  0  1  0  0  0  0  0  0  0  0  0
   19.3360   -5.4647  -14.7381 C   0  0  0  0  0  0  0  0  0  0  0  0
   18.8669   -4.1295  -14.3891 C   0  0  0  0  0  0  0  0  0  0  0  0
   19.4651   -3.0443  -14.6274 O   0  0  0  0  0  0  0  0  0  0  0  0
   21.6895   -4.8157  -14.2372 C   0  0  0  0  0  0  0  0  0  0  0  0
   21.9465   -3.4912  -14.5217 O   0  0  0  0  0  0  0  0  0  0  0  0
   17.6353   -3.9778  -13.7212 O   0  0  0  0  0  0  0  0  0  0  0  0
   22.2364   -5.3406  -13.2529 O   0  0  0  0  0  0  0  0  0  0  0  0
  2  1  1  0
  3  4  1  0
  3  2  1  0
  4  5  1  0
  5  7  1  0
  5  6  1  1
  7  8  2  0
  9  7  1  0
 10  9  1  0
 10 11  1  6
 11 12  1  0
 12 13  1  0
 13 14  2  0
 13 17  1  0
 15 10  1  0
 16 15  2  0
 18 15  1  0
 19 20  1  1
 19 18  1  0
 20 21  1  0
 21 22  2  0
 21 25  1  0
 23 19  1  0
 24 23  1  0
 26 23  2  0
M  END
$$$$
