MED.pdb
     RDKit          3D

 26 25  0  0  1  0  0  0  0  0999 V2000
   16.5382  -15.7142  -17.1917 C   0  0  0  0  0  0  0  0  0  0  0  0
   17.3516  -14.0909  -17.0987 S   0  0  0  0  0  0  0  0  0  0  0  0
   18.4502  -14.0910  -15.6967 C   0  0  0  0  0  0  0  0  0  0  0  0
   19.1868  -12.8465  -15.4079 C   0  0  0  0  0  0  0  0  0  0  0  0
   19.3941  -11.8517  -16.4836 C   0  0  2  0  0  0  0  0  0  0  0  0
   20.3442  -12.5177  -17.4244 N   0  0  0  0  0  0  0  0  0  0  0  0
   19.9777  -10.5810  -16.0255 C   0  0  0  0  0  0  0  0  0  0  0  0
   19.4757   -9.8668  -15.1295 O   0  0  0  0  0  0  0  0  0  0  0  0
   21.1994  -10.0594  -16.5928 N   0  0  0  0  0  0  0  0  0  0  0  0
   21.7667   -8.7858  -16.1482 C   0  0  1  0  0  0  0  0  0  0  0  0
   23.1541   -8.7319  -16.7226 C   0  0  0  0  0  0  0  0  0  0  0  0
   23.9103   -7.4805  -16.4441 C   0  0  0  0  0  0  0  0  0  0  0  0
   25.3003   -7.6395  -16.9419 C   0  0  0  0  0  0  0  0  0  0  0  0
   26.2184   -8.0963  -16.2121 O   0  0  0  0  0  0  0  0  0  0  0  0
   20.9051   -7.6574  -16.5195 C   0  0  0  0  0  0  0  0  0  0  0  0
   20.3958   -7.6320  -17.6562 O   0  0  0  0  0  0  0  0  0  0  0  0
   25.6193   -7.2822  -18.2410 O   0  0  0  0  0  0  0  0  0  0  0  0
   20.6451   -6.6043  -15.6132 N   0  0  0  0  0  0  0  0  0  0  0  0
   19.7060   -5.5184  -15.8422 C   0  0  1  0  0  0  0  0  0  0  0  0
   18.3598   -6.0204  -16.2456 C   0  0  0  0  0  0  0  0  0  0  0  0
   17.3116   -5.0164  -16.3794 C   0  0  0  0  0  0  0  0  0  0  0  0
   16.4082   -4.7662  -15.5348 O   0  0  0  0  0  0  0  0  0  0  0  0
   19.6901   -4.5136  -14.7721 C   0  0  0  0  0  0  0  0  0  0  0  0
   20.4185   -4.7263  -13.6209 O   0  0  0  0  0  0  0  0  0  0  0  0
   17.2544   -4.2216  -17.5418 O   0  0  0  0  0  0  0  0  0  0  0  0
   19.0276   -3.4687  -14.8849 O   0  0  0  0  0  0  0  0  0  0  0  0
  2  1  1  0
  3  4  1  0
  3  2  1  0
  4  5  1  0
  5  7  1  0
  5  6  1  6
  7  8  2  0
  9  7  1  0
 10  9  1  0
 10 11  1  6
 11 12  1  0
 12 13  1  0
 13 14  2  0
 13 17  1  0
 15 10  1  0
 16 15  2  0
 18 15  1  0
 19 20  1  1
 19 18  1  0
 20 21  1  0
 21 22  2  0
 21 25  1  0
 23 19  1  0
 24 23  1  0
 26 23  2  0
M  END
$$$$
