TLL.pdb
     RDKit          3D

 24 23  0  0  1  0  0  0  0  0999 V2000
   15.1156  -28.0231   -0.6723 C   0  0  0  0  0  0  0  0  0  0  0  0
   15.4355  -29.5120   -0.5478 C   0  0  1  0  0  0  0  0  0  0  0  0
   14.8365  -30.1945   -1.5946 O   0  0  0  0  0  0  0  0  0  0  0  0
   16.9349  -29.6522   -0.6205 C   0  0  2  0  0  0  0  0  0  0  0  0
   17.3696  -31.0174   -0.6638 N   0  0  0  0  0  0  0  0  0  0  0  0
   17.5489  -28.9648    0.5568 C   0  0  0  0  0  0  0  0  0  0  0  0
   17.6933  -29.5497    1.6571 O   0  0  0  0  0  0  0  0  0  0  0  0
   21.4941  -24.2952    1.4464 C   0  0  0  0  0  0  0  0  0  0  0  0
   20.4818  -25.2128    2.0001 C   0  0  2  0  0  0  0  0  0  0  0  0
   21.0636  -25.9035    3.2398 C   0  0  0  0  0  0  0  0  0  0  0  0
   19.7685  -26.1537    1.1341 C   0  0  0  0  0  0  0  0  0  0  0  0
   18.5515  -26.8699    1.5944 C   0  0  2  0  0  0  0  0  0  0  0  0
   17.9833  -27.6206    0.4431 N   0  0  0  0  0  0  0  0  0  0  0  0
   17.5096  -26.0151    2.1713 C   0  0  0  0  0  0  0  0  0  0  0  0
   17.2042  -24.8754    1.7493 O   0  0  0  0  0  0  0  0  0  0  0  0
   16.5438  -27.4520    7.0014 C   0  0  0  0  0  0  0  0  0  0  0  0
   17.8655  -26.6983    6.8087 C   0  0  2  0  0  0  0  0  0  0  0  0
   17.8582  -25.4115    7.6016 C   0  0  0  0  0  0  0  0  0  0  0  0
   18.0681  -26.4636    5.3451 C   0  0  0  0  0  0  0  0  0  0  0  0
   16.8961  -25.8501    4.6331 C   0  0  2  0  0  0  0  0  0  0  0  0
   16.7268  -26.4302    3.3080 N   0  0  0  0  0  0  0  0  0  0  0  0
   17.0905  -24.3987    4.4603 C   0  0  0  0  0  0  0  0  0  0  0  0
   16.3322  -23.6031    5.0609 O   0  0  0  0  0  0  0  0  0  0  0  0
   18.0738  -23.8401    3.6651 O   0  0  0  0  0  0  0  0  0  0  0  0
  2  4  1  0
  2  1  1  6
  3  2  1  0
  4  5  1  1
  6  4  1  0
  6 13  1  0
  7  6  2  0
  9  8  1  6
  9 11  1  0
  9 10  1  0
 12 11  1  6
 12 13  1  0
 14 12  1  0
 15 14  2  0
 17 16  1  6
 17 19  1  0
 18 17  1  0
 20 19  1  6
 20 21  1  0
 20 22  1  0
 21 14  1  0
 22 24  1  0
 23 22  2  0
M  END
$$$$
