TLL.pdb
     RDKit          3D

 24 23  0  0  1  0  0  0  0  0999 V2000
   28.7550  -21.3898  -16.7479 C   0  0  0  0  0  0  0  0  0  0  0  0
   27.9384  -21.8122  -15.5275 C   0  0  1  0  0  0  0  0  0  0  0  0
   28.7975  -22.0527  -14.4671 O   0  0  0  0  0  0  0  0  0  0  0  0
   27.0072  -20.6726  -15.1996 C   0  0  2  0  0  0  0  0  0  0  0  0
   27.6966  -19.4840  -14.7915 N   0  0  0  0  0  0  0  0  0  0  0  0
   26.0653  -21.1043  -14.1217 C   0  0  0  0  0  0  0  0  0  0  0  0
   25.3769  -22.1474  -14.2300 O   0  0  0  0  0  0  0  0  0  0  0  0
   25.1473  -21.8459   -8.9637 C   0  0  0  0  0  0  0  0  0  0  0  0
   25.8538  -20.6834   -9.5318 C   0  0  2  0  0  0  0  0  0  0  0  0
   26.2870  -19.7584   -8.3877 C   0  0  0  0  0  0  0  0  0  0  0  0
   25.2850  -19.9351  -10.6546 C   0  0  0  0  0  0  0  0  0  0  0  0
   24.8922  -20.6051  -11.9206 C   0  0  2  0  0  0  0  0  0  0  0  0
   25.9355  -20.3275  -12.9435 N   0  0  0  0  0  0  0  0  0  0  0  0
   23.5834  -20.2112  -12.4506 C   0  0  0  0  0  0  0  0  0  0  0  0
   23.2961  -19.0654  -12.8688 O   0  0  0  0  0  0  0  0  0  0  0  0
   21.0429  -19.8424  -15.9283 C   0  0  0  0  0  0  0  0  0  0  0  0
   21.4913  -21.2494  -15.5143 C   0  0  2  0  0  0  0  0  0  0  0  0
   21.2075  -22.2394  -16.6207 C   0  0  0  0  0  0  0  0  0  0  0  0
   20.8009  -21.6102  -14.2371 C   0  0  0  0  0  0  0  0  0  0  0  0
   21.1763  -20.7655  -13.0528 C   0  0  2  0  0  0  0  0  0  0  0  0
   22.4853  -21.1408  -12.5363 N   0  0  0  0  0  0  0  0  0  0  0  0
   20.2023  -20.9361  -11.9590 C   0  0  0  0  0  0  0  0  0  0  0  0
   20.3098  -21.9195  -11.1907 O   0  0  0  0  0  0  0  0  0  0  0  0
   19.1552  -20.0673  -11.7143 O   0  0  0  0  0  0  0  0  0  0  0  0
  2  4  1  0
  2  1  1  6
  3  2  1  0
  4  5  1  1
  6  4  1  0
  6 13  1  0
  7  6  2  0
  9  8  1  1
  9 11  1  0
  9 10  1  0
 12 11  1  1
 12 13  1  0
 14 12  1  0
 15 14  2  0
 17 16  1  6
 17 19  1  0
 18 17  1  0
 20 19  1  6
 20 21  1  0
 20 22  1  0
 21 14  1  0
 22 24  1  0
 23 22  2  0
M  END
$$$$
