TLL.pdb
     RDKit          3D

 24 23  0  0  1  0  0  0  0  0999 V2000
   21.2192   -8.4211  -20.5379 C   0  0  0  0  0  0  0  0  0  0  0  0
   20.0035   -9.1466  -19.9630 C   0  0  1  0  0  0  0  0  0  0  0  0
   19.1680   -9.5261  -21.0014 O   0  0  0  0  0  0  0  0  0  0  0  0
   20.5156  -10.3615  -19.2316 C   0  0  2  0  0  0  0  0  0  0  0  0
   19.4688  -11.2445  -18.8085 N   0  0  0  0  0  0  0  0  0  0  0  0
   21.3126   -9.9199  -18.0461 C   0  0  0  0  0  0  0  0  0  0  0  0
   20.7618   -9.4392  -17.0267 O   0  0  0  0  0  0  0  0  0  0  0  0
   27.4051  -10.2138  -16.4629 C   0  0  0  0  0  0  0  0  0  0  0  0
   26.0248   -9.7776  -16.1839 C   0  0  2  0  0  0  0  0  0  0  0  0
   25.6939  -10.0858  -14.7183 C   0  0  0  0  0  0  0  0  0  0  0  0
   24.9267  -10.1430  -17.0810 C   0  0  0  0  0  0  0  0  0  0  0  0
   23.5735   -9.5467  -16.9420 C   0  0  2  0  0  0  0  0  0  0  0  0
   22.7245  -10.0406  -18.0589 N   0  0  0  0  0  0  0  0  0  0  0  0
   23.5402   -8.0812  -16.9256 C   0  0  0  0  0  0  0  0  0  0  0  0
   23.8386   -7.3477  -17.8969 O   0  0  0  0  0  0  0  0  0  0  0  0
   20.3152   -3.8695  -17.7035 C   0  0  0  0  0  0  0  0  0  0  0  0
   21.5535   -4.0630  -16.8197 C   0  0  2  0  0  0  0  0  0  0  0  0
   22.7132   -3.2536  -17.3536 C   0  0  0  0  0  0  0  0  0  0  0  0
   21.8636   -5.5250  -16.7518 C   0  0  0  0  0  0  0  0  0  0  0  0
   22.9338   -5.9011  -15.7667 C   0  0  2  0  0  0  0  0  0  0  0  0
   23.1488   -7.3414  -15.7523 N   0  0  0  0  0  0  0  0  0  0  0  0
   22.5532   -5.4957  -14.4010 C   0  0  0  0  0  0  0  0  0  0  0  0
   22.4822   -4.2769  -14.1209 O   0  0  0  0  0  0  0  0  0  0  0  0
   22.2611   -6.3855  -13.3841 O   0  0  0  0  0  0  0  0  0  0  0  0
  2  4  1  0
  2  1  1  6
  3  2  1  0
  4  5  1  1
  6  4  1  0
  6 13  1  0
  7  6  2  0
  9  8  1  6
  9 11  1  0
  9 10  1  0
 12 11  1  6
 12 13  1  0
 14 12  1  0
 15 14  2  0
 17 16  1  6
 17 19  1  0
 18 17  1  0
 20 19  1  6
 20 21  1  0
 20 22  1  0
 21 14  1  0
 22 24  1  0
 23 22  2  0
M  END
$$$$
