TLL.pdb
     RDKit          3D

 24 23  0  0  1  0  0  0  0  0999 V2000
   27.0266  -16.3618  -14.9296 C   0  0  0  0  0  0  0  0  0  0  0  0
   26.7990  -17.7180  -14.2636 C   0  0  1  0  0  0  0  0  0  0  0  0
   25.4377  -17.9682  -14.1961 O   0  0  0  0  0  0  0  0  0  0  0  0
   27.4805  -18.7543  -15.1208 C   0  0  2  0  0  0  0  0  0  0  0  0
   26.9478  -18.8219  -16.4498 N   0  0  0  0  0  0  0  0  0  0  0  0
   27.3614  -20.0909  -14.4614 C   0  0  0  0  0  0  0  0  0  0  0  0
   26.6623  -21.0074  -14.9561 O   0  0  0  0  0  0  0  0  0  0  0  0
   31.2633  -20.5533  -10.9936 C   0  0  0  0  0  0  0  0  0  0  0  0
   29.9528  -21.2250  -10.9244 C   0  0  2  0  0  0  0  0  0  0  0  0
   29.8941  -22.0672   -9.6440 C   0  0  0  0  0  0  0  0  0  0  0  0
   29.4187  -21.9486  -12.0799 C   0  0  0  0  0  0  0  0  0  0  0  0
   28.0543  -21.6848  -12.6040 C   0  0  2  0  0  0  0  0  0  0  0  0
   28.0485  -20.3442  -13.2481 N   0  0  0  0  0  0  0  0  0  0  0  0
   26.9840  -21.7415  -11.6039 C   0  0  0  0  0  0  0  0  0  0  0  0
   26.5899  -22.7867  -11.0360 O   0  0  0  0  0  0  0  0  0  0  0  0
   26.0735  -21.2547   -7.4310 C   0  0  0  0  0  0  0  0  0  0  0  0
   26.4589  -19.9596   -8.1564 C   0  0  2  0  0  0  0  0  0  0  0  0
   26.7146  -18.8532   -7.1586 C   0  0  0  0  0  0  0  0  0  0  0  0
   25.3691  -19.6145   -9.1215 C   0  0  0  0  0  0  0  0  0  0  0  0
   25.1691  -20.6055  -10.2328 C   0  0  2  0  0  0  0  0  0  0  0  0
   26.2752  -20.5606  -11.1792 N   0  0  0  0  0  0  0  0  0  0  0  0
   23.9331  -20.3102  -10.9807 C   0  0  0  0  0  0  0  0  0  0  0  0
   24.0144  -19.9077  -12.1640 O   0  0  0  0  0  0  0  0  0  0  0  0
   22.6613  -20.4501  -10.4574 O   0  0  0  0  0  0  0  0  0  0  0  0
  2  4  1  0
  2  1  1  6
  3  2  1  0
  4  5  1  6
  6  4  1  0
  6 13  1  0
  7  6  2  0
  9  8  1  6
  9 11  1  0
  9 10  1  0
 12 11  1  1
 12 13  1  0
 14 12  1  0
 15 14  2  0
 17 16  1  1
 17 19  1  0
 18 17  1  0
 20 19  1  1
 20 21  1  0
 20 22  1  0
 21 14  1  0
 22 24  1  0
 23 22  2  0
M  END
$$$$
