TLL.pdb
     RDKit          3D

 24 23  0  0  1  0  0  0  0  0999 V2000
   22.2774   -7.4328  -20.4271 C   0  0  0  0  0  0  0  0  0  0  0  0
   21.3566   -8.5960  -20.7928 C   0  0  1  0  0  0  0  0  0  0  0  0
   21.6885   -9.0583  -22.0563 O   0  0  0  0  0  0  0  0  0  0  0  0
   21.5760   -9.6770  -19.7649 C   0  0  2  0  0  0  0  0  0  0  0  0
   20.9427  -10.9159  -20.1092 N   0  0  0  0  0  0  0  0  0  0  0  0
   21.0701   -9.2032  -18.4401 C   0  0  0  0  0  0  0  0  0  0  0  0
   19.8510   -8.9821  -18.2436 O   0  0  0  0  0  0  0  0  0  0  0  0
   21.4600  -10.8214  -13.8746 C   0  0  0  0  0  0  0  0  0  0  0  0
   22.6239  -10.1856  -14.5185 C   0  0  2  0  0  0  0  0  0  0  0  0
   23.8563  -10.3901  -13.6287 C   0  0  0  0  0  0  0  0  0  0  0  0
   22.5420   -8.8172  -15.0332 C   0  0  0  0  0  0  0  0  0  0  0  0
   21.5459   -8.4291  -16.0643 C   0  0  2  0  0  0  0  0  0  0  0  0
   21.9765   -8.9941  -17.3709 N   0  0  0  0  0  0  0  0  0  0  0  0
   21.3356   -6.9858  -16.2113 C   0  0  0  0  0  0  0  0  0  0  0  0
   22.1484   -6.1949  -16.7445 O   0  0  0  0  0  0  0  0  0  0  0  0
   20.0576   -2.5593  -17.8769 C   0  0  0  0  0  0  0  0  0  0  0  0
   20.4793   -3.9531  -18.3582 C   0  0  2  0  0  0  0  0  0  0  0  0
   20.4016   -4.0355  -19.8655 C   0  0  0  0  0  0  0  0  0  0  0  0
   19.6101   -4.9693  -17.6874 C   0  0  0  0  0  0  0  0  0  0  0  0
   19.7285   -5.0158  -16.1904 C   0  0  2  0  0  0  0  0  0  0  0  0
   20.1377   -6.3386  -15.7388 N   0  0  0  0  0  0  0  0  0  0  0  0
   18.4340   -4.7105  -15.5538 C   0  0  0  0  0  0  0  0  0  0  0  0
   17.5726   -5.6142  -15.4527 O   0  0  0  0  0  0  0  0  0  0  0  0
   18.0956   -3.4695  -15.0475 O   0  0  0  0  0  0  0  0  0  0  0  0
  2  4  1  0
  2  1  1  1
  3  2  1  0
  4  5  1  6
  6  4  1  0
  6 13  1  0
  7  6  2  0
  9  8  1  1
  9 11  1  0
  9 10  1  0
 12 11  1  1
 12 13  1  0
 14 12  1  0
 15 14  2  0
 17 16  1  1
 17 19  1  0
 18 17  1  0
 20 19  1  6
 20 21  1  0
 20 22  1  0
 21 14  1  0
 22 24  1  0
 23 22  2  0
M  END
$$$$
