TLL.pdb
     RDKit          3D

 24 23  0  0  1  0  0  0  0  0999 V2000
   21.0337  -10.0264  -19.2822 C   0  0  0  0  0  0  0  0  0  0  0  0
   20.5854  -11.3327  -18.6284 C   0  0  1  0  0  0  0  0  0  0  0  0
   19.9019  -12.0963  -19.5611 O   0  0  0  0  0  0  0  0  0  0  0  0
   21.8298  -12.0519  -18.1728 C   0  0  2  0  0  0  0  0  0  0  0  0
   21.5724  -13.3873  -17.7202 N   0  0  0  0  0  0  0  0  0  0  0  0
   22.4777  -11.2649  -17.0789 C   0  0  0  0  0  0  0  0  0  0  0  0
   21.9367  -11.1345  -15.9547 O   0  0  0  0  0  0  0  0  0  0  0  0
   26.3801  -11.6415  -14.7516 C   0  0  0  0  0  0  0  0  0  0  0  0
   26.5255  -11.0283  -16.0844 C   0  0  2  0  0  0  0  0  0  0  0  0
   28.0171  -10.9414  -16.4305 C   0  0  0  0  0  0  0  0  0  0  0  0
   25.8123   -9.7956  -16.4249 C   0  0  0  0  0  0  0  0  0  0  0  0
   24.3336   -9.6965  -16.3270 C   0  0  2  0  0  0  0  0  0  0  0  0
   23.7327  -10.6456  -17.3017 N   0  0  0  0  0  0  0  0  0  0  0  0
   23.7849   -8.3573  -16.5602 C   0  0  0  0  0  0  0  0  0  0  0  0
   23.5501   -7.8668  -17.6892 O   0  0  0  0  0  0  0  0  0  0  0  0
   19.1174   -5.6595  -16.7472 C   0  0  0  0  0  0  0  0  0  0  0  0
   20.5566   -5.2220  -16.4483 C   0  0  2  0  0  0  0  0  0  0  0  0
   21.0666   -4.3085  -17.5393 C   0  0  0  0  0  0  0  0  0  0  0  0
   21.4012   -6.4468  -16.2908 C   0  0  0  0  0  0  0  0  0  0  0  0
   22.7499   -6.2116  -15.6720 C   0  0  2  0  0  0  0  0  0  0  0  0
   23.4607   -7.4672  -15.4740 N   0  0  0  0  0  0  0  0  0  0  0  0
   22.6148   -5.5656  -14.3535 C   0  0  0  0  0  0  0  0  0  0  0  0
   22.4938   -6.2791  -13.3311 O   0  0  0  0  0  0  0  0  0  0  0  0
   22.6134   -4.1967  -14.1603 O   0  0  0  0  0  0  0  0  0  0  0  0
  2  4  1  0
  2  1  1  6
  3  2  1  0
  4  5  1  1
  6  4  1  0
  6 13  1  0
  7  6  2  0
  9  8  1  1
  9 11  1  0
  9 10  1  0
 12 11  1  6
 12 13  1  0
 14 12  1  0
 15 14  2  0
 17 16  1  6
 17 19  1  0
 18 17  1  0
 20 19  1  1
 20 21  1  0
 20 22  1  0
 21 14  1  0
 22 24  1  0
 23 22  2  0
M  END
$$$$
