TLL.pdb
     RDKit          3D

 24 23  0  0  1  0  0  0  0  0999 V2000
   19.1333  -10.1863  -20.2875 C   0  0  0  0  0  0  0  0  0  0  0  0
   18.3536  -11.2083  -19.4614 C   0  0  1  0  0  0  0  0  0  0  0  0
   17.8431  -12.1809  -20.3062 O   0  0  0  0  0  0  0  0  0  0  0  0
   19.3227  -11.8208  -18.4821 C   0  0  2  0  0  0  0  0  0  0  0  0
   18.7990  -12.9829  -17.8266 N   0  0  0  0  0  0  0  0  0  0  0  0
   19.7029  -10.7953  -17.4626 C   0  0  0  0  0  0  0  0  0  0  0  0
   18.8831  -10.3854  -16.6061 O   0  0  0  0  0  0  0  0  0  0  0  0
   22.7032  -10.2646  -13.6690 C   0  0  0  0  0  0  0  0  0  0  0  0
   23.2897  -10.4282  -15.0116 C   0  0  2  0  0  0  0  0  0  0  0  0
   24.8143  -10.5287  -14.8780 C   0  0  0  0  0  0  0  0  0  0  0  0
   22.8941   -9.5509  -16.1151 C   0  0  0  0  0  0  0  0  0  0  0  0
   21.4667   -9.2834  -16.4267 C   0  0  2  0  0  0  0  0  0  0  0  0
   21.0166  -10.2639  -17.4504 N   0  0  0  0  0  0  0  0  0  0  0  0
   21.1794   -7.9268  -16.9024 C   0  0  0  0  0  0  0  0  0  0  0  0
   21.7056   -7.3945  -17.9075 O   0  0  0  0  0  0  0  0  0  0  0  0
   18.5501   -5.6367  -19.4248 C   0  0  0  0  0  0  0  0  0  0  0  0
   17.9773   -6.2959  -18.1641 C   0  0  2  0  0  0  0  0  0  0  0  0
   16.4675   -6.3320  -18.2283 C   0  0  0  0  0  0  0  0  0  0  0  0
   18.4782   -5.5481  -16.9690 C   0  0  0  0  0  0  0  0  0  0  0  0
   19.9439   -5.7155  -16.6849 C   0  0  2  0  0  0  0  0  0  0  0  0
   20.2376   -7.0675  -16.2302 N   0  0  0  0  0  0  0  0  0  0  0  0
   20.3806   -4.7868  -15.6261 C   0  0  0  0  0  0  0  0  0  0  0  0
   20.3544   -3.5536  -15.8436 O   0  0  0  0  0  0  0  0  0  0  0  0
   20.8263   -5.1892  -14.3809 O   0  0  0  0  0  0  0  0  0  0  0  0
  2  4  1  0
  2  1  1  6
  3  2  1  0
  4  5  1  1
  6  4  1  0
  6 13  1  0
  7  6  2  0
  9  8  1  1
  9 11  1  0
  9 10  1  0
 12 11  1  6
 12 13  1  0
 14 12  1  0
 15 14  2  0
 17 16  1  6
 17 19  1  0
 18 17  1  0
 20 19  1  1
 20 21  1  0
 20 22  1  0
 21 14  1  0
 22 24  1  0
 23 22  2  0
M  END
$$$$
