LGN.pdb
     RDKit          3D

 21 20  0  0  1  0  0  0  0  0999 V2000
   25.0938  -33.0504  -13.9618 C   0  0  0  0  0  0  0  0  0  0  0  0
   26.0722  -33.9102  -13.2205 C   0  0  2  0  0  0  0  0  0  0  0  0
   26.5516  -35.0858  -14.0179 C   0  0  0  0  0  0  0  0  0  0  0  0
   25.4448  -34.4082  -11.9196 C   0  0  0  0  0  0  0  0  0  0  0  0
   25.1530  -33.1423  -11.1029 C   0  0  2  0  0  0  0  0  0  0  0  0
   26.4119  -32.5513  -10.7832 N   0  0  0  0  0  0  0  0  0  0  0  0
   24.3945  -33.5783   -9.9072 C   0  0  0  0  0  0  0  0  0  0  0  0
   23.2674  -34.1251   -9.9848 O   0  0  0  0  0  0  0  0  0  0  0  0
   24.9171  -33.3957   -8.5668 N   0  0  0  0  0  0  0  0  0  0  0  0
   24.1531  -33.8529   -7.4341 C   0  0  0  0  0  0  0  0  0  0  0  0
   24.8525  -33.7303   -6.1663 C   0  0  0  0  0  0  0  0  0  0  0  0
   25.9501  -33.0878   -6.1459 O   0  0  0  0  0  0  0  0  0  0  0  0
   21.9347  -33.6861   -2.2232 N   0  0  0  0  0  0  0  0  0  0  0  0
   23.3207  -33.3181   -2.2882 C   0  0  0  0  0  0  0  0  0  0  0  0
   23.6617  -32.1195   -2.1325 O   0  0  0  0  0  0  0  0  0  0  0  0
   24.3357  -34.3630   -2.5396 C   0  0  0  0  0  0  0  0  0  0  0  0
   25.1899  -34.0731   -3.7441 C   0  0  2  0  0  0  0  0  0  0  0  0
   24.3957  -34.2744   -4.9647 N   0  0  0  0  0  0  0  0  0  0  0  0
   26.3705  -34.9533   -3.8143 C   0  0  0  0  0  0  0  0  0  0  0  0
   26.3759  -36.0472   -4.4443 O   0  0  0  0  0  0  0  0  0  0  0  0
   27.5344  -34.5777   -3.1654 O   0  0  0  0  0  0  0  0  0  0  0  0
  2  3  1  6
  2  4  1  0
  2  1  1  0
  5  4  1  0
  5  7  1  0
  5  6  1  1
  7  8  2  0
  9 10  1  0
  9  7  1  0
 10 11  1  0
 11 18  1  0
 11 12  2  0
 13 14  1  0
 14 15  2  0
 17 16  1  1
 16 14  1  0
 17 19  1  0
 18 17  1  0
 19 21  1  0
 20 19  2  0
M  END
$$$$
