LGN.pdb
     RDKit          3D

 21 20  0  0  1  0  0  0  0  0999 V2000
   26.8949  -19.1544   -5.2114 C   0  0  0  0  0  0  0  0  0  0  0  0
   27.7127  -20.0526   -6.0891 C   0  0  2  0  0  0  0  0  0  0  0  0
   29.1694  -20.0620   -5.7347 C   0  0  0  0  0  0  0  0  0  0  0  0
   27.5541  -19.6360   -7.5504 C   0  0  0  0  0  0  0  0  0  0  0  0
   26.1306  -20.0584   -7.9373 C   0  0  2  0  0  0  0  0  0  0  0  0
   25.9362  -21.3807   -7.4372 N   0  0  0  0  0  0  0  0  0  0  0  0
   26.0546  -19.9782   -9.4148 C   0  0  0  0  0  0  0  0  0  0  0  0
   25.9105  -18.8912  -10.0255 O   0  0  0  0  0  0  0  0  0  0  0  0
   26.1434  -21.1631  -10.2463 N   0  0  0  0  0  0  0  0  0  0  0  0
   26.0897  -21.0347  -11.6803 C   0  0  0  0  0  0  0  0  0  0  0  0
   24.7812  -21.3156  -12.2461 C   0  0  0  0  0  0  0  0  0  0  0  0
   24.7257  -21.7794  -13.4293 O   0  0  0  0  0  0  0  0  0  0  0  0
   18.9119  -21.5922  -11.5116 N   0  0  0  0  0  0  0  0  0  0  0  0
   20.0575  -22.4269  -11.7383 C   0  0  0  0  0  0  0  0  0  0  0  0
   19.9442  -23.4831  -12.4081 O   0  0  0  0  0  0  0  0  0  0  0  0
   21.3654  -22.0288  -11.1759 C   0  0  0  0  0  0  0  0  0  0  0  0
   22.3197  -21.5131  -12.2190 C   0  0  2  0  0  0  0  0  0  0  0  0
   23.5763  -21.1083  -11.5723 N   0  0  0  0  0  0  0  0  0  0  0  0
   21.7787  -20.3471  -12.9409 C   0  0  0  0  0  0  0  0  0  0  0  0
   21.7562  -19.1843  -12.4499 O   0  0  0  0  0  0  0  0  0  0  0  0
   21.2681  -20.5179  -14.2164 O   0  0  0  0  0  0  0  0  0  0  0  0
  2  3  1  1
  2  4  1  0
  2  1  1  0
  5  4  1  0
  5  7  1  0
  5  6  1  6
  7  8  2  0
  9 10  1  0
  9  7  1  0
 10 11  1  0
 11 18  1  0
 11 12  2  0
 13 14  1  0
 14 15  2  0
 17 16  1  1
 16 14  1  0
 17 19  1  0
 18 17  1  0
 19 21  1  0
 20 19  2  0
M  END
$$$$
