LGN.pdb
     RDKit          3D

 21 20  0  0  1  0  0  0  0  0999 V2000
   28.8537  -21.4738  -22.1606 C   0  0  0  0  0  0  0  0  0  0  0  0
   28.0726  -21.7560  -20.9131 C   0  0  2  0  0  0  0  0  0  0  0  0
   26.5918  -21.8118  -21.1406 C   0  0  0  0  0  0  0  0  0  0  0  0
   28.3787  -20.6950  -19.8574 C   0  0  0  0  0  0  0  0  0  0  0  0
   29.8039  -21.0022  -19.3792 C   0  0  2  0  0  0  0  0  0  0  0  0
   30.5411  -21.4443  -20.5183 N   0  0  0  0  0  0  0  0  0  0  0  0
   29.6810  -22.0386  -18.3276 C   0  0  0  0  0  0  0  0  0  0  0  0
   29.0329  -21.8529  -17.2689 O   0  0  0  0  0  0  0  0  0  0  0  0
   30.3088  -23.3388  -18.4641 N   0  0  0  0  0  0  0  0  0  0  0  0
   30.2184  -24.2919  -17.3875 C   0  0  0  0  0  0  0  0  0  0  0  0
   29.0883  -25.1984  -17.4995 C   0  0  0  0  0  0  0  0  0  0  0  0
   28.4141  -25.1870  -18.5781 O   0  0  0  0  0  0  0  0  0  0  0  0
   28.3178  -30.4544  -17.1643 N   0  0  0  0  0  0  0  0  0  0  0  0
   28.7258  -29.1447  -16.7416 C   0  0  0  0  0  0  0  0  0  0  0  0
   29.8944  -28.7453  -16.9695 O   0  0  0  0  0  0  0  0  0  0  0  0
   27.7574  -28.2770  -16.0384 C   0  0  0  0  0  0  0  0  0  0  0  0
   27.5371  -26.9606  -16.7334 C   0  0  2  0  0  0  0  0  0  0  0  0
   28.6932  -26.0843  -16.4957 N   0  0  0  0  0  0  0  0  0  0  0  0
   26.3294  -26.2692  -16.2466 C   0  0  0  0  0  0  0  0  0  0  0  0
   26.3642  -25.3552  -15.3765 O   0  0  0  0  0  0  0  0  0  0  0  0
   25.0929  -26.6265  -16.7566 O   0  0  0  0  0  0  0  0  0  0  0  0
  2  3  1  6
  2  4  1  0
  2  1  1  0
  5  4  1  0
  5  7  1  0
  5  6  1  6
  7  8  2  0
  9 10  1  0
  9  7  1  0
 10 11  1  0
 11 18  1  0
 11 12  2  0
 13 14  1  0
 14 15  2  0
 17 16  1  1
 16 14  1  0
 17 19  1  0
 18 17  1  0
 19 21  1  0
 20 19  2  0
M  END
$$$$
