LGN.pdb
     RDKit          3D

 21 20  0  0  1  0  0  0  0  0999 V2000
   26.0432  -12.7380  -18.0072 C   0  0  0  0  0  0  0  0  0  0  0  0
   26.7561  -13.2742  -16.8029 C   0  0  2  0  0  0  0  0  0  0  0  0
   25.8813  -13.3684  -15.5891 C   0  0  0  0  0  0  0  0  0  0  0  0
   27.9663  -12.3984  -16.4829 C   0  0  0  0  0  0  0  0  0  0  0  0
   28.8097  -12.3929  -17.7647 C   0  0  2  0  0  0  0  0  0  0  0  0
   29.3872  -13.6918  -17.8910 N   0  0  0  0  0  0  0  0  0  0  0  0
   29.8190  -11.3209  -17.6000 C   0  0  0  0  0  0  0  0  0  0  0  0
   30.9249  -11.5151  -17.0391 O   0  0  0  0  0  0  0  0  0  0  0  0
   29.5834   -9.9738  -18.0827 N   0  0  0  0  0  0  0  0  0  0  0  0
   30.6137   -8.9760  -17.9463 C   0  0  0  0  0  0  0  0  0  0  0  0
   30.3011   -7.7164  -18.5998 C   0  0  0  0  0  0  0  0  0  0  0  0
   30.1881   -7.7093  -19.8668 O   0  0  0  0  0  0  0  0  0  0  0  0
   26.5817   -4.2181  -17.0048 N   0  0  0  0  0  0  0  0  0  0  0  0
   27.5347   -4.9011  -17.8330 C   0  0  0  0  0  0  0  0  0  0  0  0
   27.1881   -5.9168  -18.4851 O   0  0  0  0  0  0  0  0  0  0  0  0
   28.9218   -4.3957  -17.9077 C   0  0  0  0  0  0  0  0  0  0  0  0
   29.8314   -5.2941  -18.7015 C   0  0  2  0  0  0  0  0  0  0  0  0
   30.1161   -6.5090  -17.9242 N   0  0  0  0  0  0  0  0  0  0  0  0
   31.1148   -4.6436  -19.0228 C   0  0  0  0  0  0  0  0  0  0  0  0
   31.1986   -3.5984  -19.7257 O   0  0  0  0  0  0  0  0  0  0  0  0
   32.2909   -5.1912  -18.5396 O   0  0  0  0  0  0  0  0  0  0  0  0
  2  3  1  1
  2  4  1  0
  2  1  1  0
  5  4  1  0
  5  7  1  0
  5  6  1  1
  7  8  2  0
  9 10  1  0
  9  7  1  0
 10 11  1  0
 11 18  1  0
 11 12  2  0
 13 14  1  0
 14 15  2  0
 17 16  1  1
 16 14  1  0
 17 19  1  0
 18 17  1  0
 19 21  1  0
 20 19  2  0
M  END
$$$$
