LGN.pdb
     RDKit          3D

 21 20  0  0  1  0  0  0  0  0999 V2000
   19.5039  -16.2667  -21.4468 C   0  0  0  0  0  0  0  0  0  0  0  0
   20.8306  -16.4616  -20.7777 C   0  0  2  0  0  0  0  0  0  0  0  0
   20.9603  -17.7893  -20.0935 C   0  0  0  0  0  0  0  0  0  0  0  0
   21.0680  -15.3471  -19.7601 C   0  0  0  0  0  0  0  0  0  0  0  0
   20.9801  -14.0429  -20.5635 C   0  0  2  0  0  0  0  0  0  0  0  0
   22.1559  -13.9674  -21.3685 N   0  0  0  0  0  0  0  0  0  0  0  0
   20.8810  -12.9446  -19.5740 C   0  0  0  0  0  0  0  0  0  0  0  0
   19.9061  -12.8259  -18.7923 O   0  0  0  0  0  0  0  0  0  0  0  0
   21.9151  -11.9352  -19.4520 N   0  0  0  0  0  0  0  0  0  0  0  0
   21.7601  -10.8658  -18.4991 C   0  0  0  0  0  0  0  0  0  0  0  0
   20.6449   -9.9799  -18.7872 C   0  0  0  0  0  0  0  0  0  0  0  0
   20.3636   -9.7457  -20.0054 O   0  0  0  0  0  0  0  0  0  0  0  0
   17.2887  -10.8667  -18.4971 N   0  0  0  0  0  0  0  0  0  0  0  0
   16.8649   -9.9679  -17.4612 C   0  0  0  0  0  0  0  0  0  0  0  0
   15.8869  -10.2647  -16.7315 O   0  0  0  0  0  0  0  0  0  0  0  0
   17.5911   -8.6952  -17.2658 C   0  0  0  0  0  0  0  0  0  0  0  0
   18.7344   -8.5186  -18.2282 C   0  0  2  0  0  0  0  0  0  0  0  0
   19.8594   -9.3671  -17.8095 N   0  0  0  0  0  0  0  0  0  0  0  0
   19.2069   -7.1231  -18.2814 C   0  0  0  0  0  0  0  0  0  0  0  0
   20.0062   -6.6352  -17.4348 O   0  0  0  0  0  0  0  0  0  0  0  0
   18.7635   -6.2967  -19.2999 O   0  0  0  0  0  0  0  0  0  0  0  0
  2  3  1  1
  2  4  1  0
  2  1  1  0
  5  4  1  0
  5  7  1  0
  5  6  1  1
  7  8  2  0
  9 10  1  0
  9  7  1  0
 10 11  1  0
 11 18  1  0
 11 12  2  0
 13 14  1  0
 14 15  2  0
 17 16  1  1
 16 14  1  0
 17 19  1  0
 18 17  1  0
 19 21  1  0
 20 19  2  0
M  END
$$$$
