LGN.pdb
     RDKit          3D

 21 20  0  0  1  0  0  0  0  0999 V2000
   29.0257  -19.4196   -7.1067 C   0  0  0  0  0  0  0  0  0  0  0  0
   28.8384  -20.8645   -7.4577 C   0  0  2  0  0  0  0  0  0  0  0  0
   30.1271  -21.5804   -7.7301 C   0  0  0  0  0  0  0  0  0  0  0  0
   27.9273  -20.9889   -8.6777 C   0  0  0  0  0  0  0  0  0  0  0  0
   26.6745  -20.1743   -8.3295 C   0  0  2  0  0  0  0  0  0  0  0  0
   26.1043  -20.7626   -7.1611 N   0  0  0  0  0  0  0  0  0  0  0  0
   25.7836  -20.2462   -9.5111 C   0  0  0  0  0  0  0  0  0  0  0  0
   26.1869  -20.0110  -10.6762 O   0  0  0  0  0  0  0  0  0  0  0  0
   24.3817  -20.5960   -9.3864 N   0  0  0  0  0  0  0  0  0  0  0  0
   23.7995  -21.5480  -10.2977 C   0  0  0  0  0  0  0  0  0  0  0  0
   23.0634  -20.9384  -11.3922 C   0  0  0  0  0  0  0  0  0  0  0  0
   21.7946  -20.8963  -11.3125 O   0  0  0  0  0  0  0  0  0  0  0  0
   23.4189  -18.6000  -17.0545 N   0  0  0  0  0  0  0  0  0  0  0  0
   22.8700  -18.5791  -15.7283 C   0  0  0  0  0  0  0  0  0  0  0  0
   21.7336  -18.0848  -15.5252 O   0  0  0  0  0  0  0  0  0  0  0  0
   23.6558  -19.1442  -14.6110 C   0  0  0  0  0  0  0  0  0  0  0  0
   22.8046  -19.8660  -13.6016 C   0  0  2  0  0  0  0  0  0  0  0  0
   23.6614  -20.3939  -12.5300 N   0  0  0  0  0  0  0  0  0  0  0  0
   22.0689  -20.9952  -14.1993 C   0  0  0  0  0  0  0  0  0  0  0  0
   22.6164  -22.0943  -14.4924 O   0  0  0  0  0  0  0  0  0  0  0  0
   20.7154  -20.8605  -14.4573 O   0  0  0  0  0  0  0  0  0  0  0  0
  2  3  1  6
  2  4  1  0
  2  1  1  0
  5  4  1  0
  5  7  1  0
  5  6  1  1
  7  8  2  0
  9 10  1  0
  9  7  1  0
 10 11  1  0
 11 18  1  0
 11 12  2  0
 13 14  1  0
 14 15  2  0
 17 16  1  6
 16 14  1  0
 17 19  1  0
 18 17  1  0
 19 21  1  0
 20 19  2  0
M  END
$$$$
