LGN.pdb
     RDKit          3D

 21 20  0  0  1  0  0  0  0  0999 V2000
   23.5201  -10.9172  -16.2172 C   0  0  0  0  0  0  0  0  0  0  0  0
   22.3123  -10.1636  -16.6857 C   0  0  2  0  0  0  0  0  0  0  0  0
   22.4000   -9.7354  -18.1198 C   0  0  0  0  0  0  0  0  0  0  0  0
   22.0944   -8.9331  -15.8068 C   0  0  0  0  0  0  0  0  0  0  0  0
   21.7891   -9.4862  -14.4085 C   0  0  2  0  0  0  0  0  0  0  0  0
   20.8146  -10.5161  -14.5696 N   0  0  0  0  0  0  0  0  0  0  0  0
   21.3002   -8.3438  -13.6015 C   0  0  0  0  0  0  0  0  0  0  0  0
   21.9963   -7.3216  -13.3869 O   0  0  0  0  0  0  0  0  0  0  0  0
   19.9768   -8.3428  -13.0083 N   0  0  0  0  0  0  0  0  0  0  0  0
   19.5077   -7.1726  -12.3110 C   0  0  0  0  0  0  0  0  0  0  0  0
   18.1355   -7.2778  -11.8448 C   0  0  0  0  0  0  0  0  0  0  0  0
   17.2230   -7.4848  -12.7065 O   0  0  0  0  0  0  0  0  0  0  0  0
   14.1100   -6.7806   -7.4186 N   0  0  0  0  0  0  0  0  0  0  0  0
   14.8054   -7.7272   -8.2438 C   0  0  0  0  0  0  0  0  0  0  0  0
   14.2377   -8.7897   -8.5983 O   0  0  0  0  0  0  0  0  0  0  0  0
   16.1912   -7.4362   -8.6683 C   0  0  0  0  0  0  0  0  0  0  0  0
   16.3301   -7.2951  -10.1601 C   0  0  2  0  0  0  0  0  0  0  0  0
   17.7527   -7.1659  -10.5071 N   0  0  0  0  0  0  0  0  0  0  0  0
   15.6224   -6.1089  -10.6754 C   0  0  0  0  0  0  0  0  0  0  0  0
   16.1106   -4.9455  -10.6345 O   0  0  0  0  0  0  0  0  0  0  0  0
   14.3642   -6.2604  -11.2328 O   0  0  0  0  0  0  0  0  0  0  0  0
  2  3  1  6
  2  4  1  0
  2  1  1  0
  5  4  1  0
  5  7  1  0
  5  6  1  6
  7  8  2  0
  9 10  1  0
  9  7  1  0
 10 11  1  0
 11 18  1  0
 11 12  2  0
 13 14  1  0
 14 15  2  0
 17 16  1  1
 16 14  1  0
 17 19  1  0
 18 17  1  0
 19 21  1  0
 20 19  2  0
M  END
$$$$
