LGN.pdb
     RDKit          3D

 21 20  0  0  1  0  0  0  0  0999 V2000
   25.2293  -14.7060  -17.2400 C   0  0  0  0  0  0  0  0  0  0  0  0
   25.9616  -14.9474  -15.9549 C   0  0  2  0  0  0  0  0  0  0  0  0
   26.6811  -13.7347  -15.4457 C   0  0  0  0  0  0  0  0  0  0  0  0
   26.9630  -16.0872  -16.1338 C   0  0  0  0  0  0  0  0  0  0  0  0
   26.1089  -17.3438  -16.3473 C   0  0  2  0  0  0  0  0  0  0  0  0
   25.0638  -17.3093  -15.3762 N   0  0  0  0  0  0  0  0  0  0  0  0
   27.0170  -18.5030  -16.1837 C   0  0  0  0  0  0  0  0  0  0  0  0
   28.1690  -18.3949  -15.6972 O   0  0  0  0  0  0  0  0  0  0  0  0
   26.6218  -19.8407  -16.5804 N   0  0  0  0  0  0  0  0  0  0  0  0
   27.3276  -20.9801  -16.0519 C   0  0  0  0  0  0  0  0  0  0  0  0
   26.8396  -21.4240  -14.7572 C   0  0  0  0  0  0  0  0  0  0  0  0
   27.3364  -22.4840  -14.2595 O   0  0  0  0  0  0  0  0  0  0  0  0
   25.7944  -22.4054   -9.8437 N   0  0  0  0  0  0  0  0  0  0  0  0
   25.6967  -21.0410  -10.2789 C   0  0  0  0  0  0  0  0  0  0  0  0
   25.1900  -20.1744   -9.5244 O   0  0  0  0  0  0  0  0  0  0  0  0
   26.1978  -20.6716  -11.6196 C   0  0  0  0  0  0  0  0  0  0  0  0
   25.4264  -21.3246  -12.7345 C   0  0  2  0  0  0  0  0  0  0  0  0
   25.8569  -20.7595  -14.0214 N   0  0  0  0  0  0  0  0  0  0  0  0
   23.9731  -21.1139  -12.6039 C   0  0  0  0  0  0  0  0  0  0  0  0
   23.2428  -21.8108  -11.8458 O   0  0  0  0  0  0  0  0  0  0  0  0
   23.3659  -20.1102  -13.3391 O   0  0  0  0  0  0  0  0  0  0  0  0
  2  3  1  6
  2  4  1  0
  2  1  1  0
  5  4  1  0
  5  7  1  0
  5  6  1  1
  7  8  2  0
  9 10  1  0
  9  7  1  0
 10 11  1  0
 11 18  1  0
 11 12  2  0
 13 14  1  0
 14 15  2  0
 17 16  1  1
 16 14  1  0
 17 19  1  0
 18 17  1  0
 19 21  1  0
 20 19  2  0
M  END
$$$$
