IHM.pdb
     RDKit          3D

 27 27  0  0  1  0  0  0  0  0999 V2000
   18.0186  -12.9051  -19.9676 C   0  0  0  0  0  0  0  0  0  0  0  0
   19.0867  -12.2785  -19.1400 C   0  0  0  0  0  0  0  0  0  0  0  0
   18.6788  -11.0180  -18.4165 C   0  0  2  0  0  0  0  0  0  0  0  0
   18.0484  -10.1056  -19.4147 C   0  0  0  0  0  0  0  0  0  0  0  0
   19.8073  -10.4718  -17.6240 C   0  0  2  0  0  0  0  0  0  0  0  0
   20.2885  -11.5901  -16.7740 N   0  0  0  0  0  0  0  0  0  0  0  0
   19.5186   -9.2981  -16.7918 C   0  0  0  0  0  0  0  0  0  0  0  0
   18.3681   -9.1677  -16.3249 O   0  0  0  0  0  0  0  0  0  0  0  0
   20.5004   -8.3236  -16.5069 N   0  0  0  0  0  0  0  0  0  0  0  0
   20.3390   -7.0979  -15.8094 C   0  0  1  0  0  0  0  0  0  0  0  0
   21.1133   -6.9195  -14.5578 C   0  0  0  0  0  0  0  0  0  0  0  0
   20.7032   -7.8657  -13.4862 C   0  0  0  0  0  0  0  0  0  0  0  0
   19.6309   -8.7439  -13.5081 C   0  0  0  0  0  0  0  0  0  0  0  0
   19.6181   -9.4093  -12.3527 N   0  0  0  0  0  0  0  0  0  0  0  0
   20.6578   -8.9691  -11.6051 C   0  0  0  0  0  0  0  0  0  0  0  0
   21.2950   -8.0415  -12.3078 N   0  0  0  0  0  0  0  0  0  0  0  0
   20.3723   -5.9056  -16.7266 C   0  0  0  0  0  0  0  0  0  0  0  0
   21.2928   -5.7714  -17.5689 O   0  0  0  0  0  0  0  0  0  0  0  0
   15.6520   -2.1657  -21.4657 C   0  0  0  0  0  0  0  0  0  0  0  0
   16.1898   -3.3903  -20.2846 S   0  0  0  0  0  0  0  0  0  0  0  0
   17.6952   -3.0515  -19.4680 C   0  0  0  0  0  0  0  0  0  0  0  0
   18.2527   -3.9242  -18.4660 C   0  0  0  0  0  0  0  0  0  0  0  0
   19.4768   -3.7395  -17.6705 C   0  0  2  0  0  0  0  0  0  0  0  0
   19.3914   -4.9067  -16.6825 N   0  0  0  0  0  0  0  0  0  0  0  0
   19.4928   -2.5422  -16.7888 C   0  0  0  0  0  0  0  0  0  0  0  0
   19.7500   -1.2750  -17.1187 O   0  0  0  0  0  0  0  0  0  0  0  0
   19.2278   -2.7520  -15.5423 O   0  0  0  0  0  0  0  0  0  0  0  0
  1  2  1  0
  3  5  1  0
  3  2  1  0
  3  4  1  6
  5  6  1  1
  7  8  2  0
  7  5  1  0
  9  7  1  0
 10  9  1  0
 10 11  1  1
 12 16  1  0
 12 11  1  0
 13 12  2  0
 14 13  1  0
 14 15  1  0
 15 16  2  0
 17 10  1  0
 18 17  2  0
 19 20  1  0
 20 21  1  0
 22 21  1  0
 23 24  1  0
 23 22  1  6
 24 17  1  0
 25 23  1  0
 26 25  1  0
 27 25  2  0
M  END
$$$$
