IHM.pdb
     RDKit          3D

 27 27  0  0  1  0  0  0  0  0999 V2000
   21.1054  -20.6772  -15.7396 C   0  0  0  0  0  0  0  0  0  0  0  0
   21.2532  -19.3204  -15.1431 C   0  0  0  0  0  0  0  0  0  0  0  0
   20.1663  -18.3388  -15.5088 C   0  0  2  0  0  0  0  0  0  0  0  0
   19.9634  -18.4155  -16.9850 C   0  0  0  0  0  0  0  0  0  0  0  0
   20.4459  -16.9994  -14.9365 C   0  0  2  0  0  0  0  0  0  0  0  0
   20.7105  -17.2193  -13.4921 N   0  0  0  0  0  0  0  0  0  0  0  0
   19.4025  -15.9815  -15.1055 C   0  0  0  0  0  0  0  0  0  0  0  0
   19.0274  -15.6998  -16.2625 O   0  0  0  0  0  0  0  0  0  0  0  0
   18.8163  -15.3211  -14.0032 N   0  0  0  0  0  0  0  0  0  0  0  0
   17.8092  -14.3208  -14.0179 C   0  0  1  0  0  0  0  0  0  0  0  0
   16.8068  -14.3476  -12.9260 C   0  0  0  0  0  0  0  0  0  0  0  0
   15.9695  -15.5767  -12.9418 C   0  0  0  0  0  0  0  0  0  0  0  0
   14.7276  -15.7377  -13.5362 C   0  0  0  0  0  0  0  0  0  0  0  0
   14.3247  -16.9900  -13.3184 N   0  0  0  0  0  0  0  0  0  0  0  0
   15.2849  -17.6194  -12.6006 C   0  0  0  0  0  0  0  0  0  0  0  0
   16.2634  -16.7492  -12.3866 N   0  0  0  0  0  0  0  0  0  0  0  0
   18.3623  -12.9522  -14.3095 C   0  0  0  0  0  0  0  0  0  0  0  0
   19.4282  -12.5648  -13.7725 O   0  0  0  0  0  0  0  0  0  0  0  0
   21.4425   -9.3047  -19.9681 C   0  0  0  0  0  0  0  0  0  0  0  0
   20.7188  -10.6056  -18.9845 S   0  0  0  0  0  0  0  0  0  0  0  0
   19.8614  -10.0913  -17.5533 C   0  0  0  0  0  0  0  0  0  0  0  0
   19.1225  -11.0027  -16.7169 C   0  0  0  0  0  0  0  0  0  0  0  0
   18.3815  -10.7125  -15.4792 C   0  0  2  0  0  0  0  0  0  0  0  0
   17.7220  -12.0623  -15.1812 N   0  0  0  0  0  0  0  0  0  0  0  0
   17.2253   -9.7893  -15.6268 C   0  0  0  0  0  0  0  0  0  0  0  0
   15.9859  -10.0734  -16.0320 O   0  0  0  0  0  0  0  0  0  0  0  0
   17.4456   -8.5519  -15.3293 O   0  0  0  0  0  0  0  0  0  0  0  0
  1  2  1  0
  3  5  1  0
  3  2  1  0
  3  4  1  6
  5  6  1  1
  7  8  2  0
  7  5  1  0
  9  7  1  0
 10  9  1  0
 10 11  1  1
 12 16  1  0
 12 11  1  0
 13 12  2  0
 14 13  1  0
 14 15  1  0
 15 16  2  0
 17 10  1  0
 18 17  2  0
 19 20  1  0
 20 21  1  0
 22 21  1  0
 23 24  1  0
 23 22  1  6
 24 17  1  0
 25 23  1  0
 26 25  1  0
 27 25  2  0
M  END
$$$$
