IHM.pdb
     RDKit          3D

 27 27  0  0  1  0  0  0  0  0999 V2000
   28.6274  -18.4083  -15.6741 C   0  0  0  0  0  0  0  0  0  0  0  0
   27.5840  -19.4090  -15.3161 C   0  0  0  0  0  0  0  0  0  0  0  0
   27.5462  -19.8006  -13.8588 C   0  0  2  0  0  0  0  0  0  0  0  0
   28.8751  -20.3830  -13.5107 C   0  0  0  0  0  0  0  0  0  0  0  0
   26.3508  -20.6267  -13.5617 C   0  0  2  0  0  0  0  0  0  0  0  0
   26.5109  -21.8753  -14.3492 N   0  0  0  0  0  0  0  0  0  0  0  0
   25.0452  -20.0195  -13.8451 C   0  0  0  0  0  0  0  0  0  0  0  0
   24.6599  -19.0740  -13.1267 O   0  0  0  0  0  0  0  0  0  0  0  0
   24.2233  -20.4720  -14.9007 N   0  0  0  0  0  0  0  0  0  0  0  0
   22.9187  -20.0300  -15.2440 C   0  0  1  0  0  0  0  0  0  0  0  0
   22.5635  -20.0089  -16.6832 C   0  0  0  0  0  0  0  0  0  0  0  0
   21.3007  -19.2716  -16.9547 C   0  0  0  0  0  0  0  0  0  0  0  0
   21.0486  -17.9277  -16.7267 C   0  0  0  0  0  0  0  0  0  0  0  0
   19.7971  -17.6715  -17.1090 N   0  0  0  0  0  0  0  0  0  0  0  0
   19.2570  -18.8237  -17.5718 C   0  0  0  0  0  0  0  0  0  0  0  0
   20.1801  -19.7712  -17.4687 N   0  0  0  0  0  0  0  0  0  0  0  0
   21.8580  -20.6264  -14.3591 C   0  0  0  0  0  0  0  0  0  0  0  0
   21.8159  -21.8639  -14.1552 O   0  0  0  0  0  0  0  0  0  0  0  0
   22.2710  -19.9582   -8.6985 C   0  0  0  0  0  0  0  0  0  0  0  0
   20.4900  -20.0671   -8.6970 S   0  0  0  0  0  0  0  0  0  0  0  0
   19.7528  -20.5106  -10.2161 C   0  0  0  0  0  0  0  0  0  0  0  0
   20.3573  -20.2188  -11.4912 C   0  0  0  0  0  0  0  0  0  0  0  0
   19.8438  -20.5187  -12.8372 C   0  0  2  0  0  0  0  0  0  0  0  0
   20.8844  -19.8387  -13.7318 N   0  0  0  0  0  0  0  0  0  0  0  0
   18.5748  -19.8365  -13.2049 C   0  0  0  0  0  0  0  0  0  0  0  0
   17.3233  -20.2632  -13.0241 O   0  0  0  0  0  0  0  0  0  0  0  0
   18.6949  -18.6843  -13.7762 O   0  0  0  0  0  0  0  0  0  0  0  0
  1  2  1  0
  3  5  1  0
  3  2  1  0
  3  4  1  6
  5  6  1  6
  7  8  2  0
  7  5  1  0
  9  7  1  0
 10  9  1  0
 10 11  1  6
 12 16  1  0
 12 11  1  0
 13 12  2  0
 14 13  1  0
 14 15  1  0
 15 16  2  0
 17 10  1  0
 18 17  2  0
 19 20  1  0
 20 21  1  0
 22 21  1  0
 23 24  1  0
 23 22  1  1
 24 17  1  0
 25 23  1  0
 26 25  1  0
 27 25  2  0
M  END
$$$$
