IHM.pdb
     RDKit          3D

 27 27  0  0  1  0  0  0  0  0999 V2000
   28.3856  -12.7286  -15.8402 C   0  0  0  0  0  0  0  0  0  0  0  0
   26.9258  -13.0082  -15.7436 C   0  0  0  0  0  0  0  0  0  0  0  0
   26.0341  -11.7943  -15.8414 C   0  0  2  0  0  0  0  0  0  0  0  0
   26.4428  -10.8430  -14.7670 C   0  0  0  0  0  0  0  0  0  0  0  0
   24.6046  -12.1875  -15.8841 C   0  0  2  0  0  0  0  0  0  0  0  0
   24.5012  -13.2396  -16.9266 N   0  0  0  0  0  0  0  0  0  0  0  0
   23.6364  -11.1181  -16.1535 C   0  0  0  0  0  0  0  0  0  0  0  0
   23.5795  -10.6433  -17.3068 O   0  0  0  0  0  0  0  0  0  0  0  0
   22.7748  -10.6194  -15.1517 N   0  0  0  0  0  0  0  0  0  0  0  0
   21.7902   -9.6040  -15.2715 C   0  0  1  0  0  0  0  0  0  0  0  0
   20.4204   -9.9250  -14.8044 C   0  0  0  0  0  0  0  0  0  0  0  0
   19.7746  -10.9986  -15.6060 C   0  0  0  0  0  0  0  0  0  0  0  0
   20.3181  -11.6848  -16.6808 C   0  0  0  0  0  0  0  0  0  0  0  0
   19.4117  -12.5626  -17.1116 N   0  0  0  0  0  0  0  0  0  0  0  0
   18.3109  -12.4437  -16.3321 C   0  0  0  0  0  0  0  0  0  0  0  0
   18.5533  -11.4971  -15.4344 N   0  0  0  0  0  0  0  0  0  0  0  0
   22.2929   -8.2595  -14.8202 C   0  0  0  0  0  0  0  0  0  0  0  0
   23.0383   -8.1589  -13.8157 O   0  0  0  0  0  0  0  0  0  0  0  0
   26.9039   -3.2354  -17.7659 C   0  0  0  0  0  0  0  0  0  0  0  0
   25.6237   -4.4775  -17.8082 S   0  0  0  0  0  0  0  0  0  0  0  0
   24.6573   -4.6250  -16.3617 C   0  0  0  0  0  0  0  0  0  0  0  0
   23.5900   -5.5841  -16.2310 C   0  0  0  0  0  0  0  0  0  0  0  0
   22.6657   -5.7762  -15.1023 C   0  0  2  0  0  0  0  0  0  0  0  0
   21.9568   -7.0770  -15.4914 N   0  0  0  0  0  0  0  0  0  0  0  0
   21.5545   -4.7926  -15.0102 C   0  0  0  0  0  0  0  0  0  0  0  0
   21.5407   -3.6162  -14.3801 O   0  0  0  0  0  0  0  0  0  0  0  0
   20.4589   -5.1159  -15.6130 O   0  0  0  0  0  0  0  0  0  0  0  0
  1  2  1  0
  3  5  1  0
  3  2  1  0
  3  4  1  1
  5  6  1  6
  7  8  2  0
  7  5  1  0
  9  7  1  0
 10  9  1  0
 10 11  1  1
 12 16  1  0
 12 11  1  0
 13 12  2  0
 14 13  1  0
 14 15  1  0
 15 16  2  0
 17 10  1  0
 18 17  2  0
 19 20  1  0
 20 21  1  0
 22 21  1  0
 23 24  1  0
 23 22  1  6
 24 17  1  0
 25 23  1  0
 26 25  1  0
 27 25  2  0
M  END
$$$$
