IHM.pdb
     RDKit          3D

 27 27  0  0  1  0  0  0  0  0999 V2000
   23.5304  -31.3534   -8.9330 C   0  0  0  0  0  0  0  0  0  0  0  0
   24.8533  -32.0369   -8.9655 C   0  0  0  0  0  0  0  0  0  0  0  0
   25.2113  -32.7979   -7.7120 C   0  0  2  0  0  0  0  0  0  0  0  0
   25.0324  -31.8745   -6.5538 C   0  0  0  0  0  0  0  0  0  0  0  0
   26.5331  -33.4564   -7.8498 C   0  0  2  0  0  0  0  0  0  0  0  0
   26.4036  -34.3980   -8.9905 N   0  0  0  0  0  0  0  0  0  0  0  0
   27.0404  -34.1657   -6.6695 C   0  0  0  0  0  0  0  0  0  0  0  0
   26.6140  -35.3159   -6.4374 O   0  0  0  0  0  0  0  0  0  0  0  0
   27.9907  -33.5865   -5.8000 N   0  0  0  0  0  0  0  0  0  0  0  0
   28.5681  -34.1533   -4.6336 C   0  0  1  0  0  0  0  0  0  0  0  0
   29.9534  -33.7489   -4.2940 C   0  0  0  0  0  0  0  0  0  0  0  0
   30.9727  -34.3999   -5.1595 C   0  0  0  0  0  0  0  0  0  0  0  0
   30.7694  -35.4285   -6.0664 C   0  0  0  0  0  0  0  0  0  0  0  0
   31.9411  -35.7164   -6.6340 N   0  0  0  0  0  0  0  0  0  0  0  0
   32.8760  -34.8924   -6.1044 C   0  0  0  0  0  0  0  0  0  0  0  0
   32.2696  -34.1105   -5.2205 N   0  0  0  0  0  0  0  0  0  0  0  0
   27.6229  -34.1474   -3.4630 C   0  0  0  0  0  0  0  0  0  0  0  0
   27.0733  -33.0829   -3.0893 O   0  0  0  0  0  0  0  0  0  0  0  0
   23.4986  -39.4366    0.8336 C   0  0  0  0  0  0  0  0  0  0  0  0
   24.5328  -38.8942   -0.5155 S   0  0  0  0  0  0  0  0  0  0  0  0
   24.9866  -37.2085   -0.4975 C   0  0  0  0  0  0  0  0  0  0  0  0
   25.8725  -36.6287   -1.4748 C   0  0  0  0  0  0  0  0  0  0  0  0
   26.3210  -35.2318   -1.5884 C   0  0  2  0  0  0  0  0  0  0  0  0
   27.3180  -35.3127   -2.7483 N   0  0  0  0  0  0  0  0  0  0  0  0
   27.1473  -34.7309   -0.4582 C   0  0  0  0  0  0  0  0  0  0  0  0
   28.4776  -34.6905   -0.3599 O   0  0  0  0  0  0  0  0  0  0  0  0
   26.4980  -34.2793    0.5629 O   0  0  0  0  0  0  0  0  0  0  0  0
  1  2  1  0
  3  5  1  0
  3  2  1  0
  3  4  1  1
  5  6  1  6
  7  8  2  0
  7  5  1  0
  9  7  1  0
 10  9  1  0
 10 11  1  1
 12 16  1  0
 12 11  1  0
 13 12  2  0
 14 13  1  0
 14 15  1  0
 15 16  2  0
 17 10  1  0
 18 17  2  0
 19 20  1  0
 20 21  1  0
 22 21  1  0
 23 24  1  0
 23 22  1  1
 24 17  1  0
 25 23  1  0
 26 25  1  0
 27 25  2  0
M  END
$$$$
