IHM.pdb
     RDKit          3D

 27 27  0  0  1  0  0  0  0  0999 V2000
   17.3275   -9.5459  -21.1058 C   0  0  0  0  0  0  0  0  0  0  0  0
   18.5763  -10.1993  -20.6242 C   0  0  0  0  0  0  0  0  0  0  0  0
   19.1014   -9.6832  -19.3065 C   0  0  2  0  0  0  0  0  0  0  0  0
   19.3259   -8.2152  -19.4511 C   0  0  0  0  0  0  0  0  0  0  0  0
   20.2494  -10.4965  -18.8370 C   0  0  2  0  0  0  0  0  0  0  0  0
   19.8136  -11.9126  -18.9339 N   0  0  0  0  0  0  0  0  0  0  0  0
   20.7442  -10.2159  -17.4843 C   0  0  0  0  0  0  0  0  0  0  0  0
   19.9395  -10.2755  -16.5317 O   0  0  0  0  0  0  0  0  0  0  0  0
   22.0947   -9.8858  -17.2355 N   0  0  0  0  0  0  0  0  0  0  0  0
   22.6846   -9.4833  -16.0087 C   0  0  1  0  0  0  0  0  0  0  0  0
   23.9798  -10.1032  -15.6400 C   0  0  0  0  0  0  0  0  0  0  0  0
   23.9239  -11.5894  -15.6236 C   0  0  0  0  0  0  0  0  0  0  0  0
   22.8067  -12.3886  -15.8099 C   0  0  0  0  0  0  0  0  0  0  0  0
   23.1903  -13.6624  -15.7197 N   0  0  0  0  0  0  0  0  0  0  0  0
   24.5230  -13.6819  -15.4808 C   0  0  0  0  0  0  0  0  0  0  0  0
   24.9411  -12.4238  -15.4273 N   0  0  0  0  0  0  0  0  0  0  0  0
   22.6397   -7.9924  -15.8109 C   0  0  0  0  0  0  0  0  0  0  0  0
   23.0349   -7.2148  -16.7130 O   0  0  0  0  0  0  0  0  0  0  0  0
   18.9692   -2.0394  -16.9256 C   0  0  0  0  0  0  0  0  0  0  0  0
   19.4283   -3.7575  -16.7794 S   0  0  0  0  0  0  0  0  0  0  0  0
   20.7150   -4.1089  -15.6530 C   0  0  0  0  0  0  0  0  0  0  0  0
   21.2348   -5.4378  -15.4524 C   0  0  0  0  0  0  0  0  0  0  0  0
   22.2288   -5.8922  -14.4672 C   0  0  2  0  0  0  0  0  0  0  0  0
   22.1615   -7.4138  -14.6283 N   0  0  0  0  0  0  0  0  0  0  0  0
   21.8612   -5.6801  -13.0422 C   0  0  0  0  0  0  0  0  0  0  0  0
   21.3611   -6.5638  -12.1762 O   0  0  0  0  0  0  0  0  0  0  0  0
   22.0442   -4.4879  -12.5803 O   0  0  0  0  0  0  0  0  0  0  0  0
  1  2  1  0
  3  5  1  0
  3  2  1  0
  3  4  1  6
  5  6  1  1
  7  8  2  0
  7  5  1  0
  9  7  1  0
 10  9  1  0
 10 11  1  6
 12 16  1  0
 12 11  1  0
 13 12  2  0
 14 13  1  0
 14 15  1  0
 15 16  2  0
 17 10  1  0
 18 17  2  0
 19 20  1  0
 20 21  1  0
 22 21  1  0
 23 24  1  0
 23 22  1  6
 24 17  1  0
 25 23  1  0
 26 25  1  0
 27 25  2  0
M  END
$$$$
