IHM.pdb
     RDKit          3D

 27 27  0  0  1  0  0  0  0  0999 V2000
   18.6957  -28.4592  -12.9181 C   0  0  0  0  0  0  0  0  0  0  0  0
   19.5705  -28.4120  -11.7136 C   0  0  0  0  0  0  0  0  0  0  0  0
   20.1765  -29.7345  -11.3107 C   0  0  2  0  0  0  0  0  0  0  0  0
   19.0769  -30.7420  -11.2633 C   0  0  0  0  0  0  0  0  0  0  0  0
   21.0082  -29.5881  -10.0914 C   0  0  2  0  0  0  0  0  0  0  0  0
   22.1187  -28.6747  -10.4615 N   0  0  0  0  0  0  0  0  0  0  0  0
   21.5476  -30.8235   -9.5114 C   0  0  0  0  0  0  0  0  0  0  0  0
   20.7471  -31.7127   -9.1547 O   0  0  0  0  0  0  0  0  0  0  0  0
   22.9354  -31.0304   -9.3505 N   0  0  0  0  0  0  0  0  0  0  0  0
   23.5957  -32.1870   -8.8591 C   0  0  1  0  0  0  0  0  0  0  0  0
   24.9170  -32.5173   -9.4446 C   0  0  0  0  0  0  0  0  0  0  0  0
   24.8250  -32.9640  -10.8602 C   0  0  0  0  0  0  0  0  0  0  0  0
   24.0080  -33.9589  -11.3742 C   0  0  0  0  0  0  0  0  0  0  0  0
   24.2328  -34.0415  -12.6859 N   0  0  0  0  0  0  0  0  0  0  0  0
   25.1726  -33.1214  -13.0079 C   0  0  0  0  0  0  0  0  0  0  0  0
   25.5129  -32.4863  -11.8937 N   0  0  0  0  0  0  0  0  0  0  0  0
   23.5487  -32.2818   -7.3582 C   0  0  0  0  0  0  0  0  0  0  0  0
   23.6810  -31.2560   -6.6475 O   0  0  0  0  0  0  0  0  0  0  0  0
   18.8357  -32.3469   -1.9331 C   0  0  0  0  0  0  0  0  0  0  0  0
   19.5177  -32.4485   -3.5787 S   0  0  0  0  0  0  0  0  0  0  0  0
   21.1902  -32.9388   -3.6812 C   0  0  0  0  0  0  0  0  0  0  0  0
   21.8762  -33.1137   -4.9362 C   0  0  0  0  0  0  0  0  0  0  0  0
   23.2744  -33.5100   -5.1670 C   0  0  2  0  0  0  0  0  0  0  0  0
   23.3576  -33.5013   -6.6964 N   0  0  0  0  0  0  0  0  0  0  0  0
   23.6086  -34.9147   -4.8119 C   0  0  0  0  0  0  0  0  0  0  0  0
   24.1650  -35.3745   -3.6894 O   0  0  0  0  0  0  0  0  0  0  0  0
   23.3295  -35.8071   -5.7029 O   0  0  0  0  0  0  0  0  0  0  0  0
  1  2  1  0
  3  5  1  0
  3  2  1  0
  3  4  1  1
  5  6  1  6
  7  8  2  0
  7  5  1  0
  9  7  1  0
 10  9  1  0
 10 11  1  1
 12 16  1  0
 12 11  1  0
 13 12  2  0
 14 13  1  0
 14 15  1  0
 15 16  2  0
 17 10  1  0
 18 17  2  0
 19 20  1  0
 20 21  1  0
 22 21  1  0
 23 24  1  0
 23 22  1  6
 24 17  1  0
 25 23  1  0
 26 25  1  0
 27 25  2  0
M  END
$$$$
