IHM.pdb
     RDKit          3D

 27 27  0  0  1  0  0  0  0  0999 V2000
   16.1759  -14.3709  -19.5927 C   0  0  0  0  0  0  0  0  0  0  0  0
   17.4950  -14.0020  -19.0077 C   0  0  0  0  0  0  0  0  0  0  0  0
   17.4542  -12.8893  -17.9885 C   0  0  2  0  0  0  0  0  0  0  0  0
   16.7542  -11.7284  -18.6117 C   0  0  0  0  0  0  0  0  0  0  0  0
   18.8020  -12.6378  -17.4226 C   0  0  2  0  0  0  0  0  0  0  0  0
   19.2620  -13.9369  -16.8699 N   0  0  0  0  0  0  0  0  0  0  0  0
   18.8995  -11.5937  -16.3961 C   0  0  0  0  0  0  0  0  0  0  0  0
   18.1617  -11.6749  -15.3923 O   0  0  0  0  0  0  0  0  0  0  0  0
   19.7997  -10.5117  -16.5131 N   0  0  0  0  0  0  0  0  0  0  0  0
   19.9149   -9.3753  -15.6703 C   0  0  1  0  0  0  0  0  0  0  0  0
   20.8898   -9.4498  -14.5559 C   0  0  0  0  0  0  0  0  0  0  0  0
   22.1839  -10.0600  -14.9618 C   0  0  0  0  0  0  0  0  0  0  0  0
   22.4973  -10.6230  -16.1892 C   0  0  0  0  0  0  0  0  0  0  0  0
   23.7588  -11.0517  -16.1371 N   0  0  0  0  0  0  0  0  0  0  0  0
   24.2453  -10.7710  -14.9051 C   0  0  0  0  0  0  0  0  0  0  0  0
   23.2800  -10.1752  -14.2169 N   0  0  0  0  0  0  0  0  0  0  0  0
   19.9671   -8.0870  -16.4459 C   0  0  0  0  0  0  0  0  0  0  0  0
   20.2596   -8.0860  -17.6663 O   0  0  0  0  0  0  0  0  0  0  0  0
   15.6211   -3.7245  -19.0136 C   0  0  0  0  0  0  0  0  0  0  0  0
   16.8004   -4.9649  -19.5180 S   0  0  0  0  0  0  0  0  0  0  0  0
   18.3696   -4.8778  -18.7579 C   0  0  0  0  0  0  0  0  0  0  0  0
   18.7769   -5.7729  -17.7047 C   0  0  0  0  0  0  0  0  0  0  0  0
   19.8255   -5.5761  -16.6912 C   0  0  2  0  0  0  0  0  0  0  0  0
   19.6952   -6.8491  -15.8496 N   0  0  0  0  0  0  0  0  0  0  0  0
   19.5717   -4.4875  -15.7107 C   0  0  0  0  0  0  0  0  0  0  0  0
   19.8133   -3.1817  -15.8430 O   0  0  0  0  0  0  0  0  0  0  0  0
   19.0545   -4.8482  -14.5835 O   0  0  0  0  0  0  0  0  0  0  0  0
  1  2  1  0
  3  5  1  0
  3  2  1  0
  3  4  1  6
  5  6  1  1
  7  8  2  0
  7  5  1  0
  9  7  1  0
 10  9  1  0
 10 11  1  6
 12 16  1  0
 12 11  1  0
 13 12  2  0
 14 13  1  0
 14 15  1  0
 15 16  2  0
 17 10  1  0
 18 17  2  0
 19 20  1  0
 20 21  1  0
 22 21  1  0
 23 24  1  0
 23 22  1  6
 24 17  1  0
 25 23  1  0
 26 25  1  0
 27 25  2  0
M  END
$$$$
