IHM.pdb
     RDKit          3D

 27 27  0  0  1  0  0  0  0  0999 V2000
   24.4836  -28.1308  -19.0923 C   0  0  0  0  0  0  0  0  0  0  0  0
   24.0105  -27.3726  -17.9007 C   0  0  0  0  0  0  0  0  0  0  0  0
   25.0294  -26.4426  -17.2881 C   0  0  2  0  0  0  0  0  0  0  0  0
   26.2466  -27.2464  -16.9741 C   0  0  0  0  0  0  0  0  0  0  0  0
   24.4344  -25.6605  -16.1772 C   0  0  2  0  0  0  0  0  0  0  0  0
   23.2408  -24.9853  -16.7464 N   0  0  0  0  0  0  0  0  0  0  0  0
   25.3055  -24.6747  -15.5270 C   0  0  0  0  0  0  0  0  0  0  0  0
   26.3082  -25.0841  -14.9059 O   0  0  0  0  0  0  0  0  0  0  0  0
   25.0419  -23.2885  -15.5878 N   0  0  0  0  0  0  0  0  0  0  0  0
   25.7002  -22.2421  -14.8902 C   0  0  1  0  0  0  0  0  0  0  0  0
   26.0084  -21.0063  -15.6488 C   0  0  0  0  0  0  0  0  0  0  0  0
   26.6724  -19.9686  -14.8156 C   0  0  0  0  0  0  0  0  0  0  0  0
   26.1256  -18.7760  -14.3680 C   0  0  0  0  0  0  0  0  0  0  0  0
   27.0530  -18.1390  -13.6525 N   0  0  0  0  0  0  0  0  0  0  0  0
   28.1702  -18.9039  -13.6404 C   0  0  0  0  0  0  0  0  0  0  0  0
   27.9168  -19.9984  -14.3463 N   0  0  0  0  0  0  0  0  0  0  0  0
   25.1059  -21.9948  -13.5302 C   0  0  0  0  0  0  0  0  0  0  0  0
   23.8872  -22.2044  -13.3164 O   0  0  0  0  0  0  0  0  0  0  0  0
   27.3839  -18.9149   -6.5266 C   0  0  0  0  0  0  0  0  0  0  0  0
   27.6617  -19.5753   -8.1607 S   0  0  0  0  0  0  0  0  0  0  0  0
   26.2711  -20.2848   -8.9421 C   0  0  0  0  0  0  0  0  0  0  0  0
   26.3185  -20.8281  -10.2759 C   0  0  0  0  0  0  0  0  0  0  0  0
   25.2121  -21.3615  -11.0862 C   0  0  2  0  0  0  0  0  0  0  0  0
   25.8749  -21.5269  -12.4571 N   0  0  0  0  0  0  0  0  0  0  0  0
   24.0992  -20.4125  -11.3539 C   0  0  0  0  0  0  0  0  0  0  0  0
   22.9943  -20.2084  -10.6337 O   0  0  0  0  0  0  0  0  0  0  0  0
   24.2103  -19.6942  -12.4215 O   0  0  0  0  0  0  0  0  0  0  0  0
  1  2  1  0
  3  5  1  0
  3  2  1  0
  3  4  1  1
  5  6  1  6
  7  8  2  0
  7  5  1  0
  9  7  1  0
 10  9  1  0
 10 11  1  6
 12 16  1  0
 12 11  1  0
 13 12  2  0
 14 13  1  0
 14 15  1  0
 15 16  2  0
 17 10  1  0
 18 17  2  0
 19 20  1  0
 20 21  1  0
 22 21  1  0
 23 24  1  0
 23 22  1  1
 24 17  1  0
 25 23  1  0
 26 25  1  0
 27 25  2  0
M  END
$$$$
