RMN.pdb
     RDKit          3D

 28 27  0  0  1  0  0  0  0  0999 V2000
    8.5067  -12.4469   17.3876 N   0  0  0  0  0  0  0  0  0  0  0  0
    8.0522  -13.4868   16.5289 C   0  0  0  0  0  0  0  0  0  0  0  0
    8.3654  -13.4534   15.2780 N   0  0  0  0  0  0  0  0  0  0  0  0
    7.2611  -14.5448   17.0631 N   0  0  0  0  0  0  0  0  0  0  0  0
    7.0467  -14.6976   18.4657 C   0  0  0  0  0  0  0  0  0  0  0  0
    8.1415  -15.4845   19.1478 C   0  0  0  0  0  0  0  0  0  0  0  0
    8.3206  -14.8951   20.5434 C   0  0  0  0  0  0  0  0  0  0  0  0
    8.9099  -16.0016   21.4036 C   0  0  2  0  0  0  0  0  0  0  0  0
    7.8092  -16.9550   21.5980 N   0  0  0  0  0  0  0  0  0  0  0  0
    9.3446  -15.5017   22.7327 C   0  0  0  0  0  0  0  0  0  0  0  0
   10.4943  -14.9642   22.8539 O   0  0  0  0  0  0  0  0  0  0  0  0
    7.9824  -14.1509   14.6298 C   0  0  0  0  0  0  0  0  0  0  0  0
    6.2091  -12.8109   27.7090 S   0  0  0  0  0  0  0  0  0  0  0  0
    6.6731  -11.9649   26.1637 C   0  0  0  0  0  0  0  0  0  0  0  0
    7.5417  -13.1730   25.0622 C   0  0  0  0  0  0  0  0  0  0  0  0
    7.8865  -14.3840   25.8664 C   0  0  2  0  0  0  0  0  0  0  0  0
    8.9937  -15.1749   25.2086 N   0  0  0  0  0  0  0  0  0  0  0  0
    8.5202  -15.6017   23.8764 C   0  0  0  0  0  0  0  0  0  0  0  0
    9.2749  -16.3762   26.0139 O   0  0  0  0  0  0  0  0  0  0  0  0
    8.4328  -17.3332   25.9258 N   0  0  0  0  0  0  0  0  0  0  0  0
   12.7254  -18.3154   24.9167 C   0  0  0  0  0  0  0  0  0  0  0  0
   11.7933  -18.8832   25.8498 O   0  0  0  0  0  0  0  0  0  0  0  0
   11.0121  -19.7342   25.4167 C   0  0  0  0  0  0  0  0  0  0  0  0
   11.8396  -18.4106   27.2421 C   0  0  2  0  0  0  0  0  0  0  0  0
   10.5910  -17.7124   27.6426 N   0  0  0  0  0  0  0  0  0  0  0  0
   10.4078  -16.4908   26.8412 C   0  0  0  0  0  0  0  0  0  0  0  0
   10.6213  -17.2832   29.0791 O   0  0  0  0  0  0  0  0  0  0  0  0
   10.5674  -16.0948   29.4336 O   0  0  0  0  0  0  0  0  0  0  0  0
  2  1  1  0
  3  2  2  0
  4  2  1  0
  5  4  1  0
  6  5  1  0
  7  8  1  0
  7  6  1  0
  8 10  1  0
  8  9  1  1
 10 11  2  0
 12 13  1  0
 13 14  1  0
 15 14  1  0
 16 15  1  6
 17 16  1  0
 17 10  1  0
 18 19  2  0
 18 16  1  0
 20 21  1  0
 21 23  1  0
 21 22  2  0
 24 23  1  6
 24 25  1  0
 24 26  1  0
 25 18  1  0
 26 27  2  0
 26 28  1  0
M  END
$$$$
