RMN.pdb
     RDKit          3D

 28 27  0  0  1  0  0  0  0  0999 V2000
    8.0711  -13.7540   16.3944 N   0  0  0  0  0  0  0  0  0  0  0  0
    8.5443  -13.1806   17.6079 C   0  0  0  0  0  0  0  0  0  0  0  0
    8.3767  -11.9186   17.8162 N   0  0  0  0  0  0  0  0  0  0  0  0
    9.1934  -14.0071   18.5703 N   0  0  0  0  0  0  0  0  0  0  0  0
    8.5885  -15.1941   19.0816 C   0  0  0  0  0  0  0  0  0  0  0  0
    7.5542  -14.9175   20.1478 C   0  0  0  0  0  0  0  0  0  0  0  0
    7.1674  -16.2590   20.7625 C   0  0  0  0  0  0  0  0  0  0  0  0
    8.3948  -16.7591   21.5072 C   0  0  2  0  0  0  0  0  0  0  0  0
    7.9810  -18.0377   22.1009 N   0  0  0  0  0  0  0  0  0  0  0  0
    8.7971  -15.8371   22.5997 C   0  0  0  0  0  0  0  0  0  0  0  0
    9.7172  -14.9803   22.3885 O   0  0  0  0  0  0  0  0  0  0  0  0
    8.7679  -11.4762   18.6555 C   0  0  0  0  0  0  0  0  0  0  0  0
    5.6789  -11.5026   27.0170 S   0  0  0  0  0  0  0  0  0  0  0  0
    7.3558  -11.7581   26.3524 C   0  0  0  0  0  0  0  0  0  0  0  0
    7.2816  -13.0557   25.0341 C   0  0  0  0  0  0  0  0  0  0  0  0
    7.5410  -14.3856   25.6636 C   0  0  2  0  0  0  0  0  0  0  0  0
    8.7101  -15.0796   25.0036 N   0  0  0  0  0  0  0  0  0  0  0  0
    8.1892  -15.8773   23.8750 C   0  0  0  0  0  0  0  0  0  0  0  0
    9.3409  -15.9929   25.9724 O   0  0  0  0  0  0  0  0  0  0  0  0
    8.7360  -16.1504   27.0867 N   0  0  0  0  0  0  0  0  0  0  0  0
   11.2518  -20.4296   27.3857 C   0  0  0  0  0  0  0  0  0  0  0  0
   10.0541  -20.2749   26.6089 O   0  0  0  0  0  0  0  0  0  0  0  0
    9.3498  -21.2762   26.4561 C   0  0  0  0  0  0  0  0  0  0  0  0
    9.7592  -18.9433   26.0576 C   0  0  1  0  0  0  0  0  0  0  0  0
   10.8132  -17.9499   26.3879 N   0  0  0  0  0  0  0  0  0  0  0  0
   10.5445  -16.6725   25.7066 C   0  0  0  0  0  0  0  0  0  0  0  0
   12.1716  -18.3989   25.9384 O   0  0  0  0  0  0  0  0  0  0  0  0
   12.4380  -18.6791   24.7589 O   0  0  0  0  0  0  0  0  0  0  0  0
  2  1  1  0
  3  2  2  0
  4  2  1  0
  5  4  1  0
  6  5  1  0
  7  8  1  0
  7  6  1  0
  8 10  1  0
  8  9  1  1
 10 11  2  0
 12 13  1  0
 13 14  1  0
 15 14  1  0
 16 15  1  6
 17 16  1  0
 17 10  1  0
 18 19  2  0
 18 16  1  0
 20 21  1  0
 21 23  1  0
 21 22  2  0
 24 23  1  1
 24 25  1  0
 24 26  1  0
 25 18  1  0
 26 27  2  0
 26 28  1  0
M  END
$$$$
