RMN.pdb
     RDKit          3D

 28 27  0  0  1  0  0  0  0  0999 V2000
    7.7551  -13.2653   15.3014 N   0  0  0  0  0  0  0  0  0  0  0  0
    8.3930  -13.7051   16.4951 C   0  0  0  0  0  0  0  0  0  0  0  0
    8.7140  -12.8379   17.3946 N   0  0  0  0  0  0  0  0  0  0  0  0
    8.6658  -15.0919   16.6770 N   0  0  0  0  0  0  0  0  0  0  0  0
    8.3645  -15.7706   17.8956 C   0  0  0  0  0  0  0  0  0  0  0  0
    7.2308  -15.1309   18.6628 C   0  0  0  0  0  0  0  0  0  0  0  0
    7.8398  -14.4417   19.8800 C   0  0  0  0  0  0  0  0  0  0  0  0
    8.1725  -15.5427   20.8741 C   0  0  2  0  0  0  0  0  0  0  0  0
    6.9553  -16.3617   20.9515 N   0  0  0  0  0  0  0  0  0  0  0  0
    8.4671  -15.0021   22.2255 C   0  0  0  0  0  0  0  0  0  0  0  0
    9.4609  -14.2192   22.3835 O   0  0  0  0  0  0  0  0  0  0  0  0
    9.1066  -13.1442   18.2919 C   0  0  0  0  0  0  0  0  0  0  0  0
    7.4141  -10.3748   26.5798 S   0  0  0  0  0  0  0  0  0  0  0  0
    6.1314  -11.6657   26.4957 C   0  0  0  0  0  0  0  0  0  0  0  0
    6.9570  -13.3218   26.4428 C   0  0  0  0  0  0  0  0  0  0  0  0
    6.7688  -13.9015   25.0787 C   0  0  1  0  0  0  0  0  0  0  0  0
    7.9539  -14.7512   24.6819 N   0  0  0  0  0  0  0  0  0  0  0  0
    7.6766  -15.3280   23.3508 C   0  0  0  0  0  0  0  0  0  0  0  0
    8.1053  -15.8527   25.6485 O   0  0  0  0  0  0  0  0  0  0  0  0
    7.1105  -16.0786   26.4179 N   0  0  0  0  0  0  0  0  0  0  0  0
    7.3462  -19.9006   26.8559 C   0  0  0  0  0  0  0  0  0  0  0  0
    7.4043  -19.7170   25.4330 O   0  0  0  0  0  0  0  0  0  0  0  0
    6.6524  -20.4125   24.7452 C   0  0  0  0  0  0  0  0  0  0  0  0
    8.3492  -18.7203   24.9061 C   0  0  2  0  0  0  0  0  0  0  0  0
    9.1519  -18.0809   25.9804 N   0  0  0  0  0  0  0  0  0  0  0  0
    9.2729  -16.6338   25.7367 C   0  0  0  0  0  0  0  0  0  0  0  0
   10.5481  -18.6246   26.0403 O   0  0  0  0  0  0  0  0  0  0  0  0
   11.3364  -18.5777   25.0826 O   0  0  0  0  0  0  0  0  0  0  0  0
  2  1  1  0
  3  2  2  0
  4  2  1  0
  5  4  1  0
  6  5  1  0
  7  8  1  0
  7  6  1  0
  8 10  1  0
  8  9  1  1
 10 11  2  0
 12 13  1  0
 13 14  1  0
 15 14  1  0
 16 15  1  6
 17 16  1  0
 17 10  1  0
 18 19  2  0
 18 16  1  0
 20 21  1  0
 21 23  1  0
 21 22  2  0
 24 23  1  1
 24 25  1  0
 24 26  1  0
 25 18  1  0
 26 27  2  0
 26 28  1  0
M  END
$$$$
