RMN.pdb
     RDKit          3D

 28 27  0  0  1  0  0  0  0  0999 V2000
    2.0925  -21.2467   17.8640 N   0  0  0  0  0  0  0  0  0  0  0  0
    1.5113  -21.8926   16.7369 C   0  0  0  0  0  0  0  0  0  0  0  0
    2.1664  -21.9334   15.6264 N   0  0  0  0  0  0  0  0  0  0  0  0
    0.2191  -22.4820   16.8529 N   0  0  0  0  0  0  0  0  0  0  0  0
   -0.5855  -22.3216   18.0205 C   0  0  0  0  0  0  0  0  0  0  0  0
   -1.2188  -20.9533   18.1176 C   0  0  0  0  0  0  0  0  0  0  0  0
   -1.8691  -20.8517   19.4939 C   0  0  0  0  0  0  0  0  0  0  0  0
   -3.1768  -21.6223   19.4079 C   0  0  2  0  0  0  0  0  0  0  0  0
   -3.6319  -21.4399   18.0230 N   0  0  0  0  0  0  0  0  0  0  0  0
   -4.2088  -21.0712   20.3227 C   0  0  0  0  0  0  0  0  0  0  0  0
   -3.9705  -21.0153   21.5739 O   0  0  0  0  0  0  0  0  0  0  0  0
    1.7473  -22.3623   14.7937 C   0  0  0  0  0  0  0  0  0  0  0  0
   -6.6807  -15.3037   18.1269 S   0  0  0  0  0  0  0  0  0  0  0  0
   -7.6560  -16.7448   18.6661 C   0  0  0  0  0  0  0  0  0  0  0  0
   -6.5645  -17.8646   19.6569 C   0  0  0  0  0  0  0  0  0  0  0  0
   -7.3384  -19.0944   20.0045 C   0  0  2  0  0  0  0  0  0  0  0  0
   -6.4821  -20.0758   20.7710 N   0  0  0  0  0  0  0  0  0  0  0  0
   -5.4553  -20.6024   19.8493 C   0  0  0  0  0  0  0  0  0  0  0  0
   -7.3217  -21.1968   21.2284 O   0  0  0  0  0  0  0  0  0  0  0  0
   -7.4383  -22.1866   20.4288 N   0  0  0  0  0  0  0  0  0  0  0  0
   -9.0097  -24.8938   24.1336 C   0  0  0  0  0  0  0  0  0  0  0  0
   -7.8993  -24.8754   23.2234 O   0  0  0  0  0  0  0  0  0  0  0  0
   -7.3241  -25.9471   23.0166 C   0  0  0  0  0  0  0  0  0  0  0  0
   -7.5337  -23.5892   22.6103 C   0  0  1  0  0  0  0  0  0  0  0  0
   -8.4279  -22.4842   23.0420 N   0  0  0  0  0  0  0  0  0  0  0  0
   -7.9683  -21.2037   22.4785 C   0  0  0  0  0  0  0  0  0  0  0  0
   -8.4396  -22.3180   24.5323 O   0  0  0  0  0  0  0  0  0  0  0  0
   -7.7332  -21.4895   25.1284 O   0  0  0  0  0  0  0  0  0  0  0  0
  2  1  1  0
  3  2  2  0
  4  2  1  0
  5  4  1  0
  6  5  1  0
  7  8  1  0
  7  6  1  0
  8 10  1  0
  8  9  1  6
 10 11  2  0
 12 13  1  0
 13 14  1  0
 15 14  1  0
 16 15  1  1
 17 16  1  0
 17 10  1  0
 18 19  2  0
 18 16  1  0
 20 21  1  0
 21 23  1  0
 21 22  2  0
 24 23  1  6
 24 25  1  0
 24 26  1  0
 25 18  1  0
 26 27  2  0
 26 28  1  0
M  END
$$$$
