RMN.pdb
     RDKit          3D

 28 27  0  0  1  0  0  0  0  0999 V2000
    9.1899  -12.7976   16.8039 N   0  0  0  0  0  0  0  0  0  0  0  0
    8.1611  -13.7380   16.5165 C   0  0  0  0  0  0  0  0  0  0  0  0
    8.0893  -14.2526   15.3358 N   0  0  0  0  0  0  0  0  0  0  0  0
    7.2299  -14.0948   17.5345 N   0  0  0  0  0  0  0  0  0  0  0  0
    7.3401  -13.6026   18.8694 C   0  0  0  0  0  0  0  0  0  0  0  0
    7.4676  -14.7039   19.8959 C   0  0  0  0  0  0  0  0  0  0  0  0
    8.9561  -14.9862   20.0748 C   0  0  0  0  0  0  0  0  0  0  0  0
    9.0583  -16.1363   21.0638 C   0  0  2  0  0  0  0  0  0  0  0  0
    7.8031  -16.8830   20.9053 N   0  0  0  0  0  0  0  0  0  0  0  0
    9.1514  -15.6576   22.4666 C   0  0  0  0  0  0  0  0  0  0  0  0
   10.2252  -15.0992   22.8673 O   0  0  0  0  0  0  0  0  0  0  0  0
    7.3057  -14.8661   15.0855 C   0  0  0  0  0  0  0  0  0  0  0  0
    6.4559  -11.2218   26.1146 S   0  0  0  0  0  0  0  0  0  0  0  0
    7.6622  -12.5205   26.5356 C   0  0  0  0  0  0  0  0  0  0  0  0
    6.8044  -14.1607   26.5065 C   0  0  0  0  0  0  0  0  0  0  0  0
    6.8153  -14.6760   25.1041 C   0  0  1  0  0  0  0  0  0  0  0  0
    8.1621  -15.2647   24.7528 N   0  0  0  0  0  0  0  0  0  0  0  0
    8.0815  -15.8006   23.3789 C   0  0  0  0  0  0  0  0  0  0  0  0
    8.4599  -16.3758   25.6733 O   0  0  0  0  0  0  0  0  0  0  0  0
    7.6671  -17.3771   25.6358 N   0  0  0  0  0  0  0  0  0  0  0  0
   13.2292  -19.3050   26.8116 C   0  0  0  0  0  0  0  0  0  0  0  0
   11.8048  -19.3568   26.6377 O   0  0  0  0  0  0  0  0  0  0  0  0
   11.2394  -20.4107   26.9407 C   0  0  0  0  0  0  0  0  0  0  0  0
   11.1317  -18.1577   26.1152 C   0  0  2  0  0  0  0  0  0  0  0  0
   10.0982  -17.6394   27.0481 N   0  0  0  0  0  0  0  0  0  0  0  0
    9.5574  -16.3618   26.5545 C   0  0  0  0  0  0  0  0  0  0  0  0
   10.6557  -17.3707   28.4140 O   0  0  0  0  0  0  0  0  0  0  0  0
   10.7112  -16.2355   28.9131 O   0  0  0  0  0  0  0  0  0  0  0  0
  2  1  1  0
  3  2  2  0
  4  2  1  0
  5  4  1  0
  6  5  1  0
  7  8  1  0
  7  6  1  0
  8 10  1  0
  8  9  1  1
 10 11  2  0
 12 13  1  0
 13 14  1  0
 15 14  1  0
 16 15  1  6
 17 16  1  0
 17 10  1  0
 18 19  2  0
 18 16  1  0
 20 21  1  0
 21 23  1  0
 21 22  2  0
 24 23  1  6
 24 25  1  0
 24 26  1  0
 25 18  1  0
 26 27  2  0
 26 28  1  0
M  END
$$$$
