RMN.pdb
     RDKit          3D

 28 27  0  0  1  0  0  0  0  0999 V2000
    6.8828  -12.4677   16.9871 N   0  0  0  0  0  0  0  0  0  0  0  0
    7.8029  -13.0789   17.8844 C   0  0  0  0  0  0  0  0  0  0  0  0
    8.0598  -12.5058   19.0112 N   0  0  0  0  0  0  0  0  0  0  0  0
    8.4235  -14.3103   17.5249 N   0  0  0  0  0  0  0  0  0  0  0  0
    9.3144  -14.9956   18.4041 C   0  0  0  0  0  0  0  0  0  0  0  0
    8.6010  -15.7089   19.5290 C   0  0  0  0  0  0  0  0  0  0  0  0
    9.6610  -16.4446   20.3430 C   0  0  0  0  0  0  0  0  0  0  0  0
    8.9225  -17.1542   21.4665 C   0  0  2  0  0  0  0  0  0  0  0  0
    7.5062  -16.8276   21.2524 N   0  0  0  0  0  0  0  0  0  0  0  0
    9.3282  -16.6518   22.8038 C   0  0  0  0  0  0  0  0  0  0  0  0
   10.5674  -16.5271   23.0760 O   0  0  0  0  0  0  0  0  0  0  0  0
    8.7284  -12.9275   19.6657 C   0  0  0  0  0  0  0  0  0  0  0  0
    6.9795  -10.9198   26.0059 S   0  0  0  0  0  0  0  0  0  0  0  0
    6.9707  -12.6398   26.6061 C   0  0  0  0  0  0  0  0  0  0  0  0
    7.6767  -13.7328   25.2893 C   0  0  0  0  0  0  0  0  0  0  0  0
    7.6739  -15.1404   25.7903 C   0  0  2  0  0  0  0  0  0  0  0  0
    8.7915  -15.9416   25.1634 N   0  0  0  0  0  0  0  0  0  0  0  0
    8.3796  -16.3040   23.7922 C   0  0  0  0  0  0  0  0  0  0  0  0
    8.9919  -17.1800   25.9361 O   0  0  0  0  0  0  0  0  0  0  0  0
    7.9682  -17.9287   26.0911 N   0  0  0  0  0  0  0  0  0  0  0  0
   12.6435  -19.9665   24.6910 C   0  0  0  0  0  0  0  0  0  0  0  0
   11.5872  -20.2027   25.6345 O   0  0  0  0  0  0  0  0  0  0  0  0
   10.7055  -20.9997   25.3034 C   0  0  0  0  0  0  0  0  0  0  0  0
   11.6355  -19.4818   26.9158 C   0  0  2  0  0  0  0  0  0  0  0  0
   10.3506  -18.8064   27.2318 N   0  0  0  0  0  0  0  0  0  0  0  0
   10.2373  -17.5446   26.4813 C   0  0  0  0  0  0  0  0  0  0  0  0
   10.2422  -18.4529   28.6851 O   0  0  0  0  0  0  0  0  0  0  0  0
   10.2111  -17.2829   29.0985 O   0  0  0  0  0  0  0  0  0  0  0  0
  2  1  1  0
  3  2  2  0
  4  2  1  0
  5  4  1  0
  6  5  1  0
  7  8  1  0
  7  6  1  0
  8 10  1  0
  8  9  1  6
 10 11  2  0
 12 13  1  0
 13 14  1  0
 15 14  1  0
 16 15  1  6
 17 16  1  0
 17 10  1  0
 18 19  2  0
 18 16  1  0
 20 21  1  0
 21 23  1  0
 21 22  2  0
 24 23  1  6
 24 25  1  0
 24 26  1  0
 25 18  1  0
 26 27  2  0
 26 28  1  0
M  END
$$$$
