RMN.pdb
     RDKit          3D

 28 27  0  0  1  0  0  0  0  0999 V2000
    9.1509  -14.6604   15.2538 N   0  0  0  0  0  0  0  0  0  0  0  0
    8.3281  -13.7874   16.0195 C   0  0  0  0  0  0  0  0  0  0  0  0
    8.6481  -12.5414   16.1145 N   0  0  0  0  0  0  0  0  0  0  0  0
    7.1676  -14.3023   16.6667 N   0  0  0  0  0  0  0  0  0  0  0  0
    7.2008  -14.7913   18.0069 C   0  0  0  0  0  0  0  0  0  0  0  0
    8.5222  -14.5387   18.6948 C   0  0  0  0  0  0  0  0  0  0  0  0
    8.2131  -13.9392   20.0632 C   0  0  0  0  0  0  0  0  0  0  0  0
    8.5490  -15.0119   21.0868 C   0  0  2  0  0  0  0  0  0  0  0  0
    7.4552  -15.9873   20.9840 N   0  0  0  0  0  0  0  0  0  0  0  0
    8.5748  -14.4725   22.4703 C   0  0  0  0  0  0  0  0  0  0  0  0
    8.4893  -13.2136   22.6529 O   0  0  0  0  0  0  0  0  0  0  0  0
    8.0180  -11.8794   16.5814 C   0  0  0  0  0  0  0  0  0  0  0  0
    7.6826  -11.3876   26.4890 S   0  0  0  0  0  0  0  0  0  0  0  0
    6.1039  -12.2030   26.0869 C   0  0  0  0  0  0  0  0  0  0  0  0
    6.3292  -14.0354   26.2242 C   0  0  0  0  0  0  0  0  0  0  0  0
    6.8044  -14.5542   24.9061 C   0  0  2  0  0  0  0  0  0  0  0  0
    8.2837  -14.8608   24.9450 N   0  0  0  0  0  0  0  0  0  0  0  0
    8.6913  -15.3140   23.5998 C   0  0  0  0  0  0  0  0  0  0  0  0
    8.5267  -15.9540   25.9024 O   0  0  0  0  0  0  0  0  0  0  0  0
    8.6208  -15.6250   27.1334 N   0  0  0  0  0  0  0  0  0  0  0  0
   12.8510  -16.7008   23.0404 C   0  0  0  0  0  0  0  0  0  0  0  0
   12.0466  -17.4762   23.9424 O   0  0  0  0  0  0  0  0  0  0  0  0
   12.5780  -18.4582   24.4671 C   0  0  0  0  0  0  0  0  0  0  0  0
   10.6591  -17.0444   24.1712 C   0  0  1  0  0  0  0  0  0  0  0  0
    9.9849  -17.8471   25.2239 N   0  0  0  0  0  0  0  0  0  0  0  0
    8.6477  -17.2995   25.5076 C   0  0  0  0  0  0  0  0  0  0  0  0
   10.7408  -17.8268   26.5189 O   0  0  0  0  0  0  0  0  0  0  0  0
   10.2607  -17.3932   27.5783 O   0  0  0  0  0  0  0  0  0  0  0  0
  2  1  1  0
  3  2  2  0
  4  2  1  0
  5  4  1  0
  6  5  1  0
  7  8  1  0
  7  6  1  0
  8 10  1  0
  8  9  1  1
 10 11  2  0
 12 13  1  0
 13 14  1  0
 15 14  1  0
 16 15  1  6
 17 16  1  0
 17 10  1  0
 18 19  2  0
 18 16  1  0
 20 21  1  0
 21 23  1  0
 21 22  2  0
 24 23  1  6
 24 25  1  0
 24 26  1  0
 25 18  1  0
 26 27  2  0
 26 28  1  0
M  END
$$$$
