CSN.pdb
     RDKit          3D

 21 20  0  0  1  0  0  0  0  0999 V2000
    8.4868  -16.4599   17.3619 N   0  0  0  0  0  0  0  0  0  0  0  0
    7.7055  -16.5028   18.5776 C   0  0  1  0  0  0  0  0  0  0  0  0
    7.3429  -17.9654   18.8513 C   0  0  0  0  0  0  0  0  0  0  0  0
    5.8978  -18.4052   17.8391 S   0  0  0  0  0  0  0  0  0  0  0  0
    8.5467  -16.0621   19.6992 C   0  0  0  0  0  0  0  0  0  0  0  0
    9.7957  -16.2564   19.6458 O   0  0  0  0  0  0  0  0  0  0  0  0
    6.9275  -14.7223   23.2320 O   0  0  0  0  0  0  0  0  0  0  0  0
    8.0460  -14.0545   22.7878 C   0  0  0  0  0  0  0  0  0  0  0  0
    8.8665  -14.9136   21.8468 C   0  0  2  0  0  0  0  0  0  0  0  0
    7.9624  -15.4289   20.8228 N   0  0  0  0  0  0  0  0  0  0  0  0
    9.3750  -16.0665   22.6573 C   0  0  0  0  0  0  0  0  0  0  0  0
    8.7339  -17.1469   22.7167 O   0  0  0  0  0  0  0  0  0  0  0  0
   14.4779  -18.6877   24.6535 N   0  0  0  0  0  0  0  0  0  0  0  0
   13.3000  -18.3641   23.9474 C   0  0  0  0  0  0  0  0  0  0  0  0
   12.8276  -19.1948   23.1426 O   0  0  0  0  0  0  0  0  0  0  0  0
   12.6466  -17.0791   24.1560 C   0  0  0  0  0  0  0  0  0  0  0  0
   11.1406  -17.1228   24.1051 C   0  0  2  0  0  0  0  0  0  0  0  0
   10.5893  -15.9922   23.3863 N   0  0  0  0  0  0  0  0  0  0  0  0
   10.5252  -17.1440   25.4443 C   0  0  0  0  0  0  0  0  0  0  0  0
   10.2397  -18.3219   26.1191 O   0  0  0  0  0  0  0  0  0  0  0  0
   10.2333  -16.0701   26.0297 O   0  0  0  0  0  0  0  0  0  0  0  0
  2  5  1  0
  2  1  1  6
  3  2  1  0
  4  3  1  0
  5  6  2  0
  8  7  1  0
  9  8  1  1
 10  9  1  0
 10  5  1  0
 11  9  1  0
 11 12  2  0
 13 14  1  0
 14 16  1  0
 14 15  2  0
 17 16  1  1
 17 18  1  0
 17 19  1  0
 18 11  1  0
 19 21  2  0
 19 20  1  0
M  END
$$$$
