CSN.pdb
     RDKit          3D

 21 20  0  0  1  0  0  0  0  0999 V2000
   10.1002  -16.3159   17.6889 N   0  0  0  0  0  0  0  0  0  0  0  0
    9.3146  -16.5806   18.8734 C   0  0  1  0  0  0  0  0  0  0  0  0
    9.2447  -18.0990   19.0608 C   0  0  0  0  0  0  0  0  0  0  0  0
    8.0374  -18.7754   17.8813 S   0  0  0  0  0  0  0  0  0  0  0  0
   10.0240  -16.0455   20.0439 C   0  0  0  0  0  0  0  0  0  0  0  0
   11.2383  -15.7098   19.9278 O   0  0  0  0  0  0  0  0  0  0  0  0
    8.3164  -16.0130   23.8362 O   0  0  0  0  0  0  0  0  0  0  0  0
    9.1280  -14.9615   23.4761 C   0  0  0  0  0  0  0  0  0  0  0  0
   10.1181  -15.3684   22.4032 C   0  0  2  0  0  0  0  0  0  0  0  0
    9.3533  -15.9093   21.2834 N   0  0  0  0  0  0  0  0  0  0  0  0
   10.9504  -16.4687   22.9873 C   0  0  0  0  0  0  0  0  0  0  0  0
   10.7242  -17.6720   22.6998 O   0  0  0  0  0  0  0  0  0  0  0  0
   16.0515  -18.5440   23.9922 N   0  0  0  0  0  0  0  0  0  0  0  0
   15.3140  -17.7310   24.8785 C   0  0  0  0  0  0  0  0  0  0  0  0
   15.4937  -17.8562   26.1085 O   0  0  0  0  0  0  0  0  0  0  0  0
   14.3575  -16.7604   24.3637 C   0  0  0  0  0  0  0  0  0  0  0  0
   12.9276  -17.2371   24.3400 C   0  0  2  0  0  0  0  0  0  0  0  0
   12.0196  -16.2055   23.8812 N   0  0  0  0  0  0  0  0  0  0  0  0
   12.4563  -17.6922   25.6604 C   0  0  0  0  0  0  0  0  0  0  0  0
   11.4442  -17.0486   26.3574 O   0  0  0  0  0  0  0  0  0  0  0  0
   12.9691  -18.7012   26.2082 O   0  0  0  0  0  0  0  0  0  0  0  0
  2  5  1  0
  2  1  1  6
  3  2  1  0
  4  3  1  0
  5  6  2  0
  8  7  1  0
  9  8  1  1
 10  9  1  0
 10  5  1  0
 11  9  1  0
 11 12  2  0
 13 14  1  0
 14 16  1  0
 14 15  2  0
 17 16  1  1
 17 18  1  0
 17 19  1  0
 18 11  1  0
 19 21  2  0
 19 20  1  0
M  END
$$$$
