CSN.pdb
     RDKit          3D

 21 20  0  0  1  0  0  0  0  0999 V2000
    6.7416  -20.1271   24.1393 N   0  0  0  0  0  0  0  0  0  0  0  0
    8.0334  -19.5308   24.3955 C   0  0  1  0  0  0  0  0  0  0  0  0
    7.8154  -18.3012   25.2822 C   0  0  0  0  0  0  0  0  0  0  0  0
    6.9671  -17.0233   24.3056 S   0  0  0  0  0  0  0  0  0  0  0  0
    8.8456  -20.4733   25.1777 C   0  0  0  0  0  0  0  0  0  0  0  0
    8.3179  -21.0752   26.1575 O   0  0  0  0  0  0  0  0  0  0  0  0
   12.3601  -21.7444   23.6866 O   0  0  0  0  0  0  0  0  0  0  0  0
   11.7211  -22.5435   24.6071 C   0  0  0  0  0  0  0  0  0  0  0  0
   10.9210  -21.7189   25.5954 C   0  0  2  0  0  0  0  0  0  0  0  0
   10.2003  -20.7018   24.8355 N   0  0  0  0  0  0  0  0  0  0  0  0
   11.9157  -21.0350   26.4828 C   0  0  0  0  0  0  0  0  0  0  0  0
   12.2984  -19.8618   26.2401 O   0  0  0  0  0  0  0  0  0  0  0  0
   11.5722  -21.3466   31.8500 N   0  0  0  0  0  0  0  0  0  0  0  0
   12.0597  -20.8158   30.6371 C   0  0  0  0  0  0  0  0  0  0  0  0
   11.5146  -19.7991   30.1573 O   0  0  0  0  0  0  0  0  0  0  0  0
   13.1827  -21.4463   29.9565 C   0  0  0  0  0  0  0  0  0  0  0  0
   13.3804  -21.0072   28.5281 C   0  0  2  0  0  0  0  0  0  0  0  0
   12.4646  -21.6731   27.6243 N   0  0  0  0  0  0  0  0  0  0  0  0
   14.7490  -21.2545   28.0397 C   0  0  0  0  0  0  0  0  0  0  0  0
   15.0163  -22.0255   26.9179 O   0  0  0  0  0  0  0  0  0  0  0  0
   15.7391  -20.7628   28.6390 O   0  0  0  0  0  0  0  0  0  0  0  0
  2  5  1  0
  2  1  1  1
  3  2  1  0
  4  3  1  0
  5  6  2  0
  8  7  1  0
  9  8  1  6
 10  9  1  0
 10  5  1  0
 11  9  1  0
 11 12  2  0
 13 14  1  0
 14 16  1  0
 14 15  2  0
 17 16  1  1
 17 18  1  0
 17 19  1  0
 18 11  1  0
 19 21  2  0
 19 20  1  0
M  END
$$$$
