CSN.pdb
     RDKit          3D

 21 20  0  0  1  0  0  0  0  0999 V2000
    2.6345  -19.0091   13.4798 N   0  0  0  0  0  0  0  0  0  0  0  0
    2.8181  -18.7740   14.8944 C   0  0  1  0  0  0  0  0  0  0  0  0
    1.7843  -19.6159   15.6482 C   0  0  0  0  0  0  0  0  0  0  0  0
    0.1735  -18.7773   15.5568 S   0  0  0  0  0  0  0  0  0  0  0  0
    4.1400  -19.2776   15.2926 C   0  0  0  0  0  0  0  0  0  0  0  0
    4.5969  -20.3170   14.7344 O   0  0  0  0  0  0  0  0  0  0  0  0
    6.6542  -16.9206   17.4252 O   0  0  0  0  0  0  0  0  0  0  0  0
    7.1641  -17.9272   16.6373 C   0  0  0  0  0  0  0  0  0  0  0  0
    6.2251  -19.1155   16.5809 C   0  0  2  0  0  0  0  0  0  0  0  0
    4.8890  -18.6050   16.2883 N   0  0  0  0  0  0  0  0  0  0  0  0
    6.2157  -19.7161   17.9534 C   0  0  0  0  0  0  0  0  0  0  0  0
    5.4867  -19.2408   18.8614 O   0  0  0  0  0  0  0  0  0  0  0  0
    5.5408  -24.3379   17.8767 N   0  0  0  0  0  0  0  0  0  0  0  0
    5.5510  -23.3767   18.9095 C   0  0  0  0  0  0  0  0  0  0  0  0
    4.4663  -22.8976   19.3030 O   0  0  0  0  0  0  0  0  0  0  0  0
    6.8098  -22.9512   19.5063 C   0  0  0  0  0  0  0  0  0  0  0  0
    6.9914  -21.4574   19.5952 C   0  0  2  0  0  0  0  0  0  0  0  0
    7.0199  -20.8358   18.2869 N   0  0  0  0  0  0  0  0  0  0  0  0
    8.2287  -21.0743   20.2989 C   0  0  0  0  0  0  0  0  0  0  0  0
    9.1856  -20.2441   19.7338 O   0  0  0  0  0  0  0  0  0  0  0  0
    8.4600  -21.4982   21.4599 O   0  0  0  0  0  0  0  0  0  0  0  0
  2  5  1  0
  2  1  1  6
  3  2  1  0
  4  3  1  0
  5  6  2  0
  8  7  1  0
  9  8  1  1
 10  9  1  0
 10  5  1  0
 11  9  1  0
 11 12  2  0
 13 14  1  0
 14 16  1  0
 14 15  2  0
 17 16  1  6
 17 18  1  0
 17 19  1  0
 18 11  1  0
 19 21  2  0
 19 20  1  0
M  END
$$$$
