ANS.pdb
     RDKit          3D

 20 19  0  0  1  0  0  0  0  0999 V2000
   18.8849   -9.8630  -16.1621 C   0  0  0  0  0  0  0  0  0  0  0  0
   19.2843   -8.6086  -16.9049 C   0  0  2  0  0  0  0  0  0  0  0  0
   20.5735   -8.8656  -17.4961 N   0  0  0  0  0  0  0  0  0  0  0  0
   19.3433   -7.4258  -16.0448 C   0  0  0  0  0  0  0  0  0  0  0  0
   18.2946   -7.0525  -15.4296 O   0  0  0  0  0  0  0  0  0  0  0  0
   20.5420   -6.7673  -12.5162 N   0  0  0  0  0  0  0  0  0  0  0  0
   21.6660   -6.0143  -12.9453 C   0  0  0  0  0  0  0  0  0  0  0  0
   22.6807   -6.0051  -12.1927 O   0  0  0  0  0  0  0  0  0  0  0  0
   21.7098   -5.2608  -14.2020 C   0  0  0  0  0  0  0  0  0  0  0  0
   20.4413   -5.4102  -15.0157 C   0  0  2  0  0  0  0  0  0  0  0  0
   20.4943   -6.6175  -15.8127 N   0  0  0  0  0  0  0  0  0  0  0  0
   20.2190   -4.2042  -15.8493 C   0  0  0  0  0  0  0  0  0  0  0  0
   20.8533   -4.0744  -16.9263 O   0  0  0  0  0  0  0  0  0  0  0  0
   17.2782   -0.5215  -16.8748 O   0  0  0  0  0  0  0  0  0  0  0  0
   17.5951   -1.5840  -16.0279 C   0  0  0  0  0  0  0  0  0  0  0  0
   19.0191   -2.0170  -16.3193 C   0  0  2  0  0  0  0  0  0  0  0  0
   19.3144   -3.1679  -15.4921 N   0  0  0  0  0  0  0  0  0  0  0  0
   19.9859   -0.9395  -16.0468 C   0  0  0  0  0  0  0  0  0  0  0  0
   20.7047   -1.0011  -15.0353 O   0  0  0  0  0  0  0  0  0  0  0  0
   20.0830    0.1225  -16.9144 O   0  0  0  0  0  0  0  0  0  0  0  0
  2  1  1  1
  2  4  1  0
  2  3  1  0
  4  5  2  0
  6  7  1  0
  7  9  1  0
  8  7  2  0
 10  9  1  6
 11  4  1  0
 11 10  1  0
 12 10  1  0
 12 13  2  0
 14 15  1  0
 16 15  1  1
 16 17  1  0
 16 18  1  0
 17 12  1  0
 18 20  1  0
 19 18  2  0
M  END
$$$$
