ANS.pdb
     RDKit          3D

 20 19  0  0  1  0  0  0  0  0999 V2000
   21.8406   -6.1483  -13.3774 C   0  0  0  0  0  0  0  0  0  0  0  0
   21.9923   -5.7936  -14.8389 C   0  0  2  0  0  0  0  0  0  0  0  0
   21.3757   -4.5037  -15.0221 N   0  0  0  0  0  0  0  0  0  0  0  0
   21.3883   -6.7806  -15.7353 C   0  0  0  0  0  0  0  0  0  0  0  0
   20.1382   -6.7291  -15.9636 O   0  0  0  0  0  0  0  0  0  0  0  0
   22.6818   -7.3563  -19.2991 N   0  0  0  0  0  0  0  0  0  0  0  0
   22.9677   -8.7365  -19.1327 C   0  0  0  0  0  0  0  0  0  0  0  0
   23.7828   -9.2626  -19.9419 O   0  0  0  0  0  0  0  0  0  0  0  0
   22.3764   -9.5697  -18.0814 C   0  0  0  0  0  0  0  0  0  0  0  0
   21.3877   -8.8094  -17.2222 C   0  0  2  0  0  0  0  0  0  0  0  0
   22.0775   -7.8324  -16.4065 N   0  0  0  0  0  0  0  0  0  0  0  0
   20.5871   -9.7508  -16.4027 C   0  0  0  0  0  0  0  0  0  0  0  0
   21.0144  -10.1022  -15.2743 O   0  0  0  0  0  0  0  0  0  0  0  0
   17.0539  -10.7072  -14.0630 O   0  0  0  0  0  0  0  0  0  0  0  0
   17.9713  -10.0424  -14.8772 C   0  0  0  0  0  0  0  0  0  0  0  0
   18.4179  -10.9960  -15.9687 C   0  0  2  0  0  0  0  0  0  0  0  0
   19.3427  -10.2887  -16.8292 N   0  0  0  0  0  0  0  0  0  0  0  0
   17.2792  -11.4976  -16.7574 C   0  0  0  0  0  0  0  0  0  0  0  0
   17.0847  -11.0576  -17.9029 O   0  0  0  0  0  0  0  0  0  0  0  0
   16.4442  -12.4473  -16.2181 O   0  0  0  0  0  0  0  0  0  0  0  0
  2  1  1  1
  2  4  1  0
  2  3  1  0
  4  5  2  0
  6  7  1  0
  7  9  1  0
  8  7  2  0
 10  9  1  1
 11  4  1  0
 11 10  1  0
 12 10  1  0
 12 13  2  0
 14 15  1  0
 16 15  1  1
 16 17  1  0
 16 18  1  0
 17 12  1  0
 18 20  1  0
 19 18  2  0
M  END
$$$$
