ANS.pdb
     RDKit          3D

 20 19  0  0  1  0  0  0  0  0999 V2000
   16.3701  -11.5475  -11.3200 C   0  0  0  0  0  0  0  0  0  0  0  0
   15.4147  -10.5374  -10.7271 C   0  0  2  0  0  0  0  0  0  0  0  0
   14.1652  -10.6804  -11.4314 N   0  0  0  0  0  0  0  0  0  0  0  0
   15.9013   -9.1603  -10.8243 C   0  0  0  0  0  0  0  0  0  0  0  0
   15.7905   -8.5392  -11.9286 O   0  0  0  0  0  0  0  0  0  0  0  0
   14.6640   -6.2940   -7.2482 N   0  0  0  0  0  0  0  0  0  0  0  0
   15.3300   -5.9673   -8.4581 C   0  0  0  0  0  0  0  0  0  0  0  0
   14.6496   -5.4061   -9.3626 O   0  0  0  0  0  0  0  0  0  0  0  0
   16.7488   -6.2405   -8.7062 C   0  0  0  0  0  0  0  0  0  0  0  0
   16.9745   -7.0547   -9.9631 C   0  0  2  0  0  0  0  0  0  0  0  0
   16.5077   -8.4119   -9.7737 N   0  0  0  0  0  0  0  0  0  0  0  0
   18.4033   -7.0092  -10.3567 C   0  0  0  0  0  0  0  0  0  0  0  0
   19.2153   -7.8053   -9.8218 O   0  0  0  0  0  0  0  0  0  0  0  0
   21.6292   -7.7229  -13.0717 O   0  0  0  0  0  0  0  0  0  0  0  0
   20.3865   -7.6236  -12.4451 C   0  0  0  0  0  0  0  0  0  0  0  0
   20.2231   -6.2051  -11.9336 C   0  0  2  0  0  0  0  0  0  0  0  0
   18.9158   -6.0991  -11.3205 N   0  0  0  0  0  0  0  0  0  0  0  0
   20.3537   -5.2142  -13.0158 C   0  0  0  0  0  0  0  0  0  0  0  0
   19.3697   -4.9473  -13.7257 O   0  0  0  0  0  0  0  0  0  0  0  0
   21.5625   -4.5949  -13.2285 O   0  0  0  0  0  0  0  0  0  0  0  0
  2  1  1  6
  2  4  1  0
  2  3  1  0
  4  5  2  0
  6  7  1  0
  7  9  1  0
  8  7  2  0
 10  9  1  1
 11  4  1  0
 11 10  1  0
 12 10  1  0
 12 13  2  0
 14 15  1  0
 16 15  1  6
 16 17  1  0
 16 18  1  0
 17 12  1  0
 18 20  1  0
 19 18  2  0
M  END
$$$$
