ANS.pdb
     RDKit          3D

 20 19  0  0  1  0  0  0  0  0999 V2000
   17.1416  -12.6421  -15.3051 C   0  0  0  0  0  0  0  0  0  0  0  0
   17.0598  -11.1343  -15.2357 C   0  0  2  0  0  0  0  0  0  0  0  0
   16.3336  -10.7011  -16.4030 N   0  0  0  0  0  0  0  0  0  0  0  0
   18.3728  -10.4896  -15.1823 C   0  0  0  0  0  0  0  0  0  0  0  0
   19.1139  -10.6735  -14.1652 O   0  0  0  0  0  0  0  0  0  0  0  0
   21.0334  -11.1961  -18.8797 N   0  0  0  0  0  0  0  0  0  0  0  0
   21.4245  -10.5031  -17.7046 C   0  0  0  0  0  0  0  0  0  0  0  0
   22.1943  -11.1052  -16.9041 O   0  0  0  0  0  0  0  0  0  0  0  0
   20.9897   -9.1413  -17.3794 C   0  0  0  0  0  0  0  0  0  0  0  0
   20.2511   -9.0649  -16.0594 C   0  0  2  0  0  0  0  0  0  0  0  0
   18.9317   -9.6469  -16.1869 N   0  0  0  0  0  0  0  0  0  0  0  0
   20.1951   -7.6626  -15.5810 C   0  0  0  0  0  0  0  0  0  0  0  0
   19.2454   -6.9247  -15.9454 O   0  0  0  0  0  0  0  0  0  0  0  0
   22.2702   -4.2504  -12.7789 O   0  0  0  0  0  0  0  0  0  0  0  0
   22.3302   -5.5404  -13.3070 C   0  0  0  0  0  0  0  0  0  0  0  0
   21.1405   -5.7339  -14.2276 C   0  0  2  0  0  0  0  0  0  0  0  0
   21.1729   -7.0952  -14.7196 N   0  0  0  0  0  0  0  0  0  0  0  0
   21.1631   -4.7893  -15.3577 C   0  0  0  0  0  0  0  0  0  0  0  0
   21.8748   -5.0323  -16.3467 O   0  0  0  0  0  0  0  0  0  0  0  0
   20.3963   -3.6494  -15.3067 O   0  0  0  0  0  0  0  0  0  0  0  0
  2  1  1  6
  2  4  1  0
  2  3  1  0
  4  5  2  0
  6  7  1  0
  7  9  1  0
  8  7  2  0
 10  9  1  6
 11  4  1  0
 11 10  1  0
 12 10  1  0
 12 13  2  0
 14 15  1  0
 16 15  1  1
 16 17  1  0
 16 18  1  0
 17 12  1  0
 18 20  1  0
 19 18  2  0
M  END
$$$$
