ANS.pdb
     RDKit          3D

 20 19  0  0  1  0  0  0  0  0999 V2000
   17.0144   -9.5125  -17.4585 C   0  0  0  0  0  0  0  0  0  0  0  0
   17.7671  -10.4531  -16.5456 C   0  0  2  0  0  0  0  0  0  0  0  0
   16.8855  -10.7657  -15.4489 N   0  0  0  0  0  0  0  0  0  0  0  0
   19.0221   -9.8883  -16.0472 C   0  0  0  0  0  0  0  0  0  0  0  0
   19.7586  -10.5897  -15.2835 O   0  0  0  0  0  0  0  0  0  0  0  0
   23.4699   -7.6693  -14.9376 N   0  0  0  0  0  0  0  0  0  0  0  0
   23.2280   -8.7523  -15.8225 C   0  0  0  0  0  0  0  0  0  0  0  0
   24.2125   -9.4812  -16.1312 O   0  0  0  0  0  0  0  0  0  0  0  0
   21.9110   -9.0659  -16.3849 C   0  0  0  0  0  0  0  0  0  0  0  0
   20.8245   -8.1422  -15.8750 C   0  0  2  0  0  0  0  0  0  0  0  0
   19.5274   -8.5876  -16.3384 N   0  0  0  0  0  0  0  0  0  0  0  0
   21.1072   -6.7433  -16.2772 C   0  0  0  0  0  0  0  0  0  0  0  0
   20.8940   -6.3884  -17.4638 O   0  0  0  0  0  0  0  0  0  0  0  0
   19.1479   -3.1713  -14.8790 O   0  0  0  0  0  0  0  0  0  0  0  0
   19.6357   -4.4753  -14.9701 C   0  0  0  0  0  0  0  0  0  0  0  0
   21.1187   -4.4082  -15.2812 C   0  0  2  0  0  0  0  0  0  0  0  0
   21.6160   -5.7643  -15.3814 N   0  0  0  0  0  0  0  0  0  0  0  0
   21.8633   -3.6741  -14.2436 C   0  0  0  0  0  0  0  0  0  0  0  0
   21.9880   -2.4413  -14.3338 O   0  0  0  0  0  0  0  0  0  0  0  0
   22.4120   -4.3605  -13.1862 O   0  0  0  0  0  0  0  0  0  0  0  0
  2  1  1  6
  2  4  1  0
  2  3  1  0
  4  5  2  0
  6  7  1  0
  7  9  1  0
  8  7  2  0
 10  9  1  6
 11  4  1  0
 11 10  1  0
 12 10  1  0
 12 13  2  0
 14 15  1  0
 16 15  1  1
 16 17  1  0
 16 18  1  0
 17 12  1  0
 18 20  1  0
 19 18  2  0
M  END
$$$$
