ANS.pdb
     RDKit          3D

 20 19  0  0  1  0  0  0  0  0999 V2000
   16.2372  -10.9483  -12.0808 C   0  0  0  0  0  0  0  0  0  0  0  0
   17.0468   -9.9358  -11.3035 C   0  0  2  0  0  0  0  0  0  0  0  0
   17.6285  -10.6353  -10.1854 N   0  0  0  0  0  0  0  0  0  0  0  0
   16.2507   -8.7995  -10.8372 C   0  0  0  0  0  0  0  0  0  0  0  0
   15.6815   -8.0482  -11.6910 O   0  0  0  0  0  0  0  0  0  0  0  0
   12.5773   -8.3628   -9.5404 N   0  0  0  0  0  0  0  0  0  0  0  0
   13.0813   -8.2684   -8.2170 C   0  0  0  0  0  0  0  0  0  0  0  0
   12.3671   -8.7411   -7.2883 O   0  0  0  0  0  0  0  0  0  0  0  0
   14.3725   -7.6624   -7.8785 C   0  0  0  0  0  0  0  0  0  0  0  0
   15.1926   -7.3156   -9.1036 C   0  0  2  0  0  0  0  0  0  0  0  0
   16.0356   -8.4316   -9.4770 N   0  0  0  0  0  0  0  0  0  0  0  0
   15.9792   -6.0816   -8.8644 C   0  0  0  0  0  0  0  0  0  0  0  0
   17.0378   -6.1468   -8.1905 O   0  0  0  0  0  0  0  0  0  0  0  0
   17.9688   -2.2766  -10.3767 O   0  0  0  0  0  0  0  0  0  0  0  0
   17.2599   -3.4753  -10.4622 C   0  0  0  0  0  0  0  0  0  0  0  0
   16.3888   -3.6026   -9.2272 C   0  0  2  0  0  0  0  0  0  0  0  0
   15.5960   -4.8066   -9.3618 N   0  0  0  0  0  0  0  0  0  0  0  0
   15.5068   -2.4352   -9.0564 C   0  0  0  0  0  0  0  0  0  0  0  0
   14.3891   -2.4258   -9.5988 O   0  0  0  0  0  0  0  0  0  0  0  0
   15.9292   -1.3689   -8.2985 O   0  0  0  0  0  0  0  0  0  0  0  0
  2  1  1  1
  2  4  1  0
  2  3  1  0
  4  5  2  0
  6  7  1  0
  7  9  1  0
  8  7  2  0
 10  9  1  1
 11  4  1  0
 11 10  1  0
 12 10  1  0
 12 13  2  0
 14 15  1  0
 16 15  1  6
 16 17  1  0
 16 18  1  0
 17 12  1  0
 18 20  1  0
 19 18  2  0
M  END
$$$$
