ANS.pdb
     RDKit          3D

 20 19  0  0  1  0  0  0  0  0999 V2000
   16.1610   -9.0463  -15.9262 C   0  0  0  0  0  0  0  0  0  0  0  0
   16.2949   -9.5630  -14.5120 C   0  0  2  0  0  0  0  0  0  0  0  0
   15.3956  -10.6827  -14.3892 N   0  0  0  0  0  0  0  0  0  0  0  0
   15.9917   -8.5507  -13.4993 C   0  0  0  0  0  0  0  0  0  0  0  0
   14.8079   -8.0937  -13.4132 O   0  0  0  0  0  0  0  0  0  0  0  0
   15.9137   -4.9220   -9.7626 N   0  0  0  0  0  0  0  0  0  0  0  0
   16.9330   -5.8707   -9.4882 C   0  0  0  0  0  0  0  0  0  0  0  0
   17.5287   -5.7787   -8.3780 O   0  0  0  0  0  0  0  0  0  0  0  0
   17.3211   -6.9396  -10.4134 C   0  0  0  0  0  0  0  0  0  0  0  0
   16.5905   -6.8581  -11.7375 C   0  0  2  0  0  0  0  0  0  0  0  0
   16.9157   -8.0024  -12.5625 N   0  0  0  0  0  0  0  0  0  0  0  0
   16.8994   -5.5775  -12.4182 C   0  0  0  0  0  0  0  0  0  0  0  0
   18.0736   -5.3535  -12.8060 O   0  0  0  0  0  0  0  0  0  0  0  0
   14.9855   -4.0077  -15.2875 O   0  0  0  0  0  0  0  0  0  0  0  0
   14.9967   -3.0543  -14.2689 C   0  0  0  0  0  0  0  0  0  0  0  0
   16.1840   -3.3344  -13.3675 C   0  0  2  0  0  0  0  0  0  0  0  0
   15.9258   -4.5707  -12.6597 N   0  0  0  0  0  0  0  0  0  0  0  0
   16.4116   -2.2417  -12.4062 C   0  0  0  0  0  0  0  0  0  0  0  0
   16.6906   -1.1052  -12.8234 O   0  0  0  0  0  0  0  0  0  0  0  0
   16.3126   -2.4906  -11.0578 O   0  0  0  0  0  0  0  0  0  0  0  0
  2  1  1  6
  2  4  1  0
  2  3  1  0
  4  5  2  0
  6  7  1  0
  7  9  1  0
  8  7  2  0
 10  9  1  1
 11  4  1  0
 11 10  1  0
 12 10  1  0
 12 13  2  0
 14 15  1  0
 16 15  1  6
 16 17  1  0
 16 18  1  0
 17 12  1  0
 18 20  1  0
 19 18  2  0
M  END
$$$$
