GPG.pdb
     RDKit          3D

 16 16  0  0  1  0  0  0  0  0999 V2000
   24.2614  -20.8827   -9.6829 N   0  0  0  0  0  0  0  0  0  0  0  0
   25.0060  -21.3761  -10.7727 C   0  0  0  0  0  0  0  0  0  0  0  0
   25.2731  -20.5048  -11.9103 C   0  0  0  0  0  0  0  0  0  0  0  0
   24.2259  -19.9120  -12.3890 O   0  0  0  0  0  0  0  0  0  0  0  0
   26.4818  -20.2109  -12.5614 N   0  0  0  0  0  0  0  0  0  0  0  0
   27.7877  -20.2316  -11.8883 C   0  0  0  0  0  0  0  0  0  0  0  0
   28.6658  -20.9518  -12.9298 C   0  0  0  0  0  0  0  0  0  0  0  0
   27.7883  -21.0491  -14.1859 C   0  0  0  0  0  0  0  0  0  0  0  0
   26.8824  -19.8365  -13.8652 C   0  0  1  0  0  0  0  0  0  0  0  0
   25.9776  -19.5109  -14.9068 C   0  0  0  0  0  0  0  0  0  0  0  0
   26.0736  -18.5861  -15.7077 O   0  0  0  0  0  0  0  0  0  0  0  0
   24.8103  -20.3513  -15.0528 N   0  0  0  0  0  0  0  0  0  0  0  0
   23.8709  -20.1658  -16.1288 C   0  0  0  0  0  0  0  0  0  0  0  0
   22.6156  -19.5294  -15.6162 C   0  0  0  0  0  0  0  0  0  0  0  0
   22.4638  -18.1669  -15.7986 O   0  0  0  0  0  0  0  0  0  0  0  0
   21.7619  -20.2257  -15.0530 O   0  0  0  0  0  0  0  0  0  0  0  0
  1  2  1  0
  3  4  2  0
  3  2  1  0
  5  3  1  0
  6  5  1  0
  7  8  1  0
  7  6  1  0
  8  9  1  0
  9  5  1  0
  9 10  1  6
 11 10  2  0
 12 10  1  0
 13 12  1  0
 14 15  1  0
 14 13  1  0
 16 14  2  0
M  END
$$$$
