GPG.pdb
     RDKit          3D

 16 16  0  0  1  0  0  0  0  0999 V2000
   28.1075  -18.5887  -15.6735 N   0  0  0  0  0  0  0  0  0  0  0  0
   28.5755  -19.0054  -14.4114 C   0  0  0  0  0  0  0  0  0  0  0  0
   27.7845  -19.9477  -13.6298 C   0  0  0  0  0  0  0  0  0  0  0  0
   26.5195  -19.9453  -13.9075 O   0  0  0  0  0  0  0  0  0  0  0  0
   28.1800  -20.8513  -12.6306 N   0  0  0  0  0  0  0  0  0  0  0  0
   29.3292  -21.7562  -12.7688 C   0  0  0  0  0  0  0  0  0  0  0  0
   29.9987  -21.6260  -11.3870 C   0  0  0  0  0  0  0  0  0  0  0  0
   29.0006  -20.8248  -10.5391 C   0  0  0  0  0  0  0  0  0  0  0  0
   27.7343  -21.2143  -11.3383 C   0  0  1  0  0  0  0  0  0  0  0  0
   26.5287  -20.7463  -10.7578 C   0  0  0  0  0  0  0  0  0  0  0  0
   26.4116  -20.0654   -9.7436 O   0  0  0  0  0  0  0  0  0  0  0  0
   25.2951  -21.1026  -11.4225 N   0  0  0  0  0  0  0  0  0  0  0  0
   24.0492  -20.4503  -11.1115 C   0  0  0  0  0  0  0  0  0  0  0  0
   22.9599  -20.9630  -12.0027 C   0  0  0  0  0  0  0  0  0  0  0  0
   23.2953  -21.2976  -13.3020 O   0  0  0  0  0  0  0  0  0  0  0  0
   21.8088  -21.0721  -11.5622 O   0  0  0  0  0  0  0  0  0  0  0  0
  1  2  1  0
  3  4  2  0
  3  2  1  0
  5  3  1  0
  6  5  1  0
  7  8  1  0
  7  6  1  0
  8  9  1  0
  9  5  1  0
  9 10  1  1
 11 10  2  0
 12 10  1  0
 13 12  1  0
 14 15  1  0
 14 13  1  0
 16 14  2  0
M  END
$$$$
