GPG.pdb
     RDKit          3D

 16 16  0  0  1  0  0  0  0  0999 V2000
   28.2473  -18.8074  -15.7348 N   0  0  0  0  0  0  0  0  0  0  0  0
   28.5198  -18.9817  -14.3634 C   0  0  0  0  0  0  0  0  0  0  0  0
   27.8523  -20.0505  -13.6309 C   0  0  0  0  0  0  0  0  0  0  0  0
   26.6078  -20.2206  -13.9465 O   0  0  0  0  0  0  0  0  0  0  0  0
   28.3473  -20.9180  -12.6441 N   0  0  0  0  0  0  0  0  0  0  0  0
   29.5459  -21.7482  -12.8258 C   0  0  0  0  0  0  0  0  0  0  0  0
   30.2633  -21.5631  -11.4746 C   0  0  0  0  0  0  0  0  0  0  0  0
   29.2520  -20.8206  -10.5897 C   0  0  0  0  0  0  0  0  0  0  0  0
   27.9810  -21.2978  -11.3318 C   0  0  1  0  0  0  0  0  0  0  0  0
   26.7731  -20.9035  -10.7033 C   0  0  0  0  0  0  0  0  0  0  0  0
   26.6501  -20.1401   -9.7504 O   0  0  0  0  0  0  0  0  0  0  0  0
   25.5448  -21.4531  -11.2321 N   0  0  0  0  0  0  0  0  0  0  0  0
   24.2561  -21.0622  -10.7209 C   0  0  0  0  0  0  0  0  0  0  0  0
   23.2747  -20.9220  -11.8438 C   0  0  0  0  0  0  0  0  0  0  0  0
   21.9865  -20.5304  -11.5276 O   0  0  0  0  0  0  0  0  0  0  0  0
   23.6345  -21.1557  -13.0044 O   0  0  0  0  0  0  0  0  0  0  0  0
  1  2  1  0
  3  4  2  0
  3  2  1  0
  5  3  1  0
  6  5  1  0
  7  8  1  0
  7  6  1  0
  8  9  1  0
  9  5  1  0
  9 10  1  1
 11 10  2  0
 12 10  1  0
 13 12  1  0
 14 15  1  0
 14 13  1  0
 16 14  2  0
M  END
$$$$
