GPG.pdb
     RDKit          3D

 16 16  0  0  1  0  0  0  0  0999 V2000
   26.8599  -18.5563  -16.2308 N   0  0  0  0  0  0  0  0  0  0  0  0
   26.5145  -18.8476  -14.8961 C   0  0  0  0  0  0  0  0  0  0  0  0
   25.7401  -20.0469  -14.6024 C   0  0  0  0  0  0  0  0  0  0  0  0
   24.8323  -20.3278  -15.4823 O   0  0  0  0  0  0  0  0  0  0  0  0
   25.8268  -20.9384  -13.5211 N   0  0  0  0  0  0  0  0  0  0  0  0
   27.1001  -21.3546  -12.9175 C   0  0  0  0  0  0  0  0  0  0  0  0
   26.7746  -21.2757  -11.4134 C   0  0  0  0  0  0  0  0  0  0  0  0
   25.2587  -21.0414  -11.3497 C   0  0  0  0  0  0  0  0  0  0  0  0
   24.9223  -21.6745  -12.7208 C   0  0  1  0  0  0  0  0  0  0  0  0
   23.5316  -21.7654  -12.9798 C   0  0  0  0  0  0  0  0  0  0  0  0
   22.6638  -22.1862  -12.2210 O   0  0  0  0  0  0  0  0  0  0  0  0
   23.0716  -21.3171  -14.2752 N   0  0  0  0  0  0  0  0  0  0  0  0
   21.6748  -21.3182  -14.6270 C   0  0  0  0  0  0  0  0  0  0  0  0
   21.0784  -19.9661  -14.3825 C   0  0  0  0  0  0  0  0  0  0  0  0
   19.8931  -19.9042  -13.6726 O   0  0  0  0  0  0  0  0  0  0  0  0
   21.6506  -18.9573  -14.8138 O   0  0  0  0  0  0  0  0  0  0  0  0
  1  2  1  0
  3  4  2  0
  3  2  1  0
  5  3  1  0
  6  5  1  0
  7  8  1  0
  7  6  1  0
  8  9  1  0
  9  5  1  0
  9 10  1  6
 11 10  2  0
 12 10  1  0
 13 12  1  0
 14 15  1  0
 14 13  1  0
 16 14  2  0
M  END
$$$$
