GPG.pdb
     RDKit          3D

 16 16  0  0  1  0  0  0  0  0999 V2000
   18.3503  -10.4731  -16.7033 N   0  0  0  0  0  0  0  0  0  0  0  0
   19.1658   -9.6321  -17.4864 C   0  0  0  0  0  0  0  0  0  0  0  0
   20.4174   -9.1306  -16.9328 C   0  0  0  0  0  0  0  0  0  0  0  0
   20.3373   -8.7285  -15.7044 O   0  0  0  0  0  0  0  0  0  0  0  0
   21.6871   -9.0183  -17.5216 N   0  0  0  0  0  0  0  0  0  0  0  0
   22.1247   -9.8369  -18.6605 C   0  0  0  0  0  0  0  0  0  0  0  0
   22.8231   -8.7897  -19.5494 C   0  0  0  0  0  0  0  0  0  0  0  0
   22.8991   -7.5246  -18.6829 C   0  0  0  0  0  0  0  0  0  0  0  0
   22.8517   -8.2431  -17.3134 C   0  0  1  0  0  0  0  0  0  0  0  0
   23.0354   -7.3744  -16.2083 C   0  0  0  0  0  0  0  0  0  0  0  0
   24.1023   -6.9983  -15.7326 O   0  0  0  0  0  0  0  0  0  0  0  0
   21.8450   -6.8693  -15.5617 N   0  0  0  0  0  0  0  0  0  0  0  0
   21.9145   -5.9764  -14.4336 C   0  0  0  0  0  0  0  0  0  0  0  0
   21.8842   -4.5526  -14.8978 C   0  0  0  0  0  0  0  0  0  0  0  0
   22.0202   -4.3145  -16.2534 O   0  0  0  0  0  0  0  0  0  0  0  0
   21.7409   -3.6422  -14.0722 O   0  0  0  0  0  0  0  0  0  0  0  0
  1  2  1  0
  3  4  2  0
  3  2  1  0
  5  3  1  0
  6  5  1  0
  7  8  1  0
  7  6  1  0
  8  9  1  0
  9  5  1  0
  9 10  1  1
 11 10  2  0
 12 10  1  0
 13 12  1  0
 14 15  1  0
 14 13  1  0
 16 14  2  0
M  END
$$$$
