TIC.pdb
     RDKit          3D

 22 21  0  0  1  0  0  0  0  0999 V2000
    8.0783  -19.8857   20.3942 C   0  0  0  0  0  0  0  0  0  0  0  0
    8.6840  -19.9878   19.0274 C   0  0  1  0  0  0  0  0  0  0  0  0
    8.2082  -21.0685   18.2926 O   0  0  0  0  0  0  0  0  0  0  0  0
    8.5279  -18.7226   18.2141 C   0  0  2  0  0  0  0  0  0  0  0  0
    9.1477  -18.9203   16.9129 N   0  0  0  0  0  0  0  0  0  0  0  0
    9.1248  -17.5369   18.8364 C   0  0  0  0  0  0  0  0  0  0  0  0
   10.3811  -17.4478   18.9664 O   0  0  0  0  0  0  0  0  0  0  0  0
    7.6217  -11.7798   20.3656 C   0  0  0  0  0  0  0  0  0  0  0  0
    8.6072  -12.9134   20.6178 C   0  0  0  0  0  0  0  0  0  0  0  0
    8.0092  -14.1624   19.9799 C   0  0  2  0  0  0  0  0  0  0  0  0
    6.7494  -14.4743   20.7919 C   0  0  0  0  0  0  0  0  0  0  0  0
    8.9769  -15.3282   20.0610 C   0  0  2  0  0  0  0  0  0  0  0  0
    8.3932  -16.4228   19.3321 N   0  0  0  0  0  0  0  0  0  0  0  0
    9.2154  -15.6284   21.4744 C   0  0  0  0  0  0  0  0  0  0  0  0
    8.2373  -15.7222   22.2494 O   0  0  0  0  0  0  0  0  0  0  0  0
   10.5167  -15.8158   21.9912 N   0  0  0  0  0  0  0  0  0  0  0  0
   10.6870  -16.2050   23.3681 C   0  0  1  0  0  0  0  0  0  0  0  0
   10.1874  -17.6131   23.6253 C   0  0  0  0  0  0  0  0  0  0  0  0
    8.6487  -17.5141   24.5750 S   0  0  0  0  0  0  0  0  0  0  0  0
   12.1113  -16.0986   23.7774 C   0  0  0  0  0  0  0  0  0  0  0  0
   12.4468  -16.3710   24.9639 O   0  0  0  0  0  0  0  0  0  0  0  0
   13.0817  -15.7022   22.8695 O   0  0  0  0  0  0  0  0  0  0  0  0
  2  1  1  1
  2  4  1  0
  2  3  1  0
  4  6  1  0
  4  5  1  6
  6  7  2  0
  8  9  1  0
  9 10  1  0
 10 11  1  1
 10 12  1  0
 12 14  1  0
 12 13  1  6
 13  6  1  0
 14 15  2  0
 16 17  1  0
 16 14  1  0
 17 20  1  0
 17 18  1  6
 19 18  1  0
 20 21  2  0
 20 22  1  0
M  END
$$$$
