TIC.pdb
     RDKit          3D

 22 21  0  0  1  0  0  0  0  0999 V2000
    6.2115  -16.7129   19.8198 C   0  0  0  0  0  0  0  0  0  0  0  0
    6.9786  -16.3979   21.0678 C   0  0  1  0  0  0  0  0  0  0  0  0
    8.1608  -17.1210   21.1859 O   0  0  0  0  0  0  0  0  0  0  0  0
    7.2765  -14.9236   21.2242 C   0  0  2  0  0  0  0  0  0  0  0  0
    8.0859  -14.4852   20.0977 N   0  0  0  0  0  0  0  0  0  0  0  0
    7.9851  -14.5872   22.4627 C   0  0  0  0  0  0  0  0  0  0  0  0
    9.2461  -14.4732   22.4665 O   0  0  0  0  0  0  0  0  0  0  0  0
    5.7342  -11.5144   26.3147 C   0  0  0  0  0  0  0  0  0  0  0  0
    6.7261  -12.1223   25.3316 C   0  0  0  0  0  0  0  0  0  0  0  0
    7.1558  -13.4629   25.9170 C   0  0  2  0  0  0  0  0  0  0  0  0
    7.9093  -13.1245   27.2060 C   0  0  0  0  0  0  0  0  0  0  0  0
    8.0741  -14.2016   24.9614 C   0  0  2  0  0  0  0  0  0  0  0  0
    7.3624  -14.3654   23.7218 N   0  0  0  0  0  0  0  0  0  0  0  0
    8.4608  -15.4689   25.5851 C   0  0  0  0  0  0  0  0  0  0  0  0
    7.5672  -16.2726   25.9338 O   0  0  0  0  0  0  0  0  0  0  0  0
    9.8131  -15.8134   25.8057 N   0  0  0  0  0  0  0  0  0  0  0  0
   10.1367  -17.0913   26.3875 C   0  0  1  0  0  0  0  0  0  0  0  0
   11.4241  -17.6609   25.8245 C   0  0  0  0  0  0  0  0  0  0  0  0
   11.3239  -17.6345   24.0167 S   0  0  0  0  0  0  0  0  0  0  0  0
   10.2405  -16.9902   27.8661 C   0  0  0  0  0  0  0  0  0  0  0  0
   10.1749  -15.8599   28.4254 O   0  0  0  0  0  0  0  0  0  0  0  0
   10.4093  -18.1258   28.6439 O   0  0  0  0  0  0  0  0  0  0  0  0
  2  1  1  6
  2  4  1  0
  2  3  1  0
  4  6  1  0
  4  5  1  6
  6  7  2  0
  8  9  1  0
  9 10  1  0
 10 11  1  1
 10 12  1  0
 12 14  1  0
 12 13  1  6
 13  6  1  0
 14 15  2  0
 16 17  1  0
 16 14  1  0
 17 20  1  0
 17 18  1  6
 19 18  1  0
 20 21  2  0
 20 22  1  0
M  END
$$$$
