TIC.pdb
     RDKit          3D

 22 21  0  0  1  0  0  0  0  0999 V2000
    5.8996  -16.0957   19.6398 C   0  0  0  0  0  0  0  0  0  0  0  0
    6.7138  -15.9528   20.8897 C   0  0  1  0  0  0  0  0  0  0  0  0
    7.8274  -16.7853   20.9207 O   0  0  0  0  0  0  0  0  0  0  0  0
    7.1467  -14.5285   21.1553 C   0  0  2  0  0  0  0  0  0  0  0  0
    7.9764  -14.0750   20.0498 N   0  0  0  0  0  0  0  0  0  0  0  0
    7.9005  -14.3575   22.4010 C   0  0  0  0  0  0  0  0  0  0  0  0
    9.1665  -14.3446   22.3850 O   0  0  0  0  0  0  0  0  0  0  0  0
    5.8468  -11.5640   26.6168 C   0  0  0  0  0  0  0  0  0  0  0  0
    6.8665  -12.0610   25.6003 C   0  0  0  0  0  0  0  0  0  0  0  0
    7.1776  -13.5083   25.9651 C   0  0  2  0  0  0  0  0  0  0  0  0
    7.9156  -13.4438   27.3049 C   0  0  0  0  0  0  0  0  0  0  0  0
    8.0663  -14.1518   24.9171 C   0  0  2  0  0  0  0  0  0  0  0  0
    7.3186  -14.1968   23.6886 N   0  0  0  0  0  0  0  0  0  0  0  0
    8.4681  -15.4727   25.4053 C   0  0  0  0  0  0  0  0  0  0  0  0
    7.5831  -16.3044   25.7071 O   0  0  0  0  0  0  0  0  0  0  0  0
    9.8254  -15.8382   25.5465 N   0  0  0  0  0  0  0  0  0  0  0  0
   10.1651  -17.1931   25.9003 C   0  0  1  0  0  0  0  0  0  0  0  0
   11.3576  -17.7023   25.1146 C   0  0  0  0  0  0  0  0  0  0  0  0
   12.6680  -16.4544   25.1827 S   0  0  0  0  0  0  0  0  0  0  0  0
   10.4405  -17.3083   27.3557 C   0  0  0  0  0  0  0  0  0  0  0  0
   10.4972  -16.2681   28.0694 O   0  0  0  0  0  0  0  0  0  0  0  0
   10.6371  -18.5488   27.9436 O   0  0  0  0  0  0  0  0  0  0  0  0
  2  1  1  6
  2  4  1  0
  2  3  1  0
  4  6  1  0
  4  5  1  6
  6  7  2  0
  8  9  1  0
  9 10  1  0
 10 11  1  1
 10 12  1  0
 12 14  1  0
 12 13  1  6
 13  6  1  0
 14 15  2  0
 16 17  1  0
 16 14  1  0
 17 20  1  0
 17 18  1  6
 19 18  1  0
 20 21  2  0
 20 22  1  0
M  END
$$$$
