TIC.pdb
     RDKit          3D

 22 21  0  0  1  0  0  0  0  0999 V2000
    6.3564  -16.6987   19.9528 C   0  0  0  0  0  0  0  0  0  0  0  0
    7.1120  -16.4236   21.2172 C   0  0  1  0  0  0  0  0  0  0  0  0
    8.2629  -17.1929   21.3505 O   0  0  0  0  0  0  0  0  0  0  0  0
    7.4636  -14.9632   21.3916 C   0  0  2  0  0  0  0  0  0  0  0  0
    8.3091  -14.5473   20.2833 N   0  0  0  0  0  0  0  0  0  0  0  0
    8.1626  -14.6644   22.6452 C   0  0  0  0  0  0  0  0  0  0  0  0
    9.4268  -14.7102   22.6983 O   0  0  0  0  0  0  0  0  0  0  0  0
    5.8567  -11.5196   26.4543 C   0  0  0  0  0  0  0  0  0  0  0  0
    6.9373  -12.0895   25.5446 C   0  0  0  0  0  0  0  0  0  0  0  0
    7.2769  -13.4746   26.0839 C   0  0  2  0  0  0  0  0  0  0  0  0
    7.9872  -13.2321   27.4182 C   0  0  0  0  0  0  0  0  0  0  0  0
    8.2010  -14.2138   25.1343 C   0  0  2  0  0  0  0  0  0  0  0  0
    7.5267  -14.3107   23.8670 N   0  0  0  0  0  0  0  0  0  0  0  0
    8.5217  -15.5142   25.7264 C   0  0  0  0  0  0  0  0  0  0  0  0
    7.5955  -16.3252   25.9508 O   0  0  0  0  0  0  0  0  0  0  0  0
    9.8460  -15.8826   26.0527 N   0  0  0  0  0  0  0  0  0  0  0  0
   10.1056  -17.1844   26.6132 C   0  0  1  0  0  0  0  0  0  0  0  0
   11.3002  -17.8539   25.9627 C   0  0  0  0  0  0  0  0  0  0  0  0
   11.1381  -17.7019   24.1655 S   0  0  0  0  0  0  0  0  0  0  0  0
   10.3206  -17.0971   28.0807 C   0  0  0  0  0  0  0  0  0  0  0  0
   10.3400  -15.9687   28.6475 O   0  0  0  0  0  0  0  0  0  0  0  0
   10.5011  -18.2434   28.8399 O   0  0  0  0  0  0  0  0  0  0  0  0
  2  1  1  6
  2  4  1  0
  2  3  1  0
  4  6  1  0
  4  5  1  6
  6  7  2  0
  8  9  1  0
  9 10  1  0
 10 11  1  1
 10 12  1  0
 12 14  1  0
 12 13  1  6
 13  6  1  0
 14 15  2  0
 16 17  1  0
 16 14  1  0
 17 20  1  0
 17 18  1  6
 19 18  1  0
 20 21  2  0
 20 22  1  0
M  END
$$$$
