TIC.pdb
     RDKit          3D

 22 21  0  0  1  0  0  0  0  0999 V2000
    6.0610  -16.0002   19.2905 C   0  0  0  0  0  0  0  0  0  0  0  0
    6.7721  -15.8206   20.5972 C   0  0  1  0  0  0  0  0  0  0  0  0
    7.7990  -16.7371   20.7969 O   0  0  0  0  0  0  0  0  0  0  0  0
    7.3069  -14.4198   20.7932 C   0  0  2  0  0  0  0  0  0  0  0  0
    8.2311  -14.1136   19.7123 N   0  0  0  0  0  0  0  0  0  0  0  0
    8.0027  -14.2208   22.0682 C   0  0  0  0  0  0  0  0  0  0  0  0
    9.2562  -14.3828   22.1440 O   0  0  0  0  0  0  0  0  0  0  0  0
    6.9445  -11.9473   27.7013 C   0  0  0  0  0  0  0  0  0  0  0  0
    7.8186  -12.8875   26.8816 C   0  0  0  0  0  0  0  0  0  0  0  0
    7.1755  -12.9917   25.5031 C   0  0  2  0  0  0  0  0  0  0  0  0
    5.8319  -13.6896   25.7294 C   0  0  0  0  0  0  0  0  0  0  0  0
    8.0352  -13.8189   24.5657 C   0  0  2  0  0  0  0  0  0  0  0  0
    7.3750  -13.8449   23.2876 N   0  0  0  0  0  0  0  0  0  0  0  0
    8.2133  -15.1462   25.1585 C   0  0  0  0  0  0  0  0  0  0  0  0
    7.2381  -15.9292   25.2002 O   0  0  0  0  0  0  0  0  0  0  0  0
    9.4533  -15.5710   25.6856 N   0  0  0  0  0  0  0  0  0  0  0  0
    9.6006  -16.9246   26.1571 C   0  0  1  0  0  0  0  0  0  0  0  0
   10.6368  -17.6929   25.3605 C   0  0  0  0  0  0  0  0  0  0  0  0
   12.1468  -16.6976   25.2679 S   0  0  0  0  0  0  0  0  0  0  0  0
    9.9610  -16.9483   27.5982 C   0  0  0  0  0  0  0  0  0  0  0  0
   10.1539  -15.8640   28.2162 O   0  0  0  0  0  0  0  0  0  0  0  0
   10.0891  -18.1507   28.2769 O   0  0  0  0  0  0  0  0  0  0  0  0
  2  1  1  6
  2  4  1  0
  2  3  1  0
  4  6  1  0
  4  5  1  6
  6  7  2  0
  8  9  1  0
  9 10  1  0
 10 11  1  1
 10 12  1  0
 12 14  1  0
 12 13  1  6
 13  6  1  0
 14 15  2  0
 16 17  1  0
 16 14  1  0
 17 20  1  0
 17 18  1  6
 19 18  1  0
 20 21  2  0
 20 22  1  0
M  END
$$$$
