TIC.pdb
     RDKit          3D

 22 21  0  0  1  0  0  0  0  0999 V2000
    6.7396  -17.4717   20.1929 C   0  0  0  0  0  0  0  0  0  0  0  0
    7.4910  -17.0954   21.4335 C   0  0  1  0  0  0  0  0  0  0  0  0
    8.6281  -17.8676   21.6453 O   0  0  0  0  0  0  0  0  0  0  0  0
    7.8656  -15.6310   21.4782 C   0  0  2  0  0  0  0  0  0  0  0  0
    8.7844  -15.3470   20.3867 N   0  0  0  0  0  0  0  0  0  0  0  0
    8.4961  -15.2155   22.7348 C   0  0  0  0  0  0  0  0  0  0  0  0
    9.7577  -15.1820   22.8360 O   0  0  0  0  0  0  0  0  0  0  0  0
    5.9806  -11.8084   26.2044 C   0  0  0  0  0  0  0  0  0  0  0  0
    7.0651  -12.4498   25.3485 C   0  0  0  0  0  0  0  0  0  0  0  0
    7.4196  -13.7754   26.0132 C   0  0  2  0  0  0  0  0  0  0  0  0
    8.0476  -13.4040   27.3591 C   0  0  0  0  0  0  0  0  0  0  0  0
    8.4179  -14.5516   25.1747 C   0  0  2  0  0  0  0  0  0  0  0  0
    7.7930  -14.8272   23.9083 N   0  0  0  0  0  0  0  0  0  0  0  0
    8.7975  -15.7576   25.9138 C   0  0  0  0  0  0  0  0  0  0  0  0
    7.9107  -16.5831   26.2269 O   0  0  0  0  0  0  0  0  0  0  0  0
   10.1353  -16.0187   26.2849 N   0  0  0  0  0  0  0  0  0  0  0  0
   10.4651  -17.2633   26.9317 C   0  0  1  0  0  0  0  0  0  0  0  0
   11.7459  -17.8639   26.3863 C   0  0  0  0  0  0  0  0  0  0  0  0
   12.1365  -19.3524   27.3407 S   0  0  0  0  0  0  0  0  0  0  0  0
   10.5855  -17.0820   28.4014 C   0  0  0  0  0  0  0  0  0  0  0  0
   10.6826  -18.0916   29.1537 O   0  0  0  0  0  0  0  0  0  0  0  0
   10.5925  -15.8131   28.9606 O   0  0  0  0  0  0  0  0  0  0  0  0
  2  1  1  6
  2  4  1  0
  2  3  1  0
  4  6  1  0
  4  5  1  6
  6  7  2  0
  8  9  1  0
  9 10  1  0
 10 11  1  1
 10 12  1  0
 12 14  1  0
 12 13  1  6
 13  6  1  0
 14 15  2  0
 16 17  1  0
 16 14  1  0
 17 20  1  0
 17 18  1  6
 19 18  1  0
 20 21  2  0
 20 22  1  0
M  END
$$$$
