HQS.pdb
     RDKit          3D

 26 26  0  0  1  0  0  0  0  0999 V2000
    9.9987  -13.3160   11.4577 N   0  0  0  0  0  0  0  0  0  0  0  0
   10.9736  -14.3464   11.6301 C   0  0  1  0  0  0  0  0  0  0  0  0
   12.3414  -13.7610   11.3169 C   0  0  0  0  0  0  0  0  0  0  0  0
   12.4524  -13.5291    9.8587 C   0  0  0  0  0  0  0  0  0  0  0  0
   12.6178  -12.3133    9.2512 C   0  0  0  0  0  0  0  0  0  0  0  0
   12.6728  -12.5363    7.9201 N   0  0  0  0  0  0  0  0  0  0  0  0
   12.5481  -13.8414    7.6776 C   0  0  0  0  0  0  0  0  0  0  0  0
   12.4111  -14.4562    8.8859 N   0  0  0  0  0  0  0  0  0  0  0  0
   11.0293  -14.8544   13.0287 C   0  0  0  0  0  0  0  0  0  0  0  0
   10.7959  -14.0747   13.9872 O   0  0  0  0  0  0  0  0  0  0  0  0
    8.4078  -19.7127   15.8916 N   0  0  0  0  0  0  0  0  0  0  0  0
    9.6769  -19.5918   16.5142 C   0  0  0  0  0  0  0  0  0  0  0  0
   10.0622  -20.5590   17.2182 O   0  0  0  0  0  0  0  0  0  0  0  0
   10.4439  -18.3639   16.2983 C   0  0  0  0  0  0  0  0  0  0  0  0
   10.4959  -17.9397   14.8548 C   0  0  0  0  0  0  0  0  0  0  0  0
   11.3346  -16.6849   14.7091 C   0  0  2  0  0  0  0  0  0  0  0  0
   11.3388  -16.2031   13.3478 N   0  0  0  0  0  0  0  0  0  0  0  0
   12.7131  -16.8869   15.2290 C   0  0  0  0  0  0  0  0  0  0  0  0
   13.5759  -17.5042   14.5547 O   0  0  0  0  0  0  0  0  0  0  0  0
   15.1156  -14.3746   17.2496 O   0  0  0  0  0  0  0  0  0  0  0  0
   14.8668  -15.5653   17.9125 C   0  0  0  0  0  0  0  0  0  0  0  0
   14.4646  -16.6693   16.9761 C   0  0  2  0  0  0  0  0  0  0  0  0
   13.1229  -16.3990   16.4997 N   0  0  0  0  0  0  0  0  0  0  0  0
   14.5581  -18.0081   17.6128 C   0  0  0  0  0  0  0  0  0  0  0  0
   15.7931  -18.4134   18.0975 O   0  0  0  0  0  0  0  0  0  0  0  0
   13.5903  -18.7746   17.7303 O   0  0  0  0  0  0  0  0  0  0  0  0
  2  1  1  1
  3  2  1  0
  4  3  1  0
  5  4  2  0
  6  5  1  0
  7  6  1  0
  7  8  2  0
  8  4  1  0
  9  2  1  0
  9 10  2  0
 12 11  1  0
 13 12  2  0
 14 12  1  0
 16 15  1  6
 15 14  1  0
 17 16  1  0
 17  9  1  0
 18 19  2  0
 18 16  1  0
 20 21  1  0
 22 21  1  1
 22 24  1  0
 22 23  1  0
 23 18  1  0
 24 25  1  0
 26 24  2  0
M  END
$$$$
