HQS.pdb
     RDKit          3D

 26 26  0  0  1  0  0  0  0  0999 V2000
    7.6011  -17.3029   19.2616 N   0  0  0  0  0  0  0  0  0  0  0  0
    8.8326  -16.7971   19.7804 C   0  0  1  0  0  0  0  0  0  0  0  0
    8.5082  -15.7322   20.8159 C   0  0  0  0  0  0  0  0  0  0  0  0
    8.1245  -14.4795   20.1259 C   0  0  0  0  0  0  0  0  0  0  0  0
    8.0403  -14.3049   18.7706 C   0  0  0  0  0  0  0  0  0  0  0  0
    7.6607  -13.0265   18.5555 N   0  0  0  0  0  0  0  0  0  0  0  0
    7.5061  -12.4012   19.7229 C   0  0  0  0  0  0  0  0  0  0  0  0
    7.7954  -13.3081   20.6979 N   0  0  0  0  0  0  0  0  0  0  0  0
    9.6360  -17.8433   20.4716 C   0  0  0  0  0  0  0  0  0  0  0  0
    9.0550  -18.7675   21.0956 O   0  0  0  0  0  0  0  0  0  0  0  0
   15.7362  -19.5793   19.5572 N   0  0  0  0  0  0  0  0  0  0  0  0
   15.3685  -20.2130   20.7722 C   0  0  0  0  0  0  0  0  0  0  0  0
   16.2715  -20.8315   21.3898 O   0  0  0  0  0  0  0  0  0  0  0  0
   13.9790  -20.1059   21.2202 C   0  0  0  0  0  0  0  0  0  0  0  0
   13.2032  -19.0321   20.5051 C   0  0  0  0  0  0  0  0  0  0  0  0
   11.8126  -18.9105   21.0969 C   0  0  2  0  0  0  0  0  0  0  0  0
   11.0559  -17.8554   20.4648 N   0  0  0  0  0  0  0  0  0  0  0  0
   11.8609  -18.7484   22.5743 C   0  0  0  0  0  0  0  0  0  0  0  0
   12.0442  -17.6197   23.0965 O   0  0  0  0  0  0  0  0  0  0  0  0
    9.9608  -21.2250   25.1018 O   0  0  0  0  0  0  0  0  0  0  0  0
   10.3862  -19.9558   25.4584 C   0  0  0  0  0  0  0  0  0  0  0  0
   11.7391  -19.6252   24.8946 C   0  0  2  0  0  0  0  0  0  0  0  0
   11.7044  -19.8468   23.4628 N   0  0  0  0  0  0  0  0  0  0  0  0
   12.8237  -20.4072   25.5415 C   0  0  0  0  0  0  0  0  0  0  0  0
   13.0344  -20.2267   26.9007 O   0  0  0  0  0  0  0  0  0  0  0  0
   13.5445  -21.2080   24.9273 O   0  0  0  0  0  0  0  0  0  0  0  0
  2  1  1  1
  3  2  1  0
  4  3  1  0
  5  4  2  0
  6  5  1  0
  7  6  1  0
  7  8  2  0
  8  4  1  0
  9  2  1  0
  9 10  2  0
 12 11  1  0
 13 12  2  0
 14 12  1  0
 16 15  1  6
 15 14  1  0
 17 16  1  0
 17  9  1  0
 18 19  2  0
 18 16  1  0
 20 21  1  0
 22 21  1  1
 22 24  1  0
 22 23  1  0
 23 18  1  0
 24 25  1  0
 26 24  2  0
M  END
$$$$
