HQS.pdb
     RDKit          3D

 26 26  0  0  1  0  0  0  0  0999 V2000
   15.6029  -13.7742   16.0677 N   0  0  0  0  0  0  0  0  0  0  0  0
   15.7171  -13.9869   17.4761 C   0  0  1  0  0  0  0  0  0  0  0  0
   16.0474  -12.6549   18.1306 C   0  0  0  0  0  0  0  0  0  0  0  0
   17.4811  -12.3491   17.9218 C   0  0  0  0  0  0  0  0  0  0  0  0
   18.4179  -13.2088   17.4140 C   0  0  0  0  0  0  0  0  0  0  0  0
   19.5947  -12.5463   17.3868 N   0  0  0  0  0  0  0  0  0  0  0  0
   19.4255  -11.3102   17.8572 C   0  0  0  0  0  0  0  0  0  0  0  0
   18.1093  -11.1909   18.1892 N   0  0  0  0  0  0  0  0  0  0  0  0
   14.4475  -14.4676   18.0879 C   0  0  0  0  0  0  0  0  0  0  0  0
   13.3620  -13.9001   17.8037 O   0  0  0  0  0  0  0  0  0  0  0  0
   12.6301  -20.0653   18.0873 N   0  0  0  0  0  0  0  0  0  0  0  0
   12.8327  -19.0475   17.1198 C   0  0  0  0  0  0  0  0  0  0  0  0
   12.8718  -19.4042   15.9154 O   0  0  0  0  0  0  0  0  0  0  0  0
   12.9808  -17.6667   17.5827 C   0  0  0  0  0  0  0  0  0  0  0  0
   12.9499  -17.5341   19.0820 C   0  0  0  0  0  0  0  0  0  0  0  0
   13.1393  -16.0839   19.4820 C   0  0  2  0  0  0  0  0  0  0  0  0
   14.3933  -15.5576   18.9964 N   0  0  0  0  0  0  0  0  0  0  0  0
   12.9931  -15.8997   20.9503 C   0  0  0  0  0  0  0  0  0  0  0  0
   14.0014  -15.8134   21.6960 O   0  0  0  0  0  0  0  0  0  0  0  0
    9.9876  -15.8809   24.7785 O   0  0  0  0  0  0  0  0  0  0  0  0
   10.1842  -15.7429   23.4142 C   0  0  0  0  0  0  0  0  0  0  0  0
   11.6257  -15.9063   23.0234 C   0  0  2  0  0  0  0  0  0  0  0  0
   11.7219  -15.8125   21.5804 N   0  0  0  0  0  0  0  0  0  0  0  0
   12.2036  -17.1786   23.5271 C   0  0  0  0  0  0  0  0  0  0  0  0
   12.7337  -17.1901   24.8090 O   0  0  0  0  0  0  0  0  0  0  0  0
   12.2340  -18.2233   22.8595 O   0  0  0  0  0  0  0  0  0  0  0  0
  2  1  1  6
  3  2  1  0
  4  3  1  0
  5  4  2  0
  6  5  1  0
  7  6  1  0
  7  8  2  0
  8  4  1  0
  9  2  1  0
  9 10  2  0
 12 11  1  0
 13 12  2  0
 14 12  1  0
 16 15  1  1
 15 14  1  0
 17 16  1  0
 17  9  1  0
 18 19  2  0
 18 16  1  0
 20 21  1  0
 22 21  1  6
 22 24  1  0
 22 23  1  0
 23 18  1  0
 24 25  1  0
 26 24  2  0
M  END
$$$$
