HQS.pdb
     RDKit          3D

 26 26  0  0  1  0  0  0  0  0999 V2000
    6.5420  -16.5829   19.9447 N   0  0  0  0  0  0  0  0  0  0  0  0
    7.4482  -15.8264   20.7498 C   0  0  1  0  0  0  0  0  0  0  0  0
    7.2203  -14.3513   20.4604 C   0  0  0  0  0  0  0  0  0  0  0  0
    7.7314  -14.0333   19.1075 C   0  0  0  0  0  0  0  0  0  0  0  0
    8.3523  -14.9104   18.2592 C   0  0  0  0  0  0  0  0  0  0  0  0
    8.6604  -14.2281   17.1349 N   0  0  0  0  0  0  0  0  0  0  0  0
    8.2557  -12.9631   17.2518 C   0  0  0  0  0  0  0  0  0  0  0  0
    7.6781  -12.8453   18.4803 N   0  0  0  0  0  0  0  0  0  0  0  0
    7.2197  -16.0224   22.2082 C   0  0  0  0  0  0  0  0  0  0  0  0
    6.0676  -15.8670   22.6873 O   0  0  0  0  0  0  0  0  0  0  0  0
    7.5161  -19.8678   26.7773 N   0  0  0  0  0  0  0  0  0  0  0  0
    6.8327  -19.8761   25.5340 C   0  0  0  0  0  0  0  0  0  0  0  0
    5.9101  -20.7181   25.3951 O   0  0  0  0  0  0  0  0  0  0  0  0
    7.2424  -18.9155   24.5082 C   0  0  0  0  0  0  0  0  0  0  0  0
    8.3229  -17.9747   24.9702 C   0  0  0  0  0  0  0  0  0  0  0  0
    8.0107  -16.5603   24.5218 C   0  0  2  0  0  0  0  0  0  0  0  0
    8.2557  -16.3838   23.1096 N   0  0  0  0  0  0  0  0  0  0  0  0
    8.7399  -15.5553   25.3400 C   0  0  0  0  0  0  0  0  0  0  0  0
    9.9559  -15.3116   25.1344 O   0  0  0  0  0  0  0  0  0  0  0  0
    6.7987  -12.8639   27.8086 O   0  0  0  0  0  0  0  0  0  0  0  0
    8.0710  -12.6215   27.3170 C   0  0  0  0  0  0  0  0  0  0  0  0
    8.8775  -13.8805   27.1685 C   0  0  2  0  0  0  0  0  0  0  0  0
    8.1088  -14.8262   26.3844 N   0  0  0  0  0  0  0  0  0  0  0  0
    9.2718  -14.4533   28.4811 C   0  0  0  0  0  0  0  0  0  0  0  0
   10.0645  -13.6803   29.3168 O   0  0  0  0  0  0  0  0  0  0  0  0
    8.9276  -15.5823   28.8617 O   0  0  0  0  0  0  0  0  0  0  0  0
  2  1  1  6
  3  2  1  0
  4  3  1  0
  5  4  2  0
  6  5  1  0
  7  6  1  0
  7  8  2  0
  8  4  1  0
  9  2  1  0
  9 10  2  0
 12 11  1  0
 13 12  2  0
 14 12  1  0
 16 15  1  1
 15 14  1  0
 17 16  1  0
 17  9  1  0
 18 19  2  0
 18 16  1  0
 20 21  1  0
 22 21  1  1
 22 24  1  0
 22 23  1  0
 23 18  1  0
 24 25  1  0
 26 24  2  0
M  END
$$$$
