HQS.pdb
     RDKit          3D

 26 26  0  0  1  0  0  0  0  0999 V2000
    9.6523  -13.4688   18.1530 N   0  0  0  0  0  0  0  0  0  0  0  0
    9.8590  -14.8698   17.9629 C   0  0  1  0  0  0  0  0  0  0  0  0
   10.1176  -15.1138   16.4846 C   0  0  0  0  0  0  0  0  0  0  0  0
    8.9624  -14.6241   15.6983 C   0  0  0  0  0  0  0  0  0  0  0  0
    8.0023  -13.7547   16.1418 C   0  0  0  0  0  0  0  0  0  0  0  0
    7.1338  -13.5662   15.1245 N   0  0  0  0  0  0  0  0  0  0  0  0
    7.5166  -14.2838   14.0680 C   0  0  0  0  0  0  0  0  0  0  0  0
    8.6547  -14.9408   14.4284 N   0  0  0  0  0  0  0  0  0  0  0  0
   11.0479  -15.3791   18.7009 C   0  0  0  0  0  0  0  0  0  0  0  0
   11.4330  -16.5631   18.5254 O   0  0  0  0  0  0  0  0  0  0  0  0
   16.7365  -15.1644   19.6232 N   0  0  0  0  0  0  0  0  0  0  0  0
   15.5664  -14.9319   18.8552 C   0  0  0  0  0  0  0  0  0  0  0  0
   15.3854  -15.6684   17.8530 O   0  0  0  0  0  0  0  0  0  0  0  0
   14.6589  -13.8631   19.2756 C   0  0  0  0  0  0  0  0  0  0  0  0
   13.9874  -14.1359   20.5950 C   0  0  0  0  0  0  0  0  0  0  0  0
   12.8598  -15.1327   20.4108 C   0  0  2  0  0  0  0  0  0  0  0  0
   11.7886  -14.5825   19.6137 N   0  0  0  0  0  0  0  0  0  0  0  0
   12.3694  -15.6489   21.7164 C   0  0  0  0  0  0  0  0  0  0  0  0
   12.0532  -14.8639   22.6459 O   0  0  0  0  0  0  0  0  0  0  0  0
   10.8034  -19.4423   22.2844 O   0  0  0  0  0  0  0  0  0  0  0  0
   10.5538  -18.3387   23.0836 C   0  0  0  0  0  0  0  0  0  0  0  0
   11.7745  -17.4849   23.2792 C   0  0  2  0  0  0  0  0  0  0  0  0
   12.2342  -17.0392   21.9791 N   0  0  0  0  0  0  0  0  0  0  0  0
   12.8456  -18.1976   24.0217 C   0  0  0  0  0  0  0  0  0  0  0  0
   12.6002  -18.5480   25.3413 O   0  0  0  0  0  0  0  0  0  0  0  0
   13.9411  -18.4917   23.5201 O   0  0  0  0  0  0  0  0  0  0  0  0
  2  1  1  6
  3  2  1  0
  4  3  1  0
  5  4  2  0
  6  5  1  0
  7  6  1  0
  7  8  2  0
  8  4  1  0
  9  2  1  0
  9 10  2  0
 12 11  1  0
 13 12  2  0
 14 12  1  0
 16 15  1  1
 15 14  1  0
 17 16  1  0
 17  9  1  0
 18 19  2  0
 18 16  1  0
 20 21  1  0
 22 21  1  6
 22 24  1  0
 22 23  1  0
 23 18  1  0
 24 25  1  0
 26 24  2  0
M  END
$$$$
