HQS.pdb
     RDKit          3D

 26 26  0  0  1  0  0  0  0  0999 V2000
   11.9575  -18.5245   16.5770 N   0  0  0  0  0  0  0  0  0  0  0  0
   10.7482  -18.5689   17.3369 C   0  0  1  0  0  0  0  0  0  0  0  0
   10.5512  -19.9935   17.8301 C   0  0  0  0  0  0  0  0  0  0  0  0
   10.0295  -20.8270   16.7230 C   0  0  0  0  0  0  0  0  0  0  0  0
    9.3360  -20.3702   15.6345 C   0  0  0  0  0  0  0  0  0  0  0  0
    9.0447  -21.4433   14.8676 N   0  0  0  0  0  0  0  0  0  0  0  0
    9.5297  -22.5473   15.4366 C   0  0  0  0  0  0  0  0  0  0  0  0
   10.1418  -22.1602   16.5909 N   0  0  0  0  0  0  0  0  0  0  0  0
   10.7962  -17.6956   18.5421 C   0  0  0  0  0  0  0  0  0  0  0  0
   11.8487  -17.6323   19.2271 O   0  0  0  0  0  0  0  0  0  0  0  0
    6.9862  -12.8451   20.2245 N   0  0  0  0  0  0  0  0  0  0  0  0
    7.8667  -12.9890   21.3276 C   0  0  0  0  0  0  0  0  0  0  0  0
    7.7868  -12.1266   22.2383 O   0  0  0  0  0  0  0  0  0  0  0  0
    8.7982  -14.1181   21.3319 C   0  0  0  0  0  0  0  0  0  0  0  0
    8.7378  -14.9455   20.0757 C   0  0  0  0  0  0  0  0  0  0  0  0
    9.7715  -16.0534   20.1298 C   0  0  2  0  0  0  0  0  0  0  0  0
    9.6927  -16.9114   18.9709 N   0  0  0  0  0  0  0  0  0  0  0  0
    9.6778  -16.8253   21.3974 C   0  0  0  0  0  0  0  0  0  0  0  0
    9.1896  -17.9835   21.4160 O   0  0  0  0  0  0  0  0  0  0  0  0
   12.1778  -18.8618   24.2173 O   0  0  0  0  0  0  0  0  0  0  0  0
   11.7254  -17.9771   23.2520 C   0  0  0  0  0  0  0  0  0  0  0  0
   10.5183  -17.2047   23.7032 C   0  0  2  0  0  0  0  0  0  0  0  0
   10.1294  -16.3011   22.6391 N   0  0  0  0  0  0  0  0  0  0  0  0
   10.7600  -16.4773   24.9756 C   0  0  0  0  0  0  0  0  0  0  0  0
   11.0759  -17.2231   26.1018 O   0  0  0  0  0  0  0  0  0  0  0  0
   10.6929  -15.2430   25.0769 O   0  0  0  0  0  0  0  0  0  0  0  0
  2  1  1  1
  3  2  1  0
  4  3  1  0
  5  4  2  0
  6  5  1  0
  7  6  1  0
  7  8  2  0
  8  4  1  0
  9  2  1  0
  9 10  2  0
 12 11  1  0
 13 12  2  0
 14 12  1  0
 16 15  1  6
 15 14  1  0
 17 16  1  0
 17  9  1  0
 18 19  2  0
 18 16  1  0
 20 21  1  0
 22 21  1  6
 22 24  1  0
 22 23  1  0
 23 18  1  0
 24 25  1  0
 26 24  2  0
M  END
$$$$
