HQS.pdb
     RDKit          3D

 26 26  0  0  1  0  0  0  0  0999 V2000
    9.7947  -16.2056   17.3120 N   0  0  0  0  0  0  0  0  0  0  0  0
   10.4536  -15.0904   17.9152 C   0  0  1  0  0  0  0  0  0  0  0  0
    9.7000  -14.7250   19.1842 C   0  0  0  0  0  0  0  0  0  0  0  0
    8.4981  -13.9362   18.8297 C   0  0  0  0  0  0  0  0  0  0  0  0
    8.1352  -13.5532   17.5663 C   0  0  0  0  0  0  0  0  0  0  0  0
    6.9846  -12.8542   17.6761 N   0  0  0  0  0  0  0  0  0  0  0  0
    6.6192  -12.7883   18.9566 C   0  0  0  0  0  0  0  0  0  0  0  0
    7.5631  -13.4625   19.6717 N   0  0  0  0  0  0  0  0  0  0  0  0
   11.8537  -15.4004   18.3164 C   0  0  0  0  0  0  0  0  0  0  0  0
   12.1449  -16.5504   18.7333 O   0  0  0  0  0  0  0  0  0  0  0  0
   17.3065  -12.3850   16.8903 N   0  0  0  0  0  0  0  0  0  0  0  0
   17.6848  -13.3154   17.8924 C   0  0  0  0  0  0  0  0  0  0  0  0
   18.8927  -13.3216   18.2392 O   0  0  0  0  0  0  0  0  0  0  0  0
   16.6559  -14.1953   18.4491 C   0  0  0  0  0  0  0  0  0  0  0  0
   15.2642  -13.8494   17.9911 C   0  0  0  0  0  0  0  0  0  0  0  0
   14.2546  -14.7718   18.6460 C   0  0  2  0  0  0  0  0  0  0  0  0
   12.9036  -14.4463   18.2530 N   0  0  0  0  0  0  0  0  0  0  0  0
   14.4116  -14.7903   20.1246 C   0  0  0  0  0  0  0  0  0  0  0  0
   14.0622  -13.8071   20.8256 O   0  0  0  0  0  0  0  0  0  0  0  0
   13.9972  -17.0519   24.1309 O   0  0  0  0  0  0  0  0  0  0  0  0
   13.9665  -16.9001   22.7543 C   0  0  0  0  0  0  0  0  0  0  0  0
   14.9874  -15.9129   22.2637 C   0  0  2  0  0  0  0  0  0  0  0  0
   14.9581  -15.9064   20.8148 N   0  0  0  0  0  0  0  0  0  0  0  0
   16.3484  -16.2085   22.7804 C   0  0  0  0  0  0  0  0  0  0  0  0
   17.3514  -16.4718   21.8589 O   0  0  0  0  0  0  0  0  0  0  0  0
   16.6275  -16.2305   23.9886 O   0  0  0  0  0  0  0  0  0  0  0  0
  2  1  1  1
  3  2  1  0
  4  3  1  0
  5  4  2  0
  6  5  1  0
  7  6  1  0
  7  8  2  0
  8  4  1  0
  9  2  1  0
  9 10  2  0
 12 11  1  0
 13 12  2  0
 14 12  1  0
 16 15  1  6
 15 14  1  0
 17 16  1  0
 17  9  1  0
 18 19  2  0
 18 16  1  0
 20 21  1  0
 22 21  1  6
 22 24  1  0
 22 23  1  0
 23 18  1  0
 24 25  1  0
 26 24  2  0
M  END
$$$$
