HQS.pdb
     RDKit          3D

 26 26  0  0  1  0  0  0  0  0999 V2000
    6.5578  -16.5549   20.3944 N   0  0  0  0  0  0  0  0  0  0  0  0
    7.2693  -15.6072   21.1929 C   0  0  1  0  0  0  0  0  0  0  0  0
    6.7230  -14.2225   20.8832 C   0  0  0  0  0  0  0  0  0  0  0  0
    7.3006  -13.7426   19.6071 C   0  0  0  0  0  0  0  0  0  0  0  0
    8.0819  -12.6293   19.4499 C   0  0  0  0  0  0  0  0  0  0  0  0
    8.3991  -12.5460   18.1395 N   0  0  0  0  0  0  0  0  0  0  0  0
    7.8461  -13.5627   17.4777 C   0  0  0  0  0  0  0  0  0  0  0  0
    7.1633  -14.3054   18.3938 N   0  0  0  0  0  0  0  0  0  0  0  0
    7.0804  -15.8314   22.6528 C   0  0  0  0  0  0  0  0  0  0  0  0
    5.9415  -15.6866   23.1657 O   0  0  0  0  0  0  0  0  0  0  0  0
    7.6716  -20.6590   25.8398 N   0  0  0  0  0  0  0  0  0  0  0  0
    7.5196  -19.7335   26.9044 C   0  0  0  0  0  0  0  0  0  0  0  0
    7.3063  -20.2087   28.0481 O   0  0  0  0  0  0  0  0  0  0  0  0
    7.6201  -18.3044   26.6039 C   0  0  0  0  0  0  0  0  0  0  0  0
    7.8142  -18.0155   25.1392 C   0  0  0  0  0  0  0  0  0  0  0  0
    7.9143  -16.5200   24.9107 C   0  0  2  0  0  0  0  0  0  0  0  0
    8.1407  -16.2086   23.5189 N   0  0  0  0  0  0  0  0  0  0  0  0
    8.9413  -15.9014   25.7905 C   0  0  0  0  0  0  0  0  0  0  0  0
   10.1654  -16.1283   25.6161 O   0  0  0  0  0  0  0  0  0  0  0  0
    7.8029  -13.0931   28.4449 O   0  0  0  0  0  0  0  0  0  0  0  0
    9.1510  -13.0761   28.1263 C   0  0  0  0  0  0  0  0  0  0  0  0
    9.6442  -14.4130   27.6501 C   0  0  2  0  0  0  0  0  0  0  0  0
    8.5978  -15.0321   26.8614 N   0  0  0  0  0  0  0  0  0  0  0  0
   10.0706  -15.2871   28.7728 C   0  0  0  0  0  0  0  0  0  0  0  0
    9.5507  -16.5719   28.8311 O   0  0  0  0  0  0  0  0  0  0  0  0
   10.8641  -14.9242   29.6541 O   0  0  0  0  0  0  0  0  0  0  0  0
  2  1  1  6
  3  2  1  0
  4  3  1  0
  5  4  2  0
  6  5  1  0
  7  6  1  0
  7  8  2  0
  8  4  1  0
  9  2  1  0
  9 10  2  0
 12 11  1  0
 13 12  2  0
 14 12  1  0
 16 15  1  6
 15 14  1  0
 17 16  1  0
 17  9  1  0
 18 19  2  0
 18 16  1  0
 20 21  1  0
 22 21  1  1
 22 24  1  0
 22 23  1  0
 23 18  1  0
 24 25  1  0
 26 24  2  0
M  END
$$$$
