HQS.pdb
     RDKit          3D

 26 26  0  0  1  0  0  0  0  0999 V2000
    9.1258  -16.6772   18.7806 N   0  0  0  0  0  0  0  0  0  0  0  0
    9.1793  -16.0582   20.0674 C   0  0  1  0  0  0  0  0  0  0  0  0
    7.8609  -15.3380   20.3013 C   0  0  0  0  0  0  0  0  0  0  0  0
    7.7372  -14.2189   19.3396 C   0  0  0  0  0  0  0  0  0  0  0  0
    8.2969  -12.9772   19.4791 C   0  0  0  0  0  0  0  0  0  0  0  0
    7.9466  -12.2569   18.3915 N   0  0  0  0  0  0  0  0  0  0  0  0
    7.1922  -13.0017   17.5830 C   0  0  0  0  0  0  0  0  0  0  0  0
    7.0638  -14.2219   18.1759 N   0  0  0  0  0  0  0  0  0  0  0  0
    9.3364  -17.0446   21.1718 C   0  0  0  0  0  0  0  0  0  0  0  0
    8.6255  -18.0817   21.1900 O   0  0  0  0  0  0  0  0  0  0  0  0
   14.4157  -19.4307   23.0140 N   0  0  0  0  0  0  0  0  0  0  0  0
   13.7099  -19.2429   21.7976 C   0  0  0  0  0  0  0  0  0  0  0  0
   14.2989  -19.5754   20.7384 O   0  0  0  0  0  0  0  0  0  0  0  0
   12.3593  -18.6815   21.8562 C   0  0  0  0  0  0  0  0  0  0  0  0
   11.8964  -18.3872   23.2581 C   0  0  0  0  0  0  0  0  0  0  0  0
   10.4649  -17.8876   23.2414 C   0  0  2  0  0  0  0  0  0  0  0  0
   10.2668  -16.8750   22.2310 N   0  0  0  0  0  0  0  0  0  0  0  0
   10.0349  -17.4197   24.5858 C   0  0  0  0  0  0  0  0  0  0  0  0
   10.2815  -16.2498   24.9741 O   0  0  0  0  0  0  0  0  0  0  0  0
    6.9244  -18.8969   26.7155 O   0  0  0  0  0  0  0  0  0  0  0  0
    7.5650  -17.7042   27.0092 C   0  0  0  0  0  0  0  0  0  0  0  0
    9.0546  -17.7962   26.8363 C   0  0  2  0  0  0  0  0  0  0  0  0
    9.3313  -18.2596   25.4914 N   0  0  0  0  0  0  0  0  0  0  0  0
    9.6856  -18.6729   27.8560 C   0  0  0  0  0  0  0  0  0  0  0  0
    9.5420  -18.3257   29.1914 O   0  0  0  0  0  0  0  0  0  0  0  0
   10.3300  -19.6934   27.5709 O   0  0  0  0  0  0  0  0  0  0  0  0
  2  1  1  6
  3  2  1  0
  4  3  1  0
  5  4  2  0
  6  5  1  0
  7  6  1  0
  7  8  2  0
  8  4  1  0
  9  2  1  0
  9 10  2  0
 12 11  1  0
 13 12  2  0
 14 12  1  0
 16 15  1  1
 15 14  1  0
 17 16  1  0
 17  9  1  0
 18 19  2  0
 18 16  1  0
 20 21  1  0
 22 21  1  1
 22 24  1  0
 22 23  1  0
 23 18  1  0
 24 25  1  0
 26 24  2  0
M  END
$$$$
