HQS.pdb
     RDKit          3D

 26 26  0  0  1  0  0  0  0  0999 V2000
   10.4782  -15.4790   18.4390 N   0  0  0  0  0  0  0  0  0  0  0  0
    9.3504  -15.2919   19.2962 C   0  0  1  0  0  0  0  0  0  0  0  0
    8.1017  -15.7018   18.5317 C   0  0  0  0  0  0  0  0  0  0  0  0
    7.9308  -14.8120   17.3605 C   0  0  0  0  0  0  0  0  0  0  0  0
    8.7997  -13.8297   16.9672 C   0  0  0  0  0  0  0  0  0  0  0  0
    8.2785  -13.2550   15.8615 N   0  0  0  0  0  0  0  0  0  0  0  0
    7.1213  -13.8412   15.5532 C   0  0  0  0  0  0  0  0  0  0  0  0
    6.9079  -14.8095   16.4880 N   0  0  0  0  0  0  0  0  0  0  0  0
    9.4106  -16.1432   20.5165 C   0  0  0  0  0  0  0  0  0  0  0  0
    8.4491  -16.1437   21.3268 O   0  0  0  0  0  0  0  0  0  0  0  0
   12.7228  -21.6042   21.7930 N   0  0  0  0  0  0  0  0  0  0  0  0
   12.5382  -20.8986   23.0100 C   0  0  0  0  0  0  0  0  0  0  0  0
   13.2577  -21.2394   23.9825 O   0  0  0  0  0  0  0  0  0  0  0  0
   11.5347  -19.8338   23.0518 C   0  0  0  0  0  0  0  0  0  0  0  0
   11.6227  -18.8856   21.8859 C   0  0  0  0  0  0  0  0  0  0  0  0
   10.5277  -17.8410   21.9784 C   0  0  2  0  0  0  0  0  0  0  0  0
   10.5202  -16.9745   20.8232 N   0  0  0  0  0  0  0  0  0  0  0  0
   10.6145  -17.0708   23.2475 C   0  0  0  0  0  0  0  0  0  0  0  0
   11.4215  -16.1149   23.3713 O   0  0  0  0  0  0  0  0  0  0  0  0
    7.5398  -16.5814   25.8298 O   0  0  0  0  0  0  0  0  0  0  0  0
    8.6702  -15.7832   25.7642 C   0  0  0  0  0  0  0  0  0  0  0  0
    9.9281  -16.5848   25.5842 C   0  0  2  0  0  0  0  0  0  0  0  0
    9.8003  -17.3708   24.3733 N   0  0  0  0  0  0  0  0  0  0  0  0
   10.2221  -17.4411   26.7618 C   0  0  0  0  0  0  0  0  0  0  0  0
   10.4553  -16.8167   27.9785 O   0  0  0  0  0  0  0  0  0  0  0  0
   10.2685  -18.6792   26.7082 O   0  0  0  0  0  0  0  0  0  0  0  0
  2  1  1  6
  3  2  1  0
  4  3  1  0
  5  4  2  0
  6  5  1  0
  7  6  1  0
  7  8  2  0
  8  4  1  0
  9  2  1  0
  9 10  2  0
 12 11  1  0
 13 12  2  0
 14 12  1  0
 16 15  1  6
 15 14  1  0
 17 16  1  0
 17  9  1  0
 18 19  2  0
 18 16  1  0
 20 21  1  0
 22 21  1  1
 22 24  1  0
 22 23  1  0
 23 18  1  0
 24 25  1  0
 26 24  2  0
M  END
$$$$
