ACE.pdb
     RDKit          3D

 21 20  0  0  1  0  0  0  0  0999 V2000
   16.8083   -9.3280  -18.2440 C   0  0  0  0  0  0  0  0  0  0  0  0
   17.6248  -10.4540  -17.6044 C   0  0  2  0  0  0  0  0  0  0  0  0
   16.6689  -11.3364  -16.9661 N   0  0  0  0  0  0  0  0  0  0  0  0
   18.5248   -9.9257  -16.5541 C   0  0  0  0  0  0  0  0  0  0  0  0
   18.0634   -9.4918  -15.4754 O   0  0  0  0  0  0  0  0  0  0  0  0
   19.9471   -9.8840  -16.7150 N   0  0  0  0  0  0  0  0  0  0  0  0
   20.8410   -9.3885  -15.7200 C   0  0  1  0  0  0  0  0  0  0  0  0
   22.2052  -10.0667  -15.7763 C   0  0  0  0  0  0  0  0  0  0  0  0
   23.2223   -9.4596  -14.4285 S   0  0  0  0  0  0  0  0  0  0  0  0
   21.0850   -7.9336  -15.8172 C   0  0  0  0  0  0  0  0  0  0  0  0
   21.4510   -7.4661  -16.9262 O   0  0  0  0  0  0  0  0  0  0  0  0
   20.9319   -7.0294  -14.7366 N   0  0  0  0  0  0  0  0  0  0  0  0
   21.1245   -5.5809  -14.8756 C   0  0  1  0  0  0  0  0  0  0  0  0
   19.8140   -4.8695  -14.7653 C   0  0  0  0  0  0  0  0  0  0  0  0
   19.9858   -3.4023  -15.0208 C   0  0  0  0  0  0  0  0  0  0  0  0
   18.6742   -2.6879  -14.9948 C   0  0  0  0  0  0  0  0  0  0  0  0
   18.6263   -1.5064  -15.3570 O   0  0  0  0  0  0  0  0  0  0  0  0
   22.0284   -5.1713  -13.7917 C   0  0  0  0  0  0  0  0  0  0  0  0
   22.3328   -5.9159  -12.6792 O   0  0  0  0  0  0  0  0  0  0  0  0
   17.5604   -3.3698  -14.5676 O   0  0  0  0  0  0  0  0  0  0  0  0
   22.5948   -4.0244  -13.8603 O   0  0  0  0  0  0  0  0  0  0  0  0
  2  1  1  1
  3  2  1  0
  4  6  1  0
  4  2  1  0
  5  4  2  0
  7  8  1  6
  7  6  1  0
  9  8  1  0
 10  7  1  0
 10 12  1  0
 11 10  2  0
 13 12  1  0
 13 14  1  1
 14 15  1  0
 16 20  1  0
 16 15  1  0
 17 16  2  0
 18 13  1  0
 19 18  1  0
 21 18  2  0
M  END
$$$$
