ACE.pdb
     RDKit          3D

 21 20  0  0  1  0  0  0  0  0999 V2000
   16.5572  -14.2808  -15.3336 C   0  0  0  0  0  0  0  0  0  0  0  0
   15.9911  -12.8585  -15.3158 C   0  0  2  0  0  0  0  0  0  0  0  0
   15.8148  -12.4745  -16.7019 N   0  0  0  0  0  0  0  0  0  0  0  0
   16.9517  -11.9132  -14.7029 C   0  0  0  0  0  0  0  0  0  0  0  0
   17.3344  -12.0662  -13.5218 O   0  0  0  0  0  0  0  0  0  0  0  0
   17.4847  -10.7927  -15.4177 N   0  0  0  0  0  0  0  0  0  0  0  0
   18.3660   -9.8322  -14.8385 C   0  0  1  0  0  0  0  0  0  0  0  0
   19.4214   -9.3446  -15.8246 C   0  0  0  0  0  0  0  0  0  0  0  0
   20.7467  -10.5507  -15.9152 S   0  0  0  0  0  0  0  0  0  0  0  0
   17.6747   -8.6299  -14.3263 C   0  0  0  0  0  0  0  0  0  0  0  0
   16.8075   -8.0870  -15.0582 O   0  0  0  0  0  0  0  0  0  0  0  0
   17.9282   -8.0485  -13.0589 N   0  0  0  0  0  0  0  0  0  0  0  0
   17.1965   -6.8788  -12.5576 C   0  0  1  0  0  0  0  0  0  0  0  0
   17.2086   -6.8598  -11.0625 C   0  0  0  0  0  0  0  0  0  0  0  0
   16.6062   -5.5882  -10.5452 C   0  0  0  0  0  0  0  0  0  0  0  0
   16.6241   -5.5453   -9.0521 C   0  0  0  0  0  0  0  0  0  0  0  0
   17.0476   -6.5254   -8.4279 O   0  0  0  0  0  0  0  0  0  0  0  0
   17.8793   -5.6939  -13.0956 C   0  0  0  0  0  0  0  0  0  0  0  0
   17.2687   -4.5311  -13.4953 O   0  0  0  0  0  0  0  0  0  0  0  0
   16.1678   -4.4141   -8.4196 O   0  0  0  0  0  0  0  0  0  0  0  0
   19.1543   -5.7179  -13.2172 O   0  0  0  0  0  0  0  0  0  0  0  0
  2  1  1  6
  3  2  1  0
  4  6  1  0
  4  2  1  0
  5  4  2  0
  7  8  1  6
  7  6  1  0
  9  8  1  0
 10  7  1  0
 10 12  1  0
 11 10  2  0
 13 12  1  0
 13 14  1  1
 14 15  1  0
 16 20  1  0
 16 15  1  0
 17 16  2  0
 18 13  1  0
 19 18  1  0
 21 18  2  0
M  END
$$$$
