ACE.pdb
     RDKit          3D

 21 20  0  0  1  0  0  0  0  0999 V2000
   16.7443   -9.7885  -18.2369 C   0  0  0  0  0  0  0  0  0  0  0  0
   18.0411  -10.5728  -18.0198 C   0  0  2  0  0  0  0  0  0  0  0  0
   17.6484  -11.9449  -17.7689 N   0  0  0  0  0  0  0  0  0  0  0  0
   18.7632  -10.0827  -16.8238 C   0  0  0  0  0  0  0  0  0  0  0  0
   18.1601   -9.8980  -15.7436 O   0  0  0  0  0  0  0  0  0  0  0  0
   20.1667   -9.7990  -16.8401 N   0  0  0  0  0  0  0  0  0  0  0  0
   20.8906   -9.3247  -15.7062 C   0  0  1  0  0  0  0  0  0  0  0  0
   22.2066  -10.0677  -15.5059 C   0  0  0  0  0  0  0  0  0  0  0  0
   23.0317   -9.4246  -14.0481 S   0  0  0  0  0  0  0  0  0  0  0  0
   21.2211   -7.8854  -15.7763 C   0  0  0  0  0  0  0  0  0  0  0  0
   21.8167   -7.4626  -16.8005 O   0  0  0  0  0  0  0  0  0  0  0  0
   20.9083   -6.9490  -14.7594 N   0  0  0  0  0  0  0  0  0  0  0  0
   21.1704   -5.5108  -14.8919 C   0  0  1  0  0  0  0  0  0  0  0  0
   19.9033   -4.7343  -14.7267 C   0  0  0  0  0  0  0  0  0  0  0  0
   20.1654   -3.2632  -14.8478 C   0  0  0  0  0  0  0  0  0  0  0  0
   18.8979   -2.4763  -14.7709 C   0  0  0  0  0  0  0  0  0  0  0  0
   17.8230   -3.0779  -14.6614 O   0  0  0  0  0  0  0  0  0  0  0  0
   22.1330   -5.1604  -13.8382 C   0  0  0  0  0  0  0  0  0  0  0  0
   23.0126   -4.1070  -13.8760 O   0  0  0  0  0  0  0  0  0  0  0  0
   18.9690   -1.1052  -14.8247 O   0  0  0  0  0  0  0  0  0  0  0  0
   22.1822   -5.8829  -12.7816 O   0  0  0  0  0  0  0  0  0  0  0  0
  2  1  1  1
  3  2  1  0
  4  6  1  0
  4  2  1  0
  5  4  2  0
  7  8  1  6
  7  6  1  0
  9  8  1  0
 10  7  1  0
 10 12  1  0
 11 10  2  0
 13 12  1  0
 13 14  1  1
 14 15  1  0
 16 20  1  0
 16 15  1  0
 17 16  2  0
 18 13  1  0
 19 18  1  0
 21 18  2  0
M  END
$$$$
