ACE.pdb
     RDKit          3D

 21 20  0  0  1  0  0  0  0  0999 V2000
   25.4395  -26.3351  -18.2784 C   0  0  0  0  0  0  0  0  0  0  0  0
   26.5993  -25.8877  -17.3849 C   0  0  2  0  0  0  0  0  0  0  0  0
   26.6866  -26.8614  -16.3153 N   0  0  0  0  0  0  0  0  0  0  0  0
   26.3197  -24.5682  -16.7742 C   0  0  0  0  0  0  0  0  0  0  0  0
   25.6638  -24.4808  -15.7127 O   0  0  0  0  0  0  0  0  0  0  0  0
   26.7776  -23.3429  -17.3568 N   0  0  0  0  0  0  0  0  0  0  0  0
   26.6733  -22.0741  -16.7133 C   0  0  1  0  0  0  0  0  0  0  0  0
   27.9418  -21.2419  -16.8629 C   0  0  0  0  0  0  0  0  0  0  0  0
   29.2958  -22.0746  -16.0307 S   0  0  0  0  0  0  0  0  0  0  0  0
   25.5586  -21.2452  -17.2192 C   0  0  0  0  0  0  0  0  0  0  0  0
   25.3783  -21.1885  -18.4629 O   0  0  0  0  0  0  0  0  0  0  0  0
   24.6775  -20.5083  -16.3890 N   0  0  0  0  0  0  0  0  0  0  0  0
   23.5855  -19.6832  -16.9194 C   0  0  1  0  0  0  0  0  0  0  0  0
   22.6843  -19.2394  -15.8118 C   0  0  0  0  0  0  0  0  0  0  0  0
   21.8308  -20.3767  -15.3369 C   0  0  0  0  0  0  0  0  0  0  0  0
   20.8473  -19.9262  -14.3068 C   0  0  0  0  0  0  0  0  0  0  0  0
   19.9104  -20.6741  -14.0030 O   0  0  0  0  0  0  0  0  0  0  0  0
   24.2125  -18.5251  -17.5717 C   0  0  0  0  0  0  0  0  0  0  0  0
   23.6614  -17.7830  -18.5867 O   0  0  0  0  0  0  0  0  0  0  0  0
   21.0170  -18.6912  -13.7289 O   0  0  0  0  0  0  0  0  0  0  0  0
   25.3752  -18.1527  -17.1840 O   0  0  0  0  0  0  0  0  0  0  0  0
  2  1  1  6
  3  2  1  0
  4  6  1  0
  4  2  1  0
  5  4  2  0
  7  8  1  6
  7  6  1  0
  9  8  1  0
 10  7  1  0
 10 12  1  0
 11 10  2  0
 13 12  1  0
 13 14  1  1
 14 15  1  0
 16 20  1  0
 16 15  1  0
 17 16  2  0
 18 13  1  0
 19 18  1  0
 21 18  2  0
M  END
$$$$
