ACE.pdb
     RDKit          3D

 21 20  0  0  1  0  0  0  0  0999 V2000
   17.2830   -9.9583  -19.2052 C   0  0  0  0  0  0  0  0  0  0  0  0
   18.7053   -9.6981  -18.7019 C   0  0  2  0  0  0  0  0  0  0  0  0
   19.2597  -10.9937  -18.3644 N   0  0  0  0  0  0  0  0  0  0  0  0
   18.6897   -8.8774  -17.4697 C   0  0  0  0  0  0  0  0  0  0  0  0
   18.3769   -7.6669  -17.5113 O   0  0  0  0  0  0  0  0  0  0  0  0
   19.0261   -9.4169  -16.1866 N   0  0  0  0  0  0  0  0  0  0  0  0
   19.0196   -8.6535  -14.9816 C   0  0  1  0  0  0  0  0  0  0  0  0
   18.7574   -9.5143  -13.7511 C   0  0  0  0  0  0  0  0  0  0  0  0
   18.8344   -8.4851  -12.2833 S   0  0  0  0  0  0  0  0  0  0  0  0
   20.2853   -7.9310  -14.7335 C   0  0  0  0  0  0  0  0  0  0  0  0
   21.3590   -8.5854  -14.7696 O   0  0  0  0  0  0  0  0  0  0  0  0
   20.3657   -6.5434  -14.4565 N   0  0  0  0  0  0  0  0  0  0  0  0
   21.6391   -5.8167  -14.3869 C   0  0  1  0  0  0  0  0  0  0  0  0
   21.6870   -4.7504  -15.4340 C   0  0  0  0  0  0  0  0  0  0  0  0
   22.9625   -3.9690  -15.3348 C   0  0  0  0  0  0  0  0  0  0  0  0
   23.0160   -2.8819  -16.3579 C   0  0  0  0  0  0  0  0  0  0  0  0
   22.8867   -1.7072  -15.9937 O   0  0  0  0  0  0  0  0  0  0  0  0
   21.7128   -5.2260  -13.0432 C   0  0  0  0  0  0  0  0  0  0  0  0
   22.8598   -4.8103  -12.4136 O   0  0  0  0  0  0  0  0  0  0  0  0
   23.2079   -3.2247  -17.6746 O   0  0  0  0  0  0  0  0  0  0  0  0
   20.6305   -5.0753  -12.3748 O   0  0  0  0  0  0  0  0  0  0  0  0
  2  1  1  1
  3  2  1  0
  4  6  1  0
  4  2  1  0
  5  4  2  0
  7  8  1  1
  7  6  1  0
  9  8  1  0
 10  7  1  0
 10 12  1  0
 11 10  2  0
 13 12  1  0
 13 14  1  6
 14 15  1  0
 16 20  1  0
 16 15  1  0
 17 16  2  0
 18 13  1  0
 19 18  1  0
 21 18  2  0
M  END
$$$$
