ACE.pdb
     RDKit          3D

 21 20  0  0  1  0  0  0  0  0999 V2000
   18.1396  -14.6741  -14.0913 C   0  0  0  0  0  0  0  0  0  0  0  0
   17.5126  -14.5034  -15.4776 C   0  0  2  0  0  0  0  0  0  0  0  0
   18.0321  -15.5823  -16.2936 N   0  0  0  0  0  0  0  0  0  0  0  0
   17.9329  -13.2254  -16.0957 C   0  0  0  0  0  0  0  0  0  0  0  0
   18.9681  -13.1633  -16.7954 O   0  0  0  0  0  0  0  0  0  0  0  0
   17.1893  -12.0132  -15.9282 N   0  0  0  0  0  0  0  0  0  0  0  0
   17.5603  -10.7699  -16.5208 C   0  0  1  0  0  0  0  0  0  0  0  0
   16.4726  -10.2148  -17.4334 C   0  0  0  0  0  0  0  0  0  0  0  0
   16.6709  -10.9069  -19.0769 S   0  0  0  0  0  0  0  0  0  0  0  0
   17.8671   -9.7133  -15.5332 C   0  0  0  0  0  0  0  0  0  0  0  0
   17.1973   -9.6834  -14.4689 O   0  0  0  0  0  0  0  0  0  0  0  0
   18.8713   -8.7290  -15.7105 N   0  0  0  0  0  0  0  0  0  0  0  0
   19.1703   -7.7046  -14.7026 C   0  0  1  0  0  0  0  0  0  0  0  0
   20.5665   -7.1979  -14.8749 C   0  0  0  0  0  0  0  0  0  0  0  0
   20.8839   -6.1608  -13.8400 C   0  0  0  0  0  0  0  0  0  0  0  0
   22.2284   -5.5529  -14.0730 C   0  0  0  0  0  0  0  0  0  0  0  0
   23.1194   -6.2425  -14.5830 O   0  0  0  0  0  0  0  0  0  0  0  0
   18.1982   -6.6210  -14.9037 C   0  0  0  0  0  0  0  0  0  0  0  0
   17.6766   -5.8206  -13.9178 O   0  0  0  0  0  0  0  0  0  0  0  0
   22.4311   -4.2428  -13.7117 O   0  0  0  0  0  0  0  0  0  0  0  0
   17.7795   -6.3793  -16.0900 O   0  0  0  0  0  0  0  0  0  0  0  0
  2  1  1  1
  3  2  1  0
  4  6  1  0
  4  2  1  0
  5  4  2  0
  7  8  1  6
  7  6  1  0
  9  8  1  0
 10  7  1  0
 10 12  1  0
 11 10  2  0
 13 12  1  0
 13 14  1  6
 14 15  1  0
 16 20  1  0
 16 15  1  0
 17 16  2  0
 18 13  1  0
 19 18  1  0
 21 18  2  0
M  END
$$$$
