PLR.pdb
     RDKit          3D

 27 27  0  0  1  0  0  0  0  0999 V2000
    7.6789  -14.6463   20.5399 N   0  0  0  0  0  0  0  0  0  0  0  0
    6.6872  -13.8686   19.8181 C   0  0  0  0  0  0  0  0  0  0  0  0
    7.4965  -12.6738   19.2943 C   0  0  0  0  0  0  0  0  0  0  0  0
    8.3313  -12.3702   20.5491 C   0  0  0  0  0  0  0  0  0  0  0  0
    8.6827  -13.7416   21.0062 C   0  0  1  0  0  0  0  0  0  0  0  0
    8.9596  -13.8730   22.4512 C   0  0  0  0  0  0  0  0  0  0  0  0
   10.1595  -13.8127   22.8116 O   0  0  0  0  0  0  0  0  0  0  0  0
    5.2896  -12.5735   26.5841 C   0  0  0  0  0  0  0  0  0  0  0  0
    6.5515  -12.5433   25.6889 C   0  0  1  0  0  0  0  0  0  0  0  0
    7.4479  -11.5003   26.3144 C   0  0  0  0  0  0  0  0  0  0  0  0
    7.0880  -13.9216   25.7356 C   0  0  0  0  0  0  0  0  0  0  0  0
    8.1713  -14.3116   24.8260 C   0  0  2  0  0  0  0  0  0  0  0  0
    7.9643  -14.0596   23.4354 N   0  0  0  0  0  0  0  0  0  0  0  0
    8.8457  -15.6069   25.1374 C   0  0  0  0  0  0  0  0  0  0  0  0
    9.0656  -15.9299   26.3528 O   0  0  0  0  0  0  0  0  0  0  0  0
   14.6774  -19.8239   20.3572 N   0  0  0  0  0  0  0  0  0  0  0  0
   14.5248  -20.7600   21.4213 C   0  0  0  0  0  0  0  0  0  0  0  0
   15.2453  -21.8062   21.4242 N   0  0  0  0  0  0  0  0  0  0  0  0
   13.5860  -20.5243   22.4544 N   0  0  0  0  0  0  0  0  0  0  0  0
   12.6846  -19.3903   22.3525 C   0  0  0  0  0  0  0  0  0  0  0  0
   11.7928  -19.3062   23.5875 C   0  0  0  0  0  0  0  0  0  0  0  0
   10.9046  -18.1074   23.3832 C   0  0  0  0  0  0  0  0  0  0  0  0
   10.0842  -17.7229   24.5685 C   0  0  2  0  0  0  0  0  0  0  0  0
    9.2869  -16.5440   24.1776 N   0  0  0  0  0  0  0  0  0  0  0  0
   10.9782  -17.2776   25.6597 C   0  0  0  0  0  0  0  0  0  0  0  0
   11.7194  -16.1006   25.6291 O   0  0  0  0  0  0  0  0  0  0  0  0
   11.1115  -17.9700   26.6991 O   0  0  0  0  0  0  0  0  0  0  0  0
  2  1  1  0
  3  2  1  0
  4  3  1  0
  4  5  1  0
  5  1  1  0
  5  6  1  1
  6  7  2  0
  9  8  1  1
 10  9  1  0
 11  9  1  0
 12 11  1  1
 13  6  1  0
 13 12  1  0
 14 12  1  0
 14 15  2  0
 16 17  1  0
 17 19  1  0
 17 18  2  0
 19 20  1  0
 20 21  1  0
 21 22  1  0
 23 22  1  6
 23 24  1  0
 24 14  1  0
 25 23  1  0
 25 26  1  0
 27 25  2  0
M  END
$$$$
