PLR.pdb
     RDKit          3D

 27 27  0  0  1  0  0  0  0  0999 V2000
    8.5248  -18.7640   19.2091 N   0  0  0  0  0  0  0  0  0  0  0  0
    7.8641  -18.7188   17.9165 C   0  0  0  0  0  0  0  0  0  0  0  0
    9.0194  -18.4372   16.9454 C   0  0  0  0  0  0  0  0  0  0  0  0
    9.7713  -17.3697   17.7570 C   0  0  0  0  0  0  0  0  0  0  0  0
    9.6843  -17.9315   19.1317 C   0  0  1  0  0  0  0  0  0  0  0  0
    9.7639  -16.9404   20.2241 C   0  0  0  0  0  0  0  0  0  0  0  0
   10.7857  -16.9709   20.9511 O   0  0  0  0  0  0  0  0  0  0  0  0
    6.6497  -12.2230   20.0721 C   0  0  0  0  0  0  0  0  0  0  0  0
    7.7494  -13.3034   19.9368 C   0  0  1  0  0  0  0  0  0  0  0  0
    8.9257  -12.5861   19.3167 C   0  0  0  0  0  0  0  0  0  0  0  0
    7.9830  -13.7876   21.3154 C   0  0  0  0  0  0  0  0  0  0  0  0
    8.7820  -14.9986   21.5352 C   0  0  2  0  0  0  0  0  0  0  0  0
    8.7693  -15.9745   20.4923 N   0  0  0  0  0  0  0  0  0  0  0  0
    8.7475  -15.5565   22.9197 C   0  0  0  0  0  0  0  0  0  0  0  0
    8.9770  -14.7921   23.9162 O   0  0  0  0  0  0  0  0  0  0  0  0
    7.9141  -22.7022   27.3434 N   0  0  0  0  0  0  0  0  0  0  0  0
    6.7443  -22.0421   27.8209 C   0  0  0  0  0  0  0  0  0  0  0  0
    6.1943  -22.4648   28.8851 N   0  0  0  0  0  0  0  0  0  0  0  0
    6.2084  -20.9358   27.1188 N   0  0  0  0  0  0  0  0  0  0  0  0
    6.7748  -20.5655   25.8338 C   0  0  0  0  0  0  0  0  0  0  0  0
    7.7133  -19.3728   25.9894 C   0  0  0  0  0  0  0  0  0  0  0  0
    7.6745  -18.6341   24.6777 C   0  0  0  0  0  0  0  0  0  0  0  0
    8.4536  -17.3622   24.6485 C   0  0  2  0  0  0  0  0  0  0  0  0
    8.4806  -16.9044   23.2456 N   0  0  0  0  0  0  0  0  0  0  0  0
    9.8576  -17.6387   25.0232 C   0  0  0  0  0  0  0  0  0  0  0  0
   10.2976  -17.8012   26.3331 O   0  0  0  0  0  0  0  0  0  0  0  0
   10.7459  -17.7417   24.1411 O   0  0  0  0  0  0  0  0  0  0  0  0
  2  1  1  0
  3  2  1  0
  4  3  1  0
  4  5  1  0
  5  1  1  0
  5  6  1  1
  6  7  2  0
  9  8  1  1
 10  9  1  0
 11  9  1  0
 12 11  1  6
 13  6  1  0
 13 12  1  0
 14 12  1  0
 14 15  2  0
 16 17  1  0
 17 19  1  0
 17 18  2  0
 19 20  1  0
 20 21  1  0
 21 22  1  0
 23 22  1  6
 23 24  1  0
 24 14  1  0
 25 23  1  0
 25 26  1  0
 27 25  2  0
M  END
$$$$
