PLR.pdb
     RDKit          3D

 27 27  0  0  1  0  0  0  0  0999 V2000
    7.4391  -15.3173   19.6985 N   0  0  0  0  0  0  0  0  0  0  0  0
    6.5129  -14.5872   18.8511 C   0  0  0  0  0  0  0  0  0  0  0  0
    7.3531  -13.3998   18.3599 C   0  0  0  0  0  0  0  0  0  0  0  0
    8.0554  -13.0312   19.6770 C   0  0  0  0  0  0  0  0  0  0  0  0
    8.3791  -14.3766   20.2230 C   0  0  1  0  0  0  0  0  0  0  0  0
    8.5136  -14.4450   21.6924 C   0  0  0  0  0  0  0  0  0  0  0  0
    9.5550  -14.9758   22.1476 O   0  0  0  0  0  0  0  0  0  0  0  0
    7.9598  -12.0367   26.5216 C   0  0  0  0  0  0  0  0  0  0  0  0
    6.7696  -12.9779   26.2170 C   0  0  1  0  0  0  0  0  0  0  0  0
    5.5727  -12.3106   26.8534 C   0  0  0  0  0  0  0  0  0  0  0  0
    6.7138  -13.0601   24.7406 C   0  0  0  0  0  0  0  0  0  0  0  0
    7.6443  -13.9411   24.0256 C   0  0  2  0  0  0  0  0  0  0  0  0
    7.5503  -13.9537   22.6005 N   0  0  0  0  0  0  0  0  0  0  0  0
    7.8867  -15.2746   24.6522 C   0  0  0  0  0  0  0  0  0  0  0  0
    6.9457  -16.1366   24.6902 O   0  0  0  0  0  0  0  0  0  0  0  0
   12.4053  -21.0159   21.9453 N   0  0  0  0  0  0  0  0  0  0  0  0
   12.5702  -21.5148   23.2704 C   0  0  0  0  0  0  0  0  0  0  0  0
   12.6966  -22.7672   23.4415 N   0  0  0  0  0  0  0  0  0  0  0  0
   12.5924  -20.6273   24.3731 N   0  0  0  0  0  0  0  0  0  0  0  0
   12.1263  -19.2630   24.1988 C   0  0  0  0  0  0  0  0  0  0  0  0
   10.9313  -18.9884   25.1065 C   0  0  0  0  0  0  0  0  0  0  0  0
   10.4756  -17.5887   24.7889 C   0  0  0  0  0  0  0  0  0  0  0  0
    9.3332  -17.0968   25.6127 C   0  0  2  0  0  0  0  0  0  0  0  0
    9.1042  -15.6883   25.2359 N   0  0  0  0  0  0  0  0  0  0  0  0
    9.7254  -17.0877   27.0389 C   0  0  0  0  0  0  0  0  0  0  0  0
   10.0066  -15.9333   27.7629 O   0  0  0  0  0  0  0  0  0  0  0  0
    9.8260  -18.1627   27.6808 O   0  0  0  0  0  0  0  0  0  0  0  0
  2  1  1  0
  3  2  1  0
  4  3  1  0
  4  5  1  0
  5  1  1  0
  5  6  1  1
  6  7  2  0
  9  8  1  6
 10  9  1  0
 11  9  1  0
 12 11  1  1
 13  6  1  0
 13 12  1  0
 14 12  1  0
 14 15  2  0
 16 17  1  0
 17 19  1  0
 17 18  2  0
 19 20  1  0
 20 21  1  0
 21 22  1  0
 23 22  1  6
 23 24  1  0
 24 14  1  0
 25 23  1  0
 25 26  1  0
 27 25  2  0
M  END
$$$$
