PLR.pdb
     RDKit          3D

 27 27  0  0  1  0  0  0  0  0999 V2000
    9.7806  -18.2839   15.6331 N   0  0  0  0  0  0  0  0  0  0  0  0
   10.1472  -19.6781   15.4567 C   0  0  0  0  0  0  0  0  0  0  0  0
    8.9241  -20.4304   15.9998 C   0  0  0  0  0  0  0  0  0  0  0  0
    8.6515  -19.5869   17.2559 C   0  0  0  0  0  0  0  0  0  0  0  0
    8.8785  -18.2104   16.7395 C   0  0  1  0  0  0  0  0  0  0  0  0
    9.2804  -17.2147   17.7539 C   0  0  0  0  0  0  0  0  0  0  0  0
   10.5102  -17.0516   17.9397 O   0  0  0  0  0  0  0  0  0  0  0  0
    9.0010  -12.4419   20.2725 C   0  0  0  0  0  0  0  0  0  0  0  0
    8.0260  -13.4704   20.8943 C   0  0  1  0  0  0  0  0  0  0  0  0
    6.8254  -12.6593   21.3225 C   0  0  0  0  0  0  0  0  0  0  0  0
    7.7552  -14.4441   19.8134 C   0  0  0  0  0  0  0  0  0  0  0  0
    8.6902  -15.5507   19.5805 C   0  0  2  0  0  0  0  0  0  0  0  0
    8.3718  -16.4471   18.5150 N   0  0  0  0  0  0  0  0  0  0  0  0
    9.2450  -16.2004   20.8050 C   0  0  0  0  0  0  0  0  0  0  0  0
    8.5882  -17.1318   21.3803 O   0  0  0  0  0  0  0  0  0  0  0  0
   15.8258  -19.5119   22.6527 N   0  0  0  0  0  0  0  0  0  0  0  0
   15.6910  -18.9477   21.3506 C   0  0  0  0  0  0  0  0  0  0  0  0
   15.6864  -19.7236   20.3448 N   0  0  0  0  0  0  0  0  0  0  0  0
   15.5645  -17.5474   21.1856 N   0  0  0  0  0  0  0  0  0  0  0  0
   14.6878  -16.8021   22.0716 C   0  0  0  0  0  0  0  0  0  0  0  0
   13.2439  -17.2663   21.9062 C   0  0  0  0  0  0  0  0  0  0  0  0
   12.4047  -16.3319   22.7370 C   0  0  0  0  0  0  0  0  0  0  0  0
   10.9325  -16.5529   22.6389 C   0  0  2  0  0  0  0  0  0  0  0  0
   10.4732  -15.8656   21.4163 N   0  0  0  0  0  0  0  0  0  0  0  0
   10.2595  -15.8811   23.7720 C   0  0  0  0  0  0  0  0  0  0  0  0
    9.4207  -14.7791   23.6382 O   0  0  0  0  0  0  0  0  0  0  0  0
   10.4239  -16.2920   24.9475 O   0  0  0  0  0  0  0  0  0  0  0  0
  2  1  1  0
  3  2  1  0
  4  3  1  0
  4  5  1  0
  5  1  1  0
  5  6  1  1
  6  7  2  0
  9  8  1  6
 10  9  1  0
 11  9  1  0
 12 11  1  1
 13  6  1  0
 13 12  1  0
 14 12  1  0
 14 15  2  0
 16 17  1  0
 17 19  1  0
 17 18  2  0
 19 20  1  0
 20 21  1  0
 21 22  1  0
 23 22  1  1
 23 24  1  0
 24 14  1  0
 25 23  1  0
 25 26  1  0
 27 25  2  0
M  END
$$$$
