PLR.pdb
     RDKit          3D

 27 27  0  0  1  0  0  0  0  0999 V2000
    8.7339  -18.4103   16.7307 N   0  0  0  0  0  0  0  0  0  0  0  0
    8.6388  -19.8448   16.5252 C   0  0  0  0  0  0  0  0  0  0  0  0
    7.2579  -20.1878   17.1015 C   0  0  0  0  0  0  0  0  0  0  0  0
    7.3009  -19.3294   18.3763 C   0  0  0  0  0  0  0  0  0  0  0  0
    7.9332  -18.0823   17.8686 C   0  0  1  0  0  0  0  0  0  0  0  0
    8.6570  -17.2854   18.8801 C   0  0  0  0  0  0  0  0  0  0  0  0
    9.8985  -17.4482   18.9557 O   0  0  0  0  0  0  0  0  0  0  0  0
    6.7582  -12.3406   20.8904 C   0  0  0  0  0  0  0  0  0  0  0  0
    7.6256  -13.3860   20.1489 C   0  0  1  0  0  0  0  0  0  0  0  0
    8.7689  -12.5946   19.5579 C   0  0  0  0  0  0  0  0  0  0  0  0
    8.0258  -14.3594   21.1891 C   0  0  0  0  0  0  0  0  0  0  0  0
    8.6687  -15.6190   20.7975 C   0  0  2  0  0  0  0  0  0  0  0  0
    8.0394  -16.3639   19.7539 N   0  0  0  0  0  0  0  0  0  0  0  0
    9.2180  -16.4423   21.9155 C   0  0  0  0  0  0  0  0  0  0  0  0
    8.4470  -17.2301   22.5596 O   0  0  0  0  0  0  0  0  0  0  0  0
   14.6804  -21.0684   24.8079 N   0  0  0  0  0  0  0  0  0  0  0  0
   15.0672  -20.7793   23.4667 C   0  0  0  0  0  0  0  0  0  0  0  0
   15.4695  -21.7306   22.7272 N   0  0  0  0  0  0  0  0  0  0  0  0
   15.0026  -19.4546   22.9717 N   0  0  0  0  0  0  0  0  0  0  0  0
   14.6713  -18.3704   23.8794 C   0  0  0  0  0  0  0  0  0  0  0  0
   13.1846  -18.3970   24.2207 C   0  0  0  0  0  0  0  0  0  0  0  0
   12.5057  -17.5117   23.2093 C   0  0  0  0  0  0  0  0  0  0  0  0
   11.0355  -17.3481   23.4026 C   0  0  2  0  0  0  0  0  0  0  0  0
   10.5615  -16.4281   22.3503 N   0  0  0  0  0  0  0  0  0  0  0  0
   10.7833  -16.6701   24.6928 C   0  0  0  0  0  0  0  0  0  0  0  0
   10.2512  -15.3899   24.8100 O   0  0  0  0  0  0  0  0  0  0  0  0
   11.0496  -17.2430   25.7785 O   0  0  0  0  0  0  0  0  0  0  0  0
  2  1  1  0
  3  2  1  0
  4  3  1  0
  4  5  1  0
  5  1  1  0
  5  6  1  1
  6  7  2  0
  9  8  1  1
 10  9  1  0
 11  9  1  0
 12 11  1  1
 13  6  1  0
 13 12  1  0
 14 12  1  0
 14 15  2  0
 16 17  1  0
 17 19  1  0
 17 18  2  0
 19 20  1  0
 20 21  1  0
 21 22  1  0
 23 22  1  6
 23 24  1  0
 24 14  1  0
 25 23  1  0
 25 26  1  0
 27 25  2  0
M  END
$$$$
