DKF.pdb
     RDKit          3D

 29 29  0  0  1  0  0  0  0  0999 V2000
    8.6979  -14.1576   18.6983 N   0  0  0  0  0  0  0  0  0  0  0  0
    9.5187  -14.8685   19.6325 C   0  0  1  0  0  0  0  0  0  0  0  0
   10.8421  -14.2098   19.8668 C   0  0  0  0  0  0  0  0  0  0  0  0
   11.9213  -14.6628   18.9926 C   0  0  0  0  0  0  0  0  0  0  0  0
   11.8315  -15.5203   18.0840 O   0  0  0  0  0  0  0  0  0  0  0  0
    8.8142  -15.2525   20.8727 C   0  0  0  0  0  0  0  0  0  0  0  0
    8.1254  -14.4021   21.5041 O   0  0  0  0  0  0  0  0  0  0  0  0
   13.1814  -14.0928   19.1767 O   0  0  0  0  0  0  0  0  0  0  0  0
    8.8955  -16.5618   21.3711 N   0  0  0  0  0  0  0  0  0  0  0  0
    8.0785  -17.0667   22.4832 C   0  0  1  0  0  0  0  0  0  0  0  0
    7.7703  -18.5193   22.2913 C   0  0  0  0  0  0  0  0  0  0  0  0
    6.9468  -19.0842   23.3852 C   0  0  0  0  0  0  0  0  0  0  0  0
    6.6851  -20.5726   23.2324 C   0  0  0  0  0  0  0  0  0  0  0  0
    5.7936  -21.1025   24.3346 C   0  0  0  0  0  0  0  0  0  0  0  0
    5.6081  -22.5546   24.1806 N   0  0  0  0  0  0  0  0  0  0  0  0
    8.6857  -16.7284   23.7731 C   0  0  0  0  0  0  0  0  0  0  0  0
    9.9140  -16.7392   23.9378 O   0  0  0  0  0  0  0  0  0  0  0  0
    7.8429  -16.3802   24.8606 N   0  0  0  0  0  0  0  0  0  0  0  0
    8.3598  -15.9918   26.1776 C   0  0  1  0  0  0  0  0  0  0  0  0
    7.2087  -15.4566   26.9775 C   0  0  0  0  0  0  0  0  0  0  0  0
    6.9340  -14.0464   26.6376 C   0  0  0  0  0  0  0  0  0  0  0  0
    7.8592  -13.3534   25.9090 C   0  0  0  0  0  0  0  0  0  0  0  0
    7.6412  -12.0538   25.5604 C   0  0  0  0  0  0  0  0  0  0  0  0
    6.4795  -11.4158   25.9390 C   0  0  0  0  0  0  0  0  0  0  0  0
    5.5513  -12.0969   26.6648 C   0  0  0  0  0  0  0  0  0  0  0  0
    5.7658  -13.4087   27.0193 C   0  0  0  0  0  0  0  0  0  0  0  0
    9.0179  -17.1587   26.8135 C   0  0  0  0  0  0  0  0  0  0  0  0
    8.6919  -18.3336   26.5233 O   0  0  0  0  0  0  0  0  0  0  0  0
   10.0286  -16.9963   27.7634 O   0  0  0  0  0  0  0  0  0  0  0  0
  2  1  1  1
  3  2  1  0
  4  8  1  0
  4  3  1  0
  5  4  2  0
  6  2  1  0
  7  6  2  0
  9  6  1  0
 10  9  1  0
 10 11  1  6
 12 13  1  0
 12 11  1  0
 13 14  1  0
 14 15  1  0
 16 17  2  0
 16 10  1  0
 18 16  1  0
 19 18  1  0
 19 20  1  1
 20 21  1  0
 21 26  2  0
 21 22  1  0
 22 23  2  0
 23 24  1  0
 25 24  2  0
 26 25  1  0
 27 29  1  0
 27 19  1  0
 28 27  2  0
M  END
$$$$
