DKF.pdb
     RDKit          3D

 29 29  0  0  1  0  0  0  0  0999 V2000
   12.1055  -15.1240   17.8373 N   0  0  0  0  0  0  0  0  0  0  0  0
   12.3249  -15.5257   19.1945 C   0  0  1  0  0  0  0  0  0  0  0  0
   13.2934  -14.6416   19.9162 C   0  0  0  0  0  0  0  0  0  0  0  0
   14.6042  -14.5151   19.2840 C   0  0  0  0  0  0  0  0  0  0  0  0
   15.1168  -13.4618   18.8404 O   0  0  0  0  0  0  0  0  0  0  0  0
   11.0810  -15.7889   19.9464 C   0  0  0  0  0  0  0  0  0  0  0  0
   10.1761  -14.9094   20.0098 O   0  0  0  0  0  0  0  0  0  0  0  0
   15.3715  -15.6731   19.1551 O   0  0  0  0  0  0  0  0  0  0  0  0
   10.8809  -17.0138   20.6011 N   0  0  0  0  0  0  0  0  0  0  0  0
    9.6881  -17.3307   21.3985 C   0  0  1  0  0  0  0  0  0  0  0  0
    9.5513  -18.8114   21.5736 C   0  0  0  0  0  0  0  0  0  0  0  0
    8.3246  -19.1949   22.3098 C   0  0  0  0  0  0  0  0  0  0  0  0
    8.1539  -20.6977   22.4502 C   0  0  0  0  0  0  0  0  0  0  0  0
    6.8406  -21.0546   23.1122 C   0  0  0  0  0  0  0  0  0  0  0  0
    6.7265  -22.5153   23.2541 N   0  0  0  0  0  0  0  0  0  0  0  0
    9.6705  -16.5566   22.6425 C   0  0  0  0  0  0  0  0  0  0  0  0
   10.6816  -16.4358   23.3489 O   0  0  0  0  0  0  0  0  0  0  0  0
    8.4628  -15.9305   23.0468 N   0  0  0  0  0  0  0  0  0  0  0  0
    8.3668  -15.0748   24.2347 C   0  0  1  0  0  0  0  0  0  0  0  0
    7.2436  -14.1064   24.0074 C   0  0  0  0  0  0  0  0  0  0  0  0
    7.0110  -13.2707   25.2021 C   0  0  0  0  0  0  0  0  0  0  0  0
    6.0203  -13.6290   26.0724 C   0  0  0  0  0  0  0  0  0  0  0  0
    5.7795  -12.8949   27.1954 C   0  0  0  0  0  0  0  0  0  0  0  0
    6.5344  -11.7752   27.4717 C   0  0  0  0  0  0  0  0  0  0  0  0
    7.5236  -11.4095   26.6115 C   0  0  0  0  0  0  0  0  0  0  0  0
    7.7712  -12.1467   25.4767 C   0  0  0  0  0  0  0  0  0  0  0  0
    8.1723  -15.9200   25.4376 C   0  0  0  0  0  0  0  0  0  0  0  0
    8.7808  -15.6862   26.5081 O   0  0  0  0  0  0  0  0  0  0  0  0
    7.3027  -17.0126   25.4269 O   0  0  0  0  0  0  0  0  0  0  0  0
  2  1  1  6
  3  2  1  0
  4  8  1  0
  4  3  1  0
  5  4  2  0
  6  2  1  0
  7  6  2  0
  9  6  1  0
 10  9  1  0
 10 11  1  1
 12 13  1  0
 12 11  1  0
 13 14  1  0
 14 15  1  0
 16 17  2  0
 16 10  1  0
 18 16  1  0
 19 18  1  0
 19 20  1  6
 20 21  1  0
 21 26  2  0
 21 22  1  0
 22 23  2  0
 23 24  1  0
 25 24  2  0
 26 25  1  0
 27 29  1  0
 27 19  1  0
 28 27  2  0
M  END
$$$$
