DKF.pdb
     RDKit          3D

 29 29  0  0  1  0  0  0  0  0999 V2000
    6.7369  -16.5434   18.8310 N   0  0  0  0  0  0  0  0  0  0  0  0
    7.5733  -15.9930   19.8552 C   0  0  1  0  0  0  0  0  0  0  0  0
    7.8785  -14.5430   19.6439 C   0  0  0  0  0  0  0  0  0  0  0  0
    8.6806  -14.2464   18.4596 C   0  0  0  0  0  0  0  0  0  0  0  0
    9.0112  -13.1093   18.0515 O   0  0  0  0  0  0  0  0  0  0  0  0
    7.1279  -16.3166   21.2259 C   0  0  0  0  0  0  0  0  0  0  0  0
    6.1737  -15.6783   21.7536 O   0  0  0  0  0  0  0  0  0  0  0  0
    9.1295  -15.3263   17.6988 O   0  0  0  0  0  0  0  0  0  0  0  0
    7.7521  -17.3333   21.9647 N   0  0  0  0  0  0  0  0  0  0  0  0
    7.3108  -17.7655   23.2980 C   0  0  1  0  0  0  0  0  0  0  0  0
    7.1388  -19.2523   23.3380 C   0  0  0  0  0  0  0  0  0  0  0  0
    6.2080  -19.7541   22.3009 C   0  0  0  0  0  0  0  0  0  0  0  0
    4.8742  -20.2144   22.8632 C   0  0  0  0  0  0  0  0  0  0  0  0
    3.9612  -20.7465   21.7799 C   0  0  0  0  0  0  0  0  0  0  0  0
    2.7004  -21.2241   22.3708 N   0  0  0  0  0  0  0  0  0  0  0  0
    8.1813  -17.2152   24.3403 C   0  0  0  0  0  0  0  0  0  0  0  0
    9.4162  -17.2780   24.2577 O   0  0  0  0  0  0  0  0  0  0  0  0
    7.5922  -16.5954   25.4729 N   0  0  0  0  0  0  0  0  0  0  0  0
    8.3813  -15.9797   26.5456 C   0  0  1  0  0  0  0  0  0  0  0  0
    7.4497  -15.1424   27.3716 C   0  0  0  0  0  0  0  0  0  0  0  0
    7.1261  -13.8742   26.6885 C   0  0  0  0  0  0  0  0  0  0  0  0
    6.0408  -13.1587   27.1098 C   0  0  0  0  0  0  0  0  0  0  0  0
    5.7128  -11.9756   26.5176 C   0  0  0  0  0  0  0  0  0  0  0  0
    6.4737  -11.4805   25.4804 C   0  0  0  0  0  0  0  0  0  0  0  0
    7.5567  -12.1852   25.0530 C   0  0  0  0  0  0  0  0  0  0  0  0
    7.8926  -13.3797   25.6469 C   0  0  0  0  0  0  0  0  0  0  0  0
    9.0610  -17.0395   27.3293 C   0  0  0  0  0  0  0  0  0  0  0  0
    8.6546  -18.2250   27.3188 O   0  0  0  0  0  0  0  0  0  0  0  0
   10.1829  -16.7596   28.1124 O   0  0  0  0  0  0  0  0  0  0  0  0
  2  1  1  6
  3  2  1  0
  4  8  1  0
  4  3  1  0
  5  4  2  0
  6  2  1  0
  7  6  2  0
  9  6  1  0
 10  9  1  0
 10 11  1  6
 12 13  1  0
 12 11  1  0
 13 14  1  0
 14 15  1  0
 16 17  2  0
 16 10  1  0
 18 16  1  0
 19 18  1  0
 19 20  1  1
 20 21  1  0
 21 26  2  0
 21 22  1  0
 22 23  2  0
 23 24  1  0
 25 24  2  0
 26 25  1  0
 27 29  1  0
 27 19  1  0
 28 27  2  0
M  END
$$$$
