DKF.pdb
     RDKit          3D

 29 29  0  0  1  0  0  0  0  0999 V2000
   11.8694  -18.4831   18.9369 N   0  0  0  0  0  0  0  0  0  0  0  0
   12.7999  -17.6925   19.6858 C   0  0  1  0  0  0  0  0  0  0  0  0
   13.8987  -17.1271   18.8413 C   0  0  0  0  0  0  0  0  0  0  0  0
   14.7745  -18.1186   18.2217 C   0  0  0  0  0  0  0  0  0  0  0  0
   14.5777  -18.7079   17.1341 O   0  0  0  0  0  0  0  0  0  0  0  0
   12.1595  -16.7021   20.5751 C   0  0  0  0  0  0  0  0  0  0  0  0
   12.8650  -15.9559   21.3112 O   0  0  0  0  0  0  0  0  0  0  0  0
   15.9493  -18.4515   18.8966 O   0  0  0  0  0  0  0  0  0  0  0  0
   10.7631  -16.5712   20.6197 N   0  0  0  0  0  0  0  0  0  0  0  0
   10.0584  -15.6012   21.4692 C   0  0  1  0  0  0  0  0  0  0  0  0
    8.7359  -15.2393   20.8676 C   0  0  0  0  0  0  0  0  0  0  0  0
    8.8650  -14.4321   19.6324 C   0  0  0  0  0  0  0  0  0  0  0  0
    7.5466  -14.2338   18.9044 C   0  0  0  0  0  0  0  0  0  0  0  0
    7.7011  -13.3338   17.6975 C   0  0  0  0  0  0  0  0  0  0  0  0
    6.4294  -13.2538   16.9606 N   0  0  0  0  0  0  0  0  0  0  0  0
    9.9997  -16.0677   22.8570 C   0  0  0  0  0  0  0  0  0  0  0  0
    9.8378  -17.2644   23.1356 O   0  0  0  0  0  0  0  0  0  0  0  0
   10.1313  -15.1224   23.9073 N   0  0  0  0  0  0  0  0  0  0  0  0
   10.0225  -15.4849   25.3248 C   0  0  1  0  0  0  0  0  0  0  0  0
   10.4725  -14.3028   26.1318 C   0  0  0  0  0  0  0  0  0  0  0  0
   10.4570  -14.6072   27.5764 C   0  0  0  0  0  0  0  0  0  0  0  0
   11.4706  -15.3587   28.1009 C   0  0  0  0  0  0  0  0  0  0  0  0
   11.5045  -15.6523   29.4316 C   0  0  0  0  0  0  0  0  0  0  0  0
   10.5128  -15.1941   30.2721 C   0  0  0  0  0  0  0  0  0  0  0  0
    9.4987  -14.4448   29.7601 C   0  0  0  0  0  0  0  0  0  0  0  0
    9.4594  -14.1452   28.4180 C   0  0  0  0  0  0  0  0  0  0  0  0
    8.6297  -15.8973   25.6235 C   0  0  0  0  0  0  0  0  0  0  0  0
    7.6490  -15.3308   25.0868 O   0  0  0  0  0  0  0  0  0  0  0  0
    8.3532  -16.9348   26.5164 O   0  0  0  0  0  0  0  0  0  0  0  0
  2  1  1  6
  3  2  1  0
  4  8  1  0
  4  3  1  0
  5  4  2  0
  6  2  1  0
  7  6  2  0
  9  6  1  0
 10  9  1  0
 10 11  1  6
 12 13  1  0
 12 11  1  0
 13 14  1  0
 14 15  1  0
 16 17  2  0
 16 10  1  0
 18 16  1  0
 19 18  1  0
 19 20  1  1
 20 21  1  0
 21 26  2  0
 21 22  1  0
 22 23  2  0
 23 24  1  0
 25 24  2  0
 26 25  1  0
 27 29  1  0
 27 19  1  0
 28 27  2  0
M  END
$$$$
