LSV.pdb
     RDKit          3D

 22 21  0  0  1  0  0  0  0  0999 V2000
   22.6829  -30.9839   -8.6034 C   0  0  0  0  0  0  0  0  0  0  0  0
   22.4688  -31.1525  -10.1088 C   0  0  2  0  0  0  0  0  0  0  0  0
   23.7686  -31.3988  -10.8031 C   0  0  0  0  0  0  0  0  0  0  0  0
   21.7831  -29.9742  -10.6990 C   0  0  0  0  0  0  0  0  0  0  0  0
   20.4828  -29.6847  -10.0383 C   0  0  2  0  0  0  0  0  0  0  0  0
   19.6685  -30.9014  -10.0255 N   0  0  0  0  0  0  0  0  0  0  0  0
   19.7238  -28.5994  -10.6704 C   0  0  0  0  0  0  0  0  0  0  0  0
   19.3060  -28.6727  -11.8444 O   0  0  0  0  0  0  0  0  0  0  0  0
   18.9553  -24.9391   -8.6519 O   0  0  0  0  0  0  0  0  0  0  0  0
   17.9874  -25.5589   -9.4186 C   0  0  0  0  0  0  0  0  0  0  0  0
   18.5714  -26.4076  -10.5189 C   0  0  2  0  0  0  0  0  0  0  0  0
   19.4371  -27.4122   -9.9519 N   0  0  0  0  0  0  0  0  0  0  0  0
   19.3141  -25.5684  -11.5004 C   0  0  0  0  0  0  0  0  0  0  0  0
   20.5643  -25.4011  -11.4030 O   0  0  0  0  0  0  0  0  0  0  0  0
   19.5785  -23.3956  -15.8489 C   0  0  0  0  0  0  0  0  0  0  0  0
   18.9331  -24.3842  -14.9131 C   0  0  2  0  0  0  0  0  0  0  0  0
   17.4659  -24.4674  -15.1851 C   0  0  0  0  0  0  0  0  0  0  0  0
   19.2353  -24.0096  -13.4764 C   0  0  2  0  0  0  0  0  0  0  0  0
   18.6103  -24.9437  -12.5652 N   0  0  0  0  0  0  0  0  0  0  0  0
   18.7659  -22.6317  -13.1879 C   0  0  0  0  0  0  0  0  0  0  0  0
   19.3439  -21.6139  -13.6632 O   0  0  0  0  0  0  0  0  0  0  0  0
   17.6593  -22.4556  -12.3719 O   0  0  0  0  0  0  0  0  0  0  0  0
  2  1  1  1
  2  4  1  0
  2  3  1  0
  4  5  1  0
  5  7  1  0
  5  6  1  6
  7  8  2  0
  9 10  1  0
 11 10  1  1
 11 13  1  0
 12  7  1  0
 12 11  1  0
 13 19  1  0
 13 14  2  0
 16 18  1  0
 16 15  1  6
 17 16  1  0
 18 20  1  0
 18 19  1  1
 20 21  2  0
 20 22  1  0
M  END
$$$$
