LSV.pdb
     RDKit          3D

 22 21  0  0  1  0  0  0  0  0999 V2000
   18.7394  -15.5791  -19.7784 C   0  0  0  0  0  0  0  0  0  0  0  0
   19.4997  -16.1854  -18.5973 C   0  0  2  0  0  0  0  0  0  0  0  0
   18.7754  -17.3755  -18.0576 C   0  0  0  0  0  0  0  0  0  0  0  0
   19.7253  -15.1863  -17.5214 C   0  0  0  0  0  0  0  0  0  0  0  0
   20.4496  -13.9822  -18.0080 C   0  0  2  0  0  0  0  0  0  0  0  0
   21.6942  -14.3991  -18.6565 N   0  0  0  0  0  0  0  0  0  0  0  0
   20.7541  -13.0062  -16.9553 C   0  0  0  0  0  0  0  0  0  0  0  0
   19.9021  -12.6359  -16.1216 O   0  0  0  0  0  0  0  0  0  0  0  0
   24.1576  -10.4726  -14.6178 O   0  0  0  0  0  0  0  0  0  0  0  0
   23.8165  -11.4068  -15.5768 C   0  0  0  0  0  0  0  0  0  0  0  0
   22.3350  -11.4444  -15.8523 C   0  0  2  0  0  0  0  0  0  0  0  0
   22.0508  -12.4440  -16.8524 N   0  0  0  0  0  0  0  0  0  0  0  0
   21.8416  -10.1088  -16.2904 C   0  0  0  0  0  0  0  0  0  0  0  0
   22.0777   -9.6749  -17.4551 O   0  0  0  0  0  0  0  0  0  0  0  0
   18.5384   -8.9236  -16.7170 C   0  0  0  0  0  0  0  0  0  0  0  0
   19.0915   -7.9552  -15.7040 C   0  0  2  0  0  0  0  0  0  0  0  0
   18.5446   -6.5862  -15.9495 C   0  0  0  0  0  0  0  0  0  0  0  0
   20.6060   -7.9872  -15.7312 C   0  0  2  0  0  0  0  0  0  0  0  0
   21.0930   -9.3058  -15.3882 N   0  0  0  0  0  0  0  0  0  0  0  0
   21.1649   -6.9824  -14.7929 C   0  0  0  0  0  0  0  0  0  0  0  0
   21.1313   -5.7439  -15.0397 O   0  0  0  0  0  0  0  0  0  0  0  0
   21.7415   -7.4158  -13.6092 O   0  0  0  0  0  0  0  0  0  0  0  0
  2  1  1  6
  2  4  1  0
  2  3  1  0
  4  5  1  0
  5  7  1  0
  5  6  1  1
  7  8  2  0
  9 10  1  0
 11 10  1  6
 11 13  1  0
 12  7  1  0
 12 11  1  0
 13 19  1  0
 13 14  2  0
 16 18  1  0
 16 15  1  6
 17 16  1  0
 18 20  1  0
 18 19  1  1
 20 21  2  0
 20 22  1  0
M  END
$$$$
