LSV.pdb
     RDKit          3D

 22 21  0  0  1  0  0  0  0  0999 V2000
   40.5189  -27.8613    3.2138 C   0  0  0  0  0  0  0  0  0  0  0  0
   39.6496  -27.5722    1.9884 C   0  0  2  0  0  0  0  0  0  0  0  0
   40.3567  -26.6567    1.0431 C   0  0  0  0  0  0  0  0  0  0  0  0
   38.3337  -27.0008    2.3740 C   0  0  0  0  0  0  0  0  0  0  0  0
   37.5649  -27.9024    3.2724 C   0  0  2  0  0  0  0  0  0  0  0  0
   37.1443  -29.0862    2.5205 N   0  0  0  0  0  0  0  0  0  0  0  0
   36.3885  -27.2716    3.8823 C   0  0  0  0  0  0  0  0  0  0  0  0
   35.3402  -27.0536    3.2409 O   0  0  0  0  0  0  0  0  0  0  0  0
   36.1384  -26.5923    8.0841 O   0  0  0  0  0  0  0  0  0  0  0  0
   35.0830  -26.9326    7.2600 C   0  0  0  0  0  0  0  0  0  0  0  0
   35.2200  -26.3606    5.8722 C   0  0  2  0  0  0  0  0  0  0  0  0
   36.4089  -26.8836    5.2450 N   0  0  0  0  0  0  0  0  0  0  0  0
   35.2595  -24.8720    5.9121 C   0  0  0  0  0  0  0  0  0  0  0  0
   36.3595  -24.2471    5.9055 O   0  0  0  0  0  0  0  0  0  0  0  0
   32.5449  -22.5008    4.0865 C   0  0  0  0  0  0  0  0  0  0  0  0
   32.6901  -22.1562    5.5459 C   0  0  2  0  0  0  0  0  0  0  0  0
   32.5593  -20.6802    5.7411 C   0  0  0  0  0  0  0  0  0  0  0  0
   34.0022  -22.6965    6.0768 C   0  0  2  0  0  0  0  0  0  0  0  0
   34.0436  -24.1380    5.9583 N   0  0  0  0  0  0  0  0  0  0  0  0
   34.1929  -22.3005    7.4942 C   0  0  0  0  0  0  0  0  0  0  0  0
   33.8904  -23.0683    8.4508 O   0  0  0  0  0  0  0  0  0  0  0  0
   34.7190  -21.0498    7.7777 O   0  0  0  0  0  0  0  0  0  0  0  0
  2  1  1  1
  2  4  1  0
  2  3  1  0
  4  5  1  0
  5  7  1  0
  5  6  1  6
  7  8  2  0
  9 10  1  0
 11 10  1  1
 11 13  1  0
 12  7  1  0
 12 11  1  0
 13 19  1  0
 13 14  2  0
 16 18  1  0
 16 15  1  6
 17 16  1  0
 18 20  1  0
 18 19  1  1
 20 21  2  0
 20 22  1  0
M  END
$$$$
