LSV.pdb
     RDKit          3D

 22 21  0  0  1  0  0  0  0  0999 V2000
   20.0340  -14.7559  -19.3928 C   0  0  0  0  0  0  0  0  0  0  0  0
   18.7977  -14.0559  -18.8250 C   0  0  2  0  0  0  0  0  0  0  0  0
   17.5697  -14.4644  -19.5715 C   0  0  0  0  0  0  0  0  0  0  0  0
   18.9478  -12.5781  -18.8467 C   0  0  0  0  0  0  0  0  0  0  0  0
   19.7628  -12.0739  -17.7097 C   0  0  2  0  0  0  0  0  0  0  0  0
   19.4526  -12.8560  -16.5115 N   0  0  0  0  0  0  0  0  0  0  0  0
   19.5653  -10.6482  -17.4234 C   0  0  0  0  0  0  0  0  0  0  0  0
   19.6706   -9.7697  -18.3038 O   0  0  0  0  0  0  0  0  0  0  0  0
   17.8360   -9.3243  -13.8402 O   0  0  0  0  0  0  0  0  0  0  0  0
   17.8601   -8.5809  -15.0044 C   0  0  0  0  0  0  0  0  0  0  0  0
   19.1076   -8.8129  -15.8179 C   0  0  2  0  0  0  0  0  0  0  0  0
   19.2428  -10.2184  -16.1122 N   0  0  0  0  0  0  0  0  0  0  0  0
   20.3118   -8.3091  -15.1001 C   0  0  0  0  0  0  0  0  0  0  0  0
   20.8586   -8.9891  -14.1840 O   0  0  0  0  0  0  0  0  0  0  0  0
   22.3407   -4.8281  -16.5946 C   0  0  0  0  0  0  0  0  0  0  0  0
   22.9933   -5.9253  -15.7946 C   0  0  2  0  0  0  0  0  0  0  0  0
   23.5277   -6.9799  -16.7088 C   0  0  0  0  0  0  0  0  0  0  0  0
   22.0126   -6.4798  -14.7815 C   0  0  2  0  0  0  0  0  0  0  0  0
   20.8585   -7.0443  -15.4471 N   0  0  0  0  0  0  0  0  0  0  0  0
   21.5826   -5.4181  -13.8380 C   0  0  0  0  0  0  0  0  0  0  0  0
   20.4100   -4.9482  -13.8478 O   0  0  0  0  0  0  0  0  0  0  0  0
   22.4953   -4.9268  -12.9177 O   0  0  0  0  0  0  0  0  0  0  0  0
  2  1  1  6
  2  4  1  0
  2  3  1  0
  4  5  1  0
  5  7  1  0
  5  6  1  1
  7  8  2  0
  9 10  1  0
 11 10  1  1
 11 13  1  0
 12  7  1  0
 12 11  1  0
 13 19  1  0
 13 14  2  0
 16 18  1  0
 16 15  1  6
 17 16  1  0
 18 20  1  0
 18 19  1  6
 20 21  2  0
 20 22  1  0
M  END
$$$$
