LSV.pdb
     RDKit          3D

 22 21  0  0  1  0  0  0  0  0999 V2000
   17.3062  -16.9440  -16.2049 C   0  0  0  0  0  0  0  0  0  0  0  0
   17.0483  -16.0268  -17.4020 C   0  0  2  0  0  0  0  0  0  0  0  0
   17.1480  -16.7893  -18.6829 C   0  0  0  0  0  0  0  0  0  0  0  0
   17.9804  -14.8702  -17.4155 C   0  0  0  0  0  0  0  0  0  0  0  0
   17.7301  -13.9266  -16.2938 C   0  0  2  0  0  0  0  0  0  0  0  0
   16.2860  -13.7652  -16.1144 N   0  0  0  0  0  0  0  0  0  0  0  0
   18.3468  -12.6078  -16.4779 C   0  0  0  0  0  0  0  0  0  0  0  0
   19.5100  -12.4690  -16.9087 O   0  0  0  0  0  0  0  0  0  0  0  0
   17.5416   -7.8410  -16.8185 O   0  0  0  0  0  0  0  0  0  0  0  0
   17.0732   -9.1277  -16.6347 C   0  0  0  0  0  0  0  0  0  0  0  0
   18.1833  -10.1322  -16.4601 C   0  0  2  0  0  0  0  0  0  0  0  0
   17.6249  -11.4291  -16.1656 N   0  0  0  0  0  0  0  0  0  0  0  0
   19.1201   -9.7075  -15.3824 C   0  0  0  0  0  0  0  0  0  0  0  0
   18.8291   -9.8706  -14.1621 O   0  0  0  0  0  0  0  0  0  0  0  0
   23.1093   -9.0587  -16.4124 C   0  0  0  0  0  0  0  0  0  0  0  0
   22.6744   -9.3259  -14.9950 C   0  0  2  0  0  0  0  0  0  0  0  0
   22.6646  -10.7964  -14.7287 C   0  0  0  0  0  0  0  0  0  0  0  0
   21.3274   -8.6818  -14.7373 C   0  0  2  0  0  0  0  0  0  0  0  0
   20.3619   -9.1089  -15.7268 N   0  0  0  0  0  0  0  0  0  0  0  0
   21.4461   -7.2027  -14.7529 C   0  0  0  0  0  0  0  0  0  0  0  0
   22.1617   -6.5793  -13.9190 O   0  0  0  0  0  0  0  0  0  0  0  0
   20.7507   -6.4826  -15.7117 O   0  0  0  0  0  0  0  0  0  0  0  0
  2  1  1  1
  2  4  1  0
  2  3  1  0
  4  5  1  0
  5  7  1  0
  5  6  1  6
  7  8  2  0
  9 10  1  0
 11 10  1  1
 11 13  1  0
 12  7  1  0
 12 11  1  0
 13 19  1  0
 13 14  2  0
 16 18  1  0
 16 15  1  6
 17 16  1  0
 18 20  1  0
 18 19  1  6
 20 21  2  0
 20 22  1  0
M  END
$$$$
