LSV.pdb
     RDKit          3D

 22 21  0  0  1  0  0  0  0  0999 V2000
   25.7900  -22.3557  -10.5549 C   0  0  0  0  0  0  0  0  0  0  0  0
   26.7305  -21.2592  -11.0588 C   0  0  2  0  0  0  0  0  0  0  0  0
   27.4225  -20.5904   -9.9161 C   0  0  0  0  0  0  0  0  0  0  0  0
   26.0090  -20.2567  -11.8841 C   0  0  0  0  0  0  0  0  0  0  0  0
   25.3146  -20.8722  -13.0460 C   0  0  2  0  0  0  0  0  0  0  0  0
   26.3035  -21.5218  -13.9083 N   0  0  0  0  0  0  0  0  0  0  0  0
   24.5283  -19.9211  -13.8403 C   0  0  0  0  0  0  0  0  0  0  0  0
   23.6110  -19.2352  -13.3442 O   0  0  0  0  0  0  0  0  0  0  0  0
   26.0538  -17.5830  -16.6280 O   0  0  0  0  0  0  0  0  0  0  0  0
   24.9329  -18.2398  -17.0979 C   0  0  0  0  0  0  0  0  0  0  0  0
   24.0617  -18.7716  -15.9888 C   0  0  2  0  0  0  0  0  0  0  0  0
   24.7928  -19.7502  -15.2218 N   0  0  0  0  0  0  0  0  0  0  0  0
   22.8079  -19.3628  -16.5344 C   0  0  0  0  0  0  0  0  0  0  0  0
   22.7881  -20.5399  -16.9974 O   0  0  0  0  0  0  0  0  0  0  0  0
   19.1943  -16.9891  -16.4864 C   0  0  0  0  0  0  0  0  0  0  0  0
   19.1961  -18.4779  -16.2558 C   0  0  2  0  0  0  0  0  0  0  0  0
   19.2374  -18.7713  -14.7910 C   0  0  0  0  0  0  0  0  0  0  0  0
   20.3469  -19.1160  -17.0068 C   0  0  2  0  0  0  0  0  0  0  0  0
   21.6122  -18.5950  -16.5366 N   0  0  0  0  0  0  0  0  0  0  0  0
   20.2130  -18.8772  -18.4654 C   0  0  0  0  0  0  0  0  0  0  0  0
   19.2978  -19.4144  -19.1509 O   0  0  0  0  0  0  0  0  0  0  0  0
   21.1197  -18.0389  -19.0952 O   0  0  0  0  0  0  0  0  0  0  0  0
  2  1  1  1
  2  4  1  0
  2  3  1  0
  4  5  1  0
  5  7  1  0
  5  6  1  6
  7  8  2  0
  9 10  1  0
 11 10  1  6
 11 13  1  0
 12  7  1  0
 12 11  1  0
 13 19  1  0
 13 14  2  0
 16 18  1  0
 16 15  1  1
 17 16  1  0
 18 20  1  0
 18 19  1  1
 20 21  2  0
 20 22  1  0
M  END
$$$$
