LSV.pdb
     RDKit          3D

 22 21  0  0  1  0  0  0  0  0999 V2000
   21.0723  -16.7967  -19.2854 C   0  0  0  0  0  0  0  0  0  0  0  0
   21.5402  -18.2457  -19.4352 C   0  0  2  0  0  0  0  0  0  0  0  0
   20.6488  -18.9946  -20.3714 C   0  0  0  0  0  0  0  0  0  0  0  0
   21.6076  -18.9369  -18.1220 C   0  0  0  0  0  0  0  0  0  0  0  0
   22.7830  -18.5116  -17.3166 C   0  0  2  0  0  0  0  0  0  0  0  0
   23.8648  -18.1120  -18.2186 N   0  0  0  0  0  0  0  0  0  0  0  0
   23.2755  -19.5415  -16.3944 C   0  0  0  0  0  0  0  0  0  0  0  0
   22.5061  -20.2576  -15.7212 O   0  0  0  0  0  0  0  0  0  0  0  0
   27.3673  -20.5380  -16.2466 O   0  0  0  0  0  0  0  0  0  0  0  0
   26.3689  -21.4404  -15.9342 C   0  0  0  0  0  0  0  0  0  0  0  0
   25.1506  -20.7791  -15.3422 C   0  0  2  0  0  0  0  0  0  0  0  0
   24.6672  -19.7574  -16.2381 N   0  0  0  0  0  0  0  0  0  0  0  0
   25.4569  -20.2012  -14.0037 C   0  0  0  0  0  0  0  0  0  0  0  0
   25.7871  -18.9866  -13.8766 O   0  0  0  0  0  0  0  0  0  0  0  0
   23.4210  -20.5295  -10.8149 C   0  0  0  0  0  0  0  0  0  0  0  0
   24.8007  -21.0351  -10.4825 C   0  0  2  0  0  0  0  0  0  0  0  0
   25.1897  -20.6012   -9.1063 C   0  0  0  0  0  0  0  0  0  0  0  0
   25.7879  -20.5745  -11.5356 C   0  0  2  0  0  0  0  0  0  0  0  0
   25.3780  -21.0244  -12.8483 N   0  0  0  0  0  0  0  0  0  0  0  0
   27.1490  -21.0808  -11.2303 C   0  0  0  0  0  0  0  0  0  0  0  0
   27.5839  -22.1651  -11.7111 O   0  0  0  0  0  0  0  0  0  0  0  0
   27.9687  -20.3415  -10.3917 O   0  0  0  0  0  0  0  0  0  0  0  0
  2  1  1  1
  2  4  1  0
  2  3  1  0
  4  5  1  0
  5  7  1  0
  5  6  1  6
  7  8  2  0
  9 10  1  0
 11 10  1  6
 11 13  1  0
 12  7  1  0
 12 11  1  0
 13 19  1  0
 13 14  2  0
 16 18  1  0
 16 15  1  6
 17 16  1  0
 18 20  1  0
 18 19  1  6
 20 21  2  0
 20 22  1  0
M  END
$$$$
