LSV.pdb
     RDKit          3D

 22 21  0  0  1  0  0  0  0  0999 V2000
   28.3426  -22.2879  -11.3885 C   0  0  0  0  0  0  0  0  0  0  0  0
   29.4293  -21.2669  -11.7311 C   0  0  2  0  0  0  0  0  0  0  0  0
   30.3203  -21.0291  -10.5556 C   0  0  0  0  0  0  0  0  0  0  0  0
   28.8458  -19.9854  -12.2047 C   0  0  0  0  0  0  0  0  0  0  0  0
   27.9615  -20.1670  -13.3863 C   0  0  2  0  0  0  0  0  0  0  0  0
   28.6041  -19.5785  -14.5628 N   0  0  0  0  0  0  0  0  0  0  0  0
   26.6239  -19.5860  -13.2222 C   0  0  0  0  0  0  0  0  0  0  0  0
   26.4467  -18.4349  -12.7733 O   0  0  0  0  0  0  0  0  0  0  0  0
   23.6215  -20.3710  -15.7542 O   0  0  0  0  0  0  0  0  0  0  0  0
   23.7142  -19.3083  -14.8762 C   0  0  0  0  0  0  0  0  0  0  0  0
   24.1626  -19.7277  -13.4996 C   0  0  2  0  0  0  0  0  0  0  0  0
   25.4710  -20.3299  -13.5760 N   0  0  0  0  0  0  0  0  0  0  0  0
   23.1859  -20.6708  -12.8867 C   0  0  0  0  0  0  0  0  0  0  0  0
   23.1877  -21.8998  -13.1868 O   0  0  0  0  0  0  0  0  0  0  0  0
   20.1152  -19.1529  -10.1853 C   0  0  0  0  0  0  0  0  0  0  0  0
   20.8196  -20.4699   -9.9876 C   0  0  2  0  0  0  0  0  0  0  0  0
   21.9708  -20.3015   -9.0496 C   0  0  0  0  0  0  0  0  0  0  0  0
   21.2426  -21.0364  -11.3276 C   0  0  2  0  0  0  0  0  0  0  0  0
   22.2349  -20.1860  -11.9488 N   0  0  0  0  0  0  0  0  0  0  0  0
   20.0696  -21.1826  -12.2248 C   0  0  0  0  0  0  0  0  0  0  0  0
   19.8522  -20.3834  -13.1787 O   0  0  0  0  0  0  0  0  0  0  0  0
   19.1851  -22.2280  -12.0098 O   0  0  0  0  0  0  0  0  0  0  0  0
  2  1  1  1
  2  4  1  0
  2  3  1  0
  4  5  1  0
  5  7  1  0
  5  6  1  6
  7  8  2  0
  9 10  1  0
 11 10  1  6
 11 13  1  0
 12  7  1  0
 12 11  1  0
 13 19  1  0
 13 14  2  0
 16 18  1  0
 16 15  1  6
 17 16  1  0
 18 20  1  0
 18 19  1  6
 20 21  2  0
 20 22  1  0
M  END
$$$$
