LSV.pdb
     RDKit          3D

 22 21  0  0  1  0  0  0  0  0999 V2000
   22.6241  -18.1285  -15.9883 C   0  0  0  0  0  0  0  0  0  0  0  0
   21.6633  -19.2251  -15.5245 C   0  0  2  0  0  0  0  0  0  0  0  0
   20.3598  -18.6370  -15.0918 C   0  0  0  0  0  0  0  0  0  0  0  0
   22.2509  -20.0401  -14.4303 C   0  0  0  0  0  0  0  0  0  0  0  0
   23.6844  -20.3572  -14.6662 C   0  0  2  0  0  0  0  0  0  0  0  0
   23.7848  -21.3919  -15.6972 N   0  0  0  0  0  0  0  0  0  0  0  0
   24.4008  -20.7990  -13.4639 C   0  0  0  0  0  0  0  0  0  0  0  0
   23.8281  -21.3884  -12.5245 O   0  0  0  0  0  0  0  0  0  0  0  0
   28.7322  -21.7058  -11.4962 O   0  0  0  0  0  0  0  0  0  0  0  0
   27.9843  -21.1705  -12.5272 C   0  0  0  0  0  0  0  0  0  0  0  0
   26.5155  -21.0878  -12.1990 C   0  0  2  0  0  0  0  0  0  0  0  0
   25.7920  -20.5646  -13.3318 N   0  0  0  0  0  0  0  0  0  0  0  0
   26.2866  -20.2420  -10.9943 C   0  0  0  0  0  0  0  0  0  0  0  0
   26.3098  -18.9793  -11.0684 O   0  0  0  0  0  0  0  0  0  0  0  0
   24.9514  -20.0686   -6.2390 C   0  0  0  0  0  0  0  0  0  0  0  0
   25.2557  -20.9339   -7.4341 C   0  0  2  0  0  0  0  0  0  0  0  0
   26.0554  -22.1252   -7.0161 C   0  0  0  0  0  0  0  0  0  0  0  0
   25.9520  -20.1148   -8.5018 C   0  0  2  0  0  0  0  0  0  0  0  0
   26.0377  -20.8599   -9.7391 N   0  0  0  0  0  0  0  0  0  0  0  0
   27.3111  -19.7224   -8.0532 C   0  0  0  0  0  0  0  0  0  0  0  0
   28.3458  -20.3412   -8.4308 O   0  0  0  0  0  0  0  0  0  0  0  0
   27.4499  -18.6438   -7.1936 O   0  0  0  0  0  0  0  0  0  0  0  0
  2  1  1  1
  2  4  1  0
  2  3  1  0
  4  5  1  0
  5  7  1  0
  5  6  1  6
  7  8  2  0
  9 10  1  0
 11 10  1  6
 11 13  1  0
 12  7  1  0
 12 11  1  0
 13 19  1  0
 13 14  2  0
 16 18  1  0
 16 15  1  1
 17 16  1  0
 18 20  1  0
 18 19  1  6
 20 21  2  0
 20 22  1  0
M  END
$$$$
