MWH.pdb
     RDKit          3D

 33 35  0  0  1  0  0  0  0  0999 V2000
   29.1813  -24.5488  -17.3370 C   0  0  0  0  0  0  0  0  0  0  0  0
   29.4764  -22.8917  -17.9194 S   0  0  0  0  0  0  0  0  0  0  0  0
   29.4355  -21.6032  -16.6916 C   0  0  0  0  0  0  0  0  0  0  0  0
   28.6636  -21.9081  -15.4390 C   0  0  0  0  0  0  0  0  0  0  0  0
   27.3404  -21.2365  -15.4185 C   0  0  2  0  0  0  0  0  0  0  0  0
   27.5652  -19.8024  -15.4730 N   0  0  0  0  0  0  0  0  0  0  0  0
   26.5350  -21.5964  -14.2116 C   0  0  0  0  0  0  0  0  0  0  0  0
   26.2706  -22.7814  -13.9154 O   0  0  0  0  0  0  0  0  0  0  0  0
   26.0266  -20.5772  -13.3317 N   0  0  0  0  0  0  0  0  0  0  0  0
   25.1874  -20.8724  -12.1849 C   0  0  1  0  0  0  0  0  0  0  0  0
   25.6254  -20.2224  -10.9353 C   0  0  0  0  0  0  0  0  0  0  0  0
   26.9490  -20.5584  -10.4226 C   0  0  0  0  0  0  0  0  0  0  0  0
   28.0521  -21.1391  -10.9727 C   0  0  0  0  0  0  0  0  0  0  0  0
   29.0504  -21.2263  -10.0747 N   0  0  0  0  0  0  0  0  0  0  0  0
   28.6048  -20.6993   -8.9222 C   0  0  0  0  0  0  0  0  0  0  0  0
   29.2063  -20.5297   -7.6752 C   0  0  0  0  0  0  0  0  0  0  0  0
   28.4847  -19.9407   -6.6506 C   0  0  0  0  0  0  0  0  0  0  0  0
   27.1891  -19.5130   -6.8148 C   0  0  0  0  0  0  0  0  0  0  0  0
   26.6113  -19.6915   -8.0627 C   0  0  0  0  0  0  0  0  0  0  0  0
   27.3071  -20.2747   -9.0986 C   0  0  0  0  0  0  0  0  0  0  0  0
   23.7715  -20.5897  -12.5455 C   0  0  0  0  0  0  0  0  0  0  0  0
   23.4557  -19.4083  -12.9288 O   0  0  0  0  0  0  0  0  0  0  0  0
   22.7644  -21.5761  -12.4795 N   0  0  0  0  0  0  0  0  0  0  0  0
   21.4027  -21.1755  -12.8203 C   0  0  1  0  0  0  0  0  0  0  0  0
   20.8302  -22.0472  -13.8905 C   0  0  0  0  0  0  0  0  0  0  0  0
   21.2023  -21.5197  -15.2165 C   0  0  0  0  0  0  0  0  0  0  0  0
   21.9083  -20.3329  -15.3577 C   0  0  0  0  0  0  0  0  0  0  0  0
   22.1007  -20.1016  -16.6583 N   0  0  0  0  0  0  0  0  0  0  0  0
   21.5328  -21.1142  -17.3370 C   0  0  0  0  0  0  0  0  0  0  0  0
   20.9848  -21.9792  -16.4581 N   0  0  0  0  0  0  0  0  0  0  0  0
   20.5944  -21.3075  -11.5903 C   0  0  0  0  0  0  0  0  0  0  0  0
   20.8474  -22.2728  -10.8000 O   0  0  0  0  0  0  0  0  0  0  0  0
   19.5816  -20.4179  -11.2771 O   0  0  0  0  0  0  0  0  0  0  0  0
  2  1  1  0
  3  2  1  0
  4  3  1  0
  5  4  1  0
  5  6  1  1
  7  8  2  0
  7  5  1  0
  9  7  1  0
 10 11  1  1
 10  9  1  0
 12 11  1  0
 12 20  1  0
 13 14  1  0
 13 12  2  0
 14 15  1  0
 15 20  2  0
 15 16  1  0
 16 17  2  0
 17 18  1  0
 19 18  2  0
 20 19  1  0
 21 10  1  0
 21 22  2  0
 23 21  1  0
 24 23  1  0
 24 25  1  6
 25 26  1  0
 26 27  2  0
 26 30  1  0
 27 28  1  0
 28 29  1  0
 30 29  2  0
 31 24  1  0
 32 31  2  0
 33 31  1  0
M  END
$$$$
