MWH.pdb
     RDKit          3D

 33 35  0  0  1  0  0  0  0  0999 V2000
   29.7972  -24.4940  -17.6032 C   0  0  0  0  0  0  0  0  0  0  0  0
   29.9509  -22.7453  -17.9051 S   0  0  0  0  0  0  0  0  0  0  0  0
   30.0529  -21.7009  -16.4670 C   0  0  0  0  0  0  0  0  0  0  0  0
   29.1567  -22.0683  -15.3183 C   0  0  0  0  0  0  0  0  0  0  0  0
   28.0598  -21.0872  -15.1270 C   0  0  2  0  0  0  0  0  0  0  0  0
   28.6589  -19.7982  -14.8276 N   0  0  0  0  0  0  0  0  0  0  0  0
   27.1138  -21.4914  -14.0423 C   0  0  0  0  0  0  0  0  0  0  0  0
   26.4751  -22.5649  -14.0803 O   0  0  0  0  0  0  0  0  0  0  0  0
   26.8999  -20.6477  -12.8961 N   0  0  0  0  0  0  0  0  0  0  0  0
   25.9651  -20.9790  -11.8365 C   0  0  1  0  0  0  0  0  0  0  0  0
   26.2882  -20.3649  -10.5349 C   0  0  0  0  0  0  0  0  0  0  0  0
   27.5225  -20.7780   -9.8766 C   0  0  0  0  0  0  0  0  0  0  0  0
   28.6248  -21.4652  -10.2886 C   0  0  0  0  0  0  0  0  0  0  0  0
   29.5180  -21.5885   -9.2899 N   0  0  0  0  0  0  0  0  0  0  0  0
   29.0033  -20.9785   -8.2093 C   0  0  0  0  0  0  0  0  0  0  0  0
   29.4888  -20.8004   -6.9139 C   0  0  0  0  0  0  0  0  0  0  0  0
   28.7182  -20.1132   -5.9912 C   0  0  0  0  0  0  0  0  0  0  0  0
   27.4842  -19.5954   -6.3036 C   0  0  0  0  0  0  0  0  0  0  0  0
   27.0215  -19.7843   -7.5971 C   0  0  0  0  0  0  0  0  0  0  0  0
   27.7682  -20.4642   -8.5339 C   0  0  0  0  0  0  0  0  0  0  0  0
   24.5846  -20.6901  -12.3117 C   0  0  0  0  0  0  0  0  0  0  0  0
   24.3361  -19.5434  -12.8274 O   0  0  0  0  0  0  0  0  0  0  0  0
   23.5396  -21.6335  -12.2137 N   0  0  0  0  0  0  0  0  0  0  0  0
   22.2380  -21.2591  -12.7582 C   0  0  1  0  0  0  0  0  0  0  0  0
   21.5390  -22.4364  -13.3567 C   0  0  0  0  0  0  0  0  0  0  0  0
   20.2006  -22.0355  -13.8290 C   0  0  0  0  0  0  0  0  0  0  0  0
   19.7008  -20.7595  -13.6074 C   0  0  0  0  0  0  0  0  0  0  0  0
   18.4778  -20.6813  -14.1368 N   0  0  0  0  0  0  0  0  0  0  0  0
   18.1976  -21.8767  -14.6852 C   0  0  0  0  0  0  0  0  0  0  0  0
   19.2481  -22.7029  -14.4977 N   0  0  0  0  0  0  0  0  0  0  0  0
   21.4381  -20.7279  -11.6350 C   0  0  0  0  0  0  0  0  0  0  0  0
   21.7303  -21.1009  -10.4535 O   0  0  0  0  0  0  0  0  0  0  0  0
   20.3918  -19.8435  -11.8311 O   0  0  0  0  0  0  0  0  0  0  0  0
  2  1  1  0
  3  2  1  0
  4  3  1  0
  5  4  1  0
  5  6  1  1
  7  8  2  0
  7  5  1  0
  9  7  1  0
 10 11  1  1
 10  9  1  0
 12 11  1  0
 12 20  1  0
 13 14  1  0
 13 12  2  0
 14 15  1  0
 15 20  2  0
 15 16  1  0
 16 17  2  0
 17 18  1  0
 19 18  2  0
 20 19  1  0
 21 10  1  0
 21 22  2  0
 23 21  1  0
 24 23  1  0
 24 25  1  1
 25 26  1  0
 26 27  2  0
 26 30  1  0
 27 28  1  0
 28 29  1  0
 30 29  2  0
 31 24  1  0
 32 31  2  0
 33 31  1  0
M  END
$$$$
