MWH.pdb
     RDKit          3D

 33 35  0  0  1  0  0  0  0  0999 V2000
   30.9877  -23.5333  -21.1228 C   0  0  0  0  0  0  0  0  0  0  0  0
   30.5874  -23.8328  -19.4133 S   0  0  0  0  0  0  0  0  0  0  0  0
   29.7828  -22.5031  -18.5451 C   0  0  0  0  0  0  0  0  0  0  0  0
   29.2437  -22.8343  -17.1822 C   0  0  0  0  0  0  0  0  0  0  0  0
   28.3858  -21.7512  -16.6404 C   0  0  2  0  0  0  0  0  0  0  0  0
   29.1727  -20.5307  -16.6076 N   0  0  0  0  0  0  0  0  0  0  0  0
   27.8535  -22.0698  -15.2802 C   0  0  0  0  0  0  0  0  0  0  0  0
   28.5430  -22.6478  -14.4129 O   0  0  0  0  0  0  0  0  0  0  0  0
   26.5075  -21.7172  -14.9123 N   0  0  0  0  0  0  0  0  0  0  0  0
   26.0490  -21.6854  -13.5357 C   0  0  1  0  0  0  0  0  0  0  0  0
   26.9219  -20.9169  -12.6282 C   0  0  0  0  0  0  0  0  0  0  0  0
   26.4477  -20.6790  -11.2695 C   0  0  0  0  0  0  0  0  0  0  0  0
   25.2568  -20.2743  -10.7452 C   0  0  0  0  0  0  0  0  0  0  0  0
   25.3167  -20.2117   -9.4025 N   0  0  0  0  0  0  0  0  0  0  0  0
   26.5560  -20.5779   -9.0354 C   0  0  0  0  0  0  0  0  0  0  0  0
   27.1674  -20.6941   -7.7872 C   0  0  0  0  0  0  0  0  0  0  0  0
   28.4882  -21.1039   -7.7165 C   0  0  0  0  0  0  0  0  0  0  0  0
   29.2265  -21.4031   -8.8362 C   0  0  0  0  0  0  0  0  0  0  0  0
   28.5984  -21.2806  -10.0665 C   0  0  0  0  0  0  0  0  0  0  0  0
   27.2857  -20.8749  -10.1644 C   0  0  0  0  0  0  0  0  0  0  0  0
   24.6271  -21.2463  -13.5172 C   0  0  0  0  0  0  0  0  0  0  0  0
   24.3455  -20.0491  -13.8776 O   0  0  0  0  0  0  0  0  0  0  0  0
   23.5783  -22.1011  -13.1161 N   0  0  0  0  0  0  0  0  0  0  0  0
   22.2139  -21.6928  -13.4360 C   0  0  1  0  0  0  0  0  0  0  0  0
   21.2930  -22.8681  -13.4937 C   0  0  0  0  0  0  0  0  0  0  0  0
   21.5506  -23.6445  -14.7209 C   0  0  0  0  0  0  0  0  0  0  0  0
   22.4390  -24.7110  -14.7364 C   0  0  0  0  0  0  0  0  0  0  0  0
   22.4751  -25.2199  -15.9700 N   0  0  0  0  0  0  0  0  0  0  0  0
   21.6311  -24.4990  -16.7293 C   0  0  0  0  0  0  0  0  0  0  0  0
   21.0671  -23.5382  -15.9679 N   0  0  0  0  0  0  0  0  0  0  0  0
   21.7767  -20.7746  -12.3638 C   0  0  0  0  0  0  0  0  0  0  0  0
   22.3308  -20.8697  -11.2217 O   0  0  0  0  0  0  0  0  0  0  0  0
   20.7925  -19.8230  -12.5666 O   0  0  0  0  0  0  0  0  0  0  0  0
  2  1  1  0
  3  2  1  0
  4  3  1  0
  5  4  1  0
  5  6  1  1
  7  8  2  0
  7  5  1  0
  9  7  1  0
 10 11  1  1
 10  9  1  0
 12 11  1  0
 12 20  1  0
 13 14  1  0
 13 12  2  0
 14 15  1  0
 15 20  2  0
 15 16  1  0
 16 17  2  0
 17 18  1  0
 19 18  2  0
 20 19  1  0
 21 10  1  0
 21 22  2  0
 23 21  1  0
 24 23  1  0
 24 25  1  1
 25 26  1  0
 26 27  2  0
 26 30  1  0
 27 28  1  0
 28 29  1  0
 30 29  2  0
 31 24  1  0
 32 31  2  0
 33 31  1  0
M  END
$$$$
