MWH.pdb
     RDKit          3D

 33 35  0  0  1  0  0  0  0  0999 V2000
   19.8697   -1.0024  -17.6677 C   0  0  0  0  0  0  0  0  0  0  0  0
   20.7271   -0.9298  -19.2272 S   0  0  0  0  0  0  0  0  0  0  0  0
   21.9989   -2.1480  -19.4876 C   0  0  0  0  0  0  0  0  0  0  0  0
   21.6788   -3.5447  -19.0354 C   0  0  0  0  0  0  0  0  0  0  0  0
   22.8078   -4.4805  -19.2640 C   0  0  2  0  0  0  0  0  0  0  0  0
   22.9968   -4.6122  -20.6982 N   0  0  0  0  0  0  0  0  0  0  0  0
   22.5765   -5.8189  -18.6395 C   0  0  0  0  0  0  0  0  0  0  0  0
   22.1356   -6.7909  -19.2897 O   0  0  0  0  0  0  0  0  0  0  0  0
   22.8574   -6.0424  -17.2457 N   0  0  0  0  0  0  0  0  0  0  0  0
   22.7495   -7.3471  -16.6190 C   0  0  1  0  0  0  0  0  0  0  0  0
   24.0261   -8.0811  -16.5334 C   0  0  0  0  0  0  0  0  0  0  0  0
   24.0204   -9.3782  -15.8661 C   0  0  0  0  0  0  0  0  0  0  0  0
   23.0449  -10.1380  -15.2933 C   0  0  0  0  0  0  0  0  0  0  0  0
   23.5504  -11.2863  -14.8072 N   0  0  0  0  0  0  0  0  0  0  0  0
   24.8697  -11.2866  -15.0603 C   0  0  0  0  0  0  0  0  0  0  0  0
   25.8764  -12.2116  -14.7839 C   0  0  0  0  0  0  0  0  0  0  0  0
   27.1757  -11.9341  -15.1743 C   0  0  0  0  0  0  0  0  0  0  0  0
   27.5155  -10.7744  -15.8284 C   0  0  0  0  0  0  0  0  0  0  0  0
   26.4987   -9.8692  -16.0927 C   0  0  0  0  0  0  0  0  0  0  0  0
   25.1981  -10.1210  -15.7151 C   0  0  0  0  0  0  0  0  0  0  0  0
   22.0565   -7.1914  -15.3112 C   0  0  0  0  0  0  0  0  0  0  0  0
   22.4704   -6.2936  -14.4957 O   0  0  0  0  0  0  0  0  0  0  0  0
   20.9605   -7.9979  -14.9370 N   0  0  0  0  0  0  0  0  0  0  0  0
   20.3196   -7.7152  -13.6563 C   0  0  1  0  0  0  0  0  0  0  0  0
   19.6888   -6.3607  -13.6501 C   0  0  0  0  0  0  0  0  0  0  0  0
   18.8621   -6.2004  -12.4394 C   0  0  0  0  0  0  0  0  0  0  0  0
   19.3598   -6.4794  -11.1739 C   0  0  0  0  0  0  0  0  0  0  0  0
   18.3989   -6.2501  -10.2761 N   0  0  0  0  0  0  0  0  0  0  0  0
   17.3102   -5.8340  -10.9468 C   0  0  0  0  0  0  0  0  0  0  0  0
   17.5922   -5.8035  -12.2662 N   0  0  0  0  0  0  0  0  0  0  0  0
   19.2792   -8.7459  -13.4588 C   0  0  0  0  0  0  0  0  0  0  0  0
   18.8750   -8.9793  -12.2744 O   0  0  0  0  0  0  0  0  0  0  0  0
   18.7369   -9.4553  -14.5161 O   0  0  0  0  0  0  0  0  0  0  0  0
  2  1  1  0
  3  2  1  0
  4  3  1  0
  5  4  1  0
  5  6  1  6
  7  8  2  0
  7  5  1  0
  9  7  1  0
 10 11  1  1
 10  9  1  0
 12 11  1  0
 12 20  1  0
 13 14  1  0
 13 12  2  0
 14 15  1  0
 15 20  2  0
 15 16  1  0
 16 17  2  0
 17 18  1  0
 19 18  2  0
 20 19  1  0
 21 10  1  0
 21 22  2  0
 23 21  1  0
 24 23  1  0
 24 25  1  6
 25 26  1  0
 26 27  2  0
 26 30  1  0
 27 28  1  0
 28 29  1  0
 30 29  2  0
 31 24  1  0
 32 31  2  0
 33 31  1  0
M  END
$$$$
