MWH.pdb
     RDKit          3D

 33 35  0  0  1  0  0  0  0  0999 V2000
   39.2345  -29.8907  -20.7260 C   0  0  0  0  0  0  0  0  0  0  0  0
   39.8890  -29.1682  -19.2353 S   0  0  0  0  0  0  0  0  0  0  0  0
   38.7098  -28.7907  -17.9561 C   0  0  0  0  0  0  0  0  0  0  0  0
   37.3651  -28.3055  -18.4189 C   0  0  0  0  0  0  0  0  0  0  0  0
   36.6896  -27.4675  -17.3972 C   0  0  2  0  0  0  0  0  0  0  0  0
   36.4286  -28.3005  -16.2361 N   0  0  0  0  0  0  0  0  0  0  0  0
   35.4209  -26.8601  -17.9037 C   0  0  0  0  0  0  0  0  0  0  0  0
   34.3288  -27.4663  -17.8633 O   0  0  0  0  0  0  0  0  0  0  0  0
   35.4088  -25.5348  -18.4649 N   0  0  0  0  0  0  0  0  0  0  0  0
   34.2199  -24.9328  -19.0397 C   0  0  1  0  0  0  0  0  0  0  0  0
   34.2768  -23.4621  -19.1370 C   0  0  0  0  0  0  0  0  0  0  0  0
   33.1020  -22.7696  -19.6546 C   0  0  0  0  0  0  0  0  0  0  0  0
   31.7714  -22.8285  -19.3666 C   0  0  0  0  0  0  0  0  0  0  0  0
   31.0737  -21.9670  -20.1292 N   0  0  0  0  0  0  0  0  0  0  0  0
   31.9489  -21.3333  -20.9274 C   0  0  0  0  0  0  0  0  0  0  0  0
   31.7848  -20.3512  -21.9043 C   0  0  0  0  0  0  0  0  0  0  0  0
   32.8965  -19.8767  -22.5798 C   0  0  0  0  0  0  0  0  0  0  0  0
   34.1652  -20.3385  -22.3240 C   0  0  0  0  0  0  0  0  0  0  0  0
   34.3048  -21.3146  -21.3490 C   0  0  0  0  0  0  0  0  0  0  0  0
   33.2153  -21.8037  -20.6625 C   0  0  0  0  0  0  0  0  0  0  0  0
   33.9199  -25.6096  -20.3308 C   0  0  0  0  0  0  0  0  0  0  0  0
   34.8662  -25.7659  -21.1808 O   0  0  0  0  0  0  0  0  0  0  0  0
   32.6305  -26.0846  -20.6524 N   0  0  0  0  0  0  0  0  0  0  0  0
   32.4603  -26.7628  -21.9338 C   0  0  1  0  0  0  0  0  0  0  0  0
   31.6854  -28.0311  -21.7800 C   0  0  0  0  0  0  0  0  0  0  0  0
   32.5885  -29.1211  -21.3663 C   0  0  0  0  0  0  0  0  0  0  0  0
   33.9398  -28.9014  -21.1366 C   0  0  0  0  0  0  0  0  0  0  0  0
   34.5068  -30.0566  -20.7815 N   0  0  0  0  0  0  0  0  0  0  0  0
   33.5447  -30.9960  -20.7825 C   0  0  0  0  0  0  0  0  0  0  0  0
   32.3746  -30.4260  -21.1391 N   0  0  0  0  0  0  0  0  0  0  0  0
   31.7215  -25.8362  -22.8166 C   0  0  0  0  0  0  0  0  0  0  0  0
   30.8984  -25.0221  -22.2872 O   0  0  0  0  0  0  0  0  0  0  0  0
   31.9001  -25.8287  -24.1889 O   0  0  0  0  0  0  0  0  0  0  0  0
  2  1  1  0
  3  2  1  0
  4  3  1  0
  5  4  1  0
  5  6  1  1
  7  8  2  0
  7  5  1  0
  9  7  1  0
 10 11  1  6
 10  9  1  0
 12 11  1  0
 12 20  1  0
 13 14  1  0
 13 12  2  0
 14 15  1  0
 15 20  2  0
 15 16  1  0
 16 17  2  0
 17 18  1  0
 19 18  2  0
 20 19  1  0
 21 10  1  0
 21 22  2  0
 23 21  1  0
 24 23  1  0
 24 25  1  1
 25 26  1  0
 26 27  2  0
 26 30  1  0
 27 28  1  0
 28 29  1  0
 30 29  2  0
 31 24  1  0
 32 31  2  0
 33 31  1  0
M  END
$$$$
