MWH.pdb
     RDKit          3D

 33 35  0  0  1  0  0  0  0  0999 V2000
   31.2077  -18.9158  -15.9348 C   0  0  0  0  0  0  0  0  0  0  0  0
   29.7634  -17.8767  -15.8530 S   0  0  0  0  0  0  0  0  0  0  0  0
   28.2217  -18.6268  -16.3325 C   0  0  0  0  0  0  0  0  0  0  0  0
   27.4008  -19.2184  -15.2217 C   0  0  0  0  0  0  0  0  0  0  0  0
   28.0837  -20.3625  -14.5682 C   0  0  2  0  0  0  0  0  0  0  0  0
   28.2416  -21.4143  -15.5576 N   0  0  0  0  0  0  0  0  0  0  0  0
   27.3363  -20.8699  -13.3770 C   0  0  0  0  0  0  0  0  0  0  0  0
   26.2972  -21.5559  -13.4842 O   0  0  0  0  0  0  0  0  0  0  0  0
   27.7920  -20.5840  -12.0420 N   0  0  0  0  0  0  0  0  0  0  0  0
   27.0274  -20.9279  -10.8573 C   0  0  1  0  0  0  0  0  0  0  0  0
   27.8028  -20.8734   -9.6037 C   0  0  0  0  0  0  0  0  0  0  0  0
   27.0619  -20.8355   -8.3478 C   0  0  0  0  0  0  0  0  0  0  0  0
   25.7981  -21.1974   -7.9889 C   0  0  0  0  0  0  0  0  0  0  0  0
   25.5837  -20.9690   -6.6804 N   0  0  0  0  0  0  0  0  0  0  0  0
   26.7137  -20.4525   -6.1695 C   0  0  0  0  0  0  0  0  0  0  0  0
   27.0547  -20.0340   -4.8834 C   0  0  0  0  0  0  0  0  0  0  0  0
   28.3241  -19.5328   -4.6494 C   0  0  0  0  0  0  0  0  0  0  0  0
   29.2690  -19.4305   -5.6419 C   0  0  0  0  0  0  0  0  0  0  0  0
   28.9082  -19.8524   -6.9127 C   0  0  0  0  0  0  0  0  0  0  0  0
   27.6521  -20.3548   -7.1721 C   0  0  0  0  0  0  0  0  0  0  0  0
   25.7884  -20.1038  -10.8342 C   0  0  0  0  0  0  0  0  0  0  0  0
   25.8817  -18.8421  -11.0389 O   0  0  0  0  0  0  0  0  0  0  0  0
   24.5148  -20.6623  -10.5941 N   0  0  0  0  0  0  0  0  0  0  0  0
   23.4025  -20.1840  -11.4096 C   0  0  1  0  0  0  0  0  0  0  0  0
   23.6378  -20.4494  -12.8611 C   0  0  0  0  0  0  0  0  0  0  0  0
   22.5240  -19.8996  -13.6562 C   0  0  0  0  0  0  0  0  0  0  0  0
   21.4608  -19.2350  -13.0605 C   0  0  0  0  0  0  0  0  0  0  0  0
   20.6071  -18.8531  -14.0132 N   0  0  0  0  0  0  0  0  0  0  0  0
   21.1083  -19.2617  -15.1922 C   0  0  0  0  0  0  0  0  0  0  0  0
   22.2773  -19.9000  -14.9750 N   0  0  0  0  0  0  0  0  0  0  0  0
   22.1968  -20.9124  -10.9630 C   0  0  0  0  0  0  0  0  0  0  0  0
   22.1441  -22.1701  -11.1527 O   0  0  0  0  0  0  0  0  0  0  0  0
   21.1354  -20.2708  -10.3490 O   0  0  0  0  0  0  0  0  0  0  0  0
  2  1  1  0
  3  2  1  0
  4  3  1  0
  5  4  1  0
  5  6  1  6
  7  8  2  0
  7  5  1  0
  9  7  1  0
 10 11  1  1
 10  9  1  0
 12 11  1  0
 12 20  1  0
 13 14  1  0
 13 12  2  0
 14 15  1  0
 15 20  2  0
 15 16  1  0
 16 17  2  0
 17 18  1  0
 19 18  2  0
 20 19  1  0
 21 10  1  0
 21 22  2  0
 23 21  1  0
 24 23  1  0
 24 25  1  6
 25 26  1  0
 26 27  2  0
 26 30  1  0
 27 28  1  0
 28 29  1  0
 30 29  2  0
 31 24  1  0
 32 31  2  0
 33 31  1  0
M  END
$$$$
