HQL.pdb
     RDKit          3D

 28 28  0  0  1  0  0  0  0  0999 V2000
   19.4177  -15.9590  -17.9742 N   0  0  0  0  0  0  0  0  0  0  0  0
   19.4539  -15.2041  -16.7106 C   0  0  1  0  0  0  0  0  0  0  0  0
   20.5097  -15.9038  -15.8600 C   0  0  0  0  0  0  0  0  0  0  0  0
   19.9802  -17.1789  -15.3134 C   0  0  0  0  0  0  0  0  0  0  0  0
   20.4520  -18.4465  -15.6274 C   0  0  0  0  0  0  0  0  0  0  0  0
   19.7212  -19.3649  -14.9387 N   0  0  0  0  0  0  0  0  0  0  0  0
   18.8284  -18.6477  -14.2259 C   0  0  0  0  0  0  0  0  0  0  0  0
   18.9858  -17.3483  -14.4513 N   0  0  0  0  0  0  0  0  0  0  0  0
   19.9545  -13.8405  -17.0601 C   0  0  0  0  0  0  0  0  0  0  0  0
   20.8860  -13.6583  -17.9026 O   0  0  0  0  0  0  0  0  0  0  0  0
   16.4692   -9.2157  -18.1786 N   0  0  0  0  0  0  0  0  0  0  0  0
   17.6953   -8.5257  -18.3254 C   0  0  0  0  0  0  0  0  0  0  0  0
   17.7227   -7.3882  -18.8296 O   0  0  0  0  0  0  0  0  0  0  0  0
   18.9738   -9.1600  -17.8748 C   0  0  0  0  0  0  0  0  0  0  0  0
   18.6587  -10.5373  -17.3766 C   0  0  0  0  0  0  0  0  0  0  0  0
   19.8322  -11.3266  -16.8956 C   0  0  2  0  0  0  0  0  0  0  0  0
   19.4231  -12.6613  -16.4755 N   0  0  0  0  0  0  0  0  0  0  0  0
   20.5454  -10.6175  -15.7992 C   0  0  0  0  0  0  0  0  0  0  0  0
   20.0843  -10.6079  -14.6332 O   0  0  0  0  0  0  0  0  0  0  0  0
   26.0579  -10.5120  -15.7456 C   0  0  0  0  0  0  0  0  0  0  0  0
   24.5845  -10.5334  -15.4863 C   0  0  1  0  0  0  0  0  0  0  0  0
   24.4277  -11.3575  -14.1812 C   0  0  0  0  0  0  0  0  0  0  0  0
   23.9741   -9.2017  -15.2580 C   0  0  0  0  0  0  0  0  0  0  0  0
   22.5099   -9.1694  -15.0445 C   0  0  2  0  0  0  0  0  0  0  0  0
   21.7682   -9.9252  -16.0128 N   0  0  0  0  0  0  0  0  0  0  0  0
   21.9619   -7.8318  -14.7440 C   0  0  0  0  0  0  0  0  0  0  0  0
   21.9661   -7.2573  -13.4869 O   0  0  0  0  0  0  0  0  0  0  0  0
   21.4537   -7.1492  -15.6594 O   0  0  0  0  0  0  0  0  0  0  0  0
  2  9  1  0
  2  1  1  6
  3  2  1  0
  4  3  1  0
  4  5  2  0
  6  5  1  0
  7  6  1  0
  8  7  2  0
  8  4  1  0
  9 10  2  0
 12 11  1  0
 12 14  1  0
 13 12  2  0
 16 15  1  1
 15 14  1  0
 17 16  1  0
 17  9  1  0
 18 16  1  0
 19 18  2  0
 21 20  1  1
 21 22  1  0
 23 21  1  0
 24 25  1  0
 24 23  1  6
 25 18  1  0
 26 24  1  0
 27 26  1  0
 28 26  2  0
M  END
$$$$
