HQL.pdb
     RDKit          3D

 28 28  0  0  1  0  0  0  0  0999 V2000
   18.9307  -13.3366  -18.3797 N   0  0  0  0  0  0  0  0  0  0  0  0
   19.7871  -12.7045  -17.3624 C   0  0  1  0  0  0  0  0  0  0  0  0
   21.1825  -12.6776  -17.9788 C   0  0  0  0  0  0  0  0  0  0  0  0
   21.7879  -14.0334  -17.9623 C   0  0  0  0  0  0  0  0  0  0  0  0
   21.2270  -15.1578  -17.3714 C   0  0  0  0  0  0  0  0  0  0  0  0
   22.0688  -16.2110  -17.5557 N   0  0  0  0  0  0  0  0  0  0  0  0
   23.1145  -15.7142  -18.2479 C   0  0  0  0  0  0  0  0  0  0  0  0
   22.9436  -14.4190  -18.4879 N   0  0  0  0  0  0  0  0  0  0  0  0
   19.3001  -11.2982  -17.2307 C   0  0  0  0  0  0  0  0  0  0  0  0
   18.9570  -10.6052  -18.2370 O   0  0  0  0  0  0  0  0  0  0  0  0
   14.0650   -9.7610  -14.6598 N   0  0  0  0  0  0  0  0  0  0  0  0
   15.3780  -10.2433  -14.4499 C   0  0  0  0  0  0  0  0  0  0  0  0
   15.6964  -10.7526  -13.3600 O   0  0  0  0  0  0  0  0  0  0  0  0
   16.3986  -10.1445  -15.5402 C   0  0  0  0  0  0  0  0  0  0  0  0
   17.4577   -9.1811  -15.0992 C   0  0  0  0  0  0  0  0  0  0  0  0
   18.7470   -9.2617  -15.8492 C   0  0  2  0  0  0  0  0  0  0  0  0
   19.1885  -10.6453  -15.9753 N   0  0  0  0  0  0  0  0  0  0  0  0
   19.7961   -8.4234  -15.2087 C   0  0  0  0  0  0  0  0  0  0  0  0
   20.4205   -8.8335  -14.2016 O   0  0  0  0  0  0  0  0  0  0  0  0
   23.7500   -4.5028  -15.4447 C   0  0  0  0  0  0  0  0  0  0  0  0
   22.3249   -4.0474  -15.4221 C   0  0  1  0  0  0  0  0  0  0  0  0
   22.2964   -2.8014  -16.3460 C   0  0  0  0  0  0  0  0  0  0  0  0
   21.3500   -5.0293  -15.9545 C   0  0  0  0  0  0  0  0  0  0  0  0
   21.0602   -6.2060  -15.1049 C   0  0  2  0  0  0  0  0  0  0  0  0
   20.1405   -7.1341  -15.6979 N   0  0  0  0  0  0  0  0  0  0  0  0
   20.8009   -5.8907  -13.6860 C   0  0  0  0  0  0  0  0  0  0  0  0
   19.5389   -5.7243  -13.1474 O   0  0  0  0  0  0  0  0  0  0  0  0
   21.7590   -5.7577  -12.8945 O   0  0  0  0  0  0  0  0  0  0  0  0
  2  9  1  0
  2  1  1  6
  3  2  1  0
  4  3  1  0
  4  5  2  0
  6  5  1  0
  7  6  1  0
  8  7  2  0
  8  4  1  0
  9 10  2  0
 12 11  1  0
 12 14  1  0
 13 12  2  0
 16 15  1  1
 15 14  1  0
 17 16  1  0
 17  9  1  0
 18 16  1  0
 19 18  2  0
 21 20  1  6
 21 22  1  0
 23 21  1  0
 24 25  1  0
 24 23  1  6
 25 18  1  0
 26 24  1  0
 27 26  1  0
 28 26  2  0
M  END
$$$$
