HQL.pdb
     RDKit          3D

 28 28  0  0  1  0  0  0  0  0999 V2000
   19.3027  -12.2555  -18.0318 N   0  0  0  0  0  0  0  0  0  0  0  0
   20.5013  -11.5392  -17.5646 C   0  0  1  0  0  0  0  0  0  0  0  0
   21.3142  -11.2607  -18.8252 C   0  0  0  0  0  0  0  0  0  0  0  0
   21.9039  -12.5162  -19.3554 C   0  0  0  0  0  0  0  0  0  0  0  0
   22.9760  -13.1999  -18.7976 C   0  0  0  0  0  0  0  0  0  0  0  0
   23.2342  -14.2981  -19.5586 N   0  0  0  0  0  0  0  0  0  0  0  0
   22.3247  -14.2633  -20.5542 C   0  0  0  0  0  0  0  0  0  0  0  0
   21.5354  -13.2024  -20.4297 N   0  0  0  0  0  0  0  0  0  0  0  0
   20.0150  -10.2369  -17.0170 C   0  0  0  0  0  0  0  0  0  0  0  0
   19.4462   -9.3677  -17.7461 O   0  0  0  0  0  0  0  0  0  0  0  0
   17.3863   -9.1011  -11.5953 N   0  0  0  0  0  0  0  0  0  0  0  0
   16.8614   -9.7795  -12.7200 C   0  0  0  0  0  0  0  0  0  0  0  0
   15.8244  -10.4602  -12.6189 O   0  0  0  0  0  0  0  0  0  0  0  0
   17.5509   -9.6844  -14.0449 C   0  0  0  0  0  0  0  0  0  0  0  0
   18.8305   -8.9301  -13.8497 C   0  0  0  0  0  0  0  0  0  0  0  0
   19.6059   -8.6542  -15.0963 C   0  0  2  0  0  0  0  0  0  0  0  0
   20.1559   -9.8860  -15.6489 N   0  0  0  0  0  0  0  0  0  0  0  0
   20.6793   -7.6531  -14.8524 C   0  0  0  0  0  0  0  0  0  0  0  0
   21.6959   -7.9512  -14.1817 O   0  0  0  0  0  0  0  0  0  0  0  0
   23.7931   -3.3936  -16.5054 C   0  0  0  0  0  0  0  0  0  0  0  0
   22.4359   -3.0622  -15.9698 C   0  0  1  0  0  0  0  0  0  0  0  0
   21.9509   -1.8721  -16.8390 C   0  0  0  0  0  0  0  0  0  0  0  0
   21.4365   -4.1503  -16.0923 C   0  0  0  0  0  0  0  0  0  0  0  0
   21.5466   -5.2659  -15.1260 C   0  0  2  0  0  0  0  0  0  0  0  0
   20.6097   -6.3273  -15.3600 N   0  0  0  0  0  0  0  0  0  0  0  0
   21.6760   -4.8473  -13.7161 C   0  0  0  0  0  0  0  0  0  0  0  0
   22.8841   -4.6610  -13.0709 O   0  0  0  0  0  0  0  0  0  0  0  0
   20.6498   -4.6411  -13.0330 O   0  0  0  0  0  0  0  0  0  0  0  0
  2  9  1  0
  2  1  1  6
  3  2  1  0
  4  3  1  0
  4  5  2  0
  6  5  1  0
  7  6  1  0
  8  7  2  0
  8  4  1  0
  9 10  2  0
 12 11  1  0
 12 14  1  0
 13 12  2  0
 16 15  1  1
 15 14  1  0
 17 16  1  0
 17  9  1  0
 18 16  1  0
 19 18  2  0
 21 20  1  6
 21 22  1  0
 23 21  1  0
 24 25  1  0
 24 23  1  6
 25 18  1  0
 26 24  1  0
 27 26  1  0
 28 26  2  0
M  END
$$$$
