HQL.pdb
     RDKit          3D

 28 28  0  0  1  0  0  0  0  0999 V2000
   24.2227  -33.1702   -9.9076 N   0  0  0  0  0  0  0  0  0  0  0  0
   24.3358  -32.3091   -8.7186 C   0  0  1  0  0  0  0  0  0  0  0  0
   22.8985  -31.9719   -8.3340 C   0  0  0  0  0  0  0  0  0  0  0  0
   22.3467  -30.9291   -9.2358 C   0  0  0  0  0  0  0  0  0  0  0  0
   23.0463  -30.2919  -10.2519 C   0  0  0  0  0  0  0  0  0  0  0  0
   22.2162  -29.3994  -10.8573 N   0  0  0  0  0  0  0  0  0  0  0  0
   21.0399  -29.5088  -10.2062 C   0  0  0  0  0  0  0  0  0  0  0  0
   21.1215  -30.4196   -9.2429 N   0  0  0  0  0  0  0  0  0  0  0  0
   24.9251  -33.1652   -7.6452 C   0  0  0  0  0  0  0  0  0  0  0  0
   24.5669  -34.3699   -7.4692 O   0  0  0  0  0  0  0  0  0  0  0  0
   30.0564  -34.8136   -5.4567 N   0  0  0  0  0  0  0  0  0  0  0  0
   29.0151  -34.9362   -4.5074 C   0  0  0  0  0  0  0  0  0  0  0  0
   28.6683  -36.0572   -4.0925 O   0  0  0  0  0  0  0  0  0  0  0  0
   28.3192  -33.7153   -3.9926 C   0  0  0  0  0  0  0  0  0  0  0  0
   27.7364  -32.9844   -5.1633 C   0  0  0  0  0  0  0  0  0  0  0  0
   26.4060  -33.4798   -5.6278 C   0  0  2  0  0  0  0  0  0  0  0  0
   25.9221  -32.6900   -6.7536 N   0  0  0  0  0  0  0  0  0  0  0  0
   25.4162  -33.4873   -4.5170 C   0  0  0  0  0  0  0  0  0  0  0  0
   25.0580  -32.4184   -3.9680 O   0  0  0  0  0  0  0  0  0  0  0  0
   20.9425  -36.6326   -4.3529 C   0  0  0  0  0  0  0  0  0  0  0  0
   22.0146  -35.6007   -4.1964 C   0  0  1  0  0  0  0  0  0  0  0  0
   21.2488  -34.2680   -3.9860 C   0  0  0  0  0  0  0  0  0  0  0  0
   22.9050  -35.8016   -3.0282 C   0  0  0  0  0  0  0  0  0  0  0  0
   24.0113  -34.8327   -2.8612 C   0  0  2  0  0  0  0  0  0  0  0  0
   24.8334  -34.6880   -4.0283 N   0  0  0  0  0  0  0  0  0  0  0  0
   24.7500  -34.9566   -1.5889 C   0  0  0  0  0  0  0  0  0  0  0  0
   24.2460  -34.5746   -0.3599 O   0  0  0  0  0  0  0  0  0  0  0  0
   25.9063  -35.4310   -1.5861 O   0  0  0  0  0  0  0  0  0  0  0  0
  2  9  1  0
  2  1  1  6
  3  2  1  0
  4  3  1  0
  4  5  2  0
  6  5  1  0
  7  6  1  0
  8  7  2  0
  8  4  1  0
  9 10  2  0
 12 11  1  0
 12 14  1  0
 13 12  2  0
 16 15  1  1
 15 14  1  0
 17 16  1  0
 17  9  1  0
 18 16  1  0
 19 18  2  0
 21 20  1  1
 21 22  1  0
 23 21  1  0
 24 25  1  0
 24 23  1  6
 25 18  1  0
 26 24  1  0
 27 26  1  0
 28 26  2  0
M  END
$$$$
