HQL.pdb
     RDKit          3D

 28 28  0  0  1  0  0  0  0  0999 V2000
   25.0299  -18.4377  -16.7232 N   0  0  0  0  0  0  0  0  0  0  0  0
   25.8453  -18.0696  -15.5537 C   0  0  1  0  0  0  0  0  0  0  0  0
   25.7799  -16.5468  -15.4873 C   0  0  0  0  0  0  0  0  0  0  0  0
   26.7725  -15.9400  -16.4101 C   0  0  0  0  0  0  0  0  0  0  0  0
   27.7047  -16.6412  -17.1633 C   0  0  0  0  0  0  0  0  0  0  0  0
   28.4411  -15.7506  -17.8820 N   0  0  0  0  0  0  0  0  0  0  0  0
   27.9490  -14.5374  -17.5570 C   0  0  0  0  0  0  0  0  0  0  0  0
   26.9569  -14.6543  -16.6817 N   0  0  0  0  0  0  0  0  0  0  0  0
   25.1334  -18.6267  -14.3641 C   0  0  0  0  0  0  0  0  0  0  0  0
   23.8685  -18.6073  -14.2636 O   0  0  0  0  0  0  0  0  0  0  0  0
   22.8363  -23.1212  -13.5198 N   0  0  0  0  0  0  0  0  0  0  0  0
   24.2345  -23.3312  -13.5621 C   0  0  0  0  0  0  0  0  0  0  0  0
   24.6983  -24.4104  -13.9732 O   0  0  0  0  0  0  0  0  0  0  0  0
   25.1706  -22.2541  -13.1109 C   0  0  0  0  0  0  0  0  0  0  0  0
   24.3521  -21.0657  -12.7084 C   0  0  0  0  0  0  0  0  0  0  0  0
   25.1296  -19.9013  -12.1876 C   0  0  2  0  0  0  0  0  0  0  0  0
   25.8222  -19.2135  -13.2704 N   0  0  0  0  0  0  0  0  0  0  0  0
   26.0838  -20.3220  -11.1265 C   0  0  0  0  0  0  0  0  0  0  0  0
   27.1659  -20.8830  -11.4208 O   0  0  0  0  0  0  0  0  0  0  0  0
   27.3192  -19.3205   -5.5174 C   0  0  0  0  0  0  0  0  0  0  0  0
   26.8755  -19.2190   -6.9426 C   0  0  1  0  0  0  0  0  0  0  0  0
   27.5752  -17.9435   -7.4815 C   0  0  0  0  0  0  0  0  0  0  0  0
   27.2810  -20.3566   -7.8026 C   0  0  0  0  0  0  0  0  0  0  0  0
   26.2289  -20.9533   -8.6554 C   0  0  2  0  0  0  0  0  0  0  0  0
   25.8229  -20.1126   -9.7451 N   0  0  0  0  0  0  0  0  0  0  0  0
   25.1230  -21.5896   -7.9125 C   0  0  0  0  0  0  0  0  0  0  0  0
   25.2989  -22.5443   -6.9285 O   0  0  0  0  0  0  0  0  0  0  0  0
   23.9412  -21.2700   -8.1642 O   0  0  0  0  0  0  0  0  0  0  0  0
  2  9  1  0
  2  1  1  6
  3  2  1  0
  4  3  1  0
  4  5  2  0
  6  5  1  0
  7  6  1  0
  8  7  2  0
  8  4  1  0
  9 10  2  0
 12 11  1  0
 12 14  1  0
 13 12  2  0
 16 15  1  6
 15 14  1  0
 17 16  1  0
 17  9  1  0
 18 16  1  0
 19 18  2  0
 21 20  1  1
 21 22  1  0
 23 21  1  0
 24 25  1  0
 24 23  1  1
 25 18  1  0
 26 24  1  0
 27 26  1  0
 28 26  2  0
M  END
$$$$
