HQL.pdb
     RDKit          3D

 28 28  0  0  1  0  0  0  0  0999 V2000
   20.2432  -31.1683  -10.8176 N   0  0  0  0  0  0  0  0  0  0  0  0
   21.5186  -30.4990  -10.5117 C   0  0  1  0  0  0  0  0  0  0  0  0
   21.1500  -29.3487   -9.5797 C   0  0  0  0  0  0  0  0  0  0  0  0
   20.5476  -28.2278  -10.3451 C   0  0  0  0  0  0  0  0  0  0  0  0
   19.1898  -27.9502  -10.4308 C   0  0  0  0  0  0  0  0  0  0  0  0
   19.0194  -26.8545  -11.2197 N   0  0  0  0  0  0  0  0  0  0  0  0
   20.2625  -26.4892  -11.5951 C   0  0  0  0  0  0  0  0  0  0  0  0
   21.1684  -27.3081  -11.0728 N   0  0  0  0  0  0  0  0  0  0  0  0
   22.3295  -31.4906   -9.7428 C   0  0  0  0  0  0  0  0  0  0  0  0
   21.7951  -32.3651   -8.9943 O   0  0  0  0  0  0  0  0  0  0  0  0
   26.8785  -33.8875  -10.9808 N   0  0  0  0  0  0  0  0  0  0  0  0
   27.3350  -34.1105   -9.6608 C   0  0  0  0  0  0  0  0  0  0  0  0
   28.0863  -35.0696   -9.4065 O   0  0  0  0  0  0  0  0  0  0  0  0
   26.9167  -33.1924   -8.5552 C   0  0  0  0  0  0  0  0  0  0  0  0
   25.9956  -32.1610   -9.1314 C   0  0  0  0  0  0  0  0  0  0  0  0
   24.5398  -32.4834   -9.0421 C   0  0  2  0  0  0  0  0  0  0  0  0
   23.7476  -31.5211   -9.7981 N   0  0  0  0  0  0  0  0  0  0  0  0
   24.0887  -32.5500   -7.6259 C   0  0  0  0  0  0  0  0  0  0  0  0
   23.4620  -31.5967   -7.1054 O   0  0  0  0  0  0  0  0  0  0  0  0
   21.7588  -35.4795   -3.6979 C   0  0  0  0  0  0  0  0  0  0  0  0
   21.6890  -34.0447   -4.1161 C   0  0  1  0  0  0  0  0  0  0  0  0
   22.4691  -33.2770   -3.0165 C   0  0  0  0  0  0  0  0  0  0  0  0
   22.3293  -33.7451   -5.4194 C   0  0  0  0  0  0  0  0  0  0  0  0
   23.7950  -33.9342   -5.4990 C   0  0  2  0  0  0  0  0  0  0  0  0
   24.3401  -33.6805   -6.8018 N   0  0  0  0  0  0  0  0  0  0  0  0
   24.2934  -35.1586   -4.8416 C   0  0  0  0  0  0  0  0  0  0  0  0
   24.5434  -35.2634   -3.4862 O   0  0  0  0  0  0  0  0  0  0  0  0
   24.5153  -36.1827   -5.5229 O   0  0  0  0  0  0  0  0  0  0  0  0
  2  9  1  0
  2  1  1  1
  3  2  1  0
  4  3  1  0
  4  5  2  0
  6  5  1  0
  7  6  1  0
  8  7  2  0
  8  4  1  0
  9 10  2  0
 12 11  1  0
 12 14  1  0
 13 12  2  0
 16 15  1  1
 15 14  1  0
 17 16  1  0
 17  9  1  0
 18 16  1  0
 19 18  2  0
 21 20  1  1
 21 22  1  0
 23 21  1  0
 24 25  1  0
 24 23  1  6
 25 18  1  0
 26 24  1  0
 27 26  1  0
 28 26  2  0
M  END
$$$$
