HQL.pdb
     RDKit          3D

 28 28  0  0  1  0  0  0  0  0999 V2000
   26.2029  -22.8884  -17.9508 N   0  0  0  0  0  0  0  0  0  0  0  0
   25.3112  -22.7940  -16.7829 C   0  0  1  0  0  0  0  0  0  0  0  0
   24.9324  -24.2350  -16.4548 C   0  0  0  0  0  0  0  0  0  0  0  0
   23.8554  -24.7116  -17.3592 C   0  0  0  0  0  0  0  0  0  0  0  0
   22.9506  -23.9000  -18.0304 C   0  0  0  0  0  0  0  0  0  0  0  0
   22.1149  -24.6901  -18.7579 N   0  0  0  0  0  0  0  0  0  0  0  0
   22.5220  -25.9538  -18.5191 C   0  0  0  0  0  0  0  0  0  0  0  0
   23.5573  -25.9623  -17.6872 N   0  0  0  0  0  0  0  0  0  0  0  0
   26.1491  -22.2587  -15.6677 C   0  0  0  0  0  0  0  0  0  0  0  0
   27.3412  -22.6475  -15.4717 O   0  0  0  0  0  0  0  0  0  0  0  0
   27.7674  -17.5516  -15.7362 N   0  0  0  0  0  0  0  0  0  0  0  0
   26.4191  -17.4318  -15.3260 C   0  0  0  0  0  0  0  0  0  0  0  0
   25.7101  -16.5020  -15.7523 O   0  0  0  0  0  0  0  0  0  0  0  0
   25.8320  -18.4249  -14.3726 C   0  0  0  0  0  0  0  0  0  0  0  0
   26.9214  -19.3617  -13.9482 C   0  0  0  0  0  0  0  0  0  0  0  0
   26.4855  -20.7622  -13.6655 C   0  0  2  0  0  0  0  0  0  0  0  0
   25.6696  -21.2821  -14.7560 N   0  0  0  0  0  0  0  0  0  0  0  0
   25.7609  -20.8494  -12.3689 C   0  0  0  0  0  0  0  0  0  0  0  0
   24.5322  -20.6085  -12.3018 O   0  0  0  0  0  0  0  0  0  0  0  0
   26.3211  -20.8483   -6.6988 C   0  0  0  0  0  0  0  0  0  0  0  0
   26.5889  -19.7392   -7.6667 C   0  0  1  0  0  0  0  0  0  0  0  0
   27.7724  -18.9524   -7.0444 C   0  0  0  0  0  0  0  0  0  0  0  0
   27.0001  -20.1815   -9.0207 C   0  0  0  0  0  0  0  0  0  0  0  0
   25.9828  -20.8953   -9.8244 C   0  0  2  0  0  0  0  0  0  0  0  0
   26.4135  -21.2056  -11.1575 N   0  0  0  0  0  0  0  0  0  0  0  0
   24.6186  -20.3399   -9.7227 C   0  0  0  0  0  0  0  0  0  0  0  0
   23.5783  -20.9578   -9.0544 O   0  0  0  0  0  0  0  0  0  0  0  0
   24.3520  -19.2453  -10.2640 O   0  0  0  0  0  0  0  0  0  0  0  0
  2  9  1  0
  2  1  1  6
  3  2  1  0
  4  3  1  0
  4  5  2  0
  6  5  1  0
  7  6  1  0
  8  7  2  0
  8  4  1  0
  9 10  2  0
 12 11  1  0
 12 14  1  0
 13 12  2  0
 16 15  1  6
 15 14  1  0
 17 16  1  0
 17  9  1  0
 18 16  1  0
 19 18  2  0
 21 20  1  1
 21 22  1  0
 23 21  1  0
 24 25  1  0
 24 23  1  6
 25 18  1  0
 26 24  1  0
 27 26  1  0
 28 26  2  0
M  END
$$$$
