VRW.pdb
     RDKit          3D

 33 34  0  0  1  0  0  0  0  0999 V2000
   25.8182  -27.0254  -18.2821 C   0  0  0  0  0  0  0  0  0  0  0  0
   26.5404  -26.9210  -16.9396 C   0  0  2  0  0  0  0  0  0  0  0  0
   25.7127  -26.2166  -15.9128 C   0  0  0  0  0  0  0  0  0  0  0  0
   27.8775  -26.3045  -17.2081 C   0  0  2  0  0  0  0  0  0  0  0  0
   27.6473  -24.9128  -17.5611 N   0  0  0  0  0  0  0  0  0  0  0  0
   28.6841  -27.0110  -18.2252 C   0  0  0  0  0  0  0  0  0  0  0  0
   28.6092  -26.6478  -19.4256 O   0  0  0  0  0  0  0  0  0  0  0  0
   35.9725  -29.5354  -16.2861 N   0  0  0  0  0  0  0  0  0  0  0  0
   35.1442  -30.5651  -16.8436 C   0  0  0  0  0  0  0  0  0  0  0  0
   35.2426  -31.7853  -16.4468 N   0  0  0  0  0  0  0  0  0  0  0  0
   34.1763  -30.2830  -17.8567 N   0  0  0  0  0  0  0  0  0  0  0  0
   33.9762  -28.9873  -18.4214 C   0  0  0  0  0  0  0  0  0  0  0  0
   32.6201  -28.3758  -18.0772 C   0  0  0  0  0  0  0  0  0  0  0  0
   31.5907  -29.4184  -18.3959 C   0  0  0  0  0  0  0  0  0  0  0  0
   30.2899  -28.8501  -18.9209 C   0  0  2  0  0  0  0  0  0  0  0  0
   29.5534  -28.0924  -17.9337 N   0  0  0  0  0  0  0  0  0  0  0  0
   29.4430  -29.9740  -19.3594 C   0  0  0  0  0  0  0  0  0  0  0  0
   28.7881  -30.6153  -18.5152 O   0  0  0  0  0  0  0  0  0  0  0  0
   34.6714  -32.5140  -16.9256 N   0  0  0  0  0  0  0  0  0  0  0  0
   29.3856  -30.3096  -20.7318 C   0  0  1  0  0  0  0  0  0  0  0  0
   28.3663  -31.2145  -21.2930 C   0  0  0  0  0  0  0  0  0  0  0  0
   27.0059  -30.8166  -20.8211 C   0  0  0  0  0  0  0  0  0  0  0  0
   25.9618  -31.7060  -21.3607 C   0  0  0  0  0  0  0  0  0  0  0  0
   26.1886  -33.0688  -21.5579 N   0  0  0  0  0  0  0  0  0  0  0  0
   25.0579  -33.6379  -22.0040 C   0  0  0  0  0  0  0  0  0  0  0  0
   24.1282  -32.6763  -22.0943 C   0  0  0  0  0  0  0  0  0  0  0  0
   22.8144  -32.6820  -22.4968 C   0  0  0  0  0  0  0  0  0  0  0  0
   22.0283  -31.5525  -22.5244 C   0  0  0  0  0  0  0  0  0  0  0  0
   22.5889  -30.3551  -22.1283 C   0  0  0  0  0  0  0  0  0  0  0  0
   23.8994  -30.3104  -21.7192 C   0  0  0  0  0  0  0  0  0  0  0  0
   24.6695  -31.4534  -21.6972 C   0  0  0  0  0  0  0  0  0  0  0  0
   28.4868  -31.2775  -22.7349 O   0  0  0  0  0  0  0  0  0  0  0  0
   29.0379  -30.3520  -23.4283 O   0  0  0  0  0  0  0  0  0  0  0  0
  2  1  1  6
  2  3  1  0
  4  2  1  0
  4  5  1  6
  6  7  2  0
  6  4  1  0
  9 10  2  0
  9  8  1  0
 11  9  1  0
 12 11  1  0
 13 12  1  0
 13 14  1  0
 15 14  1  1
 15 16  1  0
 16  6  1  0
 17 19  1  0
 17 15  1  0
 18 17  2  0
 20 19  1  0
 20 21  1  6
 21 22  1  0
 22 30  1  0
 23 22  2  0
 23 24  1  0
 24 25  1  0
 25 26  1  0
 26 27  2  0
 28 27  1  0
 29 28  2  0
 30 25  2  0
 30 29  1  0
 31 20  1  0
 32 31  2  0
 33 31  1  0
M  END
$$$$
