VRW.pdb
     RDKit          3D

 33 34  0  0  1  0  0  0  0  0999 V2000
   26.2945  -20.6674  -16.5457 C   0  0  0  0  0  0  0  0  0  0  0  0
   27.7643  -20.5442  -16.1467 C   0  0  2  0  0  0  0  0  0  0  0  0
   28.6689  -21.2148  -17.1305 C   0  0  0  0  0  0  0  0  0  0  0  0
   27.8794  -21.0397  -14.7391 C   0  0  2  0  0  0  0  0  0  0  0  0
   27.6633  -22.4774  -14.7695 N   0  0  0  0  0  0  0  0  0  0  0  0
   26.9855  -20.3624  -13.7768 C   0  0  0  0  0  0  0  0  0  0  0  0
   27.0652  -19.1159  -13.6408 O   0  0  0  0  0  0  0  0  0  0  0  0
   21.8982  -20.6358  -16.4234 N   0  0  0  0  0  0  0  0  0  0  0  0
   21.5125  -21.5162  -15.3588 C   0  0  0  0  0  0  0  0  0  0  0  0
   21.2614  -22.7586  -15.5813 N   0  0  0  0  0  0  0  0  0  0  0  0
   21.3933  -21.0562  -14.0109 N   0  0  0  0  0  0  0  0  0  0  0  0
   21.7118  -19.7277  -13.5967 C   0  0  0  0  0  0  0  0  0  0  0  0
   23.2077  -19.4935  -13.3996 C   0  0  0  0  0  0  0  0  0  0  0  0
   23.6724  -20.5223  -12.4128 C   0  0  0  0  0  0  0  0  0  0  0  0
   25.1337  -20.3933  -12.0404 C   0  0  2  0  0  0  0  0  0  0  0  0
   26.0255  -21.0359  -12.9801 N   0  0  0  0  0  0  0  0  0  0  0  0
   25.3276  -21.0236  -10.7221 C   0  0  0  0  0  0  0  0  0  0  0  0
   25.5270  -22.2516  -10.6519 O   0  0  0  0  0  0  0  0  0  0  0  0
   21.0689  -23.3826  -14.7690 N   0  0  0  0  0  0  0  0  0  0  0  0
   25.2845  -20.2263   -9.5552 C   0  0  1  0  0  0  0  0  0  0  0  0
   25.3167  -20.7945   -8.1954 C   0  0  0  0  0  0  0  0  0  0  0  0
   25.7685  -19.7622   -7.2145 C   0  0  0  0  0  0  0  0  0  0  0  0
   27.2313  -19.7855   -7.0360 C   0  0  0  0  0  0  0  0  0  0  0  0
   28.1042  -19.5495   -8.0989 N   0  0  0  0  0  0  0  0  0  0  0  0
   29.3654  -19.5789   -7.6409 C   0  0  0  0  0  0  0  0  0  0  0  0
   29.3130  -19.8268   -6.3244 C   0  0  0  0  0  0  0  0  0  0  0  0
   30.2829  -19.9737   -5.3622 C   0  0  0  0  0  0  0  0  0  0  0  0
   30.0020  -20.2442   -4.0422 C   0  0  0  0  0  0  0  0  0  0  0  0
   28.6799  -20.3748   -3.6678 C   0  0  0  0  0  0  0  0  0  0  0  0
   27.6828  -20.2343   -4.6019 C   0  0  0  0  0  0  0  0  0  0  0  0
   27.9850  -19.9616   -5.9189 C   0  0  0  0  0  0  0  0  0  0  0  0
   24.0377  -21.3892   -7.8669 O   0  0  0  0  0  0  0  0  0  0  0  0
   22.9834  -21.2058   -8.5713 O   0  0  0  0  0  0  0  0  0  0  0  0
  2  1  1  6
  2  3  1  0
  4  2  1  0
  4  5  1  6
  6  7  2  0
  6  4  1  0
  9 10  2  0
  9  8  1  0
 11  9  1  0
 12 11  1  0
 13 12  1  0
 13 14  1  0
 15 14  1  6
 15 16  1  0
 16  6  1  0
 17 19  1  0
 17 15  1  0
 18 17  2  0
 20 19  1  0
 20 21  1  1
 21 22  1  0
 22 30  1  0
 23 22  2  0
 23 24  1  0
 24 25  1  0
 25 26  1  0
 26 27  2  0
 28 27  1  0
 29 28  2  0
 30 25  2  0
 30 29  1  0
 31 20  1  0
 32 31  2  0
 33 31  1  0
M  END
$$$$
