VRW.pdb
     RDKit          3D

 33 34  0  0  1  0  0  0  0  0999 V2000
   19.3067  -19.4003  -13.4864 C   0  0  0  0  0  0  0  0  0  0  0  0
   20.5141  -19.9109  -12.7015 C   0  0  2  0  0  0  0  0  0  0  0  0
   21.3106  -18.7919  -12.1104 C   0  0  0  0  0  0  0  0  0  0  0  0
   21.2772  -20.8199  -13.6133 C   0  0  2  0  0  0  0  0  0  0  0  0
   20.3514  -21.8406  -14.0776 N   0  0  0  0  0  0  0  0  0  0  0  0
   22.4961  -21.4038  -13.0158 C   0  0  0  0  0  0  0  0  0  0  0  0
   22.3834  -22.1954  -12.0467 O   0  0  0  0  0  0  0  0  0  0  0  0
   28.0206  -23.7869  -15.7636 N   0  0  0  0  0  0  0  0  0  0  0  0
   28.4240  -22.6625  -16.5574 C   0  0  0  0  0  0  0  0  0  0  0  0
   28.8907  -22.8210  -17.7461 N   0  0  0  0  0  0  0  0  0  0  0  0
   28.3235  -21.3236  -16.0675 N   0  0  0  0  0  0  0  0  0  0  0  0
   27.0848  -20.6841  -15.7599 C   0  0  0  0  0  0  0  0  0  0  0  0
   26.8211  -20.5566  -14.2614 C   0  0  0  0  0  0  0  0  0  0  0  0
   26.1536  -21.8305  -13.8376 C   0  0  0  0  0  0  0  0  0  0  0  0
   25.0200  -21.6273  -12.8557 C   0  0  2  0  0  0  0  0  0  0  0  0
   23.8104  -21.1260  -13.4695 N   0  0  0  0  0  0  0  0  0  0  0  0
   25.4593  -20.6480  -11.8453 C   0  0  0  0  0  0  0  0  0  0  0  0
   25.4390  -19.4325  -12.1187 O   0  0  0  0  0  0  0  0  0  0  0  0
   29.1642  -21.9764  -18.2922 N   0  0  0  0  0  0  0  0  0  0  0  0
   25.8982  -21.1012  -10.5799 C   0  0  2  0  0  0  0  0  0  0  0  0
   26.7622  -20.2972   -9.6967 C   0  0  0  0  0  0  0  0  0  0  0  0
   26.3632  -20.4884   -8.2698 C   0  0  0  0  0  0  0  0  0  0  0  0
   27.2224  -19.7134   -7.3568 C   0  0  0  0  0  0  0  0  0  0  0  0
   27.2895  -18.3208   -7.4174 N   0  0  0  0  0  0  0  0  0  0  0  0
   28.1010  -17.8815   -6.4428 C   0  0  0  0  0  0  0  0  0  0  0  0
   28.5467  -18.9535   -5.7724 C   0  0  0  0  0  0  0  0  0  0  0  0
   29.3983  -19.0995   -4.7039 C   0  0  0  0  0  0  0  0  0  0  0  0
   29.7376  -20.3220   -4.1704 C   0  0  0  0  0  0  0  0  0  0  0  0
   29.1954  -21.4572   -4.7383 C   0  0  0  0  0  0  0  0  0  0  0  0
   28.3399  -21.3507   -5.8076 C   0  0  0  0  0  0  0  0  0  0  0  0
   28.0112  -20.1166   -6.3262 C   0  0  0  0  0  0  0  0  0  0  0  0
   28.1573  -20.5882   -9.9550 O   0  0  0  0  0  0  0  0  0  0  0  0
   29.0938  -19.7366   -9.7579 O   0  0  0  0  0  0  0  0  0  0  0  0
  2  1  1  6
  2  3  1  0
  4  2  1  0
  4  5  1  1
  6  7  2  0
  6  4  1  0
  9 10  2  0
  9  8  1  0
 11  9  1  0
 12 11  1  0
 13 12  1  0
 13 14  1  0
 15 14  1  6
 15 16  1  0
 16  6  1  0
 17 19  1  0
 17 15  1  0
 18 17  2  0
 20 19  1  0
 20 21  1  1
 21 22  1  0
 22 30  1  0
 23 22  2  0
 23 24  1  0
 24 25  1  0
 25 26  1  0
 26 27  2  0
 28 27  1  0
 29 28  2  0
 30 25  2  0
 30 29  1  0
 31 20  1  0
 32 31  2  0
 33 31  1  0
M  END
$$$$
