VRW.pdb
     RDKit          3D

 33 34  0  0  1  0  0  0  0  0999 V2000
   25.9945  -23.8591  -15.1328 C   0  0  0  0  0  0  0  0  0  0  0  0
   25.0271  -23.5989  -16.2866 C   0  0  2  0  0  0  0  0  0  0  0  0
   25.7440  -23.4053  -17.5844 C   0  0  0  0  0  0  0  0  0  0  0  0
   24.1468  -22.4616  -15.8724 C   0  0  2  0  0  0  0  0  0  0  0  0
   24.8185  -21.2325  -16.2632 N   0  0  0  0  0  0  0  0  0  0  0  0
   23.7769  -22.4635  -14.4417 C   0  0  0  0  0  0  0  0  0  0  0  0
   23.1996  -23.4703  -13.9605 O   0  0  0  0  0  0  0  0  0  0  0  0
   28.3555  -19.3487  -14.6097 N   0  0  0  0  0  0  0  0  0  0  0  0
   28.1712  -20.7628  -14.4563 C   0  0  0  0  0  0  0  0  0  0  0  0
   28.6967  -21.5956  -15.2847 N   0  0  0  0  0  0  0  0  0  0  0  0
   27.4027  -21.3069  -13.3811 N   0  0  0  0  0  0  0  0  0  0  0  0
   26.8325  -20.5178  -12.3371 C   0  0  0  0  0  0  0  0  0  0  0  0
   26.0185  -21.3318  -11.3339 C   0  0  0  0  0  0  0  0  0  0  0  0
   24.6640  -20.6921  -11.2673 C   0  0  0  0  0  0  0  0  0  0  0  0
   23.6368  -21.3447  -12.1670 C   0  0  2  0  0  0  0  0  0  0  0  0
   24.0331  -21.3855  -13.5572 N   0  0  0  0  0  0  0  0  0  0  0  0
   22.3861  -20.5706  -12.0710 C   0  0  0  0  0  0  0  0  0  0  0  0
   22.4051  -19.4339  -11.5607 O   0  0  0  0  0  0  0  0  0  0  0  0
   28.4368  -22.6025  -15.2135 N   0  0  0  0  0  0  0  0  0  0  0  0
   21.1818  -21.1285  -12.5586 C   0  0  1  0  0  0  0  0  0  0  0  0
   20.2118  -20.3623  -13.3617 C   0  0  0  0  0  0  0  0  0  0  0  0
   20.8774  -19.7949  -14.5729 C   0  0  0  0  0  0  0  0  0  0  0  0
   19.9310  -19.0310  -15.4054 C   0  0  0  0  0  0  0  0  0  0  0  0
   19.0480  -18.1038  -14.8502 N   0  0  0  0  0  0  0  0  0  0  0  0
   18.3485  -17.5237  -15.8378 C   0  0  0  0  0  0  0  0  0  0  0  0
   18.7629  -18.0573  -16.9957 C   0  0  0  0  0  0  0  0  0  0  0  0
   18.3947  -17.8523  -18.3036 C   0  0  0  0  0  0  0  0  0  0  0  0
   18.9536  -18.5333  -19.3610 C   0  0  0  0  0  0  0  0  0  0  0  0
   19.9322  -19.4691  -19.0930 C   0  0  0  0  0  0  0  0  0  0  0  0
   20.3266  -19.7012  -17.7979 C   0  0  0  0  0  0  0  0  0  0  0  0
   19.7555  -19.0071  -16.7528 C   0  0  0  0  0  0  0  0  0  0  0  0
   19.0519  -21.1757  -13.6624 O   0  0  0  0  0  0  0  0  0  0  0  0
   17.8505  -20.7643  -13.4930 O   0  0  0  0  0  0  0  0  0  0  0  0
  2  1  1  1
  2  3  1  0
  4  2  1  0
  4  5  1  1
  6  7  2  0
  6  4  1  0
  9 10  2  0
  9  8  1  0
 11  9  1  0
 12 11  1  0
 13 12  1  0
 13 14  1  0
 15 14  1  1
 15 16  1  0
 16  6  1  0
 17 19  1  0
 17 15  1  0
 18 17  2  0
 20 19  1  0
 20 21  1  1
 21 22  1  0
 22 30  1  0
 23 22  2  0
 23 24  1  0
 24 25  1  0
 25 26  1  0
 26 27  2  0
 28 27  1  0
 29 28  2  0
 30 25  2  0
 30 29  1  0
 31 20  1  0
 32 31  2  0
 33 31  1  0
M  END
$$$$
