VRW.pdb
     RDKit          3D

 33 34  0  0  1  0  0  0  0  0999 V2000
   26.7225  -18.6868  -16.8842 C   0  0  0  0  0  0  0  0  0  0  0  0
   28.1259  -18.7201  -16.2810 C   0  0  2  0  0  0  0  0  0  0  0  0
   29.1795  -18.9029  -17.3261 C   0  0  0  0  0  0  0  0  0  0  0  0
   28.1151  -19.7583  -15.2030 C   0  0  2  0  0  0  0  0  0  0  0  0
   28.0230  -21.0550  -15.8546 N   0  0  0  0  0  0  0  0  0  0  0  0
   27.0616  -19.5712  -14.1836 C   0  0  0  0  0  0  0  0  0  0  0  0
   27.0025  -18.4835  -13.5575 O   0  0  0  0  0  0  0  0  0  0  0  0
   21.2008  -21.1051  -15.9406 N   0  0  0  0  0  0  0  0  0  0  0  0
   20.6084  -19.8243  -15.6841 C   0  0  0  0  0  0  0  0  0  0  0  0
   19.5120  -19.4719  -16.2584 N   0  0  0  0  0  0  0  0  0  0  0  0
   21.2043  -18.8891  -14.7825 N   0  0  0  0  0  0  0  0  0  0  0  0
   22.3438  -19.1840  -13.9749 C   0  0  0  0  0  0  0  0  0  0  0  0
   23.1305  -20.4020  -14.4534 C   0  0  0  0  0  0  0  0  0  0  0  0
   23.7450  -21.0175  -13.2320 C   0  0  0  0  0  0  0  0  0  0  0  0
   25.0732  -20.4050  -12.8433 C   0  0  2  0  0  0  0  0  0  0  0  0
   26.0940  -20.5545  -13.8566 N   0  0  0  0  0  0  0  0  0  0  0  0
   25.5448  -21.0741  -11.6175 C   0  0  0  0  0  0  0  0  0  0  0  0
   25.9684  -22.2442  -11.6806 O   0  0  0  0  0  0  0  0  0  0  0  0
   19.0726  -18.5674  -15.9840 N   0  0  0  0  0  0  0  0  0  0  0  0
   25.5097  -20.3792  -10.3865 C   0  0  2  0  0  0  0  0  0  0  0  0
   25.8662  -21.0076   -9.1017 C   0  0  0  0  0  0  0  0  0  0  0  0
   27.0934  -20.3695   -8.5372 C   0  0  0  0  0  0  0  0  0  0  0  0
   27.1749  -20.5462   -7.0762 C   0  0  0  0  0  0  0  0  0  0  0  0
   26.5170  -21.5909   -6.4255 N   0  0  0  0  0  0  0  0  0  0  0  0
   26.8080  -21.5398   -5.1163 C   0  0  0  0  0  0  0  0  0  0  0  0
   27.6267  -20.4960   -4.9233 C   0  0  0  0  0  0  0  0  0  0  0  0
   28.2230  -19.9712   -3.8021 C   0  0  0  0  0  0  0  0  0  0  0  0
   29.0350  -18.8602   -3.8286 C   0  0  0  0  0  0  0  0  0  0  0  0
   29.2603  -18.2429   -5.0424 C   0  0  0  0  0  0  0  0  0  0  0  0
   28.6814  -18.7390   -6.1850 C   0  0  0  0  0  0  0  0  0  0  0  0
   27.8725  -19.8542   -6.1374 C   0  0  0  0  0  0  0  0  0  0  0  0
   24.7333  -20.9893   -8.1996 O   0  0  0  0  0  0  0  0  0  0  0  0
   23.8090  -20.1043   -8.2611 O   0  0  0  0  0  0  0  0  0  0  0  0
  2  1  1  6
  2  3  1  0
  4  2  1  0
  4  5  1  6
  6  7  2  0
  6  4  1  0
  9 10  2  0
  9  8  1  0
 11  9  1  0
 12 11  1  0
 13 12  1  0
 13 14  1  0
 15 14  1  6
 15 16  1  0
 16  6  1  0
 17 19  1  0
 17 15  1  0
 18 17  2  0
 20 19  1  0
 20 21  1  6
 21 22  1  0
 22 30  1  0
 23 22  2  0
 23 24  1  0
 24 25  1  0
 25 26  1  0
 26 27  2  0
 28 27  1  0
 29 28  2  0
 30 25  2  0
 30 29  1  0
 31 20  1  0
 32 31  2  0
 33 31  1  0
M  END
$$$$
