VRW.pdb
     RDKit          3D

 33 34  0  0  1  0  0  0  0  0999 V2000
   28.7002  -20.7244  -14.4533 C   0  0  0  0  0  0  0  0  0  0  0  0
   28.3665  -19.6334  -15.4697 C   0  0  2  0  0  0  0  0  0  0  0  0
   28.8129  -18.2832  -15.0076 C   0  0  0  0  0  0  0  0  0  0  0  0
   26.9055  -19.7489  -15.7730 C   0  0  2  0  0  0  0  0  0  0  0  0
   26.6435  -18.9331  -16.9479 N   0  0  0  0  0  0  0  0  0  0  0  0
   26.0168  -19.4016  -14.6445 C   0  0  0  0  0  0  0  0  0  0  0  0
   25.9170  -18.1999  -14.2918 O   0  0  0  0  0  0  0  0  0  0  0  0
   19.9627  -22.0738  -11.5580 N   0  0  0  0  0  0  0  0  0  0  0  0
   19.8120  -20.6477  -11.5296 C   0  0  0  0  0  0  0  0  0  0  0  0
   19.3224  -20.0513  -10.4997 N   0  0  0  0  0  0  0  0  0  0  0  0
   20.1992  -19.8303  -12.6361 N   0  0  0  0  0  0  0  0  0  0  0  0
   20.8442  -20.3346  -13.8055 C   0  0  0  0  0  0  0  0  0  0  0  0
   22.2942  -19.8775  -13.9462 C   0  0  0  0  0  0  0  0  0  0  0  0
   23.0476  -20.4977  -12.8078 C   0  0  0  0  0  0  0  0  0  0  0  0
   24.4935  -20.0587  -12.7227 C   0  0  2  0  0  0  0  0  0  0  0  0
   25.2543  -20.3504  -13.9174 N   0  0  0  0  0  0  0  0  0  0  0  0
   25.1225  -20.7702  -11.5954 C   0  0  0  0  0  0  0  0  0  0  0  0
   25.4236  -21.9730  -11.7195 O   0  0  0  0  0  0  0  0  0  0  0  0
   19.3064  -19.0091  -10.4867 N   0  0  0  0  0  0  0  0  0  0  0  0
   25.3753  -20.0784  -10.3883 C   0  0  2  0  0  0  0  0  0  0  0  0
   25.9323  -20.7337   -9.1912 C   0  0  0  0  0  0  0  0  0  0  0  0
   26.9676  -19.8617   -8.5592 C   0  0  0  0  0  0  0  0  0  0  0  0
   27.4202  -20.4052   -7.2661 C   0  0  0  0  0  0  0  0  0  0  0  0
   27.5186  -21.7790   -7.0415 N   0  0  0  0  0  0  0  0  0  0  0  0
   28.0034  -21.9844   -5.8070 C   0  0  0  0  0  0  0  0  0  0  0  0
   28.2120  -20.7838   -5.2483 C   0  0  0  0  0  0  0  0  0  0  0  0
   28.6799  -20.3953   -4.0161 C   0  0  0  0  0  0  0  0  0  0  0  0
   28.8048  -19.0782   -3.6368 C   0  0  0  0  0  0  0  0  0  0  0  0
   28.4410  -18.0997   -4.5398 C   0  0  0  0  0  0  0  0  0  0  0  0
   27.9692  -18.4497   -5.7814 C   0  0  0  0  0  0  0  0  0  0  0  0
   27.8533  -19.7749   -6.1427 C   0  0  0  0  0  0  0  0  0  0  0  0
   24.8688  -21.1225   -8.2882 O   0  0  0  0  0  0  0  0  0  0  0  0
   23.7325  -20.5317   -8.2558 O   0  0  0  0  0  0  0  0  0  0  0  0
  2  1  1  1
  2  3  1  0
  4  2  1  0
  4  5  1  6
  6  7  2  0
  6  4  1  0
  9 10  2  0
  9  8  1  0
 11  9  1  0
 12 11  1  0
 13 12  1  0
 13 14  1  0
 15 14  1  6
 15 16  1  0
 16  6  1  0
 17 19  1  0
 17 15  1  0
 18 17  2  0
 20 19  1  0
 20 21  1  6
 21 22  1  0
 22 30  1  0
 23 22  2  0
 23 24  1  0
 24 25  1  0
 25 26  1  0
 26 27  2  0
 28 27  1  0
 29 28  2  0
 30 25  2  0
 30 29  1  0
 31 20  1  0
 32 31  2  0
 33 31  1  0
M  END
$$$$
