VRW.pdb
     RDKit          3D

 33 34  0  0  1  0  0  0  0  0999 V2000
   21.9557  -19.6668  -12.9102 C   0  0  0  0  0  0  0  0  0  0  0  0
   22.6581  -18.7025  -13.8648 C   0  0  2  0  0  0  0  0  0  0  0  0
   21.6840  -17.8742  -14.6399 C   0  0  0  0  0  0  0  0  0  0  0  0
   23.6003  -19.5166  -14.6953 C   0  0  2  0  0  0  0  0  0  0  0  0
   22.7965  -20.2732  -15.6419 N   0  0  0  0  0  0  0  0  0  0  0  0
   24.5086  -20.3846  -13.9172 C   0  0  0  0  0  0  0  0  0  0  0  0
   24.0628  -21.4511  -13.4249 O   0  0  0  0  0  0  0  0  0  0  0  0
   31.3624  -22.3048  -15.6612 N   0  0  0  0  0  0  0  0  0  0  0  0
   31.5957  -23.1066  -14.4950 C   0  0  0  0  0  0  0  0  0  0  0  0
   32.1893  -24.2453  -14.5789 N   0  0  0  0  0  0  0  0  0  0  0  0
   31.1844  -22.6778  -13.1952 N   0  0  0  0  0  0  0  0  0  0  0  0
   30.5201  -21.4395  -12.9435 C   0  0  0  0  0  0  0  0  0  0  0  0
   29.1154  -21.6078  -12.3691 C   0  0  0  0  0  0  0  0  0  0  0  0
   28.2123  -20.7411  -13.1945 C   0  0  0  0  0  0  0  0  0  0  0  0
   26.7499  -20.8556  -12.8219 C   0  0  2  0  0  0  0  0  0  0  0  0
   25.8755  -20.0903  -13.6826 N   0  0  0  0  0  0  0  0  0  0  0  0
   26.5877  -20.3556  -11.4448 C   0  0  0  0  0  0  0  0  0  0  0  0
   26.7078  -19.1366  -11.2160 O   0  0  0  0  0  0  0  0  0  0  0  0
   32.4003  -24.7646  -13.7001 N   0  0  0  0  0  0  0  0  0  0  0  0
   26.2984  -21.2659  -10.4022 C   0  0  1  0  0  0  0  0  0  0  0  0
   25.7563  -20.8438   -9.0980 C   0  0  0  0  0  0  0  0  0  0  0  0
   26.2601  -19.4824   -8.7450 C   0  0  0  0  0  0  0  0  0  0  0  0
   27.5148  -19.5500   -7.9746 C   0  0  0  0  0  0  0  0  0  0  0  0
   28.7167  -19.0572   -8.4847 N   0  0  0  0  0  0  0  0  0  0  0  0
   29.6747  -19.2003   -7.5557 C   0  0  0  0  0  0  0  0  0  0  0  0
   29.1136  -19.7680   -6.4786 C   0  0  0  0  0  0  0  0  0  0  0  0
   29.6132  -20.1503   -5.2570 C   0  0  0  0  0  0  0  0  0  0  0  0
   28.8460  -20.7408   -4.2787 C   0  0  0  0  0  0  0  0  0  0  0  0
   27.5084  -20.9599   -4.5391 C   0  0  0  0  0  0  0  0  0  0  0  0
   26.9731  -20.5908   -5.7490 C   0  0  0  0  0  0  0  0  0  0  0  0
   27.7582  -19.9991   -6.7152 C   0  0  0  0  0  0  0  0  0  0  0  0
   24.3118  -20.9488   -9.0944 O   0  0  0  0  0  0  0  0  0  0  0  0
   23.6209  -21.0792  -10.1653 O   0  0  0  0  0  0  0  0  0  0  0  0
  2  1  1  1
  2  3  1  0
  4  2  1  0
  4  5  1  6
  6  7  2  0
  6  4  1  0
  9 10  2  0
  9  8  1  0
 11  9  1  0
 12 11  1  0
 13 12  1  0
 13 14  1  0
 15 14  1  6
 15 16  1  0
 16  6  1  0
 17 19  1  0
 17 15  1  0
 18 17  2  0
 20 19  1  0
 20 21  1  1
 21 22  1  0
 22 30  1  0
 23 22  2  0
 23 24  1  0
 24 25  1  0
 25 26  1  0
 26 27  2  0
 28 27  1  0
 29 28  2  0
 30 25  2  0
 30 29  1  0
 31 20  1  0
 32 31  2  0
 33 31  1  0
M  END
$$$$
