VRW.pdb
     RDKit          3D

 33 34  0  0  1  0  0  0  0  0999 V2000
   27.7186  -20.9045  -19.1472 C   0  0  0  0  0  0  0  0  0  0  0  0
   29.1104  -21.5033  -18.9497 C   0  0  2  0  0  0  0  0  0  0  0  0
   29.4508  -22.4917  -20.0188 C   0  0  0  0  0  0  0  0  0  0  0  0
   29.1636  -22.0370  -17.5524 C   0  0  2  0  0  0  0  0  0  0  0  0
   28.2793  -23.1901  -17.4977 N   0  0  0  0  0  0  0  0  0  0  0  0
   28.8481  -21.0431  -16.5052 C   0  0  0  0  0  0  0  0  0  0  0  0
   29.5290  -19.9895  -16.4368 O   0  0  0  0  0  0  0  0  0  0  0  0
   22.6078  -18.8679  -16.9560 N   0  0  0  0  0  0  0  0  0  0  0  0
   22.8360  -17.7569  -16.0780 C   0  0  0  0  0  0  0  0  0  0  0  0
   21.8622  -17.1892  -15.4570 N   0  0  0  0  0  0  0  0  0  0  0  0
   24.1476  -17.2358  -15.8527 N   0  0  0  0  0  0  0  0  0  0  0  0
   25.3233  -17.7553  -16.4738 C   0  0  0  0  0  0  0  0  0  0  0  0
   25.7172  -19.1412  -15.9684 C   0  0  0  0  0  0  0  0  0  0  0  0
   26.9070  -18.9461  -15.0771 C   0  0  0  0  0  0  0  0  0  0  0  0
   27.4753  -20.2367  -14.5277 C   0  0  2  0  0  0  0  0  0  0  0  0
   27.8095  -21.2003  -15.5529 N   0  0  0  0  0  0  0  0  0  0  0  0
   26.4636  -20.8428  -13.6435 C   0  0  0  0  0  0  0  0  0  0  0  0
   25.3944  -21.2598  -14.1289 O   0  0  0  0  0  0  0  0  0  0  0  0
   22.0695  -16.3727  -14.8433 N   0  0  0  0  0  0  0  0  0  0  0  0
   26.7197  -20.9422  -12.2564 C   0  0  2  0  0  0  0  0  0  0  0  0
   25.7677  -21.5471  -11.3076 C   0  0  0  0  0  0  0  0  0  0  0  0
   26.4832  -22.0045  -10.0784 C   0  0  0  0  0  0  0  0  0  0  0  0
   26.6566  -20.9068   -9.1104 C   0  0  0  0  0  0  0  0  0  0  0  0
   25.6448  -19.9774   -8.8657 N   0  0  0  0  0  0  0  0  0  0  0  0
   26.0538  -19.1310   -7.9078 C   0  0  0  0  0  0  0  0  0  0  0  0
   27.2906  -19.4981   -7.5434 C   0  0  0  0  0  0  0  0  0  0  0  0
   28.1837  -18.9935   -6.6291 C   0  0  0  0  0  0  0  0  0  0  0  0
   29.4340  -19.5294   -6.4199 C   0  0  0  0  0  0  0  0  0  0  0  0
   29.8086  -20.6280   -7.1668 C   0  0  0  0  0  0  0  0  0  0  0  0
   28.9424  -21.1605   -8.0903 C   0  0  0  0  0  0  0  0  0  0  0  0
   27.6935  -20.6099   -8.2835 C   0  0  0  0  0  0  0  0  0  0  0  0
   24.6747  -20.6355  -11.0395 O   0  0  0  0  0  0  0  0  0  0  0  0
   24.7780  -19.3659  -11.1763 O   0  0  0  0  0  0  0  0  0  0  0  0
  2  1  1  6
  2  3  1  0
  4  2  1  0
  4  5  1  6
  6  7  2  0
  6  4  1  0
  9 10  2  0
  9  8  1  0
 11  9  1  0
 12 11  1  0
 13 12  1  0
 13 14  1  0
 15 14  1  6
 15 16  1  0
 16  6  1  0
 17 19  1  0
 17 15  1  0
 18 17  2  0
 20 19  1  0
 20 21  1  6
 21 22  1  0
 22 30  1  0
 23 22  2  0
 23 24  1  0
 24 25  1  0
 25 26  1  0
 26 27  2  0
 28 27  1  0
 29 28  2  0
 30 25  2  0
 30 29  1  0
 31 20  1  0
 32 31  2  0
 33 31  1  0
M  END
$$$$
