YAQ.pdb
     RDKit          3D

 27 27  0  0  1  0  0  0  0  0999 V2000
    9.0131  -13.2099   26.5175 O   0  0  0  0  0  0  0  0  0  0  0  0
    8.2418  -13.9437   25.6081 C   0  0  0  0  0  0  0  0  0  0  0  0
    7.8872  -15.2433   25.8657 C   0  0  0  0  0  0  0  0  0  0  0  0
    7.1295  -15.8940   24.9233 C   0  0  0  0  0  0  0  0  0  0  0  0
    6.7201  -15.2891   23.7434 C   0  0  0  0  0  0  0  0  0  0  0  0
    5.8948  -16.1036   22.7941 C   0  0  0  0  0  0  0  0  0  0  0  0
    6.7148  -16.4408   21.5747 C   0  0  2  0  0  0  0  0  0  0  0  0
    5.9800  -17.3068   20.6669 N   0  0  0  0  0  0  0  0  0  0  0  0
    7.9884  -17.1027   21.9223 C   0  0  0  0  0  0  0  0  0  0  0  0
    8.0110  -18.2483   22.4802 O   0  0  0  0  0  0  0  0  0  0  0  0
    7.0852  -13.9938   23.5087 C   0  0  0  0  0  0  0  0  0  0  0  0
    7.8543  -13.3195   24.4550 C   0  0  0  0  0  0  0  0  0  0  0  0
   11.5265  -16.8143   20.9353 C   0  0  0  0  0  0  0  0  0  0  0  0
   10.4473  -17.2146   21.9313 C   0  0  2  0  0  0  0  0  0  0  0  0
    9.2429  -16.4826   21.6422 N   0  0  0  0  0  0  0  0  0  0  0  0
   10.9759  -16.8020   23.2819 C   0  0  0  0  0  0  0  0  0  0  0  0
   10.3983  -15.9114   23.9469 O   0  0  0  0  0  0  0  0  0  0  0  0
    8.7478  -19.7304   26.9348 N   0  0  0  0  0  0  0  0  0  0  0  0
    9.7789  -19.2221   27.7598 C   0  0  0  0  0  0  0  0  0  0  0  0
    9.6565  -19.4229   29.0166 O   0  0  0  0  0  0  0  0  0  0  0  0
   10.9511  -18.5029   27.2638 C   0  0  0  0  0  0  0  0  0  0  0  0
   11.0329  -18.2400   25.8176 C   0  0  0  0  0  0  0  0  0  0  0  0
   12.2815  -17.6788   25.2502 C   0  0  2  0  0  0  0  0  0  0  0  0
   12.1377  -17.4190   23.8193 N   0  0  0  0  0  0  0  0  0  0  0  0
   13.5659  -18.2144   25.6479 C   0  0  0  0  0  0  0  0  0  0  0  0
   13.9545  -19.3903   25.4847 O   0  0  0  0  0  0  0  0  0  0  0  0
   14.4998  -17.3735   26.2840 O   0  0  0  0  0  0  0  0  0  0  0  0
  2  1  1  0
  3  2  2  0
  4  3  1  0
  5 11  1  0
  5  4  2  0
  6  5  1  0
  7  8  1  6
  7  9  1  0
  7  6  1  0
  9 10  2  0
 11 12  2  0
 12  2  1  0
 14 13  1  6
 14 16  1  0
 15 14  1  0
 15  9  1  0
 16 24  1  0
 16 17  2  0
 18 19  1  0
 19 21  1  0
 20 19  2  0
 22 21  1  0
 23 22  1  6
 24 23  1  0
 25 23  1  0
 25 27  1  0
 26 25  2  0
M  END
$$$$
