YAQ.pdb
     RDKit          3D

 27 27  0  0  1  0  0  0  0  0999 V2000
    7.9568  -20.1345   30.3447 O   0  0  0  0  0  0  0  0  0  0  0  0
    8.3334  -19.4516   29.1818 C   0  0  0  0  0  0  0  0  0  0  0  0
    7.4083  -19.1120   28.2279 C   0  0  0  0  0  0  0  0  0  0  0  0
    7.8580  -18.4429   27.1162 C   0  0  0  0  0  0  0  0  0  0  0  0
    9.1919  -18.1070   26.9328 C   0  0  0  0  0  0  0  0  0  0  0  0
    9.5587  -17.3754   25.6774 C   0  0  0  0  0  0  0  0  0  0  0  0
    9.1803  -18.2087   24.4794 C   0  0  2  0  0  0  0  0  0  0  0  0
    9.4163  -19.6225   24.7235 N   0  0  0  0  0  0  0  0  0  0  0  0
    9.9238  -17.8145   23.2660 C   0  0  0  0  0  0  0  0  0  0  0  0
   10.7972  -18.5815   22.7434 O   0  0  0  0  0  0  0  0  0  0  0  0
   10.0952  -18.4556   27.8965 C   0  0  0  0  0  0  0  0  0  0  0  0
    9.6548  -19.1351   29.0307 C   0  0  0  0  0  0  0  0  0  0  0  0
    9.8581  -14.9674   20.8245 C   0  0  0  0  0  0  0  0  0  0  0  0
   10.3988  -16.2613   21.4163 C   0  0  2  0  0  0  0  0  0  0  0  0
    9.6882  -16.5578   22.6317 N   0  0  0  0  0  0  0  0  0  0  0  0
   11.8462  -15.9823   21.7341 C   0  0  0  0  0  0  0  0  0  0  0  0
   12.1634  -15.3901   22.7913 O   0  0  0  0  0  0  0  0  0  0  0  0
   15.6819  -21.0691   20.8338 N   0  0  0  0  0  0  0  0  0  0  0  0
   15.6975  -19.7148   20.4240 C   0  0  0  0  0  0  0  0  0  0  0  0
   16.3529  -19.4475   19.3591 O   0  0  0  0  0  0  0  0  0  0  0  0
   15.0160  -18.6324   21.1321 C   0  0  0  0  0  0  0  0  0  0  0  0
   15.1132  -17.2761   20.5679 C   0  0  0  0  0  0  0  0  0  0  0  0
   14.2864  -16.1888   21.1424 C   0  0  2  0  0  0  0  0  0  0  0  0
   12.8712  -16.3880   20.8374 N   0  0  0  0  0  0  0  0  0  0  0  0
   14.7393  -14.8159   21.0713 C   0  0  0  0  0  0  0  0  0  0  0  0
   14.1794  -13.8883   20.4498 O   0  0  0  0  0  0  0  0  0  0  0  0
   15.9169  -14.4396   21.7463 O   0  0  0  0  0  0  0  0  0  0  0  0
  2  1  1  0
  3  2  2  0
  4  3  1  0
  5 11  1  0
  5  4  2  0
  6  5  1  0
  7  8  1  1
  7  9  1  0
  7  6  1  0
  9 10  2  0
 11 12  2  0
 12  2  1  0
 14 13  1  1
 14 16  1  0
 15 14  1  0
 15  9  1  0
 16 24  1  0
 16 17  2  0
 18 19  1  0
 19 21  1  0
 20 19  2  0
 22 21  1  0
 23 22  1  6
 24 23  1  0
 25 23  1  0
 25 27  1  0
 26 25  2  0
M  END
$$$$
