YAQ.pdb
     RDKit          3D

 27 27  0  0  1  0  0  0  0  0999 V2000
    0.5894  -20.9714   22.2875 O   0  0  0  0  0  0  0  0  0  0  0  0
    1.7778  -20.2308   22.2855 C   0  0  0  0  0  0  0  0  0  0  0  0
    1.7741  -18.8850   22.0216 C   0  0  0  0  0  0  0  0  0  0  0  0
    2.9813  -18.2307   22.0388 C   0  0  0  0  0  0  0  0  0  0  0  0
    4.1794  -18.8764   22.3096 C   0  0  0  0  0  0  0  0  0  0  0  0
    5.4312  -18.0526   22.3003 C   0  0  0  0  0  0  0  0  0  0  0  0
    5.7537  -17.6417   20.8860 C   0  0  2  0  0  0  0  0  0  0  0  0
    6.0714  -18.7954   20.0601 N   0  0  0  0  0  0  0  0  0  0  0  0
    6.8865  -16.6965   20.8224 C   0  0  0  0  0  0  0  0  0  0  0  0
    8.0734  -17.0968   20.5873 O   0  0  0  0  0  0  0  0  0  0  0  0
    4.1583  -20.2173   22.5697 C   0  0  0  0  0  0  0  0  0  0  0  0
    2.9413  -20.8960   22.5558 C   0  0  0  0  0  0  0  0  0  0  0  0
    7.3659  -12.9846   20.8606 C   0  0  0  0  0  0  0  0  0  0  0  0
    7.8374  -14.4294   20.9463 C   0  0  2  0  0  0  0  0  0  0  0  0
    6.6915  -15.2965   21.0195 N   0  0  0  0  0  0  0  0  0  0  0  0
    8.6205  -14.5196   22.2317 C   0  0  0  0  0  0  0  0  0  0  0  0
    9.5826  -13.7468   22.4468 O   0  0  0  0  0  0  0  0  0  0  0  0
    8.2019  -12.1910   27.1784 N   0  0  0  0  0  0  0  0  0  0  0  0
    7.1632  -12.9920   26.6475 C   0  0  0  0  0  0  0  0  0  0  0  0
    5.9718  -12.6904   27.0005 O   0  0  0  0  0  0  0  0  0  0  0  0
    7.3736  -14.1144   25.7347 C   0  0  0  0  0  0  0  0  0  0  0  0
    8.7583  -14.4382   25.3540 C   0  0  0  0  0  0  0  0  0  0  0  0
    9.0169  -15.6009   24.4724 C   0  0  2  0  0  0  0  0  0  0  0  0
    8.2771  -15.4835   23.2177 N   0  0  0  0  0  0  0  0  0  0  0  0
    9.0705  -16.9366   25.0274 C   0  0  0  0  0  0  0  0  0  0  0  0
    8.3780  -17.9113   24.6658 O   0  0  0  0  0  0  0  0  0  0  0  0
    9.9683  -17.2150   26.0764 O   0  0  0  0  0  0  0  0  0  0  0  0
  2  1  1  0
  3  2  2  0
  4  3  1  0
  5 11  1  0
  5  4  2  0
  6  5  1  0
  7  8  1  6
  7  9  1  0
  7  6  1  0
  9 10  2  0
 11 12  2  0
 12  2  1  0
 14 13  1  1
 14 16  1  0
 15 14  1  0
 15  9  1  0
 16 24  1  0
 16 17  2  0
 18 19  1  0
 19 21  1  0
 20 19  2  0
 22 21  1  0
 23 22  1  1
 24 23  1  0
 25 23  1  0
 25 27  1  0
 26 25  2  0
M  END
$$$$
