YAQ.pdb
     RDKit          3D

 27 27  0  0  1  0  0  0  0  0999 V2000
    7.9076  -12.3575   17.0398 O   0  0  0  0  0  0  0  0  0  0  0  0
    7.7249  -12.9002   18.3175 C   0  0  0  0  0  0  0  0  0  0  0  0
    6.7126  -12.4657   19.1344 C   0  0  0  0  0  0  0  0  0  0  0  0
    6.6006  -13.0485   20.3727 C   0  0  0  0  0  0  0  0  0  0  0  0
    7.4625  -14.0430   20.8131 C   0  0  0  0  0  0  0  0  0  0  0  0
    7.2367  -14.6017   22.1852 C   0  0  0  0  0  0  0  0  0  0  0  0
    8.2343  -15.6998   22.4528 C   0  0  2  0  0  0  0  0  0  0  0  0
    8.1766  -16.7278   21.4261 N   0  0  0  0  0  0  0  0  0  0  0  0
    8.0225  -16.3404   23.7665 C   0  0  0  0  0  0  0  0  0  0  0  0
    7.9343  -15.6514   24.8351 O   0  0  0  0  0  0  0  0  0  0  0  0
    8.4633  -14.4597   19.9819 C   0  0  0  0  0  0  0  0  0  0  0  0
    8.5906  -13.8781   18.7220 C   0  0  0  0  0  0  0  0  0  0  0  0
    7.6039  -19.8277   25.0898 C   0  0  0  0  0  0  0  0  0  0  0  0
    7.8546  -18.3307   25.2050 C   0  0  2  0  0  0  0  0  0  0  0  0
    7.9059  -17.7577   23.8862 N   0  0  0  0  0  0  0  0  0  0  0  0
    9.2046  -18.2003   25.8639 C   0  0  0  0  0  0  0  0  0  0  0  0
   10.2054  -17.8439   25.2004 O   0  0  0  0  0  0  0  0  0  0  0  0
   11.1956  -13.6642   27.2481 N   0  0  0  0  0  0  0  0  0  0  0  0
    9.9923  -14.1369   27.8234 C   0  0  0  0  0  0  0  0  0  0  0  0
    9.1222  -13.2533   28.1349 O   0  0  0  0  0  0  0  0  0  0  0  0
    9.6955  -15.5471   28.0691 C   0  0  0  0  0  0  0  0  0  0  0  0
   10.7308  -16.5357   27.7249 C   0  0  0  0  0  0  0  0  0  0  0  0
   10.4930  -17.9690   28.0166 C   0  0  2  0  0  0  0  0  0  0  0  0
    9.3598  -18.4802   27.2485 N   0  0  0  0  0  0  0  0  0  0  0  0
   10.5805  -18.4586   29.3758 C   0  0  0  0  0  0  0  0  0  0  0  0
    9.6832  -19.0655   29.9978 O   0  0  0  0  0  0  0  0  0  0  0  0
   11.7653  -18.2556   30.1099 O   0  0  0  0  0  0  0  0  0  0  0  0
  2  1  1  0
  3  2  2  0
  4  3  1  0
  5 11  1  0
  5  4  2  0
  6  5  1  0
  7  8  1  6
  7  9  1  0
  7  6  1  0
  9 10  2  0
 11 12  2  0
 12  2  1  0
 14 13  1  6
 14 16  1  0
 15 14  1  0
 15  9  1  0
 16 24  1  0
 16 17  2  0
 18 19  1  0
 19 21  1  0
 20 19  2  0
 22 21  1  0
 23 22  1  1
 24 23  1  0
 25 23  1  0
 25 27  1  0
 26 25  2  0
M  END
$$$$
