YAQ.pdb
     RDKit          3D

 27 27  0  0  1  0  0  0  0  0999 V2000
    5.6138  -10.5199   28.6652 O   0  0  0  0  0  0  0  0  0  0  0  0
    6.2108  -11.3958   27.7504 C   0  0  0  0  0  0  0  0  0  0  0  0
    7.3314  -12.1131   28.0833 C   0  0  0  0  0  0  0  0  0  0  0  0
    7.8563  -12.9507   27.1300 C   0  0  0  0  0  0  0  0  0  0  0  0
    7.2988  -13.0904   25.8669 C   0  0  0  0  0  0  0  0  0  0  0  0
    7.9633  -14.0373   24.9142 C   0  0  0  0  0  0  0  0  0  0  0  0
    6.9469  -15.0184   24.3876 C   0  0  2  0  0  0  0  0  0  0  0  0
    6.5554  -15.9740   25.4112 N   0  0  0  0  0  0  0  0  0  0  0  0
    7.4464  -15.7675   23.2170 C   0  0  0  0  0  0  0  0  0  0  0  0
    7.9660  -16.9245   23.3410 O   0  0  0  0  0  0  0  0  0  0  0  0
    6.1827  -12.3658   25.5581 C   0  0  0  0  0  0  0  0  0  0  0  0
    5.6378  -11.5111   26.5145 C   0  0  0  0  0  0  0  0  0  0  0  0
    7.7948  -15.1656   19.5273 C   0  0  0  0  0  0  0  0  0  0  0  0
    7.9402  -15.9661   20.8137 C   0  0  2  0  0  0  0  0  0  0  0  0
    7.3620  -15.2219   21.9009 N   0  0  0  0  0  0  0  0  0  0  0  0
    9.4255  -16.1062   21.0326 C   0  0  0  0  0  0  0  0  0  0  0  0
   10.1340  -15.0979   21.2572 O   0  0  0  0  0  0  0  0  0  0  0  0
   12.2523  -19.3595   25.1263 N   0  0  0  0  0  0  0  0  0  0  0  0
   11.2394  -18.3915   24.9276 C   0  0  0  0  0  0  0  0  0  0  0  0
   10.5503  -18.0665   25.9544 O   0  0  0  0  0  0  0  0  0  0  0  0
   10.9498  -17.7544   23.6440 C   0  0  0  0  0  0  0  0  0  0  0  0
   11.8002  -18.1083   22.4956 C   0  0  0  0  0  0  0  0  0  0  0  0
   11.4838  -17.5536   21.1584 C   0  0  2  0  0  0  0  0  0  0  0  0
   10.0423  -17.3856   20.9872 N   0  0  0  0  0  0  0  0  0  0  0  0
   12.1863  -18.0333   19.9874 C   0  0  0  0  0  0  0  0  0  0  0  0
   11.6642  -18.5506   18.9774 O   0  0  0  0  0  0  0  0  0  0  0  0
   13.5902  -17.9326   19.9327 O   0  0  0  0  0  0  0  0  0  0  0  0
  2  1  1  0
  3  2  2  0
  4  3  1  0
  5 11  1  0
  5  4  2  0
  6  5  1  0
  7  8  1  1
  7  9  1  0
  7  6  1  0
  9 10  2  0
 11 12  2  0
 12  2  1  0
 14 13  1  6
 14 16  1  0
 15 14  1  0
 15  9  1  0
 16 24  1  0
 16 17  2  0
 18 19  1  0
 19 21  1  0
 20 19  2  0
 22 21  1  0
 23 22  1  1
 24 23  1  0
 25 23  1  0
 25 27  1  0
 26 25  2  0
M  END
$$$$
