YAQ.pdb
     RDKit          3D

 27 27  0  0  1  0  0  0  0  0999 V2000
    5.9171  -10.7444   27.6245 O   0  0  0  0  0  0  0  0  0  0  0  0
    6.2165  -11.6666   26.6143 C   0  0  0  0  0  0  0  0  0  0  0  0
    7.1791  -11.4009   25.6743 C   0  0  0  0  0  0  0  0  0  0  0  0
    7.4133  -12.3568   24.7167 C   0  0  0  0  0  0  0  0  0  0  0  0
    6.7201  -13.5582   24.6725 C   0  0  0  0  0  0  0  0  0  0  0  0
    7.0675  -14.5218   23.5786 C   0  0  0  0  0  0  0  0  0  0  0  0
    7.6198  -15.7892   24.1798 C   0  0  2  0  0  0  0  0  0  0  0  0
    8.4215  -15.5085   25.3599 N   0  0  0  0  0  0  0  0  0  0  0  0
    8.4494  -16.5478   23.2221 C   0  0  0  0  0  0  0  0  0  0  0  0
    7.9499  -17.4643   22.4909 O   0  0  0  0  0  0  0  0  0  0  0  0
    5.7659  -13.8008   25.6194 C   0  0  0  0  0  0  0  0  0  0  0  0
    5.5161  -12.8406   26.5980 C   0  0  0  0  0  0  0  0  0  0  0  0
   11.4033  -16.3022   21.2371 C   0  0  0  0  0  0  0  0  0  0  0  0
   10.6244  -17.1455   22.2367 C   0  0  2  0  0  0  0  0  0  0  0  0
    9.8437  -16.2787   23.0788 N   0  0  0  0  0  0  0  0  0  0  0  0
   11.6685  -17.8483   23.0672 C   0  0  0  0  0  0  0  0  0  0  0  0
   12.7450  -18.2265   22.5502 O   0  0  0  0  0  0  0  0  0  0  0  0
   12.2788  -17.1652   29.4179 N   0  0  0  0  0  0  0  0  0  0  0  0
   11.2592  -16.9152   28.4690 C   0  0  0  0  0  0  0  0  0  0  0  0
   10.2363  -16.2711   28.8857 O   0  0  0  0  0  0  0  0  0  0  0  0
   11.3142  -17.3382   27.0707 C   0  0  0  0  0  0  0  0  0  0  0  0
   12.3293  -18.3363   26.6957 C   0  0  0  0  0  0  0  0  0  0  0  0
   12.4345  -18.7709   25.2829 C   0  0  2  0  0  0  0  0  0  0  0  0
   11.4452  -18.0912   24.4494 N   0  0  0  0  0  0  0  0  0  0  0  0
   12.6451  -20.1673   24.9655 C   0  0  0  0  0  0  0  0  0  0  0  0
   11.8260  -20.9253   24.4045 O   0  0  0  0  0  0  0  0  0  0  0  0
   13.8697  -20.7766   25.3016 O   0  0  0  0  0  0  0  0  0  0  0  0
  2  1  1  0
  3  2  2  0
  4  3  1  0
  5 11  1  0
  5  4  2  0
  6  5  1  0
  7  8  1  1
  7  9  1  0
  7  6  1  0
  9 10  2  0
 11 12  2  0
 12  2  1  0
 14 13  1  6
 14 16  1  0
 15 14  1  0
 15  9  1  0
 16 24  1  0
 16 17  2  0
 18 19  1  0
 19 21  1  0
 20 19  2  0
 22 21  1  0
 23 22  1  1
 24 23  1  0
 25 23  1  0
 25 27  1  0
 26 25  2  0
M  END
$$$$
