YAQ.pdb
     RDKit          3D

 27 27  0  0  1  0  0  0  0  0999 V2000
    5.0948  -10.6489   27.3104 O   0  0  0  0  0  0  0  0  0  0  0  0
    5.8655  -11.6869   26.7729 C   0  0  0  0  0  0  0  0  0  0  0  0
    6.4921  -11.5503   25.5606 C   0  0  0  0  0  0  0  0  0  0  0  0
    7.2294  -12.6145   25.1028 C   0  0  0  0  0  0  0  0  0  0  0  0
    7.3571  -13.7988   25.8148 C   0  0  0  0  0  0  0  0  0  0  0  0
    8.1904  -14.8876   25.2099 C   0  0  0  0  0  0  0  0  0  0  0  0
    7.3514  -15.6885   24.2468 C   0  0  2  0  0  0  0  0  0  0  0  0
    6.4103  -16.5442   24.9513 N   0  0  0  0  0  0  0  0  0  0  0  0
    8.1734  -16.5329   23.3568 C   0  0  0  0  0  0  0  0  0  0  0  0
    8.4873  -17.7260   23.6763 O   0  0  0  0  0  0  0  0  0  0  0  0
    6.7240  -13.9117   27.0200 C   0  0  0  0  0  0  0  0  0  0  0  0
    5.9716  -12.8408   27.4985 C   0  0  0  0  0  0  0  0  0  0  0  0
    9.8300  -16.2014   20.0059 C   0  0  0  0  0  0  0  0  0  0  0  0
    9.5846  -16.8435   21.3640 C   0  0  2  0  0  0  0  0  0  0  0  0
    8.6447  -16.0423   22.1022 N   0  0  0  0  0  0  0  0  0  0  0  0
   10.9205  -16.8252   22.0630 C   0  0  0  0  0  0  0  0  0  0  0  0
   11.3627  -15.7658   22.5641 O   0  0  0  0  0  0  0  0  0  0  0  0
   12.2583  -17.6420   27.3517 N   0  0  0  0  0  0  0  0  0  0  0  0
   12.0312  -18.9433   26.8446 C   0  0  0  0  0  0  0  0  0  0  0  0
   12.5520  -19.9106   27.4989 O   0  0  0  0  0  0  0  0  0  0  0  0
   11.2470  -19.2345   25.6455 C   0  0  0  0  0  0  0  0  0  0  0  0
   11.2935  -18.2604   24.5427 C   0  0  0  0  0  0  0  0  0  0  0  0
   12.2574  -18.4614   23.4353 C   0  0  2  0  0  0  0  0  0  0  0  0
   11.6969  -18.0112   22.1630 N   0  0  0  0  0  0  0  0  0  0  0  0
   13.0381  -19.6780   23.3626 C   0  0  0  0  0  0  0  0  0  0  0  0
   14.0725  -19.9279   24.0168 O   0  0  0  0  0  0  0  0  0  0  0  0
   12.6381  -20.7060   22.4867 O   0  0  0  0  0  0  0  0  0  0  0  0
  2  1  1  0
  3  2  2  0
  4  3  1  0
  5 11  1  0
  5  4  2  0
  6  5  1  0
  7  8  1  1
  7  9  1  0
  7  6  1  0
  9 10  2  0
 11 12  2  0
 12  2  1  0
 14 13  1  6
 14 16  1  0
 15 14  1  0
 15  9  1  0
 16 24  1  0
 16 17  2  0
 18 19  1  0
 19 21  1  0
 20 19  2  0
 22 21  1  0
 23 22  1  1
 24 23  1  0
 25 23  1  0
 25 27  1  0
 26 25  2  0
M  END
$$$$
