YAQ.pdb
     RDKit          3D

 27 27  0  0  1  0  0  0  0  0999 V2000
   10.5733  -14.8454   29.9823 O   0  0  0  0  0  0  0  0  0  0  0  0
    9.8605  -14.8234   28.7774 C   0  0  0  0  0  0  0  0  0  0  0  0
    9.2095  -13.6910   28.3592 C   0  0  0  0  0  0  0  0  0  0  0  0
    8.5330  -13.7509   27.1657 C   0  0  0  0  0  0  0  0  0  0  0  0
    8.4891  -14.8984   26.3864 C   0  0  0  0  0  0  0  0  0  0  0  0
    7.7181  -14.8383   25.1028 C   0  0  0  0  0  0  0  0  0  0  0  0
    8.6420  -15.1234   23.9461 C   0  0  2  0  0  0  0  0  0  0  0  0
    9.8715  -14.3541   24.0499 N   0  0  0  0  0  0  0  0  0  0  0  0
    8.0148  -14.8264   22.6425 C   0  0  0  0  0  0  0  0  0  0  0  0
    6.9161  -15.3704   22.2946 O   0  0  0  0  0  0  0  0  0  0  0  0
    9.1452  -16.0141   26.8233 C   0  0  0  0  0  0  0  0  0  0  0  0
    9.8363  -15.9697   28.0326 C   0  0  0  0  0  0  0  0  0  0  0  0
    8.3992  -12.5808   19.7249 C   0  0  0  0  0  0  0  0  0  0  0  0
    8.2007  -13.9554   20.3478 C   0  0  2  0  0  0  0  0  0  0  0  0
    8.6171  -13.9147   21.7244 N   0  0  0  0  0  0  0  0  0  0  0  0
    9.1067  -14.8801   19.5744 C   0  0  0  0  0  0  0  0  0  0  0  0
    8.9743  -15.0125   18.3359 O   0  0  0  0  0  0  0  0  0  0  0  0
   14.1270  -13.1166   18.1845 N   0  0  0  0  0  0  0  0  0  0  0  0
   14.3527  -14.4962   17.9657 C   0  0  0  0  0  0  0  0  0  0  0  0
   15.4573  -14.8127   17.4048 O   0  0  0  0  0  0  0  0  0  0  0  0
   13.4163  -15.5537   18.3428 C   0  0  0  0  0  0  0  0  0  0  0  0
   12.1715  -15.1571   19.0215 C   0  0  0  0  0  0  0  0  0  0  0  0
   11.2489  -16.2049   19.5186 C   0  0  2  0  0  0  0  0  0  0  0  0
   10.1243  -15.6145   20.2411 N   0  0  0  0  0  0  0  0  0  0  0  0
   11.7756  -17.4224   20.0974 C   0  0  0  0  0  0  0  0  0  0  0  0
   11.4557  -17.9094   21.2023 O   0  0  0  0  0  0  0  0  0  0  0  0
   12.7428  -18.1631   19.3904 O   0  0  0  0  0  0  0  0  0  0  0  0
  2  1  1  0
  3  2  2  0
  4  3  1  0
  5 11  1  0
  5  4  2  0
  6  5  1  0
  7  8  1  1
  7  9  1  0
  7  6  1  0
  9 10  2  0
 11 12  2  0
 12  2  1  0
 14 13  1  6
 14 16  1  0
 15 14  1  0
 15  9  1  0
 16 24  1  0
 16 17  2  0
 18 19  1  0
 19 21  1  0
 20 19  2  0
 22 21  1  0
 23 22  1  1
 24 23  1  0
 25 23  1  0
 25 27  1  0
 26 25  2  0
M  END
$$$$
