YAQ.pdb
     RDKit          3D

 27 27  0  0  1  0  0  0  0  0999 V2000
   15.0960  -22.4805   18.6958 O   0  0  0  0  0  0  0  0  0  0  0  0
   14.5108  -21.3363   19.2514 C   0  0  0  0  0  0  0  0  0  0  0  0
   15.2298  -20.1796   19.4135 C   0  0  0  0  0  0  0  0  0  0  0  0
   14.5831  -19.1015   19.9659 C   0  0  0  0  0  0  0  0  0  0  0  0
   13.2523  -19.1460   20.3568 C   0  0  0  0  0  0  0  0  0  0  0  0
   12.6585  -17.9027   20.9463 C   0  0  0  0  0  0  0  0  0  0  0  0
   11.5389  -17.4116   20.0642 C   0  0  2  0  0  0  0  0  0  0  0  0
   12.0486  -16.8780   18.8114 N   0  0  0  0  0  0  0  0  0  0  0  0
   10.7269  -16.3669   20.7200 C   0  0  0  0  0  0  0  0  0  0  0  0
   11.1529  -15.1717   20.8396 O   0  0  0  0  0  0  0  0  0  0  0  0
   12.5564  -20.3090   20.1855 C   0  0  0  0  0  0  0  0  0  0  0  0
   13.1983  -21.4123   19.6264 C   0  0  0  0  0  0  0  0  0  0  0  0
    7.1905  -15.9111   21.7377 C   0  0  0  0  0  0  0  0  0  0  0  0
    8.6747  -15.5868   21.8330 C   0  0  2  0  0  0  0  0  0  0  0  0
    9.4311  -16.6586   21.2423 N   0  0  0  0  0  0  0  0  0  0  0  0
    8.9743  -15.5123   23.3090 C   0  0  0  0  0  0  0  0  0  0  0  0
    9.5508  -16.4603   23.8904 O   0  0  0  0  0  0  0  0  0  0  0  0
    4.9258  -11.4075   27.0063 N   0  0  0  0  0  0  0  0  0  0  0  0
    6.2924  -11.6448   26.7264 C   0  0  0  0  0  0  0  0  0  0  0  0
    7.0908  -10.6617   26.9025 O   0  0  0  0  0  0  0  0  0  0  0  0
    6.8280  -12.9240   26.2640 C   0  0  0  0  0  0  0  0  0  0  0  0
    8.2823  -13.0241   26.0578 C   0  0  0  0  0  0  0  0  0  0  0  0
    8.8531  -14.2720   25.4985 C   0  0  2  0  0  0  0  0  0  0  0  0
    8.6066  -14.3641   24.0611 N   0  0  0  0  0  0  0  0  0  0  0  0
    8.7235  -15.5189   26.2219 C   0  0  0  0  0  0  0  0  0  0  0  0
    8.0104  -16.4898   25.8914 O   0  0  0  0  0  0  0  0  0  0  0  0
    9.4456  -15.7044   27.4169 O   0  0  0  0  0  0  0  0  0  0  0  0
  2  1  1  0
  3  2  2  0
  4  3  1  0
  5 11  1  0
  5  4  2  0
  6  5  1  0
  7  8  1  6
  7  9  1  0
  7  6  1  0
  9 10  2  0
 11 12  2  0
 12  2  1  0
 14 13  1  1
 14 16  1  0
 15 14  1  0
 15  9  1  0
 16 24  1  0
 16 17  2  0
 18 19  1  0
 19 21  1  0
 20 19  2  0
 22 21  1  0
 23 22  1  1
 24 23  1  0
 25 23  1  0
 25 27  1  0
 26 25  2  0
M  END
$$$$
