YAQ.pdb
     RDKit          3D

 27 27  0  0  1  0  0  0  0  0999 V2000
    8.2540  -12.6746   17.7682 O   0  0  0  0  0  0  0  0  0  0  0  0
    8.1432  -13.2362   19.0460 C   0  0  0  0  0  0  0  0  0  0  0  0
    9.2070  -13.8683   19.6374 C   0  0  0  0  0  0  0  0  0  0  0  0
    9.0171  -14.3926   20.8923 C   0  0  0  0  0  0  0  0  0  0  0  0
    7.8071  -14.3038   21.5659 C   0  0  0  0  0  0  0  0  0  0  0  0
    7.7250  -14.9147   22.9319 C   0  0  0  0  0  0  0  0  0  0  0  0
    7.4696  -16.3953   22.8074 C   0  0  2  0  0  0  0  0  0  0  0  0
    6.0590  -16.6714   22.5880 N   0  0  0  0  0  0  0  0  0  0  0  0
    7.9104  -17.1417   24.0029 C   0  0  0  0  0  0  0  0  0  0  0  0
    7.2677  -17.0761   25.1015 O   0  0  0  0  0  0  0  0  0  0  0  0
    6.7618  -13.6694   20.9569 C   0  0  0  0  0  0  0  0  0  0  0  0
    6.9381  -13.1321   19.6833 C   0  0  0  0  0  0  0  0  0  0  0  0
   10.4535  -19.7364   24.8604 C   0  0  0  0  0  0  0  0  0  0  0  0
    9.5019  -18.5955   25.1916 C   0  0  2  0  0  0  0  0  0  0  0  0
    9.0737  -17.9680   23.9698 N   0  0  0  0  0  0  0  0  0  0  0  0
   10.3153  -17.6180   26.0020 C   0  0  0  0  0  0  0  0  0  0  0  0
   10.9170  -16.6725   25.4426 O   0  0  0  0  0  0  0  0  0  0  0  0
    9.4688  -12.9772   26.6990 N   0  0  0  0  0  0  0  0  0  0  0  0
    8.7318  -13.8036   27.5800 C   0  0  0  0  0  0  0  0  0  0  0  0
    7.5102  -13.4818   27.7777 O   0  0  0  0  0  0  0  0  0  0  0  0
    9.2772  -14.9801   28.2550 C   0  0  0  0  0  0  0  0  0  0  0  0
   10.6478  -15.3936   27.9118 C   0  0  0  0  0  0  0  0  0  0  0  0
   11.0967  -16.7670   28.2408 C   0  0  2  0  0  0  0  0  0  0  0  0
   10.4101  -17.7563   27.4131 N   0  0  0  0  0  0  0  0  0  0  0  0
   11.2946  -17.1563   29.6207 C   0  0  0  0  0  0  0  0  0  0  0  0
   12.0918  -16.6305   30.4259 O   0  0  0  0  0  0  0  0  0  0  0  0
   10.5447  -18.2229   30.1535 O   0  0  0  0  0  0  0  0  0  0  0  0
  2  1  1  0
  3  2  2  0
  4  3  1  0
  5 11  1  0
  5  4  2  0
  6  5  1  0
  7  8  1  1
  7  9  1  0
  7  6  1  0
  9 10  2  0
 11 12  2  0
 12  2  1  0
 14 13  1  6
 14 16  1  0
 15 14  1  0
 15  9  1  0
 16 24  1  0
 16 17  2  0
 18 19  1  0
 19 21  1  0
 20 19  2  0
 22 21  1  0
 23 22  1  1
 24 23  1  0
 25 23  1  0
 25 27  1  0
 26 25  2  0
M  END
$$$$
