MHI.pdb
     RDKit          3D

 27 27  0  0  1  0  0  0  0  0999 V2000
   19.7292   -9.5083  -20.8675 C   0  0  0  0  0  0  0  0  0  0  0  0
   19.5814  -11.3159  -20.7178 S   0  0  0  0  0  0  0  0  0  0  0  0
   19.3585  -11.7899  -18.9967 C   0  0  0  0  0  0  0  0  0  0  0  0
   19.2425  -10.5606  -18.1420 C   0  0  0  0  0  0  0  0  0  0  0  0
   19.0959  -11.0067  -16.6981 C   0  0  2  0  0  0  0  0  0  0  0  0
   17.9970  -11.9190  -16.6073 N   0  0  0  0  0  0  0  0  0  0  0  0
   18.9565   -9.8391  -15.7987 C   0  0  0  0  0  0  0  0  0  0  0  0
   17.8181   -9.3122  -15.7018 O   0  0  0  0  0  0  0  0  0  0  0  0
   20.0134   -9.2815  -15.0464 N   0  0  0  0  0  0  0  0  0  0  0  0
   19.8282   -8.1754  -14.1487 C   0  0  1  0  0  0  0  0  0  0  0  0
   20.5470   -8.3885  -12.8307 C   0  0  0  0  0  0  0  0  0  0  0  0
   20.3832   -7.2933  -11.8801 C   0  0  0  0  0  0  0  0  0  0  0  0
   21.1530   -6.1643  -11.7473 C   0  0  0  0  0  0  0  0  0  0  0  0
   20.6432   -5.4040  -10.7316 N   0  0  0  0  0  0  0  0  0  0  0  0
   19.5795   -6.0478  -10.2447 C   0  0  0  0  0  0  0  0  0  0  0  0
   19.4246   -7.1997  -10.9482 N   0  0  0  0  0  0  0  0  0  0  0  0
   20.1659   -6.8978  -14.8074 C   0  0  0  0  0  0  0  0  0  0  0  0
   21.2227   -6.7902  -15.5205 O   0  0  0  0  0  0  0  0  0  0  0  0
   17.2567   -2.4001  -17.5818 C   0  0  0  0  0  0  0  0  0  0  0  0
   18.4769   -2.7519  -16.8103 C   0  0  0  0  0  0  0  0  0  0  0  0
   18.4823   -4.0427  -16.0884 C   0  0  2  0  0  0  0  0  0  0  0  0
   17.2289   -4.3222  -15.2956 C   0  0  0  0  0  0  0  0  0  0  0  0
   19.7370   -4.4602  -15.3905 C   0  0  2  0  0  0  0  0  0  0  0  0
   19.3824   -5.7299  -14.7136 N   0  0  0  0  0  0  0  0  0  0  0  0
   20.1223   -3.5398  -14.3116 C   0  0  0  0  0  0  0  0  0  0  0  0
   19.8423   -3.7425  -12.9535 O   0  0  0  0  0  0  0  0  0  0  0  0
   20.7576   -2.4483  -14.5316 O   0  0  0  0  0  0  0  0  0  0  0  0
  2  1  1  0
  3  2  1  0
  4  3  1  0
  4  5  1  0
  5  6  1  6
  7  5  1  0
  7  8  2  0
  9  7  1  0
 10  9  1  0
 10 11  1  1
 12 11  1  0
 12 13  2  0
 14 13  1  0
 15 16  2  0
 15 14  1  0
 16 12  1  0
 17 10  1  0
 18 17  2  0
 20 19  1  0
 21 20  1  0
 21 22  1  1
 23 21  1  0
 23 24  1  1
 24 17  1  0
 25 23  1  0
 26 25  1  0
 27 25  2  0
M  END
$$$$
