MHI.pdb
     RDKit          3D

 27 27  0  0  1  0  0  0  0  0999 V2000
   28.6839  -20.6106   -9.6021 C   0  0  0  0  0  0  0  0  0  0  0  0
   30.1336  -21.1233  -10.5754 S   0  0  0  0  0  0  0  0  0  0  0  0
   29.7214  -21.2062  -12.3246 C   0  0  0  0  0  0  0  0  0  0  0  0
   28.2731  -20.8618  -12.5222 C   0  0  0  0  0  0  0  0  0  0  0  0
   28.0018  -20.8190  -14.0155 C   0  0  2  0  0  0  0  0  0  0  0  0
   29.0517  -20.0847  -14.6534 N   0  0  0  0  0  0  0  0  0  0  0  0
   26.6567  -20.2650  -14.2899 C   0  0  0  0  0  0  0  0  0  0  0  0
   26.3848  -19.1339  -13.8107 O   0  0  0  0  0  0  0  0  0  0  0  0
   25.6643  -20.9207  -15.0507 N   0  0  0  0  0  0  0  0  0  0  0  0
   24.3798  -20.3366  -15.3198 C   0  0  1  0  0  0  0  0  0  0  0  0
   24.1050  -20.2320  -16.8073 C   0  0  0  0  0  0  0  0  0  0  0  0
   24.9804  -19.2990  -17.5096 C   0  0  0  0  0  0  0  0  0  0  0  0
   25.2369  -17.9850  -17.2052 C   0  0  0  0  0  0  0  0  0  0  0  0
   26.1172  -17.4865  -18.1251 N   0  0  0  0  0  0  0  0  0  0  0  0
   26.4008  -18.4705  -18.9820 C   0  0  0  0  0  0  0  0  0  0  0  0
   25.7052  -19.5742  -18.6028 N   0  0  0  0  0  0  0  0  0  0  0  0
   23.3154  -21.0313  -14.5685 C   0  0  0  0  0  0  0  0  0  0  0  0
   23.2977  -22.3083  -14.4912 O   0  0  0  0  0  0  0  0  0  0  0  0
   22.7229  -20.4828   -9.6252 C   0  0  0  0  0  0  0  0  0  0  0  0
   22.5964  -20.9498  -11.0300 C   0  0  0  0  0  0  0  0  0  0  0  0
   21.3402  -20.6368  -11.7452 C   0  0  2  0  0  0  0  0  0  0  0  0
   20.0884  -20.8214  -10.9228 C   0  0  0  0  0  0  0  0  0  0  0  0
   21.1978  -21.0929  -13.1620 C   0  0  2  0  0  0  0  0  0  0  0  0
   22.2665  -20.3737  -13.8946 N   0  0  0  0  0  0  0  0  0  0  0  0
   19.9395  -20.6510  -13.7792 C   0  0  0  0  0  0  0  0  0  0  0  0
   18.8030  -21.4557  -13.9353 O   0  0  0  0  0  0  0  0  0  0  0  0
   19.7774  -19.4655  -14.2396 O   0  0  0  0  0  0  0  0  0  0  0  0
  2  1  1  0
  3  2  1  0
  4  3  1  0
  4  5  1  0
  5  6  1  6
  7  5  1  0
  7  8  2  0
  9  7  1  0
 10  9  1  0
 10 11  1  6
 12 11  1  0
 12 13  2  0
 14 13  1  0
 15 16  2  0
 15 14  1  0
 16 12  1  0
 17 10  1  0
 18 17  2  0
 20 19  1  0
 21 20  1  0
 21 22  1  1
 23 21  1  0
 23 24  1  6
 24 17  1  0
 25 23  1  0
 26 25  1  0
 27 25  2  0
M  END
$$$$
