MHI.pdb
     RDKit          3D

 27 27  0  0  1  0  0  0  0  0999 V2000
   28.1195  -11.2776  -15.5102 C   0  0  0  0  0  0  0  0  0  0  0  0
   27.9926  -13.0387  -15.9508 S   0  0  0  0  0  0  0  0  0  0  0  0
   26.2728  -13.5037  -16.2015 C   0  0  0  0  0  0  0  0  0  0  0  0
   25.4234  -12.2699  -16.3091 C   0  0  0  0  0  0  0  0  0  0  0  0
   23.9759  -12.7085  -16.4424 C   0  0  2  0  0  0  0  0  0  0  0  0
   23.8377  -13.4831  -17.6379 N   0  0  0  0  0  0  0  0  0  0  0  0
   23.0667  -11.5411  -16.3991 C   0  0  0  0  0  0  0  0  0  0  0  0
   22.9469  -10.8579  -17.4488 O   0  0  0  0  0  0  0  0  0  0  0  0
   22.3290  -11.1468  -15.2615 N   0  0  0  0  0  0  0  0  0  0  0  0
   21.4218  -10.0331  -15.2720 C   0  0  1  0  0  0  0  0  0  0  0  0
   20.1507  -10.3300  -14.5004 C   0  0  0  0  0  0  0  0  0  0  0  0
   19.2183  -11.2046  -15.2045 C   0  0  0  0  0  0  0  0  0  0  0  0
   19.3056  -11.6761  -16.4909 C   0  0  0  0  0  0  0  0  0  0  0  0
   18.2175  -12.4649  -16.7427 N   0  0  0  0  0  0  0  0  0  0  0  0
   17.4710  -12.4824  -15.6358 C   0  0  0  0  0  0  0  0  0  0  0  0
   18.0851  -11.7124  -14.7001 N   0  0  0  0  0  0  0  0  0  0  0  0
   22.1003   -8.7946  -14.8410 C   0  0  0  0  0  0  0  0  0  0  0  0
   22.8075   -8.7746  -13.7750 O   0  0  0  0  0  0  0  0  0  0  0  0
   24.4838   -3.8485  -17.5262 C   0  0  0  0  0  0  0  0  0  0  0  0
   23.9285   -4.4191  -16.2717 C   0  0  0  0  0  0  0  0  0  0  0  0
   23.2686   -5.7401  -16.3535 C   0  0  2  0  0  0  0  0  0  0  0  0
   22.3550   -5.9114  -17.5425 C   0  0  0  0  0  0  0  0  0  0  0  0
   22.7327   -6.3448  -15.0954 C   0  0  2  0  0  0  0  0  0  0  0  0
   22.0327   -7.5728  -15.5405 N   0  0  0  0  0  0  0  0  0  0  0  0
   21.6977   -5.5166  -14.4610 C   0  0  0  0  0  0  0  0  0  0  0  0
   20.3257   -5.8013  -14.4821 O   0  0  0  0  0  0  0  0  0  0  0  0
   21.9728   -4.4380  -13.8249 O   0  0  0  0  0  0  0  0  0  0  0  0
  2  1  1  0
  3  2  1  0
  4  3  1  0
  4  5  1  0
  5  6  1  6
  7  5  1  0
  7  8  2  0
  9  7  1  0
 10  9  1  0
 10 11  1  1
 12 11  1  0
 12 13  2  0
 14 13  1  0
 15 16  2  0
 15 14  1  0
 16 12  1  0
 17 10  1  0
 18 17  2  0
 20 19  1  0
 21 20  1  0
 21 22  1  6
 23 21  1  0
 23 24  1  6
 24 17  1  0
 25 23  1  0
 26 25  1  0
 27 25  2  0
M  END
$$$$
