MHI.pdb
     RDKit          3D

 27 27  0  0  1  0  0  0  0  0999 V2000
   23.8295  -17.9736  -21.1501 C   0  0  0  0  0  0  0  0  0  0  0  0
   25.4970  -17.3771  -21.5691 S   0  0  0  0  0  0  0  0  0  0  0  0
   26.7020  -17.9870  -20.3806 C   0  0  0  0  0  0  0  0  0  0  0  0
   25.9963  -18.6891  -19.2562 C   0  0  0  0  0  0  0  0  0  0  0  0
   27.0388  -19.0918  -18.2284 C   0  0  2  0  0  0  0  0  0  0  0  0
   27.9874  -19.9633  -18.8518 N   0  0  0  0  0  0  0  0  0  0  0  0
   26.3975  -19.6901  -17.0358 C   0  0  0  0  0  0  0  0  0  0  0  0
   25.3671  -20.3885  -17.2182 O   0  0  0  0  0  0  0  0  0  0  0  0
   26.8654  -19.5283  -15.7134 N   0  0  0  0  0  0  0  0  0  0  0  0
   26.1816  -20.0765  -14.5752 C   0  0  1  0  0  0  0  0  0  0  0  0
   26.9860  -19.9176  -13.2998 C   0  0  0  0  0  0  0  0  0  0  0  0
   26.3072  -20.4062  -12.1038 C   0  0  0  0  0  0  0  0  0  0  0  0
   26.3143  -21.6773  -11.5850 C   0  0  0  0  0  0  0  0  0  0  0  0
   25.5464  -21.6925  -10.4537 N   0  0  0  0  0  0  0  0  0  0  0  0
   25.0730  -20.4570  -10.2746 C   0  0  0  0  0  0  0  0  0  0  0  0
   25.5395  -19.6756  -11.2832 N   0  0  0  0  0  0  0  0  0  0  0  0
   24.8072  -19.5457  -14.4783 C   0  0  0  0  0  0  0  0  0  0  0  0
   24.5893  -18.2857  -14.5213 O   0  0  0  0  0  0  0  0  0  0  0  0
   19.2813  -20.0239  -16.4741 C   0  0  0  0  0  0  0  0  0  0  0  0
   20.0681  -19.7384  -15.2465 C   0  0  0  0  0  0  0  0  0  0  0  0
   21.4955  -20.1256  -15.2425 C   0  0  2  0  0  0  0  0  0  0  0  0
   21.7744  -21.4961  -15.8094 C   0  0  0  0  0  0  0  0  0  0  0  0
   22.3159  -19.7991  -14.0358 C   0  0  2  0  0  0  0  0  0  0  0  0
   23.6583  -20.3499  -14.3373 N   0  0  0  0  0  0  0  0  0  0  0  0
   21.8662  -20.5108  -12.8313 C   0  0  0  0  0  0  0  0  0  0  0  0
   22.2626  -21.8074  -12.4774 O   0  0  0  0  0  0  0  0  0  0  0  0
   21.0515  -19.9915  -11.9885 O   0  0  0  0  0  0  0  0  0  0  0  0
  2  1  1  0
  3  2  1  0
  4  3  1  0
  4  5  1  0
  5  6  1  6
  7  5  1  0
  7  8  2  0
  9  7  1  0
 10  9  1  0
 10 11  1  1
 12 11  1  0
 12 13  2  0
 14 13  1  0
 15 16  2  0
 15 14  1  0
 16 12  1  0
 17 10  1  0
 18 17  2  0
 20 19  1  0
 21 20  1  0
 21 22  1  1
 23 21  1  0
 23 24  1  6
 24 17  1  0
 25 23  1  0
 26 25  1  0
 27 25  2  0
M  END
$$$$
