MHI.pdb
     RDKit          3D

 27 27  0  0  1  0  0  0  0  0999 V2000
   32.6370  -21.3398   -8.9735 C   0  0  0  0  0  0  0  0  0  0  0  0
   33.3850  -22.6000  -10.0525 S   0  0  0  0  0  0  0  0  0  0  0  0
   32.6456  -22.5461  -11.6916 C   0  0  0  0  0  0  0  0  0  0  0  0
   31.3946  -21.7159  -11.6577 C   0  0  0  0  0  0  0  0  0  0  0  0
   30.7663  -21.7598  -13.0392 C   0  0  2  0  0  0  0  0  0  0  0  0
   31.7360  -21.3300  -14.0000 N   0  0  0  0  0  0  0  0  0  0  0  0
   29.5201  -20.9615  -13.0756 C   0  0  0  0  0  0  0  0  0  0  0  0
   29.5804  -19.7706  -12.6742 O   0  0  0  0  0  0  0  0  0  0  0  0
   28.2746  -21.4479  -13.5294 N   0  0  0  0  0  0  0  0  0  0  0  0
   27.0637  -20.6796  -13.4455 C   0  0  1  0  0  0  0  0  0  0  0  0
   26.3455  -20.6061  -14.7788 C   0  0  0  0  0  0  0  0  0  0  0  0
   25.0208  -19.9976  -14.7080 C   0  0  0  0  0  0  0  0  0  0  0  0
   23.7984  -20.6211  -14.7518 C   0  0  0  0  0  0  0  0  0  0  0  0
   22.8192  -19.6720  -14.6523 N   0  0  0  0  0  0  0  0  0  0  0  0
   23.4214  -18.4848  -14.5489 C   0  0  0  0  0  0  0  0  0  0  0  0
   24.7642  -18.6880  -14.5833 N   0  0  0  0  0  0  0  0  0  0  0  0
   26.2105  -21.1568  -12.3390 C   0  0  0  0  0  0  0  0  0  0  0  0
   25.9710  -22.4049  -12.1906 O   0  0  0  0  0  0  0  0  0  0  0  0
   26.9396  -19.7389   -7.4388 C   0  0  0  0  0  0  0  0  0  0  0  0
   26.4276  -20.5096   -8.6014 C   0  0  0  0  0  0  0  0  0  0  0  0
   25.0717  -20.1849   -9.0947 C   0  0  2  0  0  0  0  0  0  0  0  0
   24.0030  -20.1758   -8.0292 C   0  0  0  0  0  0  0  0  0  0  0  0
   24.6231  -20.7892  -10.3867 C   0  0  2  0  0  0  0  0  0  0  0  0
   25.6096  -20.3118  -11.3842 N   0  0  0  0  0  0  0  0  0  0  0  0
   23.3274  -20.2656  -10.8413 C   0  0  0  0  0  0  0  0  0  0  0  0
   22.0933  -20.8916  -10.6204 O   0  0  0  0  0  0  0  0  0  0  0  0
   23.2194  -19.1688  -11.4963 O   0  0  0  0  0  0  0  0  0  0  0  0
  2  1  1  0
  3  2  1  0
  4  3  1  0
  4  5  1  0
  5  6  1  6
  7  5  1  0
  7  8  2  0
  9  7  1  0
 10  9  1  0
 10 11  1  6
 12 11  1  0
 12 13  2  0
 14 13  1  0
 15 16  2  0
 15 14  1  0
 16 12  1  0
 17 10  1  0
 18 17  2  0
 20 19  1  0
 21 20  1  0
 21 22  1  1
 23 21  1  0
 23 24  1  6
 24 17  1  0
 25 23  1  0
 26 25  1  0
 27 25  2  0
M  END
$$$$
