MHI.pdb
     RDKit          3D

 27 27  0  0  1  0  0  0  0  0999 V2000
   27.8063  -16.3773  -15.8853 C   0  0  0  0  0  0  0  0  0  0  0  0
   28.1292  -17.9376  -16.7645 S   0  0  0  0  0  0  0  0  0  0  0  0
   28.2416  -19.3053  -15.6011 C   0  0  0  0  0  0  0  0  0  0  0  0
   27.6001  -18.9190  -14.2993 C   0  0  0  0  0  0  0  0  0  0  0  0
   27.8524  -20.0371  -13.3035 C   0  0  2  0  0  0  0  0  0  0  0  0
   27.4474  -21.2775  -13.8914 N   0  0  0  0  0  0  0  0  0  0  0  0
   27.1768  -19.7571  -12.0164 C   0  0  0  0  0  0  0  0  0  0  0  0
   27.4083  -18.6492  -11.4670 O   0  0  0  0  0  0  0  0  0  0  0  0
   26.2939  -20.6487  -11.3689 N   0  0  0  0  0  0  0  0  0  0  0  0
   25.6639  -20.3435  -10.1144 C   0  0  1  0  0  0  0  0  0  0  0  0
   24.2363  -20.8515  -10.0585 C   0  0  0  0  0  0  0  0  0  0  0  0
   23.3692  -20.3036  -11.0968 C   0  0  0  0  0  0  0  0  0  0  0  0
   23.6600  -19.3245  -12.0141 C   0  0  0  0  0  0  0  0  0  0  0  0
   22.5596  -19.1199  -12.7995 N   0  0  0  0  0  0  0  0  0  0  0  0
   21.6063  -19.9546  -12.3783 C   0  0  0  0  0  0  0  0  0  0  0  0
   22.1044  -20.6748  -11.3396 N   0  0  0  0  0  0  0  0  0  0  0  0
   26.4971  -20.7932   -8.9814 C   0  0  0  0  0  0  0  0  0  0  0  0
   27.2926  -21.7870   -9.1099 O   0  0  0  0  0  0  0  0  0  0  0  0
   29.0772  -17.5651   -5.6195 C   0  0  0  0  0  0  0  0  0  0  0  0
   28.5921  -18.7344   -6.3972 C   0  0  0  0  0  0  0  0  0  0  0  0
   27.6516  -19.6593   -5.7283 C   0  0  2  0  0  0  0  0  0  0  0  0
   28.0275  -20.0185   -4.3115 C   0  0  0  0  0  0  0  0  0  0  0  0
   27.1094  -20.8106   -6.5134 C   0  0  2  0  0  0  0  0  0  0  0  0
   26.4909  -20.1889   -7.7080 N   0  0  0  0  0  0  0  0  0  0  0  0
   26.0118  -21.5035   -5.8245 C   0  0  0  0  0  0  0  0  0  0  0  0
   24.6658  -21.4444   -6.2100 O   0  0  0  0  0  0  0  0  0  0  0  0
   26.2013  -22.2328   -4.7873 O   0  0  0  0  0  0  0  0  0  0  0  0
  2  1  1  0
  3  2  1  0
  4  3  1  0
  4  5  1  0
  5  6  1  6
  7  5  1  0
  7  8  2  0
  9  7  1  0
 10  9  1  0
 10 11  1  6
 12 11  1  0
 12 13  2  0
 14 13  1  0
 15 16  2  0
 15 14  1  0
 16 12  1  0
 17 10  1  0
 18 17  2  0
 20 19  1  0
 21 20  1  0
 21 22  1  1
 23 21  1  0
 23 24  1  6
 24 17  1  0
 25 23  1  0
 26 25  1  0
 27 25  2  0
M  END
$$$$
