MHI.pdb
     RDKit          3D

 27 27  0  0  1  0  0  0  0  0999 V2000
   16.4782  -20.6059  -16.3263 C   0  0  0  0  0  0  0  0  0  0  0  0
   16.1617  -21.7347  -17.7182 S   0  0  0  0  0  0  0  0  0  0  0  0
   17.6948  -22.1251  -18.5747 C   0  0  0  0  0  0  0  0  0  0  0  0
   18.7734  -22.4262  -17.5741 C   0  0  0  0  0  0  0  0  0  0  0  0
   20.0595  -22.6887  -18.3372 C   0  0  2  0  0  0  0  0  0  0  0  0
   20.0989  -24.0692  -18.7124 N   0  0  0  0  0  0  0  0  0  0  0  0
   21.2367  -22.2693  -17.5434 C   0  0  0  0  0  0  0  0  0  0  0  0
   21.9789  -23.1740  -17.0814 O   0  0  0  0  0  0  0  0  0  0  0  0
   21.5785  -20.9262  -17.2729 N   0  0  0  0  0  0  0  0  0  0  0  0
   22.7866  -20.5549  -16.5901 C   0  0  1  0  0  0  0  0  0  0  0  0
   23.3228  -19.2209  -17.0718 C   0  0  0  0  0  0  0  0  0  0  0  0
   24.6024  -18.8452  -16.4789 C   0  0  0  0  0  0  0  0  0  0  0  0
   25.3236  -19.5175  -15.5236 C   0  0  0  0  0  0  0  0  0  0  0  0
   26.4637  -18.8110  -15.2581 N   0  0  0  0  0  0  0  0  0  0  0  0
   26.4500  -17.7232  -16.0324 C   0  0  0  0  0  0  0  0  0  0  0  0
   25.3129  -17.7481  -16.7754 N   0  0  0  0  0  0  0  0  0  0  0  0
   22.6102  -20.6282  -15.1260 C   0  0  0  0  0  0  0  0  0  0  0  0
   21.4665  -20.4131  -14.5945 O   0  0  0  0  0  0  0  0  0  0  0  0
   26.2945  -21.5762  -10.1690 C   0  0  0  0  0  0  0  0  0  0  0  0
   24.9294  -21.5786  -10.7555 C   0  0  0  0  0  0  0  0  0  0  0  0
   24.8011  -21.2542  -12.1928 C   0  0  2  0  0  0  0  0  0  0  0  0
   25.7935  -20.2346  -12.6959 C   0  0  0  0  0  0  0  0  0  0  0  0
   23.4289  -21.0849  -12.7623 C   0  0  2  0  0  0  0  0  0  0  0  0
   23.6464  -20.9322  -14.2202 N   0  0  0  0  0  0  0  0  0  0  0  0
   22.7840  -19.8361  -12.3333 C   0  0  0  0  0  0  0  0  0  0  0  0
   22.6902  -18.6780  -13.1167 O   0  0  0  0  0  0  0  0  0  0  0  0
   22.2454  -19.7008  -11.1778 O   0  0  0  0  0  0  0  0  0  0  0  0
  2  1  1  0
  3  2  1  0
  4  3  1  0
  4  5  1  0
  5  6  1  1
  7  5  1  0
  7  8  2  0
  9  7  1  0
 10  9  1  0
 10 11  1  1
 12 11  1  0
 12 13  2  0
 14 13  1  0
 15 16  2  0
 15 14  1  0
 16 12  1  0
 17 10  1  0
 18 17  2  0
 20 19  1  0
 21 20  1  0
 21 22  1  1
 23 21  1  0
 23 24  1  6
 24 17  1  0
 25 23  1  0
 26 25  1  0
 27 25  2  0
M  END
$$$$
