MHI.pdb
     RDKit          3D

 27 27  0  0  1  0  0  0  0  0999 V2000
   24.6089  -17.5604  -18.0644 C   0  0  0  0  0  0  0  0  0  0  0  0
   25.2672  -19.1279  -18.7137 S   0  0  0  0  0  0  0  0  0  0  0  0
   25.8648  -20.1652  -17.3708 C   0  0  0  0  0  0  0  0  0  0  0  0
   26.5319  -19.3137  -16.3291 C   0  0  0  0  0  0  0  0  0  0  0  0
   27.1154  -20.2364  -15.2739 C   0  0  2  0  0  0  0  0  0  0  0  0
   27.9109  -21.2334  -15.9229 N   0  0  0  0  0  0  0  0  0  0  0  0
   26.0450  -20.8092  -14.4266 C   0  0  0  0  0  0  0  0  0  0  0  0
   25.4867  -21.8627  -14.8279 O   0  0  0  0  0  0  0  0  0  0  0  0
   25.6126  -20.2521  -13.2032 N   0  0  0  0  0  0  0  0  0  0  0  0
   24.5776  -20.8451  -12.4028 C   0  0  1  0  0  0  0  0  0  0  0  0
   24.7302  -20.5019  -10.9338 C   0  0  0  0  0  0  0  0  0  0  0  0
   26.0627  -20.7613  -10.3977 C   0  0  0  0  0  0  0  0  0  0  0  0
   27.1506  -21.2873  -11.0494 C   0  0  0  0  0  0  0  0  0  0  0  0
   28.1955  -21.3573  -10.1704 N   0  0  0  0  0  0  0  0  0  0  0  0
   27.7650  -20.8847   -8.9982 C   0  0  0  0  0  0  0  0  0  0  0  0
   26.4635  -20.5223   -9.1413 N   0  0  0  0  0  0  0  0  0  0  0  0
   23.2421  -20.5312  -12.9485 C   0  0  0  0  0  0  0  0  0  0  0  0
   22.9475  -19.3394  -13.3085 O   0  0  0  0  0  0  0  0  0  0  0  0
   21.5791  -23.1822  -16.9656 C   0  0  0  0  0  0  0  0  0  0  0  0
   21.7210  -22.1449  -15.9113 C   0  0  0  0  0  0  0  0  0  0  0  0
   20.7250  -22.1390  -14.8180 C   0  0  2  0  0  0  0  0  0  0  0  0
   19.2944  -22.2938  -15.2730 C   0  0  0  0  0  0  0  0  0  0  0  0
   20.8960  -21.1524  -13.7076 C   0  0  2  0  0  0  0  0  0  0  0  0
   22.2144  -21.4812  -13.1162 N   0  0  0  0  0  0  0  0  0  0  0  0
   19.9251  -21.3431  -12.6211 C   0  0  0  0  0  0  0  0  0  0  0  0
   18.8071  -20.5278  -12.3995 O   0  0  0  0  0  0  0  0  0  0  0  0
   20.0273  -22.2918  -11.7649 O   0  0  0  0  0  0  0  0  0  0  0  0
  2  1  1  0
  3  2  1  0
  4  3  1  0
  4  5  1  0
  5  6  1  6
  7  5  1  0
  7  8  2  0
  9  7  1  0
 10  9  1  0
 10 11  1  1
 12 11  1  0
 12 13  2  0
 14 13  1  0
 15 16  2  0
 15 14  1  0
 16 12  1  0
 17 10  1  0
 18 17  2  0
 20 19  1  0
 21 20  1  0
 21 22  1  6
 23 21  1  0
 23 24  1  1
 24 17  1  0
 25 23  1  0
 26 25  1  0
 27 25  2  0
M  END
$$$$
