MHI.pdb
     RDKit          3D

 27 27  0  0  1  0  0  0  0  0999 V2000
   31.5753  -23.6366  -14.7196 C   0  0  0  0  0  0  0  0  0  0  0  0
   31.5846  -24.6624  -16.2228 S   0  0  0  0  0  0  0  0  0  0  0  0
   30.3638  -24.0648  -17.4014 C   0  0  0  0  0  0  0  0  0  0  0  0
   29.7207  -22.8134  -16.8764 C   0  0  0  0  0  0  0  0  0  0  0  0
   28.7889  -22.2803  -17.9502 C   0  0  2  0  0  0  0  0  0  0  0  0
   29.5665  -21.5903  -18.9337 N   0  0  0  0  0  0  0  0  0  0  0  0
   27.7274  -21.4380  -17.3542 C   0  0  0  0  0  0  0  0  0  0  0  0
   27.9741  -20.2139  -17.2002 O   0  0  0  0  0  0  0  0  0  0  0  0
   26.4624  -21.9173  -16.9494 N   0  0  0  0  0  0  0  0  0  0  0  0
   25.4369  -21.0574  -16.4272 C   0  0  1  0  0  0  0  0  0  0  0  0
   24.3545  -20.7788  -17.4518 C   0  0  0  0  0  0  0  0  0  0  0  0
   24.7821  -19.9166  -18.5490 C   0  0  0  0  0  0  0  0  0  0  0  0
   24.8824  -20.2286  -19.8822 C   0  0  0  0  0  0  0  0  0  0  0  0
   25.3214  -19.1242  -20.5583 N   0  0  0  0  0  0  0  0  0  0  0  0
   25.4898  -18.1477  -19.6634 C   0  0  0  0  0  0  0  0  0  0  0  0
   25.1597  -18.6353  -18.4391 N   0  0  0  0  0  0  0  0  0  0  0  0
   24.9190  -21.5717  -15.1437 C   0  0  0  0  0  0  0  0  0  0  0  0
   24.5497  -22.7914  -15.0303 O   0  0  0  0  0  0  0  0  0  0  0  0
   27.7621  -21.0280  -10.8849 C   0  0  0  0  0  0  0  0  0  0  0  0
   26.7417  -21.4290  -11.8876 C   0  0  0  0  0  0  0  0  0  0  0  0
   25.3605  -20.9372  -11.6936 C   0  0  2  0  0  0  0  0  0  0  0  0
   24.8801  -20.9670  -10.2632 C   0  0  0  0  0  0  0  0  0  0  0  0
   24.3166  -21.3441  -12.6837 C   0  0  2  0  0  0  0  0  0  0  0  0
   24.7926  -20.7942  -13.9748 N   0  0  0  0  0  0  0  0  0  0  0  0
   23.0190  -20.6982  -12.4417 C   0  0  0  0  0  0  0  0  0  0  0  0
   21.9071  -21.3328  -11.8720 O   0  0  0  0  0  0  0  0  0  0  0  0
   22.7928  -19.4729  -12.7436 O   0  0  0  0  0  0  0  0  0  0  0  0
  2  1  1  0
  3  2  1  0
  4  3  1  0
  4  5  1  0
  5  6  1  6
  7  5  1  0
  7  8  2  0
  9  7  1  0
 10  9  1  0
 10 11  1  6
 12 11  1  0
 12 13  2  0
 14 13  1  0
 15 16  2  0
 15 14  1  0
 16 12  1  0
 17 10  1  0
 18 17  2  0
 20 19  1  0
 21 20  1  0
 21 22  1  1
 23 21  1  0
 23 24  1  6
 24 17  1  0
 25 23  1  0
 26 25  1  0
 27 25  2  0
M  END
$$$$
