APS.pdb
     RDKit          3D

 19 19  0  0  1  0  0  0  0  0999 V2000
    7.7592  -16.3617   16.1973 C   0  0  0  0  0  0  0  0  0  0  0  0
    8.6070  -15.1228   16.0653 C   0  0  2  0  0  0  0  0  0  0  0  0
    9.4443  -15.3000   14.8962 N   0  0  0  0  0  0  0  0  0  0  0  0
    9.4387  -14.8339   17.2250 C   0  0  0  0  0  0  0  0  0  0  0  0
   10.5263  -15.4296   17.3514 O   0  0  0  0  0  0  0  0  0  0  0  0
    9.0751  -13.8865   18.2509 N   0  0  0  0  0  0  0  0  0  0  0  0
    7.9654  -12.9945   18.2521 C   0  0  0  0  0  0  0  0  0  0  0  0
    7.5675  -12.8855   19.6935 C   0  0  0  0  0  0  0  0  0  0  0  0
    8.9793  -12.7736   20.3093 C   0  0  0  0  0  0  0  0  0  0  0  0
    9.8117  -13.6898   19.4638 C   0  0  1  0  0  0  0  0  0  0  0  0
   10.1489  -14.9459   20.1819 C   0  0  0  0  0  0  0  0  0  0  0  0
    9.3675  -15.8794   20.3647 O   0  0  0  0  0  0  0  0  0  0  0  0
   13.6831  -16.4323   19.7025 O   0  0  0  0  0  0  0  0  0  0  0  0
   12.6744  -17.1663   20.3626 C   0  0  0  0  0  0  0  0  0  0  0  0
   11.9641  -16.2306   21.3233 C   0  0  2  0  0  0  0  0  0  0  0  0
   11.4844  -15.0477   20.6848 N   0  0  0  0  0  0  0  0  0  0  0  0
   12.9175  -15.9442   22.4239 C   0  0  0  0  0  0  0  0  0  0  0  0
   13.2129  -14.7520   22.6594 O   0  0  0  0  0  0  0  0  0  0  0  0
   13.4921  -16.9371   23.1985 O   0  0  0  0  0  0  0  0  0  0  0  0
  2  3  1  0
  2  1  1  1
  4  5  2  0
  4  2  1  0
  6  4  1  0
  7  6  1  0
  8  7  1  0
  9 10  1  0
  9  8  1  0
 10  6  1  0
 10 11  1  1
 11 12  2  0
 14 13  1  0
 15 14  1  6
 16 11  1  0
 16 15  1  0
 17 15  1  0
 17 19  1  0
 18 17  2  0
M  END
$$$$
