APS.pdb
     RDKit          3D

 19 19  0  0  1  0  0  0  0  0999 V2000
    6.5323  -17.3426   17.6379 C   0  0  0  0  0  0  0  0  0  0  0  0
    7.5544  -16.3172   17.2192 C   0  0  2  0  0  0  0  0  0  0  0  0
    8.3015  -16.8843   16.1149 N   0  0  0  0  0  0  0  0  0  0  0  0
    8.4713  -15.9125   18.2753 C   0  0  0  0  0  0  0  0  0  0  0  0
    9.4544  -16.6349   18.5310 O   0  0  0  0  0  0  0  0  0  0  0  0
    8.3087  -14.7088   19.0545 N   0  0  0  0  0  0  0  0  0  0  0  0
    7.3938  -13.6432   18.8215 C   0  0  0  0  0  0  0  0  0  0  0  0
    7.0385  -13.1419   20.1890 C   0  0  0  0  0  0  0  0  0  0  0  0
    8.4509  -13.1686   20.8130 C   0  0  0  0  0  0  0  0  0  0  0  0
    9.0811  -14.3922   20.2187 C   0  0  1  0  0  0  0  0  0  0  0  0
    9.1744  -15.4976   21.2068 C   0  0  0  0  0  0  0  0  0  0  0  0
    8.2164  -16.1525   21.6175 O   0  0  0  0  0  0  0  0  0  0  0  0
   11.4503  -18.0833   20.8224 O   0  0  0  0  0  0  0  0  0  0  0  0
   11.6684  -17.8845   22.2026 C   0  0  0  0  0  0  0  0  0  0  0  0
   10.7107  -16.8085   22.6800 C   0  0  2  0  0  0  0  0  0  0  0  0
   10.4844  -15.7986   21.6970 N   0  0  0  0  0  0  0  0  0  0  0  0
   11.2717  -16.2670   23.9426 C   0  0  0  0  0  0  0  0  0  0  0  0
   11.5432  -15.0474   23.9978 O   0  0  0  0  0  0  0  0  0  0  0  0
   11.5067  -17.0517   25.0585 O   0  0  0  0  0  0  0  0  0  0  0  0
  2  3  1  0
  2  1  1  1
  4  5  2  0
  4  2  1  0
  6  4  1  0
  7  6  1  0
  8  7  1  0
  9 10  1  0
  9  8  1  0
 10  6  1  0
 10 11  1  1
 11 12  2  0
 14 13  1  0
 15 14  1  6
 16 11  1  0
 16 15  1  0
 17 15  1  0
 17 19  1  0
 18 17  2  0
M  END
$$$$
