APS.pdb
     RDKit          3D

 19 19  0  0  1  0  0  0  0  0999 V2000
    6.7495  -17.4084   17.9745 C   0  0  0  0  0  0  0  0  0  0  0  0
    7.8280  -16.4529   17.5327 C   0  0  2  0  0  0  0  0  0  0  0  0
    8.6582  -17.1574   16.5768 N   0  0  0  0  0  0  0  0  0  0  0  0
    8.6555  -15.9350   18.6129 C   0  0  0  0  0  0  0  0  0  0  0  0
    9.5603  -16.6548   19.0788 O   0  0  0  0  0  0  0  0  0  0  0  0
    8.4893  -14.6205   19.1847 N   0  0  0  0  0  0  0  0  0  0  0  0
    7.6552  -13.5687   18.7102 C   0  0  0  0  0  0  0  0  0  0  0  0
    7.2094  -12.8499   19.9481 C   0  0  0  0  0  0  0  0  0  0  0  0
    8.5591  -12.8350   20.6986 C   0  0  0  0  0  0  0  0  0  0  0  0
    9.1733  -14.1588   20.3557 C   0  0  1  0  0  0  0  0  0  0  0  0
    9.1224  -15.1021   21.5023 C   0  0  0  0  0  0  0  0  0  0  0  0
    8.0875  -15.5564   21.9900 O   0  0  0  0  0  0  0  0  0  0  0  0
   11.5022  -18.0213   21.8169 O   0  0  0  0  0  0  0  0  0  0  0  0
   10.4796  -17.8342   22.7716 C   0  0  0  0  0  0  0  0  0  0  0  0
   10.4763  -16.3717   23.1767 C   0  0  2  0  0  0  0  0  0  0  0  0
   10.3824  -15.4914   22.0572 N   0  0  0  0  0  0  0  0  0  0  0  0
   11.7023  -16.1490   23.9826 C   0  0  0  0  0  0  0  0  0  0  0  0
   12.5803  -15.3821   23.5297 O   0  0  0  0  0  0  0  0  0  0  0  0
   11.9150  -16.7518   25.2104 O   0  0  0  0  0  0  0  0  0  0  0  0
  2  3  1  0
  2  1  1  1
  4  5  2  0
  4  2  1  0
  6  4  1  0
  7  6  1  0
  8  7  1  0
  9 10  1  0
  9  8  1  0
 10  6  1  0
 10 11  1  1
 11 12  2  0
 14 13  1  0
 15 14  1  6
 16 11  1  0
 16 15  1  0
 17 15  1  0
 17 19  1  0
 18 17  2  0
M  END
$$$$
