APS.pdb
     RDKit          3D

 19 19  0  0  1  0  0  0  0  0999 V2000
    6.2946  -14.3813   21.5473 C   0  0  0  0  0  0  0  0  0  0  0  0
    7.4771  -13.5741   22.0177 C   0  0  2  0  0  0  0  0  0  0  0  0
    8.5216  -13.7274   21.0253 N   0  0  0  0  0  0  0  0  0  0  0  0
    7.9857  -13.9551   23.3277 C   0  0  0  0  0  0  0  0  0  0  0  0
    8.8505  -14.8496   23.4029 O   0  0  0  0  0  0  0  0  0  0  0  0
    7.5430  -13.3514   24.5614 N   0  0  0  0  0  0  0  0  0  0  0  0
    6.6726  -12.2354   24.7161 C   0  0  0  0  0  0  0  0  0  0  0  0
    5.9189  -12.5143   25.9817 C   0  0  0  0  0  0  0  0  0  0  0  0
    7.0975  -13.0274   26.8376 C   0  0  0  0  0  0  0  0  0  0  0  0
    7.9371  -13.7985   25.8641 C   0  0  1  0  0  0  0  0  0  0  0  0
    7.8100  -15.2644   26.0691 C   0  0  0  0  0  0  0  0  0  0  0  0
    6.7827  -15.9129   25.8702 O   0  0  0  0  0  0  0  0  0  0  0  0
   10.9192  -17.5720   25.4127 O   0  0  0  0  0  0  0  0  0  0  0  0
    9.6481  -18.1341   25.6583 C   0  0  0  0  0  0  0  0  0  0  0  0
    8.9948  -17.3477   26.7798 C   0  0  2  0  0  0  0  0  0  0  0  0
    8.9823  -15.9423   26.5308 N   0  0  0  0  0  0  0  0  0  0  0  0
    9.7146  -17.7046   28.0274 C   0  0  0  0  0  0  0  0  0  0  0  0
   10.2642  -16.7896   28.6792 O   0  0  0  0  0  0  0  0  0  0  0  0
    9.8035  -19.0029   28.4991 O   0  0  0  0  0  0  0  0  0  0  0  0
  2  3  1  0
  2  1  1  6
  4  5  2  0
  4  2  1  0
  6  4  1  0
  7  6  1  0
  8  7  1  0
  9 10  1  0
  9  8  1  0
 10  6  1  0
 10 11  1  6
 11 12  2  0
 14 13  1  0
 15 14  1  6
 16 11  1  0
 16 15  1  0
 17 15  1  0
 17 19  1  0
 18 17  2  0
M  END
$$$$
