APS.pdb
     RDKit          3D

 19 19  0  0  1  0  0  0  0  0999 V2000
    7.4883  -15.9080   17.7221 C   0  0  0  0  0  0  0  0  0  0  0  0
    8.2356  -14.6304   18.0058 C   0  0  2  0  0  0  0  0  0  0  0  0
    9.1172  -14.3917   16.8810 N   0  0  0  0  0  0  0  0  0  0  0  0
    9.0080  -14.6440   19.2400 C   0  0  0  0  0  0  0  0  0  0  0  0
   10.1614  -15.1164   19.2252 O   0  0  0  0  0  0  0  0  0  0  0  0
    8.5122  -14.1365   20.4965 N   0  0  0  0  0  0  0  0  0  0  0  0
    7.3472  -13.3472   20.7128 C   0  0  0  0  0  0  0  0  0  0  0  0
    6.8457  -13.7716   22.0604 C   0  0  0  0  0  0  0  0  0  0  0  0
    8.2016  -13.8297   22.7975 C   0  0  0  0  0  0  0  0  0  0  0  0
    9.1496  -14.3535   21.7610 C   0  0  1  0  0  0  0  0  0  0  0  0
    9.5214  -15.7682   22.0207 C   0  0  0  0  0  0  0  0  0  0  0  0
    8.8636  -16.7432   21.6574 O   0  0  0  0  0  0  0  0  0  0  0  0
   13.3996  -16.3838   23.0986 O   0  0  0  0  0  0  0  0  0  0  0  0
   12.6554  -17.5017   22.6644 C   0  0  0  0  0  0  0  0  0  0  0  0
   11.2079  -17.2882   23.0668 C   0  0  2  0  0  0  0  0  0  0  0  0
   10.7358  -15.9797   22.7471 N   0  0  0  0  0  0  0  0  0  0  0  0
   11.1178  -17.5941   24.5161 C   0  0  0  0  0  0  0  0  0  0  0  0
   10.6108  -16.7382   25.2741 O   0  0  0  0  0  0  0  0  0  0  0  0
   11.5697  -18.7826   25.0632 O   0  0  0  0  0  0  0  0  0  0  0  0
  2  3  1  0
  2  1  1  6
  4  5  2  0
  4  2  1  0
  6  4  1  0
  7  6  1  0
  8  7  1  0
  9 10  1  0
  9  8  1  0
 10  6  1  0
 10 11  1  1
 11 12  2  0
 14 13  1  0
 15 14  1  1
 16 11  1  0
 16 15  1  0
 17 15  1  0
 17 19  1  0
 18 17  2  0
M  END
$$$$
