APS.pdb
     RDKit          3D

 19 19  0  0  1  0  0  0  0  0999 V2000
    5.5800  -17.7514   19.7579 C   0  0  0  0  0  0  0  0  0  0  0  0
    6.5591  -17.1155   18.8049 C   0  0  2  0  0  0  0  0  0  0  0  0
    6.9905  -18.1470   17.8834 N   0  0  0  0  0  0  0  0  0  0  0  0
    7.7199  -16.5128   19.4447 C   0  0  0  0  0  0  0  0  0  0  0  0
    8.6301  -17.2534   19.8649 O   0  0  0  0  0  0  0  0  0  0  0  0
    7.8826  -15.0902   19.6240 N   0  0  0  0  0  0  0  0  0  0  0  0
    7.1100  -14.0491   19.0357 C   0  0  0  0  0  0  0  0  0  0  0  0
    7.0872  -12.9629   20.0688 C   0  0  0  0  0  0  0  0  0  0  0  0
    8.5692  -13.0288   20.4981 C   0  0  0  0  0  0  0  0  0  0  0  0
    8.8916  -14.4919   20.4464 C   0  0  1  0  0  0  0  0  0  0  0  0
    8.9963  -15.0802   21.8066 C   0  0  0  0  0  0  0  0  0  0  0  0
    8.0486  -15.2381   22.5761 O   0  0  0  0  0  0  0  0  0  0  0  0
   10.7857  -18.2256   22.5240 O   0  0  0  0  0  0  0  0  0  0  0  0
   10.1145  -17.5316   23.5535 C   0  0  0  0  0  0  0  0  0  0  0  0
   10.5438  -16.0771   23.4978 C   0  0  2  0  0  0  0  0  0  0  0  0
   10.3049  -15.4820   22.2227 N   0  0  0  0  0  0  0  0  0  0  0  0
   11.9739  -16.0385   23.8919 C   0  0  0  0  0  0  0  0  0  0  0  0
   12.8152  -15.6718   23.0422 O   0  0  0  0  0  0  0  0  0  0  0  0
   12.4153  -16.3898   25.1560 O   0  0  0  0  0  0  0  0  0  0  0  0
  2  3  1  0
  2  1  1  1
  4  5  2  0
  4  2  1  0
  6  4  1  0
  7  6  1  0
  8  7  1  0
  9 10  1  0
  9  8  1  0
 10  6  1  0
 10 11  1  1
 11 12  2  0
 14 13  1  0
 15 14  1  6
 16 11  1  0
 16 15  1  0
 17 15  1  0
 17 19  1  0
 18 17  2  0
M  END
$$$$
