APS.pdb
     RDKit          3D

 19 19  0  0  1  0  0  0  0  0999 V2000
   10.2774  -13.3326   28.7465 C   0  0  0  0  0  0  0  0  0  0  0  0
    9.1716  -14.3438   28.9081 C   0  0  2  0  0  0  0  0  0  0  0  0
    9.7441  -15.5028   29.5625 N   0  0  0  0  0  0  0  0  0  0  0  0
    8.5362  -14.7481   27.6619 C   0  0  0  0  0  0  0  0  0  0  0  0
    8.7888  -15.8752   27.1935 O   0  0  0  0  0  0  0  0  0  0  0  0
    7.6191  -13.9114   26.9264 N   0  0  0  0  0  0  0  0  0  0  0  0
    6.9984  -12.7089   27.3689 C   0  0  0  0  0  0  0  0  0  0  0  0
    6.8728  -11.8694   26.1332 C   0  0  0  0  0  0  0  0  0  0  0  0
    6.4042  -12.9718   25.1584 C   0  0  0  0  0  0  0  0  0  0  0  0
    7.1733  -14.1831   25.5923 C   0  0  1  0  0  0  0  0  0  0  0  0
    8.2656  -14.5111   24.6403 C   0  0  0  0  0  0  0  0  0  0  0  0
    9.3451  -13.9222   24.5831 O   0  0  0  0  0  0  0  0  0  0  0  0
    7.9564  -18.1508   22.9408 O   0  0  0  0  0  0  0  0  0  0  0  0
    9.2115  -17.5192   22.8076 C   0  0  0  0  0  0  0  0  0  0  0  0
    8.9828  -16.0193   22.7803 C   0  0  2  0  0  0  0  0  0  0  0  0
    8.0148  -15.5934   23.7386 N   0  0  0  0  0  0  0  0  0  0  0  0
    8.6065  -15.6699   21.3880 C   0  0  0  0  0  0  0  0  0  0  0  0
    7.4961  -15.1297   21.1900 O   0  0  0  0  0  0  0  0  0  0  0  0
    9.4295  -15.9157   20.3024 O   0  0  0  0  0  0  0  0  0  0  0  0
  2  3  1  0
  2  1  1  6
  4  5  2  0
  4  2  1  0
  6  4  1  0
  7  6  1  0
  8  7  1  0
  9 10  1  0
  9  8  1  0
 10  6  1  0
 10 11  1  6
 11 12  2  0
 14 13  1  0
 15 14  1  6
 16 11  1  0
 16 15  1  0
 17 15  1  0
 17 19  1  0
 18 17  2  0
M  END
$$$$
