APS.pdb
     RDKit          3D

 19 19  0  0  1  0  0  0  0  0999 V2000
    4.8752  -18.0322   21.5834 C   0  0  0  0  0  0  0  0  0  0  0  0
    5.7174  -17.5832   20.4171 C   0  0  2  0  0  0  0  0  0  0  0  0
    5.8778  -18.7256   19.5405 N   0  0  0  0  0  0  0  0  0  0  0  0
    7.0254  -17.0585   20.7833 C   0  0  0  0  0  0  0  0  0  0  0  0
    7.9557  -17.8577   21.0057 O   0  0  0  0  0  0  0  0  0  0  0  0
    7.3136  -15.6499   20.9059 N   0  0  0  0  0  0  0  0  0  0  0  0
    6.4922  -14.5594   20.5021 C   0  0  0  0  0  0  0  0  0  0  0  0
    6.7773  -13.4789   21.5016 C   0  0  0  0  0  0  0  0  0  0  0  0
    8.3114  -13.6401   21.5766 C   0  0  0  0  0  0  0  0  0  0  0  0
    8.5210  -15.1204   21.4663 C   0  0  1  0  0  0  0  0  0  0  0  0
    8.9011  -15.7206   22.7710 C   0  0  0  0  0  0  0  0  0  0  0  0
    8.1820  -15.7379   23.7700 O   0  0  0  0  0  0  0  0  0  0  0  0
   11.2773  -18.8807   22.9661 O   0  0  0  0  0  0  0  0  0  0  0  0
   10.6389  -18.3613   24.1126 C   0  0  0  0  0  0  0  0  0  0  0  0
   10.7263  -16.8475   24.0546 C   0  0  2  0  0  0  0  0  0  0  0  0
   10.2018  -16.3128   22.8396 N   0  0  0  0  0  0  0  0  0  0  0  0
   12.1510  -16.4933   24.2712 C   0  0  0  0  0  0  0  0  0  0  0  0
   12.6919  -16.8349   25.3459 O   0  0  0  0  0  0  0  0  0  0  0  0
   12.9047  -15.8031   23.3375 O   0  0  0  0  0  0  0  0  0  0  0  0
  2  3  1  0
  2  1  1  1
  4  5  2  0
  4  2  1  0
  6  4  1  0
  7  6  1  0
  8  7  1  0
  9 10  1  0
  9  8  1  0
 10  6  1  0
 10 11  1  1
 11 12  2  0
 14 13  1  0
 15 14  1  6
 16 11  1  0
 16 15  1  0
 17 15  1  0
 17 19  1  0
 18 17  2  0
M  END
$$$$
