APS.pdb
     RDKit          3D

 19 19  0  0  1  0  0  0  0  0999 V2000
    6.1084  -14.8624   22.1146 C   0  0  0  0  0  0  0  0  0  0  0  0
    7.2590  -13.9142   22.3342 C   0  0  2  0  0  0  0  0  0  0  0  0
    8.1631  -14.0720   21.2131 N   0  0  0  0  0  0  0  0  0  0  0  0
    7.9826  -14.1211   23.5807 C   0  0  0  0  0  0  0  0  0  0  0  0
    8.8932  -14.9715   23.6161 O   0  0  0  0  0  0  0  0  0  0  0  0
    7.7054  -13.3910   24.7941 N   0  0  0  0  0  0  0  0  0  0  0  0
    6.8294  -12.2804   24.9558 C   0  0  0  0  0  0  0  0  0  0  0  0
    6.2798  -12.4291   26.3427 C   0  0  0  0  0  0  0  0  0  0  0  0
    7.5883  -12.8219   27.0628 C   0  0  0  0  0  0  0  0  0  0  0  0
    8.3017  -13.6822   26.0637 C   0  0  1  0  0  0  0  0  0  0  0  0
    8.2565  -15.1179   26.4427 C   0  0  0  0  0  0  0  0  0  0  0  0
    7.2456  -15.8195   26.4094 O   0  0  0  0  0  0  0  0  0  0  0  0
   11.5481  -17.1565   25.9689 O   0  0  0  0  0  0  0  0  0  0  0  0
   10.4148  -17.9071   26.3486 C   0  0  0  0  0  0  0  0  0  0  0  0
    9.5832  -17.0586   27.2927 C   0  0  2  0  0  0  0  0  0  0  0  0
    9.4920  -15.6976   26.8726 N   0  0  0  0  0  0  0  0  0  0  0  0
   10.1850  -17.2054   28.6412 C   0  0  0  0  0  0  0  0  0  0  0  0
   10.5264  -16.1710   29.2557 O   0  0  0  0  0  0  0  0  0  0  0  0
   10.3840  -18.4345   29.2461 O   0  0  0  0  0  0  0  0  0  0  0  0
  2  3  1  0
  2  1  1  6
  4  5  2  0
  4  2  1  0
  6  4  1  0
  7  6  1  0
  8  7  1  0
  9 10  1  0
  9  8  1  0
 10  6  1  0
 10 11  1  1
 11 12  2  0
 14 13  1  0
 15 14  1  6
 16 11  1  0
 16 15  1  0
 17 15  1  0
 17 19  1  0
 18 17  2  0
M  END
$$$$
