CVD.pdb
     RDKit          3D

 22 21  0  0  1  0  0  0  0  0999 V2000
    6.0447  -16.1496   21.3990 N   0  0  0  0  0  0  0  0  0  0  0  0
    5.9181  -16.3791   22.8193 C   0  0  1  0  0  0  0  0  0  0  0  0
    6.2925  -17.8339   23.0517 C   0  0  0  0  0  0  0  0  0  0  0  0
    6.1836  -18.2672   24.7886 S   0  0  0  0  0  0  0  0  0  0  0  0
    6.8954  -15.5113   23.5577 C   0  0  0  0  0  0  0  0  0  0  0  0
    8.0302  -15.3434   23.0712 O   0  0  0  0  0  0  0  0  0  0  0  0
    7.6972  -12.6144   27.5092 C   0  0  0  0  0  0  0  0  0  0  0  0
    6.7911  -13.3059   26.5372 C   0  0  1  0  0  0  0  0  0  0  0  0
    5.9777  -12.2779   25.7461 C   0  0  0  0  0  0  0  0  0  0  0  0
    7.4963  -14.1933   25.5763 C   0  0  2  0  0  0  0  0  0  0  0  0
    6.5159  -14.9056   24.7791 N   0  0  0  0  0  0  0  0  0  0  0  0
    8.3863  -15.1504   26.2889 C   0  0  0  0  0  0  0  0  0  0  0  0
    7.9589  -16.1146   26.9659 O   0  0  0  0  0  0  0  0  0  0  0  0
    9.8239  -15.0086   26.2310 N   0  0  0  0  0  0  0  0  0  0  0  0
   10.6774  -16.0591   26.8080 C   0  0  1  0  0  0  0  0  0  0  0  0
   12.0264  -16.0933   26.1602 C   0  0  0  0  0  0  0  0  0  0  0  0
   12.9305  -17.1010   26.7129 C   0  0  0  0  0  0  0  0  0  0  0  0
   12.6011  -18.3105   26.6889 O   0  0  0  0  0  0  0  0  0  0  0  0
   10.7299  -15.9247   28.2838 C   0  0  0  0  0  0  0  0  0  0  0  0
   11.2075  -16.7398   29.0870 O   0  0  0  0  0  0  0  0  0  0  0  0
   14.1435  -16.7500   27.2629 O   0  0  0  0  0  0  0  0  0  0  0  0
   10.1856  -14.7477   28.8649 O   0  0  0  0  0  0  0  0  0  0  0  0
  2  1  1  6
  3  2  1  0
  4  3  1  0
  5  2  1  0
  5  6  2  0
  8  7  1  1
  8 10  1  0
  9  8  1  0
 10 11  1  1
 10 12  1  0
 11  5  1  0
 12 14  1  0
 12 13  2  0
 14 15  1  0
 15 16  1  6
 17 16  1  0
 17 21  1  0
 18 17  2  0
 19 15  1  0
 20 19  2  0
 22 19  1  0
M  END
$$$$
