CVD.pdb
     RDKit          3D

 22 21  0  0  1  0  0  0  0  0999 V2000
    7.8172  -14.3560   20.0017 N   0  0  0  0  0  0  0  0  0  0  0  0
    7.1406  -14.8085   21.1947 C   0  0  1  0  0  0  0  0  0  0  0  0
    7.0766  -16.3242   21.1002 C   0  0  0  0  0  0  0  0  0  0  0  0
    6.3077  -17.0377   22.5550 S   0  0  0  0  0  0  0  0  0  0  0  0
    7.9517  -14.4398   22.4029 C   0  0  0  0  0  0  0  0  0  0  0  0
    9.1930  -14.5236   22.3364 O   0  0  0  0  0  0  0  0  0  0  0  0
    5.9143  -13.4900   26.0527 C   0  0  0  0  0  0  0  0  0  0  0  0
    7.2692  -12.9417   25.7247 C   0  0  1  0  0  0  0  0  0  0  0  0
    8.0799  -12.7286   27.0060 C   0  0  0  0  0  0  0  0  0  0  0  0
    8.0606  -13.7937   24.7994 C   0  0  2  0  0  0  0  0  0  0  0  0
    7.3004  -14.0080   23.5829 N   0  0  0  0  0  0  0  0  0  0  0  0
    8.4063  -15.0941   25.4363 C   0  0  0  0  0  0  0  0  0  0  0  0
    7.6147  -16.0639   25.4951 O   0  0  0  0  0  0  0  0  0  0  0  0
    9.7066  -15.3044   26.0321 N   0  0  0  0  0  0  0  0  0  0  0  0
   10.0514  -16.6323   26.5639 C   0  0  1  0  0  0  0  0  0  0  0  0
   11.2739  -17.1913   25.9052 C   0  0  0  0  0  0  0  0  0  0  0  0
   11.6854  -18.4976   26.4173 C   0  0  0  0  0  0  0  0  0  0  0  0
   12.8749  -18.6800   26.7690 O   0  0  0  0  0  0  0  0  0  0  0  0
   10.1422  -16.5850   28.0432 C   0  0  0  0  0  0  0  0  0  0  0  0
   10.2149  -15.5692   28.7505 O   0  0  0  0  0  0  0  0  0  0  0  0
   10.7907  -19.5394   26.5230 O   0  0  0  0  0  0  0  0  0  0  0  0
   10.1456  -17.8180   28.7496 O   0  0  0  0  0  0  0  0  0  0  0  0
  2  1  1  6
  3  2  1  0
  4  3  1  0
  5  2  1  0
  5  6  2  0
  8  7  1  1
  8 10  1  0
  9  8  1  0
 10 11  1  6
 10 12  1  0
 11  5  1  0
 12 14  1  0
 12 13  2  0
 14 15  1  0
 15 16  1  6
 17 16  1  0
 17 21  1  0
 18 17  2  0
 19 15  1  0
 20 19  2  0
 22 19  1  0
M  END
$$$$
