CVD.pdb
     RDKit          3D

 22 21  0  0  1  0  0  0  0  0999 V2000
    8.8965  -17.3860   15.9321 N   0  0  0  0  0  0  0  0  0  0  0  0
    7.9591  -17.1555   17.0063 C   0  0  1  0  0  0  0  0  0  0  0  0
    7.5913  -18.5252   17.5531 C   0  0  0  0  0  0  0  0  0  0  0  0
    8.8845  -19.1745   18.6127 S   0  0  0  0  0  0  0  0  0  0  0  0
    8.6278  -16.3703   18.0970 C   0  0  0  0  0  0  0  0  0  0  0  0
    9.8711  -16.2875   18.0963 O   0  0  0  0  0  0  0  0  0  0  0  0
    7.9554  -13.5070   22.1033 C   0  0  0  0  0  0  0  0  0  0  0  0
    7.4725  -14.1470   20.8379 C   0  0  1  0  0  0  0  0  0  0  0  0
    7.0088  -13.0772   19.8455 C   0  0  0  0  0  0  0  0  0  0  0  0
    8.4829  -15.0074   20.1693 C   0  0  2  0  0  0  0  0  0  0  0  0
    7.8442  -15.7446   19.0957 N   0  0  0  0  0  0  0  0  0  0  0  0
    9.1150  -15.9411   21.1413 C   0  0  0  0  0  0  0  0  0  0  0  0
    8.6152  -17.0453   21.4600 O   0  0  0  0  0  0  0  0  0  0  0  0
   10.3689  -15.6086   21.7795 N   0  0  0  0  0  0  0  0  0  0  0  0
   11.0208  -16.5987   22.6511 C   0  0  1  0  0  0  0  0  0  0  0  0
   12.4939  -16.6749   22.3961 C   0  0  0  0  0  0  0  0  0  0  0  0
   13.2101  -17.5826   23.2912 C   0  0  0  0  0  0  0  0  0  0  0  0
   13.2719  -18.8044   23.0169 O   0  0  0  0  0  0  0  0  0  0  0  0
   10.6757  -16.3400   24.0698 C   0  0  0  0  0  0  0  0  0  0  0  0
   10.2192  -15.2887   24.5429 O   0  0  0  0  0  0  0  0  0  0  0  0
   13.8227  -17.1235   24.4362 O   0  0  0  0  0  0  0  0  0  0  0  0
   10.8766  -17.3900   25.0059 O   0  0  0  0  0  0  0  0  0  0  0  0
  2  1  1  6
  3  2  1  0
  4  3  1  0
  5  2  1  0
  5  6  2  0
  8  7  1  1
  8 10  1  0
  9  8  1  0
 10 11  1  6
 10 12  1  0
 11  5  1  0
 12 14  1  0
 12 13  2  0
 14 15  1  0
 15 16  1  1
 17 16  1  0
 17 21  1  0
 18 17  2  0
 19 15  1  0
 20 19  2  0
 22 19  1  0
M  END
$$$$
