CVD.pdb
     RDKit          3D

 22 21  0  0  1  0  0  0  0  0999 V2000
    9.1902  -17.4060   29.0718 N   0  0  0  0  0  0  0  0  0  0  0  0
    9.1626  -16.0296   28.6355 C   0  0  1  0  0  0  0  0  0  0  0  0
   10.5565  -15.7186   28.1153 C   0  0  0  0  0  0  0  0  0  0  0  0
   10.8424  -13.9501   28.0294 S   0  0  0  0  0  0  0  0  0  0  0  0
    8.1871  -15.8804   27.5043 C   0  0  0  0  0  0  0  0  0  0  0  0
    7.6300  -16.9018   27.0584 O   0  0  0  0  0  0  0  0  0  0  0  0
    6.0741  -12.4335   26.9903 C   0  0  0  0  0  0  0  0  0  0  0  0
    6.6167  -13.0235   25.7248 C   0  0  1  0  0  0  0  0  0  0  0  0
    7.8227  -12.2160   25.2371 C   0  0  0  0  0  0  0  0  0  0  0  0
    7.0178  -14.4494   25.8436 C   0  0  2  0  0  0  0  0  0  0  0  0
    7.9196  -14.5975   26.9700 N   0  0  0  0  0  0  0  0  0  0  0  0
    7.6631  -14.9278   24.5903 C   0  0  0  0  0  0  0  0  0  0  0  0
    7.0959  -14.9078   23.4729 O   0  0  0  0  0  0  0  0  0  0  0  0
    9.0107  -15.4513   24.6043 N   0  0  0  0  0  0  0  0  0  0  0  0
    9.5746  -16.0278   23.3736 C   0  0  1  0  0  0  0  0  0  0  0  0
   10.1741  -14.9752   22.4941 C   0  0  0  0  0  0  0  0  0  0  0  0
   10.7005  -15.4819   21.2276 C   0  0  0  0  0  0  0  0  0  0  0  0
   10.2051  -16.5149   20.7183 O   0  0  0  0  0  0  0  0  0  0  0  0
   10.5103  -17.1294   23.7047 C   0  0  0  0  0  0  0  0  0  0  0  0
   10.9119  -17.4482   24.8336 O   0  0  0  0  0  0  0  0  0  0  0  0
   11.7346  -14.8464   20.5766 O   0  0  0  0  0  0  0  0  0  0  0  0
   11.0126  -17.9200   22.6361 O   0  0  0  0  0  0  0  0  0  0  0  0
  2  1  1  6
  3  2  1  0
  4  3  1  0
  5  2  1  0
  5  6  2  0
  8  7  1  1
  8 10  1  0
  9  8  1  0
 10 11  1  1
 10 12  1  0
 11  5  1  0
 12 14  1  0
 12 13  2  0
 14 15  1  0
 15 16  1  1
 17 16  1  0
 17 21  1  0
 18 17  2  0
 19 15  1  0
 20 19  2  0
 22 19  1  0
M  END
$$$$
