CVD.pdb
     RDKit          3D

 22 21  0  0  1  0  0  0  0  0999 V2000
    8.1056  -13.5213   20.3217 N   0  0  0  0  0  0  0  0  0  0  0  0
    7.3631  -14.1624   21.3816 C   0  0  1  0  0  0  0  0  0  0  0  0
    7.3354  -15.6449   21.0472 C   0  0  0  0  0  0  0  0  0  0  0  0
    6.5039  -16.5879   22.3262 S   0  0  0  0  0  0  0  0  0  0  0  0
    8.0876  -13.9807   22.6838 C   0  0  0  0  0  0  0  0  0  0  0  0
    9.3293  -14.0833   22.6950 O   0  0  0  0  0  0  0  0  0  0  0  0
    7.2845  -11.3209   25.6116 C   0  0  0  0  0  0  0  0  0  0  0  0
    7.2936  -12.7507   26.0585 C   0  0  1  0  0  0  0  0  0  0  0  0
    5.8607  -13.2663   26.2169 C   0  0  0  0  0  0  0  0  0  0  0  0
    8.0287  -13.6662   25.1476 C   0  0  2  0  0  0  0  0  0  0  0  0
    7.3568  -13.6990   23.8625 N   0  0  0  0  0  0  0  0  0  0  0  0
    8.1186  -15.0349   25.7262 C   0  0  0  0  0  0  0  0  0  0  0  0
    7.5086  -16.0230   25.2548 O   0  0  0  0  0  0  0  0  0  0  0  0
    8.9363  -15.2948   26.8897 N   0  0  0  0  0  0  0  0  0  0  0  0
    9.6784  -16.5619   26.9828 C   0  0  1  0  0  0  0  0  0  0  0  0
   10.5434  -16.7855   25.7817 C   0  0  0  0  0  0  0  0  0  0  0  0
   11.3577  -17.9982   25.8478 C   0  0  0  0  0  0  0  0  0  0  0  0
   11.0988  -18.8738   26.7071 O   0  0  0  0  0  0  0  0  0  0  0  0
   10.4155  -16.6319   28.2675 C   0  0  0  0  0  0  0  0  0  0  0  0
   10.5969  -17.6407   28.9653 O   0  0  0  0  0  0  0  0  0  0  0  0
   12.4095  -18.2025   24.9823 O   0  0  0  0  0  0  0  0  0  0  0  0
   10.9862  -15.4331   28.7737 O   0  0  0  0  0  0  0  0  0  0  0  0
  2  1  1  6
  3  2  1  0
  4  3  1  0
  5  2  1  0
  5  6  2  0
  8  7  1  6
  8 10  1  0
  9  8  1  0
 10 11  1  6
 10 12  1  0
 11  5  1  0
 12 14  1  0
 12 13  2  0
 14 15  1  0
 15 16  1  6
 17 16  1  0
 17 21  1  0
 18 17  2  0
 19 15  1  0
 20 19  2  0
 22 19  1  0
M  END
$$$$
