CVD.pdb
     RDKit          3D

 22 21  0  0  1  0  0  0  0  0999 V2000
    7.2677  -14.8430   20.8238 N   0  0  0  0  0  0  0  0  0  0  0  0
    6.6623  -15.2489   22.0706 C   0  0  1  0  0  0  0  0  0  0  0  0
    6.5821  -16.7663   22.0321 C   0  0  0  0  0  0  0  0  0  0  0  0
    5.7903  -17.4163   23.5042 S   0  0  0  0  0  0  0  0  0  0  0  0
    7.5481  -14.8469   23.2138 C   0  0  0  0  0  0  0  0  0  0  0  0
    8.7833  -14.9028   23.0598 O   0  0  0  0  0  0  0  0  0  0  0  0
    7.7745  -12.5595   27.5991 C   0  0  0  0  0  0  0  0  0  0  0  0
    7.0034  -13.1178   26.4425 C   0  0  1  0  0  0  0  0  0  0  0  0
    6.3477  -11.9864   25.6462 C   0  0  0  0  0  0  0  0  0  0  0  0
    7.8176  -13.9422   25.5121 C   0  0  2  0  0  0  0  0  0  0  0  0
    6.9723  -14.4160   24.4328 N   0  0  0  0  0  0  0  0  0  0  0  0
    8.4463  -15.0874   26.2256 C   0  0  0  0  0  0  0  0  0  0  0  0
    7.7968  -16.0648   26.6655 O   0  0  0  0  0  0  0  0  0  0  0  0
    9.8740  -15.1266   26.4497 N   0  0  0  0  0  0  0  0  0  0  0  0
   10.4576  -16.2528   27.1955 C   0  0  1  0  0  0  0  0  0  0  0  0
   11.8540  -16.5498   26.7451 C   0  0  0  0  0  0  0  0  0  0  0  0
   11.9759  -16.8239   25.3140 C   0  0  0  0  0  0  0  0  0  0  0  0
   11.0760  -17.4699   24.7268 O   0  0  0  0  0  0  0  0  0  0  0  0
   10.3411  -16.0174   28.6549 C   0  0  0  0  0  0  0  0  0  0  0  0
   10.5146  -16.8499   29.5573 O   0  0  0  0  0  0  0  0  0  0  0  0
   13.0635  -16.3859   24.5912 O   0  0  0  0  0  0  0  0  0  0  0  0
    9.9987  -14.7097   29.0930 O   0  0  0  0  0  0  0  0  0  0  0  0
  2  1  1  6
  3  2  1  0
  4  3  1  0
  5  2  1  0
  5  6  2  0
  8  7  1  1
  8 10  1  0
  9  8  1  0
 10 11  1  6
 10 12  1  0
 11  5  1  0
 12 14  1  0
 12 13  2  0
 14 15  1  0
 15 16  1  6
 17 16  1  0
 17 21  1  0
 18 17  2  0
 19 15  1  0
 20 19  2  0
 22 19  1  0
M  END
$$$$
