CVD.pdb
     RDKit          3D

 22 21  0  0  1  0  0  0  0  0999 V2000
    8.0153  -17.0100   15.9225 N   0  0  0  0  0  0  0  0  0  0  0  0
    7.4540  -17.0105   17.2532 C   0  0  1  0  0  0  0  0  0  0  0  0
    7.3652  -18.4671   17.6785 C   0  0  0  0  0  0  0  0  0  0  0  0
    6.7188  -18.6232   19.3442 S   0  0  0  0  0  0  0  0  0  0  0  0
    8.3831  -16.2956   18.1908 C   0  0  0  0  0  0  0  0  0  0  0  0
    9.6115  -16.4208   18.0241 O   0  0  0  0  0  0  0  0  0  0  0  0
    7.5100  -12.6472   19.6142 C   0  0  0  0  0  0  0  0  0  0  0  0
    8.0245  -13.5867   20.6614 C   0  0  1  0  0  0  0  0  0  0  0  0
    6.8742  -14.0798   21.5434 C   0  0  0  0  0  0  0  0  0  0  0  0
    8.7435  -14.7675   20.1164 C   0  0  2  0  0  0  0  0  0  0  0  0
    7.8544  -15.5009   19.2358 N   0  0  0  0  0  0  0  0  0  0  0  0
    9.2348  -15.6456   21.2135 C   0  0  0  0  0  0  0  0  0  0  0  0
    8.6542  -16.6993   21.5643 O   0  0  0  0  0  0  0  0  0  0  0  0
   10.4375  -15.3148   21.9445 N   0  0  0  0  0  0  0  0  0  0  0  0
   11.0821  -16.3421   22.7776 C   0  0  1  0  0  0  0  0  0  0  0  0
   12.5609  -16.3903   22.5506 C   0  0  0  0  0  0  0  0  0  0  0  0
   13.2727  -17.3116   23.4353 C   0  0  0  0  0  0  0  0  0  0  0  0
   12.8312  -18.4723   23.6077 O   0  0  0  0  0  0  0  0  0  0  0  0
   10.7047  -16.1605   24.2001 C   0  0  0  0  0  0  0  0  0  0  0  0
   11.0832  -16.8455   25.1619 O   0  0  0  0  0  0  0  0  0  0  0  0
   14.4245  -16.9314   24.0879 O   0  0  0  0  0  0  0  0  0  0  0  0
    9.8202  -15.0964   24.5235 O   0  0  0  0  0  0  0  0  0  0  0  0
  2  1  1  6
  3  2  1  0
  4  3  1  0
  5  2  1  0
  5  6  2  0
  8  7  1  6
  8 10  1  0
  9  8  1  0
 10 11  1  6
 10 12  1  0
 11  5  1  0
 12 14  1  0
 12 13  2  0
 14 15  1  0
 15 16  1  1
 17 16  1  0
 17 21  1  0
 18 17  2  0
 19 15  1  0
 20 19  2  0
 22 19  1  0
M  END
$$$$
