CTR.pdb
     RDKit          3D

 25 24  0  0  1  0  0  0  0  0999 V2000
   29.7824  -20.5119  -12.6513 N   0  0  0  0  0  0  0  0  0  0  0  0
   28.6330  -21.0069  -11.9548 C   0  0  1  0  0  0  0  0  0  0  0  0
   28.7252  -20.7217  -10.4626 C   0  0  0  0  0  0  0  0  0  0  0  0
   29.8915  -21.8329   -9.6380 S   0  0  0  0  0  0  0  0  0  0  0  0
   27.3691  -20.3993  -12.4449 C   0  0  0  0  0  0  0  0  0  0  0  0
   27.1832  -19.1819  -12.2481 O   0  0  0  0  0  0  0  0  0  0  0  0
   26.6105  -19.5918  -15.5159 C   0  0  0  0  0  0  0  0  0  0  0  0
   25.4041  -20.3749  -15.1352 C   0  0  1  0  0  0  0  0  0  0  0  0
   25.6031  -21.6929  -15.6124 O   0  0  0  0  0  0  0  0  0  0  0  0
   25.1476  -20.5082  -13.6652 C   0  0  2  0  0  0  0  0  0  0  0  0
   26.3696  -21.1368  -13.1225 N   0  0  0  0  0  0  0  0  0  0  0  0
   24.0148  -21.3595  -13.2969 C   0  0  0  0  0  0  0  0  0  0  0  0
   24.1423  -22.3432  -12.4949 O   0  0  0  0  0  0  0  0  0  0  0  0
   18.8000  -24.1712   -8.3032 N   0  0  0  0  0  0  0  0  0  0  0  0
   18.1823  -22.9476   -8.6546 C   0  0  0  0  0  0  0  0  0  0  0  0
   16.9088  -22.8154   -8.5203 N   0  0  0  0  0  0  0  0  0  0  0  0
   18.9080  -21.8327   -9.1569 N   0  0  0  0  0  0  0  0  0  0  0  0
   20.3026  -21.8877   -9.5342 C   0  0  0  0  0  0  0  0  0  0  0  0
   20.4952  -22.3261  -10.9541 C   0  0  0  0  0  0  0  0  0  0  0  0
   21.3441  -21.4514  -11.7949 C   0  0  0  0  0  0  0  0  0  0  0  0
   21.5407  -21.8266  -13.2138 C   0  0  2  0  0  0  0  0  0  0  0  0
   22.7047  -21.1554  -13.7993 N   0  0  0  0  0  0  0  0  0  0  0  0
   20.3490  -21.7067  -14.0777 C   0  0  0  0  0  0  0  0  0  0  0  0
   20.0996  -20.6713  -14.7380 O   0  0  0  0  0  0  0  0  0  0  0  0
   19.4563  -22.7631  -14.1785 O   0  0  0  0  0  0  0  0  0  0  0  0
  2  1  1  6
  3  2  1  0
  3  4  1  0
  5  6  2  0
  5  2  1  0
  8  7  1  1
  8 10  1  0
  9  8  1  0
 10 12  1  0
 10 11  1  1
 11  5  1  0
 12 22  1  0
 13 12  2  0
 15 17  1  0
 15 14  1  0
 16 15  2  0
 18 17  1  0
 19 18  1  0
 20 19  1  0
 21 20  1  1
 22 21  1  0
 23 21  1  0
 23 25  1  0
 24 23  2  0
M  END
$$$$
