CTR.pdb
     RDKit          3D

 25 24  0  0  1  0  0  0  0  0999 V2000
   27.4840  -15.3622  -18.4582 N   0  0  0  0  0  0  0  0  0  0  0  0
   26.9925  -14.1175  -18.9683 C   0  0  1  0  0  0  0  0  0  0  0  0
   25.7733  -14.3259  -19.8552 C   0  0  0  0  0  0  0  0  0  0  0  0
   26.0238  -15.6764  -21.0335 S   0  0  0  0  0  0  0  0  0  0  0  0
   26.5982  -13.1787  -17.8865 C   0  0  0  0  0  0  0  0  0  0  0  0
   26.1264  -13.6537  -16.8344 O   0  0  0  0  0  0  0  0  0  0  0  0
   28.9619  -10.5323  -16.6960 C   0  0  0  0  0  0  0  0  0  0  0  0
   27.6186   -9.9116  -16.8512 C   0  0  1  0  0  0  0  0  0  0  0  0
   27.6080   -9.2664  -18.1113 O   0  0  0  0  0  0  0  0  0  0  0  0
   26.4582  -10.8590  -16.8687 C   0  0  2  0  0  0  0  0  0  0  0  0
   26.7331  -11.7744  -17.9955 N   0  0  0  0  0  0  0  0  0  0  0  0
   25.1489  -10.2489  -17.1075 C   0  0  0  0  0  0  0  0  0  0  0  0
   24.5120  -10.4229  -18.1989 O   0  0  0  0  0  0  0  0  0  0  0  0
   17.4922  -12.5112  -17.7062 N   0  0  0  0  0  0  0  0  0  0  0  0
   17.3421  -11.1162  -17.5232 C   0  0  0  0  0  0  0  0  0  0  0  0
   16.1699  -10.5877  -17.5883 N   0  0  0  0  0  0  0  0  0  0  0  0
   18.4388  -10.2490  -17.2643 N   0  0  0  0  0  0  0  0  0  0  0  0
   19.8102  -10.6969  -17.1694 C   0  0  0  0  0  0  0  0  0  0  0  0
   20.7586   -9.5777  -16.8635 C   0  0  0  0  0  0  0  0  0  0  0  0
   22.1832   -9.9543  -16.7189 C   0  0  0  0  0  0  0  0  0  0  0  0
   23.1555   -8.8881  -16.3860 C   0  0  2  0  0  0  0  0  0  0  0  0
   24.4981   -9.4276  -16.1524 N   0  0  0  0  0  0  0  0  0  0  0  0
   22.7447   -7.9610  -15.3124 C   0  0  0  0  0  0  0  0  0  0  0  0
   23.3649   -7.8732  -14.2272 O   0  0  0  0  0  0  0  0  0  0  0  0
   21.6348   -7.1479  -15.4853 O   0  0  0  0  0  0  0  0  0  0  0  0
  2  1  1  1
  3  2  1  0
  3  4  1  0
  5  6  2  0
  5  2  1  0
  8  7  1  6
  8 10  1  0
  9  8  1  0
 10 12  1  0
 10 11  1  6
 11  5  1  0
 12 22  1  0
 13 12  2  0
 15 17  1  0
 15 14  1  0
 16 15  2  0
 18 17  1  0
 19 18  1  0
 20 19  1  0
 21 20  1  1
 22 21  1  0
 23 21  1  0
 23 25  1  0
 24 23  2  0
M  END
$$$$
