CTR.pdb
     RDKit          3D

 25 24  0  0  1  0  0  0  0  0999 V2000
   12.8060   -8.5419   -8.7503 N   0  0  0  0  0  0  0  0  0  0  0  0
   14.1353   -8.8782   -9.1639 C   0  0  1  0  0  0  0  0  0  0  0  0
   14.1322  -10.0469  -10.1388 C   0  0  0  0  0  0  0  0  0  0  0  0
   13.9519  -11.6324   -9.2850 S   0  0  0  0  0  0  0  0  0  0  0  0
   14.8236   -7.7445   -9.8332 C   0  0  0  0  0  0  0  0  0  0  0  0
   14.2498   -7.1858  -10.7891 O   0  0  0  0  0  0  0  0  0  0  0  0
   15.5667   -4.5668   -8.4679 C   0  0  0  0  0  0  0  0  0  0  0  0
   16.8565   -5.0812   -9.0022 C   0  0  1  0  0  0  0  0  0  0  0  0
   17.5229   -5.7148   -7.9256 O   0  0  0  0  0  0  0  0  0  0  0  0
   16.7520   -6.1148  -10.0816 C   0  0  2  0  0  0  0  0  0  0  0  0
   16.0969   -7.2716   -9.4367 N   0  0  0  0  0  0  0  0  0  0  0  0
   18.0250   -6.5821  -10.6334 C   0  0  0  0  0  0  0  0  0  0  0  0
   18.6716   -7.5507  -10.1128 O   0  0  0  0  0  0  0  0  0  0  0  0
   21.9100  -11.2810  -17.4510 N   0  0  0  0  0  0  0  0  0  0  0  0
   22.1246   -9.9730  -16.9558 C   0  0  0  0  0  0  0  0  0  0  0  0
   22.5017   -9.0413  -17.7601 N   0  0  0  0  0  0  0  0  0  0  0  0
   21.9406   -9.6250  -15.5894 N   0  0  0  0  0  0  0  0  0  0  0  0
   20.7089   -9.0856  -15.0581 C   0  0  0  0  0  0  0  0  0  0  0  0
   20.9450   -8.0803  -13.9722 C   0  0  0  0  0  0  0  0  0  0  0  0
   19.7341   -7.5277  -13.3237 C   0  0  0  0  0  0  0  0  0  0  0  0
   19.9119   -6.4736  -12.2989 C   0  0  2  0  0  0  0  0  0  0  0  0
   18.6276   -5.9984  -11.7764 N   0  0  0  0  0  0  0  0  0  0  0  0
   20.7947   -5.3531  -12.6810 C   0  0  0  0  0  0  0  0  0  0  0  0
   20.3482   -4.2509  -13.0759 O   0  0  0  0  0  0  0  0  0  0  0  0
   22.1718   -5.5001  -12.6111 O   0  0  0  0  0  0  0  0  0  0  0  0
  2  1  1  6
  3  2  1  0
  3  4  1  0
  5  6  2  0
  5  2  1  0
  8  7  1  1
  8 10  1  0
  9  8  1  0
 10 12  1  0
 10 11  1  1
 11  5  1  0
 12 22  1  0
 13 12  2  0
 15 17  1  0
 15 14  1  0
 16 15  2  0
 18 17  1  0
 19 18  1  0
 20 19  1  0
 21 20  1  6
 22 21  1  0
 23 21  1  0
 23 25  1  0
 24 23  2  0
M  END
$$$$
