CTR.pdb
     RDKit          3D

 25 24  0  0  1  0  0  0  0  0999 V2000
   25.4374  -18.7944  -15.3760 N   0  0  0  0  0  0  0  0  0  0  0  0
   24.4273  -17.9216  -15.8946 C   0  0  1  0  0  0  0  0  0  0  0  0
   23.0352  -18.3831  -15.4877 C   0  0  0  0  0  0  0  0  0  0  0  0
   22.8296  -20.1679  -15.7059 S   0  0  0  0  0  0  0  0  0  0  0  0
   24.5878  -16.5238  -15.4176 C   0  0  0  0  0  0  0  0  0  0  0  0
   24.7931  -16.3337  -14.2024 O   0  0  0  0  0  0  0  0  0  0  0  0
   27.1206  -14.1545  -15.6877 C   0  0  0  0  0  0  0  0  0  0  0  0
   25.9161  -13.5021  -16.2685 C   0  0  1  0  0  0  0  0  0  0  0  0
   25.9387  -13.7634  -17.6597 O   0  0  0  0  0  0  0  0  0  0  0  0
   24.5953  -14.0128  -15.7794 C   0  0  2  0  0  0  0  0  0  0  0  0
   24.5181  -15.4018  -16.2770 N   0  0  0  0  0  0  0  0  0  0  0  0
   23.4185  -13.3004  -16.2804 C   0  0  0  0  0  0  0  0  0  0  0  0
   22.6193  -13.8266  -17.1240 O   0  0  0  0  0  0  0  0  0  0  0  0
   15.4395  -13.3696  -15.2102 N   0  0  0  0  0  0  0  0  0  0  0  0
   15.6167  -12.1407  -15.8888 C   0  0  0  0  0  0  0  0  0  0  0  0
   14.5867  -11.4536  -16.2418 N   0  0  0  0  0  0  0  0  0  0  0  0
   16.8979  -11.6121  -16.2069 N   0  0  0  0  0  0  0  0  0  0  0  0
   18.1419  -12.2663  -15.8681 C   0  0  0  0  0  0  0  0  0  0  0  0
   19.3373  -11.5320  -16.3947 C   0  0  0  0  0  0  0  0  0  0  0  0
   20.6560  -12.1292  -16.0833 C   0  0  0  0  0  0  0  0  0  0  0  0
   21.8670  -11.3166  -16.3400 C   0  0  2  0  0  0  0  0  0  0  0  0
   23.0829  -11.9857  -15.8689 N   0  0  0  0  0  0  0  0  0  0  0  0
   21.8038   -9.9135  -15.8839 C   0  0  0  0  0  0  0  0  0  0  0  0
   22.5715   -9.4579  -15.0046 O   0  0  0  0  0  0  0  0  0  0  0  0
   20.8689   -9.0478  -16.4312 O   0  0  0  0  0  0  0  0  0  0  0  0
  2  1  1  1
  3  2  1  0
  3  4  1  0
  5  6  2  0
  5  2  1  0
  8  7  1  1
  8 10  1  0
  9  8  1  0
 10 12  1  0
 10 11  1  6
 11  5  1  0
 12 22  1  0
 13 12  2  0
 15 17  1  0
 15 14  1  0
 16 15  2  0
 18 17  1  0
 19 18  1  0
 20 19  1  0
 21 20  1  1
 22 21  1  0
 23 21  1  0
 23 25  1  0
 24 23  2  0
M  END
$$$$
