CTR.pdb
     RDKit          3D

 25 24  0  0  1  0  0  0  0  0999 V2000
   30.9450  -20.8022  -11.8105 N   0  0  0  0  0  0  0  0  0  0  0  0
   29.6419  -21.3833  -11.6867 C   0  0  1  0  0  0  0  0  0  0  0  0
   29.2712  -21.6044  -10.2271 C   0  0  0  0  0  0  0  0  0  0  0  0
   30.4503  -22.6951   -9.3933 S   0  0  0  0  0  0  0  0  0  0  0  0
   28.5833  -20.5325  -12.2887 C   0  0  0  0  0  0  0  0  0  0  0  0
   28.3098  -19.4489  -11.7353 O   0  0  0  0  0  0  0  0  0  0  0  0
   28.7594  -18.7555  -15.1779 C   0  0  0  0  0  0  0  0  0  0  0  0
   27.4977  -19.5267  -15.3423 C   0  0  1  0  0  0  0  0  0  0  0  0
   27.8206  -20.6881  -16.0848 O   0  0  0  0  0  0  0  0  0  0  0  0
   26.8603  -20.0158  -14.0777 C   0  0  2  0  0  0  0  0  0  0  0  0
   27.8733  -20.8948  -13.4579 N   0  0  0  0  0  0  0  0  0  0  0  0
   25.6398  -20.8057  -14.2507 C   0  0  0  0  0  0  0  0  0  0  0  0
   25.6566  -22.0812  -14.2584 O   0  0  0  0  0  0  0  0  0  0  0  0
   17.1005  -20.5660  -13.1644 N   0  0  0  0  0  0  0  0  0  0  0  0
   17.3914  -21.6832  -13.9826 C   0  0  0  0  0  0  0  0  0  0  0  0
   16.4879  -22.5780  -14.1836 N   0  0  0  0  0  0  0  0  0  0  0  0
   18.6537  -21.8735  -14.6090 N   0  0  0  0  0  0  0  0  0  0  0  0
   19.7590  -20.9501  -14.4826 C   0  0  0  0  0  0  0  0  0  0  0  0
   20.8588  -21.4879  -13.6185 C   0  0  0  0  0  0  0  0  0  0  0  0
   22.1141  -20.7028  -13.6007 C   0  0  0  0  0  0  0  0  0  0  0  0
   23.1553  -21.0306  -14.6013 C   0  0  2  0  0  0  0  0  0  0  0  0
   24.3611  -20.2172  -14.4206 N   0  0  0  0  0  0  0  0  0  0  0  0
   22.7086  -21.0404  -16.0088 C   0  0  0  0  0  0  0  0  0  0  0  0
   22.8055  -20.0355  -16.7511 O   0  0  0  0  0  0  0  0  0  0  0  0
   22.1566  -22.1901  -16.5533 O   0  0  0  0  0  0  0  0  0  0  0  0
  2  1  1  1
  3  2  1  0
  3  4  1  0
  5  6  2  0
  5  2  1  0
  8  7  1  1
  8 10  1  0
  9  8  1  0
 10 12  1  0
 10 11  1  6
 11  5  1  0
 12 22  1  0
 13 12  2  0
 15 17  1  0
 15 14  1  0
 16 15  2  0
 18 17  1  0
 19 18  1  0
 20 19  1  0
 21 20  1  1
 22 21  1  0
 23 21  1  0
 23 25  1  0
 24 23  2  0
M  END
$$$$
