CTR.pdb
     RDKit          3D

 25 24  0  0  1  0  0  0  0  0999 V2000
   30.2439  -18.6312  -19.9397 N   0  0  0  0  0  0  0  0  0  0  0  0
   29.3874  -18.6686  -18.7924 C   0  0  1  0  0  0  0  0  0  0  0  0
   28.4491  -17.4706  -18.7633 C   0  0  0  0  0  0  0  0  0  0  0  0
   29.3587  -15.9075  -18.6962 S   0  0  0  0  0  0  0  0  0  0  0  0
   28.5454  -19.8920  -18.7545 C   0  0  0  0  0  0  0  0  0  0  0  0
   27.7796  -20.1126  -19.7137 O   0  0  0  0  0  0  0  0  0  0  0  0
   30.0116  -23.2742  -17.8139 C   0  0  0  0  0  0  0  0  0  0  0  0
   28.7097  -23.1005  -17.1149 C   0  0  1  0  0  0  0  0  0  0  0  0
   29.0046  -22.6622  -15.8014 O   0  0  0  0  0  0  0  0  0  0  0  0
   27.7898  -22.0683  -17.6920 C   0  0  2  0  0  0  0  0  0  0  0  0
   28.5726  -20.8152  -17.6825 N   0  0  0  0  0  0  0  0  0  0  0  0
   26.5607  -21.8244  -16.9349 C   0  0  0  0  0  0  0  0  0  0  0  0
   26.3421  -20.7168  -16.3412 O   0  0  0  0  0  0  0  0  0  0  0  0
   20.2530  -17.2580  -17.4573 N   0  0  0  0  0  0  0  0  0  0  0  0
   19.6528  -18.4574  -17.0064 C   0  0  0  0  0  0  0  0  0  0  0  0
   18.3710  -18.5760  -17.0293 N   0  0  0  0  0  0  0  0  0  0  0  0
   20.4050  -19.5621  -16.5208 N   0  0  0  0  0  0  0  0  0  0  0  0
   21.8321  -19.5223  -16.2927 C   0  0  0  0  0  0  0  0  0  0  0  0
   22.3842  -20.8538  -15.8832 C   0  0  0  0  0  0  0  0  0  0  0  0
   23.6876  -21.2277  -16.4779 C   0  0  0  0  0  0  0  0  0  0  0  0
   24.2982  -22.5127  -16.0669 C   0  0  2  0  0  0  0  0  0  0  0  0
   25.5321  -22.7919  -16.8070 N   0  0  0  0  0  0  0  0  0  0  0  0
   23.3907  -23.6777  -16.0582 C   0  0  0  0  0  0  0  0  0  0  0  0
   23.3372  -24.4943  -17.0071 O   0  0  0  0  0  0  0  0  0  0  0  0
   22.5556  -23.8983  -14.9734 O   0  0  0  0  0  0  0  0  0  0  0  0
  2  1  1  6
  3  2  1  0
  3  4  1  0
  5  6  2  0
  5  2  1  0
  8  7  1  6
  8 10  1  0
  9  8  1  0
 10 12  1  0
 10 11  1  1
 11  5  1  0
 12 22  1  0
 13 12  2  0
 15 17  1  0
 15 14  1  0
 16 15  2  0
 18 17  1  0
 19 18  1  0
 20 19  1  0
 21 20  1  6
 22 21  1  0
 23 21  1  0
 23 25  1  0
 24 23  2  0
M  END
$$$$
