CTR.pdb
     RDKit          3D

 25 24  0  0  1  0  0  0  0  0999 V2000
   28.8273  -21.1502  -11.1194 N   0  0  0  0  0  0  0  0  0  0  0  0
   27.5066  -21.2655  -10.5777 C   0  0  1  0  0  0  0  0  0  0  0  0
   27.4183  -20.6333   -9.1960 C   0  0  0  0  0  0  0  0  0  0  0  0
   28.6847  -21.2836   -8.0786 S   0  0  0  0  0  0  0  0  0  0  0  0
   26.4850  -20.6073  -11.4322 C   0  0  0  0  0  0  0  0  0  0  0  0
   26.6161  -19.3924  -11.6811 O   0  0  0  0  0  0  0  0  0  0  0  0
   26.4810  -19.5085  -13.9023 C   0  0  0  0  0  0  0  0  0  0  0  0
   25.2920  -20.3700  -14.1431 C   0  0  1  0  0  0  0  0  0  0  0  0
   25.7767  -21.6209  -14.5956 O   0  0  0  0  0  0  0  0  0  0  0  0
   24.4476  -20.6703  -12.9426 C   0  0  2  0  0  0  0  0  0  0  0  0
   25.3731  -21.2943  -11.9746 N   0  0  0  0  0  0  0  0  0  0  0  0
   23.3459  -21.6086  -13.1647 C   0  0  0  0  0  0  0  0  0  0  0  0
   23.5220  -22.8719  -13.1519 O   0  0  0  0  0  0  0  0  0  0  0  0
   17.9493  -23.3501  -10.0528 N   0  0  0  0  0  0  0  0  0  0  0  0
   16.7107  -23.5721  -10.6999 C   0  0  0  0  0  0  0  0  0  0  0  0
   15.8512  -24.3726  -10.1728 N   0  0  0  0  0  0  0  0  0  0  0  0
   16.3564  -22.9441  -11.9254 N   0  0  0  0  0  0  0  0  0  0  0  0
   17.1834  -21.9635  -12.5924 C   0  0  0  0  0  0  0  0  0  0  0  0
   18.4671  -22.5466  -13.1001 C   0  0  0  0  0  0  0  0  0  0  0  0
   19.6684  -21.6921  -12.9625 C   0  0  0  0  0  0  0  0  0  0  0  0
   20.9241  -22.1468  -13.6022 C   0  0  2  0  0  0  0  0  0  0  0  0
   22.0142  -21.1866  -13.4079 N   0  0  0  0  0  0  0  0  0  0  0  0
   20.8076  -22.5629  -15.0144 C   0  0  0  0  0  0  0  0  0  0  0  0
   21.0234  -21.7768  -15.9661 O   0  0  0  0  0  0  0  0  0  0  0  0
   20.4462  -23.8648  -15.3263 O   0  0  0  0  0  0  0  0  0  0  0  0
  2  1  1  6
  3  2  1  0
  3  4  1  0
  5  6  2  0
  5  2  1  0
  8  7  1  1
  8 10  1  0
  9  8  1  0
 10 12  1  0
 10 11  1  1
 11  5  1  0
 12 22  1  0
 13 12  2  0
 15 17  1  0
 15 14  1  0
 16 15  2  0
 18 17  1  0
 19 18  1  0
 20 19  1  0
 21 20  1  6
 22 21  1  0
 23 21  1  0
 23 25  1  0
 24 23  2  0
M  END
$$$$
