CTR.pdb
     RDKit          3D

 25 24  0  0  1  0  0  0  0  0999 V2000
   28.6460  -20.8185  -16.5525 N   0  0  0  0  0  0  0  0  0  0  0  0
   27.8161  -19.9344  -17.3146 C   0  0  1  0  0  0  0  0  0  0  0  0
   27.1316  -20.6676  -18.4593 C   0  0  0  0  0  0  0  0  0  0  0  0
   28.3243  -21.5305  -19.5120 S   0  0  0  0  0  0  0  0  0  0  0  0
   26.7512  -19.3069  -16.4905 C   0  0  0  0  0  0  0  0  0  0  0  0
   26.2798  -19.9587  -15.5376 O   0  0  0  0  0  0  0  0  0  0  0  0
   27.1410  -15.7249  -15.0905 C   0  0  0  0  0  0  0  0  0  0  0  0
   25.8157  -15.9141  -15.7399 C   0  0  1  0  0  0  0  0  0  0  0  0
   25.9511  -15.4830  -17.0816 O   0  0  0  0  0  0  0  0  0  0  0  0
   25.3187  -17.3255  -15.8136 C   0  0  2  0  0  0  0  0  0  0  0  0
   26.2489  -18.0072  -16.7372 N   0  0  0  0  0  0  0  0  0  0  0  0
   23.9666  -17.4912  -16.3500 C   0  0  0  0  0  0  0  0  0  0  0  0
   23.7573  -17.7977  -17.5705 O   0  0  0  0  0  0  0  0  0  0  0  0
   18.9979  -22.0236  -13.6703 N   0  0  0  0  0  0  0  0  0  0  0  0
   18.7925  -20.7893  -13.0096 C   0  0  0  0  0  0  0  0  0  0  0  0
   18.5722  -20.7748  -11.7412 N   0  0  0  0  0  0  0  0  0  0  0  0
   18.8186  -19.5383  -13.6849 N   0  0  0  0  0  0  0  0  0  0  0  0
   18.2986  -19.3360  -15.0187 C   0  0  0  0  0  0  0  0  0  0  0  0
   19.1653  -18.4309  -15.8404 C   0  0  0  0  0  0  0  0  0  0  0  0
   20.5838  -18.3371  -15.4261 C   0  0  0  0  0  0  0  0  0  0  0  0
   21.4581  -17.3826  -16.1452 C   0  0  2  0  0  0  0  0  0  0  0  0
   22.8008  -17.3253  -15.5602 N   0  0  0  0  0  0  0  0  0  0  0  0
   20.8954  -16.0334  -16.3548 C   0  0  0  0  0  0  0  0  0  0  0  0
   21.2425  -15.0464  -15.6652 O   0  0  0  0  0  0  0  0  0  0  0  0
   19.9453  -15.8240  -17.3429 O   0  0  0  0  0  0  0  0  0  0  0  0
  2  1  1  1
  3  2  1  0
  3  4  1  0
  5  6  2  0
  5  2  1  0
  8  7  1  6
  8 10  1  0
  9  8  1  0
 10 12  1  0
 10 11  1  6
 11  5  1  0
 12 22  1  0
 13 12  2  0
 15 17  1  0
 15 14  1  0
 16 15  2  0
 18 17  1  0
 19 18  1  0
 20 19  1  0
 21 20  1  1
 22 21  1  0
 23 21  1  0
 23 25  1  0
 24 23  2  0
M  END
$$$$
