DYR.pdb
     RDKit          3D

 32 32  0  0  1  0  0  0  0  0999 V2000
    7.9429  -12.8057   18.0684 N   0  0  0  0  0  0  0  0  0  0  0  0
    7.6387  -14.0078   18.8014 C   0  0  1  0  0  0  0  0  0  0  0  0
    8.2653  -15.1788   18.0571 C   0  0  0  0  0  0  0  0  0  0  0  0
    7.4949  -15.5422   16.8448 C   0  0  0  0  0  0  0  0  0  0  0  0
    7.1871  -14.6971   15.9666 O   0  0  0  0  0  0  0  0  0  0  0  0
    8.1160  -13.9475   20.2037 C   0  0  0  0  0  0  0  0  0  0  0  0
    9.3551  -13.7695   20.3524 O   0  0  0  0  0  0  0  0  0  0  0  0
    7.0864  -16.8767   16.6568 O   0  0  0  0  0  0  0  0  0  0  0  0
    8.1692  -12.8794   29.1220 O   0  0  0  0  0  0  0  0  0  0  0  0
    7.8464  -12.9561   27.7642 C   0  0  0  0  0  0  0  0  0  0  0  0
    8.4247  -12.1196   26.8322 C   0  0  0  0  0  0  0  0  0  0  0  0
    8.1051  -12.1966   25.4927 C   0  0  0  0  0  0  0  0  0  0  0  0
    7.1918  -13.1114   25.0105 C   0  0  0  0  0  0  0  0  0  0  0  0
    6.7933  -13.2445   23.5960 C   0  0  0  0  0  0  0  0  0  0  0  0
    7.7738  -13.9455   22.7182 C   0  0  2  0  0  0  0  0  0  0  0  0
    7.3006  -14.0722   21.3526 N   0  0  0  0  0  0  0  0  0  0  0  0
    8.0404  -15.3039   23.2453 C   0  0  0  0  0  0  0  0  0  0  0  0
    7.1000  -16.1238   23.1865 O   0  0  0  0  0  0  0  0  0  0  0  0
    6.6085  -13.9573   25.9586 C   0  0  0  0  0  0  0  0  0  0  0  0
    6.9321  -13.8755   27.2955 C   0  0  0  0  0  0  0  0  0  0  0  0
   12.9125  -20.8718   19.7171 N   0  0  0  0  0  0  0  0  0  0  0  0
   12.8977  -19.4700   20.0323 C   0  0  0  0  0  0  0  0  0  0  0  0
   13.2509  -18.5948   19.1614 N   0  0  0  0  0  0  0  0  0  0  0  0
   12.4790  -19.0208   21.3134 N   0  0  0  0  0  0  0  0  0  0  0  0
   11.1028  -18.9581   21.7350 C   0  0  0  0  0  0  0  0  0  0  0  0
   10.8884  -17.5947   22.3941 C   0  0  0  0  0  0  0  0  0  0  0  0
   10.7468  -17.6992   23.8688 C   0  0  0  0  0  0  0  0  0  0  0  0
    9.6000  -16.9113   24.4666 C   0  0  2  0  0  0  0  0  0  0  0  0
    9.2811  -15.6928   23.7945 N   0  0  0  0  0  0  0  0  0  0  0  0
    9.7912  -16.8105   25.9179 C   0  0  0  0  0  0  0  0  0  0  0  0
    9.7819  -17.9260   26.7384 O   0  0  0  0  0  0  0  0  0  0  0  0
    9.9702  -15.6886   26.4556 O   0  0  0  0  0  0  0  0  0  0  0  0
  2  1  1  6
  2  3  1  0
  3  4  1  0
  4  8  1  0
  5  4  2  0
  6  2  1  0
  7  6  2  0
  9 10  1  0
 10 11  2  0
 11 12  1  0
 13 12  2  0
 13 14  1  0
 15 16  1  0
 15 14  1  1
 16  6  1  0
 17 15  1  0
 18 17  2  0
 19 13  1  0
 20 10  1  0
 20 19  2  0
 22 21  1  0
 22 23  2  0
 24 22  1  0
 25 24  1  0
 26 25  1  0
 26 27  1  0
 28 27  1  6
 28 29  1  0
 29 17  1  0
 30 31  1  0
 30 28  1  0
 32 30  2  0
M  END
$$$$
