DYR.pdb
     RDKit          3D

 32 32  0  0  1  0  0  0  0  0999 V2000
    7.7676  -12.5398   18.8963 N   0  0  0  0  0  0  0  0  0  0  0  0
    7.7577  -13.8452   19.5052 C   0  0  1  0  0  0  0  0  0  0  0  0
    8.4663  -14.8058   18.5603 C   0  0  0  0  0  0  0  0  0  0  0  0
    7.7218  -14.9876   17.2923 C   0  0  0  0  0  0  0  0  0  0  0  0
    6.6896  -15.7011   17.2163 O   0  0  0  0  0  0  0  0  0  0  0  0
    8.3928  -13.8458   20.8449 C   0  0  0  0  0  0  0  0  0  0  0  0
    9.5961  -13.4719   20.8797 O   0  0  0  0  0  0  0  0  0  0  0  0
    8.1745  -14.3451   16.1239 O   0  0  0  0  0  0  0  0  0  0  0  0
    9.8074  -14.7097   29.6564 O   0  0  0  0  0  0  0  0  0  0  0  0
    9.2265  -14.6137   28.3887 C   0  0  0  0  0  0  0  0  0  0  0  0
    8.7409  -15.7223   27.7269 C   0  0  0  0  0  0  0  0  0  0  0  0
    8.1680  -15.6258   26.4759 C   0  0  0  0  0  0  0  0  0  0  0  0
    8.0487  -14.4192   25.8176 C   0  0  0  0  0  0  0  0  0  0  0  0
    7.4584  -14.2412   24.4770 C   0  0  0  0  0  0  0  0  0  0  0  0
    8.4209  -14.3070   23.3401 C   0  0  2  0  0  0  0  0  0  0  0  0
    7.7597  -14.2257   22.0513 N   0  0  0  0  0  0  0  0  0  0  0  0
    9.1780  -15.5789   23.3942 C   0  0  0  0  0  0  0  0  0  0  0  0
    8.5465  -16.6208   23.1192 O   0  0  0  0  0  0  0  0  0  0  0  0
    8.5420  -13.2984   26.4923 C   0  0  0  0  0  0  0  0  0  0  0  0
    9.1132  -13.4014   27.7420 C   0  0  0  0  0  0  0  0  0  0  0  0
   14.1531  -13.2313   18.0651 N   0  0  0  0  0  0  0  0  0  0  0  0
   14.3851  -14.2929   19.0052 C   0  0  0  0  0  0  0  0  0  0  0  0
   14.9690  -15.3779   18.6434 N   0  0  0  0  0  0  0  0  0  0  0  0
   13.9836  -14.1590   20.3614 N   0  0  0  0  0  0  0  0  0  0  0  0
   14.1375  -15.1928   21.3529 C   0  0  0  0  0  0  0  0  0  0  0  0
   12.7356  -15.6076   21.8020 C   0  0  0  0  0  0  0  0  0  0  0  0
   12.7659  -16.4917   22.9951 C   0  0  0  0  0  0  0  0  0  0  0  0
   11.4182  -16.7778   23.6234 C   0  0  2  0  0  0  0  0  0  0  0  0
   10.5458  -15.6532   23.7349 N   0  0  0  0  0  0  0  0  0  0  0  0
   11.6156  -17.5585   24.8499 C   0  0  0  0  0  0  0  0  0  0  0  0
   11.0349  -17.1941   26.0531 O   0  0  0  0  0  0  0  0  0  0  0  0
   12.3293  -18.5930   24.8330 O   0  0  0  0  0  0  0  0  0  0  0  0
  2  1  1  6
  2  3  1  0
  3  4  1  0
  4  8  1  0
  5  4  2  0
  6  2  1  0
  7  6  2  0
  9 10  1  0
 10 11  2  0
 11 12  1  0
 13 12  2  0
 13 14  1  0
 15 16  1  0
 15 14  1  1
 16  6  1  0
 17 15  1  0
 18 17  2  0
 19 13  1  0
 20 10  1  0
 20 19  2  0
 22 21  1  0
 22 23  2  0
 24 22  1  0
 25 24  1  0
 26 25  1  0
 26 27  1  0
 28 27  1  1
 28 29  1  0
 29 17  1  0
 30 31  1  0
 30 28  1  0
 32 30  2  0
M  END
$$$$
