DYR.pdb
     RDKit          3D

 32 32  0  0  1  0  0  0  0  0999 V2000
    7.2977  -16.4702   20.7141 N   0  0  0  0  0  0  0  0  0  0  0  0
    8.6337  -15.9549   20.8709 C   0  0  1  0  0  0  0  0  0  0  0  0
    8.7295  -14.6588   20.0782 C   0  0  0  0  0  0  0  0  0  0  0  0
    8.4256  -14.8624   18.6424 C   0  0  0  0  0  0  0  0  0  0  0  0
    8.2218  -13.9026   17.8567 O   0  0  0  0  0  0  0  0  0  0  0  0
    8.9902  -15.7400   22.2938 C   0  0  0  0  0  0  0  0  0  0  0  0
   10.0550  -15.0975   22.4997 O   0  0  0  0  0  0  0  0  0  0  0  0
    8.3594  -16.1710   18.1263 O   0  0  0  0  0  0  0  0  0  0  0  0
    6.4592  -10.1201   26.2940 O   0  0  0  0  0  0  0  0  0  0  0  0
    6.6967  -11.4877   26.1295 C   0  0  0  0  0  0  0  0  0  0  0  0
    5.8601  -12.2842   25.3754 C   0  0  0  0  0  0  0  0  0  0  0  0
    6.0959  -13.6335   25.2141 C   0  0  0  0  0  0  0  0  0  0  0  0
    7.1780  -14.2612   25.7961 C   0  0  0  0  0  0  0  0  0  0  0  0
    7.4874  -15.6991   25.6765 C   0  0  0  0  0  0  0  0  0  0  0  0
    8.6383  -16.0344   24.7897 C   0  0  2  0  0  0  0  0  0  0  0  0
    8.2396  -16.1929   23.4038 N   0  0  0  0  0  0  0  0  0  0  0  0
    9.2690  -17.2971   25.2388 C   0  0  0  0  0  0  0  0  0  0  0  0
    8.5556  -18.3219   25.2123 O   0  0  0  0  0  0  0  0  0  0  0  0
    8.0232  -13.4501   26.5591 C   0  0  0  0  0  0  0  0  0  0  0  0
    7.7822  -12.1025   26.7164 C   0  0  0  0  0  0  0  0  0  0  0  0
   16.8051  -22.2699   23.4130 N   0  0  0  0  0  0  0  0  0  0  0  0
   16.6386  -21.4980   24.6134 C   0  0  0  0  0  0  0  0  0  0  0  0
   17.6566  -21.0895   25.2810 N   0  0  0  0  0  0  0  0  0  0  0  0
   15.3407  -21.1589   25.0813 N   0  0  0  0  0  0  0  0  0  0  0  0
   14.9468  -19.8290   25.4710 C   0  0  0  0  0  0  0  0  0  0  0  0
   13.4728  -19.8888   25.8748 C   0  0  0  0  0  0  0  0  0  0  0  0
   12.7471  -18.6367   25.5407 C   0  0  0  0  0  0  0  0  0  0  0  0
   11.3310  -18.5483   26.0698 C   0  0  2  0  0  0  0  0  0  0  0  0
   10.6065  -17.3809   25.6819 N   0  0  0  0  0  0  0  0  0  0  0  0
   11.3344  -18.8517   27.5054 C   0  0  0  0  0  0  0  0  0  0  0  0
   11.7406  -20.0819   27.9944 O   0  0  0  0  0  0  0  0  0  0  0  0
   10.9616  -17.9848   28.3357 O   0  0  0  0  0  0  0  0  0  0  0  0
  2  1  1  1
  2  3  1  0
  3  4  1  0
  4  8  1  0
  5  4  2  0
  6  2  1  0
  7  6  2  0
  9 10  1  0
 10 11  2  0
 11 12  1  0
 13 12  2  0
 13 14  1  0
 15 16  1  0
 15 14  1  1
 16  6  1  0
 17 15  1  0
 18 17  2  0
 19 13  1  0
 20 10  1  0
 20 19  2  0
 22 21  1  0
 22 23  2  0
 24 22  1  0
 25 24  1  0
 26 25  1  0
 26 27  1  0
 28 27  1  1
 28 29  1  0
 29 17  1  0
 30 31  1  0
 30 28  1  0
 32 30  2  0
M  END
$$$$
