DYR.pdb
     RDKit          3D

 32 32  0  0  1  0  0  0  0  0999 V2000
    7.9034  -16.9183   18.6974 N   0  0  0  0  0  0  0  0  0  0  0  0
    9.1976  -17.0724   19.3109 C   0  0  1  0  0  0  0  0  0  0  0  0
   10.2522  -16.7441   18.2632 C   0  0  0  0  0  0  0  0  0  0  0  0
   10.0359  -17.4942   17.0039 C   0  0  0  0  0  0  0  0  0  0  0  0
    9.2320  -18.4574   16.9258 O   0  0  0  0  0  0  0  0  0  0  0  0
    9.3547  -16.2205   20.5140 C   0  0  0  0  0  0  0  0  0  0  0  0
   10.5382  -16.0518   20.9139 O   0  0  0  0  0  0  0  0  0  0  0  0
   10.7490  -17.1267   15.8465 O   0  0  0  0  0  0  0  0  0  0  0  0
    7.2785  -11.4904   27.9031 O   0  0  0  0  0  0  0  0  0  0  0  0
    7.2865  -12.1119   26.6511 C   0  0  0  0  0  0  0  0  0  0  0  0
    8.1063  -11.6775   25.6303 C   0  0  0  0  0  0  0  0  0  0  0  0
    8.1130  -12.2919   24.3954 C   0  0  0  0  0  0  0  0  0  0  0  0
    7.3028  -13.3720   24.1119 C   0  0  0  0  0  0  0  0  0  0  0  0
    7.2485  -14.0717   22.8139 C   0  0  0  0  0  0  0  0  0  0  0  0
    8.4556  -14.8764   22.4698 C   0  0  2  0  0  0  0  0  0  0  0  0
    8.2988  -15.6019   21.2232 N   0  0  0  0  0  0  0  0  0  0  0  0
    8.7312  -15.8563   23.5458 C   0  0  0  0  0  0  0  0  0  0  0  0
    7.8556  -16.7221   23.7550 O   0  0  0  0  0  0  0  0  0  0  0  0
    6.4739  -13.8089   25.1495 C   0  0  0  0  0  0  0  0  0  0  0  0
    6.4719  -13.1909   26.3811 C   0  0  0  0  0  0  0  0  0  0  0  0
   11.7069  -20.6966   24.2377 N   0  0  0  0  0  0  0  0  0  0  0  0
   13.0940  -20.6910   23.8629 C   0  0  0  0  0  0  0  0  0  0  0  0
   13.5134  -21.4000   22.8778 N   0  0  0  0  0  0  0  0  0  0  0  0
   14.0308  -19.8890   24.5681 N   0  0  0  0  0  0  0  0  0  0  0  0
   13.7238  -18.5992   25.1320 C   0  0  0  0  0  0  0  0  0  0  0  0
   12.2079  -18.4135   25.0499 C   0  0  0  0  0  0  0  0  0  0  0  0
   11.7883  -17.0405   25.4301 C   0  0  0  0  0  0  0  0  0  0  0  0
   10.3014  -16.7689   25.3374 C   0  0  2  0  0  0  0  0  0  0  0  0
    9.9118  -15.8469   24.3193 N   0  0  0  0  0  0  0  0  0  0  0  0
    9.7777  -16.4975   26.6809 C   0  0  0  0  0  0  0  0  0  0  0  0
    9.1646  -17.4791   27.4415 O   0  0  0  0  0  0  0  0  0  0  0  0
    9.8766  -15.3472   27.1776 O   0  0  0  0  0  0  0  0  0  0  0  0
  2  1  1  6
  2  3  1  0
  3  4  1  0
  4  8  1  0
  5  4  2  0
  6  2  1  0
  7  6  2  0
  9 10  1  0
 10 11  2  0
 11 12  1  0
 13 12  2  0
 13 14  1  0
 15 16  1  0
 15 14  1  1
 16  6  1  0
 17 15  1  0
 18 17  2  0
 19 13  1  0
 20 10  1  0
 20 19  2  0
 22 21  1  0
 22 23  2  0
 24 22  1  0
 25 24  1  0
 26 25  1  0
 26 27  1  0
 28 27  1  1
 28 29  1  0
 29 17  1  0
 30 31  1  0
 30 28  1  0
 32 30  2  0
M  END
$$$$
