DYR.pdb
     RDKit          3D

 32 32  0  0  1  0  0  0  0  0999 V2000
    9.7063  -17.9576   19.5885 N   0  0  0  0  0  0  0  0  0  0  0  0
    8.8245  -18.1282   20.7147 C   0  0  1  0  0  0  0  0  0  0  0  0
    9.1737  -19.4502   21.3841 C   0  0  0  0  0  0  0  0  0  0  0  0
    8.8989  -20.6086   20.5022 C   0  0  0  0  0  0  0  0  0  0  0  0
    8.5585  -20.4712   19.3000 O   0  0  0  0  0  0  0  0  0  0  0  0
    8.9138  -17.0019   21.6747 C   0  0  0  0  0  0  0  0  0  0  0  0
   10.0804  -16.6481   21.9955 O   0  0  0  0  0  0  0  0  0  0  0  0
    9.0191  -21.9146   21.0151 O   0  0  0  0  0  0  0  0  0  0  0  0
    8.1403  -12.0456   17.4708 O   0  0  0  0  0  0  0  0  0  0  0  0
    7.8894  -12.5194   18.7616 C   0  0  0  0  0  0  0  0  0  0  0  0
    8.5756  -12.0388   19.8575 C   0  0  0  0  0  0  0  0  0  0  0  0
    8.3268  -12.5076   21.1306 C   0  0  0  0  0  0  0  0  0  0  0  0
    7.3808  -13.4805   21.3795 C   0  0  0  0  0  0  0  0  0  0  0  0
    7.0684  -14.0367   22.7101 C   0  0  0  0  0  0  0  0  0  0  0  0
    7.9180  -15.1845   23.1393 C   0  0  2  0  0  0  0  0  0  0  0  0
    7.8123  -16.3169   22.2386 N   0  0  0  0  0  0  0  0  0  0  0  0
    7.5164  -15.6294   24.4938 C   0  0  0  0  0  0  0  0  0  0  0  0
    6.2982  -15.5771   24.7642 O   0  0  0  0  0  0  0  0  0  0  0  0
    6.6877  -13.9644   20.2659 C   0  0  0  0  0  0  0  0  0  0  0  0
    6.9408  -13.4920   18.9965 C   0  0  0  0  0  0  0  0  0  0  0  0
    9.8716  -21.8271   27.0968 N   0  0  0  0  0  0  0  0  0  0  0  0
    8.6429  -22.5717   27.1153 C   0  0  0  0  0  0  0  0  0  0  0  0
    8.5263  -23.6335   27.8281 N   0  0  0  0  0  0  0  0  0  0  0  0
    7.5242  -22.1408   26.3531 N   0  0  0  0  0  0  0  0  0  0  0  0
    7.5422  -21.0044   25.4676 C   0  0  0  0  0  0  0  0  0  0  0  0
    7.8970  -19.7763   26.3072 C   0  0  0  0  0  0  0  0  0  0  0  0
    7.9945  -18.5427   25.4858 C   0  0  0  0  0  0  0  0  0  0  0  0
    8.3492  -17.2835   26.2484 C   0  0  2  0  0  0  0  0  0  0  0  0
    8.4333  -16.0961   25.4602 N   0  0  0  0  0  0  0  0  0  0  0  0
    9.4983  -17.5563   27.1190 C   0  0  0  0  0  0  0  0  0  0  0  0
    9.3494  -17.8141   28.4715 O   0  0  0  0  0  0  0  0  0  0  0  0
   10.6628  -17.5615   26.6460 O   0  0  0  0  0  0  0  0  0  0  0  0
  2  1  1  6
  2  3  1  0
  3  4  1  0
  4  8  1  0
  5  4  2  0
  6  2  1  0
  7  6  2  0
  9 10  1  0
 10 11  2  0
 11 12  1  0
 13 12  2  0
 13 14  1  0
 15 16  1  0
 15 14  1  6
 16  6  1  0
 17 15  1  0
 18 17  2  0
 19 13  1  0
 20 10  1  0
 20 19  2  0
 22 21  1  0
 22 23  2  0
 24 22  1  0
 25 24  1  0
 26 25  1  0
 26 27  1  0
 28 27  1  6
 28 29  1  0
 29 17  1  0
 30 31  1  0
 30 28  1  0
 32 30  2  0
M  END
$$$$
