DYR.pdb
     RDKit          3D

 32 32  0  0  1  0  0  0  0  0999 V2000
    9.2687  -16.4662   17.9536 N   0  0  0  0  0  0  0  0  0  0  0  0
    8.5569  -17.0446   19.0644 C   0  0  1  0  0  0  0  0  0  0  0  0
    8.9612  -18.5088   19.1656 C   0  0  0  0  0  0  0  0  0  0  0  0
    8.5168  -19.2901   17.9877 C   0  0  0  0  0  0  0  0  0  0  0  0
    9.2881  -19.5633   17.0335 O   0  0  0  0  0  0  0  0  0  0  0  0
    8.8194  -16.3276   20.3353 C   0  0  0  0  0  0  0  0  0  0  0  0
   10.0316  -16.2261   20.6656 O   0  0  0  0  0  0  0  0  0  0  0  0
    7.1870  -19.7487   17.9212 O   0  0  0  0  0  0  0  0  0  0  0  0
    7.3554  -12.1077   28.1561 O   0  0  0  0  0  0  0  0  0  0  0  0
    7.2612  -12.6282   26.8623 C   0  0  0  0  0  0  0  0  0  0  0  0
    7.7901  -11.9668   25.7734 C   0  0  0  0  0  0  0  0  0  0  0  0
    7.6962  -12.4818   24.4974 C   0  0  0  0  0  0  0  0  0  0  0  0
    7.0700  -13.6836   24.2383 C   0  0  0  0  0  0  0  0  0  0  0  0
    6.9224  -14.2902   22.9013 C   0  0  0  0  0  0  0  0  0  0  0  0
    8.1079  -15.0485   22.4083 C   0  0  2  0  0  0  0  0  0  0  0  0
    7.8319  -15.7658   21.1778 N   0  0  0  0  0  0  0  0  0  0  0  0
    8.5392  -16.0293   23.4309 C   0  0  0  0  0  0  0  0  0  0  0  0
    7.9742  -17.1431   23.4146 O   0  0  0  0  0  0  0  0  0  0  0  0
    6.5358  -14.3505   25.3449 C   0  0  0  0  0  0  0  0  0  0  0  0
    6.6329  -13.8308   26.6173 C   0  0  0  0  0  0  0  0  0  0  0  0
   16.9227  -18.3968   23.6913 N   0  0  0  0  0  0  0  0  0  0  0  0
   16.0946  -19.3380   24.3934 C   0  0  0  0  0  0  0  0  0  0  0  0
   16.5564  -20.4801   24.7561 N   0  0  0  0  0  0  0  0  0  0  0  0
   14.7477  -19.0190   24.7131 N   0  0  0  0  0  0  0  0  0  0  0  0
   14.0695  -17.8340   24.2532 C   0  0  0  0  0  0  0  0  0  0  0  0
   12.7259  -17.7649   24.9807 C   0  0  0  0  0  0  0  0  0  0  0  0
   11.7986  -16.7866   24.3572 C   0  0  0  0  0  0  0  0  0  0  0  0
   10.4355  -16.6808   25.0082 C   0  0  2  0  0  0  0  0  0  0  0  0
    9.5356  -15.7586   24.3933 N   0  0  0  0  0  0  0  0  0  0  0  0
   10.6053  -16.5386   26.4586 C   0  0  0  0  0  0  0  0  0  0  0  0
   11.2119  -17.5189   27.2260 O   0  0  0  0  0  0  0  0  0  0  0  0
   10.1957  -15.5050   27.0449 O   0  0  0  0  0  0  0  0  0  0  0  0
  2  1  1  6
  2  3  1  0
  3  4  1  0
  4  8  1  0
  5  4  2  0
  6  2  1  0
  7  6  2  0
  9 10  1  0
 10 11  2  0
 11 12  1  0
 13 12  2  0
 13 14  1  0
 15 16  1  0
 15 14  1  1
 16  6  1  0
 17 15  1  0
 18 17  2  0
 19 13  1  0
 20 10  1  0
 20 19  2  0
 22 21  1  0
 22 23  2  0
 24 22  1  0
 25 24  1  0
 26 25  1  0
 26 27  1  0
 28 27  1  6
 28 29  1  0
 29 17  1  0
 30 31  1  0
 30 28  1  0
 32 30  2  0
M  END
$$$$
