DYR.pdb
     RDKit          3D

 32 32  0  0  1  0  0  0  0  0999 V2000
    7.1481  -15.7061   18.4364 N   0  0  0  0  0  0  0  0  0  0  0  0
    8.4740  -16.0609   18.8736 C   0  0  1  0  0  0  0  0  0  0  0  0
    9.4657  -15.4725   17.8796 C   0  0  0  0  0  0  0  0  0  0  0  0
    9.2208  -15.9543   16.5000 C   0  0  0  0  0  0  0  0  0  0  0  0
    8.7267  -17.0853   16.2616 O   0  0  0  0  0  0  0  0  0  0  0  0
    8.7558  -15.5928   20.2518 C   0  0  0  0  0  0  0  0  0  0  0  0
    9.7223  -14.7923   20.3706 O   0  0  0  0  0  0  0  0  0  0  0  0
    9.5483  -15.1273   15.4082 O   0  0  0  0  0  0  0  0  0  0  0  0
    6.5546  -11.6915   27.8828 O   0  0  0  0  0  0  0  0  0  0  0  0
    6.6412  -12.3419   26.6486 C   0  0  0  0  0  0  0  0  0  0  0  0
    7.2371  -11.7482   25.5554 C   0  0  0  0  0  0  0  0  0  0  0  0
    7.3216  -12.3914   24.3382 C   0  0  0  0  0  0  0  0  0  0  0  0
    6.8165  -13.6607   24.1455 C   0  0  0  0  0  0  0  0  0  0  0  0
    6.8610  -14.4053   22.8723 C   0  0  0  0  0  0  0  0  0  0  0  0
    8.0678  -15.2576   22.6714 C   0  0  2  0  0  0  0  0  0  0  0  0
    8.0357  -15.9715   21.4088 N   0  0  0  0  0  0  0  0  0  0  0  0
    8.1699  -16.2518   23.7646 C   0  0  0  0  0  0  0  0  0  0  0  0
    7.5179  -16.0138   24.8030 O   0  0  0  0  0  0  0  0  0  0  0  0
    6.2137  -14.2586   25.2563 C   0  0  0  0  0  0  0  0  0  0  0  0
    6.1324  -13.6108   26.4698 C   0  0  0  0  0  0  0  0  0  0  0  0
   15.3133  -15.5127   23.7740 N   0  0  0  0  0  0  0  0  0  0  0  0
   15.7014  -16.6331   22.9625 C   0  0  0  0  0  0  0  0  0  0  0  0
   16.7905  -16.6086   22.2825 N   0  0  0  0  0  0  0  0  0  0  0  0
   14.8925  -17.7995   22.9050 N   0  0  0  0  0  0  0  0  0  0  0  0
   13.5359  -17.8161   22.4200 C   0  0  0  0  0  0  0  0  0  0  0  0
   12.7133  -16.9047   23.3321 C   0  0  0  0  0  0  0  0  0  0  0  0
   11.2746  -16.8911   22.9637 C   0  0  0  0  0  0  0  0  0  0  0  0
   10.3471  -17.5683   23.9507 C   0  0  2  0  0  0  0  0  0  0  0  0
    8.9535  -17.4226   23.6773 N   0  0  0  0  0  0  0  0  0  0  0  0
   10.7698  -17.2333   25.3153 C   0  0  0  0  0  0  0  0  0  0  0  0
   11.3726  -18.1632   26.1458 O   0  0  0  0  0  0  0  0  0  0  0  0
   10.5898  -16.0741   25.7664 O   0  0  0  0  0  0  0  0  0  0  0  0
  2  1  1  6
  2  3  1  0
  3  4  1  0
  4  8  1  0
  5  4  2  0
  6  2  1  0
  7  6  2  0
  9 10  1  0
 10 11  2  0
 11 12  1  0
 13 12  2  0
 13 14  1  0
 15 16  1  0
 15 14  1  1
 16  6  1  0
 17 15  1  0
 18 17  2  0
 19 13  1  0
 20 10  1  0
 20 19  2  0
 22 21  1  0
 22 23  2  0
 24 22  1  0
 25 24  1  0
 26 25  1  0
 26 27  1  0
 28 27  1  6
 28 29  1  0
 29 17  1  0
 30 31  1  0
 30 28  1  0
 32 30  2  0
M  END
$$$$
