DYR.pdb
     RDKit          3D

 32 32  0  0  1  0  0  0  0  0999 V2000
    6.9138  -15.5850   18.4818 N   0  0  0  0  0  0  0  0  0  0  0  0
    8.1830  -14.9069   18.5493 C   0  0  1  0  0  0  0  0  0  0  0  0
    8.1461  -13.7493   17.5613 C   0  0  0  0  0  0  0  0  0  0  0  0
    7.8066  -14.1995   16.1912 C   0  0  0  0  0  0  0  0  0  0  0  0
    7.5875  -15.4063   15.9160 O   0  0  0  0  0  0  0  0  0  0  0  0
    8.4949  -14.4324   19.9188 C   0  0  0  0  0  0  0  0  0  0  0  0
    9.6694  -14.0108   20.0972 O   0  0  0  0  0  0  0  0  0  0  0  0
    7.7233  -13.2537   15.1511 O   0  0  0  0  0  0  0  0  0  0  0  0
    7.7488  -13.1425   28.7968 O   0  0  0  0  0  0  0  0  0  0  0  0
    7.5321  -13.2424   27.4195 C   0  0  0  0  0  0  0  0  0  0  0  0
    7.8470  -12.2117   26.5585 C   0  0  0  0  0  0  0  0  0  0  0  0
    7.6325  -12.3120   25.1997 C   0  0  0  0  0  0  0  0  0  0  0  0
    7.0925  -13.4448   24.6265 C   0  0  0  0  0  0  0  0  0  0  0  0
    6.8254  -13.6193   23.1857 C   0  0  0  0  0  0  0  0  0  0  0  0
    7.9626  -14.1563   22.3847 C   0  0  2  0  0  0  0  0  0  0  0  0
    7.5916  -14.4203   21.0072 N   0  0  0  0  0  0  0  0  0  0  0  0
    8.4490  -15.4201   22.9849 C   0  0  0  0  0  0  0  0  0  0  0  0
    7.7692  -16.4445   22.7652 O   0  0  0  0  0  0  0  0  0  0  0  0
    6.7752  -14.4868   25.5029 C   0  0  0  0  0  0  0  0  0  0  0  0
    6.9919  -14.3806   26.8595 C   0  0  0  0  0  0  0  0  0  0  0  0
   14.8054  -17.4407   19.1694 N   0  0  0  0  0  0  0  0  0  0  0  0
   14.4607  -16.1068   19.5774 C   0  0  0  0  0  0  0  0  0  0  0  0
   14.9163  -15.0858   18.9457 N   0  0  0  0  0  0  0  0  0  0  0  0
   13.5961  -15.8891   20.6835 N   0  0  0  0  0  0  0  0  0  0  0  0
   12.9101  -16.9414   21.3891 C   0  0  0  0  0  0  0  0  0  0  0  0
   12.1016  -16.2878   22.5108 C   0  0  0  0  0  0  0  0  0  0  0  0
   11.2886  -17.2747   23.2664 C   0  0  0  0  0  0  0  0  0  0  0  0
   10.2828  -16.6821   24.2309 C   0  0  2  0  0  0  0  0  0  0  0  0
    9.6175  -15.5052   23.7720 N   0  0  0  0  0  0  0  0  0  0  0  0
   10.8887  -16.5958   25.5644 C   0  0  0  0  0  0  0  0  0  0  0  0
   11.4397  -17.7001   26.1929 O   0  0  0  0  0  0  0  0  0  0  0  0
   10.9203  -15.4975   26.1747 O   0  0  0  0  0  0  0  0  0  0  0  0
  2  1  1  1
  2  3  1  0
  3  4  1  0
  4  8  1  0
  5  4  2  0
  6  2  1  0
  7  6  2  0
  9 10  1  0
 10 11  2  0
 11 12  1  0
 13 12  2  0
 13 14  1  0
 15 16  1  0
 15 14  1  1
 16  6  1  0
 17 15  1  0
 18 17  2  0
 19 13  1  0
 20 10  1  0
 20 19  2  0
 22 21  1  0
 22 23  2  0
 24 22  1  0
 25 24  1  0
 26 25  1  0
 26 27  1  0
 28 27  1  6
 28 29  1  0
 29 17  1  0
 30 31  1  0
 30 28  1  0
 32 30  2  0
M  END
$$$$
