DYR.pdb
     RDKit          3D

 32 32  0  0  1  0  0  0  0  0999 V2000
    9.5696  -17.7741   18.0181 N   0  0  0  0  0  0  0  0  0  0  0  0
    9.0237  -18.1525   19.2963 C   0  0  1  0  0  0  0  0  0  0  0  0
    9.5645  -19.5325   19.6440 C   0  0  0  0  0  0  0  0  0  0  0  0
    9.0710  -20.5731   18.7121 C   0  0  0  0  0  0  0  0  0  0  0  0
    7.8453  -20.7873   18.5330 O   0  0  0  0  0  0  0  0  0  0  0  0
    9.3440  -17.1687   20.3582 C   0  0  0  0  0  0  0  0  0  0  0  0
   10.5644  -16.8798   20.4860 O   0  0  0  0  0  0  0  0  0  0  0  0
    9.9955  -21.3573   17.9954 O   0  0  0  0  0  0  0  0  0  0  0  0
    6.8948  -11.2688   17.7207 O   0  0  0  0  0  0  0  0  0  0  0  0
    7.0740  -12.0754   18.8481 C   0  0  0  0  0  0  0  0  0  0  0  0
    6.2575  -13.1574   19.1038 C   0  0  0  0  0  0  0  0  0  0  0  0
    6.4357  -13.9523   20.2167 C   0  0  0  0  0  0  0  0  0  0  0  0
    7.4372  -13.7111   21.1346 C   0  0  0  0  0  0  0  0  0  0  0  0
    7.6811  -14.5103   22.3508 C   0  0  0  0  0  0  0  0  0  0  0  0
    8.7291  -15.5635   22.2250 C   0  0  2  0  0  0  0  0  0  0  0  0
    8.4019  -16.5498   21.2126 N   0  0  0  0  0  0  0  0  0  0  0  0
    8.8968  -16.2643   23.5191 C   0  0  0  0  0  0  0  0  0  0  0  0
    7.9566  -16.1686   24.3357 O   0  0  0  0  0  0  0  0  0  0  0  0
    8.2624  -12.6137   20.8712 C   0  0  0  0  0  0  0  0  0  0  0  0
    8.0793  -11.8234   19.7574 C   0  0  0  0  0  0  0  0  0  0  0  0
   14.9855  -22.3692   26.7805 N   0  0  0  0  0  0  0  0  0  0  0  0
   13.8025  -22.2928   27.5924 C   0  0  0  0  0  0  0  0  0  0  0  0
   13.6621  -23.0432   28.6250 N   0  0  0  0  0  0  0  0  0  0  0  0
   12.7660  -21.3741   27.2762 N   0  0  0  0  0  0  0  0  0  0  0  0
   12.7378  -20.5719   26.0798 C   0  0  0  0  0  0  0  0  0  0  0  0
   11.5168  -19.6556   26.1726 C   0  0  0  0  0  0  0  0  0  0  0  0
   11.3416  -18.8269   24.9526 C   0  0  0  0  0  0  0  0  0  0  0  0
   10.3104  -17.7234   25.0620 C   0  0  2  0  0  0  0  0  0  0  0  0
   10.0458  -17.0135   23.8519 N   0  0  0  0  0  0  0  0  0  0  0  0
   10.6138  -16.8966   26.2356 C   0  0  0  0  0  0  0  0  0  0  0  0
   11.5445  -15.8722   26.1907 O   0  0  0  0  0  0  0  0  0  0  0  0
   10.0242  -17.1056   27.3258 O   0  0  0  0  0  0  0  0  0  0  0  0
  2  1  1  6
  2  3  1  0
  3  4  1  0
  4  8  1  0
  5  4  2  0
  6  2  1  0
  7  6  2  0
  9 10  1  0
 10 11  2  0
 11 12  1  0
 13 12  2  0
 13 14  1  0
 15 16  1  0
 15 14  1  1
 16  6  1  0
 17 15  1  0
 18 17  2  0
 19 13  1  0
 20 10  1  0
 20 19  2  0
 22 21  1  0
 22 23  2  0
 24 22  1  0
 25 24  1  0
 26 25  1  0
 26 27  1  0
 28 27  1  6
 28 29  1  0
 29 17  1  0
 30 31  1  0
 30 28  1  0
 32 30  2  0
M  END
$$$$
