DYR.pdb
     RDKit          3D

 32 32  0  0  1  0  0  0  0  0999 V2000
    9.1054  -17.2786   19.3007 N   0  0  0  0  0  0  0  0  0  0  0  0
   10.3529  -17.0394   19.9800 C   0  0  1  0  0  0  0  0  0  0  0  0
   11.3156  -16.4137   18.9802 C   0  0  0  0  0  0  0  0  0  0  0  0
   11.5108  -17.2700   17.7870 C   0  0  0  0  0  0  0  0  0  0  0  0
   10.5712  -17.9261   17.2705 O   0  0  0  0  0  0  0  0  0  0  0  0
   10.1865  -16.1774   21.1747 C   0  0  0  0  0  0  0  0  0  0  0  0
   11.2528  -15.8217   21.7451 O   0  0  0  0  0  0  0  0  0  0  0  0
   12.7879  -17.3618   17.2007 O   0  0  0  0  0  0  0  0  0  0  0  0
    6.5096  -11.7630   28.0575 O   0  0  0  0  0  0  0  0  0  0  0  0
    6.7247  -12.4243   26.8450 C   0  0  0  0  0  0  0  0  0  0  0  0
    6.2110  -13.6814   26.6027 C   0  0  0  0  0  0  0  0  0  0  0  0
    6.4242  -14.3325   25.4056 C   0  0  0  0  0  0  0  0  0  0  0  0
    7.1610  -13.7656   24.3861 C   0  0  0  0  0  0  0  0  0  0  0  0
    7.4389  -14.4053   23.0857 C   0  0  0  0  0  0  0  0  0  0  0  0
    8.7962  -15.0063   22.9453 C   0  0  2  0  0  0  0  0  0  0  0  0
    8.9497  -15.7393   21.7028 N   0  0  0  0  0  0  0  0  0  0  0  0
    9.0535  -15.9370   24.0685 C   0  0  0  0  0  0  0  0  0  0  0  0
    8.3889  -16.9943   24.0854 O   0  0  0  0  0  0  0  0  0  0  0  0
    7.6794  -12.4915   24.6361 C   0  0  0  0  0  0  0  0  0  0  0  0
    7.4628  -11.8461   25.8342 C   0  0  0  0  0  0  0  0  0  0  0  0
   16.0427  -16.1061   24.8345 N   0  0  0  0  0  0  0  0  0  0  0  0
   15.4449  -17.2772   24.2551 C   0  0  0  0  0  0  0  0  0  0  0  0
   16.1711  -18.2530   23.8433 N   0  0  0  0  0  0  0  0  0  0  0  0
   14.0333  -17.3857   24.1368 N   0  0  0  0  0  0  0  0  0  0  0  0
   13.2762  -18.5382   24.5541 C   0  0  0  0  0  0  0  0  0  0  0  0
   11.8367  -18.0784   24.7901 C   0  0  0  0  0  0  0  0  0  0  0  0
   11.7090  -17.2301   26.0024 C   0  0  0  0  0  0  0  0  0  0  0  0
   10.3745  -16.5337   26.1677 C   0  0  2  0  0  0  0  0  0  0  0  0
    9.9942  -15.6795   25.0888 N   0  0  0  0  0  0  0  0  0  0  0  0
   10.3043  -15.9412   27.5082 C   0  0  0  0  0  0  0  0  0  0  0  0
   10.0721  -14.5898   27.7019 O   0  0  0  0  0  0  0  0  0  0  0  0
   10.4566  -16.6617   28.5268 O   0  0  0  0  0  0  0  0  0  0  0  0
  2  1  1  6
  2  3  1  0
  3  4  1  0
  4  8  1  0
  5  4  2  0
  6  2  1  0
  7  6  2  0
  9 10  1  0
 10 11  2  0
 11 12  1  0
 13 12  2  0
 13 14  1  0
 15 16  1  0
 15 14  1  1
 16  6  1  0
 17 15  1  0
 18 17  2  0
 19 13  1  0
 20 10  1  0
 20 19  2  0
 22 21  1  0
 22 23  2  0
 24 22  1  0
 25 24  1  0
 26 25  1  0
 26 27  1  0
 28 27  1  6
 28 29  1  0
 29 17  1  0
 30 31  1  0
 30 28  1  0
 32 30  2  0
M  END
$$$$
