ITV.pdb
     RDKit          3D

 23 22  0  0  1  0  0  0  0  0999 V2000
   14.3656  -16.5085  -18.3719 C   0  0  0  0  0  0  0  0  0  0  0  0
   15.0735  -16.0122  -17.1180 C   0  0  0  0  0  0  0  0  0  0  0  0
   15.9630  -14.8701  -17.5313 C   0  0  2  0  0  0  0  0  0  0  0  0
   16.9586  -15.3173  -18.5822 C   0  0  0  0  0  0  0  0  0  0  0  0
   16.7421  -14.2852  -16.3899 C   0  0  2  0  0  0  0  0  0  0  0  0
   15.7835  -13.8244  -15.3837 N   0  0  0  0  0  0  0  0  0  0  0  0
   17.5917  -13.1482  -16.7718 C   0  0  0  0  0  0  0  0  0  0  0  0
   18.5772  -13.2755  -17.5520 O   0  0  0  0  0  0  0  0  0  0  0  0
   16.1924   -9.4183  -15.9553 C   0  0  0  0  0  0  0  0  0  0  0  0
   17.2533   -9.5773  -17.0267 C   0  0  1  0  0  0  0  0  0  0  0  0
   17.8850   -8.3770  -17.2623 O   0  0  0  0  0  0  0  0  0  0  0  0
   18.2018  -10.7017  -16.6710 C   0  0  2  0  0  0  0  0  0  0  0  0
   17.3475  -11.8328  -16.2792 N   0  0  0  0  0  0  0  0  0  0  0  0
   19.0895  -10.3349  -15.5295 C   0  0  0  0  0  0  0  0  0  0  0  0
   18.6900  -10.4241  -14.3621 O   0  0  0  0  0  0  0  0  0  0  0  0
   23.6221  -10.0289  -13.9373 C   0  0  0  0  0  0  0  0  0  0  0  0
   22.6871  -10.2915  -15.1045 C   0  0  1  0  0  0  0  0  0  0  0  0
   22.4765  -11.7660  -15.2915 C   0  0  0  0  0  0  0  0  0  0  0  0
   21.3667   -9.6062  -14.7614 C   0  0  2  0  0  0  0  0  0  0  0  0
   20.4062   -9.8799  -15.8072 N   0  0  0  0  0  0  0  0  0  0  0  0
   21.5394   -8.1524  -14.6266 C   0  0  0  0  0  0  0  0  0  0  0  0
   21.7628   -7.5373  -13.3954 O   0  0  0  0  0  0  0  0  0  0  0  0
   21.4862   -7.4271  -15.6484 O   0  0  0  0  0  0  0  0  0  0  0  0
  2  3  1  0
  2  1  1  0
  3  4  1  6
  5  7  1  0
  5  3  1  0
  5  6  1  1
  7  8  2  0
 10 12  1  0
 10  9  1  1
 11 10  1  0
 12 13  1  1
 13  7  1  0
 14 20  1  0
 14 12  1  0
 15 14  2  0
 17 16  1  1
 17 18  1  0
 19 20  1  6
 19 17  1  0
 21 22  1  0
 21 19  1  0
 23 21  2  0
M  END
$$$$
