ITV.pdb
     RDKit          3D

 23 22  0  0  1  0  0  0  0  0999 V2000
   17.8749  -15.1919  -18.1964 C   0  0  0  0  0  0  0  0  0  0  0  0
   17.4344  -13.7768  -17.8453 C   0  0  0  0  0  0  0  0  0  0  0  0
   18.6760  -12.9941  -17.5101 C   0  0  2  0  0  0  0  0  0  0  0  0
   19.3886  -13.6010  -16.3187 C   0  0  0  0  0  0  0  0  0  0  0  0
   18.3980  -11.5555  -17.1863 C   0  0  2  0  0  0  0  0  0  0  0  0
   17.8248  -10.9311  -18.3802 N   0  0  0  0  0  0  0  0  0  0  0  0
   19.5925  -10.7932  -16.7959 C   0  0  0  0  0  0  0  0  0  0  0  0
   20.3875  -11.1978  -15.9013 O   0  0  0  0  0  0  0  0  0  0  0  0
   22.2558   -9.3194  -19.1587 C   0  0  0  0  0  0  0  0  0  0  0  0
   21.6833   -8.2175  -18.2888 C   0  0  1  0  0  0  0  0  0  0  0  0
   20.7803   -7.4605  -19.0006 O   0  0  0  0  0  0  0  0  0  0  0  0
   21.1160   -8.7929  -17.0090 C   0  0  2  0  0  0  0  0  0  0  0  0
   19.9197   -9.5486  -17.4097 N   0  0  0  0  0  0  0  0  0  0  0  0
   20.7241   -7.7212  -16.0481 C   0  0  0  0  0  0  0  0  0  0  0  0
   19.6455   -7.1272  -16.1667 O   0  0  0  0  0  0  0  0  0  0  0  0
   21.1326   -5.8689  -11.6292 C   0  0  0  0  0  0  0  0  0  0  0  0
   21.3542   -7.0028  -12.6145 C   0  0  1  0  0  0  0  0  0  0  0  0
   20.2820   -8.0438  -12.4721 C   0  0  0  0  0  0  0  0  0  0  0  0
   21.3064   -6.3789  -14.0071 C   0  0  2  0  0  0  0  0  0  0  0  0
   21.6141   -7.3935  -14.9905 N   0  0  0  0  0  0  0  0  0  0  0  0
   22.2684   -5.2738  -14.1298 C   0  0  0  0  0  0  0  0  0  0  0  0
   23.4874   -5.4142  -14.7918 O   0  0  0  0  0  0  0  0  0  0  0  0
   21.9951   -4.1586  -13.6251 O   0  0  0  0  0  0  0  0  0  0  0  0
  2  3  1  0
  2  1  1  0
  3  4  1  1
  5  7  1  0
  5  3  1  0
  5  6  1  6
  7  8  2  0
 10 12  1  0
 10  9  1  6
 11 10  1  0
 12 13  1  6
 13  7  1  0
 14 20  1  0
 14 12  1  0
 15 14  2  0
 17 16  1  1
 17 18  1  0
 19 20  1  6
 19 17  1  0
 21 22  1  0
 21 19  1  0
 23 21  2  0
M  END
$$$$
