ITV.pdb
     RDKit          3D

 23 22  0  0  1  0  0  0  0  0999 V2000
   15.8773  -16.8147  -18.7834 C   0  0  0  0  0  0  0  0  0  0  0  0
   16.5121  -16.3266  -17.4879 C   0  0  0  0  0  0  0  0  0  0  0  0
   17.2272  -15.0389  -17.7999 C   0  0  2  0  0  0  0  0  0  0  0  0
   18.3334  -15.2694  -18.8092 C   0  0  0  0  0  0  0  0  0  0  0  0
   17.8438  -14.3978  -16.5914 C   0  0  2  0  0  0  0  0  0  0  0  0
   16.7673  -14.1007  -15.6445 N   0  0  0  0  0  0  0  0  0  0  0  0
   18.5596  -13.1476  -16.8826 C   0  0  0  0  0  0  0  0  0  0  0  0
   19.5902  -13.1153  -17.6126 O   0  0  0  0  0  0  0  0  0  0  0  0
   17.2350  -10.0230  -18.4485 C   0  0  0  0  0  0  0  0  0  0  0  0
   17.7847   -9.6592  -17.0832 C   0  0  1  0  0  0  0  0  0  0  0  0
   16.7619   -9.5214  -16.1721 O   0  0  0  0  0  0  0  0  0  0  0  0
   18.8461  -10.6505  -16.6574 C   0  0  2  0  0  0  0  0  0  0  0  0
   18.1264  -11.8965  -16.3534 N   0  0  0  0  0  0  0  0  0  0  0  0
   19.5737  -10.1910  -15.4389 C   0  0  0  0  0  0  0  0  0  0  0  0
   19.0652  -10.3036  -14.3169 O   0  0  0  0  0  0  0  0  0  0  0  0
   22.8566  -11.1230  -14.1941 C   0  0  0  0  0  0  0  0  0  0  0  0
   23.0082   -9.6359  -14.4609 C   0  0  1  0  0  0  0  0  0  0  0  0
   23.6837   -9.4021  -15.7810 C   0  0  0  0  0  0  0  0  0  0  0  0
   21.5964   -9.0550  -14.4771 C   0  0  2  0  0  0  0  0  0  0  0  0
   20.8656   -9.6197  -15.5899 N   0  0  0  0  0  0  0  0  0  0  0  0
   21.6236   -7.5906  -14.6049 C   0  0  0  0  0  0  0  0  0  0  0  0
   21.2427   -6.9354  -15.7752 O   0  0  0  0  0  0  0  0  0  0  0  0
   22.0011   -6.8930  -13.6333 O   0  0  0  0  0  0  0  0  0  0  0  0
  2  3  1  0
  2  1  1  0
  3  4  1  6
  5  7  1  0
  5  3  1  0
  5  6  1  1
  7  8  2  0
 10 12  1  0
 10  9  1  6
 11 10  1  0
 12 13  1  1
 13  7  1  0
 14 20  1  0
 14 12  1  0
 15 14  2  0
 17 16  1  6
 17 18  1  0
 19 20  1  6
 19 17  1  0
 21 22  1  0
 21 19  1  0
 23 21  2  0
M  END
$$$$
