ITV.pdb
     RDKit          3D

 23 22  0  0  1  0  0  0  0  0999 V2000
   16.7340  -17.0643  -15.1851 C   0  0  0  0  0  0  0  0  0  0  0  0
   16.4104  -16.1339  -16.3467 C   0  0  0  0  0  0  0  0  0  0  0  0
   17.5707  -15.1861  -16.4947 C   0  0  2  0  0  0  0  0  0  0  0  0
   17.7858  -14.3966  -15.2195 C   0  0  0  0  0  0  0  0  0  0  0  0
   17.3897  -14.2006  -17.6118 C   0  0  2  0  0  0  0  0  0  0  0  0
   17.3179  -14.9538  -18.8653 N   0  0  0  0  0  0  0  0  0  0  0  0
   18.4813  -13.2228  -17.7236 C   0  0  0  0  0  0  0  0  0  0  0  0
   19.5850  -13.5043  -18.2701 O   0  0  0  0  0  0  0  0  0  0  0  0
   18.6264  -10.3364  -19.6644 C   0  0  0  0  0  0  0  0  0  0  0  0
   18.8603   -9.8189  -18.2587 C   0  0  1  0  0  0  0  0  0  0  0  0
   17.7113   -9.2514  -17.7558 O   0  0  0  0  0  0  0  0  0  0  0  0
   19.4318  -10.9105  -17.3799 C   0  0  2  0  0  0  0  0  0  0  0  0
   18.3521  -11.8959  -17.2181 N   0  0  0  0  0  0  0  0  0  0  0  0
   19.8292  -10.3892  -16.0399 C   0  0  0  0  0  0  0  0  0  0  0  0
   19.0169  -10.3532  -15.1076 O   0  0  0  0  0  0  0  0  0  0  0  0
   23.0585  -11.4490  -14.3371 C   0  0  0  0  0  0  0  0  0  0  0  0
   23.0936   -9.9320  -14.3921 C   0  0  1  0  0  0  0  0  0  0  0  0
   23.9350   -9.4644  -15.5441 C   0  0  0  0  0  0  0  0  0  0  0  0
   21.6483   -9.4738  -14.5703 C   0  0  2  0  0  0  0  0  0  0  0  0
   21.1614   -9.9331  -15.8521 N   0  0  0  0  0  0  0  0  0  0  0  0
   21.5411   -8.0090  -14.5047 C   0  0  0  0  0  0  0  0  0  0  0  0
   21.3270   -7.2239  -15.6369 O   0  0  0  0  0  0  0  0  0  0  0  0
   21.6443   -7.4315  -13.3962 O   0  0  0  0  0  0  0  0  0  0  0  0
  2  3  1  0
  2  1  1  0
  3  4  1  1
  5  7  1  0
  5  3  1  0
  5  6  1  6
  7  8  2  0
 10 12  1  0
 10  9  1  6
 11 10  1  0
 12 13  1  1
 13  7  1  0
 14 20  1  0
 14 12  1  0
 15 14  2  0
 17 16  1  6
 17 18  1  0
 19 20  1  6
 19 17  1  0
 21 22  1  0
 21 19  1  0
 23 21  2  0
M  END
$$$$
