ITV.pdb
     RDKit          3D

 23 22  0  0  1  0  0  0  0  0999 V2000
   16.9494  -14.4209  -17.8026 C   0  0  0  0  0  0  0  0  0  0  0  0
   17.3058  -12.9843  -18.1614 C   0  0  0  0  0  0  0  0  0  0  0  0
   18.1596  -12.4452  -17.0446 C   0  0  2  0  0  0  0  0  0  0  0  0
   17.4007  -12.4586  -15.7334 C   0  0  0  0  0  0  0  0  0  0  0  0
   18.6254  -11.0388  -17.2833 C   0  0  2  0  0  0  0  0  0  0  0  0
   19.4466  -11.0393  -18.4955 N   0  0  0  0  0  0  0  0  0  0  0  0
   19.4274  -10.4842  -16.1836 C   0  0  0  0  0  0  0  0  0  0  0  0
   19.0051  -10.4473  -14.9935 O   0  0  0  0  0  0  0  0  0  0  0  0
   23.8300   -9.4377  -14.3776 C   0  0  0  0  0  0  0  0  0  0  0  0
   22.8538  -10.0923  -15.3352 C   0  0  1  0  0  0  0  0  0  0  0  0
   22.7666  -11.4435  -15.0869 O   0  0  0  0  0  0  0  0  0  0  0  0
   21.5178   -9.3820  -15.2985 C   0  0  2  0  0  0  0  0  0  0  0  0
   20.7331   -9.9550  -16.4025 N   0  0  0  0  0  0  0  0  0  0  0  0
   21.6677   -7.9129  -15.5100 C   0  0  0  0  0  0  0  0  0  0  0  0
   22.0339   -7.4641  -16.6030 O   0  0  0  0  0  0  0  0  0  0  0  0
   19.4799   -5.4396  -15.8141 C   0  0  0  0  0  0  0  0  0  0  0  0
   20.1731   -4.9399  -14.5589 C   0  0  1  0  0  0  0  0  0  0  0  0
   19.3892   -5.3187  -13.3359 C   0  0  0  0  0  0  0  0  0  0  0  0
   21.5484   -5.6022  -14.5337 C   0  0  2  0  0  0  0  0  0  0  0  0
   21.3814   -7.0349  -14.4305 N   0  0  0  0  0  0  0  0  0  0  0  0
   22.3509   -5.1222  -13.3991 C   0  0  0  0  0  0  0  0  0  0  0  0
   23.0230   -3.9008  -13.4228 O   0  0  0  0  0  0  0  0  0  0  0  0
   22.4428   -5.8272  -12.3659 O   0  0  0  0  0  0  0  0  0  0  0  0
  2  3  1  0
  2  1  1  0
  3  4  1  1
  5  7  1  0
  5  3  1  0
  5  6  1  6
  7  8  2  0
 10 12  1  0
 10  9  1  1
 11 10  1  0
 12 13  1  6
 13  7  1  0
 14 20  1  0
 14 12  1  0
 15 14  2  0
 17 16  1  6
 17 18  1  0
 19 20  1  1
 19 17  1  0
 21 22  1  0
 21 19  1  0
 23 21  2  0
M  END
$$$$
