ITV.pdb
     RDKit          3D

 23 22  0  0  1  0  0  0  0  0999 V2000
   19.3303  -19.8384  -14.0296 C   0  0  0  0  0  0  0  0  0  0  0  0
   20.7565  -19.7856  -14.5614 C   0  0  0  0  0  0  0  0  0  0  0  0
   21.6265  -20.5205  -13.5767 C   0  0  2  0  0  0  0  0  0  0  0  0
   21.4667  -19.9449  -12.1844 C   0  0  0  0  0  0  0  0  0  0  0  0
   23.0856  -20.4678  -13.9234 C   0  0  2  0  0  0  0  0  0  0  0  0
   23.2707  -21.1811  -15.1885 N   0  0  0  0  0  0  0  0  0  0  0  0
   23.9582  -21.0848  -12.9144 C   0  0  0  0  0  0  0  0  0  0  0  0
   23.8563  -22.3011  -12.5883 O   0  0  0  0  0  0  0  0  0  0  0  0
   27.0574  -22.1852  -13.1139 C   0  0  0  0  0  0  0  0  0  0  0  0
   27.1941  -21.1544  -12.0106 C   0  0  1  0  0  0  0  0  0  0  0  0
   27.7075  -19.9786  -12.5096 O   0  0  0  0  0  0  0  0  0  0  0  0
   25.8793  -20.9804  -11.2815 C   0  0  2  0  0  0  0  0  0  0  0  0
   24.9727  -20.3390  -12.2455 N   0  0  0  0  0  0  0  0  0  0  0  0
   26.0246  -20.1048  -10.0825 C   0  0  0  0  0  0  0  0  0  0  0  0
   25.6052  -18.9411  -10.0931 O   0  0  0  0  0  0  0  0  0  0  0  0
   26.9373  -19.8243   -5.3017 C   0  0  0  0  0  0  0  0  0  0  0  0
   26.5663  -20.6741   -6.5042 C   0  0  1  0  0  0  0  0  0  0  0  0
   25.1063  -21.0222   -6.4749 C   0  0  0  0  0  0  0  0  0  0  0  0
   26.8873  -19.8362   -7.7393 C   0  0  2  0  0  0  0  0  0  0  0  0
   26.6552  -20.6323   -8.9240 N   0  0  0  0  0  0  0  0  0  0  0  0
   28.2846  -19.3791   -7.7254 C   0  0  0  0  0  0  0  0  0  0  0  0
   28.6812  -18.2074   -7.0821 O   0  0  0  0  0  0  0  0  0  0  0  0
   29.1622  -20.0584   -8.3096 O   0  0  0  0  0  0  0  0  0  0  0  0
  2  3  1  0
  2  1  1  0
  3  4  1  1
  5  7  1  0
  5  3  1  0
  5  6  1  6
  7  8  2  0
 10 12  1  0
 10  9  1  6
 11 10  1  0
 12 13  1  6
 13  7  1  0
 14 20  1  0
 14 12  1  0
 15 14  2  0
 17 16  1  1
 17 18  1  0
 19 20  1  6
 19 17  1  0
 21 22  1  0
 21 19  1  0
 23 21  2  0
M  END
$$$$
