ITV.pdb
     RDKit          3D

 23 22  0  0  1  0  0  0  0  0999 V2000
   15.0158  -12.8063  -15.6246 C   0  0  0  0  0  0  0  0  0  0  0  0
   15.9434  -12.7305  -16.8302 C   0  0  0  0  0  0  0  0  0  0  0  0
   17.1443  -11.9215  -16.4178 C   0  0  2  0  0  0  0  0  0  0  0  0
   16.7363  -10.5166  -16.0238 C   0  0  0  0  0  0  0  0  0  0  0  0
   18.1782  -11.8059  -17.4992 C   0  0  2  0  0  0  0  0  0  0  0  0
   18.5677  -13.1614  -17.8924 N   0  0  0  0  0  0  0  0  0  0  0  0
   19.3882  -11.0795  -17.0886 C   0  0  0  0  0  0  0  0  0  0  0  0
   20.3072  -11.6267  -16.4162 O   0  0  0  0  0  0  0  0  0  0  0  0
   21.8044   -9.1859  -19.2161 C   0  0  0  0  0  0  0  0  0  0  0  0
   21.2923   -8.2207  -18.1651 C   0  0  1  0  0  0  0  0  0  0  0  0
   20.3708   -7.3563  -18.7117 O   0  0  0  0  0  0  0  0  0  0  0  0
   20.7748   -8.9750  -16.9594 C   0  0  2  0  0  0  0  0  0  0  0  0
   19.5907   -9.7099  -17.4292 N   0  0  0  0  0  0  0  0  0  0  0  0
   20.3772   -8.0502  -15.8584 C   0  0  0  0  0  0  0  0  0  0  0  0
   19.2302   -7.5907  -15.8001 O   0  0  0  0  0  0  0  0  0  0  0  0
   22.5886   -8.1067  -12.3689 C   0  0  0  0  0  0  0  0  0  0  0  0
   21.1452   -7.6444  -12.4615 C   0  0  1  0  0  0  0  0  0  0  0  0
   20.7888   -6.7855  -11.2830 C   0  0  0  0  0  0  0  0  0  0  0  0
   21.0318   -6.8429  -13.7559 C   0  0  2  0  0  0  0  0  0  0  0  0
   21.3421   -7.7052  -14.8746 N   0  0  0  0  0  0  0  0  0  0  0  0
   21.9512   -5.6957  -13.7552 C   0  0  0  0  0  0  0  0  0  0  0  0
   21.6227   -4.4751  -13.1668 O   0  0  0  0  0  0  0  0  0  0  0  0
   23.0755   -5.8052  -14.3003 O   0  0  0  0  0  0  0  0  0  0  0  0
  2  3  1  0
  2  1  1  0
  3  4  1  6
  5  7  1  0
  5  3  1  0
  5  6  1  1
  7  8  2  0
 10 12  1  0
 10  9  1  6
 11 10  1  0
 12 13  1  6
 13  7  1  0
 14 20  1  0
 14 12  1  0
 15 14  2  0
 17 16  1  1
 17 18  1  0
 19 20  1  6
 19 17  1  0
 21 22  1  0
 21 19  1  0
 23 21  2  0
M  END
$$$$
