ITV.pdb
     RDKit          3D

 23 22  0  0  1  0  0  0  0  0999 V2000
   27.4690  -19.9889   -7.2583 C   0  0  0  0  0  0  0  0  0  0  0  0
   27.4825  -21.1090   -8.2903 C   0  0  0  0  0  0  0  0  0  0  0  0
   26.6649  -20.6420   -9.4651 C   0  0  2  0  0  0  0  0  0  0  0  0
   25.2198  -20.4282   -9.0631 C   0  0  0  0  0  0  0  0  0  0  0  0
   26.6768  -21.6071  -10.6141 C   0  0  2  0  0  0  0  0  0  0  0  0
   28.0744  -21.9025  -10.9355 N   0  0  0  0  0  0  0  0  0  0  0  0
   26.0234  -21.0946  -11.8268 C   0  0  0  0  0  0  0  0  0  0  0  0
   26.5071  -20.1427  -12.5020 O   0  0  0  0  0  0  0  0  0  0  0  0
   25.6336  -22.6653  -14.9199 C   0  0  0  0  0  0  0  0  0  0  0  0
   24.2108  -22.3469  -14.5040 C   0  0  1  0  0  0  0  0  0  0  0  0
   23.5917  -23.4697  -14.0028 O   0  0  0  0  0  0  0  0  0  0  0  0
   24.1868  -21.1675  -13.5559 C   0  0  2  0  0  0  0  0  0  0  0  0
   24.8010  -21.6479  -12.3090 N   0  0  0  0  0  0  0  0  0  0  0  0
   22.7940  -20.7120  -13.2765 C   0  0  0  0  0  0  0  0  0  0  0  0
   22.2781  -20.8945  -12.1670 O   0  0  0  0  0  0  0  0  0  0  0  0
   19.2112  -17.7469  -14.8433 C   0  0  0  0  0  0  0  0  0  0  0  0
   20.6608  -18.1907  -14.9287 C   0  0  1  0  0  0  0  0  0  0  0  0
   21.5723  -17.1242  -14.3947 C   0  0  0  0  0  0  0  0  0  0  0  0
   20.7740  -19.4573  -14.0839 C   0  0  2  0  0  0  0  0  0  0  0  0
   22.0676  -20.0626  -14.3102 N   0  0  0  0  0  0  0  0  0  0  0  0
   19.7182  -20.4220  -14.4249 C   0  0  0  0  0  0  0  0  0  0  0  0
   18.5582  -20.5605  -13.6638 O   0  0  0  0  0  0  0  0  0  0  0  0
   19.8531  -21.1534  -15.4347 O   0  0  0  0  0  0  0  0  0  0  0  0
  2  3  1  0
  2  1  1  0
  3  4  1  1
  5  7  1  0
  5  3  1  0
  5  6  1  6
  7  8  2  0
 10 12  1  0
 10  9  1  1
 11 10  1  0
 12 13  1  1
 13  7  1  0
 14 20  1  0
 14 12  1  0
 15 14  2  0
 17 16  1  1
 17 18  1  0
 19 20  1  6
 19 17  1  0
 21 22  1  0
 21 19  1  0
 23 21  2  0
M  END
$$$$
