ITV.pdb
     RDKit          3D

 23 22  0  0  1  0  0  0  0  0999 V2000
   17.2086  -14.5118  -18.0730 C   0  0  0  0  0  0  0  0  0  0  0  0
   17.7054  -13.8422  -16.7984 C   0  0  0  0  0  0  0  0  0  0  0  0
   18.0253  -12.4118  -17.1425 C   0  0  2  0  0  0  0  0  0  0  0  0
   19.1005  -12.3429  -18.2078 C   0  0  0  0  0  0  0  0  0  0  0  0
   18.5033  -11.6137  -15.9650 C   0  0  2  0  0  0  0  0  0  0  0  0
   17.4049  -11.5391  -14.9998 N   0  0  0  0  0  0  0  0  0  0  0  0
   18.9134  -10.2435  -16.3035 C   0  0  0  0  0  0  0  0  0  0  0  0
   19.9169  -10.0008  -17.0316 O   0  0  0  0  0  0  0  0  0  0  0  0
   16.8795   -7.7494  -18.0830 C   0  0  0  0  0  0  0  0  0  0  0  0
   17.2790   -7.1234  -16.7612 C   0  0  1  0  0  0  0  0  0  0  0  0
   16.2363   -7.1825  -15.8643 O   0  0  0  0  0  0  0  0  0  0  0  0
   18.5584   -7.7458  -16.2449 C   0  0  2  0  0  0  0  0  0  0  0  0
   18.1960   -9.1079  -15.8253 N   0  0  0  0  0  0  0  0  0  0  0  0
   19.1035   -6.9975  -15.0751 C   0  0  0  0  0  0  0  0  0  0  0  0
   18.6359   -7.1648  -13.9421 O   0  0  0  0  0  0  0  0  0  0  0  0
   22.0748   -7.2822  -13.4978 C   0  0  0  0  0  0  0  0  0  0  0  0
   22.2015   -5.8494  -13.9843 C   0  0  1  0  0  0  0  0  0  0  0  0
   22.9791   -5.7938  -15.2671 C   0  0  0  0  0  0  0  0  0  0  0  0
   20.7786   -5.3417  -14.2039 C   0  0  2  0  0  0  0  0  0  0  0  0
   20.1727   -6.0861  -15.2855 N   0  0  0  0  0  0  0  0  0  0  0  0
   20.7684   -3.9088  -14.5329 C   0  0  0  0  0  0  0  0  0  0  0  0
   20.4660   -3.4373  -15.8098 O   0  0  0  0  0  0  0  0  0  0  0  0
   21.0397   -3.0688  -13.6420 O   0  0  0  0  0  0  0  0  0  0  0  0
  2  3  1  0
  2  1  1  0
  3  4  1  6
  5  7  1  0
  5  3  1  0
  5  6  1  1
  7  8  2  0
 10 12  1  0
 10  9  1  6
 11 10  1  0
 12 13  1  1
 13  7  1  0
 14 20  1  0
 14 12  1  0
 15 14  2  0
 17 16  1  6
 17 18  1  0
 19 20  1  6
 19 17  1  0
 21 22  1  0
 21 19  1  0
 23 21  2  0
M  END
$$$$
