KYN.pdb
     RDKit          3D

 30 30  0  0  1  0  0  0  0  0999 V2000
   26.9658  -23.3220  -16.2337 N   0  0  0  0  0  0  0  0  0  0  0  0
   26.8871  -22.0081  -15.6847 C   0  0  1  0  0  0  0  0  0  0  0  0
   25.8351  -21.1330  -16.3300 C   0  0  0  0  0  0  0  0  0  0  0  0
   26.0192  -21.1592  -17.8112 C   0  0  0  0  0  0  0  0  0  0  0  0
   25.0177  -20.3173  -18.5557 C   0  0  0  0  0  0  0  0  0  0  0  0
   25.2493  -20.4179  -20.0378 C   0  0  0  0  0  0  0  0  0  0  0  0
   26.4529  -19.7374  -20.4591 N   0  0  0  0  0  0  0  0  0  0  0  0
   26.5758  -22.0766  -14.2467 C   0  0  0  0  0  0  0  0  0  0  0  0
   25.6847  -22.8566  -13.7789 O   0  0  0  0  0  0  0  0  0  0  0  0
   27.5079  -19.8830   -5.6324 O   0  0  0  0  0  0  0  0  0  0  0  0
   27.6478  -20.1067   -6.9854 C   0  0  0  0  0  0  0  0  0  0  0  0
   26.8353  -19.4825   -7.9019 C   0  0  0  0  0  0  0  0  0  0  0  0
   26.9474  -19.6823   -9.2553 C   0  0  0  0  0  0  0  0  0  0  0  0
   27.9104  -20.5429   -9.7395 C   0  0  0  0  0  0  0  0  0  0  0  0
   28.1095  -20.8308  -11.1602 C   0  0  0  0  0  0  0  0  0  0  0  0
   26.8920  -21.2769  -11.9065 C   0  0  2  0  0  0  0  0  0  0  0  0
   27.2654  -21.2683  -13.3290 N   0  0  0  0  0  0  0  0  0  0  0  0
   25.7555  -20.3519  -11.6970 C   0  0  0  0  0  0  0  0  0  0  0  0
   25.7322  -19.2035  -12.2297 O   0  0  0  0  0  0  0  0  0  0  0  0
   28.7299  -21.1733   -8.8214 C   0  0  0  0  0  0  0  0  0  0  0  0
   28.6155  -20.9703   -7.4544 C   0  0  0  0  0  0  0  0  0  0  0  0
   20.4942  -21.4997  -12.9073 N   0  0  0  0  0  0  0  0  0  0  0  0
   21.5107  -20.5209  -12.8467 C   0  0  0  0  0  0  0  0  0  0  0  0
   21.2331  -19.3266  -13.0649 O   0  0  0  0  0  0  0  0  0  0  0  0
   22.8868  -20.9200  -12.5269 C   0  0  0  0  0  0  0  0  0  0  0  0
   23.2863  -20.3283  -11.1995 C   0  0  2  0  0  0  0  0  0  0  0  0
   24.6620  -20.7508  -10.8823 N   0  0  0  0  0  0  0  0  0  0  0  0
   22.3888  -20.8100  -10.1349 C   0  0  0  0  0  0  0  0  0  0  0  0
   22.7129  -21.6647   -9.2997 O   0  0  0  0  0  0  0  0  0  0  0  0
   21.1043  -20.2840  -10.0522 O   0  0  0  0  0  0  0  0  0  0  0  0
  2  1  1  6
  3  4  1  0
  3  2  1  0
  5  6  1  0
  5  4  1  0
  6  7  1  0
  8  2  1  0
  8  9  2  0
 10 11  1  0
 11 12  2  0
 12 13  1  0
 14 13  2  0
 14 15  1  0
 16 15  1  1
 16 17  1  0
 17  8  1  0
 18 16  1  0
 19 18  2  0
 20 14  1  0
 21 11  1  0
 21 20  2  0
 22 23  1  0
 23 25  1  0
 24 23  2  0
 26 25  1  6
 26 28  1  0
 26 27  1  0
 27 18  1  0
 28 30  1  0
 29 28  2  0
M  END
$$$$
