KYN.pdb
     RDKit          3D

 30 30  0  0  1  0  0  0  0  0999 V2000
   28.1364  -23.7227  -17.5189 N   0  0  0  0  0  0  0  0  0  0  0  0
   27.5659  -22.4580  -17.1887 C   0  0  1  0  0  0  0  0  0  0  0  0
   26.6685  -21.8874  -18.2649 C   0  0  0  0  0  0  0  0  0  0  0  0
   27.5142  -21.2957  -19.3434 C   0  0  0  0  0  0  0  0  0  0  0  0
   28.8553  -20.8137  -18.8584 C   0  0  0  0  0  0  0  0  0  0  0  0
   29.6107  -20.1553  -19.9792 C   0  0  0  0  0  0  0  0  0  0  0  0
   30.9357  -19.7343  -19.5835 N   0  0  0  0  0  0  0  0  0  0  0  0
   26.7591  -22.5698  -15.9616 C   0  0  0  0  0  0  0  0  0  0  0  0
   26.1456  -23.6396  -15.6447 O   0  0  0  0  0  0  0  0  0  0  0  0
   23.6706  -20.1600   -7.9919 O   0  0  0  0  0  0  0  0  0  0  0  0
   24.3605  -20.2935   -9.1777 C   0  0  0  0  0  0  0  0  0  0  0  0
   25.5596  -20.9633   -9.2367 C   0  0  0  0  0  0  0  0  0  0  0  0
   26.2722  -21.1147  -10.4000 C   0  0  0  0  0  0  0  0  0  0  0  0
   25.7829  -20.5798  -11.5734 C   0  0  0  0  0  0  0  0  0  0  0  0
   26.4653  -20.6786  -12.8639 C   0  0  0  0  0  0  0  0  0  0  0  0
   25.8324  -21.5965  -13.8616 C   0  0  2  0  0  0  0  0  0  0  0  0
   26.6390  -21.4791  -15.0857 N   0  0  0  0  0  0  0  0  0  0  0  0
   24.4377  -21.1994  -14.1587 C   0  0  0  0  0  0  0  0  0  0  0  0
   24.1751  -20.1355  -14.7928 O   0  0  0  0  0  0  0  0  0  0  0  0
   24.5772  -19.9050  -11.5190 C   0  0  0  0  0  0  0  0  0  0  0  0
   23.8584  -19.7529  -10.3430 C   0  0  0  0  0  0  0  0  0  0  0  0
   19.3718  -21.1241  -14.4150 N   0  0  0  0  0  0  0  0  0  0  0  0
   19.6894  -22.4670  -14.1140 C   0  0  0  0  0  0  0  0  0  0  0  0
   18.7872  -23.3251  -14.0879 O   0  0  0  0  0  0  0  0  0  0  0  0
   21.0814  -22.8403  -13.8341 C   0  0  0  0  0  0  0  0  0  0  0  0
   21.9628  -21.6240  -13.9587 C   0  0  2  0  0  0  0  0  0  0  0  0
   23.3627  -22.0224  -13.7277 N   0  0  0  0  0  0  0  0  0  0  0  0
   21.5879  -20.6164  -12.9512 C   0  0  0  0  0  0  0  0  0  0  0  0
   21.7171  -20.7856  -11.7314 O   0  0  0  0  0  0  0  0  0  0  0  0
   21.0587  -19.4043  -13.3803 O   0  0  0  0  0  0  0  0  0  0  0  0
  2  1  1  6
  3  4  1  0
  3  2  1  0
  5  6  1  0
  5  4  1  0
  6  7  1  0
  8  2  1  0
  8  9  2  0
 10 11  1  0
 11 12  2  0
 12 13  1  0
 14 13  2  0
 14 15  1  0
 16 15  1  1
 16 17  1  0
 17  8  1  0
 18 16  1  0
 19 18  2  0
 20 14  1  0
 21 11  1  0
 21 20  2  0
 22 23  1  0
 23 25  1  0
 24 23  2  0
 26 25  1  1
 26 28  1  0
 26 27  1  0
 27 18  1  0
 28 30  1  0
 29 28  2  0
M  END
$$$$
