KYN.pdb
     RDKit          3D

 30 30  0  0  1  0  0  0  0  0999 V2000
   19.8321  -17.4137  -17.5330 N   0  0  0  0  0  0  0  0  0  0  0  0
   18.6285  -16.7263  -17.8689 C   0  0  1  0  0  0  0  0  0  0  0  0
   17.4179  -17.1860  -17.0866 C   0  0  0  0  0  0  0  0  0  0  0  0
   17.7290  -18.4876  -16.4251 C   0  0  0  0  0  0  0  0  0  0  0  0
   16.5201  -19.1683  -15.8409 C   0  0  0  0  0  0  0  0  0  0  0  0
   16.8642  -20.5676  -15.4121 C   0  0  0  0  0  0  0  0  0  0  0  0
   15.7658  -21.2300  -14.7459 N   0  0  0  0  0  0  0  0  0  0  0  0
   18.7835  -15.2822  -17.6246 C   0  0  0  0  0  0  0  0  0  0  0  0
   19.2277  -14.8212  -16.5240 O   0  0  0  0  0  0  0  0  0  0  0  0
   19.9557   -6.8194  -20.0599 O   0  0  0  0  0  0  0  0  0  0  0  0
   19.7521   -8.1806  -19.9850 C   0  0  0  0  0  0  0  0  0  0  0  0
   20.7748   -9.0407  -19.6620 C   0  0  0  0  0  0  0  0  0  0  0  0
   20.6069  -10.4004  -19.5786 C   0  0  0  0  0  0  0  0  0  0  0  0
   19.3662  -10.9502  -19.8257 C   0  0  0  0  0  0  0  0  0  0  0  0
   19.0819  -12.3844  -19.7701 C   0  0  0  0  0  0  0  0  0  0  0  0
   18.7208  -12.9203  -18.4208 C   0  0  2  0  0  0  0  0  0  0  0  0
   18.4398  -14.3505  -18.6171 N   0  0  0  0  0  0  0  0  0  0  0  0
   17.5136  -12.2582  -17.8771 C   0  0  0  0  0  0  0  0  0  0  0  0
   16.3654  -12.4760  -18.3641 O   0  0  0  0  0  0  0  0  0  0  0  0
   18.3344  -10.0891  -20.1512 C   0  0  0  0  0  0  0  0  0  0  0  0
   18.5057   -8.7156  -20.2349 C   0  0  0  0  0  0  0  0  0  0  0  0
   15.5238  -13.4593  -14.3704 N   0  0  0  0  0  0  0  0  0  0  0  0
   15.2546  -12.3269  -15.1704 C   0  0  0  0  0  0  0  0  0  0  0  0
   14.3570  -12.3777  -16.0322 O   0  0  0  0  0  0  0  0  0  0  0  0
   16.0358  -11.0987  -14.9793 C   0  0  0  0  0  0  0  0  0  0  0  0
   16.4783  -10.5706  -16.3198 C   0  0  2  0  0  0  0  0  0  0  0  0
   17.6344  -11.3569  -16.7855 N   0  0  0  0  0  0  0  0  0  0  0  0
   16.8851   -9.1593  -16.2035 C   0  0  0  0  0  0  0  0  0  0  0  0
   16.1016   -8.2403  -15.9302 O   0  0  0  0  0  0  0  0  0  0  0  0
   18.2196   -8.8272  -16.4097 O   0  0  0  0  0  0  0  0  0  0  0  0
  2  1  1  1
  3  4  1  0
  3  2  1  0
  5  6  1  0
  5  4  1  0
  6  7  1  0
  8  2  1  0
  8  9  2  0
 10 11  1  0
 11 12  2  0
 12 13  1  0
 14 13  2  0
 14 15  1  0
 16 15  1  6
 16 17  1  0
 17  8  1  0
 18 16  1  0
 19 18  2  0
 20 14  1  0
 21 11  1  0
 21 20  2  0
 22 23  1  0
 23 25  1  0
 24 23  2  0
 26 25  1  1
 26 28  1  0
 26 27  1  0
 27 18  1  0
 28 30  1  0
 29 28  2  0
M  END
$$$$
