KYN.pdb
     RDKit          3D

 30 30  0  0  1  0  0  0  0  0999 V2000
   17.0415  -11.4649    6.4597 N   0  0  0  0  0  0  0  0  0  0  0  0
   18.0456  -12.3028    5.8908 C   0  0  1  0  0  0  0  0  0  0  0  0
   19.2878  -12.4414    6.7434 C   0  0  0  0  0  0  0  0  0  0  0  0
   20.0383  -11.1510    6.7267 C   0  0  0  0  0  0  0  0  0  0  0  0
   21.3807  -11.2283    7.4035 C   0  0  0  0  0  0  0  0  0  0  0  0
   22.0830   -9.9013    7.3248 C   0  0  0  0  0  0  0  0  0  0  0  0
   23.3960   -9.9315    7.9286 N   0  0  0  0  0  0  0  0  0  0  0  0
   17.5123  -13.6583    5.6731 C   0  0  0  0  0  0  0  0  0  0  0  0
   16.6696  -14.1940    6.4633 O   0  0  0  0  0  0  0  0  0  0  0  0
   15.8129  -21.2342    1.3601 O   0  0  0  0  0  0  0  0  0  0  0  0
   16.1764  -19.9633    1.7510 C   0  0  0  0  0  0  0  0  0  0  0  0
   15.2473  -19.0657    2.2211 C   0  0  0  0  0  0  0  0  0  0  0  0
   15.5748  -17.7934    2.6185 C   0  0  0  0  0  0  0  0  0  0  0  0
   16.8876  -17.3754    2.5519 C   0  0  0  0  0  0  0  0  0  0  0  0
   17.3413  -16.0407    2.9437 C   0  0  0  0  0  0  0  0  0  0  0  0
   17.4800  -15.8109    4.4155 C   0  0  2  0  0  0  0  0  0  0  0  0
   17.9241  -14.4170    4.5658 N   0  0  0  0  0  0  0  0  0  0  0  0
   18.4918  -16.7104    5.0142 C   0  0  0  0  0  0  0  0  0  0  0  0
   19.7293  -16.4531    4.9414 O   0  0  0  0  0  0  0  0  0  0  0  0
   17.8257  -18.2747    2.0795 C   0  0  0  0  0  0  0  0  0  0  0  0
   17.4933  -19.5598    1.6784 C   0  0  0  0  0  0  0  0  0  0  0  0
   20.8471  -20.3035    7.6129 N   0  0  0  0  0  0  0  0  0  0  0  0
   20.7542  -18.9596    8.0378 C   0  0  0  0  0  0  0  0  0  0  0  0
   21.4663  -18.5573    8.9770 O   0  0  0  0  0  0  0  0  0  0  0  0
   19.8184  -18.0480    7.3681 C   0  0  0  0  0  0  0  0  0  0  0  0
   19.0605  -18.7985    6.3032 C   0  0  2  0  0  0  0  0  0  0  0  0
   18.0765  -17.8908    5.6871 N   0  0  0  0  0  0  0  0  0  0  0  0
   18.3414  -19.9394    6.8964 C   0  0  0  0  0  0  0  0  0  0  0  0
   18.9040  -20.8776    7.4766 O   0  0  0  0  0  0  0  0  0  0  0  0
   16.9543  -19.9772    6.8070 O   0  0  0  0  0  0  0  0  0  0  0  0
  2  1  1  1
  3  4  1  0
  3  2  1  0
  5  6  1  0
  5  4  1  0
  6  7  1  0
  8  2  1  0
  8  9  2  0
 10 11  1  0
 11 12  2  0
 12 13  1  0
 14 13  2  0
 14 15  1  0
 16 15  1  6
 16 17  1  0
 17  8  1  0
 18 16  1  0
 19 18  2  0
 20 14  1  0
 21 11  1  0
 21 20  2  0
 22 23  1  0
 23 25  1  0
 24 23  2  0
 26 25  1  1
 26 28  1  0
 26 27  1  0
 27 18  1  0
 28 30  1  0
 29 28  2  0
M  END
$$$$
