KYN.pdb
     RDKit          3D

 30 30  0  0  1  0  0  0  0  0999 V2000
   29.1258  -22.8279  -17.6710 N   0  0  0  0  0  0  0  0  0  0  0  0
   28.1691  -21.7914  -17.4601 C   0  0  1  0  0  0  0  0  0  0  0  0
   27.1765  -21.6300  -18.5905 C   0  0  0  0  0  0  0  0  0  0  0  0
   27.8745  -21.0467  -19.7741 C   0  0  0  0  0  0  0  0  0  0  0  0
   28.3004  -22.0754  -20.7872 C   0  0  0  0  0  0  0  0  0  0  0  0
   28.8539  -21.4038  -22.0132 C   0  0  0  0  0  0  0  0  0  0  0  0
   27.8363  -20.7201  -22.7789 N   0  0  0  0  0  0  0  0  0  0  0  0
   27.3959  -22.0559  -16.2347 C   0  0  0  0  0  0  0  0  0  0  0  0
   27.0934  -23.2350  -15.8612 O   0  0  0  0  0  0  0  0  0  0  0  0
   24.4173  -20.5120   -8.0504 O   0  0  0  0  0  0  0  0  0  0  0  0
   24.9737  -20.4396   -9.3094 C   0  0  0  0  0  0  0  0  0  0  0  0
   24.3660  -19.7348  -10.3212 C   0  0  0  0  0  0  0  0  0  0  0  0
   24.8923  -19.6421  -11.5855 C   0  0  0  0  0  0  0  0  0  0  0  0
   26.0824  -20.2759  -11.8763 C   0  0  0  0  0  0  0  0  0  0  0  0
   26.7247  -20.2457  -13.1906 C   0  0  0  0  0  0  0  0  0  0  0  0
   26.2412  -21.2677  -14.1704 C   0  0  2  0  0  0  0  0  0  0  0  0
   26.9598  -20.9956  -15.4243 N   0  0  0  0  0  0  0  0  0  0  0  0
   24.7852  -21.1475  -14.4088 C   0  0  0  0  0  0  0  0  0  0  0  0
   24.3046  -20.1964  -15.0926 O   0  0  0  0  0  0  0  0  0  0  0  0
   26.6974  -20.9862  -10.8618 C   0  0  0  0  0  0  0  0  0  0  0  0
   26.1644  -21.0789   -9.5850 C   0  0  0  0  0  0  0  0  0  0  0  0
   19.7786  -21.9511  -14.3072 N   0  0  0  0  0  0  0  0  0  0  0  0
   20.3293  -23.1596  -13.8263 C   0  0  0  0  0  0  0  0  0  0  0  0
   19.5832  -24.1283  -13.5899 O   0  0  0  0  0  0  0  0  0  0  0  0
   21.7775  -23.2636  -13.6092 C   0  0  0  0  0  0  0  0  0  0  0  0
   22.4387  -21.9663  -13.9983 C   0  0  2  0  0  0  0  0  0  0  0  0
   23.8987  -22.1143  -13.8632 N   0  0  0  0  0  0  0  0  0  0  0  0
   21.9917  -20.8790  -13.1102 C   0  0  0  0  0  0  0  0  0  0  0  0
   22.4113  -20.7203  -11.9560 O   0  0  0  0  0  0  0  0  0  0  0  0
   21.0471  -19.9741  -13.5815 O   0  0  0  0  0  0  0  0  0  0  0  0
  2  1  1  6
  3  4  1  0
  3  2  1  0
  5  6  1  0
  5  4  1  0
  6  7  1  0
  8  2  1  0
  8  9  2  0
 10 11  1  0
 11 12  2  0
 12 13  1  0
 14 13  2  0
 14 15  1  0
 16 15  1  1
 16 17  1  0
 17  8  1  0
 18 16  1  0
 19 18  2  0
 20 14  1  0
 21 11  1  0
 21 20  2  0
 22 23  1  0
 23 25  1  0
 24 23  2  0
 26 25  1  1
 26 28  1  0
 26 27  1  0
 27 18  1  0
 28 30  1  0
 29 28  2  0
M  END
$$$$
