KYN.pdb
     RDKit          3D

 30 30  0  0  1  0  0  0  0  0999 V2000
   19.4402  -23.5667  -15.2009 N   0  0  0  0  0  0  0  0  0  0  0  0
   20.2675  -24.7017  -14.9527 C   0  0  1  0  0  0  0  0  0  0  0  0
   21.7075  -24.5193  -15.3794 C   0  0  0  0  0  0  0  0  0  0  0  0
   21.7587  -23.5778  -16.5367 C   0  0  0  0  0  0  0  0  0  0  0  0
   23.1523  -23.3335  -17.0508 C   0  0  0  0  0  0  0  0  0  0  0  0
   23.1332  -22.2988  -18.1415 C   0  0  0  0  0  0  0  0  0  0  0  0
   24.4603  -21.8833  -18.5358 N   0  0  0  0  0  0  0  0  0  0  0  0
   20.2753  -25.0194  -13.5146 C   0  0  0  0  0  0  0  0  0  0  0  0
   21.0327  -25.9148  -13.0187 O   0  0  0  0  0  0  0  0  0  0  0  0
   17.4933  -24.4324   -5.0857 O   0  0  0  0  0  0  0  0  0  0  0  0
   17.7996  -24.2080   -6.4108 C   0  0  0  0  0  0  0  0  0  0  0  0
   16.8180  -24.1391   -7.3708 C   0  0  0  0  0  0  0  0  0  0  0  0
   17.0878  -23.9171   -8.6981 C   0  0  0  0  0  0  0  0  0  0  0  0
   18.3940  -23.7529   -9.1097 C   0  0  0  0  0  0  0  0  0  0  0  0
   18.7900  -23.5182  -10.4986 C   0  0  0  0  0  0  0  0  0  0  0  0
   19.4083  -24.6857  -11.2009 C   0  0  2  0  0  0  0  0  0  0  0  0
   19.4315  -24.3314  -12.6281 N   0  0  0  0  0  0  0  0  0  0  0  0
   18.6075  -25.9172  -11.0188 C   0  0  0  0  0  0  0  0  0  0  0  0
   17.5588  -26.1288  -11.6961 O   0  0  0  0  0  0  0  0  0  0  0  0
   19.3849  -23.8215   -8.1478 C   0  0  0  0  0  0  0  0  0  0  0  0
   19.1107  -24.0459   -6.8071 C   0  0  0  0  0  0  0  0  0  0  0  0
   20.9094  -30.7080  -10.7943 N   0  0  0  0  0  0  0  0  0  0  0  0
   19.8094  -29.8233  -10.8433 C   0  0  0  0  0  0  0  0  0  0  0  0
   19.2992  -29.5311  -11.9412 O   0  0  0  0  0  0  0  0  0  0  0  0
   19.2765  -29.2554   -9.5989 C   0  0  0  0  0  0  0  0  0  0  0  0
   18.2894  -28.1645   -9.9263 C   0  0  2  0  0  0  0  0  0  0  0  0
   19.0149  -26.8894  -10.0663 N   0  0  0  0  0  0  0  0  0  0  0  0
   17.3017  -28.0272   -8.8417 C   0  0  0  0  0  0  0  0  0  0  0  0
   17.5796  -27.6072   -7.7106 O   0  0  0  0  0  0  0  0  0  0  0  0
   15.9811  -28.3857   -9.0886 O   0  0  0  0  0  0  0  0  0  0  0  0
  2  1  1  1
  3  4  1  0
  3  2  1  0
  5  6  1  0
  5  4  1  0
  6  7  1  0
  8  2  1  0
  8  9  2  0
 10 11  1  0
 11 12  2  0
 12 13  1  0
 14 13  2  0
 14 15  1  0
 16 15  1  1
 16 17  1  0
 17  8  1  0
 18 16  1  0
 19 18  2  0
 20 14  1  0
 21 11  1  0
 21 20  2  0
 22 23  1  0
 23 25  1  0
 24 23  2  0
 26 25  1  1
 26 28  1  0
 26 27  1  0
 27 18  1  0
 28 30  1  0
 29 28  2  0
M  END
$$$$
