KYN.pdb
     RDKit          3D

 30 30  0  0  1  0  0  0  0  0999 V2000
   27.4010  -24.3439  -16.4321 N   0  0  0  0  0  0  0  0  0  0  0  0
   27.2253  -22.9297  -16.3759 C   0  0  1  0  0  0  0  0  0  0  0  0
   26.6847  -22.3250  -17.6530 C   0  0  0  0  0  0  0  0  0  0  0  0
   26.5413  -23.3991  -18.6797 C   0  0  0  0  0  0  0  0  0  0  0  0
   27.4090  -23.1908  -19.8920 C   0  0  0  0  0  0  0  0  0  0  0  0
   26.5601  -22.9062  -21.0998 C   0  0  0  0  0  0  0  0  0  0  0  0
   27.3472  -22.6836  -22.2916 N   0  0  0  0  0  0  0  0  0  0  0  0
   26.2886  -22.5770  -15.2954 C   0  0  0  0  0  0  0  0  0  0  0  0
   25.3834  -23.3758  -14.8907 O   0  0  0  0  0  0  0  0  0  0  0  0
   28.6681  -21.3723   -8.0618 O   0  0  0  0  0  0  0  0  0  0  0  0
   28.0400  -21.0051   -9.2326 C   0  0  0  0  0  0  0  0  0  0  0  0
   28.7301  -20.9176  -10.4183 C   0  0  0  0  0  0  0  0  0  0  0  0
   28.1360  -20.5555  -11.6015 C   0  0  0  0  0  0  0  0  0  0  0  0
   26.7885  -20.2621  -11.6255 C   0  0  0  0  0  0  0  0  0  0  0  0
   26.0608  -19.8604  -12.8297 C   0  0  0  0  0  0  0  0  0  0  0  0
   25.4181  -20.9717  -13.5979 C   0  0  2  0  0  0  0  0  0  0  0  0
   26.3662  -21.3247  -14.6654 N   0  0  0  0  0  0  0  0  0  0  0  0
   24.1384  -20.5439  -14.2066 C   0  0  0  0  0  0  0  0  0  0  0  0
   24.1096  -19.7616  -15.2016 O   0  0  0  0  0  0  0  0  0  0  0  0
   26.0901  -20.3485  -10.4353 C   0  0  0  0  0  0  0  0  0  0  0  0
   26.6917  -20.7146   -9.2408 C   0  0  0  0  0  0  0  0  0  0  0  0
   20.7299  -22.2988  -12.3861 N   0  0  0  0  0  0  0  0  0  0  0  0
   20.4599  -22.6350  -13.7311 C   0  0  0  0  0  0  0  0  0  0  0  0
   19.8587  -23.6932  -13.9954 O   0  0  0  0  0  0  0  0  0  0  0  0
   20.8905  -21.7336  -14.8069 C   0  0  0  0  0  0  0  0  0  0  0  0
   21.6194  -20.5552  -14.2138 C   0  0  2  0  0  0  0  0  0  0  0  0
   22.9099  -21.0152  -13.6707 N   0  0  0  0  0  0  0  0  0  0  0  0
   20.8308  -19.9659  -13.1177 C   0  0  0  0  0  0  0  0  0  0  0  0
   21.1711  -20.0095  -11.9280 O   0  0  0  0  0  0  0  0  0  0  0  0
   19.6364  -19.3223  -13.4222 O   0  0  0  0  0  0  0  0  0  0  0  0
  2  1  1  6
  3  4  1  0
  3  2  1  0
  5  6  1  0
  5  4  1  0
  6  7  1  0
  8  2  1  0
  8  9  2  0
 10 11  1  0
 11 12  2  0
 12 13  1  0
 14 13  2  0
 14 15  1  0
 16 15  1  6
 16 17  1  0
 17  8  1  0
 18 16  1  0
 19 18  2  0
 20 14  1  0
 21 11  1  0
 21 20  2  0
 22 23  1  0
 23 25  1  0
 24 23  2  0
 26 25  1  1
 26 28  1  0
 26 27  1  0
 27 18  1  0
 28 30  1  0
 29 28  2  0
M  END
$$$$
