KYN.pdb
     RDKit          3D

 30 30  0  0  1  0  0  0  0  0999 V2000
   27.7442  -19.9002  -18.0625 N   0  0  0  0  0  0  0  0  0  0  0  0
   27.8875  -18.6783  -17.3410 C   0  0  1  0  0  0  0  0  0  0  0  0
   28.2074  -17.4829  -18.2115 C   0  0  0  0  0  0  0  0  0  0  0  0
   28.8916  -17.9515  -19.4528 C   0  0  0  0  0  0  0  0  0  0  0  0
   30.1711  -18.6989  -19.1875 C   0  0  0  0  0  0  0  0  0  0  0  0
   30.3536  -19.7977  -20.1972 C   0  0  0  0  0  0  0  0  0  0  0  0
   31.2123  -19.4080  -21.2927 N   0  0  0  0  0  0  0  0  0  0  0  0
   26.6442  -18.3690  -16.6145 C   0  0  0  0  0  0  0  0  0  0  0  0
   26.4857  -17.2846  -15.9662 O   0  0  0  0  0  0  0  0  0  0  0  0
   22.8489  -13.8481  -19.4513 O   0  0  0  0  0  0  0  0  0  0  0  0
   22.9569  -15.0753  -18.8328 C   0  0  0  0  0  0  0  0  0  0  0  0
   23.6998  -16.0920  -19.3845 C   0  0  0  0  0  0  0  0  0  0  0  0
   23.8285  -17.3252  -18.7957 C   0  0  0  0  0  0  0  0  0  0  0  0
   23.1934  -17.5778  -17.5976 C   0  0  0  0  0  0  0  0  0  0  0  0
   23.2601  -18.8573  -16.8910 C   0  0  0  0  0  0  0  0  0  0  0  0
   24.3442  -18.9747  -15.8666 C   0  0  2  0  0  0  0  0  0  0  0  0
   25.5740  -19.2777  -16.6141 N   0  0  0  0  0  0  0  0  0  0  0  0
   24.0737  -20.0721  -14.9108 C   0  0  0  0  0  0  0  0  0  0  0  0
   24.0239  -21.2795  -15.2888 O   0  0  0  0  0  0  0  0  0  0  0  0
   22.4449  -16.5583  -17.0389 C   0  0  0  0  0  0  0  0  0  0  0  0
   22.3159  -15.3129  -17.6350 C   0  0  0  0  0  0  0  0  0  0  0  0
   25.6629  -22.3564  -11.7473 N   0  0  0  0  0  0  0  0  0  0  0  0
   25.2864  -21.3151  -10.8704 C   0  0  0  0  0  0  0  0  0  0  0  0
   25.9091  -21.1482   -9.8049 O   0  0  0  0  0  0  0  0  0  0  0  0
   24.1633  -20.4377  -11.2227 C   0  0  0  0  0  0  0  0  0  0  0  0
   23.6047  -20.8488  -12.5609 C   0  0  2  0  0  0  0  0  0  0  0  0
   23.8639  -19.7758  -13.5372 N   0  0  0  0  0  0  0  0  0  0  0  0
   22.1492  -21.0560  -12.4647 C   0  0  0  0  0  0  0  0  0  0  0  0
   21.6264  -22.1577  -12.2497 O   0  0  0  0  0  0  0  0  0  0  0  0
   21.3046  -19.9627  -12.6222 O   0  0  0  0  0  0  0  0  0  0  0  0
  2  1  1  6
  3  4  1  0
  3  2  1  0
  5  6  1  0
  5  4  1  0
  6  7  1  0
  8  2  1  0
  8  9  2  0
 10 11  1  0
 11 12  2  0
 12 13  1  0
 14 13  2  0
 14 15  1  0
 16 15  1  6
 16 17  1  0
 17  8  1  0
 18 16  1  0
 19 18  2  0
 20 14  1  0
 21 11  1  0
 21 20  2  0
 22 23  1  0
 23 25  1  0
 24 23  2  0
 26 25  1  1
 26 28  1  0
 26 27  1  0
 27 18  1  0
 28 30  1  0
 29 28  2  0
M  END
$$$$
