KYN.pdb
     RDKit          3D

 30 30  0  0  1  0  0  0  0  0999 V2000
   28.4629  -23.8664  -17.6080 N   0  0  0  0  0  0  0  0  0  0  0  0
   28.1242  -22.5392  -17.2106 C   0  0  1  0  0  0  0  0  0  0  0  0
   27.5922  -21.6767  -18.3341 C   0  0  0  0  0  0  0  0  0  0  0  0
   28.6563  -21.5097  -19.3677 C   0  0  0  0  0  0  0  0  0  0  0  0
   29.6361  -20.4123  -19.0489 C   0  0  0  0  0  0  0  0  0  0  0  0
   30.5595  -20.1816  -20.2127 C   0  0  0  0  0  0  0  0  0  0  0  0
   29.8559  -20.1057  -21.4731 N   0  0  0  0  0  0  0  0  0  0  0  0
   27.0931  -22.5715  -16.1594 C   0  0  0  0  0  0  0  0  0  0  0  0
   26.2387  -23.5115  -16.0718 O   0  0  0  0  0  0  0  0  0  0  0  0
   23.2360  -20.2507   -8.5092 O   0  0  0  0  0  0  0  0  0  0  0  0
   24.0730  -20.4057   -9.5934 C   0  0  0  0  0  0  0  0  0  0  0  0
   25.2733  -21.0668   -9.4825 C   0  0  0  0  0  0  0  0  0  0  0  0
   26.1299  -21.2391  -10.5410 C   0  0  0  0  0  0  0  0  0  0  0  0
   25.7924  -20.7351  -11.7797 C   0  0  0  0  0  0  0  0  0  0  0  0
   26.6352  -20.8579  -12.9695 C   0  0  0  0  0  0  0  0  0  0  0  0
   26.0394  -21.6246  -14.1078 C   0  0  2  0  0  0  0  0  0  0  0  0
   27.0186  -21.5470  -15.2023 N   0  0  0  0  0  0  0  0  0  0  0  0
   24.7611  -21.0280  -14.5563 C   0  0  0  0  0  0  0  0  0  0  0  0
   24.7330  -20.0858  -15.4016 O   0  0  0  0  0  0  0  0  0  0  0  0
   24.5862  -20.0691  -11.8963 C   0  0  0  0  0  0  0  0  0  0  0  0
   23.7217  -19.8960  -10.8259 C   0  0  0  0  0  0  0  0  0  0  0  0
   20.1208  -22.0886  -17.3110 N   0  0  0  0  0  0  0  0  0  0  0  0
   20.9537  -21.1336  -16.6871 C   0  0  0  0  0  0  0  0  0  0  0  0
   20.6129  -19.9360  -16.6652 O   0  0  0  0  0  0  0  0  0  0  0  0
   22.2151  -21.5612  -16.0695 C   0  0  0  0  0  0  0  0  0  0  0  0
   22.2448  -21.1187  -14.6289 C   0  0  2  0  0  0  0  0  0  0  0  0
   23.5332  -21.5153  -14.0335 N   0  0  0  0  0  0  0  0  0  0  0  0
   21.1581  -21.7660  -13.8734 C   0  0  0  0  0  0  0  0  0  0  0  0
   21.2295  -22.9155  -13.4188 O   0  0  0  0  0  0  0  0  0  0  0  0
   19.9820  -21.0582  -13.6516 O   0  0  0  0  0  0  0  0  0  0  0  0
  2  1  1  6
  3  4  1  0
  3  2  1  0
  5  6  1  0
  5  4  1  0
  6  7  1  0
  8  2  1  0
  8  9  2  0
 10 11  1  0
 11 12  2  0
 12 13  1  0
 14 13  2  0
 14 15  1  0
 16 15  1  1
 16 17  1  0
 17  8  1  0
 18 16  1  0
 19 18  2  0
 20 14  1  0
 21 11  1  0
 21 20  2  0
 22 23  1  0
 23 25  1  0
 24 23  2  0
 26 25  1  6
 26 28  1  0
 26 27  1  0
 27 18  1  0
 28 30  1  0
 29 28  2  0
M  END
$$$$
