KYN.pdb
     RDKit          3D

 30 30  0  0  1  0  0  0  0  0999 V2000
   29.1467  -22.7883  -16.0602 N   0  0  0  0  0  0  0  0  0  0  0  0
   27.9208  -22.1491  -16.4103 C   0  0  1  0  0  0  0  0  0  0  0  0
   27.1775  -22.8214  -17.5437 C   0  0  0  0  0  0  0  0  0  0  0  0
   27.4494  -22.0830  -18.8123 C   0  0  0  0  0  0  0  0  0  0  0  0
   28.7251  -22.5049  -19.4909 C   0  0  0  0  0  0  0  0  0  0  0  0
   28.9486  -21.6920  -20.7358 C   0  0  0  0  0  0  0  0  0  0  0  0
   30.1458  -22.0816  -21.4458 N   0  0  0  0  0  0  0  0  0  0  0  0
   27.0140  -22.1202  -15.2501 C   0  0  0  0  0  0  0  0  0  0  0  0
   26.3173  -23.1284  -14.9046 O   0  0  0  0  0  0  0  0  0  0  0  0
   28.3964  -21.2706   -7.2709 O   0  0  0  0  0  0  0  0  0  0  0  0
   27.9562  -20.9267   -8.5310 C   0  0  0  0  0  0  0  0  0  0  0  0
   28.7428  -21.1204   -9.6417 C   0  0  0  0  0  0  0  0  0  0  0  0
   28.3357  -20.7897  -10.9101 C   0  0  0  0  0  0  0  0  0  0  0  0
   27.0865  -20.2374  -11.1026 C   0  0  0  0  0  0  0  0  0  0  0  0
   26.5592  -19.8439  -12.4095 C   0  0  0  0  0  0  0  0  0  0  0  0
   26.0498  -20.9611  -13.2644 C   0  0  2  0  0  0  0  0  0  0  0  0
   26.8870  -20.9574  -14.4735 N   0  0  0  0  0  0  0  0  0  0  0  0
   24.6367  -20.7498  -13.6513 C   0  0  0  0  0  0  0  0  0  0  0  0
   24.3194  -19.9538  -14.5834 O   0  0  0  0  0  0  0  0  0  0  0  0
   26.2917  -20.0405   -9.9884 C   0  0  0  0  0  0  0  0  0  0  0  0
   26.7044  -20.3752   -8.7075 C   0  0  0  0  0  0  0  0  0  0  0  0
   19.7038  -22.5992  -14.9806 N   0  0  0  0  0  0  0  0  0  0  0  0
   20.1135  -22.5460  -13.6300 C   0  0  0  0  0  0  0  0  0  0  0  0
   19.2647  -22.3908  -12.7319 O   0  0  0  0  0  0  0  0  0  0  0  0
   21.5373  -22.6740  -13.2959 C   0  0  0  0  0  0  0  0  0  0  0  0
   22.1981  -21.3222  -13.3849 C   0  0  2  0  0  0  0  0  0  0  0  0
   23.6060  -21.4500  -12.9686 N   0  0  0  0  0  0  0  0  0  0  0  0
   21.5269  -20.3657  -12.4875 C   0  0  0  0  0  0  0  0  0  0  0  0
   21.9141  -20.1167  -11.3380 O   0  0  0  0  0  0  0  0  0  0  0  0
   20.3953  -19.6991  -12.9439 O   0  0  0  0  0  0  0  0  0  0  0  0
  2  1  1  1
  3  4  1  0
  3  2  1  0
  5  6  1  0
  5  4  1  0
  6  7  1  0
  8  2  1  0
  8  9  2  0
 10 11  1  0
 11 12  2  0
 12 13  1  0
 14 13  2  0
 14 15  1  0
 16 15  1  1
 16 17  1  0
 17  8  1  0
 18 16  1  0
 19 18  2  0
 20 14  1  0
 21 11  1  0
 21 20  2  0
 22 23  1  0
 23 25  1  0
 24 23  2  0
 26 25  1  1
 26 28  1  0
 26 27  1  0
 27 18  1  0
 28 30  1  0
 29 28  2  0
M  END
$$$$
