KYN.pdb
     RDKit          3D

 30 30  0  0  1  0  0  0  0  0999 V2000
   29.1990  -21.8177  -17.7979 N   0  0  0  0  0  0  0  0  0  0  0  0
   28.1543  -22.3524  -16.9875 C   0  0  1  0  0  0  0  0  0  0  0  0
   28.5379  -23.6100  -16.2390 C   0  0  0  0  0  0  0  0  0  0  0  0
   28.3202  -24.7916  -17.1250 C   0  0  0  0  0  0  0  0  0  0  0  0
   26.8826  -25.2321  -17.1961 C   0  0  0  0  0  0  0  0  0  0  0  0
   26.7569  -26.4728  -18.0358 C   0  0  0  0  0  0  0  0  0  0  0  0
   25.3814  -26.8116  -18.3233 N   0  0  0  0  0  0  0  0  0  0  0  0
   27.7308  -21.3598  -15.9851 C   0  0  0  0  0  0  0  0  0  0  0  0
   28.5631  -20.7312  -15.2549 O   0  0  0  0  0  0  0  0  0  0  0  0
   28.5442  -14.9518  -17.7231 O   0  0  0  0  0  0  0  0  0  0  0  0
   27.7392  -15.9462  -17.2099 C   0  0  0  0  0  0  0  0  0  0  0  0
   27.3272  -17.0047  -17.9842 C   0  0  0  0  0  0  0  0  0  0  0  0
   26.5262  -18.0112  -17.5053 C   0  0  0  0  0  0  0  0  0  0  0  0
   26.1041  -17.9799  -16.1925 C   0  0  0  0  0  0  0  0  0  0  0  0
   25.2452  -18.9971  -15.5856 C   0  0  0  0  0  0  0  0  0  0  0  0
   25.9535  -20.0637  -14.8116 C   0  0  2  0  0  0  0  0  0  0  0  0
   26.3696  -21.0701  -15.8000 N   0  0  0  0  0  0  0  0  0  0  0  0
   25.0599  -20.6995  -13.8174 C   0  0  0  0  0  0  0  0  0  0  0  0
   24.2400  -21.6050  -14.1506 O   0  0  0  0  0  0  0  0  0  0  0  0
   26.5159  -16.9170  -15.4097 C   0  0  0  0  0  0  0  0  0  0  0  0
   27.3251  -15.9010  -15.8950 C   0  0  0  0  0  0  0  0  0  0  0  0
   26.7461  -20.1003   -8.8207 N   0  0  0  0  0  0  0  0  0  0  0  0
   25.9573  -20.8550   -9.7170 C   0  0  0  0  0  0  0  0  0  0  0  0
   26.4030  -21.9176  -10.1893 O   0  0  0  0  0  0  0  0  0  0  0  0
   24.6177  -20.3799  -10.0845 C   0  0  0  0  0  0  0  0  0  0  0  0
   24.2483  -20.9186  -11.4429 C   0  0  2  0  0  0  0  0  0  0  0  0
   25.1148  -20.2926  -12.4573 N   0  0  0  0  0  0  0  0  0  0  0  0
   22.8459  -20.5940  -11.7568 C   0  0  0  0  0  0  0  0  0  0  0  0
   22.5094  -19.7280  -12.5754 O   0  0  0  0  0  0  0  0  0  0  0  0
   21.8345  -21.2910  -11.1051 O   0  0  0  0  0  0  0  0  0  0  0  0
  2  1  1  1
  3  4  1  0
  3  2  1  0
  5  6  1  0
  5  4  1  0
  6  7  1  0
  8  2  1  0
  8  9  2  0
 10 11  1  0
 11 12  2  0
 12 13  1  0
 14 13  2  0
 14 15  1  0
 16 15  1  6
 16 17  1  0
 17  8  1  0
 18 16  1  0
 19 18  2  0
 20 14  1  0
 21 11  1  0
 21 20  2  0
 22 23  1  0
 23 25  1  0
 24 23  2  0
 26 25  1  1
 26 28  1  0
 26 27  1  0
 27 18  1  0
 28 30  1  0
 29 28  2  0
M  END
$$$$
