RTY.pdb
     RDKit          3D

 31 31  0  0  1  0  0  0  0  0999 V2000
   26.0548  -28.0881  -17.4271 N   0  0  0  0  0  0  0  0  0  0  0  0
   27.1560  -28.4245  -16.6052 C   0  0  0  0  0  0  0  0  0  0  0  0
   27.3947  -29.6166  -16.1689 N   0  0  0  0  0  0  0  0  0  0  0  0
   28.0572  -27.3750  -16.2347 N   0  0  0  0  0  0  0  0  0  0  0  0
   27.7928  -26.0073  -16.6198 C   0  0  0  0  0  0  0  0  0  0  0  0
   29.0770  -25.3403  -17.0289 C   0  0  0  0  0  0  0  0  0  0  0  0
   28.7859  -23.9157  -17.4068 C   0  0  0  0  0  0  0  0  0  0  0  0
   28.3110  -23.8082  -18.8460 C   0  0  2  0  0  0  0  0  0  0  0  0
   29.4597  -23.4990  -19.6450 N   0  0  0  0  0  0  0  0  0  0  0  0
   27.3426  -22.6750  -18.8995 C   0  0  0  0  0  0  0  0  0  0  0  0
   27.7352  -21.4986  -19.1049 O   0  0  0  0  0  0  0  0  0  0  0  0
   28.1902  -29.8059  -15.5196 C   0  0  0  0  0  0  0  0  0  0  0  0
   23.8512  -20.2660  -20.3689 C   0  0  2  0  0  0  0  0  0  0  0  0
   25.0580  -21.1795  -20.2754 O   0  0  0  0  0  0  0  0  0  0  0  0
   26.1749  -20.3983  -20.4247 C   0  0  1  0  0  0  0  0  0  0  0  0
   25.0289  -21.7889  -18.8816 N   0  0  0  0  0  0  0  0  0  0  0  0
   25.9509  -22.8603  -18.7250 C   0  0  0  0  0  0  0  0  0  0  0  0
   23.6316  -22.1844  -18.5201 O   0  0  0  0  0  0  0  0  0  0  0  0
   23.2122  -23.3606  -18.6748 O   0  0  0  0  0  0  0  0  0  0  0  0
   15.3619  -23.7637  -17.0861 C   0  0  0  0  0  0  0  0  0  0  0  0
   16.7018  -23.5282  -17.4163 C   0  0  0  0  0  0  0  0  0  0  0  0
   17.7113  -24.3765  -17.0256 C   0  0  0  0  0  0  0  0  0  0  0  0
   19.0213  -24.1145  -17.3700 C   0  0  0  0  0  0  0  0  0  0  0  0
   19.3909  -22.9931  -18.1208 C   0  0  0  0  0  0  0  0  0  0  0  0
   20.7977  -22.7125  -18.4589 C   0  0  2  0  0  0  0  0  0  0  0  0
   21.3465  -21.6635  -17.5595 N   0  0  0  0  0  0  0  0  0  0  0  0
   22.6994  -21.2602  -17.9820 C   0  0  0  0  0  0  0  0  0  0  0  0
   21.3260  -22.0258  -16.1450 O   0  0  0  0  0  0  0  0  0  0  0  0
   20.3248  -21.7585  -15.3954 C   0  0  0  0  0  0  0  0  0  0  0  0
   18.3515  -22.1637  -18.4953 C   0  0  0  0  0  0  0  0  0  0  0  0
   17.0251  -22.4141  -18.1566 O   0  0  0  0  0  0  0  0  0  0  0  0
  1  2  1  0
  2  3  2  0
  4  2  1  0
  4  5  1  0
  6  5  1  0
  7  6  1  0
  8  7  1  0
  8  9  1  6
 10  8  1  0
 10 11  2  0
 13 12  1  6
 13 15  1  0
 14 13  1  0
 15 16  1  6
 15 17  1  0
 16 10  1  0
 17 18  2  0
 17 26  1  0
 19 20  1  0
 20 21  2  0
 20 30  1  0
 21 22  1  0
 22 23  2  0
 23 24  1  0
 25 24  1  6
 25 27  1  0
 26 25  1  0
 27 28  2  0
 27 31  1  0
 29 23  1  0
 30 29  2  0
M  END
$$$$
