RTY.pdb
     RDKit          3D

 31 31  0  0  1  0  0  0  0  0999 V2000
   19.6350  -21.1078   -7.9169 N   0  0  0  0  0  0  0  0  0  0  0  0
   19.3986  -20.6184   -9.2231 C   0  0  0  0  0  0  0  0  0  0  0  0
   18.3217  -20.0007   -9.5796 N   0  0  0  0  0  0  0  0  0  0  0  0
   20.4178  -20.8253  -10.2077 N   0  0  0  0  0  0  0  0  0  0  0  0
   21.7568  -21.2002   -9.8138 C   0  0  0  0  0  0  0  0  0  0  0  0
   22.6578  -19.9979   -9.8782 C   0  0  0  0  0  0  0  0  0  0  0  0
   23.5410  -20.1164  -11.0876 C   0  0  0  0  0  0  0  0  0  0  0  0
   24.8671  -20.7741  -10.7454 C   0  0  2  0  0  0  0  0  0  0  0  0
   25.0913  -20.5635   -9.3458 N   0  0  0  0  0  0  0  0  0  0  0  0
   25.9176  -20.0676  -11.5339 C   0  0  0  0  0  0  0  0  0  0  0  0
   26.3743  -18.9594  -11.1551 O   0  0  0  0  0  0  0  0  0  0  0  0
   18.1554  -19.7341  -10.5753 C   0  0  0  0  0  0  0  0  0  0  0  0
   29.2733  -20.6488  -12.3595 C   0  0  2  0  0  0  0  0  0  0  0  0
   28.6822  -20.4941  -13.7474 O   0  0  0  0  0  0  0  0  0  0  0  0
   28.5350  -21.7524  -14.2719 C   0  0  2  0  0  0  0  0  0  0  0  0
   27.3199  -19.8417  -13.5641 N   0  0  0  0  0  0  0  0  0  0  0  0
   26.4493  -20.5989  -12.7326 C   0  0  0  0  0  0  0  0  0  0  0  0
   26.7101  -19.5366  -14.8963 O   0  0  0  0  0  0  0  0  0  0  0  0
   25.7201  -20.1762  -15.3368 O   0  0  0  0  0  0  0  0  0  0  0  0
   21.7624  -15.0430  -14.4521 C   0  0  0  0  0  0  0  0  0  0  0  0
   22.8945  -15.4706  -15.1559 C   0  0  0  0  0  0  0  0  0  0  0  0
   22.8041  -16.2788  -16.2649 C   0  0  0  0  0  0  0  0  0  0  0  0
   23.9408  -16.6805  -16.9356 C   0  0  0  0  0  0  0  0  0  0  0  0
   25.2251  -16.2970  -16.5340 C   0  0  0  0  0  0  0  0  0  0  0  0
   26.4319  -16.7554  -17.2452 C   0  0  2  0  0  0  0  0  0  0  0  0
   26.6187  -18.2184  -17.0572 N   0  0  0  0  0  0  0  0  0  0  0  0
   27.2094  -18.5105  -15.7392 C   0  0  0  0  0  0  0  0  0  0  0  0
   27.3791  -18.8607  -18.1258 O   0  0  0  0  0  0  0  0  0  0  0  0
   28.6170  -19.1524  -17.9903 C   0  0  0  0  0  0  0  0  0  0  0  0
   25.2777  -15.4860  -15.4168 C   0  0  0  0  0  0  0  0  0  0  0  0
   24.1406  -15.0717  -14.7295 O   0  0  0  0  0  0  0  0  0  0  0  0
  1  2  1  0
  2  3  2  0
  4  2  1  0
  4  5  1  0
  6  5  1  0
  7  6  1  0
  8  7  1  0
  8  9  1  1
 10  8  1  0
 10 11  2  0
 13 12  1  6
 13 15  1  0
 14 13  1  0
 15 16  1  6
 15 17  1  0
 16 10  1  0
 17 18  2  0
 17 26  1  0
 19 20  1  0
 20 21  2  0
 20 30  1  0
 21 22  1  0
 22 23  2  0
 23 24  1  0
 25 24  1  1
 25 27  1  0
 26 25  1  0
 27 28  2  0
 27 31  1  0
 29 23  1  0
 30 29  2  0
M  END
$$$$
