RTY.pdb
     RDKit          3D

 31 31  0  0  1  0  0  0  0  0999 V2000
   30.8837  -23.9872  -17.2732 N   0  0  0  0  0  0  0  0  0  0  0  0
   29.9901  -23.4956  -18.2537 C   0  0  0  0  0  0  0  0  0  0  0  0
   29.9140  -23.9561  -19.4580 N   0  0  0  0  0  0  0  0  0  0  0  0
   29.1204  -22.4195  -17.8840 N   0  0  0  0  0  0  0  0  0  0  0  0
   29.1552  -21.8705  -16.5476 C   0  0  0  0  0  0  0  0  0  0  0  0
   27.9386  -22.3185  -15.7855 C   0  0  0  0  0  0  0  0  0  0  0  0
   26.7247  -21.6606  -16.3773 C   0  0  0  0  0  0  0  0  0  0  0  0
   25.4522  -22.1121  -15.6806 C   0  0  2  0  0  0  0  0  0  0  0  0
   24.3896  -22.0039  -16.6360 N   0  0  0  0  0  0  0  0  0  0  0  0
   25.2139  -21.1629  -14.5551 C   0  0  0  0  0  0  0  0  0  0  0  0
   25.3963  -19.9278  -14.7017 O   0  0  0  0  0  0  0  0  0  0  0  0
   29.2332  -23.5631  -20.1454 C   0  0  0  0  0  0  0  0  0  0  0  0
   22.3288  -20.1101  -13.0328 C   0  0  2  0  0  0  0  0  0  0  0  0
   23.0865  -20.5904  -11.8101 O   0  0  0  0  0  0  0  0  0  0  0  0
   22.6098  -21.8374  -11.4972 C   0  0  2  0  0  0  0  0  0  0  0  0
   24.5497  -20.6776  -12.2180 N   0  0  0  0  0  0  0  0  0  0  0  0
   24.7759  -21.5949  -13.2810 C   0  0  0  0  0  0  0  0  0  0  0  0
   25.4021  -20.9711  -11.0234 O   0  0  0  0  0  0  0  0  0  0  0  0
   25.7895  -22.1373  -10.7532 O   0  0  0  0  0  0  0  0  0  0  0  0
   29.8711  -20.1489   -3.4228 C   0  0  0  0  0  0  0  0  0  0  0  0
   29.2538  -19.9030   -4.6550 C   0  0  0  0  0  0  0  0  0  0  0  0
   29.7009  -20.4738   -5.8236 C   0  0  0  0  0  0  0  0  0  0  0  0
   29.0675  -20.2106   -7.0207 C   0  0  0  0  0  0  0  0  0  0  0  0
   27.9570  -19.3645   -7.1130 C   0  0  0  0  0  0  0  0  0  0  0  0
   27.3069  -19.0722   -8.4030 C   0  0  1  0  0  0  0  0  0  0  0  0
   26.5462  -20.2576   -8.8792 N   0  0  0  0  0  0  0  0  0  0  0  0
   25.8239  -19.9552  -10.1276 C   0  0  0  0  0  0  0  0  0  0  0  0
   25.6471  -20.8258   -7.8786 O   0  0  0  0  0  0  0  0  0  0  0  0
   26.0820  -21.5361   -6.9080 C   0  0  0  0  0  0  0  0  0  0  0  0
   27.5362  -18.8091   -5.9202 C   0  0  0  0  0  0  0  0  0  0  0  0
   28.1635  -19.0649   -4.7045 O   0  0  0  0  0  0  0  0  0  0  0  0
  1  2  1  0
  2  3  2  0
  4  2  1  0
  4  5  1  0
  6  5  1  0
  7  6  1  0
  8  7  1  0
  8  9  1  6
 10  8  1  0
 10 11  2  0
 13 12  1  1
 13 15  1  0
 14 13  1  0
 15 16  1  1
 15 17  1  0
 16 10  1  0
 17 18  2  0
 17 26  1  0
 19 20  1  0
 20 21  2  0
 20 30  1  0
 21 22  1  0
 22 23  2  0
 23 24  1  0
 25 24  1  6
 25 27  1  0
 26 25  1  0
 27 28  2  0
 27 31  1  0
 29 23  1  0
 30 29  2  0
M  END
$$$$
