RTY.pdb
     RDKit          3D

 31 31  0  0  1  0  0  0  0  0999 V2000
   30.3315  -32.8067  -15.5065 N   0  0  0  0  0  0  0  0  0  0  0  0
   30.5394  -31.7659  -16.4419 C   0  0  0  0  0  0  0  0  0  0  0  0
   31.7015  -31.2975  -16.7556 N   0  0  0  0  0  0  0  0  0  0  0  0
   29.3872  -31.1983  -17.0754 N   0  0  0  0  0  0  0  0  0  0  0  0
   28.0614  -31.6792  -16.7596 C   0  0  0  0  0  0  0  0  0  0  0  0
   27.3961  -32.1848  -18.0099 C   0  0  0  0  0  0  0  0  0  0  0  0
   26.9710  -31.0096  -18.8436 C   0  0  0  0  0  0  0  0  0  0  0  0
   25.4668  -30.8031  -18.7873 C   0  0  2  0  0  0  0  0  0  0  0  0
   24.9768  -30.9188  -20.1290 N   0  0  0  0  0  0  0  0  0  0  0  0
   25.2380  -29.4167  -18.2872 C   0  0  0  0  0  0  0  0  0  0  0  0
   25.5399  -29.0963  -17.1097 O   0  0  0  0  0  0  0  0  0  0  0  0
   31.8020  -30.5071  -17.4304 C   0  0  0  0  0  0  0  0  0  0  0  0
   26.6598  -26.2658  -18.8122 C   0  0  2  0  0  0  0  0  0  0  0  0
   25.2244  -26.0128  -19.2308 O   0  0  0  0  0  0  0  0  0  0  0  0
   25.1711  -26.1233  -20.5965 C   0  0  2  0  0  0  0  0  0  0  0  0
   24.3889  -27.1082  -18.5850 N   0  0  0  0  0  0  0  0  0  0  0  0
   24.6776  -28.4024  -19.0990 C   0  0  0  0  0  0  0  0  0  0  0  0
   22.9338  -26.7711  -18.6795 O   0  0  0  0  0  0  0  0  0  0  0  0
   22.1815  -27.3055  -19.5348 O   0  0  0  0  0  0  0  0  0  0  0  0
   14.5629  -25.0945  -18.3914 C   0  0  0  0  0  0  0  0  0  0  0  0
   15.8981  -25.4903  -18.2483 C   0  0  0  0  0  0  0  0  0  0  0  0
   16.3942  -25.9739  -17.0602 C   0  0  0  0  0  0  0  0  0  0  0  0
   17.7156  -26.3564  -16.9549 C   0  0  0  0  0  0  0  0  0  0  0  0
   18.6090  -26.2754  -18.0286 C   0  0  0  0  0  0  0  0  0  0  0  0
   20.0245  -26.6633  -17.8937 C   0  0  2  0  0  0  0  0  0  0  0  0
   20.8971  -25.4603  -17.9385 N   0  0  0  0  0  0  0  0  0  0  0  0
   22.3172  -25.8328  -17.8124 C   0  0  0  0  0  0  0  0  0  0  0  0
   20.5374  -24.4310  -16.9670 O   0  0  0  0  0  0  0  0  0  0  0  0
   19.6985  -23.5064  -17.2444 C   0  0  0  0  0  0  0  0  0  0  0  0
   18.0764  -25.7851  -19.2052 C   0  0  0  0  0  0  0  0  0  0  0  0
   16.7460  -25.3957  -19.3280 O   0  0  0  0  0  0  0  0  0  0  0  0
  1  2  1  0
  2  3  2  0
  4  2  1  0
  4  5  1  0
  6  5  1  0
  7  6  1  0
  8  7  1  0
  8  9  1  6
 10  8  1  0
 10 11  2  0
 13 12  1  6
 13 15  1  0
 14 13  1  0
 15 16  1  1
 15 17  1  0
 16 10  1  0
 17 18  2  0
 17 26  1  0
 19 20  1  0
 20 21  2  0
 20 30  1  0
 21 22  1  0
 22 23  2  0
 23 24  1  0
 25 24  1  6
 25 27  1  0
 26 25  1  0
 27 28  2  0
 27 31  1  0
 29 23  1  0
 30 29  2  0
M  END
$$$$
