RTY.pdb
     RDKit          3D

 31 31  0  0  1  0  0  0  0  0999 V2000
   22.1875  -17.0321  -16.8969 N   0  0  0  0  0  0  0  0  0  0  0  0
   20.9642  -17.6220  -17.2932 C   0  0  0  0  0  0  0  0  0  0  0  0
   20.2060  -17.1546  -18.2286 N   0  0  0  0  0  0  0  0  0  0  0  0
   20.5438  -18.8087  -16.6106 N   0  0  0  0  0  0  0  0  0  0  0  0
   21.4148  -19.4573  -15.6570 C   0  0  0  0  0  0  0  0  0  0  0  0
   22.7242  -19.7936  -16.3158 C   0  0  0  0  0  0  0  0  0  0  0  0
   23.5589  -20.5946  -15.3575 C   0  0  0  0  0  0  0  0  0  0  0  0
   24.9117  -20.9426  -15.9551 C   0  0  2  0  0  0  0  0  0  0  0  0
   24.6986  -22.0172  -16.8789 N   0  0  0  0  0  0  0  0  0  0  0  0
   25.7746  -21.4099  -14.8319 C   0  0  0  0  0  0  0  0  0  0  0  0
   26.7710  -22.1462  -15.0454 O   0  0  0  0  0  0  0  0  0  0  0  0
   19.2787  -17.5858  -18.4394 C   0  0  0  0  0  0  0  0  0  0  0  0
   28.0418  -20.4061  -14.3558 C   0  0  2  0  0  0  0  0  0  0  0  0
   27.6996  -20.0738  -12.9163 O   0  0  0  0  0  0  0  0  0  0  0  0
   27.2725  -18.7711  -12.8877 C   0  0  2  0  0  0  0  0  0  0  0  0
   26.5639  -21.0048  -12.5185 N   0  0  0  0  0  0  0  0  0  0  0  0
   25.5225  -21.0548  -13.4858 C   0  0  0  0  0  0  0  0  0  0  0  0
   26.0572  -20.6484  -11.1561 O   0  0  0  0  0  0  0  0  0  0  0  0
   25.1845  -19.7587  -10.9829 O   0  0  0  0  0  0  0  0  0  0  0  0
   24.3497  -20.7415   -2.4779 C   0  0  0  0  0  0  0  0  0  0  0  0
   24.8683  -21.0276   -3.7464 C   0  0  0  0  0  0  0  0  0  0  0  0
   24.1541  -21.7329   -4.6864 C   0  0  0  0  0  0  0  0  0  0  0  0
   24.6957  -21.9960   -5.9277 C   0  0  0  0  0  0  0  0  0  0  0  0
   25.9769  -21.5695   -6.2941 C   0  0  0  0  0  0  0  0  0  0  0  0
   26.5523  -21.8806   -7.6149 C   0  0  2  0  0  0  0  0  0  0  0  0
   26.0366  -20.9348   -8.6396 N   0  0  0  0  0  0  0  0  0  0  0  0
   26.5281  -21.2910   -9.9823 C   0  0  0  0  0  0  0  0  0  0  0  0
   26.3053  -19.5312   -8.3389 O   0  0  0  0  0  0  0  0  0  0  0  0
   27.4596  -19.0119   -8.5226 C   0  0  0  0  0  0  0  0  0  0  0  0
   26.6649  -20.8646   -5.3254 C   0  0  0  0  0  0  0  0  0  0  0  0
   26.1327  -20.5906   -4.0691 O   0  0  0  0  0  0  0  0  0  0  0  0
  1  2  1  0
  2  3  2  0
  4  2  1  0
  4  5  1  0
  6  5  1  0
  7  6  1  0
  8  7  1  0
  8  9  1  6
 10  8  1  0
 10 11  2  0
 13 12  1  1
 13 15  1  0
 14 13  1  0
 15 16  1  1
 15 17  1  0
 16 10  1  0
 17 18  2  0
 17 26  1  0
 19 20  1  0
 20 21  2  0
 20 30  1  0
 21 22  1  0
 22 23  2  0
 23 24  1  0
 25 24  1  6
 25 27  1  0
 26 25  1  0
 27 28  2  0
 27 31  1  0
 29 23  1  0
 30 29  2  0
M  END
$$$$
