RTY.pdb
     RDKit          3D

 31 31  0  0  1  0  0  0  0  0999 V2000
   30.8222  -23.2761  -17.3258 N   0  0  0  0  0  0  0  0  0  0  0  0
   29.6529  -24.0201  -17.0416 C   0  0  0  0  0  0  0  0  0  0  0  0
   29.6538  -25.2664  -16.7026 N   0  0  0  0  0  0  0  0  0  0  0  0
   28.3932  -23.3460  -17.1396 N   0  0  0  0  0  0  0  0  0  0  0  0
   28.3347  -21.9055  -17.2404 C   0  0  0  0  0  0  0  0  0  0  0  0
   28.7952  -21.2894  -15.9482 C   0  0  0  0  0  0  0  0  0  0  0  0
   27.8507  -20.1830  -15.5733 C   0  0  0  0  0  0  0  0  0  0  0  0
   26.4165  -20.6784  -15.4967 C   0  0  2  0  0  0  0  0  0  0  0  0
   25.7089  -20.0866  -16.5933 N   0  0  0  0  0  0  0  0  0  0  0  0
   25.8537  -20.1797  -14.2086 C   0  0  0  0  0  0  0  0  0  0  0  0
   25.4914  -18.9826  -14.0820 O   0  0  0  0  0  0  0  0  0  0  0  0
   28.7611  -25.7873  -16.5543 C   0  0  0  0  0  0  0  0  0  0  0  0
   22.8529  -20.6915  -12.8791 C   0  0  2  0  0  0  0  0  0  0  0  0
   23.6790  -21.1352  -11.6873 O   0  0  0  0  0  0  0  0  0  0  0  0
   23.7335  -22.5050  -11.7147 C   0  0  2  0  0  0  0  0  0  0  0  0
   25.0702  -20.5527  -11.8879 N   0  0  0  0  0  0  0  0  0  0  0  0
   25.6992  -21.0146  -13.0768 C   0  0  0  0  0  0  0  0  0  0  0  0
   25.9097  -20.7905  -10.6719 O   0  0  0  0  0  0  0  0  0  0  0  0
   26.6901  -21.7736  -10.5844 O   0  0  0  0  0  0  0  0  0  0  0  0
   29.8192  -20.1493   -2.8134 C   0  0  0  0  0  0  0  0  0  0  0  0
   29.1850  -19.8496   -4.0250 C   0  0  0  0  0  0  0  0  0  0  0  0
   27.9990  -19.1554   -4.0774 C   0  0  0  0  0  0  0  0  0  0  0  0
   27.4020  -18.8759   -5.2894 C   0  0  0  0  0  0  0  0  0  0  0  0
   27.9572  -19.2751   -6.5101 C   0  0  0  0  0  0  0  0  0  0  0  0
   27.2944  -18.9919   -7.7957 C   0  0  1  0  0  0  0  0  0  0  0  0
   26.6204  -20.2133   -8.3103 N   0  0  0  0  0  0  0  0  0  0  0  0
   25.8767  -19.9240   -9.5491 C   0  0  0  0  0  0  0  0  0  0  0  0
   25.7658  -20.8763   -7.3292 O   0  0  0  0  0  0  0  0  0  0  0  0
   26.2477  -21.4371   -6.2857 C   0  0  0  0  0  0  0  0  0  0  0  0
   29.1477  -19.9700   -6.4191 C   0  0  0  0  0  0  0  0  0  0  0  0
   29.7629  -20.2594   -5.2047 O   0  0  0  0  0  0  0  0  0  0  0  0
  1  2  1  0
  2  3  2  0
  4  2  1  0
  4  5  1  0
  6  5  1  0
  7  6  1  0
  8  7  1  0
  8  9  1  6
 10  8  1  0
 10 11  2  0
 13 12  1  1
 13 15  1  0
 14 13  1  0
 15 16  1  1
 15 17  1  0
 16 10  1  0
 17 18  2  0
 17 26  1  0
 19 20  1  0
 20 21  2  0
 20 30  1  0
 21 22  1  0
 22 23  2  0
 23 24  1  0
 25 24  1  6
 25 27  1  0
 26 25  1  0
 27 28  2  0
 27 31  1  0
 29 23  1  0
 30 29  2  0
M  END
$$$$
