SPH.pdb
     RDKit          3D

 24 25  0  0  1  0  0  0  0  0999 V2000
   28.3594  -17.5389  -15.7264 O   0  0  0  0  0  0  0  0  0  0  0  0
   27.2206  -18.3413  -15.7487 C   0  0  0  0  0  0  0  0  0  0  0  0
   27.6201  -19.8059  -15.4917 C   0  0  2  0  0  0  0  0  0  0  0  0
   27.9958  -20.3409  -16.7531 N   0  0  0  0  0  0  0  0  0  0  0  0
   26.5341  -20.4440  -14.7769 C   0  0  0  0  0  0  0  0  0  0  0  0
   25.4474  -20.6153  -15.3856 O   0  0  0  0  0  0  0  0  0  0  0  0
   26.5661  -20.9196  -13.3998 N   0  0  0  0  0  0  0  0  0  0  0  0
   27.6904  -20.8770  -12.5209 C   0  0  0  0  0  0  0  0  0  0  0  0
   27.1180  -20.8974  -11.1345 C   0  0  0  0  0  0  0  0  0  0  0  0
   25.9266  -21.8462  -11.3477 C   0  0  0  0  0  0  0  0  0  0  0  0
   25.4459  -21.5122  -12.7249 C   0  0  1  0  0  0  0  0  0  0  0  0
   24.2585  -20.6192  -12.6982 C   0  0  0  0  0  0  0  0  0  0  0  0
   24.4344  -19.4092  -12.4189 O   0  0  0  0  0  0  0  0  0  0  0  0
   22.9394  -21.0500  -12.9688 N   0  0  0  0  0  0  0  0  0  0  0  0
   21.8255  -20.1608  -13.2118 C   0  0  1  0  0  0  0  0  0  0  0  0
   22.1100  -19.1948  -14.3435 C   0  0  0  0  0  0  0  0  0  0  0  0
   20.9559  -18.3145  -14.6388 C   0  0  0  0  0  0  0  0  0  0  0  0
   19.9489  -17.8569  -13.8147 C   0  0  0  0  0  0  0  0  0  0  0  0
   19.1118  -17.0816  -14.5056 N   0  0  0  0  0  0  0  0  0  0  0  0
   19.5702  -17.0335  -15.7743 C   0  0  0  0  0  0  0  0  0  0  0  0
   20.7011  -17.7911  -15.8506 N   0  0  0  0  0  0  0  0  0  0  0  0
   20.6647  -20.9825  -13.6315 C   0  0  0  0  0  0  0  0  0  0  0  0
   19.3904  -20.7751  -13.1048 O   0  0  0  0  0  0  0  0  0  0  0  0
   20.8396  -21.8841  -14.4808 O   0  0  0  0  0  0  0  0  0  0  0  0
  1  2  1  0
  2  3  1  0
  3  5  1  0
  3  4  1  6
  5  6  2  0
  7 11  1  0
  7  5  1  0
  8  7  1  0
  9  8  1  0
  9 10  1  0
 10 11  1  0
 11 12  1  1
 12 14  1  0
 12 13  2  0
 14 15  1  0
 15 22  1  0
 15 16  1  6
 17 18  2  0
 17 16  1  0
 19 18  1  0
 20 21  2  0
 20 19  1  0
 21 17  1  0
 22 24  2  0
 22 23  1  0
M  END
$$$$
