SPH.pdb
     RDKit          3D

 24 25  0  0  1  0  0  0  0  0999 V2000
   24.1927  -15.0136  -19.3863 O   0  0  0  0  0  0  0  0  0  0  0  0
   24.9745  -14.0163  -18.8071 C   0  0  0  0  0  0  0  0  0  0  0  0
   25.3178  -14.4102  -17.3587 C   0  0  2  0  0  0  0  0  0  0  0  0
   24.7317  -15.6867  -17.1461 N   0  0  0  0  0  0  0  0  0  0  0  0
   24.9123  -13.3215  -16.4939 C   0  0  0  0  0  0  0  0  0  0  0  0
   23.6969  -13.2356  -16.1840 O   0  0  0  0  0  0  0  0  0  0  0  0
   25.7795  -12.2940  -15.9319 N   0  0  0  0  0  0  0  0  0  0  0  0
   27.1976  -12.2177  -16.0780 C   0  0  0  0  0  0  0  0  0  0  0  0
   27.5457  -10.7728  -15.8750 C   0  0  0  0  0  0  0  0  0  0  0  0
   26.5336  -10.4023  -14.7780 C   0  0  0  0  0  0  0  0  0  0  0  0
   25.3149  -11.1945  -15.1339 C   0  0  1  0  0  0  0  0  0  0  0  0
   24.3001  -10.3679  -15.8374 C   0  0  0  0  0  0  0  0  0  0  0  0
   24.3897  -10.2546  -17.0832 O   0  0  0  0  0  0  0  0  0  0  0  0
   23.2370   -9.6994  -15.1877 N   0  0  0  0  0  0  0  0  0  0  0  0
   22.1987   -8.9619  -15.8722 C   0  0  1  0  0  0  0  0  0  0  0  0
   20.9027   -9.7431  -15.9416 C   0  0  0  0  0  0  0  0  0  0  0  0
   19.8543   -9.0315  -16.7088 C   0  0  0  0  0  0  0  0  0  0  0  0
   19.0331   -7.9865  -16.3398 C   0  0  0  0  0  0  0  0  0  0  0  0
   18.2314   -7.6572  -17.3538 N   0  0  0  0  0  0  0  0  0  0  0  0
   18.5279   -8.4832  -18.3794 C   0  0  0  0  0  0  0  0  0  0  0  0
   19.5236   -9.3239  -17.9786 N   0  0  0  0  0  0  0  0  0  0  0  0
   21.9171   -7.7331  -15.0915 C   0  0  0  0  0  0  0  0  0  0  0  0
   21.4062   -6.5832  -15.6924 O   0  0  0  0  0  0  0  0  0  0  0  0
   22.1460   -7.7342  -13.8617 O   0  0  0  0  0  0  0  0  0  0  0  0
  1  2  1  0
  2  3  1  0
  3  5  1  0
  3  4  1  1
  5  6  2  0
  7 11  1  0
  7  5  1  0
  8  7  1  0
  9  8  1  0
  9 10  1  0
 10 11  1  0
 11 12  1  6
 12 14  1  0
 12 13  2  0
 14 15  1  0
 15 22  1  0
 15 16  1  1
 17 18  2  0
 17 16  1  0
 19 18  1  0
 20 21  2  0
 20 19  1  0
 21 17  1  0
 22 24  2  0
 22 23  1  0
M  END
$$$$
