SPH.pdb
     RDKit          3D

 24 25  0  0  1  0  0  0  0  0999 V2000
   18.9067   -8.2948  -17.7858 O   0  0  0  0  0  0  0  0  0  0  0  0
   18.7562   -8.6489  -16.4468 C   0  0  0  0  0  0  0  0  0  0  0  0
   20.1397   -8.9287  -15.8316 C   0  0  2  0  0  0  0  0  0  0  0  0
   20.4593  -10.2709  -16.1703 N   0  0  0  0  0  0  0  0  0  0  0  0
   20.0820   -8.5751  -14.4283 C   0  0  0  0  0  0  0  0  0  0  0  0
   19.4550   -9.3404  -13.6524 O   0  0  0  0  0  0  0  0  0  0  0  0
   20.6858   -7.4041  -13.8057 N   0  0  0  0  0  0  0  0  0  0  0  0
   21.5597   -6.4703  -14.4401 C   0  0  0  0  0  0  0  0  0  0  0  0
   21.4317   -5.2002  -13.6523 C   0  0  0  0  0  0  0  0  0  0  0  0
   21.2829   -5.7757  -12.2339 C   0  0  0  0  0  0  0  0  0  0  0  0
   20.4812   -7.0229  -12.4366 C   0  0  1  0  0  0  0  0  0  0  0  0
   19.0459   -6.8208  -12.1092 C   0  0  0  0  0  0  0  0  0  0  0  0
   18.3126   -6.2813  -12.9718 O   0  0  0  0  0  0  0  0  0  0  0  0
   18.4541   -7.1999  -10.8824 N   0  0  0  0  0  0  0  0  0  0  0  0
   17.0383   -7.1182  -10.6009 C   0  0  1  0  0  0  0  0  0  0  0  0
   16.4530   -8.4707  -10.2500 C   0  0  0  0  0  0  0  0  0  0  0  0
   15.0197   -8.3888   -9.8853 C   0  0  0  0  0  0  0  0  0  0  0  0
   14.1978   -7.2908   -9.7382 C   0  0  0  0  0  0  0  0  0  0  0  0
   12.9692   -7.6837   -9.3983 N   0  0  0  0  0  0  0  0  0  0  0  0
   12.9892   -9.0313   -9.3240 C   0  0  0  0  0  0  0  0  0  0  0  0
   14.2488   -9.4586   -9.6235 N   0  0  0  0  0  0  0  0  0  0  0  0
   16.8553   -6.2506   -9.4125 C   0  0  0  0  0  0  0  0  0  0  0  0
   15.8077   -5.3344   -9.3274 O   0  0  0  0  0  0  0  0  0  0  0  0
   17.6655   -6.3479   -8.4643 O   0  0  0  0  0  0  0  0  0  0  0  0
  1  2  1  0
  2  3  1  0
  3  5  1  0
  3  4  1  1
  5  6  2  0
  7 11  1  0
  7  5  1  0
  8  7  1  0
  9  8  1  0
  9 10  1  0
 10 11  1  0
 11 12  1  6
 12 14  1  0
 12 13  2  0
 14 15  1  0
 15 22  1  0
 15 16  1  1
 17 18  2  0
 17 16  1  0
 19 18  1  0
 20 21  2  0
 20 19  1  0
 21 17  1  0
 22 24  2  0
 22 23  1  0
M  END
$$$$
