SPH.pdb
     RDKit          3D

 24 25  0  0  1  0  0  0  0  0999 V2000
   27.0987  -17.9644  -14.6769 O   0  0  0  0  0  0  0  0  0  0  0  0
   27.0653  -19.1286  -15.4414 C   0  0  0  0  0  0  0  0  0  0  0  0
   27.4056  -20.3373  -14.5502 C   0  0  2  0  0  0  0  0  0  0  0  0
   28.1158  -21.2500  -15.3754 N   0  0  0  0  0  0  0  0  0  0  0  0
   26.1783  -20.7920  -13.9302 C   0  0  0  0  0  0  0  0  0  0  0  0
   25.2516  -21.1919  -14.6800 O   0  0  0  0  0  0  0  0  0  0  0  0
   25.8962  -20.8378  -12.5013 N   0  0  0  0  0  0  0  0  0  0  0  0
   26.7720  -20.4132  -11.4568 C   0  0  0  0  0  0  0  0  0  0  0  0
   25.8829  -20.0925  -10.2920 C   0  0  0  0  0  0  0  0  0  0  0  0
   24.8185  -21.1907  -10.4536 C   0  0  0  0  0  0  0  0  0  0  0  0
   24.6715  -21.3303  -11.9363 C   0  0  1  0  0  0  0  0  0  0  0  0
   23.4771  -20.6089  -12.4471 C   0  0  0  0  0  0  0  0  0  0  0  0
   23.4951  -19.3549  -12.4393 O   0  0  0  0  0  0  0  0  0  0  0  0
   22.3186  -21.2501  -12.9427 N   0  0  0  0  0  0  0  0  0  0  0  0
   21.1097  -20.5602  -13.3340 C   0  0  1  0  0  0  0  0  0  0  0  0
   20.8431  -20.6860  -14.8200 C   0  0  0  0  0  0  0  0  0  0  0  0
   21.7968  -19.8975  -15.6340 C   0  0  0  0  0  0  0  0  0  0  0  0
   21.7125  -18.6027  -16.1021 C   0  0  0  0  0  0  0  0  0  0  0  0
   22.8081  -18.2981  -16.7993 N   0  0  0  0  0  0  0  0  0  0  0  0
   23.6034  -19.3886  -16.7863 C   0  0  0  0  0  0  0  0  0  0  0  0
   22.9787  -20.3664  -16.0705 N   0  0  0  0  0  0  0  0  0  0  0  0
   19.9685  -21.2022  -12.6381 C   0  0  0  0  0  0  0  0  0  0  0  0
   18.7264  -20.5770  -12.5352 O   0  0  0  0  0  0  0  0  0  0  0  0
   20.1306  -22.3346  -12.1319 O   0  0  0  0  0  0  0  0  0  0  0  0
  1  2  1  0
  2  3  1  0
  3  5  1  0
  3  4  1  6
  5  6  2  0
  7 11  1  0
  7  5  1  0
  8  7  1  0
  9  8  1  0
  9 10  1  0
 10 11  1  0
 11 12  1  6
 12 14  1  0
 12 13  2  0
 14 15  1  0
 15 22  1  0
 15 16  1  6
 17 18  2  0
 17 16  1  0
 19 18  1  0
 20 21  2  0
 20 19  1  0
 21 17  1  0
 22 24  2  0
 22 23  1  0
M  END
$$$$
