SPH.pdb
     RDKit          3D

 24 25  0  0  1  0  0  0  0  0999 V2000
   26.4497  -18.7052  -15.4584 O   0  0  0  0  0  0  0  0  0  0  0  0
   27.3608  -18.9877  -14.4429 C   0  0  0  0  0  0  0  0  0  0  0  0
   27.4162  -20.5091  -14.2123 C   0  0  2  0  0  0  0  0  0  0  0  0
   27.8566  -21.0793  -15.4368 N   0  0  0  0  0  0  0  0  0  0  0  0
   26.1319  -20.9265  -13.6892 C   0  0  0  0  0  0  0  0  0  0  0  0
   25.2475  -21.2806  -14.5097 O   0  0  0  0  0  0  0  0  0  0  0  0
   25.7464  -20.9823  -12.2849 N   0  0  0  0  0  0  0  0  0  0  0  0
   26.5518  -20.5854  -11.1749 C   0  0  0  0  0  0  0  0  0  0  0  0
   25.5867  -20.2605  -10.0735 C   0  0  0  0  0  0  0  0  0  0  0  0
   24.5174  -21.3368  -10.3247 C   0  0  0  0  0  0  0  0  0  0  0  0
   24.4755  -21.4578  -11.8156 C   0  0  1  0  0  0  0  0  0  0  0  0
   23.3342  -20.7087  -12.4025 C   0  0  0  0  0  0  0  0  0  0  0  0
   23.4854  -19.4852  -12.6329 O   0  0  0  0  0  0  0  0  0  0  0  0
   22.0852  -21.2912  -12.7182 N   0  0  0  0  0  0  0  0  0  0  0  0
   21.0038  -20.5933  -13.3770 C   0  0  1  0  0  0  0  0  0  0  0  0
   20.5191  -21.3342  -14.6063 C   0  0  0  0  0  0  0  0  0  0  0  0
   21.5586  -21.4255  -15.6575 C   0  0  0  0  0  0  0  0  0  0  0  0
   22.2792  -20.4328  -16.2884 C   0  0  0  0  0  0  0  0  0  0  0  0
   23.1153  -20.9716  -17.1771 N   0  0  0  0  0  0  0  0  0  0  0  0
   22.9413  -22.3092  -17.1265 C   0  0  0  0  0  0  0  0  0  0  0  0
   21.9858  -22.5822  -16.1932 N   0  0  0  0  0  0  0  0  0  0  0  0
   19.8589  -20.5280  -12.4369 C   0  0  0  0  0  0  0  0  0  0  0  0
   18.9818  -19.4440  -12.4234 O   0  0  0  0  0  0  0  0  0  0  0  0
   19.6804  -21.4733  -11.6373 O   0  0  0  0  0  0  0  0  0  0  0  0
  1  2  1  0
  2  3  1  0
  3  5  1  0
  3  4  1  6
  5  6  2  0
  7 11  1  0
  7  5  1  0
  8  7  1  0
  9  8  1  0
  9 10  1  0
 10 11  1  0
 11 12  1  6
 12 14  1  0
 12 13  2  0
 14 15  1  0
 15 22  1  0
 15 16  1  6
 17 18  2  0
 17 16  1  0
 19 18  1  0
 20 21  2  0
 20 19  1  0
 21 17  1  0
 22 24  2  0
 22 23  1  0
M  END
$$$$
