SPH.pdb
     RDKit          3D

 24 25  0  0  1  0  0  0  0  0999 V2000
   27.0637  -17.1690   10.6525 O   0  0  0  0  0  0  0  0  0  0  0  0
   27.7196  -18.3889   10.8031 C   0  0  0  0  0  0  0  0  0  0  0  0
   29.1799  -18.2471   10.3359 C   0  0  2  0  0  0  0  0  0  0  0  0
   29.1226  -17.8234    8.9810 N   0  0  0  0  0  0  0  0  0  0  0  0
   29.8643  -19.4883   10.6334 C   0  0  0  0  0  0  0  0  0  0  0  0
   29.4830  -20.5291   10.0401 O   0  0  0  0  0  0  0  0  0  0  0  0
   30.9709  -19.6642   11.5651 N   0  0  0  0  0  0  0  0  0  0  0  0
   31.5646  -18.6442   12.3685 C   0  0  0  0  0  0  0  0  0  0  0  0
   32.1922  -19.3598   13.5279 C   0  0  0  0  0  0  0  0  0  0  0  0
   32.6920  -20.6316   12.8224 C   0  0  0  0  0  0  0  0  0  0  0  0
   31.6318  -20.9160   11.8053 C   0  0  1  0  0  0  0  0  0  0  0  0
   30.6959  -21.9772   12.2592 C   0  0  0  0  0  0  0  0  0  0  0  0
   29.6052  -21.6257   12.7687 O   0  0  0  0  0  0  0  0  0  0  0  0
   30.9596  -23.3622   12.1522 N   0  0  0  0  0  0  0  0  0  0  0  0
   30.0503  -24.4004   12.5831 C   0  0  1  0  0  0  0  0  0  0  0  0
   29.5840  -25.2593   11.4257 C   0  0  0  0  0  0  0  0  0  0  0  0
   28.6146  -24.5556   10.5543 C   0  0  0  0  0  0  0  0  0  0  0  0
   27.2842  -24.2555   10.7601 C   0  0  0  0  0  0  0  0  0  0  0  0
   26.7946  -23.6068    9.7024 N   0  0  0  0  0  0  0  0  0  0  0  0
   27.8006  -23.4841    8.8108 C   0  0  0  0  0  0  0  0  0  0  0  0
   28.9143  -24.0675    9.3381 N   0  0  0  0  0  0  0  0  0  0  0  0
   30.7814  -25.2946   13.5129 C   0  0  0  0  0  0  0  0  0  0  0  0
   30.1344  -26.3126   14.2125 O   0  0  0  0  0  0  0  0  0  0  0  0
   32.0110  -25.1264   13.6696 O   0  0  0  0  0  0  0  0  0  0  0  0
  1  2  1  0
  2  3  1  0
  3  5  1  0
  3  4  1  6
  5  6  2  0
  7 11  1  0
  7  5  1  0
  8  7  1  0
  9  8  1  0
  9 10  1  0
 10 11  1  0
 11 12  1  1
 12 14  1  0
 12 13  2  0
 14 15  1  0
 15 22  1  0
 15 16  1  6
 17 18  2  0
 17 16  1  0
 19 18  1  0
 20 21  2  0
 20 19  1  0
 21 17  1  0
 22 24  2  0
 22 23  1  0
M  END
$$$$
