SPH.pdb
     RDKit          3D

 24 25  0  0  1  0  0  0  0  0999 V2000
   26.5110  -21.9052  -15.0057 O   0  0  0  0  0  0  0  0  0  0  0  0
   26.1139  -22.2198  -13.7079 C   0  0  0  0  0  0  0  0  0  0  0  0
   26.3351  -21.0005  -12.7940 C   0  0  2  0  0  0  0  0  0  0  0  0
   26.0682  -21.4439  -11.4709 N   0  0  0  0  0  0  0  0  0  0  0  0
   25.5471  -19.9039  -13.3173 C   0  0  0  0  0  0  0  0  0  0  0  0
   24.2965  -19.9706  -13.2064 O   0  0  0  0  0  0  0  0  0  0  0  0
   26.0581  -18.7061  -13.9713 N   0  0  0  0  0  0  0  0  0  0  0  0
   27.4303  -18.3269  -14.0793 C   0  0  0  0  0  0  0  0  0  0  0  0
   27.5056  -17.4258  -15.2761 C   0  0  0  0  0  0  0  0  0  0  0  0
   26.1680  -16.6795  -15.1374 C   0  0  0  0  0  0  0  0  0  0  0  0
   25.2315  -17.7201  -14.6086 C   0  0  1  0  0  0  0  0  0  0  0  0
   24.3787  -18.2969  -15.6800 C   0  0  0  0  0  0  0  0  0  0  0  0
   24.9248  -19.0240  -16.5437 O   0  0  0  0  0  0  0  0  0  0  0  0
   22.9862  -18.0763  -15.7865 N   0  0  0  0  0  0  0  0  0  0  0  0
   22.1410  -18.6755  -16.7950 C   0  0  1  0  0  0  0  0  0  0  0  0
   22.0631  -20.1809  -16.6454 C   0  0  0  0  0  0  0  0  0  0  0  0
   21.4373  -20.5902  -15.3667 C   0  0  0  0  0  0  0  0  0  0  0  0
   21.9457  -20.5902  -14.0845 C   0  0  0  0  0  0  0  0  0  0  0  0
   21.0272  -21.0443  -13.2303 N   0  0  0  0  0  0  0  0  0  0  0  0
   19.9250  -21.3392  -13.9516 C   0  0  0  0  0  0  0  0  0  0  0  0
   20.1818  -21.0589  -15.2609 N   0  0  0  0  0  0  0  0  0  0  0  0
   20.7651  -18.1546  -16.6101 C   0  0  0  0  0  0  0  0  0  0  0  0
   19.7055  -18.5812  -17.4099 O   0  0  0  0  0  0  0  0  0  0  0  0
   20.5556  -17.3104  -15.7111 O   0  0  0  0  0  0  0  0  0  0  0  0
  1  2  1  0
  2  3  1  0
  3  5  1  0
  3  4  1  1
  5  6  2  0
  7 11  1  0
  7  5  1  0
  8  7  1  0
  9  8  1  0
  9 10  1  0
 10 11  1  0
 11 12  1  6
 12 14  1  0
 12 13  2  0
 14 15  1  0
 15 22  1  0
 15 16  1  1
 17 18  2  0
 17 16  1  0
 19 18  1  0
 20 21  2  0
 20 19  1  0
 21 17  1  0
 22 24  2  0
 22 23  1  0
M  END
$$$$
