SPH.pdb
     RDKit          3D

 24 25  0  0  1  0  0  0  0  0999 V2000
   26.1511  -21.8817  -18.1008 O   0  0  0  0  0  0  0  0  0  0  0  0
   27.1877  -22.7190  -18.5076 C   0  0  0  0  0  0  0  0  0  0  0  0
   28.5246  -22.1804  -17.9659 C   0  0  2  0  0  0  0  0  0  0  0  0
   29.4404  -23.2651  -18.0225 N   0  0  0  0  0  0  0  0  0  0  0  0
   28.2689  -21.5709  -16.6772 C   0  0  0  0  0  0  0  0  0  0  0  0
   28.1996  -22.3232  -15.6722 O   0  0  0  0  0  0  0  0  0  0  0  0
   28.0803  -20.1501  -16.4143 N   0  0  0  0  0  0  0  0  0  0  0  0
   28.1199  -19.1026  -17.3836 C   0  0  0  0  0  0  0  0  0  0  0  0
   27.3165  -17.9803  -16.7960 C   0  0  0  0  0  0  0  0  0  0  0  0
   27.7014  -18.1194  -15.3136 C   0  0  0  0  0  0  0  0  0  0  0  0
   27.8258  -19.5972  -15.1139 C   0  0  1  0  0  0  0  0  0  0  0  0
   26.6153  -20.1759  -14.4751 C   0  0  0  0  0  0  0  0  0  0  0  0
   25.7199  -20.6431  -15.2187 O   0  0  0  0  0  0  0  0  0  0  0  0
   26.4100  -20.2328  -13.0774 N   0  0  0  0  0  0  0  0  0  0  0  0
   25.2305  -20.7844  -12.4488 C   0  0  1  0  0  0  0  0  0  0  0  0
   25.3404  -20.7790  -10.9380 C   0  0  0  0  0  0  0  0  0  0  0  0
   24.0501  -21.0814  -10.2763 C   0  0  0  0  0  0  0  0  0  0  0  0
   22.8244  -21.4077  -10.8184 C   0  0  0  0  0  0  0  0  0  0  0  0
   21.9325  -21.5995   -9.8453 N   0  0  0  0  0  0  0  0  0  0  0  0
   22.5729  -21.3993   -8.6740 C   0  0  0  0  0  0  0  0  0  0  0  0
   23.8710  -21.0819   -8.9440 N   0  0  0  0  0  0  0  0  0  0  0  0
   24.0772  -19.9201  -12.7976 C   0  0  0  0  0  0  0  0  0  0  0  0
   22.8008  -20.4451  -12.9968 O   0  0  0  0  0  0  0  0  0  0  0  0
   24.2604  -18.6883  -12.9149 O   0  0  0  0  0  0  0  0  0  0  0  0
  1  2  1  0
  2  3  1  0
  3  5  1  0
  3  4  1  1
  5  6  2  0
  7 11  1  0
  7  5  1  0
  8  7  1  0
  9  8  1  0
  9 10  1  0
 10 11  1  0
 11 12  1  6
 12 14  1  0
 12 13  2  0
 14 15  1  0
 15 22  1  0
 15 16  1  1
 17 18  2  0
 17 16  1  0
 19 18  1  0
 20 21  2  0
 20 19  1  0
 21 17  1  0
 22 24  2  0
 22 23  1  0
M  END
$$$$
