SPH.pdb
     RDKit          3D

 24 25  0  0  1  0  0  0  0  0999 V2000
   28.4149  -19.0158  -15.5283 O   0  0  0  0  0  0  0  0  0  0  0  0
   27.2515  -19.7775  -15.6150 C   0  0  0  0  0  0  0  0  0  0  0  0
   27.4198  -21.0665  -14.7897 C   0  0  2  0  0  0  0  0  0  0  0  0
   27.9704  -22.0332  -15.6733 N   0  0  0  0  0  0  0  0  0  0  0  0
   26.1481  -21.3622  -14.1629 C   0  0  0  0  0  0  0  0  0  0  0  0
   25.2218  -21.8054  -14.8882 O   0  0  0  0  0  0  0  0  0  0  0  0
   25.8201  -21.1987  -12.7525 N   0  0  0  0  0  0  0  0  0  0  0  0
   26.6956  -20.7102  -11.7361 C   0  0  0  0  0  0  0  0  0  0  0  0
   25.8009  -20.1721  -10.6590 C   0  0  0  0  0  0  0  0  0  0  0  0
   24.6555  -21.1964  -10.7220 C   0  0  0  0  0  0  0  0  0  0  0  0
   24.5426  -21.5169  -12.1794 C   0  0  1  0  0  0  0  0  0  0  0  0
   23.4273  -20.7783  -12.8264 C   0  0  0  0  0  0  0  0  0  0  0  0
   23.5619  -19.5449  -13.0092 O   0  0  0  0  0  0  0  0  0  0  0  0
   22.2207  -21.3813  -13.2499 N   0  0  0  0  0  0  0  0  0  0  0  0
   21.1462  -20.6765  -13.9128 C   0  0  1  0  0  0  0  0  0  0  0  0
   20.6427  -21.4278  -15.1280 C   0  0  0  0  0  0  0  0  0  0  0  0
   19.5353  -20.7201  -15.8112 C   0  0  0  0  0  0  0  0  0  0  0  0
   19.4656  -19.4310  -16.2972 C   0  0  0  0  0  0  0  0  0  0  0  0
   18.2673  -19.2135  -16.8413 N   0  0  0  0  0  0  0  0  0  0  0  0
   17.5585  -20.3549  -16.7111 C   0  0  0  0  0  0  0  0  0  0  0  0
   18.3406  -21.2754  -16.0789 N   0  0  0  0  0  0  0  0  0  0  0  0
   20.0083  -20.5794  -12.9671 C   0  0  0  0  0  0  0  0  0  0  0  0
   19.0824  -19.5392  -13.0379 O   0  0  0  0  0  0  0  0  0  0  0  0
   19.8808  -21.4568  -12.0847 O   0  0  0  0  0  0  0  0  0  0  0  0
  1  2  1  0
  2  3  1  0
  3  5  1  0
  3  4  1  6
  5  6  2  0
  7 11  1  0
  7  5  1  0
  8  7  1  0
  9  8  1  0
  9 10  1  0
 10 11  1  0
 11 12  1  6
 12 14  1  0
 12 13  2  0
 14 15  1  0
 15 22  1  0
 15 16  1  6
 17 18  2  0
 17 16  1  0
 19 18  1  0
 20 21  2  0
 20 19  1  0
 21 17  1  0
 22 24  2  0
 22 23  1  0
M  END
$$$$
