SPH.pdb
     RDKit          3D

 24 25  0  0  1  0  0  0  0  0999 V2000
   19.4549  -18.9377  -13.4807 O   0  0  0  0  0  0  0  0  0  0  0  0
   19.3507  -20.0446  -12.6411 C   0  0  0  0  0  0  0  0  0  0  0  0
   20.7066  -20.7716  -12.5804 C   0  0  2  0  0  0  0  0  0  0  0  0
   20.8228  -21.4949  -13.7976 N   0  0  0  0  0  0  0  0  0  0  0  0
   20.7573  -21.5150  -11.3384 C   0  0  0  0  0  0  0  0  0  0  0  0
   20.0709  -22.5647  -11.2508 O   0  0  0  0  0  0  0  0  0  0  0  0
   21.5349  -21.1706  -10.1551 N   0  0  0  0  0  0  0  0  0  0  0  0
   22.4279  -20.0640  -10.0279 C   0  0  0  0  0  0  0  0  0  0  0  0
   22.5080  -19.7787   -8.5574 C   0  0  0  0  0  0  0  0  0  0  0  0
   22.4483  -21.2109   -8.0004 C   0  0  0  0  0  0  0  0  0  0  0  0
   21.5101  -21.9164   -8.9284 C   0  0  1  0  0  0  0  0  0  0  0  0
   20.1430  -22.0294   -8.3572 C   0  0  0  0  0  0  0  0  0  0  0  0
   19.2753  -21.2049   -8.7317 O   0  0  0  0  0  0  0  0  0  0  0  0
   19.7587  -23.0113   -7.4152 N   0  0  0  0  0  0  0  0  0  0  0  0
   18.4479  -23.6189   -7.3602 C   0  0  1  0  0  0  0  0  0  0  0  0
   18.1497  -24.4328   -8.6026 C   0  0  0  0  0  0  0  0  0  0  0  0
   16.7871  -25.0132   -8.5845 C   0  0  0  0  0  0  0  0  0  0  0  0
   15.8089  -24.9634   -7.6133 C   0  0  0  0  0  0  0  0  0  0  0  0
   14.7276  -25.6295   -8.0211 N   0  0  0  0  0  0  0  0  0  0  0  0
   14.9988  -26.1117   -9.2524 C   0  0  0  0  0  0  0  0  0  0  0  0
   16.2628  -25.7309   -9.5931 N   0  0  0  0  0  0  0  0  0  0  0  0
   18.4258  -24.5610   -6.2153 C   0  0  0  0  0  0  0  0  0  0  0  0
   19.5997  -25.0028   -5.6061 O   0  0  0  0  0  0  0  0  0  0  0  0
   17.3218  -24.9665   -5.7892 O   0  0  0  0  0  0  0  0  0  0  0  0
  1  2  1  0
  2  3  1  0
  3  5  1  0
  3  4  1  6
  5  6  2  0
  7 11  1  0
  7  5  1  0
  8  7  1  0
  9  8  1  0
  9 10  1  0
 10 11  1  0
 11 12  1  1
 12 14  1  0
 12 13  2  0
 14 15  1  0
 15 22  1  0
 15 16  1  6
 17 18  2  0
 17 16  1  0
 19 18  1  0
 20 21  2  0
 20 19  1  0
 21 17  1  0
 22 24  2  0
 22 23  1  0
M  END
$$$$
