SPH.pdb
     RDKit          3D

 24 25  0  0  1  0  0  0  0  0999 V2000
   26.8552  -22.7896  -14.7126 O   0  0  0  0  0  0  0  0  0  0  0  0
   25.7358  -22.1371  -14.2005 C   0  0  0  0  0  0  0  0  0  0  0  0
   26.1868  -21.0305  -13.2294 C   0  0  2  0  0  0  0  0  0  0  0  0
   25.8558  -21.4887  -11.9260 N   0  0  0  0  0  0  0  0  0  0  0  0
   25.6090  -19.7812  -13.6798 C   0  0  0  0  0  0  0  0  0  0  0  0
   24.3861  -19.5850  -13.4638 O   0  0  0  0  0  0  0  0  0  0  0  0
   26.3072  -18.7043  -14.3700 N   0  0  0  0  0  0  0  0  0  0  0  0
   27.7050  -18.6553  -14.6561 C   0  0  0  0  0  0  0  0  0  0  0  0
   27.8431  -17.7330  -15.8310 C   0  0  0  0  0  0  0  0  0  0  0  0
   26.7547  -16.7002  -15.4934 C   0  0  0  0  0  0  0  0  0  0  0  0
   25.6695  -17.5169  -14.8653 C   0  0  1  0  0  0  0  0  0  0  0  0
   24.5731  -17.8155  -15.8229 C   0  0  0  0  0  0  0  0  0  0  0  0
   24.7679  -18.7029  -16.6874 O   0  0  0  0  0  0  0  0  0  0  0  0
   23.3207  -17.1594  -15.8198 N   0  0  0  0  0  0  0  0  0  0  0  0
   22.2452  -17.4521  -16.7407 C   0  0  1  0  0  0  0  0  0  0  0  0
   20.9621  -17.8054  -16.0171 C   0  0  0  0  0  0  0  0  0  0  0  0
   21.0570  -19.0954  -15.2954 C   0  0  0  0  0  0  0  0  0  0  0  0
   21.3290  -20.3631  -15.7660 C   0  0  0  0  0  0  0  0  0  0  0  0
   21.3145  -21.2363  -14.7577 N   0  0  0  0  0  0  0  0  0  0  0  0
   21.0345  -20.5418  -13.6346 C   0  0  0  0  0  0  0  0  0  0  0  0
   20.8775  -19.2297  -13.9698 N   0  0  0  0  0  0  0  0  0  0  0  0
   21.9692  -16.2271  -17.5291 C   0  0  0  0  0  0  0  0  0  0  0  0
   22.5887  -15.0123  -17.2381 O   0  0  0  0  0  0  0  0  0  0  0  0
   21.1580  -16.2913  -18.4793 O   0  0  0  0  0  0  0  0  0  0  0  0
  1  2  1  0
  2  3  1  0
  3  5  1  0
  3  4  1  1
  5  6  2  0
  7 11  1  0
  7  5  1  0
  8  7  1  0
  9  8  1  0
  9 10  1  0
 10 11  1  0
 11 12  1  6
 12 14  1  0
 12 13  2  0
 14 15  1  0
 15 22  1  0
 15 16  1  1
 17 18  2  0
 17 16  1  0
 19 18  1  0
 20 21  2  0
 20 19  1  0
 21 17  1  0
 22 24  2  0
 22 23  1  0
M  END
$$$$
