SPH.pdb
     RDKit          3D

 24 25  0  0  1  0  0  0  0  0999 V2000
   22.0661  -14.0445  -19.1357 O   0  0  0  0  0  0  0  0  0  0  0  0
   21.8055  -12.8847  -18.4092 C   0  0  0  0  0  0  0  0  0  0  0  0
   22.2224  -13.0940  -16.9418 C   0  0  2  0  0  0  0  0  0  0  0  0
   21.3792  -14.1180  -16.4330 N   0  0  0  0  0  0  0  0  0  0  0  0
   22.1999  -11.8036  -16.2848 C   0  0  0  0  0  0  0  0  0  0  0  0
   21.0962  -11.3772  -15.8596 O   0  0  0  0  0  0  0  0  0  0  0  0
   23.3426  -10.9282  -16.0579 N   0  0  0  0  0  0  0  0  0  0  0  0
   24.7000  -11.2115  -16.3978 C   0  0  0  0  0  0  0  0  0  0  0  0
   25.3671   -9.8751  -16.5368 C   0  0  0  0  0  0  0  0  0  0  0  0
   24.6550   -9.0995  -15.4159 C   0  0  0  0  0  0  0  0  0  0  0  0
   23.2571   -9.6327  -15.4448 C   0  0  1  0  0  0  0  0  0  0  0  0
   22.3291   -8.7216  -16.1637 C   0  0  0  0  0  0  0  0  0  0  0  0
   22.2322   -8.8378  -17.4087 O   0  0  0  0  0  0  0  0  0  0  0  0
   21.5467   -7.7293  -15.5297 N   0  0  0  0  0  0  0  0  0  0  0  0
   20.5905   -6.8863  -16.2120 C   0  0  1  0  0  0  0  0  0  0  0  0
   19.1635   -7.2398  -15.8463 C   0  0  0  0  0  0  0  0  0  0  0  0
   18.1746   -6.3661  -16.5192 C   0  0  0  0  0  0  0  0  0  0  0  0
   18.0421   -6.0286  -17.8501 C   0  0  0  0  0  0  0  0  0  0  0  0
   17.0030   -5.2077  -18.0105 N   0  0  0  0  0  0  0  0  0  0  0  0
   16.4602   -5.0105  -16.7905 C   0  0  0  0  0  0  0  0  0  0  0  0
   17.1823   -5.7230  -15.8797 N   0  0  0  0  0  0  0  0  0  0  0  0
   20.8124   -5.4885  -15.7697 C   0  0  0  0  0  0  0  0  0  0  0  0
   20.4384   -4.4013  -16.5587 O   0  0  0  0  0  0  0  0  0  0  0  0
   21.3497   -5.2857  -14.6584 O   0  0  0  0  0  0  0  0  0  0  0  0
  1  2  1  0
  2  3  1  0
  3  5  1  0
  3  4  1  1
  5  6  2  0
  7 11  1  0
  7  5  1  0
  8  7  1  0
  9  8  1  0
  9 10  1  0
 10 11  1  0
 11 12  1  6
 12 14  1  0
 12 13  2  0
 14 15  1  0
 15 22  1  0
 15 16  1  1
 17 18  2  0
 17 16  1  0
 19 18  1  0
 20 21  2  0
 20 19  1  0
 21 17  1  0
 22 24  2  0
 22 23  1  0
M  END
$$$$
