QWG.pdb
     RDKit          3D

 28 29  0  0  1  0  0  0  0  0999 V2000
   25.5212  -38.1589    4.6562 N   0  0  0  0  0  0  0  0  0  0  0  0
   26.8678  -38.4270    4.2477 C   0  0  0  0  0  0  0  0  0  0  0  0
   27.7397  -38.7183    5.1025 O   0  0  0  0  0  0  0  0  0  0  0  0
   27.1463  -38.3437    2.8106 C   0  0  0  0  0  0  0  0  0  0  0  0
   28.0573  -37.2250    2.4935 C   0  0  0  0  0  0  0  0  0  0  0  0
   27.4770  -35.8827    2.2656 C   0  0  2  0  0  0  0  0  0  0  0  0
   27.0720  -35.5321    0.9619 N   0  0  0  0  0  0  0  0  0  0  0  0
   28.3206  -34.8477    2.9646 C   0  0  0  0  0  0  0  0  0  0  0  0
   29.0098  -34.1372    2.1936 O   0  0  0  0  0  0  0  0  0  0  0  0
   28.3796  -34.6460    4.3417 N   0  0  0  0  0  0  0  0  0  0  0  0
   29.1910  -33.6399    4.9938 C   0  0  1  0  0  0  0  0  0  0  0  0
   28.3649  -32.8950    5.9833 C   0  0  0  0  0  0  0  0  0  0  0  0
   27.6503  -31.7485    5.4196 C   0  0  0  0  0  0  0  0  0  0  0  0
   26.6222  -31.7736    4.5042 C   0  0  0  0  0  0  0  0  0  0  0  0
   26.2476  -30.5007    4.2500 N   0  0  0  0  0  0  0  0  0  0  0  0
   26.9931  -29.6477    4.9654 C   0  0  0  0  0  0  0  0  0  0  0  0
   26.9781  -28.2719    5.0370 C   0  0  0  0  0  0  0  0  0  0  0  0
   27.8953  -27.6722    5.8892 C   0  0  0  0  0  0  0  0  0  0  0  0
   28.7860  -28.4475    6.6330 C   0  0  0  0  0  0  0  0  0  0  0  0
   28.7866  -29.8210    6.5487 C   0  0  0  0  0  0  0  0  0  0  0  0
   27.8801  -30.4244    5.7057 C   0  0  0  0  0  0  0  0  0  0  0  0
   30.3728  -34.2959    5.6110 C   0  0  0  0  0  0  0  0  0  0  0  0
   30.3759  -35.3998    6.1938 O   0  0  0  0  0  0  0  0  0  0  0  0
   31.6239  -33.5943    5.5279 N   0  0  0  0  0  0  0  0  0  0  0  0
   32.8012  -34.2290    6.0661 C   0  0  0  0  0  0  0  0  0  0  0  0
   32.8456  -34.0196    7.5162 C   0  0  0  0  0  0  0  0  0  0  0  0
   31.8853  -33.4825    8.1301 O   0  0  0  0  0  0  0  0  0  0  0  0
   33.9482  -34.4097    8.2402 O   0  0  0  0  0  0  0  0  0  0  0  0
  1  2  1  0
  2  4  1  0
  3  2  2  0
  4  5  1  0
  5  6  1  0
  6  8  1  0
  6  7  1  6
  8  9  2  0
 10  8  1  0
 11 10  1  0
 11 12  1  1
 13 12  1  0
 13 21  1  0
 14 15  1  0
 14 13  2  0
 15 16  1  0
 16 21  2  0
 16 17  1  0
 17 18  2  0
 18 19  1  0
 20 19  2  0
 21 20  1  0
 22 11  1  0
 23 22  2  0
 24 22  1  0
 25 24  1  0
 25 26  1  0
 26 28  1  0
 27 26  2  0
M  END
$$$$
