QWG.pdb
     RDKit          3D

 28 29  0  0  1  0  0  0  0  0999 V2000
   28.8015  -17.7752  -15.4945 N   0  0  0  0  0  0  0  0  0  0  0  0
   28.5728  -18.3991  -16.7636 C   0  0  0  0  0  0  0  0  0  0  0  0
   29.1971  -18.0079  -17.7799 O   0  0  0  0  0  0  0  0  0  0  0  0
   27.5946  -19.4910  -16.7910 C   0  0  0  0  0  0  0  0  0  0  0  0
   27.1552  -19.8665  -15.4317 C   0  0  0  0  0  0  0  0  0  0  0  0
   27.9959  -20.7997  -14.6487 C   0  0  2  0  0  0  0  0  0  0  0  0
   28.6187  -21.8734  -15.3163 N   0  0  0  0  0  0  0  0  0  0  0  0
   27.2756  -21.1774  -13.3799 C   0  0  0  0  0  0  0  0  0  0  0  0
   26.2012  -21.7993  -13.5619 O   0  0  0  0  0  0  0  0  0  0  0  0
   27.7071  -20.8900  -12.0869 N   0  0  0  0  0  0  0  0  0  0  0  0
   26.8909  -21.0163  -10.8979 C   0  0  1  0  0  0  0  0  0  0  0  0
   27.6749  -20.5925   -9.7054 C   0  0  0  0  0  0  0  0  0  0  0  0
   26.9176  -20.6236   -8.4531 C   0  0  0  0  0  0  0  0  0  0  0  0
   25.5639  -20.8241   -8.3009 C   0  0  0  0  0  0  0  0  0  0  0  0
   25.2724  -20.7776   -6.9826 N   0  0  0  0  0  0  0  0  0  0  0  0
   26.3853  -20.5545   -6.2706 C   0  0  0  0  0  0  0  0  0  0  0  0
   26.5819  -20.4291   -4.9127 C   0  0  0  0  0  0  0  0  0  0  0  0
   27.8801  -20.1964   -4.4796 C   0  0  0  0  0  0  0  0  0  0  0  0
   28.9275  -20.0970   -5.3967 C   0  0  0  0  0  0  0  0  0  0  0  0
   28.7123  -20.2250   -6.7498 C   0  0  0  0  0  0  0  0  0  0  0  0
   27.4274  -20.4559   -7.1882 C   0  0  0  0  0  0  0  0  0  0  0  0
   25.6468  -20.2238  -11.0779 C   0  0  0  0  0  0  0  0  0  0  0  0
   25.5791  -18.9819  -11.1841 O   0  0  0  0  0  0  0  0  0  0  0  0
   24.4116  -20.9556  -11.1347 N   0  0  0  0  0  0  0  0  0  0  0  0
   23.2241  -20.2609  -11.5658 C   0  0  0  0  0  0  0  0  0  0  0  0
   22.1500  -20.4867  -10.5944 C   0  0  0  0  0  0  0  0  0  0  0  0
   22.2415  -21.3826   -9.7132 O   0  0  0  0  0  0  0  0  0  0  0  0
   21.0108  -19.7165  -10.6279 O   0  0  0  0  0  0  0  0  0  0  0  0
  1  2  1  0
  2  4  1  0
  3  2  2  0
  4  5  1  0
  5  6  1  0
  6  8  1  0
  6  7  1  6
  8  9  2  0
 10  8  1  0
 11 10  1  0
 11 12  1  1
 13 12  1  0
 13 21  1  0
 14 15  1  0
 14 13  2  0
 15 16  1  0
 16 21  2  0
 16 17  1  0
 17 18  2  0
 18 19  1  0
 20 19  2  0
 21 20  1  0
 22 11  1  0
 23 22  2  0
 24 22  1  0
 25 24  1  0
 25 26  1  0
 26 28  1  0
 27 26  2  0
M  END
$$$$
