QWG.pdb
     RDKit          3D

 28 29  0  0  1  0  0  0  0  0999 V2000
   25.8965  -24.1465  -16.9145 N   0  0  0  0  0  0  0  0  0  0  0  0
   26.3213  -23.0714  -17.7607 C   0  0  0  0  0  0  0  0  0  0  0  0
   26.6698  -23.3010  -18.9446 O   0  0  0  0  0  0  0  0  0  0  0  0
   26.3176  -21.7300  -17.1688 C   0  0  0  0  0  0  0  0  0  0  0  0
   25.8184  -21.7464  -15.7786 C   0  0  0  0  0  0  0  0  0  0  0  0
   26.8007  -21.6842  -14.6733 C   0  0  2  0  0  0  0  0  0  0  0  0
   27.9941  -22.4258  -14.7847 N   0  0  0  0  0  0  0  0  0  0  0  0
   26.0828  -21.8369  -13.3570 C   0  0  0  0  0  0  0  0  0  0  0  0
   25.7193  -23.0100  -13.1003 O   0  0  0  0  0  0  0  0  0  0  0  0
   25.8109  -20.8079  -12.4581 N   0  0  0  0  0  0  0  0  0  0  0  0
   24.9477  -20.9291  -11.3023 C   0  0  1  0  0  0  0  0  0  0  0  0
   25.5046  -20.1308  -10.1758 C   0  0  0  0  0  0  0  0  0  0  0  0
   26.8264  -20.5733   -9.7288 C   0  0  0  0  0  0  0  0  0  0  0  0
   27.7267  -21.3484  -10.4247 C   0  0  0  0  0  0  0  0  0  0  0  0
   28.8215  -21.5253   -9.6532 N   0  0  0  0  0  0  0  0  0  0  0  0
   28.6680  -20.8946   -8.4811 C   0  0  0  0  0  0  0  0  0  0  0  0
   29.5043  -20.7929   -7.3909 C   0  0  0  0  0  0  0  0  0  0  0  0
   29.0465  -20.0541   -6.3084 C   0  0  0  0  0  0  0  0  0  0  0  0
   27.7897  -19.4482   -6.3428 C   0  0  0  0  0  0  0  0  0  0  0  0
   26.9676  -19.5606   -7.4407 C   0  0  0  0  0  0  0  0  0  0  0  0
   27.4138  -20.2917   -8.5190 C   0  0  0  0  0  0  0  0  0  0  0  0
   23.5728  -20.5093  -11.6783 C   0  0  0  0  0  0  0  0  0  0  0  0
   23.1951  -19.3368  -11.8805 O   0  0  0  0  0  0  0  0  0  0  0  0
   22.5912  -21.5488  -11.8218 N   0  0  0  0  0  0  0  0  0  0  0  0
   21.2611  -21.1809  -12.2389 C   0  0  0  0  0  0  0  0  0  0  0  0
   20.2915  -21.6651  -11.2519 C   0  0  0  0  0  0  0  0  0  0  0  0
   20.6526  -22.0171  -10.0972 O   0  0  0  0  0  0  0  0  0  0  0  0
   18.9563  -21.7449  -11.5722 O   0  0  0  0  0  0  0  0  0  0  0  0
  1  2  1  0
  2  4  1  0
  3  2  2  0
  4  5  1  0
  5  6  1  0
  6  8  1  0
  6  7  1  6
  8  9  2  0
 10  8  1  0
 11 10  1  0
 11 12  1  1
 13 12  1  0
 13 21  1  0
 14 15  1  0
 14 13  2  0
 15 16  1  0
 16 21  2  0
 16 17  1  0
 17 18  2  0
 18 19  1  0
 20 19  2  0
 21 20  1  0
 22 11  1  0
 23 22  2  0
 24 22  1  0
 25 24  1  0
 25 26  1  0
 26 28  1  0
 27 26  2  0
M  END
$$$$
