QWG.pdb
     RDKit          3D

 28 29  0  0  1  0  0  0  0  0999 V2000
   28.6889  -21.5488  -19.1623 N   0  0  0  0  0  0  0  0  0  0  0  0
   28.4097  -22.4798  -18.1098 C   0  0  0  0  0  0  0  0  0  0  0  0
   27.5287  -23.3605  -18.2646 O   0  0  0  0  0  0  0  0  0  0  0  0
   29.1999  -22.3391  -16.8828 C   0  0  0  0  0  0  0  0  0  0  0  0
   28.3512  -22.3979  -15.6753 C   0  0  0  0  0  0  0  0  0  0  0  0
   27.2466  -21.4223  -15.5385 C   0  0  2  0  0  0  0  0  0  0  0  0
   27.4878  -20.0744  -15.8727 N   0  0  0  0  0  0  0  0  0  0  0  0
   26.5558  -21.6310  -14.2154 C   0  0  0  0  0  0  0  0  0  0  0  0
   26.3777  -22.8350  -13.9105 O   0  0  0  0  0  0  0  0  0  0  0  0
   26.1241  -20.6212  -13.3585 N   0  0  0  0  0  0  0  0  0  0  0  0
   25.4114  -20.8411  -12.1176 C   0  0  1  0  0  0  0  0  0  0  0  0
   26.0109  -20.0053  -11.0413 C   0  0  0  0  0  0  0  0  0  0  0  0
   27.2042  -20.5905  -10.4280 C   0  0  0  0  0  0  0  0  0  0  0  0
   28.1872  -21.3266  -11.0504 C   0  0  0  0  0  0  0  0  0  0  0  0
   29.1073  -21.6763  -10.1251 N   0  0  0  0  0  0  0  0  0  0  0  0
   28.7605  -21.1956   -8.9235 C   0  0  0  0  0  0  0  0  0  0  0  0
   29.3781  -21.2939   -7.6959 C   0  0  0  0  0  0  0  0  0  0  0  0
   28.7544  -20.6741   -6.6217 C   0  0  0  0  0  0  0  0  0  0  0  0
   27.5534  -19.9856   -6.7987 C   0  0  0  0  0  0  0  0  0  0  0  0
   26.9507  -19.8977   -8.0327 C   0  0  0  0  0  0  0  0  0  0  0  0
   27.5626  -20.5098   -9.1039 C   0  0  0  0  0  0  0  0  0  0  0  0
   23.9689  -20.5549  -12.3302 C   0  0  0  0  0  0  0  0  0  0  0  0
   23.5009  -19.6087  -12.9966 O   0  0  0  0  0  0  0  0  0  0  0  0
   23.0299  -21.4496  -11.7120 N   0  0  0  0  0  0  0  0  0  0  0  0
   21.6245  -21.1459  -11.8172 C   0  0  0  0  0  0  0  0  0  0  0  0
   21.1110  -21.6593  -13.0905 C   0  0  0  0  0  0  0  0  0  0  0  0
   21.8783  -22.1780  -13.9448 O   0  0  0  0  0  0  0  0  0  0  0  0
   19.7681  -21.5832  -13.3784 O   0  0  0  0  0  0  0  0  0  0  0  0
  1  2  1  0
  2  4  1  0
  3  2  2  0
  4  5  1  0
  5  6  1  0
  6  8  1  0
  6  7  1  1
  8  9  2  0
 10  8  1  0
 11 10  1  0
 11 12  1  1
 13 12  1  0
 13 21  1  0
 14 15  1  0
 14 13  2  0
 15 16  1  0
 16 21  2  0
 16 17  1  0
 17 18  2  0
 18 19  1  0
 20 19  2  0
 21 20  1  0
 22 11  1  0
 23 22  2  0
 24 22  1  0
 25 24  1  0
 25 26  1  0
 26 28  1  0
 27 26  2  0
M  END
$$$$
