QWG.pdb
     RDKit          3D

 28 29  0  0  1  0  0  0  0  0999 V2000
   17.5572  -29.5611  -12.2775 N   0  0  0  0  0  0  0  0  0  0  0  0
   18.3124  -30.4485  -13.1109 C   0  0  0  0  0  0  0  0  0  0  0  0
   17.7433  -31.4046  -13.6921 O   0  0  0  0  0  0  0  0  0  0  0  0
   19.7464  -30.1697  -13.2359 C   0  0  0  0  0  0  0  0  0  0  0  0
   20.1332  -28.9498  -12.4981 C   0  0  0  0  0  0  0  0  0  0  0  0
   20.3332  -27.6962  -13.2589 C   0  0  2  0  0  0  0  0  0  0  0  0
   21.3490  -27.6506  -14.2350 N   0  0  0  0  0  0  0  0  0  0  0  0
   20.3174  -26.5264  -12.3088 C   0  0  0  0  0  0  0  0  0  0  0  0
   21.4501  -26.1869  -11.8893 O   0  0  0  0  0  0  0  0  0  0  0  0
   19.1809  -25.8388  -11.8889 N   0  0  0  0  0  0  0  0  0  0  0  0
   19.1873  -24.7138  -10.9777 C   0  0  1  0  0  0  0  0  0  0  0  0
   18.5222  -23.5465  -11.6191 C   0  0  0  0  0  0  0  0  0  0  0  0
   19.4524  -22.5467  -12.1461 C   0  0  0  0  0  0  0  0  0  0  0  0
   20.3795  -22.7160  -13.1498 C   0  0  0  0  0  0  0  0  0  0  0  0
   21.0326  -21.5469  -13.3275 N   0  0  0  0  0  0  0  0  0  0  0  0
   20.5657  -20.6225  -12.4773 C   0  0  0  0  0  0  0  0  0  0  0  0
   20.9179  -19.3038  -12.2903 C   0  0  0  0  0  0  0  0  0  0  0  0
   20.2331  -18.5983  -11.3103 C   0  0  0  0  0  0  0  0  0  0  0  0
   19.2338  -19.2169  -10.5575 C   0  0  0  0  0  0  0  0  0  0  0  0
   18.8952  -20.5355  -10.7583 C   0  0  0  0  0  0  0  0  0  0  0  0
   19.5696  -21.2429  -11.7285 C   0  0  0  0  0  0  0  0  0  0  0  0
   18.5355  -25.1177   -9.7049 C   0  0  0  0  0  0  0  0  0  0  0  0
   17.5397  -25.8628   -9.5968 O   0  0  0  0  0  0  0  0  0  0  0  0
   19.1047  -24.6030   -8.4903 N   0  0  0  0  0  0  0  0  0  0  0  0
   18.5653  -25.0610   -7.2342 C   0  0  0  0  0  0  0  0  0  0  0  0
   17.2524  -24.4465   -7.0167 C   0  0  0  0  0  0  0  0  0  0  0  0
   16.7242  -23.7047   -7.8875 O   0  0  0  0  0  0  0  0  0  0  0  0
   16.5665  -24.6711   -5.8458 O   0  0  0  0  0  0  0  0  0  0  0  0
  1  2  1  0
  2  4  1  0
  3  2  2  0
  4  5  1  0
  5  6  1  0
  6  8  1  0
  6  7  1  1
  8  9  2  0
 10  8  1  0
 11 10  1  0
 11 12  1  6
 13 12  1  0
 13 21  1  0
 14 15  1  0
 14 13  2  0
 15 16  1  0
 16 21  2  0
 16 17  1  0
 17 18  2  0
 18 19  1  0
 20 19  2  0
 21 20  1  0
 22 11  1  0
 23 22  2  0
 24 22  1  0
 25 24  1  0
 25 26  1  0
 26 28  1  0
 27 26  2  0
M  END
$$$$
