QWG.pdb
     RDKit          3D

 28 29  0  0  1  0  0  0  0  0999 V2000
   29.2524  -25.2478  -18.0634 N   0  0  0  0  0  0  0  0  0  0  0  0
   29.2406  -23.8475  -18.3655 C   0  0  0  0  0  0  0  0  0  0  0  0
   28.7320  -23.4382  -19.4377 O   0  0  0  0  0  0  0  0  0  0  0  0
   29.8405  -22.9561  -17.3678 C   0  0  0  0  0  0  0  0  0  0  0  0
   28.9979  -22.8404  -16.1601 C   0  0  0  0  0  0  0  0  0  0  0  0
   27.8353  -21.9251  -16.1934 C   0  0  2  0  0  0  0  0  0  0  0  0
   28.0292  -20.5989  -16.6297 N   0  0  0  0  0  0  0  0  0  0  0  0
   27.0552  -22.0604  -14.9110 C   0  0  0  0  0  0  0  0  0  0  0  0
   26.9250  -23.2415  -14.5083 O   0  0  0  0  0  0  0  0  0  0  0  0
   26.4978  -21.0090  -14.1868 N   0  0  0  0  0  0  0  0  0  0  0  0
   25.7007  -21.1643  -12.9883 C   0  0  1  0  0  0  0  0  0  0  0  0
   26.1224  -20.1603  -11.9732 C   0  0  0  0  0  0  0  0  0  0  0  0
   27.3084  -20.5490  -11.2083 C   0  0  0  0  0  0  0  0  0  0  0  0
   28.5190  -20.9769  -11.7052 C   0  0  0  0  0  0  0  0  0  0  0  0
   29.3398  -21.2338  -10.6633 N   0  0  0  0  0  0  0  0  0  0  0  0
   28.7093  -20.9893   -9.5067 C   0  0  0  0  0  0  0  0  0  0  0  0
   29.1346  -21.1040   -8.2013 C   0  0  0  0  0  0  0  0  0  0  0  0
   28.2258  -20.7679   -7.2073 C   0  0  0  0  0  0  0  0  0  0  0  0
   26.9408  -20.3344   -7.5371 C   0  0  0  0  0  0  0  0  0  0  0  0
   26.5332  -20.2258   -8.8469 C   0  0  0  0  0  0  0  0  0  0  0  0
   27.4284  -20.5573   -9.8395 C   0  0  0  0  0  0  0  0  0  0  0  0
   24.2627  -21.0506  -13.3449 C   0  0  0  0  0  0  0  0  0  0  0  0
   23.7791  -20.2786  -14.1984 O   0  0  0  0  0  0  0  0  0  0  0  0
   23.3483  -21.9079  -12.6425 N   0  0  0  0  0  0  0  0  0  0  0  0
   21.9701  -21.9306  -13.0652 C   0  0  0  0  0  0  0  0  0  0  0  0
   21.1980  -20.9848  -12.2541 C   0  0  0  0  0  0  0  0  0  0  0  0
   21.7624  -20.2122  -11.4342 O   0  0  0  0  0  0  0  0  0  0  0  0
   19.8292  -20.9232  -12.3747 O   0  0  0  0  0  0  0  0  0  0  0  0
  1  2  1  0
  2  4  1  0
  3  2  2  0
  4  5  1  0
  5  6  1  0
  6  8  1  0
  6  7  1  1
  8  9  2  0
 10  8  1  0
 11 10  1  0
 11 12  1  1
 13 12  1  0
 13 21  1  0
 14 15  1  0
 14 13  2  0
 15 16  1  0
 16 21  2  0
 16 17  1  0
 17 18  2  0
 18 19  1  0
 20 19  2  0
 21 20  1  0
 22 11  1  0
 23 22  2  0
 24 22  1  0
 25 24  1  0
 25 26  1  0
 26 28  1  0
 27 26  2  0
M  END
$$$$
