TNY.pdb
     RDKit          3D

 28 28  0  0  1  0  0  0  0  0999 V2000
   18.1335   -9.8084  -17.4358 C   0  0  0  0  0  0  0  0  0  0  0  0
   17.1145   -9.7795  -16.3167 C   0  0  1  0  0  0  0  0  0  0  0  0
   16.3688  -10.9533  -16.4183 O   0  0  0  0  0  0  0  0  0  0  0  0
   17.8056   -9.6989  -14.9748 C   0  0  2  0  0  0  0  0  0  0  0  0
   16.8975  -10.1216  -13.9559 N   0  0  0  0  0  0  0  0  0  0  0  0
   18.4075   -8.3854  -14.7203 C   0  0  0  0  0  0  0  0  0  0  0  0
   17.6764   -7.3647  -14.7584 O   0  0  0  0  0  0  0  0  0  0  0  0
   21.7558   -4.5487  -12.5357 N   0  0  0  0  0  0  0  0  0  0  0  0
   22.2532   -5.4835  -13.4654 C   0  0  0  0  0  0  0  0  0  0  0  0
   23.1940   -5.1664  -14.2141 O   0  0  0  0  0  0  0  0  0  0  0  0
   21.6523   -6.8257  -13.5393 C   0  0  0  0  0  0  0  0  0  0  0  0
   20.4062   -6.8939  -14.3544 C   0  0  2  0  0  0  0  0  0  0  0  0
   19.7826   -8.1647  -14.4268 N   0  0  0  0  0  0  0  0  0  0  0  0
   20.6924   -6.2869  -15.6882 C   0  0  0  0  0  0  0  0  0  0  0  0
   21.3174   -7.0001  -16.5144 O   0  0  0  0  0  0  0  0  0  0  0  0
   18.2772   -9.3669  -20.6785 O   0  0  0  0  0  0  0  0  0  0  0  0
   18.5575   -8.1359  -20.0778 C   0  0  0  0  0  0  0  0  0  0  0  0
   19.5816   -7.3534  -20.5757 C   0  0  0  0  0  0  0  0  0  0  0  0
   19.8424   -6.1504  -19.9749 C   0  0  0  0  0  0  0  0  0  0  0  0
   19.1446   -5.6545  -18.8892 C   0  0  0  0  0  0  0  0  0  0  0  0
   19.4266   -4.3683  -18.2342 C   0  0  0  0  0  0  0  0  0  0  0  0
   20.6410   -4.4683  -17.3799 C   0  0  2  0  0  0  0  0  0  0  0  0
   20.3007   -4.9868  -16.0433 N   0  0  0  0  0  0  0  0  0  0  0  0
   21.2873   -3.1632  -17.1801 C   0  0  0  0  0  0  0  0  0  0  0  0
   21.4067   -2.6664  -16.0342 O   0  0  0  0  0  0  0  0  0  0  0  0
   18.1189   -6.4774  -18.4192 C   0  0  0  0  0  0  0  0  0  0  0  0
   17.8351   -7.6915  -19.0044 C   0  0  0  0  0  0  0  0  0  0  0  0
   21.7916   -2.4332  -18.2736 O   0  0  0  0  0  0  0  0  0  0  0  0
  2  1  1  6
  2  4  1  0
  3  2  1  0
  4  5  1  1
  4  6  1  0
  6  7  2  0
  9  8  1  0
 10  9  2  0
 12 11  1  6
 11  9  1  0
 13  6  1  0
 13 12  1  0
 14 12  1  0
 14 15  2  0
 16 17  1  0
 17 27  2  0
 17 18  1  0
 18 19  2  0
 19 20  1  0
 20 21  1  0
 22 21  1  6
 22 23  1  0
 23 14  1  0
 24 22  1  0
 25 24  2  0
 26 20  2  0
 27 26  1  0
 28 24  1  0
M  END
$$$$
