TNY.pdb
     RDKit          3D

 28 28  0  0  1  0  0  0  0  0999 V2000
   25.7779  -21.1061  -16.7185 C   0  0  0  0  0  0  0  0  0  0  0  0
   25.8928  -22.6043  -16.9030 C   0  0  1  0  0  0  0  0  0  0  0  0
   26.6434  -22.8128  -18.0595 O   0  0  0  0  0  0  0  0  0  0  0  0
   26.5679  -23.2338  -15.7060 C   0  0  2  0  0  0  0  0  0  0  0  0
   26.6962  -24.6394  -15.9281 N   0  0  0  0  0  0  0  0  0  0  0  0
   25.9137  -22.8946  -14.4374 C   0  0  0  0  0  0  0  0  0  0  0  0
   25.0059  -23.6459  -14.0024 O   0  0  0  0  0  0  0  0  0  0  0  0
   24.5358  -21.0868   -9.8606 N   0  0  0  0  0  0  0  0  0  0  0  0
   25.8863  -20.7237  -10.0331 C   0  0  0  0  0  0  0  0  0  0  0  0
   26.5292  -20.2685   -9.0710 O   0  0  0  0  0  0  0  0  0  0  0  0
   26.5207  -20.8878  -11.3517 C   0  0  0  0  0  0  0  0  0  0  0  0
   25.6169  -21.4396  -12.4008 C   0  0  2  0  0  0  0  0  0  0  0  0
   26.2283  -21.7592  -13.6390 N   0  0  0  0  0  0  0  0  0  0  0  0
   24.4430  -20.5256  -12.5271 C   0  0  0  0  0  0  0  0  0  0  0  0
   23.7229  -20.3818  -11.5060 O   0  0  0  0  0  0  0  0  0  0  0  0
   17.3241  -19.5923  -17.5547 O   0  0  0  0  0  0  0  0  0  0  0  0
   18.6371  -19.6948  -17.0855 C   0  0  0  0  0  0  0  0  0  0  0  0
   19.3094  -18.5542  -16.6904 C   0  0  0  0  0  0  0  0  0  0  0  0
   20.5951  -18.6732  -16.2334 C   0  0  0  0  0  0  0  0  0  0  0  0
   21.2801  -19.8704  -16.1375 C   0  0  0  0  0  0  0  0  0  0  0  0
   22.6637  -20.0027  -15.6569 C   0  0  0  0  0  0  0  0  0  0  0  0
   22.7269  -19.8240  -14.1808 C   0  0  2  0  0  0  0  0  0  0  0  0
   24.1230  -19.8411  -13.7098 N   0  0  0  0  0  0  0  0  0  0  0  0
   22.0204  -20.8940  -13.4620 C   0  0  0  0  0  0  0  0  0  0  0  0
   22.3361  -22.0984  -13.6166 O   0  0  0  0  0  0  0  0  0  0  0  0
   20.5631  -20.9966  -16.5469 C   0  0  0  0  0  0  0  0  0  0  0  0
   19.2692  -20.9057  -17.0104 C   0  0  0  0  0  0  0  0  0  0  0  0
   20.9663  -20.5946  -12.5774 O   0  0  0  0  0  0  0  0  0  0  0  0
  2  1  1  1
  2  4  1  0
  3  2  1  0
  4  5  1  6
  4  6  1  0
  6  7  2  0
  9  8  1  0
 10  9  2  0
 12 11  1  1
 11  9  1  0
 13  6  1  0
 13 12  1  0
 14 12  1  0
 14 15  2  0
 16 17  1  0
 17 27  2  0
 17 18  1  0
 18 19  2  0
 19 20  1  0
 20 21  1  0
 22 21  1  6
 22 23  1  0
 23 14  1  0
 24 22  1  0
 25 24  2  0
 26 20  2  0
 27 26  1  0
 28 24  1  0
M  END
$$$$
