TNY.pdb
     RDKit          3D

 28 28  0  0  1  0  0  0  0  0999 V2000
   27.0965  -17.9237  -16.3121 C   0  0  0  0  0  0  0  0  0  0  0  0
   27.5797  -19.0731  -17.1706 C   0  0  1  0  0  0  0  0  0  0  0  0
   28.5056  -18.5449  -18.0695 O   0  0  0  0  0  0  0  0  0  0  0  0
   28.2166  -20.1421  -16.3125 C   0  0  2  0  0  0  0  0  0  0  0  0
   28.7180  -21.1806  -17.1562 N   0  0  0  0  0  0  0  0  0  0  0  0
   27.3293  -20.6240  -15.2481 C   0  0  0  0  0  0  0  0  0  0  0  0
   26.4515  -21.4774  -15.5292 O   0  0  0  0  0  0  0  0  0  0  0  0
   24.7803  -21.4763  -10.8597 N   0  0  0  0  0  0  0  0  0  0  0  0
   25.8974  -20.7109  -10.4699 C   0  0  0  0  0  0  0  0  0  0  0  0
   26.1173  -20.5136   -9.2621 O   0  0  0  0  0  0  0  0  0  0  0  0
   26.7916  -20.1537  -11.4984 C   0  0  0  0  0  0  0  0  0  0  0  0
   26.4345  -20.5389  -12.8933 C   0  0  2  0  0  0  0  0  0  0  0  0
   27.3803  -20.1960  -13.8917 N   0  0  0  0  0  0  0  0  0  0  0  0
   25.0558  -20.0382  -13.1727 C   0  0  0  0  0  0  0  0  0  0  0  0
   24.8853  -18.7927  -13.1339 O   0  0  0  0  0  0  0  0  0  0  0  0
   20.3638  -15.3091  -17.0292 O   0  0  0  0  0  0  0  0  0  0  0  0
   20.8980  -16.5328  -16.6146 C   0  0  0  0  0  0  0  0  0  0  0  0
   20.1741  -17.6930  -16.8120 C   0  0  0  0  0  0  0  0  0  0  0  0
   20.7128  -18.8829  -16.3995 C   0  0  0  0  0  0  0  0  0  0  0  0
   21.9474  -19.0094  -15.7902 C   0  0  0  0  0  0  0  0  0  0  0  0
   22.5263  -20.2830  -15.3367 C   0  0  0  0  0  0  0  0  0  0  0  0
   22.6811  -20.2929  -13.8566 C   0  0  2  0  0  0  0  0  0  0  0  0
   23.9745  -20.8826  -13.4684 N   0  0  0  0  0  0  0  0  0  0  0  0
   21.6345  -21.0851  -13.1949 C   0  0  0  0  0  0  0  0  0  0  0  0
   20.4310  -20.7320  -13.2332 O   0  0  0  0  0  0  0  0  0  0  0  0
   22.6441  -17.8125  -15.6108 C   0  0  0  0  0  0  0  0  0  0  0  0
   22.1262  -16.6023  -16.0161 C   0  0  0  0  0  0  0  0  0  0  0  0
   21.9557  -22.2658  -12.4980 O   0  0  0  0  0  0  0  0  0  0  0  0
  2  1  1  1
  2  4  1  0
  3  2  1  0
  4  5  1  6
  4  6  1  0
  6  7  2  0
  9  8  1  0
 10  9  2  0
 12 11  1  1
 11  9  1  0
 13  6  1  0
 13 12  1  0
 14 12  1  0
 14 15  2  0
 16 17  1  0
 17 27  2  0
 17 18  1  0
 18 19  2  0
 19 20  1  0
 20 21  1  0
 22 21  1  6
 22 23  1  0
 23 14  1  0
 24 22  1  0
 25 24  2  0
 26 20  2  0
 27 26  1  0
 28 24  1  0
M  END
$$$$
