TNY.pdb
     RDKit          3D

 28 28  0  0  1  0  0  0  0  0999 V2000
    9.9467  -13.9339    3.2212 C   0  0  0  0  0  0  0  0  0  0  0  0
   10.1911  -12.5430    2.6758 C   0  0  1  0  0  0  0  0  0  0  0  0
    8.9569  -11.8946    2.6539 O   0  0  0  0  0  0  0  0  0  0  0  0
   11.1720  -11.7971    3.5513 C   0  0  2  0  0  0  0  0  0  0  0  0
   11.2970  -10.4560    3.0745 N   0  0  0  0  0  0  0  0  0  0  0  0
   12.4550  -12.4942    3.6939 C   0  0  0  0  0  0  0  0  0  0  0  0
   13.5117  -11.8913    3.3814 O   0  0  0  0  0  0  0  0  0  0  0  0
   16.4063  -15.5357    6.1329 N   0  0  0  0  0  0  0  0  0  0  0  0
   16.1625  -14.4820    5.2297 C   0  0  0  0  0  0  0  0  0  0  0  0
   17.0647  -14.1107    4.4588 O   0  0  0  0  0  0  0  0  0  0  0  0
   14.8411  -13.8326    5.2096 C   0  0  0  0  0  0  0  0  0  0  0  0
   13.8450  -14.5001    4.3244 C   0  0  2  0  0  0  0  0  0  0  0  0
   12.6071  -13.8276    4.1677 N   0  0  0  0  0  0  0  0  0  0  0  0
   13.7073  -15.9185    4.7702 C   0  0  0  0  0  0  0  0  0  0  0  0
   12.9895  -16.1287    5.7813 O   0  0  0  0  0  0  0  0  0  0  0  0
   18.5813  -21.3428    1.2104 O   0  0  0  0  0  0  0  0  0  0  0  0
   17.4008  -20.8291    1.7555 C   0  0  0  0  0  0  0  0  0  0  0  0
   16.8466  -21.4320    2.8684 C   0  0  0  0  0  0  0  0  0  0  0  0
   15.6898  -20.9155    3.3892 C   0  0  0  0  0  0  0  0  0  0  0  0
   15.0258  -19.8176    2.8740 C   0  0  0  0  0  0  0  0  0  0  0  0
   13.7785  -19.2648    3.4232 C   0  0  0  0  0  0  0  0  0  0  0  0
   14.0635  -18.3695    4.5774 C   0  0  2  0  0  0  0  0  0  0  0  0
   14.3319  -16.9945    4.1208 N   0  0  0  0  0  0  0  0  0  0  0  0
   15.2431  -18.8049    5.3387 C   0  0  0  0  0  0  0  0  0  0  0  0
   16.3224  -18.1672    5.2849 O   0  0  0  0  0  0  0  0  0  0  0  0
   15.6207  -19.2400    1.7504 C   0  0  0  0  0  0  0  0  0  0  0  0
   16.7836  -19.7388    1.2063 C   0  0  0  0  0  0  0  0  0  0  0  0
   15.1931  -19.9535    6.1519 O   0  0  0  0  0  0  0  0  0  0  0  0
  2  1  1  1
  2  4  1  0
  3  2  1  0
  4  5  1  6
  4  6  1  0
  6  7  2  0
  9  8  1  0
 10  9  2  0
 12 11  1  1
 11  9  1  0
 13  6  1  0
 13 12  1  0
 14 12  1  0
 14 15  2  0
 16 17  1  0
 17 27  2  0
 17 18  1  0
 18 19  2  0
 19 20  1  0
 20 21  1  0
 22 21  1  6
 22 23  1  0
 23 14  1  0
 24 22  1  0
 25 24  2  0
 26 20  2  0
 27 26  1  0
 28 24  1  0
M  END
$$$$
