TNY.pdb
     RDKit          3D

 28 28  0  0  1  0  0  0  0  0999 V2000
   18.4267  -14.0560  -15.9094 C   0  0  0  0  0  0  0  0  0  0  0  0
   18.6584  -12.5899  -16.2068 C   0  0  1  0  0  0  0  0  0  0  0  0
   19.4319  -12.5296  -17.3654 O   0  0  0  0  0  0  0  0  0  0  0  0
   17.3406  -11.8765  -16.4053 C   0  0  2  0  0  0  0  0  0  0  0  0
   16.5969  -12.5451  -17.4258 N   0  0  0  0  0  0  0  0  0  0  0  0
   17.5000  -10.4369  -16.6390 C   0  0  0  0  0  0  0  0  0  0  0  0
   16.7553   -9.8718  -17.4780 O   0  0  0  0  0  0  0  0  0  0  0  0
   16.4108   -5.2031  -15.3146 N   0  0  0  0  0  0  0  0  0  0  0  0
   17.2760   -6.0247  -16.0643 C   0  0  0  0  0  0  0  0  0  0  0  0
   18.1024   -5.5067  -16.8355 O   0  0  0  0  0  0  0  0  0  0  0  0
   17.1910   -7.4881  -15.9251 C   0  0  0  0  0  0  0  0  0  0  0  0
   18.4964   -8.1930  -16.0687 C   0  0  2  0  0  0  0  0  0  0  0  0
   18.4497   -9.6068  -15.9797 N   0  0  0  0  0  0  0  0  0  0  0  0
   19.4685   -7.5623  -15.1271 C   0  0  0  0  0  0  0  0  0  0  0  0
   19.2612   -7.7329  -13.8985 O   0  0  0  0  0  0  0  0  0  0  0  0
   23.2209  -12.5471  -15.5999 O   0  0  0  0  0  0  0  0  0  0  0  0
   23.1559  -11.1565  -15.4713 C   0  0  0  0  0  0  0  0  0  0  0  0
   22.7956  -10.3884  -16.5618 C   0  0  0  0  0  0  0  0  0  0  0  0
   22.7371   -9.0276  -16.4178 C   0  0  0  0  0  0  0  0  0  0  0  0
   23.0171   -8.3559  -15.2421 C   0  0  0  0  0  0  0  0  0  0  0  0
   22.9653   -6.8947  -15.0845 C   0  0  0  0  0  0  0  0  0  0  0  0
   21.6309   -6.4667  -14.5835 C   0  0  2  0  0  0  0  0  0  0  0  0
   20.5733   -6.8076  -15.5512 N   0  0  0  0  0  0  0  0  0  0  0  0
   21.5597   -5.0146  -14.3666 C   0  0  0  0  0  0  0  0  0  0  0  0
   22.2943   -4.4474  -13.5222 O   0  0  0  0  0  0  0  0  0  0  0  0
   23.3763   -9.1708  -14.1665 C   0  0  0  0  0  0  0  0  0  0  0  0
   23.4430  -10.5415  -14.2834 C   0  0  0  0  0  0  0  0  0  0  0  0
   20.6619   -4.2184  -15.1035 O   0  0  0  0  0  0  0  0  0  0  0  0
  2  1  1  6
  2  4  1  0
  3  2  1  0
  4  5  1  6
  4  6  1  0
  6  7  2  0
  9  8  1  0
 10  9  2  0
 12 11  1  1
 11  9  1  0
 13  6  1  0
 13 12  1  0
 14 12  1  0
 14 15  2  0
 16 17  1  0
 17 27  2  0
 17 18  1  0
 18 19  2  0
 19 20  1  0
 20 21  1  0
 22 21  1  6
 22 23  1  0
 23 14  1  0
 24 22  1  0
 25 24  2  0
 26 20  2  0
 27 26  1  0
 28 24  1  0
M  END
$$$$
