TNY.pdb
     RDKit          3D

 28 28  0  0  1  0  0  0  0  0999 V2000
   26.4605   -5.5343  -24.6593 C   0  0  0  0  0  0  0  0  0  0  0  0
   25.1824   -5.5303  -23.8480 C   0  0  1  0  0  0  0  0  0  0  0  0
   24.3355   -6.4770  -24.4230 O   0  0  0  0  0  0  0  0  0  0  0  0
   25.4714   -5.8768  -22.4053 C   0  0  2  0  0  0  0  0  0  0  0  0
   25.0662   -7.2246  -22.1587 N   0  0  0  0  0  0  0  0  0  0  0  0
   24.9041   -4.9083  -21.4606 C   0  0  0  0  0  0  0  0  0  0  0  0
   25.2435   -3.7022  -21.5501 O   0  0  0  0  0  0  0  0  0  0  0  0
   21.9891   -0.8219  -19.7597 N   0  0  0  0  0  0  0  0  0  0  0  0
   22.0660   -2.1659  -19.3435 C   0  0  0  0  0  0  0  0  0  0  0  0
   21.6677   -2.4829  -18.2090 O   0  0  0  0  0  0  0  0  0  0  0  0
   22.6177   -3.1797  -20.2577 C   0  0  0  0  0  0  0  0  0  0  0  0
   23.3512   -4.2838  -19.5760 C   0  0  2  0  0  0  0  0  0  0  0  0
   23.9796   -5.2275  -20.4266 N   0  0  0  0  0  0  0  0  0  0  0  0
   22.4332   -4.8970  -18.5706 C   0  0  0  0  0  0  0  0  0  0  0  0
   21.3836   -5.4314  -19.0116 O   0  0  0  0  0  0  0  0  0  0  0  0
   18.6291   -9.3123  -12.1873 O   0  0  0  0  0  0  0  0  0  0  0  0
   19.5341   -8.6904  -13.0525 C   0  0  0  0  0  0  0  0  0  0  0  0
   19.5293   -9.0205  -14.3942 C   0  0  0  0  0  0  0  0  0  0  0  0
   20.4229   -8.4014  -15.2274 C   0  0  0  0  0  0  0  0  0  0  0  0
   21.3441   -7.4555  -14.8171 C   0  0  0  0  0  0  0  0  0  0  0  0
   22.3122   -6.7949  -15.7055 C   0  0  0  0  0  0  0  0  0  0  0  0
   21.7356   -5.5474  -16.2767 C   0  0  2  0  0  0  0  0  0  0  0  0
   22.6917   -4.8986  -17.1911 N   0  0  0  0  0  0  0  0  0  0  0  0
   21.4038   -4.5631  -15.2366 C   0  0  0  0  0  0  0  0  0  0  0  0
   22.2373   -3.6998  -14.8700 O   0  0  0  0  0  0  0  0  0  0  0  0
   21.3137   -7.1523  -13.4543 C   0  0  0  0  0  0  0  0  0  0  0  0
   20.4258   -7.7596  -12.5942 C   0  0  0  0  0  0  0  0  0  0  0  0
   20.1370   -4.5628  -14.6216 O   0  0  0  0  0  0  0  0  0  0  0  0
  2  1  1  6
  2  4  1  0
  3  2  1  0
  4  5  1  1
  4  6  1  0
  6  7  2  0
  9  8  1  0
 10  9  2  0
 12 11  1  6
 11  9  1  0
 13  6  1  0
 13 12  1  0
 14 12  1  0
 14 15  2  0
 16 17  1  0
 17 27  2  0
 17 18  1  0
 18 19  2  0
 19 20  1  0
 20 21  1  0
 22 21  1  1
 22 23  1  0
 23 14  1  0
 24 22  1  0
 25 24  2  0
 26 20  2  0
 27 26  1  0
 28 24  1  0
M  END
$$$$
