TNY.pdb
     RDKit          3D

 28 28  0  0  1  0  0  0  0  0999 V2000
   26.2616  -14.4354  -17.9511 C   0  0  0  0  0  0  0  0  0  0  0  0
   24.9119  -13.7696  -18.1146 C   0  0  1  0  0  0  0  0  0  0  0  0
   23.9547  -14.7830  -18.0830 O   0  0  0  0  0  0  0  0  0  0  0  0
   24.6752  -12.7749  -17.0013 C   0  0  2  0  0  0  0  0  0  0  0  0
   24.8782  -13.4237  -15.7446 N   0  0  0  0  0  0  0  0  0  0  0  0
   23.3809  -12.0928  -17.1104 C   0  0  0  0  0  0  0  0  0  0  0  0
   23.1937  -11.2941  -18.0616 O   0  0  0  0  0  0  0  0  0  0  0  0
   20.0161  -13.6763  -17.7142 N   0  0  0  0  0  0  0  0  0  0  0  0
   19.3782  -13.3578  -16.4988 C   0  0  0  0  0  0  0  0  0  0  0  0
   18.3937  -14.0207  -16.1279 O   0  0  0  0  0  0  0  0  0  0  0  0
   19.8856  -12.2428  -15.6817 C   0  0  0  0  0  0  0  0  0  0  0  0
   21.0706  -11.5493  -16.2617 C   0  0  2  0  0  0  0  0  0  0  0  0
   22.2937  -12.2636  -16.2080 N   0  0  0  0  0  0  0  0  0  0  0  0
   21.1447  -10.1828  -15.6645 C   0  0  0  0  0  0  0  0  0  0  0  0
   21.2630  -10.1152  -14.4142 O   0  0  0  0  0  0  0  0  0  0  0  0
   22.2668   -1.6648  -14.1311 O   0  0  0  0  0  0  0  0  0  0  0  0
   22.3183   -2.9970  -14.5517 C   0  0  0  0  0  0  0  0  0  0  0  0
   22.3301   -3.2838  -15.9032 C   0  0  0  0  0  0  0  0  0  0  0  0
   22.3807   -4.5946  -16.2974 C   0  0  0  0  0  0  0  0  0  0  0  0
   22.4212   -5.6686  -15.4276 C   0  0  0  0  0  0  0  0  0  0  0  0
   22.4659   -7.0780  -15.8452 C   0  0  0  0  0  0  0  0  0  0  0  0
   21.1177   -7.6999  -15.7424 C   0  0  2  0  0  0  0  0  0  0  0  0
   21.0887   -9.0051  -16.4258 N   0  0  0  0  0  0  0  0  0  0  0  0
   20.0754   -6.8695  -16.3628 C   0  0  0  0  0  0  0  0  0  0  0  0
   19.4559   -6.0027  -15.7001 O   0  0  0  0  0  0  0  0  0  0  0  0
   22.4078   -5.3329  -14.0721 C   0  0  0  0  0  0  0  0  0  0  0  0
   22.3573   -4.0235  -13.6481 C   0  0  0  0  0  0  0  0  0  0  0  0
   19.7432   -7.0253  -17.7223 O   0  0  0  0  0  0  0  0  0  0  0  0
  2  1  1  1
  2  4  1  0
  3  2  1  0
  4  5  1  1
  4  6  1  0
  6  7  2  0
  9  8  1  0
 10  9  2  0
 12 11  1  1
 11  9  1  0
 13  6  1  0
 13 12  1  0
 14 12  1  0
 14 15  2  0
 16 17  1  0
 17 27  2  0
 17 18  1  0
 18 19  2  0
 19 20  1  0
 20 21  1  0
 22 21  1  6
 22 23  1  0
 23 14  1  0
 24 22  1  0
 25 24  2  0
 26 20  2  0
 27 26  1  0
 28 24  1  0
M  END
$$$$
