TNY.pdb
     RDKit          3D

 28 28  0  0  1  0  0  0  0  0999 V2000
   27.6723  -10.6484  -16.0190 C   0  0  0  0  0  0  0  0  0  0  0  0
   26.7373  -11.2598  -17.0405 C   0  0  1  0  0  0  0  0  0  0  0  0
   26.8654  -12.6438  -16.9287 O   0  0  0  0  0  0  0  0  0  0  0  0
   25.3122  -10.8311  -16.7756 C   0  0  2  0  0  0  0  0  0  0  0  0
   24.4257  -11.6788  -17.5085 N   0  0  0  0  0  0  0  0  0  0  0  0
   25.0923   -9.4005  -17.0149 C   0  0  0  0  0  0  0  0  0  0  0  0
   25.8286   -8.5669  -16.4311 O   0  0  0  0  0  0  0  0  0  0  0  0
   25.2996   -6.5753  -21.1881 N   0  0  0  0  0  0  0  0  0  0  0  0
   24.5338   -7.5387  -20.5018 C   0  0  0  0  0  0  0  0  0  0  0  0
   24.7047   -8.7466  -20.7427 O   0  0  0  0  0  0  0  0  0  0  0  0
   23.5396   -7.1032  -19.5069 C   0  0  0  0  0  0  0  0  0  0  0  0
   23.8707   -7.4836  -18.1043 C   0  0  2  0  0  0  0  0  0  0  0  0
   24.0912   -8.8645  -17.8729 N   0  0  0  0  0  0  0  0  0  0  0  0
   22.8422   -6.8793  -17.2062 C   0  0  0  0  0  0  0  0  0  0  0  0
   21.7318   -7.4660  -17.1391 O   0  0  0  0  0  0  0  0  0  0  0  0
   17.9896   -9.6868  -13.3498 O   0  0  0  0  0  0  0  0  0  0  0  0
   19.0495   -8.7982  -13.5539 C   0  0  0  0  0  0  0  0  0  0  0  0
   20.1482   -8.8461  -12.7176 C   0  0  0  0  0  0  0  0  0  0  0  0
   21.1774   -7.9680  -12.9321 C   0  0  0  0  0  0  0  0  0  0  0  0
   21.1969   -7.0221  -13.9404 C   0  0  0  0  0  0  0  0  0  0  0  0
   22.2946   -6.0706  -14.1692 C   0  0  0  0  0  0  0  0  0  0  0  0
   22.0805   -5.3148  -15.4332 C   0  0  2  0  0  0  0  0  0  0  0  0
   23.0633   -5.7140  -16.4559 N   0  0  0  0  0  0  0  0  0  0  0  0
   22.2265   -3.8644  -15.2434 C   0  0  0  0  0  0  0  0  0  0  0  0
   23.1563   -3.2277  -15.7951 O   0  0  0  0  0  0  0  0  0  0  0  0
   20.0673   -7.0092  -14.7613 C   0  0  0  0  0  0  0  0  0  0  0  0
   19.0184   -7.8807  -14.5682 C   0  0  0  0  0  0  0  0  0  0  0  0
   21.3233   -3.1483  -14.4344 O   0  0  0  0  0  0  0  0  0  0  0  0
  2  1  1  1
  2  4  1  0
  3  2  1  0
  4  5  1  6
  4  6  1  0
  6  7  2  0
  9  8  1  0
 10  9  2  0
 12 11  1  6
 11  9  1  0
 13  6  1  0
 13 12  1  0
 14 12  1  0
 14 15  2  0
 16 17  1  0
 17 27  2  0
 17 18  1  0
 18 19  2  0
 19 20  1  0
 20 21  1  0
 22 21  1  1
 22 23  1  0
 23 14  1  0
 24 22  1  0
 25 24  2  0
 26 20  2  0
 27 26  1  0
 28 24  1  0
M  END
$$$$
