TNY.pdb
     RDKit          3D

 28 28  0  0  1  0  0  0  0  0999 V2000
   20.8455  -11.9667  -20.3703 C   0  0  0  0  0  0  0  0  0  0  0  0
   20.1728  -11.9555  -19.0141 C   0  0  1  0  0  0  0  0  0  0  0  0
   19.8716  -13.2805  -18.7013 O   0  0  0  0  0  0  0  0  0  0  0  0
   21.0908  -11.3553  -17.9740 C   0  0  2  0  0  0  0  0  0  0  0  0
   21.1861  -12.2497  -16.8637 N   0  0  0  0  0  0  0  0  0  0  0  0
   20.7128   -9.9883  -17.5991 C   0  0  0  0  0  0  0  0  0  0  0  0
   20.9833   -9.0463  -18.3849 O   0  0  0  0  0  0  0  0  0  0  0  0
   17.0015   -6.0172  -16.0550 N   0  0  0  0  0  0  0  0  0  0  0  0
   17.7984   -6.8392  -15.2334 C   0  0  0  0  0  0  0  0  0  0  0  0
   18.1729   -6.4223  -14.1235 O   0  0  0  0  0  0  0  0  0  0  0  0
   18.1782   -8.1833  -15.6996 C   0  0  0  0  0  0  0  0  0  0  0  0
   19.6188   -8.3228  -16.0555 C   0  0  2  0  0  0  0  0  0  0  0  0
   20.0498   -9.6306  -16.3916 N   0  0  0  0  0  0  0  0  0  0  0  0
   20.4261   -7.6819  -14.9752 C   0  0  0  0  0  0  0  0  0  0  0  0
   20.8270   -8.4293  -14.0466 O   0  0  0  0  0  0  0  0  0  0  0  0
   25.3999   -4.4831  -18.9908 O   0  0  0  0  0  0  0  0  0  0  0  0
   24.8261   -4.9675  -17.8115 C   0  0  0  0  0  0  0  0  0  0  0  0
   24.6875   -6.3304  -17.6321 C   0  0  0  0  0  0  0  0  0  0  0  0
   24.1232   -6.7873  -16.4707 C   0  0  0  0  0  0  0  0  0  0  0  0
   23.6747   -5.9710  -15.4489 C   0  0  0  0  0  0  0  0  0  0  0  0
   23.0593   -6.4557  -14.2042 C   0  0  0  0  0  0  0  0  0  0  0  0
   21.7338   -5.8143  -13.9885 C   0  0  2  0  0  0  0  0  0  0  0  0
   20.7446   -6.3151  -14.9590 N   0  0  0  0  0  0  0  0  0  0  0  0
   21.7913   -4.3545  -14.1515 C   0  0  0  0  0  0  0  0  0  0  0  0
   21.1344   -3.7752  -15.0500 O   0  0  0  0  0  0  0  0  0  0  0  0
   23.8344   -4.6018  -15.6722 C   0  0  0  0  0  0  0  0  0  0  0  0
   24.3986   -4.1152  -16.8305 C   0  0  0  0  0  0  0  0  0  0  0  0
   22.5879   -3.5645  -13.3005 O   0  0  0  0  0  0  0  0  0  0  0  0
  2  1  1  6
  2  4  1  0
  3  2  1  0
  4  5  1  1
  4  6  1  0
  6  7  2  0
  9  8  1  0
 10  9  2  0
 12 11  1  1
 11  9  1  0
 13  6  1  0
 13 12  1  0
 14 12  1  0
 14 15  2  0
 16 17  1  0
 17 27  2  0
 17 18  1  0
 18 19  2  0
 19 20  1  0
 20 21  1  0
 22 21  1  6
 22 23  1  0
 23 14  1  0
 24 22  1  0
 25 24  2  0
 26 20  2  0
 27 26  1  0
 28 24  1  0
M  END
$$$$
