VFR.pdb
     RDKit          3D

 30 30  0  0  1  0  0  0  0  0999 V2000
   11.0029  -12.7322    6.4267 C   0  0  0  0  0  0  0  0  0  0  0  0
   10.1320  -11.9952    5.4510 C   0  0  1  0  0  0  0  0  0  0  0  0
    9.1473  -11.0614    6.0522 C   0  0  0  0  0  0  0  0  0  0  0  0
   11.0292  -11.3580    4.4172 C   0  0  2  0  0  0  0  0  0  0  0  0
   10.1253  -11.0150    3.2988 N   0  0  0  0  0  0  0  0  0  0  0  0
   12.0594  -12.2483    3.8726 C   0  0  0  0  0  0  0  0  0  0  0  0
   11.7658  -13.1474    3.0078 O   0  0  0  0  0  0  0  0  0  0  0  0
   13.4364  -12.2018    4.2375 N   0  0  0  0  0  0  0  0  0  0  0  0
   14.4123  -13.1544    3.7138 C   0  0  1  0  0  0  0  0  0  0  0  0
   15.6529  -12.4474    3.2334 C   0  0  0  0  0  0  0  0  0  0  0  0
   16.7024  -13.3551    2.7730 C   0  0  0  0  0  0  0  0  0  0  0  0
   17.8218  -13.5859    3.5339 C   0  0  0  0  0  0  0  0  0  0  0  0
   18.8096  -14.4567    3.0709 C   0  0  0  0  0  0  0  0  0  0  0  0
   18.6863  -15.0957    1.8574 C   0  0  0  0  0  0  0  0  0  0  0  0
   17.5740  -14.8767    1.0842 C   0  0  0  0  0  0  0  0  0  0  0  0
   16.6132  -14.0152    1.5591 C   0  0  0  0  0  0  0  0  0  0  0  0
   14.7153  -14.1816    4.6996 C   0  0  0  0  0  0  0  0  0  0  0  0
   14.9444  -13.9190    5.9314 O   0  0  0  0  0  0  0  0  0  0  0  0
   15.8627  -22.1381    5.0878 N   0  0  0  0  0  0  0  0  0  0  0  0
   14.8924  -22.2417    6.1373 C   0  0  0  0  0  0  0  0  0  0  0  0
   14.9374  -23.2290    6.9552 N   0  0  0  0  0  0  0  0  0  0  0  0
   13.8945  -21.2501    6.2552 N   0  0  0  0  0  0  0  0  0  0  0  0
   13.8066  -20.1918    5.2784 C   0  0  0  0  0  0  0  0  0  0  0  0
   14.5956  -19.0102    5.7874 C   0  0  0  0  0  0  0  0  0  0  0  0
   14.3924  -17.8425    4.8909 C   0  0  0  0  0  0  0  0  0  0  0  0
   15.0760  -16.5775    5.3813 C   0  0  2  0  0  0  0  0  0  0  0  0
   14.7729  -15.5649    4.3510 N   0  0  0  0  0  0  0  0  0  0  0  0
   16.5376  -16.7469    5.4164 C   0  0  0  0  0  0  0  0  0  0  0  0
   17.2632  -16.6104    4.4014 O   0  0  0  0  0  0  0  0  0  0  0  0
   17.1819  -17.0685    6.5944 O   0  0  0  0  0  0  0  0  0  0  0  0
  2  1  1  1
  3  2  1  0
  4  2  1  0
  4  5  1  6
  6  4  1  0
  7  6  2  0
  8  6  1  0
  9  8  1  0
 10 11  1  0
  9 10  1  1
 11 12  2  0
 12 13  1  0
 14 13  2  0
 15 14  1  0
 16 11  1  0
 16 15  2  0
 17  9  1  0
 17 27  1  0
 18 17  2  0
 19 20  1  0
 20 22  1  0
 21 20  2  0
 22 23  1  0
 23 24  1  0
 24 25  1  0
 26 25  1  6
 26 27  1  0
 26 28  1  0
 28 30  1  0
 29 28  2  0
M  END
$$$$
