VFR.pdb
     RDKit          3D

 30 30  0  0  1  0  0  0  0  0999 V2000
   25.3903  -25.8159  -16.1970 C   0  0  0  0  0  0  0  0  0  0  0  0
   26.7970  -25.6924  -16.7068 C   0  0  1  0  0  0  0  0  0  0  0  0
   27.3802  -26.9316  -17.2789 C   0  0  0  0  0  0  0  0  0  0  0  0
   26.8513  -24.5034  -17.6358 C   0  0  2  0  0  0  0  0  0  0  0  0
   28.2942  -24.2430  -17.8247 N   0  0  0  0  0  0  0  0  0  0  0  0
   26.2664  -23.2751  -17.0883 C   0  0  0  0  0  0  0  0  0  0  0  0
   26.8762  -22.5973  -16.1878 O   0  0  0  0  0  0  0  0  0  0  0  0
   25.0101  -22.7350  -17.4900 N   0  0  0  0  0  0  0  0  0  0  0  0
   24.4807  -21.4954  -16.9267 C   0  0  1  0  0  0  0  0  0  0  0  0
   23.5984  -20.7847  -17.9197 C   0  0  0  0  0  0  0  0  0  0  0  0
   22.9850  -19.5675  -17.3909 C   0  0  0  0  0  0  0  0  0  0  0  0
   23.6971  -18.3967  -17.3044 C   0  0  0  0  0  0  0  0  0  0  0  0
   23.0879  -17.2487  -16.7949 C   0  0  0  0  0  0  0  0  0  0  0  0
   21.7772  -17.2633  -16.3731 C   0  0  0  0  0  0  0  0  0  0  0  0
   21.0508  -18.4248  -16.4526 C   0  0  0  0  0  0  0  0  0  0  0  0
   21.6701  -19.5439  -16.9575 C   0  0  0  0  0  0  0  0  0  0  0  0
   23.7942  -21.7490  -15.6684 C   0  0  0  0  0  0  0  0  0  0  0  0
   22.9393  -22.6901  -15.5186 O   0  0  0  0  0  0  0  0  0  0  0  0
   27.1312  -20.3077   -8.0834 N   0  0  0  0  0  0  0  0  0  0  0  0
   27.2652  -21.0444   -9.3053 C   0  0  0  0  0  0  0  0  0  0  0  0
   28.4011  -21.5445   -9.6297 N   0  0  0  0  0  0  0  0  0  0  0  0
   26.1382  -21.2088  -10.1395 N   0  0  0  0  0  0  0  0  0  0  0  0
   24.8750  -20.6142   -9.7750 C   0  0  0  0  0  0  0  0  0  0  0  0
   23.8360  -21.0578  -10.7759 C   0  0  0  0  0  0  0  0  0  0  0  0
   24.3264  -20.8108  -12.1568 C   0  0  0  0  0  0  0  0  0  0  0  0
   23.3626  -21.2795  -13.2336 C   0  0  2  0  0  0  0  0  0  0  0  0
   24.0371  -20.9564  -14.5061 N   0  0  0  0  0  0  0  0  0  0  0  0
   22.1088  -20.5096  -13.1913 C   0  0  0  0  0  0  0  0  0  0  0  0
   21.9684  -19.4054  -13.7712 O   0  0  0  0  0  0  0  0  0  0  0  0
   21.0134  -20.9839  -12.4975 O   0  0  0  0  0  0  0  0  0  0  0  0
  2  1  1  6
  3  2  1  0
  4  2  1  0
  4  5  1  1
  6  4  1  0
  7  6  2  0
  8  6  1  0
  9  8  1  0
 10 11  1  0
  9 10  1  6
 11 12  2  0
 12 13  1  0
 14 13  2  0
 15 14  1  0
 16 11  1  0
 16 15  2  0
 17  9  1  0
 17 27  1  0
 18 17  2  0
 19 20  1  0
 20 22  1  0
 21 20  2  0
 22 23  1  0
 23 24  1  0
 24 25  1  0
 26 25  1  1
 26 27  1  0
 26 28  1  0
 28 30  1  0
 29 28  2  0
M  END
$$$$
