VFR.pdb
     RDKit          3D

 30 30  0  0  1  0  0  0  0  0999 V2000
   17.3004  -26.9803  -12.5490 C   0  0  0  0  0  0  0  0  0  0  0  0
   15.9892  -26.9353  -11.8193 C   0  0  1  0  0  0  0  0  0  0  0  0
   15.3314  -28.2486  -11.6059 C   0  0  0  0  0  0  0  0  0  0  0  0
   16.1897  -26.1371  -10.5534 C   0  0  2  0  0  0  0  0  0  0  0  0
   14.8218  -25.8640  -10.0637 N   0  0  0  0  0  0  0  0  0  0  0  0
   16.8380  -24.8364  -10.7494 C   0  0  0  0  0  0  0  0  0  0  0  0
   16.2925  -23.9283  -11.4706 O   0  0  0  0  0  0  0  0  0  0  0  0
   18.0907  -24.4686  -10.1777 N   0  0  0  0  0  0  0  0  0  0  0  0
   18.7381  -23.1939  -10.4777 C   0  0  1  0  0  0  0  0  0  0  0  0
   19.7558  -22.8439   -9.4234 C   0  0  0  0  0  0  0  0  0  0  0  0
   20.5348  -21.6471   -9.7368 C   0  0  0  0  0  0  0  0  0  0  0  0
   20.0347  -20.3926   -9.4888 C   0  0  0  0  0  0  0  0  0  0  0  0
   20.7988  -19.2661   -9.7982 C   0  0  0  0  0  0  0  0  0  0  0  0
   22.0541  -19.3848  -10.3515 C   0  0  0  0  0  0  0  0  0  0  0  0
   22.5694  -20.6310  -10.6058 C   0  0  0  0  0  0  0  0  0  0  0  0
   21.8002  -21.7271  -10.2935 C   0  0  0  0  0  0  0  0  0  0  0  0
   19.3168  -23.2075  -11.8133 C   0  0  0  0  0  0  0  0  0  0  0  0
   19.9399  -24.2181  -12.2922 O   0  0  0  0  0  0  0  0  0  0  0  0
   18.1431  -21.1050  -19.4842 N   0  0  0  0  0  0  0  0  0  0  0  0
   18.0030  -19.8549  -18.7977 C   0  0  0  0  0  0  0  0  0  0  0  0
   17.2952  -18.9175  -19.3135 N   0  0  0  0  0  0  0  0  0  0  0  0
   18.6511  -19.6723  -17.5570 N   0  0  0  0  0  0  0  0  0  0  0  0
   19.2949  -20.7872  -16.9055 C   0  0  0  0  0  0  0  0  0  0  0  0
   18.4828  -21.1586  -15.6888 C   0  0  0  0  0  0  0  0  0  0  0  0
   19.0693  -22.3581  -15.0364 C   0  0  0  0  0  0  0  0  0  0  0  0
   20.0374  -22.0237  -13.9143 C   0  0  2  0  0  0  0  0  0  0  0  0
   19.2210  -22.0817  -12.6860 N   0  0  0  0  0  0  0  0  0  0  0  0
   20.5410  -20.6468  -14.0445 C   0  0  0  0  0  0  0  0  0  0  0  0
   21.5328  -20.3491  -14.7536 O   0  0  0  0  0  0  0  0  0  0  0  0
   19.9269  -19.6055  -13.3774 O   0  0  0  0  0  0  0  0  0  0  0  0
  2  1  1  1
  3  2  1  0
  4  2  1  0
  4  5  1  6
  6  4  1  0
  7  6  2  0
  8  6  1  0
  9  8  1  0
 10 11  1  0
  9 10  1  1
 11 12  2  0
 12 13  1  0
 14 13  2  0
 15 14  1  0
 16 11  1  0
 16 15  2  0
 17  9  1  0
 17 27  1  0
 18 17  2  0
 19 20  1  0
 20 22  1  0
 21 20  2  0
 22 23  1  0
 23 24  1  0
 24 25  1  0
 26 25  1  6
 26 27  1  0
 26 28  1  0
 28 30  1  0
 29 28  2  0
M  END
$$$$
