VFR.pdb
     RDKit          3D

 30 30  0  0  1  0  0  0  0  0999 V2000
   29.4087  -19.3164  -15.3414 C   0  0  0  0  0  0  0  0  0  0  0  0
   29.3168  -19.9625  -13.9895 C   0  0  1  0  0  0  0  0  0  0  0  0
   30.4814  -19.7431  -13.0959 C   0  0  0  0  0  0  0  0  0  0  0  0
   27.9925  -19.5727  -13.3778 C   0  0  2  0  0  0  0  0  0  0  0  0
   28.0451  -18.0984  -13.2822 N   0  0  0  0  0  0  0  0  0  0  0  0
   27.7766  -20.0788  -12.0185 C   0  0  0  0  0  0  0  0  0  0  0  0
   27.3677  -21.2764  -11.8165 O   0  0  0  0  0  0  0  0  0  0  0  0
   27.9933  -19.3170  -10.8335 N   0  0  0  0  0  0  0  0  0  0  0  0
   27.6663  -19.8331   -9.5065 C   0  0  1  0  0  0  0  0  0  0  0  0
   28.4561  -19.1198   -8.4401 C   0  0  0  0  0  0  0  0  0  0  0  0
   28.1741  -19.5955   -7.0868 C   0  0  0  0  0  0  0  0  0  0  0  0
   28.9787  -20.5305   -6.4837 C   0  0  0  0  0  0  0  0  0  0  0  0
   28.6869  -20.9686   -5.1909 C   0  0  0  0  0  0  0  0  0  0  0  0
   27.6006  -20.4802   -4.4998 C   0  0  0  0  0  0  0  0  0  0  0  0
   26.7859  -19.5452   -5.0874 C   0  0  0  0  0  0  0  0  0  0  0  0
   27.0915  -19.1276   -6.3613 C   0  0  0  0  0  0  0  0  0  0  0  0
   26.2328  -19.7659   -9.2625 C   0  0  0  0  0  0  0  0  0  0  0  0
   25.5629  -18.6780   -9.3418 O   0  0  0  0  0  0  0  0  0  0  0  0
   21.3494  -25.6827  -11.8439 N   0  0  0  0  0  0  0  0  0  0  0  0
   20.5533  -24.5817  -12.2995 C   0  0  0  0  0  0  0  0  0  0  0  0
   19.3157  -24.7618  -12.5849 N   0  0  0  0  0  0  0  0  0  0  0  0
   21.1472  -23.3076  -12.4295 N   0  0  0  0  0  0  0  0  0  0  0  0
   22.5192  -23.1045  -12.0317 C   0  0  0  0  0  0  0  0  0  0  0  0
   22.5304  -22.2497  -10.7878 C   0  0  0  0  0  0  0  0  0  0  0  0
   23.9265  -21.8703  -10.4476 C   0  0  0  0  0  0  0  0  0  0  0  0
   24.0295  -20.9818   -9.2197 C   0  0  2  0  0  0  0  0  0  0  0  0
   25.4734  -20.9250   -8.9188 N   0  0  0  0  0  0  0  0  0  0  0  0
   23.3621  -21.6005   -8.0629 C   0  0  0  0  0  0  0  0  0  0  0  0
   23.9694  -22.3153   -7.2288 O   0  0  0  0  0  0  0  0  0  0  0  0
   22.0117  -21.4131   -7.8446 O   0  0  0  0  0  0  0  0  0  0  0  0
  2  1  1  6
  3  2  1  0
  4  2  1  0
  4  5  1  1
  6  4  1  0
  7  6  2  0
  8  6  1  0
  9  8  1  0
 10 11  1  0
  9 10  1  1
 11 12  2  0
 12 13  1  0
 14 13  2  0
 15 14  1  0
 16 11  1  0
 16 15  2  0
 17  9  1  0
 17 27  1  0
 18 17  2  0
 19 20  1  0
 20 22  1  0
 21 20  2  0
 22 23  1  0
 23 24  1  0
 24 25  1  0
 26 25  1  6
 26 27  1  0
 26 28  1  0
 28 30  1  0
 29 28  2  0
M  END
$$$$
