VFR.pdb
     RDKit          3D

 30 30  0  0  1  0  0  0  0  0999 V2000
   23.3268  -23.5677  -17.7340 C   0  0  0  0  0  0  0  0  0  0  0  0
   24.5687  -24.3687  -17.4701 C   0  0  1  0  0  0  0  0  0  0  0  0
   25.3976  -24.6739  -18.6629 C   0  0  0  0  0  0  0  0  0  0  0  0
   25.3274  -23.6941  -16.3524 C   0  0  2  0  0  0  0  0  0  0  0  0
   26.3547  -24.6786  -15.9513 N   0  0  0  0  0  0  0  0  0  0  0  0
   24.5258  -23.4066  -15.1586 C   0  0  0  0  0  0  0  0  0  0  0  0
   24.1081  -24.3512  -14.4000 O   0  0  0  0  0  0  0  0  0  0  0  0
   24.1479  -22.0975  -14.7405 N   0  0  0  0  0  0  0  0  0  0  0  0
   23.3874  -21.8615  -13.5157 C   0  0  1  0  0  0  0  0  0  0  0  0
   23.8379  -20.5946  -12.8361 C   0  0  0  0  0  0  0  0  0  0  0  0
   23.2010  -20.3680  -11.5398 C   0  0  0  0  0  0  0  0  0  0  0  0
   22.0103  -19.6906  -11.4455 C   0  0  0  0  0  0  0  0  0  0  0  0
   21.4237  -19.4870  -10.1954 C   0  0  0  0  0  0  0  0  0  0  0  0
   22.0168  -19.9539   -9.0438 C   0  0  0  0  0  0  0  0  0  0  0  0
   23.2068  -20.6329   -9.1197 C   0  0  0  0  0  0  0  0  0  0  0  0
   23.7674  -20.8225  -10.3608 C   0  0  0  0  0  0  0  0  0  0  0  0
   21.9570  -21.8585  -13.7856 C   0  0  0  0  0  0  0  0  0  0  0  0
   21.4401  -21.2664  -14.7961 O   0  0  0  0  0  0  0  0  0  0  0  0
   18.6302  -25.6012   -7.7616 N   0  0  0  0  0  0  0  0  0  0  0  0
   17.6645  -25.5499   -8.8192 C   0  0  0  0  0  0  0  0  0  0  0  0
   16.7213  -26.4181   -8.8673 N   0  0  0  0  0  0  0  0  0  0  0  0
   17.7670  -24.5389   -9.7992 N   0  0  0  0  0  0  0  0  0  0  0  0
   18.8371  -23.5732   -9.7337 C   0  0  0  0  0  0  0  0  0  0  0  0
   18.7072  -22.6410  -10.9136 C   0  0  0  0  0  0  0  0  0  0  0  0
   18.9516  -23.3861  -12.1760 C   0  0  0  0  0  0  0  0  0  0  0  0
   19.5910  -22.5398  -13.2636 C   0  0  2  0  0  0  0  0  0  0  0  0
   21.0291  -22.5278  -12.9316 N   0  0  0  0  0  0  0  0  0  0  0  0
   19.1123  -21.1494  -13.2004 C   0  0  0  0  0  0  0  0  0  0  0  0
   18.2186  -20.7021  -13.9598 O   0  0  0  0  0  0  0  0  0  0  0  0
   19.6387  -20.2636  -12.2815 O   0  0  0  0  0  0  0  0  0  0  0  0
  2  1  1  6
  3  2  1  0
  4  2  1  0
  4  5  1  1
  6  4  1  0
  7  6  2  0
  8  6  1  0
  9  8  1  0
 10 11  1  0
  9 10  1  6
 11 12  2  0
 12 13  1  0
 14 13  2  0
 15 14  1  0
 16 11  1  0
 16 15  2  0
 17  9  1  0
 17 27  1  0
 18 17  2  0
 19 20  1  0
 20 22  1  0
 21 20  2  0
 22 23  1  0
 23 24  1  0
 24 25  1  0
 26 25  1  1
 26 27  1  0
 26 28  1  0
 28 30  1  0
 29 28  2  0
M  END
$$$$
