VFR.pdb
     RDKit          3D

 30 30  0  0  1  0  0  0  0  0999 V2000
   29.6235  -27.9840  -17.4595 C   0  0  0  0  0  0  0  0  0  0  0  0
   29.6451  -26.5235  -17.1129 C   0  0  1  0  0  0  0  0  0  0  0  0
   30.5317  -25.6804  -17.9532 C   0  0  0  0  0  0  0  0  0  0  0  0
   28.2160  -26.0397  -17.0521 C   0  0  2  0  0  0  0  0  0  0  0  0
   27.7004  -26.2252  -18.4251 N   0  0  0  0  0  0  0  0  0  0  0  0
   28.0677  -24.6164  -16.7317 C   0  0  0  0  0  0  0  0  0  0  0  0
   27.8586  -24.2283  -15.5283 O   0  0  0  0  0  0  0  0  0  0  0  0
   28.1398  -23.5649  -17.6911 N   0  0  0  0  0  0  0  0  0  0  0  0
   28.0679  -22.1568  -17.3087 C   0  0  1  0  0  0  0  0  0  0  0  0
   28.4135  -21.2632  -18.4713 C   0  0  0  0  0  0  0  0  0  0  0  0
   28.2694  -19.8384  -18.1770 C   0  0  0  0  0  0  0  0  0  0  0  0
   27.0514  -19.2137  -18.2843 C   0  0  0  0  0  0  0  0  0  0  0  0
   26.9411  -17.8519  -17.9983 C   0  0  0  0  0  0  0  0  0  0  0  0
   28.0356  -17.1136  -17.6074 C   0  0  0  0  0  0  0  0  0  0  0  0
   29.2605  -17.7220  -17.4948 C   0  0  0  0  0  0  0  0  0  0  0  0
   29.3469  -19.0640  -17.7812 C   0  0  0  0  0  0  0  0  0  0  0  0
   26.7650  -21.8388  -16.7428 C   0  0  0  0  0  0  0  0  0  0  0  0
   25.6634  -22.2126  -17.2771 O   0  0  0  0  0  0  0  0  0  0  0  0
   24.6422  -20.5600   -8.4001 N   0  0  0  0  0  0  0  0  0  0  0  0
   23.3846  -20.7337   -9.0648 C   0  0  0  0  0  0  0  0  0  0  0  0
   22.3077  -20.8481   -8.3771 N   0  0  0  0  0  0  0  0  0  0  0  0
   23.3497  -20.7779  -10.4755 N   0  0  0  0  0  0  0  0  0  0  0  0
   24.5619  -20.5926  -11.2357 C   0  0  0  0  0  0  0  0  0  0  0  0
   24.2273  -20.7261  -12.7014 C   0  0  0  0  0  0  0  0  0  0  0  0
   25.4613  -21.0152  -13.4774 C   0  0  0  0  0  0  0  0  0  0  0  0
   25.2947  -20.8163  -14.9743 C   0  0  2  0  0  0  0  0  0  0  0  0
   26.6322  -21.0836  -15.5385 N   0  0  0  0  0  0  0  0  0  0  0  0
   24.9558  -19.4184  -15.2866 C   0  0  0  0  0  0  0  0  0  0  0  0
   25.8171  -18.5660  -15.6134 O   0  0  0  0  0  0  0  0  0  0  0  0
   23.6473  -18.9812  -15.2324 O   0  0  0  0  0  0  0  0  0  0  0  0
  2  1  1  6
  3  2  1  0
  4  2  1  0
  4  5  1  6
  6  4  1  0
  7  6  2  0
  8  6  1  0
  9  8  1  0
 10 11  1  0
  9 10  1  6
 11 12  2  0
 12 13  1  0
 14 13  2  0
 15 14  1  0
 16 11  1  0
 16 15  2  0
 17  9  1  0
 17 27  1  0
 18 17  2  0
 19 20  1  0
 20 22  1  0
 21 20  2  0
 22 23  1  0
 23 24  1  0
 24 25  1  0
 26 25  1  1
 26 27  1  0
 26 28  1  0
 28 30  1  0
 29 28  2  0
M  END
$$$$
