VFR.pdb
     RDKit          3D

 30 30  0  0  1  0  0  0  0  0999 V2000
   29.5698  -22.0522  -18.7633 C   0  0  0  0  0  0  0  0  0  0  0  0
   29.0544  -22.4546  -17.4120 C   0  0  1  0  0  0  0  0  0  0  0  0
   30.0887  -22.6469  -16.3650 C   0  0  0  0  0  0  0  0  0  0  0  0
   27.9623  -21.4866  -17.0245 C   0  0  2  0  0  0  0  0  0  0  0  0
   28.6305  -20.1687  -16.9790 N   0  0  0  0  0  0  0  0  0  0  0  0
   27.3871  -21.7170  -15.6955 C   0  0  0  0  0  0  0  0  0  0  0  0
   26.7003  -22.7699  -15.4462 O   0  0  0  0  0  0  0  0  0  0  0  0
   27.5309  -20.8262  -14.5921 N   0  0  0  0  0  0  0  0  0  0  0  0
   26.8039  -21.0162  -13.3393 C   0  0  1  0  0  0  0  0  0  0  0  0
   27.4882  -20.3004  -12.2040 C   0  0  0  0  0  0  0  0  0  0  0  0
   28.7191  -20.9518  -11.7591 C   0  0  0  0  0  0  0  0  0  0  0  0
   28.7735  -21.6168  -10.5590 C   0  0  0  0  0  0  0  0  0  0  0  0
   29.9615  -22.2296  -10.1571 C   0  0  0  0  0  0  0  0  0  0  0  0
   31.0908  -22.1822  -10.9436 C   0  0  0  0  0  0  0  0  0  0  0  0
   31.0541  -21.5220  -12.1460 C   0  0  0  0  0  0  0  0  0  0  0  0
   29.8740  -20.9254  -12.5227 C   0  0  0  0  0  0  0  0  0  0  0  0
   25.4124  -20.6129  -13.4807 C   0  0  0  0  0  0  0  0  0  0  0  0
   25.0574  -19.5243  -14.0533 O   0  0  0  0  0  0  0  0  0  0  0  0
   18.0534  -23.3126  -10.7957 N   0  0  0  0  0  0  0  0  0  0  0  0
   17.6284  -22.7647  -12.0498 C   0  0  0  0  0  0  0  0  0  0  0  0
   16.3851  -22.5234  -12.2542 N   0  0  0  0  0  0  0  0  0  0  0  0
   18.5902  -22.4981  -13.0482 N   0  0  0  0  0  0  0  0  0  0  0  0
   19.9970  -22.5675  -12.7349 C   0  0  0  0  0  0  0  0  0  0  0  0
   20.7716  -22.0214  -13.9095 C   0  0  0  0  0  0  0  0  0  0  0  0
   22.2277  -22.2264  -13.6942 C   0  0  0  0  0  0  0  0  0  0  0  0
   22.9424  -20.9897  -13.1770 C   0  0  2  0  0  0  0  0  0  0  0  0
   24.3420  -21.4183  -12.9869 N   0  0  0  0  0  0  0  0  0  0  0  0
   22.4208  -20.5906  -11.8597 C   0  0  0  0  0  0  0  0  0  0  0  0
   22.8519  -21.0705  -10.7831 O   0  0  0  0  0  0  0  0  0  0  0  0
   21.4151  -19.6505  -11.7551 O   0  0  0  0  0  0  0  0  0  0  0  0
  2  1  1  6
  3  2  1  0
  4  2  1  0
  4  5  1  1
  6  4  1  0
  7  6  2  0
  8  6  1  0
  9  8  1  0
 10 11  1  0
  9 10  1  1
 11 12  2  0
 12 13  1  0
 14 13  2  0
 15 14  1  0
 16 11  1  0
 16 15  2  0
 17  9  1  0
 17 27  1  0
 18 17  2  0
 19 20  1  0
 20 22  1  0
 21 20  2  0
 22 23  1  0
 23 24  1  0
 24 25  1  0
 26 25  1  1
 26 27  1  0
 26 28  1  0
 28 30  1  0
 29 28  2  0
M  END
$$$$
