VFR.pdb
     RDKit          3D

 30 30  0  0  1  0  0  0  0  0999 V2000
   29.1873  -24.5469  -17.0691 C   0  0  0  0  0  0  0  0  0  0  0  0
   29.3753  -23.1301  -17.5287 C   0  0  1  0  0  0  0  0  0  0  0  0
   30.0906  -22.9666  -18.8189 C   0  0  0  0  0  0  0  0  0  0  0  0
   28.0308  -22.4446  -17.4818 C   0  0  2  0  0  0  0  0  0  0  0  0
   28.3197  -21.0331  -17.8131 N   0  0  0  0  0  0  0  0  0  0  0  0
   27.3906  -22.4485  -16.1625 C   0  0  0  0  0  0  0  0  0  0  0  0
   26.8796  -23.5198  -15.6792 O   0  0  0  0  0  0  0  0  0  0  0  0
   27.2790  -21.3042  -15.3200 N   0  0  0  0  0  0  0  0  0  0  0  0
   26.5277  -21.3310  -14.0675 C   0  0  1  0  0  0  0  0  0  0  0  0
   27.0982  -20.3522  -13.0746 C   0  0  0  0  0  0  0  0  0  0  0  0
   26.4072  -20.3559  -11.7862 C   0  0  0  0  0  0  0  0  0  0  0  0
   25.2328  -19.6663  -11.6115 C   0  0  0  0  0  0  0  0  0  0  0  0
   24.5934  -19.6856  -10.3708 C   0  0  0  0  0  0  0  0  0  0  0  0
   25.1180  -20.3866   -9.3081 C   0  0  0  0  0  0  0  0  0  0  0  0
   26.2909  -21.0814   -9.4652 C   0  0  0  0  0  0  0  0  0  0  0  0
   26.9042  -21.0491  -10.6954 C   0  0  0  0  0  0  0  0  0  0  0  0
   25.1102  -21.1029  -14.3077 C   0  0  0  0  0  0  0  0  0  0  0  0
   24.6607  -20.0455  -14.8722 O   0  0  0  0  0  0  0  0  0  0  0  0
   18.9854  -26.8891  -14.5884 N   0  0  0  0  0  0  0  0  0  0  0  0
   20.0638  -26.6383  -13.6785 C   0  0  0  0  0  0  0  0  0  0  0  0
   20.6076  -27.6132  -13.0464 N   0  0  0  0  0  0  0  0  0  0  0  0
   20.5133  -25.3135  -13.4892 N   0  0  0  0  0  0  0  0  0  0  0  0
   19.8294  -24.2181  -14.1328 C   0  0  0  0  0  0  0  0  0  0  0  0
   20.5019  -22.9315  -13.7201 C   0  0  0  0  0  0  0  0  0  0  0  0
   21.9764  -23.0696  -13.8433 C   0  0  0  0  0  0  0  0  0  0  0  0
   22.6869  -21.7534  -14.1088 C   0  0  2  0  0  0  0  0  0  0  0  0
   24.1197  -22.0583  -13.9277 N   0  0  0  0  0  0  0  0  0  0  0  0
   22.3205  -20.7433  -13.1029 C   0  0  0  0  0  0  0  0  0  0  0  0
   22.7947  -20.7368  -11.9408 O   0  0  0  0  0  0  0  0  0  0  0  0
   21.4216  -19.7402  -13.4060 O   0  0  0  0  0  0  0  0  0  0  0  0
  2  1  1  6
  3  2  1  0
  4  2  1  0
  4  5  1  1
  6  4  1  0
  7  6  2  0
  8  6  1  0
  9  8  1  0
 10 11  1  0
  9 10  1  1
 11 12  2  0
 12 13  1  0
 14 13  2  0
 15 14  1  0
 16 11  1  0
 16 15  2  0
 17  9  1  0
 17 27  1  0
 18 17  2  0
 19 20  1  0
 20 22  1  0
 21 20  2  0
 22 23  1  0
 23 24  1  0
 24 25  1  0
 26 25  1  1
 26 27  1  0
 26 28  1  0
 28 30  1  0
 29 28  2  0
M  END
$$$$
