VFR.pdb
     RDKit          3D

 30 30  0  0  1  0  0  0  0  0999 V2000
   26.8912  -22.0312  -19.0589 C   0  0  0  0  0  0  0  0  0  0  0  0
   25.9136  -22.3184  -17.9563 C   0  0  1  0  0  0  0  0  0  0  0  0
   25.2363  -23.6370  -18.0304 C   0  0  0  0  0  0  0  0  0  0  0  0
   26.6080  -22.0588  -16.6409 C   0  0  2  0  0  0  0  0  0  0  0  0
   27.5693  -23.1730  -16.5000 N   0  0  0  0  0  0  0  0  0  0  0  0
   25.7290  -22.1056  -15.4681 C   0  0  0  0  0  0  0  0  0  0  0  0
   25.5805  -23.1869  -14.7964 O   0  0  0  0  0  0  0  0  0  0  0  0
   24.9824  -20.9946  -14.9785 N   0  0  0  0  0  0  0  0  0  0  0  0
   24.1370  -21.0884  -13.7908 C   0  0  1  0  0  0  0  0  0  0  0  0
   24.3114  -19.8808  -12.9072 C   0  0  0  0  0  0  0  0  0  0  0  0
   23.5756  -19.9670  -11.6468 C   0  0  0  0  0  0  0  0  0  0  0  0
   22.2828  -19.5146  -11.5501 C   0  0  0  0  0  0  0  0  0  0  0  0
   21.6028  -19.6078  -10.3346 C   0  0  0  0  0  0  0  0  0  0  0  0
   22.2041  -20.1480   -9.2198 C   0  0  0  0  0  0  0  0  0  0  0  0
   23.4956  -20.6051   -9.2987 C   0  0  0  0  0  0  0  0  0  0  0  0
   24.1470  -20.5037  -10.5054 C   0  0  0  0  0  0  0  0  0  0  0  0
   22.7449  -21.2994  -14.1602 C   0  0  0  0  0  0  0  0  0  0  0  0
   22.1767  -20.6734  -15.1215 O   0  0  0  0  0  0  0  0  0  0  0  0
   19.5276  -27.7506  -10.7044 N   0  0  0  0  0  0  0  0  0  0  0  0
   18.6796  -26.6667  -11.1040 C   0  0  0  0  0  0  0  0  0  0  0  0
   17.4929  -26.5728  -10.6258 N   0  0  0  0  0  0  0  0  0  0  0  0
   19.1655  -25.7133  -12.0248 N   0  0  0  0  0  0  0  0  0  0  0  0
   19.8001  -26.1449  -13.2467 C   0  0  0  0  0  0  0  0  0  0  0  0
   20.1812  -24.9196  -14.0413 C   0  0  0  0  0  0  0  0  0  0  0  0
   20.0827  -23.7100  -13.1836 C   0  0  0  0  0  0  0  0  0  0  0  0
   20.5150  -22.4340  -13.8858 C   0  0  2  0  0  0  0  0  0  0  0  0
   21.9161  -22.2329  -13.4673 N   0  0  0  0  0  0  0  0  0  0  0  0
   19.7409  -21.2784  -13.4045 C   0  0  0  0  0  0  0  0  0  0  0  0
   20.1055  -20.5717  -12.4334 O   0  0  0  0  0  0  0  0  0  0  0  0
   18.5576  -20.9178  -14.0177 O   0  0  0  0  0  0  0  0  0  0  0  0
  2  1  1  6
  3  2  1  0
  4  2  1  0
  4  5  1  1
  6  4  1  0
  7  6  2  0
  8  6  1  0
  9  8  1  0
 10 11  1  0
  9 10  1  6
 11 12  2  0
 12 13  1  0
 14 13  2  0
 15 14  1  0
 16 11  1  0
 16 15  2  0
 17  9  1  0
 17 27  1  0
 18 17  2  0
 19 20  1  0
 20 22  1  0
 21 20  2  0
 22 23  1  0
 23 24  1  0
 24 25  1  0
 26 25  1  1
 26 27  1  0
 26 28  1  0
 28 30  1  0
 29 28  2  0
M  END
$$$$
