INL.pdb
     RDKit          3D

 25 24  0  0  1  0  0  0  0  0999 V2000
    7.2162  -12.6273   24.1730 C   0  0  0  0  0  0  0  0  0  0  0  0
    7.3392  -14.0833   23.7144 C   0  0  0  0  0  0  0  0  0  0  0  0
    7.8310  -14.1592   22.3060 C   0  0  2  0  0  0  0  0  0  0  0  0
    6.9879  -13.3300   21.3739 C   0  0  0  0  0  0  0  0  0  0  0  0
    8.0852  -15.5594   21.8072 C   0  0  2  0  0  0  0  0  0  0  0  0
    6.7945  -16.2548   21.8699 N   0  0  0  0  0  0  0  0  0  0  0  0
    9.0329  -16.3328   22.6261 C   0  0  0  0  0  0  0  0  0  0  0  0
    8.6185  -17.0701   23.5625 O   0  0  0  0  0  0  0  0  0  0  0  0
   13.3153  -19.2474   21.3683 N   0  0  0  0  0  0  0  0  0  0  0  0
   13.2124  -18.5018   22.5465 C   0  0  0  0  0  0  0  0  0  0  0  0
   13.5823  -19.0410   23.6267 O   0  0  0  0  0  0  0  0  0  0  0  0
   12.6894  -17.0992   22.6067 C   0  0  0  0  0  0  0  0  0  0  0  0
   11.3256  -17.0964   23.3077 C   0  0  2  0  0  0  0  0  0  0  0  0
   10.4567  -16.3303   22.4491 N   0  0  0  0  0  0  0  0  0  0  0  0
   11.4501  -16.5823   24.6831 C   0  0  0  0  0  0  0  0  0  0  0  0
   11.9876  -15.4332   24.7909 O   0  0  0  0  0  0  0  0  0  0  0  0
    9.1598  -13.3590   28.0579 C   0  0  0  0  0  0  0  0  0  0  0  0
   10.1115  -14.4821   28.1973 C   0  0  2  0  0  0  0  0  0  0  0  0
   11.4775  -13.9214   28.6539 C   0  0  0  0  0  0  0  0  0  0  0  0
   10.3926  -15.3410   27.0409 C   0  0  0  0  0  0  0  0  0  0  0  0
   11.1232  -16.6157   27.1941 C   0  0  2  0  0  0  0  0  0  0  0  0
   11.0227  -17.2620   25.8521 N   0  0  0  0  0  0  0  0  0  0  0  0
   10.6017  -17.6020   28.1420 C   0  0  0  0  0  0  0  0  0  0  0  0
    9.5256  -18.4582   27.7854 O   0  0  0  0  0  0  0  0  0  0  0  0
   11.0181  -17.7996   29.3176 O   0  0  0  0  0  0  0  0  0  0  0  0
  2  1  1  0
  2  3  1  0
  3  4  1  6
  5  3  1  0
  5  6  1  1
  7  5  1  0
  7  8  2  0
 10 12  1  0
 10  9  1  0
 11 10  2  0
 13 12  1  6
 13 14  1  0
 14  7  1  0
 15 13  1  0
 16 15  2  0
 18 20  1  0
 18 17  1  6
 19 18  1  0
 21 20  1  6
 21 22  1  0
 21 23  1  0
 22 15  1  0
 23 24  1  0
 25 23  2  0
M  END
$$$$
