INL.pdb
     RDKit          3D

 25 24  0  0  1  0  0  0  0  0999 V2000
    7.8617  -11.8070   19.7960 C   0  0  0  0  0  0  0  0  0  0  0  0
    7.7324  -13.3327   19.8314 C   0  0  0  0  0  0  0  0  0  0  0  0
    8.8651  -13.9810   19.1046 C   0  0  2  0  0  0  0  0  0  0  0  0
    9.0261  -13.4283   17.7133 C   0  0  0  0  0  0  0  0  0  0  0  0
    8.8627  -15.4879   19.1602 C   0  0  2  0  0  0  0  0  0  0  0  0
    7.6938  -15.9222   18.3865 N   0  0  0  0  0  0  0  0  0  0  0  0
    8.7157  -16.0452   20.5147 C   0  0  0  0  0  0  0  0  0  0  0  0
    7.6113  -15.9751   21.1208 O   0  0  0  0  0  0  0  0  0  0  0  0
    9.8754  -20.0399   24.4421 N   0  0  0  0  0  0  0  0  0  0  0  0
   10.5227  -18.8308   24.1709 C   0  0  0  0  0  0  0  0  0  0  0  0
   11.0239  -18.1933   25.1388 O   0  0  0  0  0  0  0  0  0  0  0  0
   10.6588  -18.2432   22.7994 C   0  0  0  0  0  0  0  0  0  0  0  0
    9.5460  -17.2120   22.5771 C   0  0  2  0  0  0  0  0  0  0  0  0
    9.7626  -16.6974   21.2477 N   0  0  0  0  0  0  0  0  0  0  0  0
    9.5581  -16.1969   23.6453 C   0  0  0  0  0  0  0  0  0  0  0  0
   10.3683  -15.2301   23.4720 O   0  0  0  0  0  0  0  0  0  0  0  0
    5.6996  -13.1707   27.0354 C   0  0  0  0  0  0  0  0  0  0  0  0
    7.1182  -13.5564   26.8760 C   0  0  2  0  0  0  0  0  0  0  0  0
    7.9413  -12.2925   26.5385 C   0  0  0  0  0  0  0  0  0  0  0  0
    7.4873  -14.5602   25.8709 C   0  0  0  0  0  0  0  0  0  0  0  0
    8.8437  -15.1442   25.8350 C   0  0  2  0  0  0  0  0  0  0  0  0
    8.7519  -16.2274   24.8116 N   0  0  0  0  0  0  0  0  0  0  0  0
    9.3494  -15.7934   27.0458 C   0  0  0  0  0  0  0  0  0  0  0  0
    9.0751  -17.1625   27.3080 O   0  0  0  0  0  0  0  0  0  0  0  0
   10.0467  -15.2504   27.9477 O   0  0  0  0  0  0  0  0  0  0  0  0
  2  1  1  0
  2  3  1  0
  3  4  1  6
  5  3  1  0
  5  6  1  6
  7  5  1  0
  7  8  2  0
 10 12  1  0
 10  9  1  0
 11 10  2  0
 13 12  1  1
 13 14  1  0
 14  7  1  0
 15 13  1  0
 16 15  2  0
 18 20  1  0
 18 17  1  6
 19 18  1  0
 21 20  1  1
 21 22  1  0
 21 23  1  0
 22 15  1  0
 23 24  1  0
 25 23  2  0
M  END
$$$$
