INL.pdb
     RDKit          3D

 25 24  0  0  1  0  0  0  0  0999 V2000
    7.4752  -13.0079   17.1316 C   0  0  0  0  0  0  0  0  0  0  0  0
    8.5293  -13.6725   18.0220 C   0  0  0  0  0  0  0  0  0  0  0  0
    8.0571  -13.7554   19.4367 C   0  0  2  0  0  0  0  0  0  0  0  0
    7.5948  -12.4180   19.9512 C   0  0  0  0  0  0  0  0  0  0  0  0
    9.0022  -14.4687   20.3704 C   0  0  2  0  0  0  0  0  0  0  0  0
    9.5199  -15.6212   19.6239 N   0  0  0  0  0  0  0  0  0  0  0  0
    8.3687  -14.9938   21.5910 C   0  0  0  0  0  0  0  0  0  0  0  0
    7.7230  -14.2285   22.3587 O   0  0  0  0  0  0  0  0  0  0  0  0
    5.9286  -19.1755   24.5644 N   0  0  0  0  0  0  0  0  0  0  0  0
    7.2913  -18.8743   24.4821 C   0  0  0  0  0  0  0  0  0  0  0  0
    8.0089  -19.0781   25.5010 O   0  0  0  0  0  0  0  0  0  0  0  0
    7.9546  -18.3234   23.2568 C   0  0  0  0  0  0  0  0  0  0  0  0
    7.8197  -16.7960   23.2508 C   0  0  2  0  0  0  0  0  0  0  0  0
    8.4152  -16.3652   22.0103 N   0  0  0  0  0  0  0  0  0  0  0  0
    8.4239  -16.2168   24.4637 C   0  0  0  0  0  0  0  0  0  0  0  0
    9.6855  -16.3550   24.5657 O   0  0  0  0  0  0  0  0  0  0  0  0
    6.1885  -11.8211   26.5692 C   0  0  0  0  0  0  0  0  0  0  0  0
    7.4683  -12.5602   26.6209 C   0  0  2  0  0  0  0  0  0  0  0  0
    8.0375  -12.6677   25.1880 C   0  0  0  0  0  0  0  0  0  0  0  0
    7.4974  -13.9204   27.1712 C   0  0  0  0  0  0  0  0  0  0  0  0
    8.4333  -14.9371   26.6490 C   0  0  2  0  0  0  0  0  0  0  0  0
    7.7142  -15.5381   25.4869 N   0  0  0  0  0  0  0  0  0  0  0  0
    8.7843  -16.0638   27.5154 C   0  0  0  0  0  0  0  0  0  0  0  0
    9.9244  -16.0058   28.3611 O   0  0  0  0  0  0  0  0  0  0  0  0
    8.1568  -17.1554   27.6107 O   0  0  0  0  0  0  0  0  0  0  0  0
  2  1  1  0
  2  3  1  0
  3  4  1  1
  5  3  1  0
  5  6  1  6
  7  5  1  0
  7  8  2  0
 10 12  1  0
 10  9  1  0
 11 10  2  0
 13 12  1  1
 13 14  1  0
 14  7  1  0
 15 13  1  0
 16 15  2  0
 18 20  1  0
 18 17  1  6
 19 18  1  0
 21 20  1  1
 21 22  1  0
 21 23  1  0
 22 15  1  0
 23 24  1  0
 25 23  2  0
M  END
$$$$
