INL.pdb
     RDKit          3D

 25 24  0  0  1  0  0  0  0  0999 V2000
    7.5456  -11.8423   18.8537 C   0  0  0  0  0  0  0  0  0  0  0  0
    7.8332  -13.3405   18.9890 C   0  0  0  0  0  0  0  0  0  0  0  0
    7.5816  -13.8079   20.3852 C   0  0  2  0  0  0  0  0  0  0  0  0
    8.2919  -12.9502   21.3986 C   0  0  0  0  0  0  0  0  0  0  0  0
    7.7858  -15.2871   20.5956 C   0  0  2  0  0  0  0  0  0  0  0  0
    6.8779  -15.9608   19.6599 N   0  0  0  0  0  0  0  0  0  0  0  0
    7.4434  -15.7611   21.9466 C   0  0  0  0  0  0  0  0  0  0  0  0
    6.2444  -16.0011   22.2575 O   0  0  0  0  0  0  0  0  0  0  0  0
    6.9998  -19.8239   25.5074 N   0  0  0  0  0  0  0  0  0  0  0  0
    6.8093  -18.4645   25.2417 C   0  0  0  0  0  0  0  0  0  0  0  0
    6.2692  -17.7532   26.1344 O   0  0  0  0  0  0  0  0  0  0  0  0
    7.2075  -17.7980   23.9604 C   0  0  0  0  0  0  0  0  0  0  0  0
    7.9913  -16.5186   24.2769 C   0  0  2  0  0  0  0  0  0  0  0  0
    8.3937  -15.9912   22.9967 N   0  0  0  0  0  0  0  0  0  0  0  0
    9.0984  -16.8047   25.2064 C   0  0  0  0  0  0  0  0  0  0  0  0
    9.2212  -18.0240   25.5519 O   0  0  0  0  0  0  0  0  0  0  0  0
    6.7034  -12.6286   27.3091 C   0  0  0  0  0  0  0  0  0  0  0  0
    7.8613  -13.4687   27.6833 C   0  0  2  0  0  0  0  0  0  0  0  0
    8.9484  -12.5655   28.3087 C   0  0  0  0  0  0  0  0  0  0  0  0
    8.5400  -14.2661   26.6549 C   0  0  0  0  0  0  0  0  0  0  0  0
    9.7064  -15.1096   26.9868 C   0  0  2  0  0  0  0  0  0  0  0  0
   10.0041  -15.8422   25.7205 N   0  0  0  0  0  0  0  0  0  0  0  0
    9.5423  -16.1461   28.0076 C   0  0  0  0  0  0  0  0  0  0  0  0
   10.3779  -16.1776   29.1561 O   0  0  0  0  0  0  0  0  0  0  0  0
    8.6920  -17.0797   27.9928 O   0  0  0  0  0  0  0  0  0  0  0  0
  2  1  1  0
  2  3  1  0
  3  4  1  1
  5  3  1  0
  5  6  1  6
  7  5  1  0
  7  8  2  0
 10 12  1  0
 10  9  1  0
 11 10  2  0
 13 12  1  6
 13 14  1  0
 14  7  1  0
 15 13  1  0
 16 15  2  0
 18 20  1  0
 18 17  1  6
 19 18  1  0
 21 20  1  6
 21 22  1  0
 21 23  1  0
 22 15  1  0
 23 24  1  0
 25 23  2  0
M  END
$$$$
