INL.pdb
     RDKit          3D

 25 24  0  0  1  0  0  0  0  0999 V2000
    7.1816  -11.9473   19.2189 C   0  0  0  0  0  0  0  0  0  0  0  0
    7.6017  -13.4117   19.0624 C   0  0  0  0  0  0  0  0  0  0  0  0
    7.8328  -14.0457   20.3951 C   0  0  2  0  0  0  0  0  0  0  0  0
    8.7680  -13.2299   21.2478 C   0  0  0  0  0  0  0  0  0  0  0  0
    8.1889  -15.5098   20.3375 C   0  0  2  0  0  0  0  0  0  0  0  0
    7.0739  -16.1736   19.6522 N   0  0  0  0  0  0  0  0  0  0  0  0
    8.3306  -16.1523   21.6544 C   0  0  0  0  0  0  0  0  0  0  0  0
    7.3132  -16.4150   22.3528 O   0  0  0  0  0  0  0  0  0  0  0  0
    9.7410  -20.2771   23.1333 N   0  0  0  0  0  0  0  0  0  0  0  0
   10.5295  -19.1980   22.7231 C   0  0  0  0  0  0  0  0  0  0  0  0
   11.0049  -19.2184   21.5535 O   0  0  0  0  0  0  0  0  0  0  0  0
   10.8461  -18.0160   23.5876 C   0  0  0  0  0  0  0  0  0  0  0  0
    9.6513  -17.0550   23.5896 C   0  0  2  0  0  0  0  0  0  0  0  0
    9.5807  -16.5310   22.2482 N   0  0  0  0  0  0  0  0  0  0  0  0
    9.8044  -16.0388   24.6458 C   0  0  0  0  0  0  0  0  0  0  0  0
   10.8780  -15.3561   24.5965 O   0  0  0  0  0  0  0  0  0  0  0  0
    8.5048  -11.9620   25.6588 C   0  0  0  0  0  0  0  0  0  0  0  0
    7.6118  -13.0896   26.0015 C   0  0  2  0  0  0  0  0  0  0  0  0
    6.2548  -12.5216   26.4757 C   0  0  0  0  0  0  0  0  0  0  0  0
    8.0259  -14.0562   27.0253 C   0  0  0  0  0  0  0  0  0  0  0  0
    9.2168  -14.9093   26.8349 C   0  0  2  0  0  0  0  0  0  0  0  0
    8.8641  -15.7817   25.6758 N   0  0  0  0  0  0  0  0  0  0  0  0
    9.5903  -15.8261   27.9135 C   0  0  0  0  0  0  0  0  0  0  0  0
   10.3298  -15.3680   29.0367 O   0  0  0  0  0  0  0  0  0  0  0  0
    9.3183  -17.0578   27.9733 O   0  0  0  0  0  0  0  0  0  0  0  0
  2  1  1  0
  2  3  1  0
  3  4  1  6
  5  3  1  0
  5  6  1  6
  7  5  1  0
  7  8  2  0
 10 12  1  0
 10  9  1  0
 11 10  2  0
 13 12  1  6
 13 14  1  0
 14  7  1  0
 15 13  1  0
 16 15  2  0
 18 20  1  0
 18 17  1  1
 19 18  1  0
 21 20  1  1
 21 22  1  0
 21 23  1  0
 22 15  1  0
 23 24  1  0
 25 23  2  0
M  END
$$$$
