INL.pdb
     RDKit          3D

 25 24  0  0  1  0  0  0  0  0999 V2000
    7.6951  -12.0144   21.6188 C   0  0  0  0  0  0  0  0  0  0  0  0
    7.5670  -13.5196   21.8705 C   0  0  0  0  0  0  0  0  0  0  0  0
    7.8989  -14.2965   20.6386 C   0  0  2  0  0  0  0  0  0  0  0  0
    7.1195  -13.8119   19.4449 C   0  0  0  0  0  0  0  0  0  0  0  0
    7.8650  -15.7937   20.8157 C   0  0  2  0  0  0  0  0  0  0  0  0
    6.4679  -16.1383   21.1037 N   0  0  0  0  0  0  0  0  0  0  0  0
    8.6734  -16.2904   21.9412 C   0  0  0  0  0  0  0  0  0  0  0  0
    8.2010  -17.1419   22.7436 O   0  0  0  0  0  0  0  0  0  0  0  0
   12.5888  -18.2115   21.6128 N   0  0  0  0  0  0  0  0  0  0  0  0
   12.8641  -16.8621   21.8539 C   0  0  0  0  0  0  0  0  0  0  0  0
   13.6739  -16.2728   21.0849 O   0  0  0  0  0  0  0  0  0  0  0  0
   12.2561  -16.0702   22.9710 C   0  0  0  0  0  0  0  0  0  0  0  0
   10.8217  -16.5547   23.2136 C   0  0  2  0  0  0  0  0  0  0  0  0
   10.0184  -15.8791   22.2250 N   0  0  0  0  0  0  0  0  0  0  0  0
   10.4211  -16.3115   24.6108 C   0  0  0  0  0  0  0  0  0  0  0  0
   11.1874  -16.8139   25.4948 O   0  0  0  0  0  0  0  0  0  0  0  0
    8.7153  -12.2780   27.0303 C   0  0  0  0  0  0  0  0  0  0  0  0
    7.9329  -13.1538   26.1317 C   0  0  2  0  0  0  0  0  0  0  0  0
    6.5133  -12.5630   25.9753 C   0  0  0  0  0  0  0  0  0  0  0  0
    7.7469  -14.5675   26.4796 C   0  0  0  0  0  0  0  0  0  0  0  0
    8.8786  -15.5167   26.4553 C   0  0  2  0  0  0  0  0  0  0  0  0
    9.2776  -15.5781   25.0179 N   0  0  0  0  0  0  0  0  0  0  0  0
    8.6263  -16.9038   26.8496 C   0  0  0  0  0  0  0  0  0  0  0  0
    8.8005  -17.3224   28.1960 O   0  0  0  0  0  0  0  0  0  0  0  0
    8.2474  -17.8383   26.0895 O   0  0  0  0  0  0  0  0  0  0  0  0
  2  1  1  0
  2  3  1  0
  3  4  1  6
  5  3  1  0
  5  6  1  1
  7  5  1  0
  7  8  2  0
 10 12  1  0
 10  9  1  0
 11 10  2  0
 13 12  1  1
 13 14  1  0
 14  7  1  0
 15 13  1  0
 16 15  2  0
 18 20  1  0
 18 17  1  1
 19 18  1  0
 21 20  1  6
 21 22  1  0
 21 23  1  0
 22 15  1  0
 23 24  1  0
 25 23  2  0
M  END
$$$$
