YPQ.pdb
     RDKit          3D

 29 30  0  0  1  0  0  0  0  0999 V2000
   11.0874  -14.9190   29.8916 O   0  0  0  0  0  0  0  0  0  0  0  0
   10.1312  -14.8816   28.8727 C   0  0  0  0  0  0  0  0  0  0  0  0
   10.0935  -13.8223   27.9859 C   0  0  0  0  0  0  0  0  0  0  0  0
    9.1648  -13.7582   26.9742 C   0  0  0  0  0  0  0  0  0  0  0  0
    8.2285  -14.7559   26.8045 C   0  0  0  0  0  0  0  0  0  0  0  0
    7.2218  -14.6828   25.7024 C   0  0  0  0  0  0  0  0  0  0  0  0
    6.8208  -16.0682   25.2446 C   0  0  2  0  0  0  0  0  0  0  0  0
    7.0094  -17.0600   26.2564 N   0  0  0  0  0  0  0  0  0  0  0  0
    7.4540  -16.4087   23.9458 C   0  0  0  0  0  0  0  0  0  0  0  0
    7.8980  -17.5949   23.7648 O   0  0  0  0  0  0  0  0  0  0  0  0
    8.2578  -15.8168   27.6838 C   0  0  0  0  0  0  0  0  0  0  0  0
    9.1952  -15.8635   28.6905 C   0  0  0  0  0  0  0  0  0  0  0  0
    7.6082  -15.4987   22.8638 N   0  0  0  0  0  0  0  0  0  0  0  0
    7.1946  -14.1044   22.8660 C   0  0  0  0  0  0  0  0  0  0  0  0
    7.8175  -13.5616   21.6116 C   0  0  0  0  0  0  0  0  0  0  0  0
    7.7649  -14.7205   20.6652 C   0  0  0  0  0  0  0  0  0  0  0  0
    8.2118  -15.8555   21.5965 C   0  0  1  0  0  0  0  0  0  0  0  0
    9.7018  -15.7726   21.6657 C   0  0  0  0  0  0  0  0  0  0  0  0
   10.3037  -14.9016   22.3486 O   0  0  0  0  0  0  0  0  0  0  0  0
   11.1324  -19.9785   24.5652 N   0  0  0  0  0  0  0  0  0  0  0  0
   12.3558  -20.0249   23.8580 C   0  0  0  0  0  0  0  0  0  0  0  0
   13.1057  -21.0372   24.0278 O   0  0  0  0  0  0  0  0  0  0  0  0
   12.7586  -18.9164   22.9360 C   0  0  0  0  0  0  0  0  0  0  0  0
   11.5231  -18.3860   22.2928 C   0  0  0  0  0  0  0  0  0  0  0  0
   11.7911  -17.1696   21.4237 C   0  0  2  0  0  0  0  0  0  0  0  0
   10.4841  -16.7088   20.9361 N   0  0  0  0  0  0  0  0  0  0  0  0
   12.6419  -17.6328   20.3040 C   0  0  0  0  0  0  0  0  0  0  0  0
   12.0802  -18.1891   19.3340 O   0  0  0  0  0  0  0  0  0  0  0  0
   13.9918  -17.4651   20.3167 O   0  0  0  0  0  0  0  0  0  0  0  0
  2  1  1  0
  3  2  2  0
  4  3  1  0
  5 11  1  0
  5  4  2  0
  6  5  1  0
  7  6  1  0
  7  8  1  1
  9  7  1  0
 10  9  2  0
 11 12  2  0
 12  2  1  0
 13  9  1  0
 13 17  1  0
 14 15  1  0
 14 13  1  0
 15 16  1  0
 16 17  1  0
 18 26  1  0
 17 18  1  1
 19 18  2  0
 20 21  1  0
 21 22  2  0
 23 24  1  0
 23 21  1  0
 25 24  1  1
 25 27  1  0
 25 26  1  0
 27 29  1  0
 28 27  2  0
M  END
$$$$
