YPQ.pdb
     RDKit          3D

 29 30  0  0  1  0  0  0  0  0999 V2000
    7.9188  -13.4578   13.6698 O   0  0  0  0  0  0  0  0  0  0  0  0
    7.9349  -13.9113   14.9919 C   0  0  0  0  0  0  0  0  0  0  0  0
    7.9102  -15.2651   15.2685 C   0  0  0  0  0  0  0  0  0  0  0  0
    7.9251  -15.7407   16.5584 C   0  0  0  0  0  0  0  0  0  0  0  0
    7.9656  -14.8783   17.6334 C   0  0  0  0  0  0  0  0  0  0  0  0
    7.9832  -15.3997   19.0339 C   0  0  0  0  0  0  0  0  0  0  0  0
    9.3059  -15.1002   19.7049 C   0  0  2  0  0  0  0  0  0  0  0  0
   10.4237  -15.6075   18.9727 N   0  0  0  0  0  0  0  0  0  0  0  0
    9.2886  -15.5087   21.1320 C   0  0  0  0  0  0  0  0  0  0  0  0
   10.0120  -16.4967   21.5028 O   0  0  0  0  0  0  0  0  0  0  0  0
    7.9906  -13.5261   17.3681 C   0  0  0  0  0  0  0  0  0  0  0  0
    7.9750  -13.0690   16.0700 C   0  0  0  0  0  0  0  0  0  0  0  0
    8.5135  -14.8728   22.1406 N   0  0  0  0  0  0  0  0  0  0  0  0
    7.6687  -13.7048   21.9474 C   0  0  0  0  0  0  0  0  0  0  0  0
    6.9009  -13.6219   23.2357 C   0  0  0  0  0  0  0  0  0  0  0  0
    7.8788  -14.1122   24.2579 C   0  0  0  0  0  0  0  0  0  0  0  0
    8.4669  -15.3208   23.5172 C   0  0  1  0  0  0  0  0  0  0  0  0
    7.4835  -16.4319   23.6904 C   0  0  0  0  0  0  0  0  0  0  0  0
    6.2376  -16.2512   23.6435 O   0  0  0  0  0  0  0  0  0  0  0  0
   11.3860  -19.6031   25.7481 N   0  0  0  0  0  0  0  0  0  0  0  0
   10.8640  -19.2299   27.0080 C   0  0  0  0  0  0  0  0  0  0  0  0
   11.2798  -19.8533   28.0350 O   0  0  0  0  0  0  0  0  0  0  0  0
    9.8518  -18.1340   27.1319 C   0  0  0  0  0  0  0  0  0  0  0  0
    9.4928  -17.6866   25.7562 C   0  0  0  0  0  0  0  0  0  0  0  0
    8.1765  -18.2717   25.2749 C   0  0  2  0  0  0  0  0  0  0  0  0
    7.9599  -17.7518   23.9180 N   0  0  0  0  0  0  0  0  0  0  0  0
    7.1337  -17.7802   26.2040 C   0  0  0  0  0  0  0  0  0  0  0  0
    6.7684  -16.5882   26.0953 O   0  0  0  0  0  0  0  0  0  0  0  0
    6.5824  -18.5876   27.1497 O   0  0  0  0  0  0  0  0  0  0  0  0
  2  1  1  0
  3  2  2  0
  4  3  1  0
  5 11  1  0
  5  4  2  0
  6  5  1  0
  7  6  1  0
  7  8  1  6
  9  7  1  0
 10  9  2  0
 11 12  2  0
 12  2  1  0
 13  9  1  0
 13 17  1  0
 14 15  1  0
 14 13  1  0
 15 16  1  0
 16 17  1  0
 18 26  1  0
 17 18  1  6
 19 18  2  0
 20 21  1  0
 21 22  2  0
 23 24  1  0
 23 21  1  0
 25 24  1  1
 25 27  1  0
 25 26  1  0
 27 29  1  0
 28 27  2  0
M  END
$$$$
