YPQ.pdb
     RDKit          3D

 29 30  0  0  1  0  0  0  0  0999 V2000
    7.7502  -11.0911   26.8010 O   0  0  0  0  0  0  0  0  0  0  0  0
    7.4643  -12.4510   26.6500 C   0  0  0  0  0  0  0  0  0  0  0  0
    8.4794  -13.3580   26.4114 C   0  0  0  0  0  0  0  0  0  0  0  0
    8.2286  -14.7012   26.2586 C   0  0  0  0  0  0  0  0  0  0  0  0
    6.9450  -15.1981   26.3382 C   0  0  0  0  0  0  0  0  0  0  0  0
    6.6773  -16.6591   26.1730 C   0  0  0  0  0  0  0  0  0  0  0  0
    6.2341  -16.9704   24.7601 C   0  0  2  0  0  0  0  0  0  0  0  0
    5.4783  -18.1803   24.6726 N   0  0  0  0  0  0  0  0  0  0  0  0
    7.3756  -16.9066   23.8130 C   0  0  0  0  0  0  0  0  0  0  0  0
    8.1644  -17.9100   23.7247 O   0  0  0  0  0  0  0  0  0  0  0  0
    5.9256  -14.3016   26.5759 C   0  0  0  0  0  0  0  0  0  0  0  0
    6.1962  -12.9605   26.7261 C   0  0  0  0  0  0  0  0  0  0  0  0
    7.6660  -15.7924   22.9784 N   0  0  0  0  0  0  0  0  0  0  0  0
    6.9253  -14.5411   22.9501 C   0  0  0  0  0  0  0  0  0  0  0  0
    7.7945  -13.6489   22.1107 C   0  0  0  0  0  0  0  0  0  0  0  0
    8.4011  -14.5878   21.1148 C   0  0  0  0  0  0  0  0  0  0  0  0
    8.7619  -15.7643   22.0318 C   0  0  1  0  0  0  0  0  0  0  0  0
   10.0441  -15.3904   22.7012 C   0  0  0  0  0  0  0  0  0  0  0  0
   10.1027  -14.5489   23.6369 O   0  0  0  0  0  0  0  0  0  0  0  0
   12.3106  -19.5199   25.3219 N   0  0  0  0  0  0  0  0  0  0  0  0
   11.5913  -18.4178   25.8389 C   0  0  0  0  0  0  0  0  0  0  0  0
   10.9802  -18.5687   26.9434 O   0  0  0  0  0  0  0  0  0  0  0  0
   11.5489  -17.1112   25.1095 C   0  0  0  0  0  0  0  0  0  0  0  0
   12.4736  -17.2085   23.9446 C   0  0  0  0  0  0  0  0  0  0  0  0
   12.4746  -15.9523   23.0910 C   0  0  2  0  0  0  0  0  0  0  0  0
   11.2544  -16.0016   22.2743 N   0  0  0  0  0  0  0  0  0  0  0  0
   13.6851  -16.0229   22.2413 C   0  0  0  0  0  0  0  0  0  0  0  0
   13.5668  -16.5094   21.0944 O   0  0  0  0  0  0  0  0  0  0  0  0
   14.8926  -15.5769   22.6808 O   0  0  0  0  0  0  0  0  0  0  0  0
  2  1  1  0
  3  2  2  0
  4  3  1  0
  5 11  1  0
  5  4  2  0
  6  5  1  0
  7  6  1  0
  7  8  1  1
  9  7  1  0
 10  9  2  0
 11 12  2  0
 12  2  1  0
 13  9  1  0
 13 17  1  0
 14 15  1  0
 14 13  1  0
 15 16  1  0
 16 17  1  0
 18 26  1  0
 17 18  1  1
 19 18  2  0
 20 21  1  0
 21 22  2  0
 23 24  1  0
 23 21  1  0
 25 24  1  1
 25 27  1  0
 25 26  1  0
 27 29  1  0
 28 27  2  0
M  END
$$$$
