YPQ.pdb
     RDKit          3D

 29 30  0  0  1  0  0  0  0  0999 V2000
    5.7333  -10.1211   26.7965 O   0  0  0  0  0  0  0  0  0  0  0  0
    6.2022  -11.3993   26.4798 C   0  0  0  0  0  0  0  0  0  0  0  0
    7.2798  -11.5594   25.6295 C   0  0  0  0  0  0  0  0  0  0  0  0
    7.7629  -12.8037   25.2999 C   0  0  0  0  0  0  0  0  0  0  0  0
    7.1863  -13.9478   25.8090 C   0  0  0  0  0  0  0  0  0  0  0  0
    7.7157  -15.2983   25.4492 C   0  0  0  0  0  0  0  0  0  0  0  0
    6.8019  -15.9910   24.4620 C   0  0  2  0  0  0  0  0  0  0  0  0
    6.0809  -17.0781   25.0462 N   0  0  0  0  0  0  0  0  0  0  0  0
    7.5293  -16.3528   23.2195 C   0  0  0  0  0  0  0  0  0  0  0  0
    7.9449  -17.5538   23.0719 O   0  0  0  0  0  0  0  0  0  0  0  0
    6.1109  -13.7988   26.6581 C   0  0  0  0  0  0  0  0  0  0  0  0
    5.6414  -12.5448   26.9764 C   0  0  0  0  0  0  0  0  0  0  0  0
    7.8058  -15.4480   22.1577 N   0  0  0  0  0  0  0  0  0  0  0  0
    7.3753  -14.0602   22.0955 C   0  0  0  0  0  0  0  0  0  0  0  0
    8.1435  -13.5166   20.9248 C   0  0  0  0  0  0  0  0  0  0  0  0
    8.2273  -14.6827   19.9895 C   0  0  0  0  0  0  0  0  0  0  0  0
    8.5694  -15.8042   20.9796 C   0  0  1  0  0  0  0  0  0  0  0  0
   10.0375  -15.6981   21.2353 C   0  0  0  0  0  0  0  0  0  0  0  0
   10.5343  -14.8241   21.9946 O   0  0  0  0  0  0  0  0  0  0  0  0
   10.8187  -19.9136   25.0188 N   0  0  0  0  0  0  0  0  0  0  0  0
   11.8130  -19.0267   24.5456 C   0  0  0  0  0  0  0  0  0  0  0  0
   12.3209  -18.2038   25.3710 O   0  0  0  0  0  0  0  0  0  0  0  0
   12.2563  -19.0534   23.1160 C   0  0  0  0  0  0  0  0  0  0  0  0
   11.2939  -18.2357   22.3243 C   0  0  0  0  0  0  0  0  0  0  0  0
   11.9850  -17.3013   21.3466 C   0  0  2  0  0  0  0  0  0  0  0  0
   10.9207  -16.6146   20.6022 N   0  0  0  0  0  0  0  0  0  0  0  0
   12.7937  -18.1565   20.4485 C   0  0  0  0  0  0  0  0  0  0  0  0
   13.9550  -18.4508   20.8104 O   0  0  0  0  0  0  0  0  0  0  0  0
   12.3025  -18.6144   19.2656 O   0  0  0  0  0  0  0  0  0  0  0  0
  2  1  1  0
  3  2  2  0
  4  3  1  0
  5 11  1  0
  5  4  2  0
  6  5  1  0
  7  6  1  0
  7  8  1  1
  9  7  1  0
 10  9  2  0
 11 12  2  0
 12  2  1  0
 13  9  1  0
 13 17  1  0
 14 15  1  0
 14 13  1  0
 15 16  1  0
 16 17  1  0
 18 26  1  0
 17 18  1  1
 19 18  2  0
 20 21  1  0
 21 22  2  0
 23 24  1  0
 23 21  1  0
 25 24  1  1
 25 27  1  0
 25 26  1  0
 27 29  1  0
 28 27  2  0
M  END
$$$$
