RPF.pdb
     RDKit          3D

 30 31  0  0  1  0  0  0  0  0999 V2000
   25.1331  -16.6752  -18.2359 N   0  0  0  0  0  0  0  0  0  0  0  0
   24.7778  -15.4650  -17.6104 C   0  0  0  0  0  0  0  0  0  0  0  0
   24.4756  -14.4611  -18.3437 N   0  0  0  0  0  0  0  0  0  0  0  0
   24.7606  -15.3779  -16.1949 N   0  0  0  0  0  0  0  0  0  0  0  0
   24.8824  -16.5874  -15.4234 C   0  0  0  0  0  0  0  0  0  0  0  0
   23.5713  -17.0436  -14.8601 C   0  0  0  0  0  0  0  0  0  0  0  0
   23.6777  -18.3185  -14.0641 C   0  0  0  0  0  0  0  0  0  0  0  0
   24.5997  -19.3121  -14.7404 C   0  0  2  0  0  0  0  0  0  0  0  0
   23.7893  -20.0793  -15.7024 N   0  0  0  0  0  0  0  0  0  0  0  0
   25.1481  -20.2451  -13.7193 C   0  0  0  0  0  0  0  0  0  0  0  0
   24.3787  -21.1141  -13.2110 O   0  0  0  0  0  0  0  0  0  0  0  0
   24.2580  -13.5254  -17.9641 N   0  0  0  0  0  0  0  0  0  0  0  0
   26.4792  -20.1887  -13.3122 C   0  0  0  0  0  0  0  0  0  0  0  0
   27.5341  -19.3509  -13.8766 C   0  0  0  0  0  0  0  0  0  0  0  0
   28.7787  -20.2334  -13.7507 C   0  0  0  0  0  0  0  0  0  0  0  0
   28.5665  -20.7465  -12.3175 C   0  0  2  0  0  0  0  0  0  0  0  0
   27.0891  -20.9615  -12.2531 C   0  0  0  0  0  0  0  0  0  0  0  0
   26.4756  -20.7111  -10.9326 O   0  0  0  0  0  0  0  0  0  0  0  0
   25.9199  -19.5950  -10.7210 N   0  0  0  0  0  0  0  0  0  0  0  0
   26.4533  -21.6271   -9.8538 C   0  0  2  0  0  0  0  0  0  0  0  0
   26.6585  -21.2957   -8.4827 C   0  0  0  0  0  0  0  0  0  0  0  0
   27.7312  -20.3252   -8.1805 C   0  0  0  0  0  0  0  0  0  0  0  0
   27.9054  -19.9359   -6.7816 C   0  0  0  0  0  0  0  0  0  0  0  0
   28.3721  -18.6794   -6.4021 C   0  0  0  0  0  0  0  0  0  0  0  0
   28.5269  -18.2695   -5.1142 C   0  0  0  0  0  0  0  0  0  0  0  0
   28.2174  -19.1111   -4.0920 C   0  0  0  0  0  0  0  0  0  0  0  0
   27.7519  -20.3662   -4.4054 C   0  0  0  0  0  0  0  0  0  0  0  0
   27.5983  -20.7761   -5.6985 C   0  0  0  0  0  0  0  0  0  0  0  0
   25.3259  -20.7438   -7.9997 O   0  0  0  0  0  0  0  0  0  0  0  0
   24.8304  -21.2433   -6.8105 O   0  0  0  0  0  0  0  0  0  0  0  0
  2  1  1  0
  2  4  1  0
  3  2  2  0
  4  5  1  0
  5  6  1  0
  7  8  1  0
  7  6  1  0
  8  9  1  6
 10  8  1  0
 11 10  2  0
 12 16  1  0
 12 10  1  0
 13 12  1  0
 14 13  1  0
 14 15  1  0
 15 16  1  0
 17 19  1  0
 16 17  1  1
 18 17  2  0
 20 21  1  6
 20 19  1  0
 21 22  1  0
 22 27  1  0
 23 22  2  0
 23 24  1  0
 24 25  2  0
 25 26  1  0
 27 26  2  0
 28 29  1  0
 28 20  1  0
 30 28  2  0
M  END
$$$$
