RPF.pdb
     RDKit          3D

 30 31  0  0  1  0  0  0  0  0999 V2000
   22.1174  -16.9600  -15.7588 N   0  0  0  0  0  0  0  0  0  0  0  0
   22.6006  -15.6805  -15.4249 C   0  0  0  0  0  0  0  0  0  0  0  0
   21.7639  -14.7194  -15.3108 N   0  0  0  0  0  0  0  0  0  0  0  0
   23.9898  -15.4787  -15.2226 N   0  0  0  0  0  0  0  0  0  0  0  0
   24.8818  -16.6002  -15.3624 C   0  0  0  0  0  0  0  0  0  0  0  0
   25.2417  -17.2154  -14.0447 C   0  0  0  0  0  0  0  0  0  0  0  0
   26.6921  -17.6126  -13.9504 C   0  0  0  0  0  0  0  0  0  0  0  0
   26.8904  -19.0624  -14.3422 C   0  0  2  0  0  0  0  0  0  0  0  0
   25.7884  -19.4269  -15.2496 N   0  0  0  0  0  0  0  0  0  0  0  0
   26.8144  -19.9137  -13.1244 C   0  0  0  0  0  0  0  0  0  0  0  0
   25.6747  -20.2584  -12.6909 O   0  0  0  0  0  0  0  0  0  0  0  0
   22.0428  -13.7428  -15.1223 N   0  0  0  0  0  0  0  0  0  0  0  0
   27.9586  -20.3405  -12.4539 C   0  0  0  0  0  0  0  0  0  0  0  0
   29.3443  -20.1430  -12.8708 C   0  0  0  0  0  0  0  0  0  0  0  0
   30.0342  -21.4220  -12.3891 C   0  0  0  0  0  0  0  0  0  0  0  0
   29.4144  -21.5163  -10.9858 C   0  0  2  0  0  0  0  0  0  0  0  0
   28.0033  -21.0796  -11.2119 C   0  0  0  0  0  0  0  0  0  0  0  0
   27.3844  -20.3496  -10.0863 O   0  0  0  0  0  0  0  0  0  0  0  0
   28.0672  -19.4762   -9.4779 N   0  0  0  0  0  0  0  0  0  0  0  0
   26.0650  -20.5435   -9.6120 C   0  0  2  0  0  0  0  0  0  0  0  0
   25.7097  -20.9091   -8.2808 C   0  0  0  0  0  0  0  0  0  0  0  0
   25.9418  -19.9025   -7.2242 C   0  0  0  0  0  0  0  0  0  0  0  0
   27.1486  -20.0526   -6.4117 C   0  0  0  0  0  0  0  0  0  0  0  0
   28.2463  -19.2031   -6.5294 C   0  0  0  0  0  0  0  0  0  0  0  0
   29.3771  -19.2937   -5.7786 C   0  0  0  0  0  0  0  0  0  0  0  0
   29.4894  -20.2660   -4.8349 C   0  0  0  0  0  0  0  0  0  0  0  0
   28.4368  -21.1355   -4.6731 C   0  0  0  0  0  0  0  0  0  0  0  0
   27.3032  -21.0437   -5.4282 C   0  0  0  0  0  0  0  0  0  0  0  0
   24.2280  -21.2483   -8.3401 O   0  0  0  0  0  0  0  0  0  0  0  0
   23.6006  -21.1215   -9.5646 O   0  0  0  0  0  0  0  0  0  0  0  0
  2  1  1  0
  2  4  1  0
  3  2  2  0
  4  5  1  0
  5  6  1  0
  7  8  1  0
  7  6  1  0
  8  9  1  6
 10  8  1  0
 11 10  2  0
 12 16  1  0
 12 10  1  0
 13 12  1  0
 14 13  1  0
 14 15  1  0
 15 16  1  0
 17 19  1  0
 16 17  1  1
 18 17  2  0
 20 21  1  6
 20 19  1  0
 21 22  1  0
 22 27  1  0
 23 22  2  0
 23 24  1  0
 24 25  2  0
 25 26  1  0
 27 26  2  0
 28 29  1  0
 28 20  1  0
 30 28  2  0
M  END
$$$$
