RPF.pdb
     RDKit          3D

 30 31  0  0  1  0  0  0  0  0999 V2000
   18.7778  -25.6411  -12.6099 N   0  0  0  0  0  0  0  0  0  0  0  0
   18.7838  -26.0369  -13.9610 C   0  0  0  0  0  0  0  0  0  0  0  0
   17.7936  -26.7135  -14.4064 N   0  0  0  0  0  0  0  0  0  0  0  0
   19.8738  -25.6844  -14.7972 N   0  0  0  0  0  0  0  0  0  0  0  0
   20.9096  -24.8364  -14.2672 C   0  0  0  0  0  0  0  0  0  0  0  0
   20.5855  -23.3802  -14.4039 C   0  0  0  0  0  0  0  0  0  0  0  0
   21.8004  -22.5204  -14.6390 C   0  0  0  0  0  0  0  0  0  0  0  0
   22.1678  -21.7382  -13.3948 C   0  0  2  0  0  0  0  0  0  0  0  0
   21.0822  -20.7738  -13.1456 N   0  0  0  0  0  0  0  0  0  0  0  0
   23.4303  -20.9904  -13.6414 C   0  0  0  0  0  0  0  0  0  0  0  0
   23.3719  -19.8745  -14.2389 O   0  0  0  0  0  0  0  0  0  0  0  0
   17.7064  -27.0114  -15.3917 N   0  0  0  0  0  0  0  0  0  0  0  0
   24.6676  -21.4828  -13.2322 C   0  0  0  0  0  0  0  0  0  0  0  0
   24.9113  -22.5294  -12.2430 C   0  0  0  0  0  0  0  0  0  0  0  0
   26.2112  -22.0747  -11.5743 C   0  0  0  0  0  0  0  0  0  0  0  0
   27.0037  -21.6803  -12.8308 C   0  0  2  0  0  0  0  0  0  0  0  0
   25.9649  -21.0452  -13.6972 C   0  0  0  0  0  0  0  0  0  0  0  0
   26.1519  -21.2440  -15.1493 O   0  0  0  0  0  0  0  0  0  0  0  0
   25.8001  -22.3444  -15.6636 N   0  0  0  0  0  0  0  0  0  0  0  0
   26.7044  -20.2935  -16.0408 C   0  0  1  0  0  0  0  0  0  0  0  0
   26.8804  -20.4791  -17.4431 C   0  0  0  0  0  0  0  0  0  0  0  0
   25.6573  -20.6335  -18.2580 C   0  0  0  0  0  0  0  0  0  0  0  0
   24.6306  -19.6005  -18.1245 C   0  0  0  0  0  0  0  0  0  0  0  0
   24.7513  -18.3394  -18.7041 C   0  0  0  0  0  0  0  0  0  0  0  0
   23.8113  -17.3593  -18.6236 C   0  0  0  0  0  0  0  0  0  0  0  0
   22.6571  -17.5800  -17.9396 C   0  0  0  0  0  0  0  0  0  0  0  0
   22.4816  -18.8072  -17.3452 C   0  0  0  0  0  0  0  0  0  0  0  0
   23.4264  -19.7892  -17.4261 C   0  0  0  0  0  0  0  0  0  0  0  0
   27.6524  -19.2565  -17.9156 O   0  0  0  0  0  0  0  0  0  0  0  0
   28.1744  -19.2958  -19.1944 O   0  0  0  0  0  0  0  0  0  0  0  0
  2  1  1  0
  2  4  1  0
  3  2  2  0
  4  5  1  0
  5  6  1  0
  7  8  1  0
  7  6  1  0
  8  9  1  6
 10  8  1  0
 11 10  2  0
 12 16  1  0
 12 10  1  0
 13 12  1  0
 14 13  1  0
 14 15  1  0
 15 16  1  0
 17 19  1  0
 16 17  1  1
 18 17  2  0
 20 21  1  6
 20 19  1  0
 21 22  1  0
 22 27  1  0
 23 22  2  0
 23 24  1  0
 24 25  2  0
 25 26  1  0
 27 26  2  0
 28 29  1  0
 28 20  1  0
 30 28  2  0
M  END
$$$$
