RPF.pdb
     RDKit          3D

 30 31  0  0  1  0  0  0  0  0999 V2000
   31.9083  -22.2336  -11.1092 N   0  0  0  0  0  0  0  0  0  0  0  0
   31.4185  -22.3402   -9.7936 C   0  0  0  0  0  0  0  0  0  0  0  0
   32.2466  -22.2558   -8.8220 N   0  0  0  0  0  0  0  0  0  0  0  0
   30.0322  -22.5371   -9.5679 N   0  0  0  0  0  0  0  0  0  0  0  0
   29.0974  -22.1129  -10.5773 C   0  0  0  0  0  0  0  0  0  0  0  0
   27.6728  -22.3351  -10.1704 C   0  0  0  0  0  0  0  0  0  0  0  0
   26.6795  -21.8529  -11.1957 C   0  0  0  0  0  0  0  0  0  0  0  0
   26.5550  -20.3434  -11.1713 C   0  0  2  0  0  0  0  0  0  0  0  0
   25.6537  -19.9949  -10.0592 N   0  0  0  0  0  0  0  0  0  0  0  0
   25.9469  -19.8814  -12.4482 C   0  0  0  0  0  0  0  0  0  0  0  0
   24.6926  -19.7092  -12.4996 O   0  0  0  0  0  0  0  0  0  0  0  0
   31.9695  -22.3403   -7.8305 N   0  0  0  0  0  0  0  0  0  0  0  0
   26.7182  -19.6327  -13.5814 C   0  0  0  0  0  0  0  0  0  0  0  0
   28.1725  -19.7151  -13.6878 C   0  0  0  0  0  0  0  0  0  0  0  0
   28.5091  -18.5955  -14.6763 C   0  0  0  0  0  0  0  0  0  0  0  0
   27.4122  -18.8579  -15.7205 C   0  0  2  0  0  0  0  0  0  0  0  0
   26.2321  -19.2284  -14.8819 C   0  0  0  0  0  0  0  0  0  0  0  0
   25.3185  -20.2193  -15.4873 O   0  0  0  0  0  0  0  0  0  0  0  0
   25.5987  -21.4482  -15.3852 N   0  0  0  0  0  0  0  0  0  0  0  0
   24.1292  -19.9128  -16.1909 C   0  0  1  0  0  0  0  0  0  0  0  0
   23.2230  -20.8668  -16.7390 C   0  0  0  0  0  0  0  0  0  0  0  0
   22.0480  -21.2249  -15.9174 C   0  0  0  0  0  0  0  0  0  0  0  0
   21.3335  -20.1309  -15.2604 C   0  0  0  0  0  0  0  0  0  0  0  0
   20.3654  -19.3672  -15.9084 C   0  0  0  0  0  0  0  0  0  0  0  0
   19.6623  -18.3574  -15.3283 C   0  0  0  0  0  0  0  0  0  0  0  0
   19.8864  -18.0345  -14.0266 C   0  0  0  0  0  0  0  0  0  0  0  0
   20.8318  -18.7542  -13.3348 C   0  0  0  0  0  0  0  0  0  0  0  0
   21.5371  -19.7665  -13.9191 C   0  0  0  0  0  0  0  0  0  0  0  0
   22.7555  -20.2655  -18.0557 O   0  0  0  0  0  0  0  0  0  0  0  0
   23.1871  -18.9870  -18.3535 O   0  0  0  0  0  0  0  0  0  0  0  0
  2  1  1  0
  2  4  1  0
  3  2  2  0
  4  5  1  0
  5  6  1  0
  7  8  1  0
  7  6  1  0
  8  9  1  1
 10  8  1  0
 11 10  2  0
 12 16  1  0
 12 10  1  0
 13 12  1  0
 14 13  1  0
 14 15  1  0
 15 16  1  0
 17 19  1  0
 16 17  1  6
 18 17  2  0
 20 21  1  6
 20 19  1  0
 21 22  1  0
 22 27  1  0
 23 22  2  0
 23 24  1  0
 24 25  2  0
 25 26  1  0
 27 26  2  0
 28 29  1  0
 28 20  1  0
 30 28  2  0
M  END
$$$$
