RPF.pdb
     RDKit          3D

 30 31  0  0  1  0  0  0  0  0999 V2000
   21.1082  -22.7675  -18.2479 N   0  0  0  0  0  0  0  0  0  0  0  0
   21.8513  -21.8173  -18.9739 C   0  0  0  0  0  0  0  0  0  0  0  0
   21.7990  -21.8438  -20.2519 N   0  0  0  0  0  0  0  0  0  0  0  0
   22.6369  -20.8573  -18.2863 N   0  0  0  0  0  0  0  0  0  0  0  0
   22.4437  -20.6881  -16.8697 C   0  0  0  0  0  0  0  0  0  0  0  0
   22.4768  -21.9884  -16.1263 C   0  0  0  0  0  0  0  0  0  0  0  0
   23.3841  -21.9627  -14.9237 C   0  0  0  0  0  0  0  0  0  0  0  0
   24.8280  -22.1910  -15.3209 C   0  0  2  0  0  0  0  0  0  0  0  0
   24.9290  -23.5666  -15.8387 N   0  0  0  0  0  0  0  0  0  0  0  0
   25.6931  -22.0638  -14.1171 C   0  0  0  0  0  0  0  0  0  0  0  0
   25.8136  -23.0607  -13.3441 O   0  0  0  0  0  0  0  0  0  0  0  0
   22.3335  -21.1985  -20.8559 N   0  0  0  0  0  0  0  0  0  0  0  0
   26.3718  -20.8836  -13.8215 C   0  0  0  0  0  0  0  0  0  0  0  0
   26.4795  -19.6984  -14.6681 C   0  0  0  0  0  0  0  0  0  0  0  0
   27.8861  -19.1801  -14.3570 C   0  0  0  0  0  0  0  0  0  0  0  0
   27.8610  -19.3185  -12.8265 C   0  0  2  0  0  0  0  0  0  0  0  0
   27.1200  -20.5992  -12.6172 C   0  0  0  0  0  0  0  0  0  0  0  0
   26.2873  -20.6503  -11.3979 O   0  0  0  0  0  0  0  0  0  0  0  0
   25.0637  -20.3423  -11.4826 N   0  0  0  0  0  0  0  0  0  0  0  0
   26.7441  -21.0193  -10.1101 C   0  0  2  0  0  0  0  0  0  0  0  0
   25.9176  -21.2303   -8.9680 C   0  0  0  0  0  0  0  0  0  0  0  0
   26.5873  -21.6756   -7.7283 C   0  0  0  0  0  0  0  0  0  0  0  0
   27.4469  -20.7073   -7.0482 C   0  0  0  0  0  0  0  0  0  0  0  0
   26.9531  -19.5459   -6.4582 C   0  0  0  0  0  0  0  0  0  0  0  0
   27.7136  -18.6320   -5.7973 C   0  0  0  0  0  0  0  0  0  0  0  0
   29.0546  -18.8227   -5.6791 C   0  0  0  0  0  0  0  0  0  0  0  0
   29.5998  -19.9522   -6.2423 C   0  0  0  0  0  0  0  0  0  0  0  0
   28.8352  -20.8678   -6.9062 C   0  0  0  0  0  0  0  0  0  0  0  0
   25.2284  -19.8971   -8.7200 O   0  0  0  0  0  0  0  0  0  0  0  0
   25.8555  -18.7639   -9.2018 O   0  0  0  0  0  0  0  0  0  0  0  0
  2  1  1  0
  2  4  1  0
  3  2  2  0
  4  5  1  0
  5  6  1  0
  7  8  1  0
  7  6  1  0
  8  9  1  1
 10  8  1  0
 11 10  2  0
 12 16  1  0
 12 10  1  0
 13 12  1  0
 14 13  1  0
 14 15  1  0
 15 16  1  0
 17 19  1  0
 16 17  1  1
 18 17  2  0
 20 21  1  6
 20 19  1  0
 21 22  1  0
 22 27  1  0
 23 22  2  0
 23 24  1  0
 24 25  2  0
 25 26  1  0
 27 26  2  0
 28 29  1  0
 28 20  1  0
 30 28  2  0
M  END
$$$$
