RPF.pdb
     RDKit          3D

 30 31  0  0  1  0  0  0  0  0999 V2000
   25.4767  -14.7137  -16.6684 N   0  0  0  0  0  0  0  0  0  0  0  0
   26.3150  -15.7336  -17.1574 C   0  0  0  0  0  0  0  0  0  0  0  0
   26.6062  -15.7438  -18.4031 N   0  0  0  0  0  0  0  0  0  0  0  0
   26.8175  -16.7221  -16.2730 N   0  0  0  0  0  0  0  0  0  0  0  0
   26.4363  -16.6707  -14.8856 C   0  0  0  0  0  0  0  0  0  0  0  0
   26.7613  -17.9368  -14.1536 C   0  0  0  0  0  0  0  0  0  0  0  0
   27.2542  -19.0366  -15.0581 C   0  0  0  0  0  0  0  0  0  0  0  0
   27.4654  -20.3251  -14.2900 C   0  0  2  0  0  0  0  0  0  0  0  0
   27.9958  -21.3200  -15.2385 N   0  0  0  0  0  0  0  0  0  0  0  0
   26.1570  -20.8048  -13.7689 C   0  0  0  0  0  0  0  0  0  0  0  0
   25.3254  -21.3107  -14.5802 O   0  0  0  0  0  0  0  0  0  0  0  0
   27.1766  -16.4816  -18.8472 N   0  0  0  0  0  0  0  0  0  0  0  0
   25.8262  -20.7142  -12.4186 C   0  0  0  0  0  0  0  0  0  0  0  0
   26.6472  -20.1497  -11.3506 C   0  0  0  0  0  0  0  0  0  0  0  0
   26.3013  -21.0318  -10.1481 C   0  0  0  0  0  0  0  0  0  0  0  0
   24.7745  -21.0822  -10.3172 C   0  0  2  0  0  0  0  0  0  0  0  0
   24.6037  -21.1749  -11.7989 C   0  0  0  0  0  0  0  0  0  0  0  0
   23.4003  -20.5059  -12.3348 O   0  0  0  0  0  0  0  0  0  0  0  0
   23.4033  -19.2464  -12.4484 N   0  0  0  0  0  0  0  0  0  0  0  0
   22.2130  -21.1604  -12.7414 C   0  0  1  0  0  0  0  0  0  0  0  0
   20.9948  -20.5148  -13.1033 C   0  0  0  0  0  0  0  0  0  0  0  0
   20.6284  -20.5277  -14.5349 C   0  0  0  0  0  0  0  0  0  0  0  0
   21.5545  -19.8860  -15.4675 C   0  0  0  0  0  0  0  0  0  0  0  0
   22.7532  -20.4750  -15.8635 C   0  0  0  0  0  0  0  0  0  0  0  0
   23.6306  -19.9235  -16.7447 C   0  0  0  0  0  0  0  0  0  0  0  0
   23.3615  -18.7136  -17.3036 C   0  0  0  0  0  0  0  0  0  0  0  0
   22.1919  -18.0832  -16.9501 C   0  0  0  0  0  0  0  0  0  0  0  0
   21.3131  -18.6377  -16.0648 C   0  0  0  0  0  0  0  0  0  0  0  0
   19.9132  -21.2186  -12.2978 O   0  0  0  0  0  0  0  0  0  0  0  0
   18.6669  -20.6231  -12.2602 O   0  0  0  0  0  0  0  0  0  0  0  0
  2  1  1  0
  2  4  1  0
  3  2  2  0
  4  5  1  0
  5  6  1  0
  7  8  1  0
  7  6  1  0
  8  9  1  6
 10  8  1  0
 11 10  2  0
 12 16  1  0
 12 10  1  0
 13 12  1  0
 14 13  1  0
 14 15  1  0
 15 16  1  0
 17 19  1  0
 16 17  1  1
 18 17  2  0
 20 21  1  1
 20 19  1  0
 21 22  1  0
 22 27  1  0
 23 22  2  0
 23 24  1  0
 24 25  2  0
 25 26  1  0
 27 26  2  0
 28 29  1  0
 28 20  1  0
 30 28  2  0
M  END
$$$$
