RPF.pdb
     RDKit          3D

 30 31  0  0  1  0  0  0  0  0999 V2000
   24.4675  -25.2921  -14.5719 N   0  0  0  0  0  0  0  0  0  0  0  0
   25.1581  -24.2711  -15.2521 C   0  0  0  0  0  0  0  0  0  0  0  0
   25.8069  -24.5709  -16.3131 N   0  0  0  0  0  0  0  0  0  0  0  0
   25.1246  -22.9424  -14.7571 N   0  0  0  0  0  0  0  0  0  0  0  0
   25.8159  -21.9119  -15.4871 C   0  0  0  0  0  0  0  0  0  0  0  0
   24.9603  -20.7058  -15.7273 C   0  0  0  0  0  0  0  0  0  0  0  0
   24.1916  -20.7705  -17.0216 C   0  0  0  0  0  0  0  0  0  0  0  0
   23.2484  -19.5931  -17.1589 C   0  0  2  0  0  0  0  0  0  0  0  0
   23.8928  -18.4363  -16.5132 N   0  0  0  0  0  0  0  0  0  0  0  0
   21.9780  -19.8976  -16.4468 C   0  0  0  0  0  0  0  0  0  0  0  0
   21.8272  -19.4768  -15.2611 O   0  0  0  0  0  0  0  0  0  0  0  0
   26.2637  -23.8685  -16.9172 N   0  0  0  0  0  0  0  0  0  0  0  0
   20.9553  -20.6276  -17.0484 C   0  0  0  0  0  0  0  0  0  0  0  0
   20.9278  -21.1337  -18.4182 C   0  0  0  0  0  0  0  0  0  0  0  0
   19.4488  -21.0209  -18.7970 C   0  0  0  0  0  0  0  0  0  0  0  0
   18.8265  -21.5833  -17.5090 C   0  0  2  0  0  0  0  0  0  0  0  0
   19.7046  -21.0211  -16.4386 C   0  0  0  0  0  0  0  0  0  0  0  0
   19.8894  -21.8899  -15.2579 O   0  0  0  0  0  0  0  0  0  0  0  0
   20.8431  -22.7203  -15.2561 N   0  0  0  0  0  0  0  0  0  0  0  0
   19.0758  -21.8804  -14.0998 C   0  0  1  0  0  0  0  0  0  0  0  0
   19.2850  -22.6752  -12.9351 C   0  0  0  0  0  0  0  0  0  0  0  0
   20.3782  -22.2639  -12.0299 C   0  0  0  0  0  0  0  0  0  0  0  0
   20.3483  -20.8909  -11.5267 C   0  0  0  0  0  0  0  0  0  0  0  0
   21.3703  -20.3515  -10.7487 C   0  0  0  0  0  0  0  0  0  0  0  0
   21.3925  -19.0746  -10.2803 C   0  0  0  0  0  0  0  0  0  0  0  0
   20.3669  -18.2287  -10.5657 C   0  0  0  0  0  0  0  0  0  0  0  0
   19.3284  -18.7055  -11.3302 C   0  0  0  0  0  0  0  0  0  0  0  0
   19.3073  -19.9877  -11.7985 C   0  0  0  0  0  0  0  0  0  0  0  0
   17.9638  -22.6389  -12.1822 O   0  0  0  0  0  0  0  0  0  0  0  0
   17.8031  -23.5399  -11.1469 O   0  0  0  0  0  0  0  0  0  0  0  0
  2  1  1  0
  2  4  1  0
  3  2  2  0
  4  5  1  0
  5  6  1  0
  7  8  1  0
  7  6  1  0
  8  9  1  1
 10  8  1  0
 11 10  2  0
 12 16  1  0
 12 10  1  0
 13 12  1  0
 14 13  1  0
 14 15  1  0
 15 16  1  0
 17 19  1  0
 16 17  1  6
 18 17  2  0
 20 21  1  1
 20 19  1  0
 21 22  1  0
 22 27  1  0
 23 22  2  0
 23 24  1  0
 24 25  2  0
 25 26  1  0
 27 26  2  0
 28 29  1  0
 28 20  1  0
 30 28  2  0
M  END
$$$$
