EYY.pdb
     RDKit          3D

 34 35  0  0  1  0  0  0  0  0999 V2000
   23.8908  -16.7313  -20.8144 N   0  0  0  0  0  0  0  0  0  0  0  0
   24.4104  -17.7871  -19.9192 C   0  0  1  0  0  0  0  0  0  0  0  0
   25.6723  -17.2324  -19.3425 C   0  0  0  0  0  0  0  0  0  0  0  0
   26.8640  -17.2502  -20.2278 C   0  0  0  0  0  0  0  0  0  0  0  0
   27.3309  -18.6594  -20.3407 C   0  0  0  0  0  0  0  0  0  0  0  0
   27.5096  -19.4161  -19.3591 O   0  0  0  0  0  0  0  0  0  0  0  0
   23.4275  -17.9977  -18.8081 C   0  0  0  0  0  0  0  0  0  0  0  0
   22.9422  -17.0519  -18.1569 O   0  0  0  0  0  0  0  0  0  0  0  0
   27.6031  -19.2294  -21.5949 O   0  0  0  0  0  0  0  0  0  0  0  0
   16.9266  -21.8885  -14.1905 O   0  0  0  0  0  0  0  0  0  0  0  0
   17.8729  -21.4730  -15.0947 C   0  0  0  0  0  0  0  0  0  0  0  0
   18.9172  -22.2769  -15.4557 C   0  0  0  0  0  0  0  0  0  0  0  0
   19.8591  -21.8478  -16.3626 C   0  0  0  0  0  0  0  0  0  0  0  0
   19.8081  -20.6007  -16.9550 C   0  0  0  0  0  0  0  0  0  0  0  0
   20.8437  -20.1979  -17.9404 C   0  0  0  0  0  0  0  0  0  0  0  0
   22.0369  -19.5518  -17.3660 C   0  0  2  0  0  0  0  0  0  0  0  0
   23.0038  -19.3108  -18.4457 N   0  0  0  0  0  0  0  0  0  0  0  0
   22.6610  -20.1593  -16.1965 C   0  0  0  0  0  0  0  0  0  0  0  0
   23.4180  -21.1653  -16.3858 O   0  0  0  0  0  0  0  0  0  0  0  0
   18.7578  -19.7943  -16.5933 C   0  0  0  0  0  0  0  0  0  0  0  0
   17.8160  -20.2103  -15.6912 C   0  0  0  0  0  0  0  0  0  0  0  0
   26.5615  -21.6179   -8.4331 O   0  0  0  0  0  0  0  0  0  0  0  0
   25.9475  -21.0942   -9.5590 C   0  0  0  0  0  0  0  0  0  0  0  0
   24.7374  -20.4183   -9.4905 C   0  0  0  0  0  0  0  0  0  0  0  0
   24.1443  -19.9070  -10.6258 C   0  0  0  0  0  0  0  0  0  0  0  0
   24.7152  -20.0362  -11.8900 C   0  0  0  0  0  0  0  0  0  0  0  0
   24.0698  -19.4828  -13.1010 C   0  0  0  0  0  0  0  0  0  0  0  0
   23.0648  -20.4084  -13.7216 C   0  0  2  0  0  0  0  0  0  0  0  0
   22.5003  -19.7265  -14.8642 N   0  0  0  0  0  0  0  0  0  0  0  0
   22.0871  -20.9735  -12.8073 C   0  0  0  0  0  0  0  0  0  0  0  0
   21.0796  -20.2906  -12.4638 O   0  0  0  0  0  0  0  0  0  0  0  0
   25.9174  -20.7090  -11.9526 C   0  0  0  0  0  0  0  0  0  0  0  0
   26.5131  -21.2222  -10.8123 C   0  0  0  0  0  0  0  0  0  0  0  0
   22.1698  -22.2443  -12.2620 O   0  0  0  0  0  0  0  0  0  0  0  0
  2  1  1  6
  2  3  1  0
  3  4  1  0
  4  5  1  0
  5  9  1  0
  5  6  2  0
  7  8  2  0
  7  2  1  0
 10 11  1  0
 11 21  2  0
 12 11  1  0
 12 13  2  0
 13 14  1  0
 14 20  2  0
 14 15  1  0
 16 15  1  6
 16 17  1  0
 17  7  1  0
 18 16  1  0
 19 18  2  0
 21 20  1  0
 23 24  2  0
 23 22  1  0
 25 24  1  0
 26 25  2  0
 27 26  1  0
 28 27  1  1
 28 30  1  0
 28 29  1  0
 29 18  1  0
 30 34  1  0
 31 30  2  0
 32 26  1  0
 32 33  2  0
 33 23  1  0
M  END
$$$$
