EYY.pdb
     RDKit          3D

 34 35  0  0  1  0  0  0  0  0999 V2000
   19.5671  -32.2578  -15.6139 N   0  0  0  0  0  0  0  0  0  0  0  0
   19.8115  -32.5154  -14.1787 C   0  0  1  0  0  0  0  0  0  0  0  0
   18.6924  -33.4024  -13.7389 C   0  0  0  0  0  0  0  0  0  0  0  0
   18.6753  -34.7726  -14.3101 C   0  0  0  0  0  0  0  0  0  0  0  0
   18.7145  -35.7415  -13.1803 C   0  0  0  0  0  0  0  0  0  0  0  0
   17.8077  -35.8518  -12.3238 O   0  0  0  0  0  0  0  0  0  0  0  0
   21.1009  -33.2660  -14.0408 C   0  0  0  0  0  0  0  0  0  0  0  0
   21.4226  -34.1895  -14.8140 O   0  0  0  0  0  0  0  0  0  0  0  0
   19.8062  -36.6087  -13.0131 O   0  0  0  0  0  0  0  0  0  0  0  0
   25.1569  -30.8216  -18.2949 O   0  0  0  0  0  0  0  0  0  0  0  0
   24.9811  -31.2822  -17.0133 C   0  0  0  0  0  0  0  0  0  0  0  0
   24.2068  -30.6076  -16.1119 C   0  0  0  0  0  0  0  0  0  0  0  0
   24.0396  -31.0799  -14.8302 C   0  0  0  0  0  0  0  0  0  0  0  0
   24.6323  -32.2451  -14.3831 C   0  0  0  0  0  0  0  0  0  0  0  0
   24.4022  -32.7155  -12.9934 C   0  0  0  0  0  0  0  0  0  0  0  0
   23.2923  -33.6711  -12.8316 C   0  0  2  0  0  0  0  0  0  0  0  0
   22.0244  -32.9484  -13.0009 N   0  0  0  0  0  0  0  0  0  0  0  0
   23.2809  -34.5298  -11.6531 C   0  0  0  0  0  0  0  0  0  0  0  0
   22.6831  -34.1003  -10.6143 O   0  0  0  0  0  0  0  0  0  0  0  0
   25.4086  -32.9233  -15.2896 C   0  0  0  0  0  0  0  0  0  0  0  0
   25.5829  -32.4619  -16.5666 C   0  0  0  0  0  0  0  0  0  0  0  0
   23.8188  -41.7132   -6.4132 O   0  0  0  0  0  0  0  0  0  0  0  0
   23.8327  -40.8203   -7.4723 C   0  0  0  0  0  0  0  0  0  0  0  0
   22.6758  -40.2106   -7.9366 C   0  0  0  0  0  0  0  0  0  0  0  0
   22.7144  -39.3261   -8.9941 C   0  0  0  0  0  0  0  0  0  0  0  0
   23.8986  -38.9965   -9.6496 C   0  0  0  0  0  0  0  0  0  0  0  0
   23.9279  -38.0454  -10.7828 C   0  0  0  0  0  0  0  0  0  0  0  0
   23.8853  -36.6063  -10.3596 C   0  0  2  0  0  0  0  0  0  0  0  0
   23.8766  -35.8046  -11.5623 N   0  0  0  0  0  0  0  0  0  0  0  0
   24.8797  -36.2143   -9.3754 C   0  0  0  0  0  0  0  0  0  0  0  0
   24.8861  -36.7623   -8.2357 O   0  0  0  0  0  0  0  0  0  0  0  0
   25.0453  -39.6054   -9.1846 C   0  0  0  0  0  0  0  0  0  0  0  0
   25.0064  -40.4935   -8.1224 C   0  0  0  0  0  0  0  0  0  0  0  0
   25.8570  -35.2562   -9.5903 O   0  0  0  0  0  0  0  0  0  0  0  0
  2  1  1  6
  2  3  1  0
  3  4  1  0
  4  5  1  0
  5  9  1  0
  5  6  2  0
  7  8  2  0
  7  2  1  0
 10 11  1  0
 11 21  2  0
 12 11  1  0
 12 13  2  0
 13 14  1  0
 14 20  2  0
 14 15  1  0
 16 15  1  1
 16 17  1  0
 17  7  1  0
 18 16  1  0
 19 18  2  0
 21 20  1  0
 23 24  2  0
 23 22  1  0
 25 24  1  0
 26 25  2  0
 27 26  1  0
 28 27  1  6
 28 30  1  0
 28 29  1  0
 29 18  1  0
 30 34  1  0
 31 30  2  0
 32 26  1  0
 32 33  2  0
 33 23  1  0
M  END
$$$$
