EYY.pdb
     RDKit          3D

 34 35  0  0  1  0  0  0  0  0999 V2000
   20.9293   -0.5022  -16.7451 N   0  0  0  0  0  0  0  0  0  0  0  0
   20.2647   -1.2830  -15.6800 C   0  0  1  0  0  0  0  0  0  0  0  0
   18.8014   -1.0477  -15.8702 C   0  0  0  0  0  0  0  0  0  0  0  0
   18.0974   -0.3518  -14.7637 C   0  0  0  0  0  0  0  0  0  0  0  0
   18.5248    1.0744  -14.7728 C   0  0  0  0  0  0  0  0  0  0  0  0
   19.0206    1.6606  -13.7836 O   0  0  0  0  0  0  0  0  0  0  0  0
   20.5497   -2.7367  -15.9046 C   0  0  0  0  0  0  0  0  0  0  0  0
   20.4190   -3.2789  -17.0195 O   0  0  0  0  0  0  0  0  0  0  0  0
   18.3889    1.8593  -15.9292 O   0  0  0  0  0  0  0  0  0  0  0  0
   23.8156  -10.8848  -14.5784 O   0  0  0  0  0  0  0  0  0  0  0  0
   23.4816   -9.5555  -14.4956 C   0  0  0  0  0  0  0  0  0  0  0  0
   23.9734   -8.6390  -15.3819 C   0  0  0  0  0  0  0  0  0  0  0  0
   23.6312   -7.3095  -15.2871 C   0  0  0  0  0  0  0  0  0  0  0  0
   22.7834   -6.8270  -14.3087 C   0  0  0  0  0  0  0  0  0  0  0  0
   22.4356   -5.3838  -14.2657 C   0  0  0  0  0  0  0  0  0  0  0  0
   21.2163   -5.0114  -15.0044 C   0  0  2  0  0  0  0  0  0  0  0  0
   20.9872   -3.5703  -14.8327 N   0  0  0  0  0  0  0  0  0  0  0  0
   20.0036   -5.7898  -14.7815 C   0  0  0  0  0  0  0  0  0  0  0  0
   19.3057   -5.5154  -13.7526 O   0  0  0  0  0  0  0  0  0  0  0  0
   22.2882   -7.7484  -13.4198 C   0  0  0  0  0  0  0  0  0  0  0  0
   22.6231   -9.0730  -13.5038 C   0  0  0  0  0  0  0  0  0  0  0  0
   12.5837  -10.4529  -15.4973 O   0  0  0  0  0  0  0  0  0  0  0  0
   13.7313   -9.7006  -15.6880 C   0  0  0  0  0  0  0  0  0  0  0  0
   14.6729  -10.0260  -16.6541 C   0  0  0  0  0  0  0  0  0  0  0  0
   15.8089   -9.2627  -16.8241 C   0  0  0  0  0  0  0  0  0  0  0  0
   16.0754   -8.1366  -16.0484 C   0  0  0  0  0  0  0  0  0  0  0  0
   17.2975   -7.3247  -16.2405 C   0  0  0  0  0  0  0  0  0  0  0  0
   18.4032   -7.6697  -15.2862 C   0  0  2  0  0  0  0  0  0  0  0  0
   19.5311   -6.8265  -15.6121 N   0  0  0  0  0  0  0  0  0  0  0  0
   18.7145   -9.0846  -15.1750 C   0  0  0  0  0  0  0  0  0  0  0  0
   18.0183   -9.8238  -14.4213 O   0  0  0  0  0  0  0  0  0  0  0  0
   15.1369   -7.8179  -15.0896 C   0  0  0  0  0  0  0  0  0  0  0  0
   13.9958   -8.5844  -14.9192 C   0  0  0  0  0  0  0  0  0  0  0  0
   19.7471   -9.7133  -15.8513 O   0  0  0  0  0  0  0  0  0  0  0  0
  2  1  1  6
  2  3  1  0
  3  4  1  0
  4  5  1  0
  5  9  1  0
  5  6  2  0
  7  8  2  0
  7  2  1  0
 10 11  1  0
 11 21  2  0
 12 11  1  0
 12 13  2  0
 13 14  1  0
 14 20  2  0
 14 15  1  0
 16 15  1  1
 16 17  1  0
 17  7  1  0
 18 16  1  0
 19 18  2  0
 21 20  1  0
 23 24  2  0
 23 22  1  0
 25 24  1  0
 26 25  2  0
 27 26  1  0
 28 27  1  6
 28 30  1  0
 28 29  1  0
 29 18  1  0
 30 34  1  0
 31 30  2  0
 32 26  1  0
 32 33  2  0
 33 23  1  0
M  END
$$$$
