EYY.pdb
     RDKit          3D

 34 35  0  0  1  0  0  0  0  0999 V2000
   28.0755  -23.8590  -17.3490 N   0  0  0  0  0  0  0  0  0  0  0  0
   28.0250  -25.1911  -17.9885 C   0  0  1  0  0  0  0  0  0  0  0  0
   29.2828  -25.8802  -17.5691 C   0  0  0  0  0  0  0  0  0  0  0  0
   30.5469  -25.3428  -18.1325 C   0  0  0  0  0  0  0  0  0  0  0  0
   31.6577  -26.2355  -17.7013 C   0  0  0  0  0  0  0  0  0  0  0  0
   32.8418  -26.1137  -18.0901 O   0  0  0  0  0  0  0  0  0  0  0  0
   26.8564  -25.9449  -17.4307 C   0  0  0  0  0  0  0  0  0  0  0  0
   26.5955  -25.9667  -16.2118 O   0  0  0  0  0  0  0  0  0  0  0  0
   31.4256  -27.2935  -16.8077 O   0  0  0  0  0  0  0  0  0  0  0  0
   18.9348  -29.9065  -17.0911 O   0  0  0  0  0  0  0  0  0  0  0  0
   20.0738  -29.2313  -17.4548 C   0  0  0  0  0  0  0  0  0  0  0  0
   20.4334  -28.0598  -16.8502 C   0  0  0  0  0  0  0  0  0  0  0  0
   21.5773  -27.3928  -17.2250 C   0  0  0  0  0  0  0  0  0  0  0  0
   22.4190  -27.8580  -18.2169 C   0  0  0  0  0  0  0  0  0  0  0  0
   23.6497  -27.1042  -18.5675 C   0  0  0  0  0  0  0  0  0  0  0  0
   24.8413  -27.4456  -17.7709 C   0  0  2  0  0  0  0  0  0  0  0  0
   25.9843  -26.6802  -18.2872 N   0  0  0  0  0  0  0  0  0  0  0  0
   25.1672  -28.8536  -17.5764 C   0  0  0  0  0  0  0  0  0  0  0  0
   25.7705  -29.4569  -18.5215 O   0  0  0  0  0  0  0  0  0  0  0  0
   22.0583  -29.0358  -18.8226 C   0  0  0  0  0  0  0  0  0  0  0  0
   20.9220  -29.7069  -18.4588 C   0  0  0  0  0  0  0  0  0  0  0  0
   26.9731  -36.5984  -13.5612 O   0  0  0  0  0  0  0  0  0  0  0  0
   26.6292  -35.2912  -13.8648 C   0  0  0  0  0  0  0  0  0  0  0  0
   25.3186  -34.8400  -13.7967 C   0  0  0  0  0  0  0  0  0  0  0  0
   25.0002  -33.5340  -14.1055 C   0  0  0  0  0  0  0  0  0  0  0  0
   25.9600  -32.6038  -14.4983 C   0  0  0  0  0  0  0  0  0  0  0  0
   25.6065  -31.2050  -14.8266 C   0  0  0  0  0  0  0  0  0  0  0  0
   25.2247  -31.0039  -16.2639 C   0  0  2  0  0  0  0  0  0  0  0  0
   24.8724  -29.6113  -16.4245 N   0  0  0  0  0  0  0  0  0  0  0  0
   24.2471  -31.9423  -16.7883 C   0  0  0  0  0  0  0  0  0  0  0  0
   24.6360  -32.9819  -17.3943 O   0  0  0  0  0  0  0  0  0  0  0  0
   27.2606  -33.0574  -14.5648 C   0  0  0  0  0  0  0  0  0  0  0  0
   27.5803  -34.3689  -14.2543 C   0  0  0  0  0  0  0  0  0  0  0  0
   22.8752  -31.7872  -16.6743 O   0  0  0  0  0  0  0  0  0  0  0  0
  2  1  1  1
  2  3  1  0
  3  4  1  0
  4  5  1  0
  5  9  1  0
  5  6  2  0
  7  8  2  0
  7  2  1  0
 10 11  1  0
 11 21  2  0
 12 11  1  0
 12 13  2  0
 13 14  1  0
 14 20  2  0
 14 15  1  0
 16 15  1  6
 16 17  1  0
 17  7  1  0
 18 16  1  0
 19 18  2  0
 21 20  1  0
 23 24  2  0
 23 22  1  0
 25 24  1  0
 26 25  2  0
 27 26  1  0
 28 27  1  1
 28 30  1  0
 28 29  1  0
 29 18  1  0
 30 34  1  0
 31 30  2  0
 32 26  1  0
 32 33  2  0
 33 23  1  0
M  END
$$$$
