EYY.pdb
     RDKit          3D

 34 35  0  0  1  0  0  0  0  0999 V2000
   32.6959  -22.7213  -21.2888 N   0  0  0  0  0  0  0  0  0  0  0  0
   31.8811  -21.8717  -20.3942 C   0  0  1  0  0  0  0  0  0  0  0  0
   31.2015  -20.8888  -21.2912 C   0  0  0  0  0  0  0  0  0  0  0  0
   32.0736  -19.8782  -21.9410 C   0  0  0  0  0  0  0  0  0  0  0  0
   31.1973  -18.8773  -22.6095 C   0  0  0  0  0  0  0  0  0  0  0  0
   31.1017  -18.7529  -23.8519 O   0  0  0  0  0  0  0  0  0  0  0  0
   30.8378  -22.7271  -19.7423 C   0  0  0  0  0  0  0  0  0  0  0  0
   30.3231  -23.7070  -20.3159 O   0  0  0  0  0  0  0  0  0  0  0  0
   30.4082  -17.9937  -21.8556 O   0  0  0  0  0  0  0  0  0  0  0  0
   34.0048  -27.7334  -17.5645 O   0  0  0  0  0  0  0  0  0  0  0  0
   33.0287  -26.8015  -17.3109 C   0  0  0  0  0  0  0  0  0  0  0  0
   33.2826  -25.4613  -17.3915 C   0  0  0  0  0  0  0  0  0  0  0  0
   32.2953  -24.5379  -17.1340 C   0  0  0  0  0  0  0  0  0  0  0  0
   31.0088  -24.9014  -16.7855 C   0  0  0  0  0  0  0  0  0  0  0  0
   29.9793  -23.8604  -16.5357 C   0  0  0  0  0  0  0  0  0  0  0  0
   29.3749  -23.2746  -17.7451 C   0  0  2  0  0  0  0  0  0  0  0  0
   30.3848  -22.4471  -18.4189 N   0  0  0  0  0  0  0  0  0  0  0  0
   28.0963  -22.5850  -17.6188 C   0  0  0  0  0  0  0  0  0  0  0  0
   28.1168  -21.3608  -17.2698 O   0  0  0  0  0  0  0  0  0  0  0  0
   30.7538  -26.2478  -16.7065 C   0  0  0  0  0  0  0  0  0  0  0  0
   31.7286  -27.1751  -16.9591 C   0  0  0  0  0  0  0  0  0  0  0  0
   20.0647  -19.3047  -18.7344 O   0  0  0  0  0  0  0  0  0  0  0  0
   21.2991  -19.9314  -18.7845 C   0  0  0  0  0  0  0  0  0  0  0  0
   21.4267  -21.2856  -19.0597 C   0  0  0  0  0  0  0  0  0  0  0  0
   22.6667  -21.8878  -19.1026 C   0  0  0  0  0  0  0  0  0  0  0  0
   23.8474  -21.1841  -18.8758 C   0  0  0  0  0  0  0  0  0  0  0  0
   25.1724  -21.8410  -18.9251 C   0  0  0  0  0  0  0  0  0  0  0  0
   25.5790  -22.4701  -17.6248 C   0  0  2  0  0  0  0  0  0  0  0  0
   26.8295  -23.1583  -17.8526 N   0  0  0  0  0  0  0  0  0  0  0  0
   24.5568  -23.2684  -16.9697 C   0  0  0  0  0  0  0  0  0  0  0  0
   24.5140  -24.5172  -17.1644 O   0  0  0  0  0  0  0  0  0  0  0  0
   23.7151  -19.8389  -18.6024 C   0  0  0  0  0  0  0  0  0  0  0  0
   22.4697  -19.2341  -18.5596 C   0  0  0  0  0  0  0  0  0  0  0  0
   23.5913  -22.7563  -16.1183 O   0  0  0  0  0  0  0  0  0  0  0  0
  2  1  1  6
  2  3  1  0
  3  4  1  0
  4  5  1  0
  5  9  1  0
  5  6  2  0
  7  8  2  0
  7  2  1  0
 10 11  1  0
 11 21  2  0
 12 11  1  0
 12 13  2  0
 13 14  1  0
 14 20  2  0
 14 15  1  0
 16 15  1  1
 16 17  1  0
 17  7  1  0
 18 16  1  0
 19 18  2  0
 21 20  1  0
 23 24  2  0
 23 22  1  0
 25 24  1  0
 26 25  2  0
 27 26  1  0
 28 27  1  6
 28 30  1  0
 28 29  1  0
 29 18  1  0
 30 34  1  0
 31 30  2  0
 32 26  1  0
 32 33  2  0
 33 23  1  0
M  END
$$$$
