EYY.pdb
     RDKit          3D

 34 35  0  0  1  0  0  0  0  0999 V2000
   22.6739  -11.1125  -17.0040 N   0  0  0  0  0  0  0  0  0  0  0  0
   23.5549   -9.9261  -17.0503 C   0  0  1  0  0  0  0  0  0  0  0  0
   24.0581   -9.8603  -18.4557 C   0  0  0  0  0  0  0  0  0  0  0  0
   24.9999  -10.9313  -18.8683 C   0  0  0  0  0  0  0  0  0  0  0  0
   24.2044  -12.0327  -19.4772 C   0  0  0  0  0  0  0  0  0  0  0  0
   23.4206  -11.8769  -20.4413 O   0  0  0  0  0  0  0  0  0  0  0  0
   22.7282   -8.7061  -16.7795 C   0  0  0  0  0  0  0  0  0  0  0  0
   21.5519   -8.5942  -17.1769 O   0  0  0  0  0  0  0  0  0  0  0  0
   24.2963  -13.3445  -18.9848 O   0  0  0  0  0  0  0  0  0  0  0  0
   18.0413   -9.8902  -12.5682 O   0  0  0  0  0  0  0  0  0  0  0  0
   19.0399   -9.0436  -12.9822 C   0  0  0  0  0  0  0  0  0  0  0  0
   20.3171   -9.1613  -12.5108 C   0  0  0  0  0  0  0  0  0  0  0  0
   21.3085   -8.3056  -12.9335 C   0  0  0  0  0  0  0  0  0  0  0  0
   21.0791   -7.2932  -13.8452 C   0  0  0  0  0  0  0  0  0  0  0  0
   22.1921   -6.4102  -14.2780 C   0  0  0  0  0  0  0  0  0  0  0  0
   22.4683   -6.4149  -15.7253 C   0  0  2  0  0  0  0  0  0  0  0  0
   23.2652   -7.6069  -16.0457 N   0  0  0  0  0  0  0  0  0  0  0  0
   23.0185   -5.2082  -16.3316 C   0  0  0  0  0  0  0  0  0  0  0  0
   24.1214   -4.7665  -15.8738 O   0  0  0  0  0  0  0  0  0  0  0  0
   19.7963   -7.1765  -14.3197 C   0  0  0  0  0  0  0  0  0  0  0  0
   18.8021   -8.0212  -13.9051 C   0  0  0  0  0  0  0  0  0  0  0  0
   24.6252    1.5043  -21.9469 O   0  0  0  0  0  0  0  0  0  0  0  0
   24.1944    0.3413  -21.3296 C   0  0  0  0  0  0  0  0  0  0  0  0
   22.8476    0.0369  -21.1907 C   0  0  0  0  0  0  0  0  0  0  0  0
   22.4428   -1.1266  -20.5706 C   0  0  0  0  0  0  0  0  0  0  0  0
   23.3473   -2.0519  -20.0544 C   0  0  0  0  0  0  0  0  0  0  0  0
   22.9011   -3.2973  -19.3916 C   0  0  0  0  0  0  0  0  0  0  0  0
   22.9531   -3.2316  -17.8932 C   0  0  2  0  0  0  0  0  0  0  0  0
   22.4334   -4.4828  -17.3897 N   0  0  0  0  0  0  0  0  0  0  0  0
   22.3620   -2.0449  -17.2986 C   0  0  0  0  0  0  0  0  0  0  0  0
   23.0808   -1.0282  -17.0772 O   0  0  0  0  0  0  0  0  0  0  0  0
   24.6843   -1.7444  -20.1946 C   0  0  0  0  0  0  0  0  0  0  0  0
   25.0908   -0.5760  -20.8177 C   0  0  0  0  0  0  0  0  0  0  0  0
   21.0282   -1.9307  -16.9422 O   0  0  0  0  0  0  0  0  0  0  0  0
  2  1  1  6
  2  3  1  0
  3  4  1  0
  4  5  1  0
  5  9  1  0
  5  6  2  0
  7  8  2  0
  7  2  1  0
 10 11  1  0
 11 21  2  0
 12 11  1  0
 12 13  2  0
 13 14  1  0
 14 20  2  0
 14 15  1  0
 16 15  1  1
 16 17  1  0
 17  7  1  0
 18 16  1  0
 19 18  2  0
 21 20  1  0
 23 24  2  0
 23 22  1  0
 25 24  1  0
 26 25  2  0
 27 26  1  0
 28 27  1  6
 28 30  1  0
 28 29  1  0
 29 18  1  0
 30 34  1  0
 31 30  2  0
 32 26  1  0
 32 33  2  0
 33 23  1  0
M  END
$$$$
