GWA.pdb
     RDKit          3D

 24 25  0  0  1  0  0  0  0  0999 V2000
   36.3377  -32.1417  -11.9538 N   0  0  0  0  0  0  0  0  0  0  0  0
   37.0120  -32.3215  -13.2087 C   0  0  0  0  0  0  0  0  0  0  0  0
   36.4366  -31.4792  -14.2874 C   0  0  0  0  0  0  0  0  0  0  0  0
   35.4483  -30.7421  -14.0511 O   0  0  0  0  0  0  0  0  0  0  0  0
   36.9594  -31.4636  -15.6070 N   0  0  0  0  0  0  0  0  0  0  0  0
   36.4236  -30.6835  -16.7001 C   0  0  1  0  0  0  0  0  0  0  0  0
   37.3491  -30.4323  -17.8251 C   0  0  0  0  0  0  0  0  0  0  0  0
   36.8713  -29.5818  -18.9138 C   0  0  0  0  0  0  0  0  0  0  0  0
   35.9384  -28.5810  -18.9540 C   0  0  0  0  0  0  0  0  0  0  0  0
   35.8844  -28.1331  -20.2154 N   0  0  0  0  0  0  0  0  0  0  0  0
   36.7367  -28.7982  -20.9834 C   0  0  0  0  0  0  0  0  0  0  0  0
   37.0244  -28.6854  -22.3375 C   0  0  0  0  0  0  0  0  0  0  0  0
   37.9750  -29.5295  -22.8685 C   0  0  0  0  0  0  0  0  0  0  0  0
   38.6288  -30.4594  -22.1021 C   0  0  0  0  0  0  0  0  0  0  0  0
   38.3383  -30.5630  -20.7688 C   0  0  0  0  0  0  0  0  0  0  0  0
   37.3795  -29.7206  -20.2041 C   0  0  0  0  0  0  0  0  0  0  0  0
   35.3139  -31.5466  -17.2688 C   0  0  0  0  0  0  0  0  0  0  0  0
   35.6089  -32.7672  -17.4819 O   0  0  0  0  0  0  0  0  0  0  0  0
   32.0207  -32.3832  -17.0195 C   0  0  0  0  0  0  0  0  0  0  0  0
   33.0121  -31.9971  -18.0685 C   0  0  2  0  0  0  0  0  0  0  0  0
   34.0307  -31.0765  -17.5576 N   0  0  0  0  0  0  0  0  0  0  0  0
   32.2709  -31.3597  -19.1828 C   0  0  0  0  0  0  0  0  0  0  0  0
   32.5076  -30.0167  -19.4490 O   0  0  0  0  0  0  0  0  0  0  0  0
   31.4691  -32.0273  -19.8433 O   0  0  0  0  0  0  0  0  0  0  0  0
  1  2  1  0
  3  4  2  0
  3  2  1  0
  5  3  1  0
  6  5  1  0
  6  7  1  6
  8  7  1  0
  8 16  1  0
  9  8  2  0
 10  9  1  0
 10 11  1  0
 11 12  1  0
 11 16  2  0
 12 13  2  0
 13 14  1  0
 15 14  2  0
 16 15  1  0
 17  6  1  0
 18 17  2  0
 20 19  1  1
 20 22  1  0
 20 21  1  0
 21 17  1  0
 22 23  1  0
 24 22  2  0
M  END
$$$$
