GWA.pdb
     RDKit          3D

 24 25  0  0  1  0  0  0  0  0999 V2000
   19.1906  -12.2437  -20.5524 N   0  0  0  0  0  0  0  0  0  0  0  0
   20.3751  -11.5387  -20.1504 C   0  0  0  0  0  0  0  0  0  0  0  0
   20.3646  -11.1887  -18.7075 C   0  0  0  0  0  0  0  0  0  0  0  0
   20.0309  -12.0467  -17.8541 O   0  0  0  0  0  0  0  0  0  0  0  0
   20.7214   -9.9003  -18.2302 N   0  0  0  0  0  0  0  0  0  0  0  0
   20.7465   -9.5116  -16.8378 C   0  0  1  0  0  0  0  0  0  0  0  0
   22.0741   -9.1574  -16.2929 C   0  0  0  0  0  0  0  0  0  0  0  0
   22.5174   -9.8585  -15.0892 C   0  0  0  0  0  0  0  0  0  0  0  0
   23.3763  -10.9079  -14.9029 C   0  0  0  0  0  0  0  0  0  0  0  0
   23.4221  -11.1605  -13.5880 N   0  0  0  0  0  0  0  0  0  0  0  0
   22.6349  -10.3244  -12.9248 C   0  0  0  0  0  0  0  0  0  0  0  0
   22.3641  -10.2088  -11.5675 C   0  0  0  0  0  0  0  0  0  0  0  0
   21.4857   -9.2265  -11.1653 C   0  0  0  0  0  0  0  0  0  0  0  0
   20.8862   -8.3785  -12.0604 C   0  0  0  0  0  0  0  0  0  0  0  0
   21.1594   -8.5005  -13.3959 C   0  0  0  0  0  0  0  0  0  0  0  0
   22.0454   -9.4868  -13.8317 C   0  0  0  0  0  0  0  0  0  0  0  0
   19.9309   -8.2339  -16.7899 C   0  0  0  0  0  0  0  0  0  0  0  0
   20.2245   -7.3507  -17.6595 O   0  0  0  0  0  0  0  0  0  0  0  0
   16.7834   -6.8699  -15.3679 C   0  0  0  0  0  0  0  0  0  0  0  0
   18.1703   -6.7307  -15.9060 C   0  0  2  0  0  0  0  0  0  0  0  0
   18.9102   -7.9945  -15.8670 N   0  0  0  0  0  0  0  0  0  0  0  0
   18.8739   -5.7102  -15.0931 C   0  0  0  0  0  0  0  0  0  0  0  0
   18.3630   -4.4183  -15.0706 O   0  0  0  0  0  0  0  0  0  0  0  0
   19.8865   -6.0256  -14.4605 O   0  0  0  0  0  0  0  0  0  0  0  0
  1  2  1  0
  3  4  2  0
  3  2  1  0
  5  3  1  0
  6  5  1  0
  6  7  1  6
  8  7  1  0
  8 16  1  0
  9  8  2  0
 10  9  1  0
 10 11  1  0
 11 12  1  0
 11 16  2  0
 12 13  2  0
 13 14  1  0
 15 14  2  0
 16 15  1  0
 17  6  1  0
 18 17  2  0
 20 19  1  1
 20 22  1  0
 20 21  1  0
 21 17  1  0
 22 23  1  0
 24 22  2  0
M  END
$$$$
