GWA.pdb
     RDKit          3D

 24 25  0  0  1  0  0  0  0  0999 V2000
   25.6866  -25.3333  -16.3415 N   0  0  0  0  0  0  0  0  0  0  0  0
   26.4733  -24.3118  -15.7096 C   0  0  0  0  0  0  0  0  0  0  0  0
   25.8137  -23.7537  -14.5022 C   0  0  0  0  0  0  0  0  0  0  0  0
   25.5304  -24.5037  -13.5362 O   0  0  0  0  0  0  0  0  0  0  0  0
   25.4777  -22.3799  -14.3800 N   0  0  0  0  0  0  0  0  0  0  0  0
   24.9478  -21.7609  -13.1856 C   0  0  1  0  0  0  0  0  0  0  0  0
   25.6371  -20.5320  -12.7383 C   0  0  0  0  0  0  0  0  0  0  0  0
   26.8811  -20.6923  -11.9877 C   0  0  0  0  0  0  0  0  0  0  0  0
   28.1856  -20.8024  -12.3873 C   0  0  0  0  0  0  0  0  0  0  0  0
   28.9334  -20.9363  -11.2838 N   0  0  0  0  0  0  0  0  0  0  0  0
   28.1713  -20.9172  -10.1988 C   0  0  0  0  0  0  0  0  0  0  0  0
   28.4972  -21.0227   -8.8528 C   0  0  0  0  0  0  0  0  0  0  0  0
   27.4722  -20.9693   -7.9338 C   0  0  0  0  0  0  0  0  0  0  0  0
   26.1638  -20.8172   -8.3142 C   0  0  0  0  0  0  0  0  0  0  0  0
   25.8528  -20.7143   -9.6430 C   0  0  0  0  0  0  0  0  0  0  0  0
   26.8711  -20.7652  -10.5959 C   0  0  0  0  0  0  0  0  0  0  0  0
   23.5490  -21.3255  -13.5773 C   0  0  0  0  0  0  0  0  0  0  0  0
   23.4111  -20.8929  -14.7673 O   0  0  0  0  0  0  0  0  0  0  0  0
   20.0297  -21.4833  -12.2961 C   0  0  0  0  0  0  0  0  0  0  0  0
   21.1141  -21.0341  -13.2204 C   0  0  2  0  0  0  0  0  0  0  0  0
   22.4476  -21.3769  -12.7199 N   0  0  0  0  0  0  0  0  0  0  0  0
   20.9981  -19.5648  -13.3785 C   0  0  0  0  0  0  0  0  0  0  0  0
   20.0593  -19.0703  -14.2754 O   0  0  0  0  0  0  0  0  0  0  0  0
   21.7288  -18.8203  -12.7176 O   0  0  0  0  0  0  0  0  0  0  0  0
  1  2  1  0
  3  4  2  0
  3  2  1  0
  5  3  1  0
  6  5  1  0
  6  7  1  6
  8  7  1  0
  8 16  1  0
  9  8  2  0
 10  9  1  0
 10 11  1  0
 11 12  1  0
 11 16  2  0
 12 13  2  0
 13 14  1  0
 15 14  2  0
 16 15  1  0
 17  6  1  0
 18 17  2  0
 20 19  1  1
 20 22  1  0
 20 21  1  0
 21 17  1  0
 22 23  1  0
 24 22  2  0
M  END
$$$$
