GWA.pdb
     RDKit          3D

 24 25  0  0  1  0  0  0  0  0999 V2000
   28.6005  -17.7548  -15.2696 N   0  0  0  0  0  0  0  0  0  0  0  0
   27.9797  -18.0448  -14.0077 C   0  0  0  0  0  0  0  0  0  0  0  0
   27.3191  -19.3744  -13.9930 C   0  0  0  0  0  0  0  0  0  0  0  0
   27.2180  -20.0388  -15.0533 O   0  0  0  0  0  0  0  0  0  0  0  0
   26.7814  -19.9484  -12.8113 N   0  0  0  0  0  0  0  0  0  0  0  0
   26.2344  -21.2834  -12.7148 C   0  0  1  0  0  0  0  0  0  0  0  0
   26.3700  -21.9401  -11.3975 C   0  0  0  0  0  0  0  0  0  0  0  0
   26.2725  -21.0941  -10.2094 C   0  0  0  0  0  0  0  0  0  0  0  0
   25.2445  -20.3516   -9.6941 C   0  0  0  0  0  0  0  0  0  0  0  0
   25.6964  -19.7586   -8.5810 N   0  0  0  0  0  0  0  0  0  0  0  0
   26.9623  -20.0855   -8.3595 C   0  0  0  0  0  0  0  0  0  0  0  0
   27.8355  -19.7174   -7.3440 C   0  0  0  0  0  0  0  0  0  0  0  0
   29.1163  -20.2240   -7.3781 C   0  0  0  0  0  0  0  0  0  0  0  0
   29.5369  -21.0668   -8.3743 C   0  0  0  0  0  0  0  0  0  0  0  0
   28.6690  -21.4235   -9.3705 C   0  0  0  0  0  0  0  0  0  0  0  0
   27.3654  -20.9253   -9.3612 C   0  0  0  0  0  0  0  0  0  0  0  0
   24.7447  -21.0949  -12.9263 C   0  0  0  0  0  0  0  0  0  0  0  0
   24.2207  -20.0894  -12.3459 O   0  0  0  0  0  0  0  0  0  0  0  0
   22.1193  -22.0328  -15.3341 C   0  0  0  0  0  0  0  0  0  0  0  0
   22.5557  -21.6001  -13.9722 C   0  0  2  0  0  0  0  0  0  0  0  0
   23.9533  -21.9457  -13.7013 N   0  0  0  0  0  0  0  0  0  0  0  0
   21.6728  -22.2589  -12.9804 C   0  0  0  0  0  0  0  0  0  0  0  0
   20.3526  -21.8358  -12.8892 O   0  0  0  0  0  0  0  0  0  0  0  0
   22.1234  -23.1592  -12.2652 O   0  0  0  0  0  0  0  0  0  0  0  0
  1  2  1  0
  3  4  2  0
  3  2  1  0
  5  3  1  0
  6  5  1  0
  6  7  1  1
  8  7  1  0
  8 16  1  0
  9  8  2  0
 10  9  1  0
 10 11  1  0
 11 12  1  0
 11 16  2  0
 12 13  2  0
 13 14  1  0
 15 14  2  0
 16 15  1  0
 17  6  1  0
 18 17  2  0
 20 19  1  6
 20 22  1  0
 20 21  1  0
 21 17  1  0
 22 23  1  0
 24 22  2  0
M  END
$$$$
