GWA.pdb
     RDKit          3D

 24 25  0  0  1  0  0  0  0  0999 V2000
   27.7657  -22.0637  -15.3990 N   0  0  0  0  0  0  0  0  0  0  0  0
   26.4156  -22.0495  -15.8875 C   0  0  0  0  0  0  0  0  0  0  0  0
   25.6018  -20.9700  -15.2738 C   0  0  0  0  0  0  0  0  0  0  0  0
   26.1635  -20.0288  -14.6617 O   0  0  0  0  0  0  0  0  0  0  0  0
   24.1843  -20.9460  -15.3448 N   0  0  0  0  0  0  0  0  0  0  0  0
   23.3482  -19.8817  -14.8359 C   0  0  1  0  0  0  0  0  0  0  0  0
   22.3831  -19.3069  -15.7968 C   0  0  0  0  0  0  0  0  0  0  0  0
   22.9116  -18.4286  -16.8389 C   0  0  0  0  0  0  0  0  0  0  0  0
   24.1281  -18.3761  -17.4642 C   0  0  0  0  0  0  0  0  0  0  0  0
   24.0839  -17.3668  -18.3441 N   0  0  0  0  0  0  0  0  0  0  0  0
   22.8993  -16.7717  -18.3120 C   0  0  0  0  0  0  0  0  0  0  0  0
   22.3991  -15.6952  -19.0332 C   0  0  0  0  0  0  0  0  0  0  0  0
   21.1069  -15.2912  -18.7780 C   0  0  0  0  0  0  0  0  0  0  0  0
   20.3215  -15.9179  -17.8453 C   0  0  0  0  0  0  0  0  0  0  0  0
   20.8235  -16.9776  -17.1396 C   0  0  0  0  0  0  0  0  0  0  0  0
   22.1295  -17.4084  -17.3775 C   0  0  0  0  0  0  0  0  0  0  0  0
   22.5091  -20.5448  -13.7608 C   0  0  0  0  0  0  0  0  0  0  0  0
   22.1031  -21.7245  -14.0172 O   0  0  0  0  0  0  0  0  0  0  0  0
   21.2674  -19.9358  -10.2644 C   0  0  0  0  0  0  0  0  0  0  0  0
   21.3673  -20.6648  -11.5648 C   0  0  2  0  0  0  0  0  0  0  0  0
   22.1754  -19.9387  -12.5475 N   0  0  0  0  0  0  0  0  0  0  0  0
   19.9929  -20.8565  -12.0861 C   0  0  0  0  0  0  0  0  0  0  0  0
   19.1601  -21.7573  -11.4340 O   0  0  0  0  0  0  0  0  0  0  0  0
   19.6214  -20.2191  -13.0764 O   0  0  0  0  0  0  0  0  0  0  0  0
  1  2  1  0
  3  4  2  0
  3  2  1  0
  5  3  1  0
  6  5  1  0
  6  7  1  6
  8  7  1  0
  8 16  1  0
  9  8  2  0
 10  9  1  0
 10 11  1  0
 11 12  1  0
 11 16  2  0
 12 13  2  0
 13 14  1  0
 15 14  2  0
 16 15  1  0
 17  6  1  0
 18 17  2  0
 20 19  1  1
 20 22  1  0
 20 21  1  0
 21 17  1  0
 22 23  1  0
 24 22  2  0
M  END
$$$$
