GWA.pdb
     RDKit          3D

 24 25  0  0  1  0  0  0  0  0999 V2000
   21.7316  -14.6744  -20.7478 N   0  0  0  0  0  0  0  0  0  0  0  0
   21.3551  -13.3650  -20.2945 C   0  0  0  0  0  0  0  0  0  0  0  0
   21.7079  -13.1345  -18.8709 C   0  0  0  0  0  0  0  0  0  0  0  0
   21.3121  -13.9332  -17.9869 O   0  0  0  0  0  0  0  0  0  0  0  0
   22.4900  -12.0287  -18.4459 N   0  0  0  0  0  0  0  0  0  0  0  0
   22.8959  -11.7783  -17.0809 C   0  0  1  0  0  0  0  0  0  0  0  0
   24.3216  -11.4400  -16.8858 C   0  0  0  0  0  0  0  0  0  0  0  0
   25.3094  -12.4623  -17.2261 C   0  0  0  0  0  0  0  0  0  0  0  0
   26.1849  -12.5796  -18.2717 C   0  0  0  0  0  0  0  0  0  0  0  0
   26.8634  -13.7221  -18.1009 N   0  0  0  0  0  0  0  0  0  0  0  0
   26.4648  -14.3407  -16.9977 C   0  0  0  0  0  0  0  0  0  0  0  0
   26.8745  -15.5373  -16.4239 C   0  0  0  0  0  0  0  0  0  0  0  0
   26.2662  -15.9340  -15.2531 C   0  0  0  0  0  0  0  0  0  0  0  0
   25.2847  -15.1859  -14.6559 C   0  0  0  0  0  0  0  0  0  0  0  0
   24.8878  -14.0083  -15.2291 C   0  0  0  0  0  0  0  0  0  0  0  0
   25.4868  -13.5820  -16.4154 C   0  0  0  0  0  0  0  0  0  0  0  0
   22.1227  -10.5365  -16.6811 C   0  0  0  0  0  0  0  0  0  0  0  0
   22.0052   -9.6389  -17.5771 O   0  0  0  0  0  0  0  0  0  0  0  0
   19.8765   -9.2922  -13.9660 C   0  0  0  0  0  0  0  0  0  0  0  0
   20.7836   -9.1298  -15.1421 C   0  0  2  0  0  0  0  0  0  0  0  0
   21.5558  -10.3435  -15.4193 N   0  0  0  0  0  0  0  0  0  0  0  0
   21.7028   -8.0026  -14.8559 C   0  0  0  0  0  0  0  0  0  0  0  0
   21.1599   -6.7341  -14.6934 O   0  0  0  0  0  0  0  0  0  0  0  0
   22.9167   -8.2121  -14.7686 O   0  0  0  0  0  0  0  0  0  0  0  0
  1  2  1  0
  3  4  2  0
  3  2  1  0
  5  3  1  0
  6  5  1  0
  6  7  1  6
  8  7  1  0
  8 16  1  0
  9  8  2  0
 10  9  1  0
 10 11  1  0
 11 12  1  0
 11 16  2  0
 12 13  2  0
 13 14  1  0
 15 14  2  0
 16 15  1  0
 17  6  1  0
 18 17  2  0
 20 19  1  1
 20 22  1  0
 20 21  1  0
 21 17  1  0
 22 23  1  0
 24 22  2  0
M  END
$$$$
