GWA.pdb
     RDKit          3D

 24 25  0  0  1  0  0  0  0  0999 V2000
   31.2925  -21.5946  -10.8761 N   0  0  0  0  0  0  0  0  0  0  0  0
   30.2525  -20.6049  -10.8561 C   0  0  0  0  0  0  0  0  0  0  0  0
   28.9609  -21.1493  -10.3663 C   0  0  0  0  0  0  0  0  0  0  0  0
   28.8539  -22.3710  -10.0984 O   0  0  0  0  0  0  0  0  0  0  0  0
   27.8104  -20.3389  -10.1804 N   0  0  0  0  0  0  0  0  0  0  0  0
   26.5754  -20.7822   -9.5731 C   0  0  1  0  0  0  0  0  0  0  0  0
   26.0546  -19.9328   -8.4811 C   0  0  0  0  0  0  0  0  0  0  0  0
   27.0124  -19.4487   -7.4886 C   0  0  0  0  0  0  0  0  0  0  0  0
   27.7443  -18.2949   -7.4068 C   0  0  0  0  0  0  0  0  0  0  0  0
   28.4744  -18.3614   -6.2855 N   0  0  0  0  0  0  0  0  0  0  0  0
   28.2452  -19.5006   -5.6466 C   0  0  0  0  0  0  0  0  0  0  0  0
   28.7660  -20.0025   -4.4609 C   0  0  0  0  0  0  0  0  0  0  0  0
   28.3327  -21.2400   -4.0377 C   0  0  0  0  0  0  0  0  0  0  0  0
   27.4165  -21.9704   -4.7495 C   0  0  0  0  0  0  0  0  0  0  0  0
   26.9093  -21.4673   -5.9168 C   0  0  0  0  0  0  0  0  0  0  0  0
   27.3304  -20.2161   -6.3695 C   0  0  0  0  0  0  0  0  0  0  0  0
   25.5528  -20.6865  -10.6887 C   0  0  0  0  0  0  0  0  0  0  0  0
   25.6191  -19.6455  -11.4196 O   0  0  0  0  0  0  0  0  0  0  0  0
   23.4972  -22.8382  -12.8011 C   0  0  0  0  0  0  0  0  0  0  0  0
   23.7056  -21.5308  -12.1086 C   0  0  2  0  0  0  0  0  0  0  0  0
   24.5782  -21.6554  -10.9384 N   0  0  0  0  0  0  0  0  0  0  0  0
   22.3779  -21.0182  -11.6942 C   0  0  0  0  0  0  0  0  0  0  0  0
   22.1599  -20.7671  -10.3452 O   0  0  0  0  0  0  0  0  0  0  0  0
   21.5044  -20.8271  -12.5459 O   0  0  0  0  0  0  0  0  0  0  0  0
  1  2  1  0
  3  4  2  0
  3  2  1  0
  5  3  1  0
  6  5  1  0
  6  7  1  1
  8  7  1  0
  8 16  1  0
  9  8  2  0
 10  9  1  0
 10 11  1  0
 11 12  1  0
 11 16  2  0
 12 13  2  0
 13 14  1  0
 15 14  2  0
 16 15  1  0
 17  6  1  0
 18 17  2  0
 20 19  1  1
 20 22  1  0
 20 21  1  0
 21 17  1  0
 22 23  1  0
 24 22  2  0
M  END
$$$$
