GWA.pdb
     RDKit          3D

 24 25  0  0  1  0  0  0  0  0999 V2000
   31.6195  -21.8376  -10.0575 N   0  0  0  0  0  0  0  0  0  0  0  0
   30.6079  -20.8388  -10.2590 C   0  0  0  0  0  0  0  0  0  0  0  0
   29.2762  -21.2730   -9.7666 C   0  0  0  0  0  0  0  0  0  0  0  0
   29.1328  -22.4136   -9.2622 O   0  0  0  0  0  0  0  0  0  0  0  0
   28.1263  -20.4438   -9.8387 N   0  0  0  0  0  0  0  0  0  0  0  0
   26.8357  -20.7681   -9.2733 C   0  0  1  0  0  0  0  0  0  0  0  0
   26.3314  -19.8342   -8.2443 C   0  0  0  0  0  0  0  0  0  0  0  0
   27.2946  -19.3157   -7.2747 C   0  0  0  0  0  0  0  0  0  0  0  0
   27.9996  -18.1438   -7.2191 C   0  0  0  0  0  0  0  0  0  0  0  0
   28.7509  -18.1795   -6.1105 N   0  0  0  0  0  0  0  0  0  0  0  0
   28.5608  -19.3164   -5.4548 C   0  0  0  0  0  0  0  0  0  0  0  0
   29.1146  -19.7918   -4.2731 C   0  0  0  0  0  0  0  0  0  0  0  0
   28.7191  -21.0343   -3.8283 C   0  0  0  0  0  0  0  0  0  0  0  0
   27.8085  -21.7948   -4.5153 C   0  0  0  0  0  0  0  0  0  0  0  0
   27.2685  -21.3177   -5.6788 C   0  0  0  0  0  0  0  0  0  0  0  0
   27.6510  -20.0621   -6.1530 C   0  0  0  0  0  0  0  0  0  0  0  0
   25.8741  -20.6492  -10.4398 C   0  0  0  0  0  0  0  0  0  0  0  0
   25.9005  -19.5457  -11.0753 O   0  0  0  0  0  0  0  0  0  0  0  0
   23.9461  -22.8160  -12.7297 C   0  0  0  0  0  0  0  0  0  0  0  0
   24.2014  -21.5083  -12.0538 C   0  0  2  0  0  0  0  0  0  0  0  0
   24.9941  -21.6607  -10.8312 N   0  0  0  0  0  0  0  0  0  0  0  0
   22.8893  -20.8990  -11.7303 C   0  0  0  0  0  0  0  0  0  0  0  0
   22.0286  -20.5929  -12.7770 O   0  0  0  0  0  0  0  0  0  0  0  0
   22.5922  -20.6795  -10.5519 O   0  0  0  0  0  0  0  0  0  0  0  0
  1  2  1  0
  3  4  2  0
  3  2  1  0
  5  3  1  0
  6  5  1  0
  6  7  1  1
  8  7  1  0
  8 16  1  0
  9  8  2  0
 10  9  1  0
 10 11  1  0
 11 12  1  0
 11 16  2  0
 12 13  2  0
 13 14  1  0
 15 14  2  0
 16 15  1  0
 17  6  1  0
 18 17  2  0
 20 19  1  1
 20 22  1  0
 20 21  1  0
 21 17  1  0
 22 23  1  0
 24 22  2  0
M  END
$$$$
