LWL.pdb
     RDKit          3D

 31 32  0  0  1  0  0  0  0  0999 V2000
    7.8368  -13.4514   16.7958 C   0  0  0  0  0  0  0  0  0  0  0  0
    8.4640  -14.6327   17.5040 C   0  0  1  0  0  0  0  0  0  0  0  0
    8.9936  -15.5773   16.4888 C   0  0  0  0  0  0  0  0  0  0  0  0
    9.4513  -14.1829   18.5352 C   0  0  0  0  0  0  0  0  0  0  0  0
    9.9135  -15.3106   19.4173 C   0  0  2  0  0  0  0  0  0  0  0  0
    9.1439  -16.4977   19.0903 N   0  0  0  0  0  0  0  0  0  0  0  0
    9.7185  -15.0439   20.8471 C   0  0  0  0  0  0  0  0  0  0  0  0
   10.3385  -14.0777   21.3599 O   0  0  0  0  0  0  0  0  0  0  0  0
    8.8806  -15.7967   21.6961 N   0  0  0  0  0  0  0  0  0  0  0  0
    8.5792  -15.3856   23.0887 C   0  0  1  0  0  0  0  0  0  0  0  0
    7.1060  -15.4713   23.2270 C   0  0  0  0  0  0  0  0  0  0  0  0
    6.5507  -14.9992   24.5074 C   0  0  0  0  0  0  0  0  0  0  0  0
    5.8875  -15.6514   25.5228 C   0  0  0  0  0  0  0  0  0  0  0  0
    5.5320  -14.8258   26.5022 N   0  0  0  0  0  0  0  0  0  0  0  0
    5.9593  -13.6006   26.1461 C   0  0  0  0  0  0  0  0  0  0  0  0
    5.8341  -12.4051   26.8250 C   0  0  0  0  0  0  0  0  0  0  0  0
    6.3420  -11.2444   26.2911 C   0  0  0  0  0  0  0  0  0  0  0  0
    6.9787  -11.3013   25.0634 C   0  0  0  0  0  0  0  0  0  0  0  0
    7.0962  -12.5013   24.3975 C   0  0  0  0  0  0  0  0  0  0  0  0
    6.5867  -13.6646   24.9332 C   0  0  0  0  0  0  0  0  0  0  0  0
    9.4054  -16.1255   24.0312 C   0  0  0  0  0  0  0  0  0  0  0  0
   10.3548  -16.8296   23.5361 O   0  0  0  0  0  0  0  0  0  0  0  0
   12.5368  -14.6146   28.2093 C   0  0  0  0  0  0  0  0  0  0  0  0
   11.1963  -15.1908   28.5298 C   0  0  1  0  0  0  0  0  0  0  0  0
   10.5985  -14.5166   29.7755 C   0  0  0  0  0  0  0  0  0  0  0  0
   10.2182  -15.3380   27.4492 C   0  0  0  0  0  0  0  0  0  0  0  0
   10.4806  -16.1992   26.2740 C   0  0  2  0  0  0  0  0  0  0  0  0
    9.2415  -16.1196   25.4346 N   0  0  0  0  0  0  0  0  0  0  0  0
   10.7406  -17.6185   26.4984 C   0  0  0  0  0  0  0  0  0  0  0  0
    9.7815  -18.6026   26.6725 O   0  0  0  0  0  0  0  0  0  0  0  0
   11.9284  -18.0289   26.5512 O   0  0  0  0  0  0  0  0  0  0  0  0
  2  1  1  6
  2  3  1  0
  4  2  1  0
  5  4  1  0
  5  6  1  6
  7  8  2  0
  7  5  1  0
  9  7  1  0
 10  9  1  0
 10 11  1  1
 12 11  1  0
 13 12  2  0
 14 13  1  0
 15 14  1  0
 15 20  2  0
 16 15  1  0
 17 16  2  0
 17 18  1  0
 18 19  2  0
 19 20  1  0
 20 12  1  0
 21 10  1  0
 21 28  1  0
 22 21  2  0
 24 23  1  6
 24 25  1  0
 24 26  1  0
 27 26  1  1
 27 28  1  0
 27 29  1  0
 29 31  2  0
 29 30  1  0
M  END
$$$$
