LWL.pdb
     RDKit          3D

 31 32  0  0  1  0  0  0  0  0999 V2000
   10.2389  -18.0203   16.5430 C   0  0  0  0  0  0  0  0  0  0  0  0
   10.5668  -18.4379   17.9602 C   0  0  1  0  0  0  0  0  0  0  0  0
   11.9418  -18.9963   17.9920 C   0  0  0  0  0  0  0  0  0  0  0  0
   10.3067  -17.3241   18.9259 C   0  0  0  0  0  0  0  0  0  0  0  0
   10.6247  -17.7093   20.3451 C   0  0  2  0  0  0  0  0  0  0  0  0
    9.8780  -18.9099   20.6759 N   0  0  0  0  0  0  0  0  0  0  0  0
   10.2511  -16.6796   21.3215 C   0  0  0  0  0  0  0  0  0  0  0  0
   10.8311  -15.5657   21.2599 O   0  0  0  0  0  0  0  0  0  0  0  0
    9.2817  -16.8474   22.3324 N   0  0  0  0  0  0  0  0  0  0  0  0
    8.9505  -15.7785   23.3056 C   0  0  1  0  0  0  0  0  0  0  0  0
    7.4917  -15.8855   23.5446 C   0  0  0  0  0  0  0  0  0  0  0  0
    6.9648  -15.1001   24.6742 C   0  0  0  0  0  0  0  0  0  0  0  0
    6.3419  -15.4701   25.8452 C   0  0  0  0  0  0  0  0  0  0  0  0
    6.0000  -14.4203   26.5858 N   0  0  0  0  0  0  0  0  0  0  0  0
    6.3960  -13.3270   25.9087 C   0  0  0  0  0  0  0  0  0  0  0  0
    6.2695  -11.9967   26.2554 C   0  0  0  0  0  0  0  0  0  0  0  0
    6.7422  -11.0115   25.4211 C   0  0  0  0  0  0  0  0  0  0  0  0
    7.3448  -11.3817   24.2313 C   0  0  0  0  0  0  0  0  0  0  0  0
    7.4640  -12.7129   23.8985 C   0  0  0  0  0  0  0  0  0  0  0  0
    6.9899  -13.7003   24.7354 C   0  0  0  0  0  0  0  0  0  0  0  0
    9.8443  -15.8359   24.4530 C   0  0  0  0  0  0  0  0  0  0  0  0
   10.7346  -14.9180   24.5363 O   0  0  0  0  0  0  0  0  0  0  0  0
    9.7432  -13.9072   28.7188 C   0  0  0  0  0  0  0  0  0  0  0  0
   10.3719  -14.6136   27.5624 C   0  0  1  0  0  0  0  0  0  0  0  0
   11.6862  -13.9274   27.1554 C   0  0  0  0  0  0  0  0  0  0  0  0
   10.4945  -16.0726   27.6127 C   0  0  0  0  0  0  0  0  0  0  0  0
   10.9414  -16.8568   26.4392 C   0  0  2  0  0  0  0  0  0  0  0  0
    9.7984  -16.8148   25.4707 N   0  0  0  0  0  0  0  0  0  0  0  0
   11.2718  -18.2661   26.6319 C   0  0  0  0  0  0  0  0  0  0  0  0
   10.6090  -19.3412   26.0632 O   0  0  0  0  0  0  0  0  0  0  0  0
   12.2348  -18.5792   27.3780 O   0  0  0  0  0  0  0  0  0  0  0  0
  2  1  1  6
  2  3  1  0
  4  2  1  0
  5  4  1  0
  5  6  1  1
  7  8  2  0
  7  5  1  0
  9  7  1  0
 10  9  1  0
 10 11  1  1
 12 11  1  0
 13 12  2  0
 14 13  1  0
 15 14  1  0
 15 20  2  0
 16 15  1  0
 17 16  2  0
 17 18  1  0
 18 19  2  0
 19 20  1  0
 20 12  1  0
 21 10  1  0
 21 28  1  0
 22 21  2  0
 24 23  1  1
 24 25  1  0
 24 26  1  0
 27 26  1  1
 27 28  1  0
 27 29  1  0
 29 31  2  0
 29 30  1  0
M  END
$$$$
