LWL.pdb
     RDKit          3D

 31 32  0  0  1  0  0  0  0  0999 V2000
    9.9365  -17.3775   17.1878 C   0  0  0  0  0  0  0  0  0  0  0  0
   10.2966  -18.0956   18.4703 C   0  0  1  0  0  0  0  0  0  0  0  0
   11.5770  -18.8203   18.2734 C   0  0  0  0  0  0  0  0  0  0  0  0
   10.2637  -17.1622   19.6401 C   0  0  0  0  0  0  0  0  0  0  0  0
   10.6325  -17.8447   20.9292 C   0  0  2  0  0  0  0  0  0  0  0  0
    9.7143  -18.9485   21.1461 N   0  0  0  0  0  0  0  0  0  0  0  0
   10.5388  -16.9625   22.0982 C   0  0  0  0  0  0  0  0  0  0  0  0
   11.3303  -15.9884   22.1707 O   0  0  0  0  0  0  0  0  0  0  0  0
    9.6193  -17.1272   23.1551 N   0  0  0  0  0  0  0  0  0  0  0  0
    9.5291  -16.1763   24.2896 C   0  0  1  0  0  0  0  0  0  0  0  0
    8.1003  -16.1483   24.6826 C   0  0  0  0  0  0  0  0  0  0  0  0
    7.3259  -14.9862   24.2133 C   0  0  0  0  0  0  0  0  0  0  0  0
    6.7814  -14.6733   22.9878 C   0  0  0  0  0  0  0  0  0  0  0  0
    6.1740  -13.4908   22.9950 N   0  0  0  0  0  0  0  0  0  0  0  0
    6.3087  -12.9973   24.2395 C   0  0  0  0  0  0  0  0  0  0  0  0
    5.8527  -11.8000   24.7538 C   0  0  0  0  0  0  0  0  0  0  0  0
    6.0930  -11.4691   26.0664 C   0  0  0  0  0  0  0  0  0  0  0  0
    6.7991  -12.3593   26.8569 C   0  0  0  0  0  0  0  0  0  0  0  0
    7.2479  -13.5502   26.3302 C   0  0  0  0  0  0  0  0  0  0  0  0
    7.0067  -13.8814   25.0141 C   0  0  0  0  0  0  0  0  0  0  0  0
   10.5191  -16.4977   25.3071 C   0  0  0  0  0  0  0  0  0  0  0  0
   11.6534  -15.9090   25.2137 O   0  0  0  0  0  0  0  0  0  0  0  0
   10.2563  -14.1923   29.3130 C   0  0  0  0  0  0  0  0  0  0  0  0
   10.8248  -15.0659   28.2428 C   0  0  1  0  0  0  0  0  0  0  0  0
   12.1314  -14.4711   27.6925 C   0  0  0  0  0  0  0  0  0  0  0  0
   10.9266  -16.5060   28.4916 C   0  0  0  0  0  0  0  0  0  0  0  0
   11.3765  -17.4473   27.4412 C   0  0  2  0  0  0  0  0  0  0  0  0
   10.3203  -17.3965   26.3790 N   0  0  0  0  0  0  0  0  0  0  0  0
   11.5428  -18.8541   27.7956 C   0  0  0  0  0  0  0  0  0  0  0  0
   10.7813  -19.9079   27.3177 O   0  0  0  0  0  0  0  0  0  0  0  0
   12.4433  -19.1847   28.6090 O   0  0  0  0  0  0  0  0  0  0  0  0
  2  1  1  6
  2  3  1  0
  4  2  1  0
  5  4  1  0
  5  6  1  1
  7  8  2  0
  7  5  1  0
  9  7  1  0
 10  9  1  0
 10 11  1  1
 12 11  1  0
 13 12  2  0
 14 13  1  0
 15 14  1  0
 15 20  2  0
 16 15  1  0
 17 16  2  0
 17 18  1  0
 18 19  2  0
 19 20  1  0
 20 12  1  0
 21 10  1  0
 21 28  1  0
 22 21  2  0
 24 23  1  1
 24 25  1  0
 24 26  1  0
 27 26  1  1
 27 28  1  0
 27 29  1  0
 29 31  2  0
 29 30  1  0
M  END
$$$$
