LWL.pdb
     RDKit          3D

 31 32  0  0  1  0  0  0  0  0999 V2000
    8.1718  -12.5170   18.2735 C   0  0  0  0  0  0  0  0  0  0  0  0
    8.3975  -13.9388   18.7405 C   0  0  1  0  0  0  0  0  0  0  0  0
    7.6737  -14.8644   17.8333 C   0  0  0  0  0  0  0  0  0  0  0  0
    9.8563  -14.2253   18.9150 C   0  0  0  0  0  0  0  0  0  0  0  0
   10.1038  -15.4722   19.7197 C   0  0  2  0  0  0  0  0  0  0  0  0
    9.1592  -16.4903   19.2958 N   0  0  0  0  0  0  0  0  0  0  0  0
    9.9168  -15.2764   21.1620 C   0  0  0  0  0  0  0  0  0  0  0  0
   10.6782  -14.4702   21.7545 O   0  0  0  0  0  0  0  0  0  0  0  0
    8.9385  -15.9305   21.9397 N   0  0  0  0  0  0  0  0  0  0  0  0
    8.7079  -15.6074   23.3686 C   0  0  1  0  0  0  0  0  0  0  0  0
    7.2719  -15.8759   23.6184 C   0  0  0  0  0  0  0  0  0  0  0  0
    6.7305  -15.3560   24.8861 C   0  0  0  0  0  0  0  0  0  0  0  0
    6.1041  -15.9742   25.9453 C   0  0  0  0  0  0  0  0  0  0  0  0
    5.7475  -15.1111   26.8914 N   0  0  0  0  0  0  0  0  0  0  0  0
    6.1370  -13.8946   26.4683 C   0  0  0  0  0  0  0  0  0  0  0  0
    5.9955  -12.6711   27.0919 C   0  0  0  0  0  0  0  0  0  0  0  0
    6.4636  -11.5257   26.4928 C   0  0  0  0  0  0  0  0  0  0  0  0
    7.0771  -11.6264   25.2561 C   0  0  0  0  0  0  0  0  0  0  0  0
    7.2112  -12.8539   24.6458 C   0  0  0  0  0  0  0  0  0  0  0  0
    6.7417  -14.0020   25.2470 C   0  0  0  0  0  0  0  0  0  0  0  0
    9.6915  -16.2738   24.2094 C   0  0  0  0  0  0  0  0  0  0  0  0
   10.6062  -16.9404   23.6086 O   0  0  0  0  0  0  0  0  0  0  0  0
   10.8508  -15.4044   29.5130 C   0  0  0  0  0  0  0  0  0  0  0  0
   10.6415  -14.8493   28.1420 C   0  0  1  0  0  0  0  0  0  0  0  0
   10.6617  -13.3122   28.1690 C   0  0  0  0  0  0  0  0  0  0  0  0
   11.4254  -15.3999   27.0338 C   0  0  0  0  0  0  0  0  0  0  0  0
   10.9937  -16.6127   26.3024 C   0  0  2  0  0  0  0  0  0  0  0  0
    9.7130  -16.2350   25.6216 N   0  0  0  0  0  0  0  0  0  0  0  0
   10.7155  -17.8233   27.0702 C   0  0  0  0  0  0  0  0  0  0  0  0
   11.6611  -18.6546   27.6476 O   0  0  0  0  0  0  0  0  0  0  0  0
    9.5235  -18.1852   27.2437 O   0  0  0  0  0  0  0  0  0  0  0  0
  2  1  1  6
  2  3  1  0
  4  2  1  0
  5  4  1  0
  5  6  1  6
  7  8  2  0
  7  5  1  0
  9  7  1  0
 10  9  1  0
 10 11  1  1
 12 11  1  0
 13 12  2  0
 14 13  1  0
 15 14  1  0
 15 20  2  0
 16 15  1  0
 17 16  2  0
 17 18  1  0
 18 19  2  0
 19 20  1  0
 20 12  1  0
 21 10  1  0
 21 28  1  0
 22 21  2  0
 24 23  1  1
 24 25  1  0
 24 26  1  0
 27 26  1  1
 27 28  1  0
 27 29  1  0
 29 31  2  0
 29 30  1  0
M  END
$$$$
