LWL.pdb
     RDKit          3D

 31 32  0  0  1  0  0  0  0  0999 V2000
    9.6332  -19.0547   17.6806 C   0  0  0  0  0  0  0  0  0  0  0  0
   10.9648  -19.2772   18.3644 C   0  0  1  0  0  0  0  0  0  0  0  0
   11.9896  -19.5834   17.3351 C   0  0  0  0  0  0  0  0  0  0  0  0
   11.2985  -18.1415   19.2806 C   0  0  0  0  0  0  0  0  0  0  0  0
   10.8841  -18.4101   20.7018 C   0  0  2  0  0  0  0  0  0  0  0  0
    9.6619  -19.1940   20.6859 N   0  0  0  0  0  0  0  0  0  0  0  0
   10.6089  -17.1874   21.4651 C   0  0  0  0  0  0  0  0  0  0  0  0
   11.5041  -16.3060   21.5158 O   0  0  0  0  0  0  0  0  0  0  0  0
    9.4050  -16.9248   22.1516 N   0  0  0  0  0  0  0  0  0  0  0  0
    9.1786  -15.6741   22.9156 C   0  0  1  0  0  0  0  0  0  0  0  0
    7.7084  -15.5387   23.0455 C   0  0  0  0  0  0  0  0  0  0  0  0
    7.2091  -15.1990   24.3893 C   0  0  0  0  0  0  0  0  0  0  0  0
    6.7533  -15.9780   25.4293 C   0  0  0  0  0  0  0  0  0  0  0  0
    6.3674  -15.2487   26.4717 N   0  0  0  0  0  0  0  0  0  0  0  0
    6.5640  -13.9612   26.1338 C   0  0  0  0  0  0  0  0  0  0  0  0
    6.3191  -12.8214   26.8732 C   0  0  0  0  0  0  0  0  0  0  0  0
    6.5883  -11.5795   26.3485 C   0  0  0  0  0  0  0  0  0  0  0  0
    7.1082  -11.4982   25.0683 C   0  0  0  0  0  0  0  0  0  0  0  0
    7.3475  -12.6440   24.3423 C   0  0  0  0  0  0  0  0  0  0  0  0
    7.0773  -13.8888   24.8689 C   0  0  0  0  0  0  0  0  0  0  0  0
    9.9830  -15.6623   24.1286 C   0  0  0  0  0  0  0  0  0  0  0  0
   10.8616  -14.7349   24.2284 O   0  0  0  0  0  0  0  0  0  0  0  0
   10.4437  -15.2725   29.1451 C   0  0  0  0  0  0  0  0  0  0  0  0
   10.2739  -14.7343   27.7620 C   0  0  1  0  0  0  0  0  0  0  0  0
   10.2281  -13.1976   27.7784 C   0  0  0  0  0  0  0  0  0  0  0  0
   11.1300  -15.2573   26.6945 C   0  0  0  0  0  0  0  0  0  0  0  0
   10.9832  -16.6402   26.1865 C   0  0  2  0  0  0  0  0  0  0  0  0
    9.8631  -16.5847   25.1922 N   0  0  0  0  0  0  0  0  0  0  0  0
   10.6441  -17.6958   27.1367 C   0  0  0  0  0  0  0  0  0  0  0  0
   11.5019  -18.2564   28.0687 O   0  0  0  0  0  0  0  0  0  0  0  0
    9.4804  -18.1731   27.1416 O   0  0  0  0  0  0  0  0  0  0  0  0
  2  1  1  6
  2  3  1  0
  4  2  1  0
  5  4  1  0
  5  6  1  6
  7  8  2  0
  7  5  1  0
  9  7  1  0
 10  9  1  0
 10 11  1  1
 12 11  1  0
 13 12  2  0
 14 13  1  0
 15 14  1  0
 15 20  2  0
 16 15  1  0
 17 16  2  0
 17 18  1  0
 18 19  2  0
 19 20  1  0
 20 12  1  0
 21 10  1  0
 21 28  1  0
 22 21  2  0
 24 23  1  1
 24 25  1  0
 24 26  1  0
 27 26  1  1
 27 28  1  0
 27 29  1  0
 29 31  2  0
 29 30  1  0
M  END
$$$$
