LWL.pdb
     RDKit          3D

 31 32  0  0  1  0  0  0  0  0999 V2000
    8.2198  -13.2688   16.6399 C   0  0  0  0  0  0  0  0  0  0  0  0
    8.8950  -14.4172   17.3580 C   0  0  1  0  0  0  0  0  0  0  0  0
   10.1330  -14.7824   16.6250 C   0  0  0  0  0  0  0  0  0  0  0  0
    9.0793  -14.1122   18.8118 C   0  0  0  0  0  0  0  0  0  0  0  0
    9.7930  -15.2162   19.5436 C   0  0  2  0  0  0  0  0  0  0  0  0
    9.1529  -16.4772   19.2143 N   0  0  0  0  0  0  0  0  0  0  0  0
    9.7436  -15.0692   21.0029 C   0  0  0  0  0  0  0  0  0  0  0  0
   10.3936  -14.1288   21.5264 O   0  0  0  0  0  0  0  0  0  0  0  0
    9.0153  -15.9110   21.8692 N   0  0  0  0  0  0  0  0  0  0  0  0
    8.6933  -15.5316   23.2662 C   0  0  1  0  0  0  0  0  0  0  0  0
    7.2502  -15.8200   23.4424 C   0  0  0  0  0  0  0  0  0  0  0  0
    6.6375  -15.3077   24.6804 C   0  0  0  0  0  0  0  0  0  0  0  0
    5.9208  -15.9261   25.6806 C   0  0  0  0  0  0  0  0  0  0  0  0
    5.5250  -15.0703   26.6178 N   0  0  0  0  0  0  0  0  0  0  0  0
    5.9787  -13.8587   26.2482 C   0  0  0  0  0  0  0  0  0  0  0  0
    5.8304  -12.6434   26.8860 C   0  0  0  0  0  0  0  0  0  0  0  0
    6.3726  -11.5019   26.3447 C   0  0  0  0  0  0  0  0  0  0  0  0
    7.0674  -11.5982   25.1514 C   0  0  0  0  0  0  0  0  0  0  0  0
    7.2074  -12.8175   24.5263 C   0  0  0  0  0  0  0  0  0  0  0  0
    6.6635  -13.9616   25.0695 C   0  0  0  0  0  0  0  0  0  0  0  0
    9.6371  -16.1397   24.1925 C   0  0  0  0  0  0  0  0  0  0  0  0
   10.5787  -16.8406   23.6784 O   0  0  0  0  0  0  0  0  0  0  0  0
    9.7589  -14.3689   29.4347 C   0  0  0  0  0  0  0  0  0  0  0  0
   10.1239  -14.7426   28.0352 C   0  0  1  0  0  0  0  0  0  0  0  0
   11.0724  -13.6987   27.4235 C   0  0  0  0  0  0  0  0  0  0  0  0
   10.5540  -16.1166   27.7644 C   0  0  0  0  0  0  0  0  0  0  0  0
   10.7141  -16.6238   26.3827 C   0  0  2  0  0  0  0  0  0  0  0  0
    9.5935  -16.0105   25.5987 N   0  0  0  0  0  0  0  0  0  0  0  0
   10.6378  -18.0649   26.1597 C   0  0  0  0  0  0  0  0  0  0  0  0
    9.5858  -18.7402   25.5631 O   0  0  0  0  0  0  0  0  0  0  0  0
   11.5885  -18.7995   26.5318 O   0  0  0  0  0  0  0  0  0  0  0  0
  2  1  1  6
  2  3  1  0
  4  2  1  0
  5  4  1  0
  5  6  1  1
  7  8  2  0
  7  5  1  0
  9  7  1  0
 10  9  1  0
 10 11  1  1
 12 11  1  0
 13 12  2  0
 14 13  1  0
 15 14  1  0
 15 20  2  0
 16 15  1  0
 17 16  2  0
 17 18  1  0
 18 19  2  0
 19 20  1  0
 20 12  1  0
 21 10  1  0
 21 28  1  0
 22 21  2  0
 24 23  1  1
 24 25  1  0
 24 26  1  0
 27 26  1  1
 27 28  1  0
 27 29  1  0
 29 31  2  0
 29 30  1  0
M  END
$$$$
