LWL.pdb
     RDKit          3D

 31 32  0  0  1  0  0  0  0  0999 V2000
    5.3588  -15.9503   19.3111 C   0  0  0  0  0  0  0  0  0  0  0  0
    6.3354  -16.7695   20.1269 C   0  0  1  0  0  0  0  0  0  0  0  0
    6.9874  -17.7654   19.2400 C   0  0  0  0  0  0  0  0  0  0  0  0
    7.2705  -15.8885   20.8950 C   0  0  0  0  0  0  0  0  0  0  0  0
    8.2951  -16.6745   21.6671 C   0  0  2  0  0  0  0  0  0  0  0  0
    7.6012  -17.5842   22.5612 N   0  0  0  0  0  0  0  0  0  0  0  0
    9.1686  -15.8323   22.4925 C   0  0  0  0  0  0  0  0  0  0  0  0
    9.9112  -15.0004   21.9118 O   0  0  0  0  0  0  0  0  0  0  0  0
    9.2378  -15.8868   23.9002 N   0  0  0  0  0  0  0  0  0  0  0  0
   10.3473  -15.2726   24.6689 C   0  0  1  0  0  0  0  0  0  0  0  0
    9.7201  -14.2496   25.5390 C   0  0  0  0  0  0  0  0  0  0  0  0
    8.2473  -14.2179   25.5372 C   0  0  0  0  0  0  0  0  0  0  0  0
    7.3025  -15.2047   25.3641 C   0  0  0  0  0  0  0  0  0  0  0  0
    6.0627  -14.7272   25.4116 N   0  0  0  0  0  0  0  0  0  0  0  0
    6.1690  -13.4020   25.6192 C   0  0  0  0  0  0  0  0  0  0  0  0
    5.1687  -12.4588   25.7435 C   0  0  0  0  0  0  0  0  0  0  0  0
    5.4804  -11.1365   25.9545 C   0  0  0  0  0  0  0  0  0  0  0  0
    6.8136  -10.7741   26.0392 C   0  0  0  0  0  0  0  0  0  0  0  0
    7.8010  -11.7261   25.9133 C   0  0  0  0  0  0  0  0  0  0  0  0
    7.4878  -13.0517   25.7017 C   0  0  0  0  0  0  0  0  0  0  0  0
   11.1686  -16.2999   25.2923 C   0  0  0  0  0  0  0  0  0  0  0  0
   12.3501  -16.4571   24.8220 O   0  0  0  0  0  0  0  0  0  0  0  0
    9.9502  -15.6656   30.2483 C   0  0  0  0  0  0  0  0  0  0  0  0
   10.6642  -15.8756   28.9531 C   0  0  1  0  0  0  0  0  0  0  0  0
   11.6357  -14.7172   28.6737 C   0  0  0  0  0  0  0  0  0  0  0  0
   11.2632  -17.1854   28.6853 C   0  0  0  0  0  0  0  0  0  0  0  0
   11.8142  -17.5318   27.3555 C   0  0  2  0  0  0  0  0  0  0  0  0
   10.7640  -17.1220   26.3678 N   0  0  0  0  0  0  0  0  0  0  0  0
   12.1243  -18.9313   27.0765 C   0  0  0  0  0  0  0  0  0  0  0  0
   11.4975  -19.7301   26.1343 O   0  0  0  0  0  0  0  0  0  0  0  0
   13.0321  -19.5059   27.7304 O   0  0  0  0  0  0  0  0  0  0  0  0
  2  1  1  6
  2  3  1  0
  4  2  1  0
  5  4  1  0
  5  6  1  1
  7  8  2  0
  7  5  1  0
  9  7  1  0
 10  9  1  0
 10 11  1  1
 12 11  1  0
 13 12  2  0
 14 13  1  0
 15 14  1  0
 15 20  2  0
 16 15  1  0
 17 16  2  0
 17 18  1  0
 18 19  2  0
 19 20  1  0
 20 12  1  0
 21 10  1  0
 21 28  1  0
 22 21  2  0
 24 23  1  1
 24 25  1  0
 24 26  1  0
 27 26  1  1
 27 28  1  0
 27 29  1  0
 29 31  2  0
 29 30  1  0
M  END
$$$$
