LWL.pdb
     RDKit          3D

 31 32  0  0  1  0  0  0  0  0999 V2000
    7.5929  -13.0371   17.6326 C   0  0  0  0  0  0  0  0  0  0  0  0
    8.3395  -14.2048   18.2404 C   0  0  1  0  0  0  0  0  0  0  0  0
    9.4570  -14.5833   17.3396 C   0  0  0  0  0  0  0  0  0  0  0  0
    8.7291  -13.9190   19.6571 C   0  0  0  0  0  0  0  0  0  0  0  0
    9.4350  -15.0799   20.3033 C   0  0  2  0  0  0  0  0  0  0  0  0
    8.7336  -16.3013   19.9499 N   0  0  0  0  0  0  0  0  0  0  0  0
    9.4600  -14.9989   21.7683 C   0  0  0  0  0  0  0  0  0  0  0  0
    9.9659  -13.9765   22.2970 O   0  0  0  0  0  0  0  0  0  0  0  0
    8.9545  -15.9906   22.6348 N   0  0  0  0  0  0  0  0  0  0  0  0
    8.7606  -15.7581   24.0866 C   0  0  1  0  0  0  0  0  0  0  0  0
    7.4456  -16.3547   24.4207 C   0  0  0  0  0  0  0  0  0  0  0  0
    6.5230  -15.4948   25.1822 C   0  0  0  0  0  0  0  0  0  0  0  0
    5.2611  -15.7143   25.6879 C   0  0  0  0  0  0  0  0  0  0  0  0
    4.7703  -14.6398   26.2977 N   0  0  0  0  0  0  0  0  0  0  0  0
    5.7104  -13.6817   26.2040 C   0  0  0  0  0  0  0  0  0  0  0  0
    5.6810  -12.3857   26.6787 C   0  0  0  0  0  0  0  0  0  0  0  0
    6.7523  -11.5471   26.4812 C   0  0  0  0  0  0  0  0  0  0  0  0
    7.8559  -12.0292   25.7989 C   0  0  0  0  0  0  0  0  0  0  0  0
    7.8712  -13.3245   25.3309 C   0  0  0  0  0  0  0  0  0  0  0  0
    6.7967  -14.1649   25.5292 C   0  0  0  0  0  0  0  0  0  0  0  0
    9.9285  -16.1973   24.8360 C   0  0  0  0  0  0  0  0  0  0  0  0
   10.9249  -16.6239   24.1523 O   0  0  0  0  0  0  0  0  0  0  0  0
   10.3525  -14.6428   29.9974 C   0  0  0  0  0  0  0  0  0  0  0  0
   10.7024  -14.8927   28.5668 C   0  0  1  0  0  0  0  0  0  0  0  0
   11.4078  -13.6698   27.9579 C   0  0  0  0  0  0  0  0  0  0  0  0
   11.3624  -16.1523   28.2146 C   0  0  0  0  0  0  0  0  0  0  0  0
   11.3212  -16.6938   26.8373 C   0  0  2  0  0  0  0  0  0  0  0  0
   10.0432  -16.1826   26.2441 N   0  0  0  0  0  0  0  0  0  0  0  0
   11.3107  -18.1435   26.6620 C   0  0  0  0  0  0  0  0  0  0  0  0
   10.2295  -18.9040   26.2480 O   0  0  0  0  0  0  0  0  0  0  0  0
   12.3543  -18.8031   26.9022 O   0  0  0  0  0  0  0  0  0  0  0  0
  2  1  1  6
  2  3  1  0
  4  2  1  0
  5  4  1  0
  5  6  1  1
  7  8  2  0
  7  5  1  0
  9  7  1  0
 10  9  1  0
 10 11  1  1
 12 11  1  0
 13 12  2  0
 14 13  1  0
 15 14  1  0
 15 20  2  0
 16 15  1  0
 17 16  2  0
 17 18  1  0
 18 19  2  0
 19 20  1  0
 20 12  1  0
 21 10  1  0
 21 28  1  0
 22 21  2  0
 24 23  1  1
 24 25  1  0
 24 26  1  0
 27 26  1  1
 27 28  1  0
 27 29  1  0
 29 31  2  0
 29 30  1  0
M  END
$$$$
