MFW.pdb
     RDKit          3D

 34 36  0  0  1  0  0  0  0  0999 V2000
   25.5184  -17.9791  -19.4382 C   0  0  0  0  0  0  0  0  0  0  0  0
   26.5230  -19.1274  -20.4166 S   0  0  0  0  0  0  0  0  0  0  0  0
   27.6349  -20.0691  -19.3346 C   0  0  0  0  0  0  0  0  0  0  0  0
   26.8410  -20.6791  -18.1794 C   0  0  0  0  0  0  0  0  0  0  0  0
   27.8482  -21.2890  -17.2445 C   0  0  2  0  0  0  0  0  0  0  0  0
   28.3152  -22.5205  -17.8436 N   0  0  0  0  0  0  0  0  0  0  0  0
   27.3332  -21.4815  -15.8804 C   0  0  0  0  0  0  0  0  0  0  0  0
   26.5636  -22.4490  -15.6445 O   0  0  0  0  0  0  0  0  0  0  0  0
   27.6311  -20.6545  -14.7746 N   0  0  0  0  0  0  0  0  0  0  0  0
   27.0396  -20.7963  -13.4831 C   0  0  1  0  0  0  0  0  0  0  0  0
   27.7435  -20.1846  -12.3510 C   0  0  0  0  0  0  0  0  0  0  0  0
   27.0476  -20.3161  -11.0434 C   0  0  0  0  0  0  0  0  0  0  0  0
   27.3294  -21.3794  -10.1818 C   0  0  0  0  0  0  0  0  0  0  0  0
   26.6892  -21.5110   -8.9688 C   0  0  0  0  0  0  0  0  0  0  0  0
   25.7337  -20.5921   -8.5463 C   0  0  0  0  0  0  0  0  0  0  0  0
   25.4502  -19.5480   -9.3813 C   0  0  0  0  0  0  0  0  0  0  0  0
   26.0979  -19.4254  -10.5955 C   0  0  0  0  0  0  0  0  0  0  0  0
   25.6354  -20.3460  -13.5264 C   0  0  0  0  0  0  0  0  0  0  0  0
   25.3526  -19.1541  -13.8907 O   0  0  0  0  0  0  0  0  0  0  0  0
   24.5118  -21.1614  -13.1860 N   0  0  0  0  0  0  0  0  0  0  0  0
   23.1441  -20.5919  -13.2144 C   0  0  1  0  0  0  0  0  0  0  0  0
   22.5991  -20.9206  -14.5635 C   0  0  0  0  0  0  0  0  0  0  0  0
   21.2236  -20.5151  -14.8476 C   0  0  0  0  0  0  0  0  0  0  0  0
   20.7078  -19.2283  -15.0088 C   0  0  0  0  0  0  0  0  0  0  0  0
   19.3825  -19.2808  -15.2283 N   0  0  0  0  0  0  0  0  0  0  0  0
   18.9981  -20.5623  -15.2192 C   0  0  0  0  0  0  0  0  0  0  0  0
   17.7467  -21.1064  -15.4122 C   0  0  0  0  0  0  0  0  0  0  0  0
   17.5708  -22.4716  -15.3796 C   0  0  0  0  0  0  0  0  0  0  0  0
   18.6724  -23.2615  -15.1509 C   0  0  0  0  0  0  0  0  0  0  0  0
   19.8984  -22.7026  -14.9624 C   0  0  0  0  0  0  0  0  0  0  0  0
   20.1318  -21.3405  -14.9840 C   0  0  0  0  0  0  0  0  0  0  0  0
   22.3729  -21.1989  -12.1397 C   0  0  0  0  0  0  0  0  0  0  0  0
   21.2215  -20.7856  -11.8636 O   0  0  0  0  0  0  0  0  0  0  0  0
   22.8422  -22.2593  -11.3634 O   0  0  0  0  0  0  0  0  0  0  0  0
  1  2  1  0
  3  2  1  0
  4  3  1  0
  5  6  1  6
  5  4  1  0
  7  5  1  0
  8  7  2  0
  9  7  1  0
 10  9  1  0
 10 11  1  1
 11 12  1  0
 12 13  2  0
 13 14  1  0
 15 14  2  0
 16 15  1  0
 17 12  1  0
 17 16  2  0
 18 10  1  0
 19 18  2  0
 20 18  1  0
 21 20  1  0
 21 22  1  6
 22 23  1  0
 23 31  1  0
 24 23  2  0
 24 25  1  0
 25 26  1  0
 26 27  1  0
 27 28  2  0
 29 28  1  0
 30 29  2  0
 31 26  2  0
 31 30  1  0
 32 21  1  0
 32 34  1  0
 33 32  2  0
M  END
$$$$
