MFW.pdb
     RDKit          3D

 34 36  0  0  1  0  0  0  0  0999 V2000
   27.6393  -19.2655  -15.1021 C   0  0  0  0  0  0  0  0  0  0  0  0
   29.4408  -19.0722  -15.0567 S   0  0  0  0  0  0  0  0  0  0  0  0
   30.0844  -19.5555  -13.4301 C   0  0  0  0  0  0  0  0  0  0  0  0
   28.9552  -20.1317  -12.5757 C   0  0  0  0  0  0  0  0  0  0  0  0
   29.5581  -20.4631  -11.2388 C   0  0  2  0  0  0  0  0  0  0  0  0
   30.5522  -21.4935  -11.4478 N   0  0  0  0  0  0  0  0  0  0  0  0
   28.5583  -20.8364  -10.2268 C   0  0  0  0  0  0  0  0  0  0  0  0
   28.2541  -22.0490  -10.0811 O   0  0  0  0  0  0  0  0  0  0  0  0
   27.8856  -19.9315   -9.3760 N   0  0  0  0  0  0  0  0  0  0  0  0
   26.5937  -20.1652   -8.8152 C   0  0  1  0  0  0  0  0  0  0  0  0
   26.2777  -19.4908   -7.5517 C   0  0  0  0  0  0  0  0  0  0  0  0
   27.2458  -19.7474   -6.4524 C   0  0  0  0  0  0  0  0  0  0  0  0
   28.2205  -18.8041   -6.1169 C   0  0  0  0  0  0  0  0  0  0  0  0
   29.1229  -19.0327   -5.1011 C   0  0  0  0  0  0  0  0  0  0  0  0
   29.1052  -20.2121   -4.3632 C   0  0  0  0  0  0  0  0  0  0  0  0
   28.1560  -21.1419   -4.6828 C   0  0  0  0  0  0  0  0  0  0  0  0
   27.2558  -20.9026   -5.7034 C   0  0  0  0  0  0  0  0  0  0  0  0
   25.5549  -19.8889   -9.8256 C   0  0  0  0  0  0  0  0  0  0  0  0
   25.6494  -18.8630  -10.5819 O   0  0  0  0  0  0  0  0  0  0  0  0
   24.4023  -20.7047  -10.0474 N   0  0  0  0  0  0  0  0  0  0  0  0
   23.4392  -20.3557  -11.1181 C   0  0  1  0  0  0  0  0  0  0  0  0
   23.8742  -21.1279  -12.3180 C   0  0  0  0  0  0  0  0  0  0  0  0
   23.0558  -21.0099  -13.5236 C   0  0  0  0  0  0  0  0  0  0  0  0
   22.7093  -19.8603  -14.2352 C   0  0  0  0  0  0  0  0  0  0  0  0
   21.9136  -20.1753  -15.2720 N   0  0  0  0  0  0  0  0  0  0  0  0
   21.7188  -21.4990  -15.2747 C   0  0  0  0  0  0  0  0  0  0  0  0
   20.9912  -22.2789  -16.1475 C   0  0  0  0  0  0  0  0  0  0  0  0
   20.9356  -23.6441  -15.9771 C   0  0  0  0  0  0  0  0  0  0  0  0
   21.6219  -24.1936  -14.9204 C   0  0  0  0  0  0  0  0  0  0  0  0
   22.3334  -23.4043  -14.0708 C   0  0  0  0  0  0  0  0  0  0  0  0
   22.4229  -22.0306  -14.1940 C   0  0  0  0  0  0  0  0  0  0  0  0
   22.1044  -20.7262  -10.6719 C   0  0  0  0  0  0  0  0  0  0  0  0
   21.9452  -21.5384   -9.7297 O   0  0  0  0  0  0  0  0  0  0  0  0
   20.9366  -20.2149  -11.2395 O   0  0  0  0  0  0  0  0  0  0  0  0
  1  2  1  0
  3  2  1  0
  4  3  1  0
  5  6  1  6
  5  4  1  0
  7  5  1  0
  8  7  2  0
  9  7  1  0
 10  9  1  0
 10 11  1  1
 11 12  1  0
 12 13  2  0
 13 14  1  0
 15 14  2  0
 16 15  1  0
 17 12  1  0
 17 16  2  0
 18 10  1  0
 19 18  2  0
 20 18  1  0
 21 20  1  0
 21 22  1  6
 22 23  1  0
 23 31  1  0
 24 23  2  0
 24 25  1  0
 25 26  1  0
 26 27  1  0
 27 28  2  0
 29 28  1  0
 30 29  2  0
 31 26  2  0
 31 30  1  0
 32 21  1  0
 32 34  1  0
 33 32  2  0
M  END
$$$$
