MFW.pdb
     RDKit          3D

 34 36  0  0  1  0  0  0  0  0999 V2000
   16.8834   -8.9311  -22.0201 C   0  0  0  0  0  0  0  0  0  0  0  0
   15.9460   -7.7155  -22.9837 S   0  0  0  0  0  0  0  0  0  0  0  0
   16.1871   -6.0511  -22.3014 C   0  0  0  0  0  0  0  0  0  0  0  0
   17.3510   -6.0604  -21.3103 C   0  0  0  0  0  0  0  0  0  0  0  0
   17.4620   -4.6619  -20.7694 C   0  0  2  0  0  0  0  0  0  0  0  0
   17.9155   -3.8084  -21.8462 N   0  0  0  0  0  0  0  0  0  0  0  0
   18.3129   -4.5670  -19.5735 C   0  0  0  0  0  0  0  0  0  0  0  0
   19.4997   -4.1653  -19.6937 O   0  0  0  0  0  0  0  0  0  0  0  0
   17.9095   -4.8958  -18.2604 N   0  0  0  0  0  0  0  0  0  0  0  0
   18.7448   -4.7736  -17.1091 C   0  0  1  0  0  0  0  0  0  0  0  0
   18.4444   -3.6846  -16.1737 C   0  0  0  0  0  0  0  0  0  0  0  0
   18.5756   -2.3193  -16.7482 C   0  0  0  0  0  0  0  0  0  0  0  0
   17.4959   -1.6977  -17.3808 C   0  0  0  0  0  0  0  0  0  0  0  0
   17.6076   -0.4336  -17.9174 C   0  0  0  0  0  0  0  0  0  0  0  0
   18.7993    0.2817  -17.8542 C   0  0  0  0  0  0  0  0  0  0  0  0
   19.8621   -0.3168  -17.2376 C   0  0  0  0  0  0  0  0  0  0  0  0
   19.7394   -1.5848  -16.7028 C   0  0  0  0  0  0  0  0  0  0  0  0
   18.8071   -6.0656  -16.3997 C   0  0  0  0  0  0  0  0  0  0  0  0
   17.7374   -6.6130  -15.9643 O   0  0  0  0  0  0  0  0  0  0  0  0
   20.0102   -6.7950  -16.1479 N   0  0  0  0  0  0  0  0  0  0  0  0
   19.9643   -8.0643  -15.3846 C   0  0  1  0  0  0  0  0  0  0  0  0
   20.8682   -9.0033  -16.1103 C   0  0  0  0  0  0  0  0  0  0  0  0
   21.0703  -10.3268  -15.5234 C   0  0  0  0  0  0  0  0  0  0  0  0
   20.1134  -11.2662  -15.1362 C   0  0  0  0  0  0  0  0  0  0  0  0
   20.7095  -12.3497  -14.6091 N   0  0  0  0  0  0  0  0  0  0  0  0
   22.0341  -12.1630  -14.6329 C   0  0  0  0  0  0  0  0  0  0  0  0
   23.0476  -12.9985  -14.2157 C   0  0  0  0  0  0  0  0  0  0  0  0
   24.3630  -12.6142  -14.3488 C   0  0  0  0  0  0  0  0  0  0  0  0
   24.6258  -11.3847  -14.9047 C   0  0  0  0  0  0  0  0  0  0  0  0
   23.6093  -10.5758  -15.3091 C   0  0  0  0  0  0  0  0  0  0  0  0
   22.2728  -10.9103  -15.1987 C   0  0  0  0  0  0  0  0  0  0  0  0
   20.4133   -7.7981  -14.0261 C   0  0  0  0  0  0  0  0  0  0  0  0
   21.2719   -6.9135  -13.7958 O   0  0  0  0  0  0  0  0  0  0  0  0
   19.9309   -8.4840  -12.9107 O   0  0  0  0  0  0  0  0  0  0  0  0
  1  2  1  0
  3  2  1  0
  4  3  1  0
  5  6  1  6
  5  4  1  0
  7  5  1  0
  8  7  2  0
  9  7  1  0
 10  9  1  0
 10 11  1  1
 11 12  1  0
 12 13  2  0
 13 14  1  0
 15 14  2  0
 16 15  1  0
 17 12  1  0
 17 16  2  0
 18 10  1  0
 19 18  2  0
 20 18  1  0
 21 20  1  0
 21 22  1  6
 22 23  1  0
 23 31  1  0
 24 23  2  0
 24 25  1  0
 25 26  1  0
 26 27  1  0
 27 28  2  0
 29 28  1  0
 30 29  2  0
 31 26  2  0
 31 30  1  0
 32 21  1  0
 32 34  1  0
 33 32  2  0
M  END
$$$$
