MFW.pdb
     RDKit          3D

 34 36  0  0  1  0  0  0  0  0999 V2000
   26.2329  -16.3078  -20.1947 C   0  0  0  0  0  0  0  0  0  0  0  0
   26.3581  -17.5532  -18.8839 S   0  0  0  0  0  0  0  0  0  0  0  0
   27.3323  -16.9086  -17.4949 C   0  0  0  0  0  0  0  0  0  0  0  0
   27.6411  -18.0365  -16.5102 C   0  0  0  0  0  0  0  0  0  0  0  0
   26.3232  -18.6695  -16.1596 C   0  0  2  0  0  0  0  0  0  0  0  0
   25.5925  -17.7346  -15.3317 N   0  0  0  0  0  0  0  0  0  0  0  0
   26.4625  -19.9930  -15.5333 C   0  0  0  0  0  0  0  0  0  0  0  0
   27.2405  -20.1309  -14.5537 O   0  0  0  0  0  0  0  0  0  0  0  0
   25.7828  -21.1617  -15.9426 N   0  0  0  0  0  0  0  0  0  0  0  0
   25.9380  -22.4392  -15.3247 C   0  0  1  0  0  0  0  0  0  0  0  0
   24.8012  -22.9560  -14.5553 C   0  0  0  0  0  0  0  0  0  0  0  0
   24.5914  -22.2961  -13.2393 C   0  0  0  0  0  0  0  0  0  0  0  0
   25.4692  -22.5175  -12.1750 C   0  0  0  0  0  0  0  0  0  0  0  0
   25.2829  -21.9121  -10.9514 C   0  0  0  0  0  0  0  0  0  0  0  0
   24.2133  -21.0531  -10.7193 C   0  0  0  0  0  0  0  0  0  0  0  0
   23.3483  -20.8294  -11.7535 C   0  0  0  0  0  0  0  0  0  0  0  0
   23.5442  -21.4416  -12.9765 C   0  0  0  0  0  0  0  0  0  0  0  0
   26.3787  -23.4272  -16.3277 C   0  0  0  0  0  0  0  0  0  0  0  0
   25.9028  -23.3967  -17.5135 O   0  0  0  0  0  0  0  0  0  0  0  0
   27.3365  -24.4595  -16.0824 N   0  0  0  0  0  0  0  0  0  0  0  0
   27.6760  -25.4280  -17.1513 C   0  0  1  0  0  0  0  0  0  0  0  0
   28.9284  -26.1018  -16.7009 C   0  0  0  0  0  0  0  0  0  0  0  0
   29.4301  -27.2019  -17.5227 C   0  0  0  0  0  0  0  0  0  0  0  0
   30.0730  -27.1453  -18.7602 C   0  0  0  0  0  0  0  0  0  0  0  0
   30.3482  -28.3853  -19.2004 N   0  0  0  0  0  0  0  0  0  0  0  0
   29.9097  -29.2675  -18.2951 C   0  0  0  0  0  0  0  0  0  0  0  0
   29.9803  -30.6438  -18.3024 C   0  0  0  0  0  0  0  0  0  0  0  0
   29.4760  -31.3703  -17.2472 C   0  0  0  0  0  0  0  0  0  0  0  0
   28.9076  -30.6836  -16.2007 C   0  0  0  0  0  0  0  0  0  0  0  0
   28.8481  -29.3245  -16.2149 C   0  0  0  0  0  0  0  0  0  0  0  0
   29.3371  -28.5463  -17.2471 C   0  0  0  0  0  0  0  0  0  0  0  0
   26.5655  -26.3573  -17.2968 C   0  0  0  0  0  0  0  0  0  0  0  0
   25.8051  -26.6047  -16.3307 O   0  0  0  0  0  0  0  0  0  0  0  0
   26.2699  -27.0184  -18.4896 O   0  0  0  0  0  0  0  0  0  0  0  0
  1  2  1  0
  3  2  1  0
  4  3  1  0
  5  6  1  1
  5  4  1  0
  7  5  1  0
  8  7  2  0
  9  7  1  0
 10  9  1  0
 10 11  1  6
 11 12  1  0
 12 13  2  0
 13 14  1  0
 15 14  2  0
 16 15  1  0
 17 12  1  0
 17 16  2  0
 18 10  1  0
 19 18  2  0
 20 18  1  0
 21 20  1  0
 21 22  1  1
 22 23  1  0
 23 31  1  0
 24 23  2  0
 24 25  1  0
 25 26  1  0
 26 27  1  0
 27 28  2  0
 29 28  1  0
 30 29  2  0
 31 26  2  0
 31 30  1  0
 32 21  1  0
 32 34  1  0
 33 32  2  0
M  END
$$$$
