MFW.pdb
     RDKit          3D

 34 36  0  0  1  0  0  0  0  0999 V2000
   15.5977  -24.4335   -5.6559 C   0  0  0  0  0  0  0  0  0  0  0  0
   15.5967  -23.9613   -3.9061 S   0  0  0  0  0  0  0  0  0  0  0  0
   14.3555  -22.6723   -3.6032 C   0  0  0  0  0  0  0  0  0  0  0  0
   14.2601  -22.3859   -2.1046 C   0  0  0  0  0  0  0  0  0  0  0  0
   13.5930  -23.5815   -1.4833 C   0  0  2  0  0  0  0  0  0  0  0  0
   12.2177  -23.6009   -1.9325 N   0  0  0  0  0  0  0  0  0  0  0  0
   13.7115  -23.6171   -0.0177 C   0  0  0  0  0  0  0  0  0  0  0  0
   12.9528  -22.8932    0.6782 O   0  0  0  0  0  0  0  0  0  0  0  0
   14.6277  -24.4133    0.7048 N   0  0  0  0  0  0  0  0  0  0  0  0
   14.7169  -24.4429    2.1293 C   0  0  1  0  0  0  0  0  0  0  0  0
   15.3903  -25.5959    2.7364 C   0  0  0  0  0  0  0  0  0  0  0  0
   15.4135  -25.5887    4.2233 C   0  0  0  0  0  0  0  0  0  0  0  0
   14.3783  -26.1672    4.9621 C   0  0  0  0  0  0  0  0  0  0  0  0
   14.3897  -26.1646    6.3399 C   0  0  0  0  0  0  0  0  0  0  0  0
   15.4315  -25.5865    7.0584 C   0  0  0  0  0  0  0  0  0  0  0  0
   16.4495  -25.0176    6.3458 C   0  0  0  0  0  0  0  0  0  0  0  0
   16.4283  -25.0256    4.9643 C   0  0  0  0  0  0  0  0  0  0  0  0
   15.3052  -23.1813    2.6177 C   0  0  0  0  0  0  0  0  0  0  0  0
   16.3683  -22.7167    2.0815 O   0  0  0  0  0  0  0  0  0  0  0  0
   14.7661  -22.3940    3.6821 N   0  0  0  0  0  0  0  0  0  0  0  0
   15.4527  -21.1526    4.1101 C   0  0  1  0  0  0  0  0  0  0  0  0
   14.9890  -20.0915    3.1697 C   0  0  0  0  0  0  0  0  0  0  0  0
   15.2040  -18.7017    3.5689 C   0  0  0  0  0  0  0  0  0  0  0  0
   16.3870  -18.0824    3.9752 C   0  0  0  0  0  0  0  0  0  0  0  0
   16.1564  -16.7956    4.2885 N   0  0  0  0  0  0  0  0  0  0  0  0
   14.8569  -16.5368    4.1035 C   0  0  0  0  0  0  0  0  0  0  0  0
   14.1608  -15.3603    4.2792 C   0  0  0  0  0  0  0  0  0  0  0  0
   12.8116  -15.3054    4.0105 C   0  0  0  0  0  0  0  0  0  0  0  0
   12.1921  -16.4496    3.5670 C   0  0  0  0  0  0  0  0  0  0  0  0
   12.8990  -17.6002    3.4012 C   0  0  0  0  0  0  0  0  0  0  0  0
   14.2528  -17.7121    3.6562 C   0  0  0  0  0  0  0  0  0  0  0  0
   15.0798  -20.8754    5.4893 C   0  0  0  0  0  0  0  0  0  0  0  0
   14.0413  -21.3733    5.9857 O   0  0  0  0  0  0  0  0  0  0  0  0
   15.8321  -20.0630    6.3387 O   0  0  0  0  0  0  0  0  0  0  0  0
  1  2  1  0
  3  2  1  0
  4  3  1  0
  5  6  1  1
  5  4  1  0
  7  5  1  0
  8  7  2  0
  9  7  1  0
 10  9  1  0
 10 11  1  6
 11 12  1  0
 12 13  2  0
 13 14  1  0
 15 14  2  0
 16 15  1  0
 17 12  1  0
 17 16  2  0
 18 10  1  0
 19 18  2  0
 20 18  1  0
 21 20  1  0
 21 22  1  6
 22 23  1  0
 23 31  1  0
 24 23  2  0
 24 25  1  0
 25 26  1  0
 26 27  1  0
 27 28  2  0
 29 28  1  0
 30 29  2  0
 31 26  2  0
 31 30  1  0
 32 21  1  0
 32 34  1  0
 33 32  2  0
M  END
$$$$
