MFW.pdb
     RDKit          3D

 34 36  0  0  1  0  0  0  0  0999 V2000
   29.1278  -20.3700   -4.4092 C   0  0  0  0  0  0  0  0  0  0  0  0
   27.5072  -19.5892   -4.1876 S   0  0  0  0  0  0  0  0  0  0  0  0
   26.2061  -20.6228   -4.9173 C   0  0  0  0  0  0  0  0  0  0  0  0
   25.8134  -20.0715   -6.2881 C   0  0  0  0  0  0  0  0  0  0  0  0
   26.8675  -20.5377   -7.2535 C   0  0  2  0  0  0  0  0  0  0  0  0
   28.1378  -20.0075   -6.8077 N   0  0  0  0  0  0  0  0  0  0  0  0
   26.5683  -20.1931   -8.6517 C   0  0  0  0  0  0  0  0  0  0  0  0
   26.4635  -18.9820   -8.9776 O   0  0  0  0  0  0  0  0  0  0  0  0
   26.3812  -21.1251   -9.6965 N   0  0  0  0  0  0  0  0  0  0  0  0
   26.5161  -20.8148  -11.0834 C   0  0  1  0  0  0  0  0  0  0  0  0
   27.4423  -21.6373  -11.8689 C   0  0  0  0  0  0  0  0  0  0  0  0
   27.5789  -21.2301  -13.2926 C   0  0  0  0  0  0  0  0  0  0  0  0
   28.2653  -20.0654  -13.6455 C   0  0  0  0  0  0  0  0  0  0  0  0
   28.3964  -19.6787  -14.9614 C   0  0  0  0  0  0  0  0  0  0  0  0
   27.8520  -20.4294  -15.9987 C   0  0  0  0  0  0  0  0  0  0  0  0
   27.1784  -21.5708  -15.6650 C   0  0  0  0  0  0  0  0  0  0  0  0
   27.0527  -21.9495  -14.3422 C   0  0  0  0  0  0  0  0  0  0  0  0
   25.1847  -20.7815  -11.7180 C   0  0  0  0  0  0  0  0  0  0  0  0
   24.3840  -21.7689  -11.5863 O   0  0  0  0  0  0  0  0  0  0  0  0
   24.6858  -19.6931  -12.4988 N   0  0  0  0  0  0  0  0  0  0  0  0
   23.3615  -19.7949  -13.1557 C   0  0  1  0  0  0  0  0  0  0  0  0
   23.0563  -18.4249  -13.6609 C   0  0  0  0  0  0  0  0  0  0  0  0
   21.8291  -18.2548  -14.4369 C   0  0  0  0  0  0  0  0  0  0  0  0
   20.5052  -18.4104  -14.0231 C   0  0  0  0  0  0  0  0  0  0  0  0
   19.6664  -18.1926  -15.0508 N   0  0  0  0  0  0  0  0  0  0  0  0
   20.3889  -17.8960  -16.1370 C   0  0  0  0  0  0  0  0  0  0  0  0
   19.9713  -17.5855  -17.4132 C   0  0  0  0  0  0  0  0  0  0  0  0
   20.8929  -17.2904  -18.3926 C   0  0  0  0  0  0  0  0  0  0  0  0
   22.2258  -17.3161  -18.0569 C   0  0  0  0  0  0  0  0  0  0  0  0
   22.6154  -17.6259  -16.7907 C   0  0  0  0  0  0  0  0  0  0  0  0
   21.7345  -17.9307  -15.7703 C   0  0  0  0  0  0  0  0  0  0  0  0
   23.4562  -20.7749  -14.2275 C   0  0  0  0  0  0  0  0  0  0  0  0
   24.5395  -20.9636  -14.8305 O   0  0  0  0  0  0  0  0  0  0  0  0
   22.3807  -21.5587  -14.6473 O   0  0  0  0  0  0  0  0  0  0  0  0
  1  2  1  0
  3  2  1  0
  4  3  1  0
  5  6  1  1
  5  4  1  0
  7  5  1  0
  8  7  2  0
  9  7  1  0
 10  9  1  0
 10 11  1  6
 11 12  1  0
 12 13  2  0
 13 14  1  0
 15 14  2  0
 16 15  1  0
 17 12  1  0
 17 16  2  0
 18 10  1  0
 19 18  2  0
 20 18  1  0
 21 20  1  0
 21 22  1  6
 22 23  1  0
 23 31  1  0
 24 23  2  0
 24 25  1  0
 25 26  1  0
 26 27  1  0
 27 28  2  0
 29 28  1  0
 30 29  2  0
 31 26  2  0
 31 30  1  0
 32 21  1  0
 32 34  1  0
 33 32  2  0
M  END
$$$$
