MFW.pdb
     RDKit          3D

 34 36  0  0  1  0  0  0  0  0999 V2000
   26.0854  -26.0840  -20.1288 C   0  0  0  0  0  0  0  0  0  0  0  0
   25.2781  -24.6568  -20.9010 S   0  0  0  0  0  0  0  0  0  0  0  0
   25.8916  -23.1143  -20.1675 C   0  0  0  0  0  0  0  0  0  0  0  0
   26.5633  -23.4089  -18.8262 C   0  0  0  0  0  0  0  0  0  0  0  0
   27.0138  -22.0848  -18.2745 C   0  0  2  0  0  0  0  0  0  0  0  0
   27.9484  -21.5102  -19.2178 N   0  0  0  0  0  0  0  0  0  0  0  0
   27.5661  -22.1793  -16.9146 C   0  0  0  0  0  0  0  0  0  0  0  0
   28.2749  -23.1727  -16.6066 O   0  0  0  0  0  0  0  0  0  0  0  0
   27.3685  -21.2285  -15.8889 N   0  0  0  0  0  0  0  0  0  0  0  0
   28.0296  -21.2621  -14.6242 C   0  0  1  0  0  0  0  0  0  0  0  0
   29.1471  -20.3332  -14.4253 C   0  0  0  0  0  0  0  0  0  0  0  0
   29.8829  -20.5126  -13.1456 C   0  0  0  0  0  0  0  0  0  0  0  0
   30.6725  -21.6434  -12.9217 C   0  0  0  0  0  0  0  0  0  0  0  0
   31.3571  -21.8197  -11.7391 C   0  0  0  0  0  0  0  0  0  0  0  0
   31.2940  -20.8809  -10.7142 C   0  0  0  0  0  0  0  0  0  0  0  0
   30.5245  -19.7708  -10.9224 C   0  0  0  0  0  0  0  0  0  0  0  0
   29.8420  -19.6037  -12.1120 C   0  0  0  0  0  0  0  0  0  0  0  0
   27.0386  -21.1223  -13.5403 C   0  0  0  0  0  0  0  0  0  0  0  0
   26.0665  -20.3011  -13.6591 O   0  0  0  0  0  0  0  0  0  0  0  0
   27.0670  -21.8591  -12.3158 N   0  0  0  0  0  0  0  0  0  0  0  0
   26.1865  -21.4659  -11.1908 C   0  0  1  0  0  0  0  0  0  0  0  0
   26.9495  -21.7890   -9.9504 C   0  0  0  0  0  0  0  0  0  0  0  0
   26.7869  -20.8889   -8.8101 C   0  0  0  0  0  0  0  0  0  0  0  0
   25.6513  -20.1838   -8.4086 C   0  0  0  0  0  0  0  0  0  0  0  0
   25.9238  -19.4391   -7.3230 N   0  0  0  0  0  0  0  0  0  0  0  0
   27.2054  -19.6257   -6.9873 C   0  0  0  0  0  0  0  0  0  0  0  0
   27.9283  -19.0887   -5.9440 C   0  0  0  0  0  0  0  0  0  0  0  0
   29.2497  -19.4322   -5.7659 C   0  0  0  0  0  0  0  0  0  0  0  0
   29.8143  -20.3173   -6.6533 C   0  0  0  0  0  0  0  0  0  0  0  0
   29.0818  -20.8346   -7.6765 C   0  0  0  0  0  0  0  0  0  0  0  0
   27.7541  -20.5244   -7.9025 C   0  0  0  0  0  0  0  0  0  0  0  0
   25.8966  -20.0448  -11.3114 C   0  0  0  0  0  0  0  0  0  0  0  0
   26.7945  -19.2322  -11.6373 O   0  0  0  0  0  0  0  0  0  0  0  0
   24.6328  -19.4980  -11.0854 O   0  0  0  0  0  0  0  0  0  0  0  0
  1  2  1  0
  3  2  1  0
  4  3  1  0
  5  6  1  6
  5  4  1  0
  7  5  1  0
  8  7  2  0
  9  7  1  0
 10  9  1  0
 10 11  1  6
 11 12  1  0
 12 13  2  0
 13 14  1  0
 15 14  2  0
 16 15  1  0
 17 12  1  0
 17 16  2  0
 18 10  1  0
 19 18  2  0
 20 18  1  0
 21 20  1  0
 21 22  1  1
 22 23  1  0
 23 31  1  0
 24 23  2  0
 24 25  1  0
 25 26  1  0
 26 27  1  0
 27 28  2  0
 29 28  1  0
 30 29  2  0
 31 26  2  0
 31 30  1  0
 32 21  1  0
 32 34  1  0
 33 32  2  0
M  END
$$$$
