MFW.pdb
     RDKit          3D

 34 36  0  0  1  0  0  0  0  0999 V2000
   28.8577  -17.3619  -17.1947 C   0  0  0  0  0  0  0  0  0  0  0  0
   27.9620  -17.8285  -15.6897 S   0  0  0  0  0  0  0  0  0  0  0  0
   28.7692  -19.2440  -14.8907 C   0  0  0  0  0  0  0  0  0  0  0  0
   28.0159  -19.6181  -13.6142 C   0  0  0  0  0  0  0  0  0  0  0  0
   28.7492  -20.7845  -13.0123 C   0  0  2  0  0  0  0  0  0  0  0  0
   28.5830  -21.9146  -13.9005 N   0  0  0  0  0  0  0  0  0  0  0  0
   28.3355  -21.0819  -11.6325 C   0  0  0  0  0  0  0  0  0  0  0  0
   27.3365  -21.8218  -11.4361 O   0  0  0  0  0  0  0  0  0  0  0  0
   28.9754  -20.5983  -10.4698 N   0  0  0  0  0  0  0  0  0  0  0  0
   28.4840  -20.7912   -9.1434 C   0  0  1  0  0  0  0  0  0  0  0  0
   29.3351  -20.3361   -8.0389 C   0  0  0  0  0  0  0  0  0  0  0  0
   28.6635  -20.2994   -6.7126 C   0  0  0  0  0  0  0  0  0  0  0  0
   28.7441  -21.3835   -5.8348 C   0  0  0  0  0  0  0  0  0  0  0  0
   28.1244  -21.3600   -4.6044 C   0  0  0  0  0  0  0  0  0  0  0  0
   27.3906  -20.2568   -4.1796 C   0  0  0  0  0  0  0  0  0  0  0  0
   27.3051  -19.1907   -5.0303 C   0  0  0  0  0  0  0  0  0  0  0  0
   27.9303  -19.2246   -6.2620 C   0  0  0  0  0  0  0  0  0  0  0  0
   27.1297  -20.2182   -9.0259 C   0  0  0  0  0  0  0  0  0  0  0  0
   26.9135  -19.0036   -9.3600 O   0  0  0  0  0  0  0  0  0  0  0  0
   25.9851  -20.9330   -8.5546 N   0  0  0  0  0  0  0  0  0  0  0  0
   24.6224  -20.4253   -8.8392 C   0  0  1  0  0  0  0  0  0  0  0  0
   24.4858  -20.4498  -10.3245 C   0  0  0  0  0  0  0  0  0  0  0  0
   23.1677  -20.1501  -10.8812 C   0  0  0  0  0  0  0  0  0  0  0  0
   22.2618  -19.1601  -10.4974 C   0  0  0  0  0  0  0  0  0  0  0  0
   21.1448  -19.2357  -11.2417 N   0  0  0  0  0  0  0  0  0  0  0  0
   21.2773  -20.2447  -12.1103 C   0  0  0  0  0  0  0  0  0  0  0  0
   20.4041  -20.6922  -13.0781 C   0  0  0  0  0  0  0  0  0  0  0  0
   20.7494  -21.7502  -13.8887 C   0  0  0  0  0  0  0  0  0  0  0  0
   21.9787  -22.3361  -13.7010 C   0  0  0  0  0  0  0  0  0  0  0  0
   22.8246  -21.8781  -12.7389 C   0  0  0  0  0  0  0  0  0  0  0  0
   22.5296  -20.8217  -11.8979 C   0  0  0  0  0  0  0  0  0  0  0  0
   23.6620  -21.2960   -8.1777 C   0  0  0  0  0  0  0  0  0  0  0  0
   24.0114  -22.4144   -7.7308 O   0  0  0  0  0  0  0  0  0  0  0  0
   22.3210  -20.9576   -7.9920 O   0  0  0  0  0  0  0  0  0  0  0  0
  1  2  1  0
  3  2  1  0
  4  3  1  0
  5  6  1  6
  5  4  1  0
  7  5  1  0
  8  7  2  0
  9  7  1  0
 10  9  1  0
 10 11  1  1
 11 12  1  0
 12 13  2  0
 13 14  1  0
 15 14  2  0
 16 15  1  0
 17 12  1  0
 17 16  2  0
 18 10  1  0
 19 18  2  0
 20 18  1  0
 21 20  1  0
 21 22  1  6
 22 23  1  0
 23 31  1  0
 24 23  2  0
 24 25  1  0
 25 26  1  0
 26 27  1  0
 27 28  2  0
 29 28  1  0
 30 29  2  0
 31 26  2  0
 31 30  1  0
 32 21  1  0
 32 34  1  0
 33 32  2  0
M  END
$$$$
