MFW.pdb
     RDKit          3D

 34 36  0  0  1  0  0  0  0  0999 V2000
   21.7115  -12.7858   10.5300 C   0  0  0  0  0  0  0  0  0  0  0  0
   21.6051  -11.0755    9.9398 S   0  0  0  0  0  0  0  0  0  0  0  0
   19.8703  -10.6009    9.6968 C   0  0  0  0  0  0  0  0  0  0  0  0
   19.0748  -11.7950    9.1694 C   0  0  0  0  0  0  0  0  0  0  0  0
   18.1269  -11.2532    8.1356 C   0  0  2  0  0  0  0  0  0  0  0  0
   17.0675  -10.5563    8.8324 N   0  0  0  0  0  0  0  0  0  0  0  0
   17.6195  -12.2826    7.2159 C   0  0  0  0  0  0  0  0  0  0  0  0
   16.5892  -12.9338    7.5299 O   0  0  0  0  0  0  0  0  0  0  0  0
   18.1999  -12.6198    5.9730 N   0  0  0  0  0  0  0  0  0  0  0  0
   17.7555  -13.6937    5.1439 C   0  0  1  0  0  0  0  0  0  0  0  0
   18.2210  -13.7056    3.7531 C   0  0  0  0  0  0  0  0  0  0  0  0
   17.7234  -14.8485    2.9421 C   0  0  0  0  0  0  0  0  0  0  0  0
   18.6087  -15.7734    2.3825 C   0  0  0  0  0  0  0  0  0  0  0  0
   18.1581  -16.8348    1.6285 C   0  0  0  0  0  0  0  0  0  0  0  0
   16.8020  -17.0347    1.3898 C   0  0  0  0  0  0  0  0  0  0  0  0
   15.9270  -16.1360    1.9325 C   0  0  0  0  0  0  0  0  0  0  0  0
   16.3895  -15.0750    2.6870 C   0  0  0  0  0  0  0  0  0  0  0  0
   18.0461  -14.9826    5.8001 C   0  0  0  0  0  0  0  0  0  0  0  0
   19.2231  -15.2354    6.2293 O   0  0  0  0  0  0  0  0  0  0  0  0
   17.0849  -16.0191    6.0124 N   0  0  0  0  0  0  0  0  0  0  0  0
   17.4920  -17.2899    6.6566 C   0  0  1  0  0  0  0  0  0  0  0  0
   16.5910  -17.4508    7.8345 C   0  0  0  0  0  0  0  0  0  0  0  0
   16.7038  -18.6911    8.6000 C   0  0  0  0  0  0  0  0  0  0  0  0
   17.8470  -19.2864    9.1354 C   0  0  0  0  0  0  0  0  0  0  0  0
   17.5297  -20.4416    9.7453 N   0  0  0  0  0  0  0  0  0  0  0  0
   16.2105  -20.6355    9.6341 C   0  0  0  0  0  0  0  0  0  0  0  0
   15.4300  -21.6665   10.1106 C   0  0  0  0  0  0  0  0  0  0  0  0
   14.0697  -21.6629    9.8977 C   0  0  0  0  0  0  0  0  0  0  0  0
   13.5255  -20.6091    9.2027 C   0  0  0  0  0  0  0  0  0  0  0  0
   14.3153  -19.6022    8.7409 C   0  0  0  0  0  0  0  0  0  0  0  0
   15.6843  -19.5554    8.9249 C   0  0  0  0  0  0  0  0  0  0  0  0
   17.3377  -18.3645    5.6873 C   0  0  0  0  0  0  0  0  0  0  0  0
   16.4907  -18.2811    4.7662 O   0  0  0  0  0  0  0  0  0  0  0  0
   18.1032  -19.5311    5.7072 O   0  0  0  0  0  0  0  0  0  0  0  0
  1  2  1  0
  3  2  1  0
  4  3  1  0
  5  6  1  1
  5  4  1  0
  7  5  1  0
  8  7  2  0
  9  7  1  0
 10  9  1  0
 10 11  1  6
 11 12  1  0
 12 13  2  0
 13 14  1  0
 15 14  2  0
 16 15  1  0
 17 12  1  0
 17 16  2  0
 18 10  1  0
 19 18  2  0
 20 18  1  0
 21 20  1  0
 21 22  1  1
 22 23  1  0
 23 31  1  0
 24 23  2  0
 24 25  1  0
 25 26  1  0
 26 27  1  0
 27 28  2  0
 29 28  1  0
 30 29  2  0
 31 26  2  0
 31 30  1  0
 32 21  1  0
 32 34  1  0
 33 32  2  0
M  END
$$$$
