ARM.pdb
     RDKit          3D

 25 24  0  0  1  0  0  0  0  0999 V2000
   25.1504  -18.8082  -17.2503 C   0  0  0  0  0  0  0  0  0  0  0  0
   26.2165  -19.8701  -17.2175 C   0  0  2  0  0  0  0  0  0  0  0  0
   25.7988  -20.9266  -18.1189 N   0  0  0  0  0  0  0  0  0  0  0  0
   26.4597  -20.4474  -15.9067 C   0  0  0  0  0  0  0  0  0  0  0  0
   25.7262  -21.3737  -15.4789 O   0  0  0  0  0  0  0  0  0  0  0  0
   32.5753  -22.0682   -9.8057 N   0  0  0  0  0  0  0  0  0  0  0  0
   32.6395  -22.4277  -11.1639 C   0  0  0  0  0  0  0  0  0  0  0  0
   33.4568  -23.3384  -11.5859 N   0  0  0  0  0  0  0  0  0  0  0  0
   31.7701  -21.7539  -12.0701 N   0  0  0  0  0  0  0  0  0  0  0  0
   30.8672  -20.7326  -11.5815 C   0  0  0  0  0  0  0  0  0  0  0  0
   29.4418  -21.0642  -11.9751 C   0  0  0  0  0  0  0  0  0  0  0  0
   29.1906  -20.3736  -13.3037 C   0  0  0  0  0  0  0  0  0  0  0  0
   27.7452  -20.6322  -13.7469 C   0  0  2  0  0  0  0  0  0  0  0  0
   27.5055  -20.0315  -15.0306 N   0  0  0  0  0  0  0  0  0  0  0  0
   26.8632  -19.9702  -12.7510 C   0  0  0  0  0  0  0  0  0  0  0  0
   26.4832  -18.7745  -12.8342 O   0  0  0  0  0  0  0  0  0  0  0  0
   33.4928  -23.6235  -12.5738 C   0  0  0  0  0  0  0  0  0  0  0  0
   22.1377  -19.7940  -14.1490 S   0  0  0  0  0  0  0  0  0  0  0  0
   21.4489  -20.1921  -12.5147 C   0  0  0  0  0  0  0  0  0  0  0  0
   22.7616  -20.1325  -11.2483 C   0  0  0  0  0  0  0  0  0  0  0  0
   24.0763  -20.4206  -11.9142 C   0  0  1  0  0  0  0  0  0  0  0  0
   25.2074  -20.3707  -10.9206 N   0  0  0  0  0  0  0  0  0  0  0  0
   26.4372  -20.7562  -11.6475 C   0  0  0  0  0  0  0  0  0  0  0  0
   25.0252  -21.2561   -9.7525 O   0  0  0  0  0  0  0  0  0  0  0  0
   24.2947  -20.8176   -8.6278 O   0  0  0  0  0  0  0  0  0  0  0  0
  2  1  1  1
  3  2  1  0
  4  5  2  0
  4  2  1  0
  6  7  1  0
  7  9  1  0
  8  7  2  0
  9 10  1  0
 10 11  1  0
 11 12  1  0
 13 12  1  1
 13 14  1  0
 14  4  1  0
 15 22  1  0
 15 13  1  0
 16 15  2  0
 18 17  1  0
 18 19  1  0
 19 20  1  0
 21 20  1  6
 21 22  1  0
 21 23  1  0
 23 25  2  0
 23 24  1  0
M  END
$$$$
