ARM.pdb
     RDKit          3D

 25 24  0  0  1  0  0  0  0  0999 V2000
   17.1617  -26.5388  -16.4063 C   0  0  0  0  0  0  0  0  0  0  0  0
   18.5946  -26.0808  -16.4573 C   0  0  2  0  0  0  0  0  0  0  0  0
   19.3867  -27.1991  -16.9316 N   0  0  0  0  0  0  0  0  0  0  0  0
   19.1361  -25.6348  -15.1851 C   0  0  0  0  0  0  0  0  0  0  0  0
   19.5378  -26.4744  -14.3408 O   0  0  0  0  0  0  0  0  0  0  0  0
   23.0061  -21.3425  -13.6631 N   0  0  0  0  0  0  0  0  0  0  0  0
   22.3118  -20.1204  -13.7125 C   0  0  0  0  0  0  0  0  0  0  0  0
   22.7830  -19.0987  -14.3524 N   0  0  0  0  0  0  0  0  0  0  0  0
   21.0626  -20.0393  -13.0313 N   0  0  0  0  0  0  0  0  0  0  0  0
   19.8260  -20.0554  -13.7846 C   0  0  0  0  0  0  0  0  0  0  0  0
   19.1864  -21.4273  -13.7091 C   0  0  0  0  0  0  0  0  0  0  0  0
   20.3245  -22.4277  -13.6128 C   0  0  0  0  0  0  0  0  0  0  0  0
   19.7490  -23.8462  -13.5186 C   0  0  2  0  0  0  0  0  0  0  0  0
   19.2537  -24.2663  -14.8010 N   0  0  0  0  0  0  0  0  0  0  0  0
   18.6034  -23.7857  -12.5742 C   0  0  0  0  0  0  0  0  0  0  0  0
   17.4253  -23.5090  -12.9155 O   0  0  0  0  0  0  0  0  0  0  0  0
   22.2548  -18.2204  -14.4423 C   0  0  0  0  0  0  0  0  0  0  0  0
   18.9832  -26.7111   -6.7635 S   0  0  0  0  0  0  0  0  0  0  0  0
   17.9654  -25.2638   -6.3469 C   0  0  0  0  0  0  0  0  0  0  0  0
   17.2571  -24.5366   -7.8635 C   0  0  0  0  0  0  0  0  0  0  0  0
   18.3285  -24.4955   -8.9148 C   0  0  2  0  0  0  0  0  0  0  0  0
   17.7864  -23.9691  -10.2180 N   0  0  0  0  0  0  0  0  0  0  0  0
   18.8816  -24.0606  -11.2088 C   0  0  0  0  0  0  0  0  0  0  0  0
   17.2958  -22.5776  -10.1504 O   0  0  0  0  0  0  0  0  0  0  0  0
   15.9560  -22.3062   -9.8007 O   0  0  0  0  0  0  0  0  0  0  0  0
  2  1  1  1
  3  2  1  0
  4  5  2  0
  4  2  1  0
  6  7  1  0
  7  9  1  0
  8  7  2  0
  9 10  1  0
 10 11  1  0
 11 12  1  0
 13 12  1  6
 13 14  1  0
 14  4  1  0
 15 22  1  0
 15 13  1  0
 16 15  2  0
 18 17  1  0
 18 19  1  0
 19 20  1  0
 21 20  1  6
 21 22  1  0
 21 23  1  0
 23 25  2  0
 23 24  1  0
M  END
$$$$
