ARM.pdb
     RDKit          3D

 25 24  0  0  1  0  0  0  0  0999 V2000
   21.2153  -18.0973  -13.3419 C   0  0  0  0  0  0  0  0  0  0  0  0
   21.0527  -19.5631  -13.6427 C   0  0  2  0  0  0  0  0  0  0  0  0
   19.6685  -19.9052  -13.3783 N   0  0  0  0  0  0  0  0  0  0  0  0
   21.9056  -20.4424  -12.8616 C   0  0  0  0  0  0  0  0  0  0  0  0
   21.6283  -20.6875  -11.6607 O   0  0  0  0  0  0  0  0  0  0  0  0
   24.6027  -25.0166  -17.5590 N   0  0  0  0  0  0  0  0  0  0  0  0
   25.5782  -24.2345  -16.9149 C   0  0  0  0  0  0  0  0  0  0  0  0
   26.4835  -23.5947  -17.5833 N   0  0  0  0  0  0  0  0  0  0  0  0
   25.5402  -24.1661  -15.4920 N   0  0  0  0  0  0  0  0  0  0  0  0
   24.5375  -24.9105  -14.7589 C   0  0  0  0  0  0  0  0  0  0  0  0
   23.7485  -23.9788  -13.8609 C   0  0  0  0  0  0  0  0  0  0  0  0
   24.7087  -22.8868  -13.4243 C   0  0  0  0  0  0  0  0  0  0  0  0
   23.9606  -21.8687  -12.5547 C   0  0  2  0  0  0  0  0  0  0  0  0
   23.0791  -21.0756  -13.3674 N   0  0  0  0  0  0  0  0  0  0  0  0
   24.9855  -20.9689  -11.9648 C   0  0  0  0  0  0  0  0  0  0  0  0
   24.7496  -19.7986  -11.5703 O   0  0  0  0  0  0  0  0  0  0  0  0
   27.1904  -23.0078  -17.1203 C   0  0  0  0  0  0  0  0  0  0  0  0
   26.3914  -18.3306   -6.5153 S   0  0  0  0  0  0  0  0  0  0  0  0
   26.7812  -20.0421   -6.9875 C   0  0  0  0  0  0  0  0  0  0  0  0
   27.5908  -20.0737   -8.6228 C   0  0  0  0  0  0  0  0  0  0  0  0
   26.6612  -20.7346   -9.5995 C   0  0  1  0  0  0  0  0  0  0  0  0
   27.2746  -20.7929  -10.9741 N   0  0  0  0  0  0  0  0  0  0  0  0
   26.3037  -21.4850  -11.8504 C   0  0  0  0  0  0  0  0  0  0  0  0
   28.5744  -21.4925  -11.0266 O   0  0  0  0  0  0  0  0  0  0  0  0
   29.7701  -20.7695  -11.2231 O   0  0  0  0  0  0  0  0  0  0  0  0
  2  1  1  1
  3  2  1  0
  4  5  2  0
  4  2  1  0
  6  7  1  0
  7  9  1  0
  8  7  2  0
  9 10  1  0
 10 11  1  0
 11 12  1  0
 13 12  1  6
 13 14  1  0
 14  4  1  0
 15 22  1  0
 15 13  1  0
 16 15  2  0
 18 17  1  0
 18 19  1  0
 19 20  1  0
 21 20  1  6
 21 22  1  0
 21 23  1  0
 23 25  2  0
 23 24  1  0
M  END
$$$$
