ARM.pdb
     RDKit          3D

 25 24  0  0  1  0  0  0  0  0999 V2000
   19.6681  -17.5568  -16.9929 C   0  0  0  0  0  0  0  0  0  0  0  0
   19.5674  -18.1227  -15.6018 C   0  0  2  0  0  0  0  0  0  0  0  0
   18.6410  -17.2861  -14.8635 N   0  0  0  0  0  0  0  0  0  0  0  0
   20.8241  -18.1772  -14.8750 C   0  0  0  0  0  0  0  0  0  0  0  0
   21.1087  -17.2839  -14.0382 O   0  0  0  0  0  0  0  0  0  0  0  0
   24.2886  -24.3384  -14.1297 N   0  0  0  0  0  0  0  0  0  0  0  0
   25.3647  -23.7946  -14.8538 C   0  0  0  0  0  0  0  0  0  0  0  0
   25.8852  -24.4159  -15.8630 N   0  0  0  0  0  0  0  0  0  0  0  0
   25.8696  -22.5277  -14.4402 N   0  0  0  0  0  0  0  0  0  0  0  0
   25.3955  -21.9267  -13.2110 C   0  0  0  0  0  0  0  0  0  0  0  0
   24.9615  -20.4966  -13.4625 C   0  0  0  0  0  0  0  0  0  0  0  0
   23.5895  -20.5708  -14.1083 C   0  0  0  0  0  0  0  0  0  0  0  0
   23.1069  -19.1539  -14.4430 C   0  0  2  0  0  0  0  0  0  0  0  0
   21.8005  -19.2035  -15.0407 N   0  0  0  0  0  0  0  0  0  0  0  0
   24.0557  -18.5995  -15.4432 C   0  0  0  0  0  0  0  0  0  0  0  0
   24.0173  -18.8664  -16.6713 O   0  0  0  0  0  0  0  0  0  0  0  0
   26.6941  -24.0409  -16.3762 C   0  0  0  0  0  0  0  0  0  0  0  0
   24.4456  -12.8595  -17.3677 S   0  0  0  0  0  0  0  0  0  0  0  0
   25.6119  -14.2356  -17.1446 C   0  0  0  0  0  0  0  0  0  0  0  0
   25.6616  -14.7389  -15.3911 C   0  0  0  0  0  0  0  0  0  0  0  0
   26.5997  -15.9039  -15.2585 C   0  0  2  0  0  0  0  0  0  0  0  0
   26.0276  -17.1349  -15.9115 N   0  0  0  0  0  0  0  0  0  0  0  0
   25.0575  -17.7175  -14.9580 C   0  0  0  0  0  0  0  0  0  0  0  0
   27.0364  -18.1512  -16.2735 O   0  0  0  0  0  0  0  0  0  0  0  0
   27.5105  -18.2502  -17.5988 O   0  0  0  0  0  0  0  0  0  0  0  0
  2  1  1  6
  3  2  1  0
  4  5  2  0
  4  2  1  0
  6  7  1  0
  7  9  1  0
  8  7  2  0
  9 10  1  0
 10 11  1  0
 11 12  1  0
 13 12  1  6
 13 14  1  0
 14  4  1  0
 15 22  1  0
 15 13  1  0
 16 15  2  0
 18 17  1  0
 18 19  1  0
 19 20  1  0
 21 20  1  6
 21 22  1  0
 21 23  1  0
 23 25  2  0
 23 24  1  0
M  END
$$$$
