ARM.pdb
     RDKit          3D

 25 24  0  0  1  0  0  0  0  0999 V2000
   28.8760  -23.7299  -15.8337 C   0  0  0  0  0  0  0  0  0  0  0  0
   28.2416  -22.5040  -16.4338 C   0  0  2  0  0  0  0  0  0  0  0  0
   29.2841  -21.7801  -17.1353 N   0  0  0  0  0  0  0  0  0  0  0  0
   27.6205  -21.6085  -15.4731 C   0  0  0  0  0  0  0  0  0  0  0  0
   28.3307  -20.8506  -14.7658 O   0  0  0  0  0  0  0  0  0  0  0  0
   20.1268  -21.0133  -13.8941 N   0  0  0  0  0  0  0  0  0  0  0  0
   20.2453  -20.0130  -12.9126 C   0  0  0  0  0  0  0  0  0  0  0  0
   19.4779  -19.9920  -11.8704 N   0  0  0  0  0  0  0  0  0  0  0  0
   21.2443  -19.0142  -13.1007 N   0  0  0  0  0  0  0  0  0  0  0  0
   22.1234  -19.0783  -14.2496 C   0  0  0  0  0  0  0  0  0  0  0  0
   23.5554  -19.2886  -13.8002 C   0  0  0  0  0  0  0  0  0  0  0  0
   24.1591  -20.3078  -14.7499 C   0  0  0  0  0  0  0  0  0  0  0  0
   25.6139  -20.5797  -14.3475 C   0  0  2  0  0  0  0  0  0  0  0  0
   26.2135  -21.5158  -15.2589 N   0  0  0  0  0  0  0  0  0  0  0  0
   25.5798  -21.2005  -12.9979 C   0  0  0  0  0  0  0  0  0  0  0  0
   25.0946  -22.3355  -12.7587 O   0  0  0  0  0  0  0  0  0  0  0  0
   19.5512  -19.2574  -11.1538 C   0  0  0  0  0  0  0  0  0  0  0  0
   29.5833  -19.8662   -7.8521 S   0  0  0  0  0  0  0  0  0  0  0  0
   27.9051  -19.5271   -7.2419 C   0  0  0  0  0  0  0  0  0  0  0  0
   26.6802  -20.4613   -8.2204 C   0  0  0  0  0  0  0  0  0  0  0  0
   26.8827  -20.1330   -9.6717 C   0  0  1  0  0  0  0  0  0  0  0  0
   25.9208  -20.9026  -10.5387 N   0  0  0  0  0  0  0  0  0  0  0  0
   26.1349  -20.4464  -11.9300 C   0  0  0  0  0  0  0  0  0  0  0  0
   24.5011  -20.7235  -10.1725 O   0  0  0  0  0  0  0  0  0  0  0  0
   23.9062  -21.5411   -9.1884 O   0  0  0  0  0  0  0  0  0  0  0  0
  2  1  1  1
  3  2  1  0
  4  5  2  0
  4  2  1  0
  6  7  1  0
  7  9  1  0
  8  7  2  0
  9 10  1  0
 10 11  1  0
 11 12  1  0
 13 12  1  6
 13 14  1  0
 14  4  1  0
 15 22  1  0
 15 13  1  0
 16 15  2  0
 18 17  1  0
 18 19  1  0
 19 20  1  0
 21 20  1  6
 21 22  1  0
 21 23  1  0
 23 25  2  0
 23 24  1  0
M  END
$$$$
