ASQ.pdb
     RDKit          3D

 21 20  0  0  1  0  0  0  0  0999 V2000
   24.5865  -22.6072  -12.3228 C   0  0  0  0  0  0  0  0  0  0  0  0
   25.7928  -21.7374  -12.0415 C   0  0  2  0  0  0  0  0  0  0  0  0
   25.8755  -21.3982  -10.6354 N   0  0  0  0  0  0  0  0  0  0  0  0
   25.6151  -20.4764  -12.8047 C   0  0  0  0  0  0  0  0  0  0  0  0
   24.8862  -19.5628  -12.4029 O   0  0  0  0  0  0  0  0  0  0  0  0
   27.5701  -20.3883  -16.4383 O   0  0  0  0  0  0  0  0  0  0  0  0
   27.5260  -19.1966  -15.7162 C   0  0  0  0  0  0  0  0  0  0  0  0
   26.2558  -19.1576  -14.8572 C   0  0  2  0  0  0  0  0  0  0  0  0
   26.3106  -20.3397  -14.0241 N   0  0  0  0  0  0  0  0  0  0  0  0
   25.0425  -19.2702  -15.6990 C   0  0  0  0  0  0  0  0  0  0  0  0
   24.5972  -20.4162  -16.0098 O   0  0  0  0  0  0  0  0  0  0  0  0
   20.9947  -14.6522  -17.0039 N   0  0  0  0  0  0  0  0  0  0  0  0
   20.3409  -15.7910  -17.5840 C   0  0  0  0  0  0  0  0  0  0  0  0
   19.2007  -15.6131  -18.0710 O   0  0  0  0  0  0  0  0  0  0  0  0
   21.0235  -17.1204  -17.5889 C   0  0  0  0  0  0  0  0  0  0  0  0
   22.3529  -16.9341  -16.8971 C   0  0  0  0  0  0  0  0  0  0  0  0
   23.1813  -18.1959  -16.9037 C   0  0  2  0  0  0  0  0  0  0  0  0
   24.3882  -18.0789  -16.1508 N   0  0  0  0  0  0  0  0  0  0  0  0
   23.4583  -18.5029  -18.3502 C   0  0  0  0  0  0  0  0  0  0  0  0
   24.5317  -18.0741  -18.8391 O   0  0  0  0  0  0  0  0  0  0  0  0
   22.6105  -19.2159  -19.1472 O   0  0  0  0  0  0  0  0  0  0  0  0
  2  1  1  1
  2  4  1  0
  3  2  1  0
  4  5  2  0
  6  7  1  0
  8  7  1  6
  8 10  1  0
  9  8  1  0
  9  4  1  0
 10 11  2  0
 10 18  1  0
 12 13  1  0
 13 15  1  0
 13 14  2  0
 15 16  1  0
 17 16  1  6
 17 19  1  0
 18 17  1  0
 19 20  2  0
 19 21  1  0
M  END
$$$$
