ASQ.pdb
     RDKit          3D

 21 20  0  0  1  0  0  0  0  0999 V2000
   14.4978   -9.9941  -14.0100 C   0  0  0  0  0  0  0  0  0  0  0  0
   15.8673  -10.4933  -13.6023 C   0  0  2  0  0  0  0  0  0  0  0  0
   15.8749  -11.9343  -13.4532 N   0  0  0  0  0  0  0  0  0  0  0  0
   16.1784   -9.8966  -12.2789 C   0  0  0  0  0  0  0  0  0  0  0  0
   15.7892  -10.4048  -11.2217 O   0  0  0  0  0  0  0  0  0  0  0  0
   18.7596   -6.7005  -12.4241 O   0  0  0  0  0  0  0  0  0  0  0  0
   18.7344   -7.4920  -11.2767 C   0  0  0  0  0  0  0  0  0  0  0  0
   17.3122   -8.0152  -11.0390 C   0  0  2  0  0  0  0  0  0  0  0  0
   16.9440   -8.7124  -12.2527 N   0  0  0  0  0  0  0  0  0  0  0  0
   16.3569   -6.8964  -10.8689 C   0  0  0  0  0  0  0  0  0  0  0  0
   15.7558   -6.4237  -11.8806 O   0  0  0  0  0  0  0  0  0  0  0  0
   12.4457   -5.8117   -6.3793 N   0  0  0  0  0  0  0  0  0  0  0  0
   12.3509   -4.5600   -7.0759 C   0  0  0  0  0  0  0  0  0  0  0  0
   11.4595   -3.7619   -6.7053 O   0  0  0  0  0  0  0  0  0  0  0  0
   13.2949   -4.2552   -8.1935 C   0  0  0  0  0  0  0  0  0  0  0  0
   14.2224   -5.4401   -8.3206 C   0  0  0  0  0  0  0  0  0  0  0  0
   15.2468   -5.2484   -9.4125 C   0  0  2  0  0  0  0  0  0  0  0  0
   16.1255   -6.3634   -9.5598 N   0  0  0  0  0  0  0  0  0  0  0  0
   15.9983   -3.9935   -9.0606 C   0  0  0  0  0  0  0  0  0  0  0  0
   15.3983   -2.8998   -9.1991 O   0  0  0  0  0  0  0  0  0  0  0  0
   17.2842   -3.9857   -8.6040 O   0  0  0  0  0  0  0  0  0  0  0  0
  2  1  1  1
  2  4  1  0
  3  2  1  0
  4  5  2  0
  6  7  1  0
  8  7  1  6
  8 10  1  0
  9  8  1  0
  9  4  1  0
 10 11  2  0
 10 18  1  0
 12 13  1  0
 13 15  1  0
 13 14  2  0
 15 16  1  0
 17 16  1  1
 17 19  1  0
 18 17  1  0
 19 20  2  0
 19 21  1  0
M  END
$$$$
