ASQ.pdb
     RDKit          3D

 21 20  0  0  1  0  0  0  0  0999 V2000
   17.9894  -10.1332  -18.4895 C   0  0  0  0  0  0  0  0  0  0  0  0
   18.8153  -10.7321  -17.3714 C   0  0  2  0  0  0  0  0  0  0  0  0
   18.1266  -11.8464  -16.7527 N   0  0  0  0  0  0  0  0  0  0  0  0
   18.9936   -9.6779  -16.3412 C   0  0  0  0  0  0  0  0  0  0  0  0
   18.0420   -9.2185  -15.7004 O   0  0  0  0  0  0  0  0  0  0  0  0
   22.2784   -7.7617  -13.4444 O   0  0  0  0  0  0  0  0  0  0  0  0
   21.8914   -8.6819  -14.4176 C   0  0  0  0  0  0  0  0  0  0  0  0
   20.6238   -8.1861  -15.1250 C   0  0  2  0  0  0  0  0  0  0  0  0
   20.2997   -9.2015  -16.1040 N   0  0  0  0  0  0  0  0  0  0  0  0
   20.8863   -6.9308  -15.8657 C   0  0  0  0  0  0  0  0  0  0  0  0
   21.3545   -6.9817  -17.0431 O   0  0  0  0  0  0  0  0  0  0  0  0
   17.5322   -2.7640  -17.6913 N   0  0  0  0  0  0  0  0  0  0  0  0
   18.7670   -2.0783  -17.9477 C   0  0  0  0  0  0  0  0  0  0  0  0
   18.7189   -1.0602  -18.6757 O   0  0  0  0  0  0  0  0  0  0  0  0
   20.0401   -2.5874  -17.3532 C   0  0  0  0  0  0  0  0  0  0  0  0
   19.6882   -3.8143  -16.5461 C   0  0  0  0  0  0  0  0  0  0  0  0
   20.9068   -4.4684  -15.9414 C   0  0  2  0  0  0  0  0  0  0  0  0
   20.6063   -5.6738  -15.2387 N   0  0  0  0  0  0  0  0  0  0  0  0
   21.5241   -3.4382  -15.0354 C   0  0  0  0  0  0  0  0  0  0  0  0
   21.3278   -3.5583  -13.8016 O   0  0  0  0  0  0  0  0  0  0  0  0
   22.2778   -2.3924  -15.4833 O   0  0  0  0  0  0  0  0  0  0  0  0
  2  1  1  6
  2  4  1  0
  3  2  1  0
  4  5  2  0
  6  7  1  0
  8  7  1  6
  8 10  1  0
  9  8  1  0
  9  4  1  0
 10 11  2  0
 10 18  1  0
 12 13  1  0
 13 15  1  0
 13 14  2  0
 15 16  1  0
 17 16  1  1
 17 19  1  0
 18 17  1  0
 19 20  2  0
 19 21  1  0
M  END
$$$$
