AMM.pdb
     RDKit          3D

 22 21  0  0  1  0  0  0  0  0999 V2000
   17.1556  -10.6050  -17.2328 C   0  0  0  0  0  0  0  0  0  0  0  0
   18.4268  -11.4437  -17.3063 C   0  0  2  0  0  0  0  0  0  0  0  0
   18.1800  -12.8178  -17.0176 N   0  0  0  0  0  0  0  0  0  0  0  0
   19.4339  -10.8082  -16.4605 C   0  0  0  0  0  0  0  0  0  0  0  0
   19.3721  -10.9845  -15.2169 O   0  0  0  0  0  0  0  0  0  0  0  0
   26.0347  -10.1728  -14.6330 C   0  0  0  0  0  0  0  0  0  0  0  0
   24.6700  -10.4524  -15.7700 S   0  0  0  0  0  0  0  0  0  0  0  0
   23.9740   -8.8906  -16.3566 C   0  0  0  0  0  0  0  0  0  0  0  0
   22.7371   -9.1944  -17.1821 C   0  0  0  0  0  0  0  0  0  0  0  0
   21.5456   -9.4871  -16.2838 C   0  0  2  0  0  0  0  0  0  0  0  0
   20.4474  -10.0153  -17.0584 N   0  0  0  0  0  0  0  0  0  0  0  0
   21.1261   -8.1889  -15.6996 C   0  0  0  0  0  0  0  0  0  0  0  0
   20.5404   -7.3635  -16.4594 O   0  0  0  0  0  0  0  0  0  0  0  0
   18.3356   -4.6651   -9.3424 C   0  0  0  0  0  0  0  0  0  0  0  0
   19.1509   -6.0849  -10.1410 S   0  0  0  0  0  0  0  0  0  0  0  0
   19.6798   -5.6230  -11.8276 C   0  0  0  0  0  0  0  0  0  0  0  0
   20.2171   -6.8612  -12.4768 C   0  0  0  0  0  0  0  0  0  0  0  0
   20.7883   -6.6051  -13.8324 C   0  0  2  0  0  0  0  0  0  0  0  0
   21.3473   -7.8401  -14.3577 N   0  0  0  0  0  0  0  0  0  0  0  0
   21.8301   -5.5788  -13.8018 C   0  0  0  0  0  0  0  0  0  0  0  0
   23.0583   -5.8730  -13.7637 O   0  0  0  0  0  0  0  0  0  0  0  0
   21.4486   -4.2195  -13.8153 O   0  0  0  0  0  0  0  0  0  0  0  0
  2  1  1  1
  2  4  1  0
  3  2  1  0
  4  5  2  0
  4 11  1  0
  6  7  1  0
  7  8  1  0
  8  9  1  0
 10  9  1  6
 10 12  1  0
 11 10  1  0
 12 19  1  0
 12 13  2  0
 14 15  1  0
 15 16  1  0
 16 17  1  0
 18 17  1  1
 18 20  1  0
 19 18  1  0
 20 22  1  0
 21 20  2  0
M  END
$$$$
