AMM.pdb
     RDKit          3D

 22 21  0  0  1  0  0  0  0  0999 V2000
   12.4543  -15.0166  -12.5993 C   0  0  0  0  0  0  0  0  0  0  0  0
   13.7415  -15.0208  -13.4164 C   0  0  2  0  0  0  0  0  0  0  0  0
   14.5593  -16.1512  -13.1231 N   0  0  0  0  0  0  0  0  0  0  0  0
   14.3930  -13.7261  -13.2351 C   0  0  0  0  0  0  0  0  0  0  0  0
   15.0144  -13.5111  -12.1631 O   0  0  0  0  0  0  0  0  0  0  0  0
   19.2347   -9.1654  -15.1558 C   0  0  0  0  0  0  0  0  0  0  0  0
   18.0500  -10.5031  -15.3564 S   0  0  0  0  0  0  0  0  0  0  0  0
   16.3690   -9.8675  -15.5511 C   0  0  0  0  0  0  0  0  0  0  0  0
   15.4122  -11.0445  -15.6046 C   0  0  0  0  0  0  0  0  0  0  0  0
   15.0675  -11.5255  -14.2038 C   0  0  2  0  0  0  0  0  0  0  0  0
   14.3090  -12.7527  -14.2641 N   0  0  0  0  0  0  0  0  0  0  0  0
   14.2143  -10.4760  -13.5930 C   0  0  0  0  0  0  0  0  0  0  0  0
   12.9866  -10.4633  -13.9002 O   0  0  0  0  0  0  0  0  0  0  0  0
    9.7304   -9.0562   -8.7097 C   0  0  0  0  0  0  0  0  0  0  0  0
   11.5314   -8.9293   -8.9513 S   0  0  0  0  0  0  0  0  0  0  0  0
   11.9000   -8.6910  -10.7246 C   0  0  0  0  0  0  0  0  0  0  0  0
   13.3908   -8.6751  -10.8679 C   0  0  0  0  0  0  0  0  0  0  0  0
   13.8368   -8.4225  -12.2703 C   0  0  2  0  0  0  0  0  0  0  0  0
   14.7025   -9.5085  -12.7005 N   0  0  0  0  0  0  0  0  0  0  0  0
   14.5552   -7.1545  -12.3956 C   0  0  0  0  0  0  0  0  0  0  0  0
   15.7795   -7.1067  -12.7043 O   0  0  0  0  0  0  0  0  0  0  0  0
   13.8567   -5.9495  -12.1640 O   0  0  0  0  0  0  0  0  0  0  0  0
  2  1  1  1
  2  4  1  0
  3  2  1  0
  4  5  2  0
  4 11  1  0
  6  7  1  0
  7  8  1  0
  8  9  1  0
 10  9  1  6
 10 12  1  0
 11 10  1  0
 12 19  1  0
 12 13  2  0
 14 15  1  0
 15 16  1  0
 16 17  1  0
 18 17  1  1
 18 20  1  0
 19 18  1  0
 20 22  1  0
 21 20  2  0
M  END
$$$$
