AMM.pdb
     RDKit          3D

 22 21  0  0  1  0  0  0  0  0999 V2000
   27.5098  -21.4607  -15.6613 C   0  0  0  0  0  0  0  0  0  0  0  0
   28.2188  -21.1787  -14.3412 C   0  0  2  0  0  0  0  0  0  0  0  0
   29.4302  -21.9196  -14.2141 N   0  0  0  0  0  0  0  0  0  0  0  0
   27.2562  -21.3829  -13.2617 C   0  0  0  0  0  0  0  0  0  0  0  0
   26.1946  -22.0083  -13.5136 O   0  0  0  0  0  0  0  0  0  0  0  0
   28.5432  -20.0061   -6.8296 C   0  0  0  0  0  0  0  0  0  0  0  0
   26.8068  -19.5931   -7.0479 S   0  0  0  0  0  0  0  0  0  0  0  0
   26.1147  -20.4141   -8.5020 C   0  0  0  0  0  0  0  0  0  0  0  0
   27.1136  -20.3025   -9.6393 C   0  0  0  0  0  0  0  0  0  0  0  0
   26.6086  -21.0290  -10.8761 C   0  0  2  0  0  0  0  0  0  0  0  0
   27.5410  -20.8748  -11.9678 N   0  0  0  0  0  0  0  0  0  0  0  0
   25.3293  -20.3798  -11.2564 C   0  0  0  0  0  0  0  0  0  0  0  0
   25.3668  -19.1627  -11.6010 O   0  0  0  0  0  0  0  0  0  0  0  0
   22.8367  -21.7131  -16.2769 C   0  0  0  0  0  0  0  0  0  0  0  0
   21.2442  -21.7186  -15.3924 S   0  0  0  0  0  0  0  0  0  0  0  0
   21.3967  -20.7626  -13.8431 C   0  0  0  0  0  0  0  0  0  0  0  0
   22.6551  -21.2136  -13.1677 C   0  0  0  0  0  0  0  0  0  0  0  0
   22.9489  -20.4508  -11.9181 C   0  0  2  0  0  0  0  0  0  0  0  0
   24.0944  -21.0478  -11.2508 N   0  0  0  0  0  0  0  0  0  0  0  0
   21.8084  -20.4413  -11.0024 C   0  0  0  0  0  0  0  0  0  0  0  0
   21.7773  -21.1614   -9.9646 O   0  0  0  0  0  0  0  0  0  0  0  0
   20.7106  -19.6010  -11.2896 O   0  0  0  0  0  0  0  0  0  0  0  0
  2  1  1  6
  2  4  1  0
  3  2  1  0
  4  5  2  0
  4 11  1  0
  6  7  1  0
  7  8  1  0
  8  9  1  0
 10  9  1  1
 10 12  1  0
 11 10  1  0
 12 19  1  0
 12 13  2  0
 14 15  1  0
 15 16  1  0
 16 17  1  0
 18 17  1  6
 18 20  1  0
 19 18  1  0
 20 22  1  0
 21 20  2  0
M  END
$$$$
