AMM.pdb
     RDKit          3D

 22 21  0  0  1  0  0  0  0  0999 V2000
   20.8035  -11.6978  -19.9069 C   0  0  0  0  0  0  0  0  0  0  0  0
   21.7502  -10.8015  -19.1162 C   0  0  2  0  0  0  0  0  0  0  0  0
   22.6271  -11.5530  -18.2802 N   0  0  0  0  0  0  0  0  0  0  0  0
   20.9454   -9.7999  -18.4215 C   0  0  0  0  0  0  0  0  0  0  0  0
   20.2058   -9.0452  -19.1033 O   0  0  0  0  0  0  0  0  0  0  0  0
   19.4883   -9.3256  -11.5399 C   0  0  0  0  0  0  0  0  0  0  0  0
   18.1701   -9.2299  -12.7590 S   0  0  0  0  0  0  0  0  0  0  0  0
   18.7386   -8.4344  -14.2794 C   0  0  0  0  0  0  0  0  0  0  0  0
   19.6547   -9.3966  -15.0131 C   0  0  0  0  0  0  0  0  0  0  0  0
   20.2134   -8.7564  -16.2742 C   0  0  2  0  0  0  0  0  0  0  0  0
   21.0181   -9.7048  -17.0077 N   0  0  0  0  0  0  0  0  0  0  0  0
   21.0880   -7.6418  -15.8322 C   0  0  0  0  0  0  0  0  0  0  0  0
   22.1608   -7.9389  -15.2301 O   0  0  0  0  0  0  0  0  0  0  0  0
   23.0277   -0.0459  -16.6087 C   0  0  0  0  0  0  0  0  0  0  0  0
   21.9461   -1.4505  -17.0277 S   0  0  0  0  0  0  0  0  0  0  0  0
   22.3463   -2.8767  -15.9584 C   0  0  0  0  0  0  0  0  0  0  0  0
   21.4726   -4.0132  -16.3923 C   0  0  0  0  0  0  0  0  0  0  0  0
   21.7079   -5.2599  -15.6050 C   0  0  2  0  0  0  0  0  0  0  0  0
   20.7819   -6.2890  -16.0495 N   0  0  0  0  0  0  0  0  0  0  0  0
   21.5329   -5.0414  -14.1694 C   0  0  0  0  0  0  0  0  0  0  0  0
   20.4774   -5.3823  -13.5643 O   0  0  0  0  0  0  0  0  0  0  0  0
   22.5767   -4.4308  -13.4406 O   0  0  0  0  0  0  0  0  0  0  0  0
  2  1  1  1
  2  4  1  0
  3  2  1  0
  4  5  2  0
  4 11  1  0
  6  7  1  0
  7  8  1  0
  8  9  1  0
 10  9  1  1
 10 12  1  0
 11 10  1  0
 12 19  1  0
 12 13  2  0
 14 15  1  0
 15 16  1  0
 16 17  1  0
 18 17  1  6
 18 20  1  0
 19 18  1  0
 20 22  1  0
 21 20  2  0
M  END
$$$$
