AMM.pdb
     RDKit          3D

 22 21  0  0  1  0  0  0  0  0999 V2000
   19.4988  -20.9198  -13.6743 C   0  0  0  0  0  0  0  0  0  0  0  0
   20.7015  -21.3514  -14.5063 C   0  0  2  0  0  0  0  0  0  0  0  0
   20.9064  -22.7615  -14.4614 N   0  0  0  0  0  0  0  0  0  0  0  0
   21.8483  -20.5491  -14.0882 C   0  0  0  0  0  0  0  0  0  0  0  0
   21.7315  -19.2971  -14.0716 O   0  0  0  0  0  0  0  0  0  0  0  0
   25.6560  -21.0916   -8.8566 C   0  0  0  0  0  0  0  0  0  0  0  0
   26.8216  -21.1526  -10.2244 S   0  0  0  0  0  0  0  0  0  0  0  0
   26.1402  -20.3672  -11.7031 C   0  0  0  0  0  0  0  0  0  0  0  0
   24.8984  -21.1309  -12.1253 C   0  0  0  0  0  0  0  0  0  0  0  0
   24.2151  -20.4463  -13.2987 C   0  0  2  0  0  0  0  0  0  0  0  0
   23.0540  -21.1972  -13.7147 N   0  0  0  0  0  0  0  0  0  0  0  0
   25.1939  -20.4396  -14.4142 C   0  0  0  0  0  0  0  0  0  0  0  0
   25.4312  -21.5384  -14.9955 O   0  0  0  0  0  0  0  0  0  0  0  0
   26.4074  -17.2473  -21.1617 C   0  0  0  0  0  0  0  0  0  0  0  0
   25.7000  -17.2362  -19.4831 S   0  0  0  0  0  0  0  0  0  0  0  0
   26.6164  -18.4061  -18.4205 C   0  0  0  0  0  0  0  0  0  0  0  0
   25.8966  -18.4683  -17.1085 C   0  0  0  0  0  0  0  0  0  0  0  0
   26.6062  -19.3053  -16.0959 C   0  0  2  0  0  0  0  0  0  0  0  0
   25.8602  -19.2825  -14.8481 N   0  0  0  0  0  0  0  0  0  0  0  0
   27.9683  -18.8311  -15.8521 C   0  0  0  0  0  0  0  0  0  0  0  0
   28.2371  -18.0153  -14.9255 O   0  0  0  0  0  0  0  0  0  0  0  0
   29.0119  -19.3012  -16.6789 O   0  0  0  0  0  0  0  0  0  0  0  0
  2  1  1  1
  2  4  1  0
  3  2  1  0
  4  5  2  0
  4 11  1  0
  6  7  1  0
  7  8  1  0
  8  9  1  0
 10  9  1  1
 10 12  1  0
 11 10  1  0
 12 19  1  0
 12 13  2  0
 14 15  1  0
 15 16  1  0
 16 17  1  0
 18 17  1  6
 18 20  1  0
 19 18  1  0
 20 22  1  0
 21 20  2  0
M  END
$$$$
