AMM.pdb
     RDKit          3D

 22 21  0  0  1  0  0  0  0  0999 V2000
   22.9590  -19.6540  -18.4055 C   0  0  0  0  0  0  0  0  0  0  0  0
   23.9426  -19.5140  -17.2489 C   0  0  2  0  0  0  0  0  0  0  0  0
   25.2968  -19.6295  -17.6796 N   0  0  0  0  0  0  0  0  0  0  0  0
   23.5461  -20.4560  -16.2053 C   0  0  0  0  0  0  0  0  0  0  0  0
   23.5142  -21.6821  -16.4832 O   0  0  0  0  0  0  0  0  0  0  0  0
   25.9277  -21.5928  -11.6481 C   0  0  0  0  0  0  0  0  0  0  0  0
   24.5839  -21.3613  -10.4760 S   0  0  0  0  0  0  0  0  0  0  0  0
   23.0068  -21.1185  -11.3253 C   0  0  0  0  0  0  0  0  0  0  0  0
   23.2273  -20.1693  -12.4889 C   0  0  0  0  0  0  0  0  0  0  0  0
   22.9565  -20.8652  -13.8135 C   0  0  2  0  0  0  0  0  0  0  0  0
   23.2101  -19.9679  -14.9161 N   0  0  0  0  0  0  0  0  0  0  0  0
   21.5154  -21.2200  -13.8192 C   0  0  0  0  0  0  0  0  0  0  0  0
   20.6796  -20.2836  -13.9813 O   0  0  0  0  0  0  0  0  0  0  0  0
   18.2968  -26.6693  -11.4268 C   0  0  0  0  0  0  0  0  0  0  0  0
   17.8056  -26.4045  -13.1608 S   0  0  0  0  0  0  0  0  0  0  0  0
   17.9312  -24.6290  -13.5725 C   0  0  0  0  0  0  0  0  0  0  0  0
   19.3741  -24.2474  -13.4471 C   0  0  0  0  0  0  0  0  0  0  0  0
   19.6147  -22.7954  -13.6989 C   0  0  2  0  0  0  0  0  0  0  0  0
   21.0440  -22.5322  -13.6548 N   0  0  0  0  0  0  0  0  0  0  0  0
   18.9382  -21.9503  -12.7153 C   0  0  0  0  0  0  0  0  0  0  0  0
   17.7851  -21.4762  -12.9206 O   0  0  0  0  0  0  0  0  0  0  0  0
   19.5961  -21.6574  -11.5008 O   0  0  0  0  0  0  0  0  0  0  0  0
  2  1  1  6
  2  4  1  0
  3  2  1  0
  4  5  2  0
  4 11  1  0
  6  7  1  0
  7  8  1  0
  8  9  1  0
 10  9  1  1
 10 12  1  0
 11 10  1  0
 12 19  1  0
 12 13  2  0
 14 15  1  0
 15 16  1  0
 16 17  1  0
 18 17  1  1
 18 20  1  0
 19 18  1  0
 20 22  1  0
 21 20  2  0
M  END
$$$$
