AMM.pdb
     RDKit          3D

 22 21  0  0  1  0  0  0  0  0999 V2000
   19.1286  -12.8779  -19.6540 C   0  0  0  0  0  0  0  0  0  0  0  0
   20.3986  -13.6042  -19.2245 C   0  0  2  0  0  0  0  0  0  0  0  0
   20.1267  -14.9142  -18.7320 N   0  0  0  0  0  0  0  0  0  0  0  0
   21.1213  -12.7361  -18.2984 C   0  0  0  0  0  0  0  0  0  0  0  0
   20.6464  -12.5574  -17.1477 O   0  0  0  0  0  0  0  0  0  0  0  0
   26.7730  -10.7022  -14.7956 C   0  0  0  0  0  0  0  0  0  0  0  0
   25.8190  -11.4942  -16.0979 S   0  0  0  0  0  0  0  0  0  0  0  0
   25.3586  -10.3122  -17.3857 C   0  0  0  0  0  0  0  0  0  0  0  0
   24.4797  -11.0221  -18.3992 C   0  0  0  0  0  0  0  0  0  0  0  0
   23.0943  -11.2797  -17.8275 C   0  0  2  0  0  0  0  0  0  0  0  0
   22.3300  -12.1220  -18.7171 N   0  0  0  0  0  0  0  0  0  0  0  0
   22.4210   -9.9602  -17.7368 C   0  0  0  0  0  0  0  0  0  0  0  0
   22.1640   -9.3552  -18.8182 O   0  0  0  0  0  0  0  0  0  0  0  0
   16.5284   -5.6782  -16.8614 C   0  0  0  0  0  0  0  0  0  0  0  0
   17.4602   -7.2368  -16.7168 S   0  0  0  0  0  0  0  0  0  0  0  0
   19.2460   -6.8765  -16.5801 C   0  0  0  0  0  0  0  0  0  0  0  0
   19.9668   -8.1883  -16.6351 C   0  0  0  0  0  0  0  0  0  0  0  0
   21.4482   -8.0422  -16.5186 C   0  0  2  0  0  0  0  0  0  0  0  0
   22.0610   -9.3607  -16.5194 N   0  0  0  0  0  0  0  0  0  0  0  0
   21.8335   -7.3321  -15.2992 C   0  0  0  0  0  0  0  0  0  0  0  0
   22.4525   -7.9050  -14.3584 O   0  0  0  0  0  0  0  0  0  0  0  0
   21.5022   -5.9654  -15.1728 O   0  0  0  0  0  0  0  0  0  0  0  0
  2  1  1  1
  2  4  1  0
  3  2  1  0
  4  5  2  0
  4 11  1  0
  6  7  1  0
  7  8  1  0
  8  9  1  0
 10  9  1  6
 10 12  1  0
 11 10  1  0
 12 19  1  0
 12 13  2  0
 14 15  1  0
 15 16  1  0
 16 17  1  0
 18 17  1  1
 18 20  1  0
 19 18  1  0
 20 22  1  0
 21 20  2  0
M  END
$$$$
