AMM.pdb
     RDKit          3D

 22 21  0  0  1  0  0  0  0  0999 V2000
   16.3298  -12.8140  -18.2871 C   0  0  0  0  0  0  0  0  0  0  0  0
   17.0031  -12.3256  -17.0092 C   0  0  2  0  0  0  0  0  0  0  0  0
   16.1046  -12.3084  -15.9025 N   0  0  0  0  0  0  0  0  0  0  0  0
   17.6456  -11.0465  -17.3005 C   0  0  0  0  0  0  0  0  0  0  0  0
   18.4515  -10.9846  -18.2640 O   0  0  0  0  0  0  0  0  0  0  0  0
   15.8133   -4.6007  -16.2606 C   0  0  0  0  0  0  0  0  0  0  0  0
   14.7976   -5.9597  -16.8559 S   0  0  0  0  0  0  0  0  0  0  0  0
   15.8133   -7.3716  -17.3484 C   0  0  0  0  0  0  0  0  0  0  0  0
   16.9499   -7.5178  -16.3532 C   0  0  0  0  0  0  0  0  0  0  0  0
   17.9078   -8.6176  -16.7837 C   0  0  2  0  0  0  0  0  0  0  0  0
   17.3467   -9.9166  -16.4960 N   0  0  0  0  0  0  0  0  0  0  0  0
   19.1394   -8.4484  -15.9731 C   0  0  0  0  0  0  0  0  0  0  0  0
   19.1357   -8.9087  -14.7943 O   0  0  0  0  0  0  0  0  0  0  0  0
   26.0935  -10.4371  -14.5083 C   0  0  0  0  0  0  0  0  0  0  0  0
   24.5459  -10.3874  -15.4678 S   0  0  0  0  0  0  0  0  0  0  0  0
   23.6019   -8.8838  -15.0369 C   0  0  0  0  0  0  0  0  0  0  0  0
   22.3177   -8.9328  -15.8061 C   0  0  0  0  0  0  0  0  0  0  0  0
   21.4718   -7.7195  -15.6018 C   0  0  2  0  0  0  0  0  0  0  0  0
   20.2943   -7.8082  -16.4501 N   0  0  0  0  0  0  0  0  0  0  0  0
   22.1978   -6.4882  -15.9119 C   0  0  0  0  0  0  0  0  0  0  0  0
   22.1184   -5.9314  -17.0434 O   0  0  0  0  0  0  0  0  0  0  0  0
   23.0110   -5.9067  -14.9148 O   0  0  0  0  0  0  0  0  0  0  0  0
  2  1  1  6
  2  4  1  0
  3  2  1  0
  4  5  2  0
  4 11  1  0
  6  7  1  0
  7  8  1  0
  8  9  1  0
 10  9  1  1
 10 12  1  0
 11 10  1  0
 12 19  1  0
 12 13  2  0
 14 15  1  0
 15 16  1  0
 16 17  1  0
 18 17  1  6
 18 20  1  0
 19 18  1  0
 20 22  1  0
 21 20  2  0
M  END
$$$$
