AMM.pdb
     RDKit          3D

 22 21  0  0  1  0  0  0  0  0999 V2000
   26.9358  -19.3940  -17.5897 C   0  0  0  0  0  0  0  0  0  0  0  0
   27.7808  -19.8502  -16.4054 C   0  0  2  0  0  0  0  0  0  0  0  0
   28.9270  -20.5908  -16.8181 N   0  0  0  0  0  0  0  0  0  0  0  0
   26.9027  -20.5464  -15.4685 C   0  0  0  0  0  0  0  0  0  0  0  0
   26.3899  -21.6384  -15.8239 O   0  0  0  0  0  0  0  0  0  0  0  0
   25.1643  -21.0977   -7.7653 C   0  0  0  0  0  0  0  0  0  0  0  0
   25.9426  -20.1925   -9.1099 S   0  0  0  0  0  0  0  0  0  0  0  0
   25.4891  -20.8856  -10.7167 C   0  0  0  0  0  0  0  0  0  0  0  0
   26.2460  -20.1340  -11.7964 C   0  0  0  0  0  0  0  0  0  0  0  0
   25.9366  -20.7052  -13.1713 C   0  0  2  0  0  0  0  0  0  0  0  0
   26.6528  -19.9780  -14.1928 N   0  0  0  0  0  0  0  0  0  0  0  0
   24.4815  -20.5142  -13.3923 C   0  0  0  0  0  0  0  0  0  0  0  0
   24.0639  -19.3333  -13.5732 O   0  0  0  0  0  0  0  0  0  0  0  0
   19.4467  -24.9552  -12.7288 C   0  0  0  0  0  0  0  0  0  0  0  0
   19.2380  -24.0706  -14.3075 S   0  0  0  0  0  0  0  0  0  0  0  0
   19.9802  -22.4059  -14.1837 C   0  0  0  0  0  0  0  0  0  0  0  0
   21.4358  -22.5922  -13.8842 C   0  0  0  0  0  0  0  0  0  0  0  0
   22.1555  -21.3009  -13.6744 C   0  0  2  0  0  0  0  0  0  0  0  0
   23.5590  -21.5724  -13.4092 N   0  0  0  0  0  0  0  0  0  0  0  0
   21.5935  -20.5364  -12.5611 C   0  0  0  0  0  0  0  0  0  0  0  0
   20.7388  -19.6233  -12.7403 O   0  0  0  0  0  0  0  0  0  0  0  0
   22.0212  -20.8300  -11.2479 O   0  0  0  0  0  0  0  0  0  0  0  0
  2  1  1  6
  2  4  1  0
  3  2  1  0
  4  5  2  0
  4 11  1  0
  6  7  1  0
  7  8  1  0
  8  9  1  0
 10  9  1  1
 10 12  1  0
 11 10  1  0
 12 19  1  0
 12 13  2  0
 14 15  1  0
 15 16  1  0
 16 17  1  0
 18 17  1  1
 18 20  1  0
 19 18  1  0
 20 22  1  0
 21 20  2  0
M  END
$$$$
