AMM.pdb
     RDKit          3D

 22 21  0  0  1  0  0  0  0  0999 V2000
   20.6331  -20.2111  -13.2724 C   0  0  0  0  0  0  0  0  0  0  0  0
   21.7953  -21.1103  -13.6790 C   0  0  2  0  0  0  0  0  0  0  0  0
   21.7129  -22.3991  -13.0751 N   0  0  0  0  0  0  0  0  0  0  0  0
   23.0366  -20.3862  -13.4174 C   0  0  0  0  0  0  0  0  0  0  0  0
   23.1420  -19.2044  -13.8342 O   0  0  0  0  0  0  0  0  0  0  0  0
   27.3471  -21.1793   -8.5628 C   0  0  0  0  0  0  0  0  0  0  0  0
   25.6926  -20.4964   -8.3904 S   0  0  0  0  0  0  0  0  0  0  0  0
   24.9417  -20.1802  -10.0040 C   0  0  0  0  0  0  0  0  0  0  0  0
   25.8686  -20.7155  -11.0800 C   0  0  0  0  0  0  0  0  0  0  0  0
   25.3451  -20.3710  -12.4655 C   0  0  2  0  0  0  0  0  0  0  0  0
   24.0824  -21.0290  -12.7059 N   0  0  0  0  0  0  0  0  0  0  0  0
   26.3388  -20.8933  -13.4362 C   0  0  0  0  0  0  0  0  0  0  0  0
   26.5266  -22.1444  -13.4702 O   0  0  0  0  0  0  0  0  0  0  0  0
   24.3771  -23.5245  -17.1500 C   0  0  0  0  0  0  0  0  0  0  0  0
   25.1189  -22.3953  -18.3718 S   0  0  0  0  0  0  0  0  0  0  0  0
   26.6423  -21.6578  -17.6840 C   0  0  0  0  0  0  0  0  0  0  0  0
   26.3109  -21.1593  -16.3111 C   0  0  0  0  0  0  0  0  0  0  0  0
   27.4925  -20.5865  -15.6004 C   0  0  2  0  0  0  0  0  0  0  0  0
   27.0706  -20.0713  -14.3078 N   0  0  0  0  0  0  0  0  0  0  0  0
   28.1225  -19.5109  -16.3658 C   0  0  0  0  0  0  0  0  0  0  0  0
   28.9987  -19.7408  -17.2466 O   0  0  0  0  0  0  0  0  0  0  0  0
   27.7376  -18.1766  -16.1104 O   0  0  0  0  0  0  0  0  0  0  0  0
  2  1  1  1
  2  4  1  0
  3  2  1  0
  4  5  2  0
  4 11  1  0
  6  7  1  0
  7  8  1  0
  8  9  1  0
 10  9  1  1
 10 12  1  0
 11 10  1  0
 12 19  1  0
 12 13  2  0
 14 15  1  0
 15 16  1  0
 16 17  1  0
 18 17  1  6
 18 20  1  0
 19 18  1  0
 20 22  1  0
 21 20  2  0
M  END
$$$$
