LNR.pdb
     RDKit          3D

 28 27  0  0  1  0  0  0  0  0999 V2000
   29.4739  -19.4422   -6.8196 C   0  0  0  0  0  0  0  0  0  0  0  0
   28.0050  -19.1992   -6.5666 C   0  0  2  0  0  0  0  0  0  0  0  0
   27.8159  -18.9212   -5.0925 C   0  0  0  0  0  0  0  0  0  0  0  0
   27.2362  -20.4523   -6.9040 C   0  0  0  0  0  0  0  0  0  0  0  0
   27.0927  -20.6309   -8.4054 C   0  0  2  0  0  0  0  0  0  0  0  0
   27.2596  -19.3101   -8.9956 N   0  0  0  0  0  0  0  0  0  0  0  0
   25.6952  -21.1036   -8.6553 C   0  0  0  0  0  0  0  0  0  0  0  0
   25.1260  -21.9318   -7.9183 O   0  0  0  0  0  0  0  0  0  0  0  0
   20.8503  -22.3179   -9.0519 N   0  0  0  0  0  0  0  0  0  0  0  0
   21.2992  -20.9882   -9.3363 C   0  0  0  0  0  0  0  0  0  0  0  0
   20.4776  -20.2437   -9.9248 O   0  0  0  0  0  0  0  0  0  0  0  0
   22.6540  -20.5768   -8.9376 C   0  0  0  0  0  0  0  0  0  0  0  0
   23.6043  -20.8220  -10.0579 C   0  0  2  0  0  0  0  0  0  0  0  0
   24.9725  -20.6065   -9.7625 N   0  0  0  0  0  0  0  0  0  0  0  0
   23.2227  -20.0914  -11.3057 C   0  0  0  0  0  0  0  0  0  0  0  0
   23.1561  -18.8460  -11.2169 O   0  0  0  0  0  0  0  0  0  0  0  0
   24.3578  -19.0166  -18.9630 N   0  0  0  0  0  0  0  0  0  0  0  0
   23.5535  -17.8608  -18.7314 C   0  0  0  0  0  0  0  0  0  0  0  0
   23.0607  -17.2699  -19.7409 N   0  0  0  0  0  0  0  0  0  0  0  0
   23.3509  -17.4382  -17.3858 N   0  0  0  0  0  0  0  0  0  0  0  0
   23.9364  -18.2375  -16.3277 C   0  0  0  0  0  0  0  0  0  0  0  0
   22.9979  -19.4126  -16.0871 C   0  0  0  0  0  0  0  0  0  0  0  0
   23.4847  -20.1809  -14.8958 C   0  0  0  0  0  0  0  0  0  0  0  0
   22.5041  -20.1703  -13.7460 C   0  0  2  0  0  0  0  0  0  0  0  0
   22.9484  -20.7395  -12.5251 N   0  0  0  0  0  0  0  0  0  0  0  0
   21.1534  -20.5083  -14.1908 C   0  0  0  0  0  0  0  0  0  0  0  0
   20.5459  -21.5365  -13.8173 O   0  0  0  0  0  0  0  0  0  0  0  0
   20.5209  -19.6362  -15.0733 O   0  0  0  0  0  0  0  0  0  0  0  0
  2  1  1  1
  3  2  1  0
  4  2  1  0
  5  4  1  0
  5  6  1  6
  7  5  1  0
  8  7  2  0
  9 10  1  0
 10 12  1  0
 10 11  2  0
 13 12  1  1
 13 14  1  0
 14  7  1  0
 15 25  1  0
 15 13  1  0
 16 15  2  0
 18 19  2  0
 18 17  1  0
 20 18  1  0
 21 20  1  0
 22 21  1  0
 23 22  1  0
 24 23  1  6
 24 25  1  0
 26 28  1  0
 26 24  1  0
 27 26  2  0
M  END
$$$$
