LNR.pdb
     RDKit          3D

 28 27  0  0  1  0  0  0  0  0999 V2000
   27.7952  -16.0071  -15.7085 C   0  0  0  0  0  0  0  0  0  0  0  0
   27.3952  -16.7822  -16.9414 C   0  0  2  0  0  0  0  0  0  0  0  0
   26.3277  -15.9982  -17.6706 C   0  0  0  0  0  0  0  0  0  0  0  0
   26.7947  -18.0995  -16.5181 C   0  0  0  0  0  0  0  0  0  0  0  0
   27.7488  -18.8906  -15.6403 C   0  0  2  0  0  0  0  0  0  0  0  0
   28.6182  -19.6338  -16.5417 N   0  0  0  0  0  0  0  0  0  0  0  0
   26.9182  -19.8573  -14.8565 C   0  0  0  0  0  0  0  0  0  0  0  0
   26.8521  -21.0688  -15.1414 O   0  0  0  0  0  0  0  0  0  0  0  0
   24.6814  -20.9666   -9.3579 N   0  0  0  0  0  0  0  0  0  0  0  0
   25.0910  -21.2385  -10.7028 C   0  0  0  0  0  0  0  0  0  0  0  0
   24.7579  -22.3572  -11.1645 O   0  0  0  0  0  0  0  0  0  0  0  0
   25.8551  -20.2271  -11.4492 C   0  0  0  0  0  0  0  0  0  0  0  0
   25.3895  -20.1875  -12.8634 C   0  0  2  0  0  0  0  0  0  0  0  0
   26.1713  -19.4038  -13.7467 N   0  0  0  0  0  0  0  0  0  0  0  0
   23.9455  -19.8176  -12.9832 C   0  0  0  0  0  0  0  0  0  0  0  0
   23.5209  -18.9790  -12.1586 O   0  0  0  0  0  0  0  0  0  0  0  0
   18.8273  -25.4083  -11.8415 N   0  0  0  0  0  0  0  0  0  0  0  0
   18.4050  -25.5084  -13.2009 C   0  0  0  0  0  0  0  0  0  0  0  0
   17.2192  -25.9013  -13.4257 N   0  0  0  0  0  0  0  0  0  0  0  0
   19.3351  -25.1632  -14.2238 N   0  0  0  0  0  0  0  0  0  0  0  0
   20.6329  -24.6595  -13.8194 C   0  0  0  0  0  0  0  0  0  0  0  0
   20.5055  -23.1464  -13.7020 C   0  0  0  0  0  0  0  0  0  0  0  0
   21.8648  -22.5354  -13.8613 C   0  0  0  0  0  0  0  0  0  0  0  0
   21.8484  -21.0272  -13.7682 C   0  0  2  0  0  0  0  0  0  0  0  0
   23.0879  -20.3641  -13.9569 N   0  0  0  0  0  0  0  0  0  0  0  0
   21.0032  -20.5677  -12.6678 C   0  0  0  0  0  0  0  0  0  0  0  0
   21.2568  -20.8012  -11.4649 O   0  0  0  0  0  0  0  0  0  0  0  0
   19.8622  -19.8347  -12.9849 O   0  0  0  0  0  0  0  0  0  0  0  0
  2  1  1  1
  3  2  1  0
  4  2  1  0
  5  4  1  0
  5  6  1  6
  7  5  1  0
  8  7  2  0
  9 10  1  0
 10 12  1  0
 10 11  2  0
 13 12  1  1
 13 14  1  0
 14  7  1  0
 15 25  1  0
 15 13  1  0
 16 15  2  0
 18 19  2  0
 18 17  1  0
 20 18  1  0
 21 20  1  0
 22 21  1  0
 23 22  1  0
 24 23  1  1
 24 25  1  0
 26 28  1  0
 26 24  1  0
 27 26  2  0
M  END
$$$$
