LNR.pdb
     RDKit          3D

 28 27  0  0  1  0  0  0  0  0999 V2000
   26.8581  -22.3764  -11.8217 C   0  0  0  0  0  0  0  0  0  0  0  0
   26.8721  -20.9690  -11.2743 C   0  0  2  0  0  0  0  0  0  0  0  0
   26.8829  -21.0459   -9.7644 C   0  0  0  0  0  0  0  0  0  0  0  0
   25.6040  -20.2681  -11.6935 C   0  0  0  0  0  0  0  0  0  0  0  0
   25.4398  -20.2685  -13.2034 C   0  0  2  0  0  0  0  0  0  0  0  0
   26.3133  -19.2209  -13.7134 N   0  0  0  0  0  0  0  0  0  0  0  0
   24.0178  -19.8984  -13.4861 C   0  0  0  0  0  0  0  0  0  0  0  0
   23.3608  -19.1452  -12.7418 O   0  0  0  0  0  0  0  0  0  0  0  0
   23.6294  -18.4393  -17.6543 N   0  0  0  0  0  0  0  0  0  0  0  0
   22.5319  -18.4989  -16.7365 C   0  0  0  0  0  0  0  0  0  0  0  0
   22.2034  -17.4130  -16.1995 O   0  0  0  0  0  0  0  0  0  0  0  0
   21.8680  -19.7861  -16.4790 C   0  0  0  0  0  0  0  0  0  0  0  0
   22.0416  -20.1643  -15.0489 C   0  0  2  0  0  0  0  0  0  0  0  0
   23.3735  -20.4092  -14.6346 N   0  0  0  0  0  0  0  0  0  0  0  0
   21.1561  -21.2989  -14.6427 C   0  0  0  0  0  0  0  0  0  0  0  0
   21.5329  -22.4415  -14.9830 O   0  0  0  0  0  0  0  0  0  0  0  0
   18.6233  -24.0800   -8.3584 N   0  0  0  0  0  0  0  0  0  0  0  0
   18.6181  -25.2001   -9.2424 C   0  0  0  0  0  0  0  0  0  0  0  0
   17.9659  -26.2304   -8.8898 N   0  0  0  0  0  0  0  0  0  0  0  0
   19.3427  -25.0983  -10.4651 N   0  0  0  0  0  0  0  0  0  0  0  0
   19.5821  -23.7740  -11.0041 C   0  0  0  0  0  0  0  0  0  0  0  0
   18.2231  -23.1874  -11.3621 C   0  0  0  0  0  0  0  0  0  0  0  0
   18.4342  -21.9050  -12.1086 C   0  0  0  0  0  0  0  0  0  0  0  0
   19.0457  -22.1115  -13.4750 C   0  0  2  0  0  0  0  0  0  0  0  0
   19.9614  -21.1233  -13.9187 N   0  0  0  0  0  0  0  0  0  0  0  0
   18.0554  -22.5884  -14.4385 C   0  0  0  0  0  0  0  0  0  0  0  0
   17.2275  -21.8366  -14.9997 O   0  0  0  0  0  0  0  0  0  0  0  0
   18.0416  -23.9481  -14.7394 O   0  0  0  0  0  0  0  0  0  0  0  0
  2  1  1  6
  3  2  1  0
  4  2  1  0
  5  4  1  0
  5  6  1  6
  7  5  1  0
  8  7  2  0
  9 10  1  0
 10 12  1  0
 10 11  2  0
 13 12  1  6
 13 14  1  0
 14  7  1  0
 15 25  1  0
 15 13  1  0
 16 15  2  0
 18 19  2  0
 18 17  1  0
 20 18  1  0
 21 20  1  0
 22 21  1  0
 23 22  1  0
 24 23  1  1
 24 25  1  0
 26 28  1  0
 26 24  1  0
 27 26  2  0
M  END
$$$$
