LNR.pdb
     RDKit          3D

 28 27  0  0  1  0  0  0  0  0999 V2000
   28.3095  -21.2034  -10.2037 C   0  0  0  0  0  0  0  0  0  0  0  0
   28.9132  -21.4997  -11.5559 C   0  0  2  0  0  0  0  0  0  0  0  0
   30.4163  -21.5573  -11.4036 C   0  0  0  0  0  0  0  0  0  0  0  0
   28.5860  -20.3672  -12.4969 C   0  0  0  0  0  0  0  0  0  0  0  0
   27.1046  -20.3295  -12.8299 C   0  0  2  0  0  0  0  0  0  0  0  0
   26.7634  -21.6495  -13.3418 N   0  0  0  0  0  0  0  0  0  0  0  0
   26.9303  -19.3226  -13.9229 C   0  0  0  0  0  0  0  0  0  0  0  0
   27.8211  -18.5076  -14.2316 O   0  0  0  0  0  0  0  0  0  0  0  0
   28.9691  -18.2934  -16.8668 N   0  0  0  0  0  0  0  0  0  0  0  0
   27.6490  -17.8236  -16.5721 C   0  0  0  0  0  0  0  0  0  0  0  0
   27.5744  -16.6920  -16.0341 O   0  0  0  0  0  0  0  0  0  0  0  0
   26.4872  -18.6627  -16.9039 C   0  0  0  0  0  0  0  0  0  0  0  0
   25.4590  -18.5443  -15.8329 C   0  0  2  0  0  0  0  0  0  0  0  0
   25.7187  -19.2742  -14.6474 N   0  0  0  0  0  0  0  0  0  0  0  0
   24.0778  -18.8344  -16.3274 C   0  0  0  0  0  0  0  0  0  0  0  0
   23.8763  -18.6400  -17.5460 O   0  0  0  0  0  0  0  0  0  0  0  0
   24.2704  -23.9694  -13.7052 N   0  0  0  0  0  0  0  0  0  0  0  0
   24.2242  -22.7441  -12.9752 C   0  0  0  0  0  0  0  0  0  0  0  0
   25.1569  -22.5129  -12.1459 N   0  0  0  0  0  0  0  0  0  0  0  0
   23.1380  -21.8543  -13.2179 N   0  0  0  0  0  0  0  0  0  0  0  0
   22.0018  -22.3578  -13.9641 C   0  0  0  0  0  0  0  0  0  0  0  0
   22.1756  -21.8951  -15.4046 C   0  0  0  0  0  0  0  0  0  0  0  0
   21.1215  -20.8752  -15.7128 C   0  0  0  0  0  0  0  0  0  0  0  0
   21.6693  -19.4698  -15.8051 C   0  0  2  0  0  0  0  0  0  0  0  0
   23.0428  -19.3002  -15.4943 N   0  0  0  0  0  0  0  0  0  0  0  0
   20.7320  -18.4924  -15.2551 C   0  0  0  0  0  0  0  0  0  0  0  0
   21.0759  -17.5763  -14.4751 O   0  0  0  0  0  0  0  0  0  0  0  0
   19.3930  -18.5948  -15.6238 O   0  0  0  0  0  0  0  0  0  0  0  0
  2  1  1  1
  3  2  1  0
  4  2  1  0
  5  4  1  0
  5  6  1  6
  7  5  1  0
  8  7  2  0
  9 10  1  0
 10 12  1  0
 10 11  2  0
 13 12  1  6
 13 14  1  0
 14  7  1  0
 15 25  1  0
 15 13  1  0
 16 15  2  0
 18 19  2  0
 18 17  1  0
 20 18  1  0
 21 20  1  0
 22 21  1  0
 23 22  1  0
 24 23  1  1
 24 25  1  0
 26 28  1  0
 26 24  1  0
 27 26  2  0
M  END
$$$$
