LNR.pdb
     RDKit          3D

 28 27  0  0  1  0  0  0  0  0999 V2000
   28.9532  -17.6748  -17.0758 C   0  0  0  0  0  0  0  0  0  0  0  0
   28.1461  -18.6724  -17.8723 C   0  0  2  0  0  0  0  0  0  0  0  0
   27.2150  -17.9091  -18.7868 C   0  0  0  0  0  0  0  0  0  0  0  0
   27.3005  -19.4860  -16.9245 C   0  0  0  0  0  0  0  0  0  0  0  0
   28.1546  -20.2201  -15.9055 C   0  0  2  0  0  0  0  0  0  0  0  0
   28.8432  -21.2787  -16.6309 N   0  0  0  0  0  0  0  0  0  0  0  0
   27.2169  -20.8372  -14.9162 C   0  0  0  0  0  0  0  0  0  0  0  0
   26.6203  -21.9088  -15.1366 O   0  0  0  0  0  0  0  0  0  0  0  0
   24.8366  -21.8497  -10.6018 N   0  0  0  0  0  0  0  0  0  0  0  0
   25.6866  -20.7566  -10.2375 C   0  0  0  0  0  0  0  0  0  0  0  0
   25.7042  -20.4548   -9.0192 O   0  0  0  0  0  0  0  0  0  0  0  0
   26.4693  -20.0667  -11.2745 C   0  0  0  0  0  0  0  0  0  0  0  0
   26.1945  -20.6801  -12.6035 C   0  0  2  0  0  0  0  0  0  0  0  0
   26.9826  -20.1997  -13.6777 N   0  0  0  0  0  0  0  0  0  0  0  0
   24.7444  -20.6393  -12.9667 C   0  0  0  0  0  0  0  0  0  0  0  0
   24.2088  -19.5095  -12.9718 O   0  0  0  0  0  0  0  0  0  0  0  0
   19.1168  -25.1941  -10.9758 N   0  0  0  0  0  0  0  0  0  0  0  0
   18.1807  -24.9347  -12.0212 C   0  0  0  0  0  0  0  0  0  0  0  0
   16.9543  -24.8397  -11.7083 N   0  0  0  0  0  0  0  0  0  0  0  0
   18.6746  -24.7979  -13.3507 N   0  0  0  0  0  0  0  0  0  0  0  0
   20.1113  -24.7926  -13.5441 C   0  0  0  0  0  0  0  0  0  0  0  0
   20.5689  -23.3440  -13.4376 C   0  0  0  0  0  0  0  0  0  0  0  0
   22.0445  -23.2855  -13.6936 C   0  0  0  0  0  0  0  0  0  0  0  0
   22.6105  -21.8901  -13.5664 C   0  0  2  0  0  0  0  0  0  0  0  0
   23.9979  -21.7886  -13.2893 N   0  0  0  0  0  0  0  0  0  0  0  0
   21.7117  -21.0136  -12.8178 C   0  0  0  0  0  0  0  0  0  0  0  0
   20.7595  -20.3964  -13.3452 O   0  0  0  0  0  0  0  0  0  0  0  0
   21.9350  -20.8656  -11.4512 O   0  0  0  0  0  0  0  0  0  0  0  0
  2  1  1  1
  3  2  1  0
  4  2  1  0
  5  4  1  0
  5  6  1  6
  7  5  1  0
  8  7  2  0
  9 10  1  0
 10 12  1  0
 10 11  2  0
 13 12  1  1
 13 14  1  0
 14  7  1  0
 15 25  1  0
 15 13  1  0
 16 15  2  0
 18 19  2  0
 18 17  1  0
 20 18  1  0
 21 20  1  0
 22 21  1  0
 23 22  1  0
 24 23  1  1
 24 25  1  0
 26 28  1  0
 26 24  1  0
 27 26  2  0
M  END
$$$$
