LNR.pdb
     RDKit          3D

 28 27  0  0  1  0  0  0  0  0999 V2000
   13.0408   -6.5786   -8.6388 C   0  0  0  0  0  0  0  0  0  0  0  0
   14.2499   -6.5012   -7.7373 C   0  0  2  0  0  0  0  0  0  0  0  0
   13.9923   -5.4460   -6.6855 C   0  0  0  0  0  0  0  0  0  0  0  0
   15.4408   -6.0620   -8.5522 C   0  0  0  0  0  0  0  0  0  0  0  0
   15.7464   -7.0462   -9.6678 C   0  0  2  0  0  0  0  0  0  0  0  0
   16.3328   -8.2189   -9.0339 N   0  0  0  0  0  0  0  0  0  0  0  0
   16.7724   -6.4025  -10.5464 C   0  0  0  0  0  0  0  0  0  0  0  0
   16.5787   -5.3097  -11.1132 O   0  0  0  0  0  0  0  0  0  0  0  0
   21.4939   -4.6374  -12.1656 N   0  0  0  0  0  0  0  0  0  0  0  0
   21.4004   -6.0489  -11.9435 C   0  0  0  0  0  0  0  0  0  0  0  0
   22.1858   -6.7647  -12.6116 O   0  0  0  0  0  0  0  0  0  0  0  0
   20.4221   -6.5700  -10.9765 C   0  0  0  0  0  0  0  0  0  0  0  0
   19.0688   -6.6018  -11.5977 C   0  0  2  0  0  0  0  0  0  0  0  0
   18.0160   -7.0383  -10.7570 N   0  0  0  0  0  0  0  0  0  0  0  0
   19.0465   -7.3557  -12.8891 C   0  0  0  0  0  0  0  0  0  0  0  0
   19.2298   -8.5900  -12.8101 O   0  0  0  0  0  0  0  0  0  0  0  0
   21.1531   -6.8209  -20.7866 N   0  0  0  0  0  0  0  0  0  0  0  0
   20.0221   -7.6644  -21.0004 C   0  0  0  0  0  0  0  0  0  0  0  0
   19.9539   -8.2971  -22.0987 N   0  0  0  0  0  0  0  0  0  0  0  0
   19.0383   -7.7476  -19.9730 N   0  0  0  0  0  0  0  0  0  0  0  0
   19.2649   -6.9971  -18.7537 C   0  0  0  0  0  0  0  0  0  0  0  0
   18.1026   -7.3056  -17.8193 C   0  0  0  0  0  0  0  0  0  0  0  0
   18.2766   -6.5152  -16.5578 C   0  0  0  0  0  0  0  0  0  0  0  0
   18.8619   -7.3294  -15.4273 C   0  0  2  0  0  0  0  0  0  0  0  0
   18.8341   -6.7402  -14.1374 N   0  0  0  0  0  0  0  0  0  0  0  0
   20.0972   -7.9977  -15.8323 C   0  0  0  0  0  0  0  0  0  0  0  0
   21.1947   -7.4056  -15.9362 O   0  0  0  0  0  0  0  0  0  0  0  0
   20.0385   -9.3604  -16.1136 O   0  0  0  0  0  0  0  0  0  0  0  0
  2  1  1  6
  3  2  1  0
  4  2  1  0
  5  4  1  0
  5  6  1  1
  7  5  1  0
  8  7  2  0
  9 10  1  0
 10 12  1  0
 10 11  2  0
 13 12  1  1
 13 14  1  0
 14  7  1  0
 15 25  1  0
 15 13  1  0
 16 15  2  0
 18 19  2  0
 18 17  1  0
 20 18  1  0
 21 20  1  0
 22 21  1  0
 23 22  1  0
 24 23  1  6
 24 25  1  0
 26 28  1  0
 26 24  1  0
 27 26  2  0
M  END
$$$$
