LNR.pdb
     RDKit          3D

 28 27  0  0  1  0  0  0  0  0999 V2000
   29.1104  -27.8029  -17.8503 C   0  0  0  0  0  0  0  0  0  0  0  0
   29.4649  -26.3416  -17.7102 C   0  0  2  0  0  0  0  0  0  0  0  0
   30.8820  -26.2434  -17.1926 C   0  0  0  0  0  0  0  0  0  0  0  0
   28.5531  -25.7127  -16.6863 C   0  0  0  0  0  0  0  0  0  0  0  0
   27.0987  -25.7806  -17.1186 C   0  0  2  0  0  0  0  0  0  0  0  0
   27.0046  -25.0372  -18.3674 N   0  0  0  0  0  0  0  0  0  0  0  0
   26.2998  -25.0740  -16.0691 C   0  0  0  0  0  0  0  0  0  0  0  0
   26.2495  -25.4669  -14.8875 O   0  0  0  0  0  0  0  0  0  0  0  0
   24.2180  -20.9829  -13.4700 N   0  0  0  0  0  0  0  0  0  0  0  0
   23.9148  -20.9562  -14.8692 C   0  0  0  0  0  0  0  0  0  0  0  0
   22.8837  -20.3198  -15.1972 O   0  0  0  0  0  0  0  0  0  0  0  0
   24.7972  -21.6521  -15.8183 C   0  0  0  0  0  0  0  0  0  0  0  0
   24.7842  -23.1147  -15.5375 C   0  0  2  0  0  0  0  0  0  0  0  0
   25.5661  -23.9149  -16.4058 N   0  0  0  0  0  0  0  0  0  0  0  0
   23.3988  -23.6675  -15.4313 C   0  0  0  0  0  0  0  0  0  0  0  0
   22.7287  -23.6825  -16.4868 O   0  0  0  0  0  0  0  0  0  0  0  0
   17.7655  -25.3481  -10.5155 N   0  0  0  0  0  0  0  0  0  0  0  0
   17.4974  -26.6863  -10.9323 C   0  0  0  0  0  0  0  0  0  0  0  0
   16.2890  -27.0749  -10.9363 N   0  0  0  0  0  0  0  0  0  0  0  0
   18.5970  -27.5062  -11.3183 N   0  0  0  0  0  0  0  0  0  0  0  0
   19.9142  -26.9020  -11.3550 C   0  0  0  0  0  0  0  0  0  0  0  0
   19.9822  -26.0608  -12.6227 C   0  0  0  0  0  0  0  0  0  0  0  0
   21.3453  -25.4451  -12.7190 C   0  0  0  0  0  0  0  0  0  0  0  0
   21.5470  -24.6543  -13.9909 C   0  0  2  0  0  0  0  0  0  0  0  0
   22.8518  -24.1508  -14.2273 N   0  0  0  0  0  0  0  0  0  0  0  0
   20.4246  -23.7532  -14.2450 C   0  0  0  0  0  0  0  0  0  0  0  0
   20.2521  -22.6808  -13.6237 O   0  0  0  0  0  0  0  0  0  0  0  0
   19.5084  -24.1154  -15.2292 O   0  0  0  0  0  0  0  0  0  0  0  0
  2  1  1  1
  3  2  1  0
  4  2  1  0
  5  4  1  0
  5  6  1  6
  7  5  1  0
  8  7  2  0
  9 10  1  0
 10 12  1  0
 10 11  2  0
 13 12  1  6
 13 14  1  0
 14  7  1  0
 15 25  1  0
 15 13  1  0
 16 15  2  0
 18 19  2  0
 18 17  1  0
 20 18  1  0
 21 20  1  0
 22 21  1  0
 23 22  1  0
 24 23  1  1
 24 25  1  0
 26 28  1  0
 26 24  1  0
 27 26  2  0
M  END
$$$$
