LNR.pdb
     RDKit          3D

 28 27  0  0  1  0  0  0  0  0999 V2000
   21.2955  -19.4854  -19.4270 C   0  0  0  0  0  0  0  0  0  0  0  0
   22.7128  -19.9577  -19.6476 C   0  0  2  0  0  0  0  0  0  0  0  0
   22.7340  -20.8429  -20.8731 C   0  0  0  0  0  0  0  0  0  0  0  0
   23.1403  -20.7921  -18.4661 C   0  0  0  0  0  0  0  0  0  0  0  0
   23.2807  -19.9495  -17.2102 C   0  0  2  0  0  0  0  0  0  0  0  0
   23.8266  -18.6673  -17.6330 N   0  0  0  0  0  0  0  0  0  0  0  0
   24.2782  -20.6389  -16.3334 C   0  0  0  0  0  0  0  0  0  0  0  0
   24.0578  -21.7491  -15.8120 O   0  0  0  0  0  0  0  0  0  0  0  0
   27.4946  -22.4816  -16.6302 N   0  0  0  0  0  0  0  0  0  0  0  0
   28.3789  -21.3801  -16.3959 C   0  0  0  0  0  0  0  0  0  0  0  0
   29.5152  -21.4642  -16.9226 O   0  0  0  0  0  0  0  0  0  0  0  0
   27.9258  -20.2447  -15.5776 C   0  0  0  0  0  0  0  0  0  0  0  0
   26.5140  -20.4608  -15.1554 C   0  0  2  0  0  0  0  0  0  0  0  0
   25.5247  -20.0282  -16.0719 N   0  0  0  0  0  0  0  0  0  0  0  0
   26.2315  -19.9141  -13.7924 C   0  0  0  0  0  0  0  0  0  0  0  0
   26.0769  -18.6757  -13.7162 O   0  0  0  0  0  0  0  0  0  0  0  0
   18.8776  -20.6357   -9.9755 N   0  0  0  0  0  0  0  0  0  0  0  0
   19.5267  -20.3587  -11.2157 C   0  0  0  0  0  0  0  0  0  0  0  0
   18.8679  -20.5464  -12.2843 N   0  0  0  0  0  0  0  0  0  0  0  0
   20.8718  -19.8894  -11.1836 N   0  0  0  0  0  0  0  0  0  0  0  0
   21.8430  -20.6630  -10.4354 C   0  0  0  0  0  0  0  0  0  0  0  0
   23.1466  -19.8758  -10.4523 C   0  0  0  0  0  0  0  0  0  0  0  0
   23.8833  -20.1922  -11.7187 C   0  0  0  0  0  0  0  0  0  0  0  0
   25.3398  -20.5217  -11.4874 C   0  0  2  0  0  0  0  0  0  0  0  0
   26.1388  -20.7208  -12.6423 N   0  0  0  0  0  0  0  0  0  0  0  0
   25.5066  -21.4678  -10.3858 C   0  0  0  0  0  0  0  0  0  0  0  0
   25.4408  -22.7088  -10.5320 O   0  0  0  0  0  0  0  0  0  0  0  0
   25.7504  -20.9519   -9.1153 O   0  0  0  0  0  0  0  0  0  0  0  0
  2  1  1  1
  3  2  1  0
  4  2  1  0
  5  4  1  0
  5  6  1  6
  7  5  1  0
  8  7  2  0
  9 10  1  0
 10 12  1  0
 10 11  2  0
 13 12  1  6
 13 14  1  0
 14  7  1  0
 15 25  1  0
 15 13  1  0
 16 15  2  0
 18 19  2  0
 18 17  1  0
 20 18  1  0
 21 20  1  0
 22 21  1  0
 23 22  1  0
 24 23  1  6
 24 25  1  0
 26 28  1  0
 26 24  1  0
 27 26  2  0
M  END
$$$$
