KNI.pdb
     RDKit          3D

 26 25  0  0  1  0  0  0  0  0999 V2000
   21.2693  -11.2561  -16.9219 N   0  0  0  0  0  0  0  0  0  0  0  0
   20.0232  -10.5765  -16.7383 C   0  0  1  0  0  0  0  0  0  0  0  0
   18.8752  -11.4838  -16.4140 C   0  0  0  0  0  0  0  0  0  0  0  0
   19.0556  -12.9042  -16.7943 C   0  0  0  0  0  0  0  0  0  0  0  0
   17.9720  -13.8506  -16.4027 C   0  0  0  0  0  0  0  0  0  0  0  0
   18.3025  -15.2550  -16.9487 C   0  0  0  0  0  0  0  0  0  0  0  0
   17.3079  -16.1499  -16.3898 N   0  0  0  0  0  0  0  0  0  0  0  0
   20.1140   -9.5097  -15.7010 C   0  0  0  0  0  0  0  0  0  0  0  0
   20.0175   -9.8245  -14.4664 O   0  0  0  0  0  0  0  0  0  0  0  0
   22.4709   -4.9959  -13.3926 N   0  0  0  0  0  0  0  0  0  0  0  0
   21.8244   -6.2377  -13.2393 C   0  0  0  0  0  0  0  0  0  0  0  0
   21.3228   -6.4946  -12.1130 O   0  0  0  0  0  0  0  0  0  0  0  0
   21.6780   -7.2734  -14.2806 C   0  0  0  0  0  0  0  0  0  0  0  0
   20.5050   -7.1017  -15.1831 C   0  0  2  0  0  0  0  0  0  0  0  0
   20.3065   -8.1685  -16.1129 N   0  0  0  0  0  0  0  0  0  0  0  0
   20.5991   -5.7702  -15.8614 C   0  0  0  0  0  0  0  0  0  0  0  0
   21.4883   -5.5375  -16.7164 O   0  0  0  0  0  0  0  0  0  0  0  0
   16.3746   -4.2192  -18.2055 C   0  0  0  0  0  0  0  0  0  0  0  0
   17.8328   -4.3709  -17.8196 C   0  0  0  0  0  0  0  0  0  0  0  0
   18.2543   -3.3283  -16.8233 C   0  0  2  0  0  0  0  0  0  0  0  0
   17.9494   -1.9315  -17.2818 C   0  0  0  0  0  0  0  0  0  0  0  0
   19.6709   -3.4707  -16.3389 C   0  0  2  0  0  0  0  0  0  0  0  0
   19.6875   -4.7249  -15.5621 N   0  0  0  0  0  0  0  0  0  0  0  0
   20.1613   -2.3514  -15.5333 C   0  0  0  0  0  0  0  0  0  0  0  0
   21.0650   -1.4028  -16.0351 O   0  0  0  0  0  0  0  0  0  0  0  0
   19.7998   -2.1775  -14.3461 O   0  0  0  0  0  0  0  0  0  0  0  0
  2  3  1  0
  2  1  1  1
  4  5  1  0
  4  3  1  0
  6  7  1  0
  6  5  1  0
  8  2  1  0
  9  8  2  0
 10 11  1  0
 11 13  1  0
 12 11  2  0
 14 13  1  6
 14 15  1  0
 15  8  1  0
 16 14  1  0
 16 17  2  0
 18 19  1  0
 19 20  1  0
 20 22  1  0
 20 21  1  6
 22 23  1  1
 23 16  1  0
 24 22  1  0
 25 24  1  0
 26 24  2  0
M  END
$$$$
