KNI.pdb
     RDKit          3D

 26 25  0  0  1  0  0  0  0  0999 V2000
   28.8622  -27.7942  -16.2252 N   0  0  0  0  0  0  0  0  0  0  0  0
   27.9699  -27.7752  -17.3440 C   0  0  1  0  0  0  0  0  0  0  0  0
   26.8056  -28.7097  -17.2120 C   0  0  0  0  0  0  0  0  0  0  0  0
   27.1355  -30.1531  -17.2612 C   0  0  0  0  0  0  0  0  0  0  0  0
   27.7753  -30.7408  -16.0493 C   0  0  0  0  0  0  0  0  0  0  0  0
   28.1474  -32.2106  -16.3338 C   0  0  0  0  0  0  0  0  0  0  0  0
   28.7207  -32.7269  -15.1061 N   0  0  0  0  0  0  0  0  0  0  0  0
   27.4671  -26.4028  -17.6368 C   0  0  0  0  0  0  0  0  0  0  0  0
   26.6756  -26.2211  -18.6234 O   0  0  0  0  0  0  0  0  0  0  0  0
   26.3141  -21.2678  -17.1400 N   0  0  0  0  0  0  0  0  0  0  0  0
   26.7834  -21.8206  -15.9326 C   0  0  0  0  0  0  0  0  0  0  0  0
   26.7216  -21.0989  -14.9024 O   0  0  0  0  0  0  0  0  0  0  0  0
   27.3446  -23.1746  -15.7593 C   0  0  0  0  0  0  0  0  0  0  0  0
   27.4227  -23.9911  -17.0031 C   0  0  2  0  0  0  0  0  0  0  0  0
   27.8814  -25.3306  -16.8096 N   0  0  0  0  0  0  0  0  0  0  0  0
   28.2372  -23.2558  -18.0218 C   0  0  0  0  0  0  0  0  0  0  0  0
   29.4911  -23.2420  -17.9648 O   0  0  0  0  0  0  0  0  0  0  0  0
   26.3752  -23.0834  -23.1305 C   0  0  0  0  0  0  0  0  0  0  0  0
   27.3597  -23.1545  -21.9800 C   0  0  0  0  0  0  0  0  0  0  0  0
   27.5556  -21.8124  -21.3337 C   0  0  2  0  0  0  0  0  0  0  0  0
   27.9887  -20.7567  -22.3095 C   0  0  0  0  0  0  0  0  0  0  0  0
   28.4197  -21.8372  -20.1031 C   0  0  2  0  0  0  0  0  0  0  0  0
   27.6213  -22.5491  -19.0869 N   0  0  0  0  0  0  0  0  0  0  0  0
   28.8324  -20.5208  -19.6143 C   0  0  0  0  0  0  0  0  0  0  0  0
   27.9971  -19.7157  -18.8255 O   0  0  0  0  0  0  0  0  0  0  0  0
   29.9593  -20.0379  -19.8741 O   0  0  0  0  0  0  0  0  0  0  0  0
  2  3  1  0
  2  1  1  1
  4  5  1  0
  4  3  1  0
  6  7  1  0
  6  5  1  0
  8  2  1  0
  9  8  2  0
 10 11  1  0
 11 13  1  0
 12 11  2  0
 14 13  1  1
 14 15  1  0
 15  8  1  0
 16 14  1  0
 16 17  2  0
 18 19  1  0
 19 20  1  0
 20 22  1  0
 20 21  1  6
 22 23  1  1
 23 16  1  0
 24 22  1  0
 25 24  1  0
 26 24  2  0
M  END
$$$$
