KNI.pdb
     RDKit          3D

 26 25  0  0  1  0  0  0  0  0999 V2000
   28.3790  -22.5123  -15.8096 N   0  0  0  0  0  0  0  0  0  0  0  0
   28.1892  -21.1914  -16.3271 C   0  0  1  0  0  0  0  0  0  0  0  0
   27.3353  -21.1349  -17.5575 C   0  0  0  0  0  0  0  0  0  0  0  0
   27.1133  -22.4301  -18.2418 C   0  0  0  0  0  0  0  0  0  0  0  0
   27.6924  -22.5796  -19.6077 C   0  0  0  0  0  0  0  0  0  0  0  0
   26.6791  -23.3120  -20.5113 C   0  0  0  0  0  0  0  0  0  0  0  0
   27.3605  -24.4912  -21.0089 N   0  0  0  0  0  0  0  0  0  0  0  0
   27.6350  -20.2619  -15.3019 C   0  0  0  0  0  0  0  0  0  0  0  0
   27.4972  -19.0237  -15.5859 O   0  0  0  0  0  0  0  0  0  0  0  0
   24.2406  -18.9070  -16.1504 N   0  0  0  0  0  0  0  0  0  0  0  0
   24.6989  -18.9568  -14.8196 C   0  0  0  0  0  0  0  0  0  0  0  0
   24.9725  -17.8622  -14.2598 O   0  0  0  0  0  0  0  0  0  0  0  0
   24.8901  -20.1782  -14.0135 C   0  0  0  0  0  0  0  0  0  0  0  0
   26.1820  -20.2530  -13.2750 C   0  0  2  0  0  0  0  0  0  0  0  0
   27.2733  -20.7780  -14.0337 N   0  0  0  0  0  0  0  0  0  0  0  0
   25.9720  -21.0001  -11.9945 C   0  0  0  0  0  0  0  0  0  0  0  0
   25.6748  -22.2197  -11.9945 O   0  0  0  0  0  0  0  0  0  0  0  0
   28.3372  -19.0513   -7.4837 C   0  0  0  0  0  0  0  0  0  0  0  0
   27.8000  -20.0215   -8.5172 C   0  0  0  0  0  0  0  0  0  0  0  0
   26.3148  -20.2062   -8.3856 C   0  0  2  0  0  0  0  0  0  0  0  0
   25.9090  -20.6878   -7.0225 C   0  0  0  0  0  0  0  0  0  0  0  0
   25.6916  -21.0216   -9.4848 C   0  0  2  0  0  0  0  0  0  0  0  0
   26.1014  -20.3566  -10.7365 N   0  0  0  0  0  0  0  0  0  0  0  0
   24.2349  -21.1429   -9.4111 C   0  0  0  0  0  0  0  0  0  0  0  0
   23.6013  -22.2124   -8.7608 O   0  0  0  0  0  0  0  0  0  0  0  0
   23.4697  -20.2948   -9.9265 O   0  0  0  0  0  0  0  0  0  0  0  0
  2  3  1  0
  2  1  1  1
  4  5  1  0
  4  3  1  0
  6  7  1  0
  6  5  1  0
  8  2  1  0
  9  8  2  0
 10 11  1  0
 11 13  1  0
 12 11  2  0
 14 13  1  6
 14 15  1  0
 15  8  1  0
 16 14  1  0
 16 17  2  0
 18 19  1  0
 19 20  1  0
 20 22  1  0
 20 21  1  1
 22 23  1  6
 23 16  1  0
 24 22  1  0
 25 24  1  0
 26 24  2  0
M  END
$$$$
