KNI.pdb
     RDKit          3D

 26 25  0  0  1  0  0  0  0  0999 V2000
   25.7430  -17.9403  -13.4487 N   0  0  0  0  0  0  0  0  0  0  0  0
   24.4009  -18.3885  -13.2333 C   0  0  1  0  0  0  0  0  0  0  0  0
   23.5971  -18.5343  -14.4898 C   0  0  0  0  0  0  0  0  0  0  0  0
   23.8631  -17.5236  -15.5399 C   0  0  0  0  0  0  0  0  0  0  0  0
   25.0344  -17.7672  -16.4298 C   0  0  0  0  0  0  0  0  0  0  0  0
   25.1212  -16.6367  -17.4757 C   0  0  0  0  0  0  0  0  0  0  0  0
   26.3588  -16.8511  -18.2002 N   0  0  0  0  0  0  0  0  0  0  0  0
   24.3528  -19.6672  -12.4686 C   0  0  0  0  0  0  0  0  0  0  0  0
   23.2263  -20.2344  -12.2638 O   0  0  0  0  0  0  0  0  0  0  0  0
   25.9705  -24.9028  -11.6920 N   0  0  0  0  0  0  0  0  0  0  0  0
   26.7130  -23.7643  -11.3232 C   0  0  0  0  0  0  0  0  0  0  0  0
   27.5199  -23.8848  -10.3637 O   0  0  0  0  0  0  0  0  0  0  0  0
   26.6345  -22.4346  -11.9587 C   0  0  0  0  0  0  0  0  0  0  0  0
   25.6236  -21.5112  -11.3712 C   0  0  2  0  0  0  0  0  0  0  0  0
   25.5630  -20.2231  -11.9870 N   0  0  0  0  0  0  0  0  0  0  0  0
   25.8423  -21.4217   -9.8927 C   0  0  0  0  0  0  0  0  0  0  0  0
   25.4022  -22.3041   -9.1158 O   0  0  0  0  0  0  0  0  0  0  0  0
   29.6826  -20.5834   -5.6106 C   0  0  0  0  0  0  0  0  0  0  0  0
   28.2285  -20.3336   -5.9588 C   0  0  0  0  0  0  0  0  0  0  0  0
   27.9899  -20.4204   -7.4397 C   0  0  2  0  0  0  0  0  0  0  0  0
   28.9969  -19.6415   -8.2357 C   0  0  0  0  0  0  0  0  0  0  0  0
   26.5777  -20.1179   -7.8588 C   0  0  2  0  0  0  0  0  0  0  0  0
   26.5541  -20.3373   -9.3176 N   0  0  0  0  0  0  0  0  0  0  0  0
   26.1122  -18.7707   -7.5262 C   0  0  0  0  0  0  0  0  0  0  0  0
   25.5389  -18.4584   -6.2844 O   0  0  0  0  0  0  0  0  0  0  0  0
   26.2002  -17.8177   -8.3352 O   0  0  0  0  0  0  0  0  0  0  0  0
  2  3  1  0
  2  1  1  6
  4  5  1  0
  4  3  1  0
  6  7  1  0
  6  5  1  0
  8  2  1  0
  9  8  2  0
 10 11  1  0
 11 13  1  0
 12 11  2  0
 14 13  1  6
 14 15  1  0
 15  8  1  0
 16 14  1  0
 16 17  2  0
 18 19  1  0
 19 20  1  0
 20 22  1  0
 20 21  1  6
 22 23  1  6
 23 16  1  0
 24 22  1  0
 25 24  1  0
 26 24  2  0
M  END
$$$$
