KNI.pdb
     RDKit          3D

 26 25  0  0  1  0  0  0  0  0999 V2000
   25.5651  -20.7839  -18.0163 N   0  0  0  0  0  0  0  0  0  0  0  0
   25.2356  -19.4086  -17.7957 C   0  0  1  0  0  0  0  0  0  0  0  0
   24.4582  -18.7805  -18.9125 C   0  0  0  0  0  0  0  0  0  0  0  0
   24.3710  -19.5778  -20.1582 C   0  0  0  0  0  0  0  0  0  0  0  0
   25.6546  -20.0706  -20.7353 C   0  0  0  0  0  0  0  0  0  0  0  0
   25.8323  -19.4854  -22.1515 C   0  0  0  0  0  0  0  0  0  0  0  0
   27.0726  -20.0355  -22.6629 N   0  0  0  0  0  0  0  0  0  0  0  0
   24.5031  -19.2064  -16.5133 C   0  0  0  0  0  0  0  0  0  0  0  0
   24.1057  -18.0344  -16.1951 O   0  0  0  0  0  0  0  0  0  0  0  0
   20.7131  -21.3245  -12.4326 N   0  0  0  0  0  0  0  0  0  0  0  0
   21.5001  -20.3644  -13.0977 C   0  0  0  0  0  0  0  0  0  0  0  0
   21.6402  -19.2435  -12.5406 O   0  0  0  0  0  0  0  0  0  0  0  0
   22.1808  -20.5485  -14.3942 C   0  0  0  0  0  0  0  0  0  0  0  0
   23.6309  -20.2065  -14.4017 C   0  0  2  0  0  0  0  0  0  0  0  0
   24.2650  -20.3242  -15.6769 N   0  0  0  0  0  0  0  0  0  0  0  0
   24.3289  -21.0076  -13.3467 C   0  0  0  0  0  0  0  0  0  0  0  0
   24.2650  -22.2613  -13.3338 O   0  0  0  0  0  0  0  0  0  0  0  0
   29.3410  -20.3544  -12.3682 C   0  0  0  0  0  0  0  0  0  0  0  0
   27.9296  -20.8980  -12.4713 C   0  0  0  0  0  0  0  0  0  0  0  0
   27.1516  -20.6647  -11.2074 C   0  0  2  0  0  0  0  0  0  0  0  0
   27.8790  -21.1395   -9.9828 C   0  0  0  0  0  0  0  0  0  0  0  0
   25.7323  -21.1600  -11.2528 C   0  0  2  0  0  0  0  0  0  0  0  0
   25.0865  -20.3789  -12.3251 N   0  0  0  0  0  0  0  0  0  0  0  0
   24.9945  -21.0296   -9.9955 C   0  0  0  0  0  0  0  0  0  0  0  0
   24.8239  -22.1035   -9.1089 O   0  0  0  0  0  0  0  0  0  0  0  0
   24.4722  -19.9475   -9.6396 O   0  0  0  0  0  0  0  0  0  0  0  0
  2  3  1  0
  2  1  1  6
  4  5  1  0
  4  3  1  0
  6  7  1  0
  6  5  1  0
  8  2  1  0
  9  8  2  0
 10 11  1  0
 11 13  1  0
 12 11  2  0
 14 13  1  6
 14 15  1  0
 15  8  1  0
 16 14  1  0
 16 17  2  0
 18 19  1  0
 19 20  1  0
 20 22  1  0
 20 21  1  1
 22 23  1  6
 23 16  1  0
 24 22  1  0
 25 24  1  0
 26 24  2  0
M  END
$$$$
