KNI.pdb
     RDKit          3D

 26 25  0  0  1  0  0  0  0  0999 V2000
   22.5210  -18.2629  -15.3089 N   0  0  0  0  0  0  0  0  0  0  0  0
   21.8689  -19.0335  -14.2943 C   0  0  1  0  0  0  0  0  0  0  0  0
   20.7348  -19.8728  -14.7997 C   0  0  0  0  0  0  0  0  0  0  0  0
   20.5218  -19.8441  -16.2656 C   0  0  0  0  0  0  0  0  0  0  0  0
   21.2522  -20.8624  -17.0737 C   0  0  0  0  0  0  0  0  0  0  0  0
   20.9029  -20.6735  -18.5643 C   0  0  0  0  0  0  0  0  0  0  0  0
   21.7146  -21.6285  -19.2934 N   0  0  0  0  0  0  0  0  0  0  0  0
   22.8248  -19.8989  -13.5464 C   0  0  0  0  0  0  0  0  0  0  0  0
   22.3901  -20.6508  -12.6091 O   0  0  0  0  0  0  0  0  0  0  0  0
   24.5963  -22.8179  -15.1794 N   0  0  0  0  0  0  0  0  0  0  0  0
   25.8812  -22.2552  -15.0534 C   0  0  0  0  0  0  0  0  0  0  0  0
   26.7902  -22.7149  -15.7942 O   0  0  0  0  0  0  0  0  0  0  0  0
   26.2660  -21.1706  -14.1294 C   0  0  0  0  0  0  0  0  0  0  0  0
   25.1745  -20.6776  -13.2431 C   0  0  2  0  0  0  0  0  0  0  0  0
   24.1967  -19.8656  -13.8961 N   0  0  0  0  0  0  0  0  0  0  0  0
   25.7784  -19.9921  -12.0568 C   0  0  0  0  0  0  0  0  0  0  0  0
   26.0668  -18.7707  -12.0888 O   0  0  0  0  0  0  0  0  0  0  0  0
   26.9129  -19.1813   -6.3264 C   0  0  0  0  0  0  0  0  0  0  0  0
   27.5853  -19.5267   -7.6405 C   0  0  0  0  0  0  0  0  0  0  0  0
   26.5963  -20.0268   -8.6549 C   0  0  2  0  0  0  0  0  0  0  0  0
   25.7429  -21.1452   -8.1301 C   0  0  0  0  0  0  0  0  0  0  0  0
   27.1942  -20.3500   -9.9964 C   0  0  2  0  0  0  0  0  0  0  0  0
   26.0461  -20.6979  -10.8554 N   0  0  0  0  0  0  0  0  0  0  0  0
   28.1835  -21.4286   -9.9857 C   0  0  0  0  0  0  0  0  0  0  0  0
   29.5094  -21.2288   -9.5732 O   0  0  0  0  0  0  0  0  0  0  0  0
   27.9000  -22.5951  -10.3456 O   0  0  0  0  0  0  0  0  0  0  0  0
  2  3  1  0
  2  1  1  6
  4  5  1  0
  4  3  1  0
  6  7  1  0
  6  5  1  0
  8  2  1  0
  9  8  2  0
 10 11  1  0
 11 13  1  0
 12 11  2  0
 14 13  1  6
 14 15  1  0
 15  8  1  0
 16 14  1  0
 16 17  2  0
 18 19  1  0
 19 20  1  0
 20 22  1  0
 20 21  1  1
 22 23  1  6
 23 16  1  0
 24 22  1  0
 25 24  1  0
 26 24  2  0
M  END
$$$$
