KNI.pdb
     RDKit          3D

 26 25  0  0  1  0  0  0  0  0999 V2000
   28.2651  -20.5652  -16.5460 N   0  0  0  0  0  0  0  0  0  0  0  0
   27.1531  -21.4419  -16.7544 C   0  0  1  0  0  0  0  0  0  0  0  0
   27.5269  -22.7771  -17.3234 C   0  0  0  0  0  0  0  0  0  0  0  0
   28.9655  -23.1234  -17.2499 C   0  0  0  0  0  0  0  0  0  0  0  0
   29.3290  -24.3317  -16.4553 C   0  0  0  0  0  0  0  0  0  0  0  0
   28.2020  -25.3779  -16.5778 C   0  0  0  0  0  0  0  0  0  0  0  0
   28.8369  -26.6737  -16.4357 N   0  0  0  0  0  0  0  0  0  0  0  0
   26.3575  -21.6438  -15.5101 C   0  0  0  0  0  0  0  0  0  0  0  0
   25.3795  -22.4661  -15.5165 O   0  0  0  0  0  0  0  0  0  0  0  0
   24.7198  -21.4287  -10.4961 N   0  0  0  0  0  0  0  0  0  0  0  0
   26.0394  -20.9546  -10.6286 C   0  0  0  0  0  0  0  0  0  0  0  0
   26.6810  -20.7234   -9.5698 O   0  0  0  0  0  0  0  0  0  0  0  0
   26.7463  -20.7015  -11.8992 C   0  0  0  0  0  0  0  0  0  0  0  0
   25.9655  -21.0103  -13.1300 C   0  0  2  0  0  0  0  0  0  0  0  0
   26.7083  -20.9158  -14.3471 N   0  0  0  0  0  0  0  0  0  0  0  0
   24.7314  -20.1628  -13.1531 C   0  0  0  0  0  0  0  0  0  0  0  0
   24.7966  -18.9249  -13.3509 O   0  0  0  0  0  0  0  0  0  0  0  0
   21.2728  -18.6033  -16.7396 C   0  0  0  0  0  0  0  0  0  0  0  0
   21.1740  -18.8118  -15.2413 C   0  0  0  0  0  0  0  0  0  0  0  0
   22.2747  -19.6978  -14.7307 C   0  0  2  0  0  0  0  0  0  0  0  0
   22.4256  -20.9568  -15.5349 C   0  0  0  0  0  0  0  0  0  0  0  0
   22.2153  -19.9713  -13.2532 C   0  0  2  0  0  0  0  0  0  0  0  0
   23.4456  -20.7281  -12.9524 N   0  0  0  0  0  0  0  0  0  0  0  0
   21.0294  -20.7060  -12.8104 C   0  0  0  0  0  0  0  0  0  0  0  0
   19.8658  -20.0591  -12.3679 O   0  0  0  0  0  0  0  0  0  0  0  0
   20.9873  -21.9585  -12.8020 O   0  0  0  0  0  0  0  0  0  0  0  0
  2  3  1  0
  2  1  1  1
  4  5  1  0
  4  3  1  0
  6  7  1  0
  6  5  1  0
  8  2  1  0
  9  8  2  0
 10 11  1  0
 11 13  1  0
 12 11  2  0
 14 13  1  1
 14 15  1  0
 15  8  1  0
 16 14  1  0
 16 17  2  0
 18 19  1  0
 19 20  1  0
 20 22  1  0
 20 21  1  6
 22 23  1  6
 23 16  1  0
 24 22  1  0
 25 24  1  0
 26 24  2  0
M  END
$$$$
