KNI.pdb
     RDKit          3D

 26 25  0  0  1  0  0  0  0  0999 V2000
   20.2847  -13.1756  -16.6665 N   0  0  0  0  0  0  0  0  0  0  0  0
   20.3238  -12.2095  -17.7218 C   0  0  1  0  0  0  0  0  0  0  0  0
   19.4615  -12.5554  -18.8979 C   0  0  0  0  0  0  0  0  0  0  0  0
   18.8220  -13.8909  -18.8512 C   0  0  0  0  0  0  0  0  0  0  0  0
   17.9622  -14.2683  -20.0096 C   0  0  0  0  0  0  0  0  0  0  0  0
   17.3767  -15.6752  -19.7701 C   0  0  0  0  0  0  0  0  0  0  0  0
   16.4704  -15.9285  -20.8732 N   0  0  0  0  0  0  0  0  0  0  0  0
   19.9752  -10.8416  -17.2429 C   0  0  0  0  0  0  0  0  0  0  0  0
   20.0748   -9.8513  -18.0442 O   0  0  0  0  0  0  0  0  0  0  0  0
   15.9048  -10.7533  -14.0823 N   0  0  0  0  0  0  0  0  0  0  0  0
   16.7796   -9.8972  -14.7790 C   0  0  0  0  0  0  0  0  0  0  0  0
   16.3970   -9.4635  -15.8978 O   0  0  0  0  0  0  0  0  0  0  0  0
   18.1113   -9.4573  -14.3191 C   0  0  0  0  0  0  0  0  0  0  0  0
   19.1596   -9.4027  -15.3764 C   0  0  2  0  0  0  0  0  0  0  0  0
   19.5398  -10.6744  -15.9057 N   0  0  0  0  0  0  0  0  0  0  0  0
   20.3344   -8.6297  -14.8623 C   0  0  0  0  0  0  0  0  0  0  0  0
   21.1386   -9.1375  -14.0430 O   0  0  0  0  0  0  0  0  0  0  0  0
   23.5335   -6.6844  -18.2203 C   0  0  0  0  0  0  0  0  0  0  0  0
   22.9409   -7.2060  -16.9261 C   0  0  0  0  0  0  0  0  0  0  0  0
   22.4652   -6.0874  -16.0432 C   0  0  2  0  0  0  0  0  0  0  0  0
   23.5432   -5.0856  -15.7452 C   0  0  0  0  0  0  0  0  0  0  0  0
   21.7510   -6.5401  -14.7996 C   0  0  2  0  0  0  0  0  0  0  0  0
   20.5802   -7.2970  -15.2824 N   0  0  0  0  0  0  0  0  0  0  0  0
   21.3402   -5.4621  -13.8989 C   0  0  0  0  0  0  0  0  0  0  0  0
   22.0509   -5.1458  -12.7313 O   0  0  0  0  0  0  0  0  0  0  0  0
   20.3270   -4.7590  -14.1213 O   0  0  0  0  0  0  0  0  0  0  0  0
  2  3  1  0
  2  1  1  1
  4  5  1  0
  4  3  1  0
  6  7  1  0
  6  5  1  0
  8  2  1  0
  9  8  2  0
 10 11  1  0
 11 13  1  0
 12 11  2  0
 14 13  1  1
 14 15  1  0
 15  8  1  0
 16 14  1  0
 16 17  2  0
 18 19  1  0
 19 20  1  0
 20 22  1  0
 20 21  1  1
 22 23  1  6
 23 16  1  0
 24 22  1  0
 25 24  1  0
 26 24  2  0
M  END
$$$$
