KNI.pdb
     RDKit          3D

 26 25  0  0  1  0  0  0  0  0999 V2000
   15.9072  -12.6265  -11.9987 N   0  0  0  0  0  0  0  0  0  0  0  0
   15.3071  -11.3497  -12.2397 C   0  0  1  0  0  0  0  0  0  0  0  0
   13.8833  -11.2485  -11.7828 C   0  0  0  0  0  0  0  0  0  0  0  0
   13.0486  -12.4492  -12.0206 C   0  0  0  0  0  0  0  0  0  0  0  0
   11.6360  -12.3938  -11.5462 C   0  0  0  0  0  0  0  0  0  0  0  0
   11.3390  -13.6416  -10.6892 C   0  0  0  0  0  0  0  0  0  0  0  0
   10.9878  -14.6964  -11.6201 N   0  0  0  0  0  0  0  0  0  0  0  0
   16.0959  -10.2371  -11.6381 C   0  0  0  0  0  0  0  0  0  0  0  0
   16.7039  -10.4257  -10.5302 O   0  0  0  0  0  0  0  0  0  0  0  0
   19.1673   -9.2115  -12.7607 N   0  0  0  0  0  0  0  0  0  0  0  0
   18.8654   -7.8818  -13.1133 C   0  0  0  0  0  0  0  0  0  0  0  0
   19.6665   -7.2909  -13.8849 O   0  0  0  0  0  0  0  0  0  0  0  0
   17.6915   -7.1100  -12.6611 C   0  0  0  0  0  0  0  0  0  0  0  0
   16.7704   -7.8384  -11.7441 C   0  0  2  0  0  0  0  0  0  0  0  0
   16.1520   -8.9938  -12.3139 N   0  0  0  0  0  0  0  0  0  0  0  0
   15.7672   -6.8749  -11.1900 C   0  0  0  0  0  0  0  0  0  0  0  0
   14.7148   -6.5999  -11.8167 O   0  0  0  0  0  0  0  0  0  0  0  0
   12.4499   -5.8572   -6.6162 C   0  0  0  0  0  0  0  0  0  0  0  0
   13.2519   -5.0656   -7.6303 C   0  0  0  0  0  0  0  0  0  0  0  0
   14.2851   -5.9195   -8.3090 C   0  0  2  0  0  0  0  0  0  0  0  0
   15.2165   -6.5848   -7.3373 C   0  0  0  0  0  0  0  0  0  0  0  0
   15.0238   -5.2307   -9.4232 C   0  0  2  0  0  0  0  0  0  0  0  0
   15.9701   -6.2389   -9.9381 N   0  0  0  0  0  0  0  0  0  0  0  0
   15.7260   -4.0076   -9.0322 C   0  0  0  0  0  0  0  0  0  0  0  0
   15.0746   -2.7703   -8.9181 O   0  0  0  0  0  0  0  0  0  0  0  0
   16.9528   -3.9974   -8.7767 O   0  0  0  0  0  0  0  0  0  0  0  0
  2  3  1  0
  2  1  1  1
  4  5  1  0
  4  3  1  0
  6  7  1  0
  6  5  1  0
  8  2  1  0
  9  8  2  0
 10 11  1  0
 11 13  1  0
 12 11  2  0
 14 13  1  6
 14 15  1  0
 15  8  1  0
 16 14  1  0
 16 17  2  0
 18 19  1  0
 19 20  1  0
 20 22  1  0
 20 21  1  1
 22 23  1  1
 23 16  1  0
 24 22  1  0
 25 24  1  0
 26 24  2  0
M  END
$$$$
