GRD.pdb
     RDKit          3D

 24 23  0  0  1  0  0  0  0  0999 V2000
   26.3955  -21.5849  -17.4086 N   0  0  0  0  0  0  0  0  0  0  0  0
   25.6129  -20.5474  -16.7609 C   0  0  0  0  0  0  0  0  0  0  0  0
   24.8390  -21.1065  -15.6234 C   0  0  0  0  0  0  0  0  0  0  0  0
   24.8591  -22.3300  -15.4330 O   0  0  0  0  0  0  0  0  0  0  0  0
   26.6357  -20.9962   -8.8962 N   0  0  0  0  0  0  0  0  0  0  0  0
   26.6009  -21.0022  -10.3209 C   0  0  0  0  0  0  0  0  0  0  0  0
   27.6710  -21.3665  -10.9472 N   0  0  0  0  0  0  0  0  0  0  0  0
   25.4168  -20.6153  -10.9958 N   0  0  0  0  0  0  0  0  0  0  0  0
   24.2153  -20.4310  -10.2141 C   0  0  0  0  0  0  0  0  0  0  0  0
   23.0096  -20.1717  -11.1492 C   0  0  0  0  0  0  0  0  0  0  0  0
   23.5888  -19.8009  -12.4591 C   0  0  0  0  0  0  0  0  0  0  0  0
   23.4561  -20.8099  -13.5681 C   0  0  2  0  0  0  0  0  0  0  0  0
   24.0984  -20.2581  -14.7791 N   0  0  0  0  0  0  0  0  0  0  0  0
   22.0635  -21.1092  -13.9659 C   0  0  0  0  0  0  0  0  0  0  0  0
   21.3702  -20.2767  -14.6567 O   0  0  0  0  0  0  0  0  0  0  0  0
   27.8049  -21.3364  -11.9655 N   0  0  0  0  0  0  0  0  0  0  0  0
   21.3812  -22.3144  -13.6334 C   0  0  2  0  0  0  0  0  0  0  0  0
   19.9733  -22.5104  -13.9300 C   0  0  0  0  0  0  0  0  0  0  0  0
   19.5608  -23.9485  -13.9976 C   0  0  0  0  0  0  0  0  0  0  0  0
   19.7224  -24.5278  -15.3486 O   0  0  0  0  0  0  0  0  0  0  0  0
   19.5799  -25.7611  -15.6145 C   0  0  0  0  0  0  0  0  0  0  0  0
   19.1035  -21.7474  -12.9686 O   0  0  0  0  0  0  0  0  0  0  0  0
   19.5396  -21.4404  -11.8438 O   0  0  0  0  0  0  0  0  0  0  0  0
   20.0496  -23.7181  -16.4257 O   0  0  0  0  0  0  0  0  0  0  0  0
  1  2  1  0
  2  3  1  0
  3  4  2  0
  3 13  1  0
  5  6  1  0
  6  8  1  0
  7  6  2  0
  9  8  1  0
  9 10  1  0
 10 11  1  0
 12 11  1  1
 12 14  1  0
 13 12  1  0
 14 15  2  0
 14 16  1  0
 16 17  1  0
 17 21  1  0
 17 18  1  6
 19 18  1  0
 19 23  1  0
 20 19  2  0
 21 22  2  0
 21 24  1  0
M  END
$$$$
