GRD.pdb
     RDKit          3D

 24 23  0  0  1  0  0  0  0  0999 V2000
   26.8472  -11.3064  -15.9035 N   0  0  0  0  0  0  0  0  0  0  0  0
   25.8258  -11.1765  -14.8797 C   0  0  0  0  0  0  0  0  0  0  0  0
   24.5999  -10.5508  -15.4374 C   0  0  0  0  0  0  0  0  0  0  0  0
   24.6959   -9.8609  -16.4614 O   0  0  0  0  0  0  0  0  0  0  0  0
   16.5595  -13.5069  -15.0732 N   0  0  0  0  0  0  0  0  0  0  0  0
   16.2631  -12.1807  -15.5023 C   0  0  0  0  0  0  0  0  0  0  0  0
   15.0331  -11.8996  -15.7819 N   0  0  0  0  0  0  0  0  0  0  0  0
   17.3061  -11.2275  -15.6082 N   0  0  0  0  0  0  0  0  0  0  0  0
   18.6477  -11.6438  -15.2686 C   0  0  0  0  0  0  0  0  0  0  0  0
   19.6464  -10.4964  -15.5536 C   0  0  0  0  0  0  0  0  0  0  0  0
   20.9763  -11.0143  -15.1636 C   0  0  0  0  0  0  0  0  0  0  0  0
   22.1485  -10.0923  -15.3678 C   0  0  2  0  0  0  0  0  0  0  0  0
   23.3538  -10.7412  -14.8113 N   0  0  0  0  0  0  0  0  0  0  0  0
   22.0426   -8.7954  -14.6649 C   0  0  0  0  0  0  0  0  0  0  0  0
   22.2913   -8.6918  -13.4087 O   0  0  0  0  0  0  0  0  0  0  0  0
   14.6769  -10.9694  -16.0341 N   0  0  0  0  0  0  0  0  0  0  0  0
   21.6692   -7.5748  -15.2966 C   0  0  2  0  0  0  0  0  0  0  0  0
   21.4576   -6.3507  -14.5447 C   0  0  0  0  0  0  0  0  0  0  0  0
   22.4345   -5.2625  -14.8675 C   0  0  0  0  0  0  0  0  0  0  0  0
   22.1683   -4.0139  -14.1211 O   0  0  0  0  0  0  0  0  0  0  0  0
   21.5503   -3.0154  -14.6041 C   0  0  0  0  0  0  0  0  0  0  0  0
   20.0423   -5.8614  -14.6889 O   0  0  0  0  0  0  0  0  0  0  0  0
   19.4881   -5.2722  -13.7427 O   0  0  0  0  0  0  0  0  0  0  0  0
   22.5991   -3.8733  -12.8107 O   0  0  0  0  0  0  0  0  0  0  0  0
  1  2  1  0
  2  3  1  0
  3  4  2  0
  3 13  1  0
  5  6  1  0
  6  8  1  0
  7  6  2  0
  9  8  1  0
  9 10  1  0
 10 11  1  0
 12 11  1  1
 12 14  1  0
 13 12  1  0
 14 15  2  0
 14 16  1  0
 16 17  1  0
 17 21  1  0
 17 18  1  6
 19 18  1  0
 19 23  1  0
 20 19  2  0
 21 22  2  0
 21 24  1  0
M  END
$$$$
