GRD.pdb
     RDKit          3D

 24 23  0  0  1  0  0  0  0  0999 V2000
   23.4613  -19.8139   -8.6707 N   0  0  0  0  0  0  0  0  0  0  0  0
   24.3914  -20.9091   -8.8802 C   0  0  0  0  0  0  0  0  0  0  0  0
   25.5419  -20.4696   -9.7100 C   0  0  0  0  0  0  0  0  0  0  0  0
   25.6451  -19.2695   -9.9979 O   0  0  0  0  0  0  0  0  0  0  0  0
   33.3609  -22.3179  -10.5657 N   0  0  0  0  0  0  0  0  0  0  0  0
   33.2039  -22.7697  -11.9082 C   0  0  0  0  0  0  0  0  0  0  0  0
   34.2680  -22.8856  -12.6323 N   0  0  0  0  0  0  0  0  0  0  0  0
   31.9101  -23.0721  -12.4003 N   0  0  0  0  0  0  0  0  0  0  0  0
   30.8044  -23.0515  -11.4698 C   0  0  0  0  0  0  0  0  0  0  0  0
   29.8834  -21.8441  -11.7683 C   0  0  0  0  0  0  0  0  0  0  0  0
   28.7595  -21.9492  -10.8119 C   0  0  0  0  0  0  0  0  0  0  0  0
   27.6502  -20.9422  -10.9575 C   0  0  2  0  0  0  0  0  0  0  0  0
   26.4956  -21.4026  -10.1584 N   0  0  0  0  0  0  0  0  0  0  0  0
   27.1354  -20.7869  -12.3352 C   0  0  0  0  0  0  0  0  0  0  0  0
   26.3456  -21.6554  -12.8573 O   0  0  0  0  0  0  0  0  0  0  0  0
   34.2956  -23.2295  -13.6002 N   0  0  0  0  0  0  0  0  0  0  0  0
   27.4547  -19.6905  -13.1863 C   0  0  2  0  0  0  0  0  0  0  0  0
   26.8575  -19.5355  -14.5008 C   0  0  0  0  0  0  0  0  0  0  0  0
   27.0719  -18.1844  -15.1103 C   0  0  0  0  0  0  0  0  0  0  0  0
   26.4655  -18.0591  -16.4533 O   0  0  0  0  0  0  0  0  0  0  0  0
   25.7919  -18.9759  -17.0170 C   0  0  0  0  0  0  0  0  0  0  0  0
   27.3100  -20.6238  -15.4356 O   0  0  0  0  0  0  0  0  0  0  0  0
   28.5075  -20.9625  -15.4632 O   0  0  0  0  0  0  0  0  0  0  0  0
   26.6122  -16.8899  -17.1840 O   0  0  0  0  0  0  0  0  0  0  0  0
  1  2  1  0
  2  3  1  0
  3  4  2  0
  3 13  1  0
  5  6  1  0
  6  8  1  0
  7  6  2  0
  9  8  1  0
  9 10  1  0
 10 11  1  0
 12 11  1  6
 12 14  1  0
 13 12  1  0
 14 15  2  0
 14 16  1  0
 16 17  1  0
 17 21  1  0
 17 18  1  6
 19 18  1  0
 19 23  1  0
 20 19  2  0
 21 22  2  0
 21 24  1  0
M  END
$$$$
