GRD.pdb
     RDKit          3D

 24 23  0  0  1  0  0  0  0  0999 V2000
   15.8547  -12.1348  -12.6771 N   0  0  0  0  0  0  0  0  0  0  0  0
   15.8819  -11.5730  -11.3384 C   0  0  0  0  0  0  0  0  0  0  0  0
   16.0621  -10.0998  -11.3908 C   0  0  0  0  0  0  0  0  0  0  0  0
   15.9380   -9.5225  -12.4794 O   0  0  0  0  0  0  0  0  0  0  0  0
   12.3783   -5.6898   -8.0340 N   0  0  0  0  0  0  0  0  0  0  0  0
   12.2443   -6.7341   -7.0736 C   0  0  0  0  0  0  0  0  0  0  0  0
   11.0563   -7.1838   -6.8357 N   0  0  0  0  0  0  0  0  0  0  0  0
   13.3956   -7.2385   -6.4197 N   0  0  0  0  0  0  0  0  0  0  0  0
   14.6864   -6.9828   -7.0173 C   0  0  0  0  0  0  0  0  0  0  0  0
   14.7815   -7.6849   -8.3932 C   0  0  0  0  0  0  0  0  0  0  0  0
   16.1217   -7.3510   -8.9235 C   0  0  0  0  0  0  0  0  0  0  0  0
   16.4701   -7.9036  -10.2796 C   0  0  2  0  0  0  0  0  0  0  0  0
   16.3676   -9.3766  -10.2226 N   0  0  0  0  0  0  0  0  0  0  0  0
   17.8534   -7.6246  -10.7223 C   0  0  0  0  0  0  0  0  0  0  0  0
   18.8562   -8.2557  -10.2252 O   0  0  0  0  0  0  0  0  0  0  0  0
   10.8272   -7.9493   -6.1897 N   0  0  0  0  0  0  0  0  0  0  0  0
   18.1936   -6.6611  -11.7144 C   0  0  1  0  0  0  0  0  0  0  0  0
   19.5242   -6.5847  -12.2908 C   0  0  0  0  0  0  0  0  0  0  0  0
   19.9418   -7.8230  -13.0222 C   0  0  0  0  0  0  0  0  0  0  0  0
   21.2449   -7.6730  -13.7050 O   0  0  0  0  0  0  0  0  0  0  0  0
   22.3666   -7.8873  -13.1501 C   0  0  0  0  0  0  0  0  0  0  0  0
   19.6689   -5.3699  -13.1662 O   0  0  0  0  0  0  0  0  0  0  0  0
   18.6562   -4.7636  -13.5619 O   0  0  0  0  0  0  0  0  0  0  0  0
   21.3009   -7.2759  -15.0323 O   0  0  0  0  0  0  0  0  0  0  0  0
  1  2  1  0
  2  3  1  0
  3  4  2  0
  3 13  1  0
  5  6  1  0
  6  8  1  0
  7  6  2  0
  9  8  1  0
  9 10  1  0
 10 11  1  0
 12 11  1  1
 12 14  1  0
 13 12  1  0
 14 15  2  0
 14 16  1  0
 16 17  1  0
 17 21  1  0
 17 18  1  1
 19 18  1  0
 19 23  1  0
 20 19  2  0
 21 22  2  0
 21 24  1  0
M  END
$$$$
