GRD.pdb
     RDKit          3D

 24 23  0  0  1  0  0  0  0  0999 V2000
   22.5331  -20.2057   -8.3341 N   0  0  0  0  0  0  0  0  0  0  0  0
   23.5515  -21.0213   -8.9714 C   0  0  0  0  0  0  0  0  0  0  0  0
   23.8776  -20.4945  -10.3210 C   0  0  0  0  0  0  0  0  0  0  0  0
   23.2495  -19.5157  -10.7465 O   0  0  0  0  0  0  0  0  0  0  0  0
   28.8021  -21.6675  -16.2202 N   0  0  0  0  0  0  0  0  0  0  0  0
   28.3498  -20.3948  -16.6747 C   0  0  0  0  0  0  0  0  0  0  0  0
   28.2033  -20.2280  -17.9478 N   0  0  0  0  0  0  0  0  0  0  0  0
   28.0797  -19.3692  -15.7353 N   0  0  0  0  0  0  0  0  0  0  0  0
   27.8656  -19.7461  -14.3566 C   0  0  0  0  0  0  0  0  0  0  0  0
   26.9028  -20.9554  -14.2816 C   0  0  0  0  0  0  0  0  0  0  0  0
   26.5495  -21.1004  -12.8522 C   0  0  0  0  0  0  0  0  0  0  0  0
   25.2220  -20.5358  -12.4223 C   0  0  2  0  0  0  0  0  0  0  0  0
   24.8833  -21.0986  -11.0987 N   0  0  0  0  0  0  0  0  0  0  0  0
   24.0869  -20.8918  -13.3009 C   0  0  0  0  0  0  0  0  0  0  0  0
   23.6096  -22.0844  -13.3289 O   0  0  0  0  0  0  0  0  0  0  0  0
   27.9532  -19.3440  -18.4081 N   0  0  0  0  0  0  0  0  0  0  0  0
   23.4332  -19.9725  -14.1704 C   0  0  2  0  0  0  0  0  0  0  0  0
   22.4155  -20.3957  -15.1157 C   0  0  0  0  0  0  0  0  0  0  0  0
   21.2623  -19.4473  -15.2324 C   0  0  0  0  0  0  0  0  0  0  0  0
   20.4543  -19.3730  -13.9961 O   0  0  0  0  0  0  0  0  0  0  0  0
   20.2989  -20.3414  -13.1897 C   0  0  0  0  0  0  0  0  0  0  0  0
   23.0129  -20.6827  -16.4661 O   0  0  0  0  0  0  0  0  0  0  0  0
   24.0987  -20.1664  -16.7888 O   0  0  0  0  0  0  0  0  0  0  0  0
   19.8055  -18.1974  -13.6504 O   0  0  0  0  0  0  0  0  0  0  0  0
  1  2  1  0
  2  3  1  0
  3  4  2  0
  3 13  1  0
  5  6  1  0
  6  8  1  0
  7  6  2  0
  9  8  1  0
  9 10  1  0
 10 11  1  0
 12 11  1  6
 12 14  1  0
 13 12  1  0
 14 15  2  0
 14 16  1  0
 16 17  1  0
 17 21  1  0
 17 18  1  1
 19 18  1  0
 19 23  1  0
 20 19  2  0
 21 22  2  0
 21 24  1  0
M  END
$$$$
