GRD.pdb
     RDKit          3D

 24 23  0  0  1  0  0  0  0  0999 V2000
   25.6175  -21.8433  -14.5271 N   0  0  0  0  0  0  0  0  0  0  0  0
   25.0025  -20.7492  -13.7969 C   0  0  0  0  0  0  0  0  0  0  0  0
   23.7036  -21.1715  -13.2138 C   0  0  0  0  0  0  0  0  0  0  0  0
   23.2842  -22.3114  -13.4556 O   0  0  0  0  0  0  0  0  0  0  0  0
   19.8344  -23.8650   -7.7216 N   0  0  0  0  0  0  0  0  0  0  0  0
   18.7152  -23.2639   -8.3672 C   0  0  0  0  0  0  0  0  0  0  0  0
   17.6198  -23.9465   -8.4317 N   0  0  0  0  0  0  0  0  0  0  0  0
   18.8343  -21.9604   -8.9096 N   0  0  0  0  0  0  0  0  0  0  0  0
   20.1154  -21.5585   -9.4443 C   0  0  0  0  0  0  0  0  0  0  0  0
   20.0236  -20.1239  -10.0175 C   0  0  0  0  0  0  0  0  0  0  0  0
   21.3240  -19.8696  -10.6758 C   0  0  0  0  0  0  0  0  0  0  0  0
   21.6420  -20.7005  -11.8900 C   0  0  2  0  0  0  0  0  0  0  0  0
   22.9662  -20.2899  -12.4014 N   0  0  0  0  0  0  0  0  0  0  0  0
   20.7106  -20.5168  -13.0240 C   0  0  0  0  0  0  0  0  0  0  0  0
   20.7294  -19.4506  -13.7407 O   0  0  0  0  0  0  0  0  0  0  0  0
   16.7604  -23.6504   -8.9110 N   0  0  0  0  0  0  0  0  0  0  0  0
   19.7363  -21.4777  -13.4187 C   0  0  2  0  0  0  0  0  0  0  0  0
   18.8157  -21.2365  -14.5154 C   0  0  0  0  0  0  0  0  0  0  0  0
   18.4413  -22.4703  -15.2773 C   0  0  0  0  0  0  0  0  0  0  0  0
   19.1677  -22.5944  -16.5594 O   0  0  0  0  0  0  0  0  0  0  0  0
   19.9437  -21.7040  -17.0254 C   0  0  0  0  0  0  0  0  0  0  0  0
   17.5891  -20.5036  -14.0449 O   0  0  0  0  0  0  0  0  0  0  0  0
   17.3696  -20.3758  -12.8263 O   0  0  0  0  0  0  0  0  0  0  0  0
   19.0272  -23.7323  -17.3392 O   0  0  0  0  0  0  0  0  0  0  0  0
  1  2  1  0
  2  3  1  0
  3  4  2  0
  3 13  1  0
  5  6  1  0
  6  8  1  0
  7  6  2  0
  9  8  1  0
  9 10  1  0
 10 11  1  0
 12 11  1  1
 12 14  1  0
 13 12  1  0
 14 15  2  0
 14 16  1  0
 16 17  1  0
 17 21  1  0
 17 18  1  1
 19 18  1  0
 19 23  1  0
 20 19  2  0
 21 22  2  0
 21 24  1  0
M  END
$$$$
