GRD.pdb
     RDKit          3D

 24 23  0  0  1  0  0  0  0  0999 V2000
   23.1279  -20.8395   -7.9244 N   0  0  0  0  0  0  0  0  0  0  0  0
   24.0943  -21.4151   -8.8428 C   0  0  0  0  0  0  0  0  0  0  0  0
   24.1314  -20.6487  -10.1142 C   0  0  0  0  0  0  0  0  0  0  0  0
   23.4907  -19.5917  -10.1920 O   0  0  0  0  0  0  0  0  0  0  0  0
   27.4786  -16.8862  -16.0725 N   0  0  0  0  0  0  0  0  0  0  0  0
   27.5860  -18.2872  -16.3106 C   0  0  0  0  0  0  0  0  0  0  0  0
   27.7031  -18.6820  -17.5355 N   0  0  0  0  0  0  0  0  0  0  0  0
   27.5610  -19.1889  -15.2180 N   0  0  0  0  0  0  0  0  0  0  0  0
   27.3929  -18.6459  -13.8892 C   0  0  0  0  0  0  0  0  0  0  0  0
   27.4371  -19.7848  -12.8422 C   0  0  0  0  0  0  0  0  0  0  0  0
   26.2686  -20.6444  -13.1332 C   0  0  0  0  0  0  0  0  0  0  0  0
   24.9819  -20.2976  -12.4333 C   0  0  2  0  0  0  0  0  0  0  0  0
   24.8825  -21.1179  -11.2082 N   0  0  0  0  0  0  0  0  0  0  0  0
   23.7583  -20.5999  -13.2069 C   0  0  0  0  0  0  0  0  0  0  0  0
   23.3139  -21.8006  -13.3158 O   0  0  0  0  0  0  0  0  0  0  0  0
   27.7399  -19.6611  -17.8451 N   0  0  0  0  0  0  0  0  0  0  0  0
   22.9785  -19.6171  -13.8812 C   0  0  2  0  0  0  0  0  0  0  0  0
   21.6556  -19.9082  -14.4041 C   0  0  0  0  0  0  0  0  0  0  0  0
   20.5661  -19.0792  -13.7970 C   0  0  0  0  0  0  0  0  0  0  0  0
   19.2323  -19.3876  -14.3565 O   0  0  0  0  0  0  0  0  0  0  0  0
   18.9861  -20.3910  -15.0945 C   0  0  0  0  0  0  0  0  0  0  0  0
   21.6304  -19.8113  -15.9051 O   0  0  0  0  0  0  0  0  0  0  0  0
   20.5866  -20.0783  -16.5286 O   0  0  0  0  0  0  0  0  0  0  0  0
   18.1506  -18.5621  -14.0896 O   0  0  0  0  0  0  0  0  0  0  0  0
  1  2  1  0
  2  3  1  0
  3  4  2  0
  3 13  1  0
  5  6  1  0
  6  8  1  0
  7  6  2  0
  9  8  1  0
  9 10  1  0
 10 11  1  0
 12 11  1  6
 12 14  1  0
 13 12  1  0
 14 15  2  0
 14 16  1  0
 16 17  1  0
 17 21  1  0
 17 18  1  6
 19 18  1  0
 19 23  1  0
 20 19  2  0
 21 22  2  0
 21 24  1  0
M  END
$$$$
