GRD.pdb
     RDKit          3D

 24 23  0  0  1  0  0  0  0  0999 V2000
   21.6775  -27.6403  -13.4023 N   0  0  0  0  0  0  0  0  0  0  0  0
   22.3023  -26.7632  -14.3764 C   0  0  0  0  0  0  0  0  0  0  0  0
   22.3841  -25.3746  -13.8563 C   0  0  0  0  0  0  0  0  0  0  0  0
   21.8573  -25.1145  -12.7661 O   0  0  0  0  0  0  0  0  0  0  0  0
   28.1943  -23.7793  -16.0645 N   0  0  0  0  0  0  0  0  0  0  0  0
   27.2885  -23.3909  -17.0939 C   0  0  0  0  0  0  0  0  0  0  0  0
   27.2563  -24.1076  -18.1688 N   0  0  0  0  0  0  0  0  0  0  0  0
   26.4658  -22.2518  -16.9122 N   0  0  0  0  0  0  0  0  0  0  0  0
   26.3957  -21.6644  -15.5936 C   0  0  0  0  0  0  0  0  0  0  0  0
   25.5980  -22.5895  -14.6434 C   0  0  0  0  0  0  0  0  0  0  0  0
   24.1734  -22.2498  -14.8533 C   0  0  0  0  0  0  0  0  0  0  0  0
   23.1676  -23.0125  -14.0333 C   0  0  2  0  0  0  0  0  0  0  0  0
   23.0496  -24.3757  -14.5914 N   0  0  0  0  0  0  0  0  0  0  0  0
   21.7975  -22.4568  -14.0652 C   0  0  0  0  0  0  0  0  0  0  0  0
   20.9798  -22.7437  -15.0139 O   0  0  0  0  0  0  0  0  0  0  0  0
   26.6484  -23.9385  -18.9799 N   0  0  0  0  0  0  0  0  0  0  0  0
   21.2699  -21.5800  -13.0746 C   0  0  1  0  0  0  0  0  0  0  0  0
   19.9485  -20.9896  -13.1923 C   0  0  0  0  0  0  0  0  0  0  0  0
   18.9564  -21.5178  -12.2026 C   0  0  0  0  0  0  0  0  0  0  0  0
   17.6025  -20.9539  -12.3919 O   0  0  0  0  0  0  0  0  0  0  0  0
   17.3036  -20.1112  -13.2934 C   0  0  0  0  0  0  0  0  0  0  0  0
   20.0164  -19.4879  -13.1347 O   0  0  0  0  0  0  0  0  0  0  0  0
   21.0739  -18.9253  -12.7959 O   0  0  0  0  0  0  0  0  0  0  0  0
   16.5601  -21.3352  -11.5609 O   0  0  0  0  0  0  0  0  0  0  0  0
  1  2  1  0
  2  3  1  0
  3  4  2  0
  3 13  1  0
  5  6  1  0
  6  8  1  0
  7  6  2  0
  9  8  1  0
  9 10  1  0
 10 11  1  0
 12 11  1  6
 12 14  1  0
 13 12  1  0
 14 15  2  0
 14 16  1  0
 16 17  1  0
 17 21  1  0
 17 18  1  6
 19 18  1  0
 19 23  1  0
 20 19  2  0
 21 22  2  0
 21 24  1  0
M  END
$$$$
