GRD.pdb
     RDKit          3D

 24 23  0  0  1  0  0  0  0  0999 V2000
   16.7618  -12.9162  -13.7010 N   0  0  0  0  0  0  0  0  0  0  0  0
   17.1499  -12.4842  -12.3702 C   0  0  0  0  0  0  0  0  0  0  0  0
   16.7821  -11.0621  -12.1517 C   0  0  0  0  0  0  0  0  0  0  0  0
   16.4300  -10.3813  -13.1244 O   0  0  0  0  0  0  0  0  0  0  0  0
   11.5986   -7.6934   -7.1104 N   0  0  0  0  0  0  0  0  0  0  0  0
   12.2191   -6.4830   -7.5355 C   0  0  0  0  0  0  0  0  0  0  0  0
   11.5110   -5.4023   -7.5085 N   0  0  0  0  0  0  0  0  0  0  0  0
   13.5684   -6.4999   -7.9676 N   0  0  0  0  0  0  0  0  0  0  0  0
   14.1300   -7.7589   -8.4013 C   0  0  0  0  0  0  0  0  0  0  0  0
   15.6157   -7.5697   -8.7913 C   0  0  0  0  0  0  0  0  0  0  0  0
   16.0987   -8.9080   -9.1970 C   0  0  0  0  0  0  0  0  0  0  0  0
   16.4184   -9.0990  -10.6555 C   0  0  2  0  0  0  0  0  0  0  0  0
   16.8334  -10.5022  -10.8613 N   0  0  0  0  0  0  0  0  0  0  0  0
   17.5459   -8.2808  -11.1519 C   0  0  0  0  0  0  0  0  0  0  0  0
   18.6788   -8.2633  -10.5461 O   0  0  0  0  0  0  0  0  0  0  0  0
   11.8528   -4.4601   -7.7350 N   0  0  0  0  0  0  0  0  0  0  0  0
   17.4846   -7.4620  -12.3157 C   0  0  1  0  0  0  0  0  0  0  0  0
   18.6374   -6.7242  -12.8008 C   0  0  0  0  0  0  0  0  0  0  0  0
   19.6647   -7.5781  -13.4778 C   0  0  0  0  0  0  0  0  0  0  0  0
   20.8229   -6.8005  -13.9682 O   0  0  0  0  0  0  0  0  0  0  0  0
   21.0339   -5.5820  -13.6804 C   0  0  0  0  0  0  0  0  0  0  0  0
   18.2191   -5.5833  -13.6877 O   0  0  0  0  0  0  0  0  0  0  0  0
   17.0323   -5.4778  -14.0479 O   0  0  0  0  0  0  0  0  0  0  0  0
   21.7655   -7.3907  -14.7964 O   0  0  0  0  0  0  0  0  0  0  0  0
  1  2  1  0
  2  3  1  0
  3  4  2  0
  3 13  1  0
  5  6  1  0
  6  8  1  0
  7  6  2  0
  9  8  1  0
  9 10  1  0
 10 11  1  0
 12 11  1  1
 12 14  1  0
 13 12  1  0
 14 15  2  0
 14 16  1  0
 16 17  1  0
 17 21  1  0
 17 18  1  6
 19 18  1  0
 19 23  1  0
 20 19  2  0
 21 22  2  0
 21 24  1  0
M  END
$$$$
