GRD.pdb
     RDKit          3D

 24 23  0  0  1  0  0  0  0  0999 V2000
   26.6987  -24.1288  -16.2342 N   0  0  0  0  0  0  0  0  0  0  0  0
   26.9293  -22.7973  -15.7029 C   0  0  0  0  0  0  0  0  0  0  0  0
   26.0685  -22.5481  -14.5187 C   0  0  0  0  0  0  0  0  0  0  0  0
   25.1364  -23.3292  -14.2845 O   0  0  0  0  0  0  0  0  0  0  0  0
   27.6072  -19.3570   -7.9551 N   0  0  0  0  0  0  0  0  0  0  0  0
   26.6274  -20.0828   -7.2173 C   0  0  0  0  0  0  0  0  0  0  0  0
   26.7367  -20.1027   -5.9298 N   0  0  0  0  0  0  0  0  0  0  0  0
   25.5825  -20.7489   -7.9042 N   0  0  0  0  0  0  0  0  0  0  0  0
   25.3169  -20.3711   -9.2737 C   0  0  0  0  0  0  0  0  0  0  0  0
   26.4210  -20.9324  -10.2016 C   0  0  0  0  0  0  0  0  0  0  0  0
   26.1676  -20.3393  -11.5331 C   0  0  0  0  0  0  0  0  0  0  0  0
   25.4246  -21.1940  -12.5246 C   0  0  2  0  0  0  0  0  0  0  0  0
   26.3112  -21.4440  -13.6801 N   0  0  0  0  0  0  0  0  0  0  0  0
   24.2108  -20.5673  -13.0913 C   0  0  0  0  0  0  0  0  0  0  0  0
   24.2844  -19.5506  -13.8735 O   0  0  0  0  0  0  0  0  0  0  0  0
   26.1009  -20.5886   -5.2852 N   0  0  0  0  0  0  0  0  0  0  0  0
   22.8855  -21.0207  -12.8336 C   0  0  1  0  0  0  0  0  0  0  0  0
   21.7522  -20.5812  -13.6280 C   0  0  0  0  0  0  0  0  0  0  0  0
   21.7688  -21.0813  -15.0395 C   0  0  0  0  0  0  0  0  0  0  0  0
   20.5850  -20.6503  -15.8139 O   0  0  0  0  0  0  0  0  0  0  0  0
   20.3625  -19.4498  -16.1624 C   0  0  0  0  0  0  0  0  0  0  0  0
   20.4509  -20.9207  -12.9537 O   0  0  0  0  0  0  0  0  0  0  0  0
   19.3965  -20.3721  -13.3238 O   0  0  0  0  0  0  0  0  0  0  0  0
   19.6290  -21.5740  -16.2082 O   0  0  0  0  0  0  0  0  0  0  0  0
  1  2  1  0
  2  3  1  0
  3  4  2  0
  3 13  1  0
  5  6  1  0
  6  8  1  0
  7  6  2  0
  9  8  1  0
  9 10  1  0
 10 11  1  0
 12 11  1  1
 12 14  1  0
 13 12  1  0
 14 15  2  0
 14 16  1  0
 16 17  1  0
 17 21  1  0
 17 18  1  1
 19 18  1  0
 19 23  1  0
 20 19  2  0
 21 22  2  0
 21 24  1  0
M  END
$$$$
