CAT.pdb
     RDKit          3D

 19 18  0  0  1  0  0  0  0  0999 V2000
   26.4148  -15.5220  -18.0740 N   0  0  0  0  0  0  0  0  0  0  0  0
   25.8555  -16.3162  -17.0294 C   0  0  1  0  0  0  0  0  0  0  0  0
   26.1362  -15.7305  -15.6564 C   0  0  0  0  0  0  0  0  0  0  0  0
   27.9036  -15.9112  -15.2791 S   0  0  0  0  0  0  0  0  0  0  0  0
   24.3722  -16.4496  -17.1335 C   0  0  0  0  0  0  0  0  0  0  0  0
   23.7445  -15.3585  -17.1582 O   0  0  0  0  0  0  0  0  0  0  0  0
   21.8790  -18.9557  -18.2353 C   0  0  0  0  0  0  0  0  0  0  0  0
   22.2934  -17.7700  -17.3642 C   0  0  2  0  0  0  0  0  0  0  0  0
   23.7086  -17.6981  -17.2001 N   0  0  0  0  0  0  0  0  0  0  0  0
   21.5638  -17.9235  -16.0847 C   0  0  0  0  0  0  0  0  0  0  0  0
   22.0059  -18.5566  -15.0992 O   0  0  0  0  0  0  0  0  0  0  0  0
   20.2198  -15.1582  -14.0082 C   0  0  0  0  0  0  0  0  0  0  0  0
   19.0354  -16.0082  -14.4219 C   0  0  1  0  0  0  0  0  0  0  0  0
   18.4379  -15.3874  -15.5019 O   0  0  0  0  0  0  0  0  0  0  0  0
   19.4727  -17.4180  -14.7762 C   0  0  2  0  0  0  0  0  0  0  0  0
   20.2875  -17.3159  -15.9710 N   0  0  0  0  0  0  0  0  0  0  0  0
   18.3157  -18.3032  -15.0330 C   0  0  0  0  0  0  0  0  0  0  0  0
   17.4514  -18.6139  -13.9954 O   0  0  0  0  0  0  0  0  0  0  0  0
   18.0699  -18.7946  -16.1519 O   0  0  0  0  0  0  0  0  0  0  0  0
  2  1  1  6
  2  3  1  0
  4  3  1  0
  5  2  1  0
  5  6  2  0
  8  7  1  6
  9  8  1  0
  9  5  1  0
 10  8  1  0
 11 10  2  0
 13 12  1  6
 13 15  1  0
 14 13  1  0
 15 16  1  6
 15 17  1  0
 16 10  1  0
 17 18  1  0
 19 17  2  0
M  END
$$$$
