CAT.pdb
     RDKit          3D

 19 18  0  0  1  0  0  0  0  0999 V2000
   16.5603  -11.5132  -16.0268 N   0  0  0  0  0  0  0  0  0  0  0  0
   17.6126  -11.4653  -15.0650 C   0  0  1  0  0  0  0  0  0  0  0  0
   18.9232  -11.9867  -15.6286 C   0  0  0  0  0  0  0  0  0  0  0  0
   18.8567  -13.7995  -15.7176 S   0  0  0  0  0  0  0  0  0  0  0  0
   17.8873  -10.0821  -14.5750 C   0  0  0  0  0  0  0  0  0  0  0  0
   18.0731   -9.2281  -15.4813 O   0  0  0  0  0  0  0  0  0  0  0  0
   17.6713   -8.1523  -11.3571 C   0  0  0  0  0  0  0  0  0  0  0  0
   18.1545   -8.3940  -12.7869 C   0  0  2  0  0  0  0  0  0  0  0  0
   17.9382   -9.7415  -13.2020 N   0  0  0  0  0  0  0  0  0  0  0  0
   19.5809   -7.9964  -12.8129 C   0  0  0  0  0  0  0  0  0  0  0  0
   20.4994   -8.6513  -12.2698 O   0  0  0  0  0  0  0  0  0  0  0  0
   21.7595   -8.1437  -15.3421 C   0  0  0  0  0  0  0  0  0  0  0  0
   21.6855   -6.6507  -15.0930 C   0  0  1  0  0  0  0  0  0  0  0  0
   20.7595   -6.1296  -15.9762 O   0  0  0  0  0  0  0  0  0  0  0  0
   21.2950   -6.3559  -13.6560 C   0  0  2  0  0  0  0  0  0  0  0  0
   19.9248   -6.8014  -13.4945 N   0  0  0  0  0  0  0  0  0  0  0  0
   21.3924   -4.9128  -13.3461 C   0  0  0  0  0  0  0  0  0  0  0  0
   22.6400   -4.3355  -13.1718 O   0  0  0  0  0  0  0  0  0  0  0  0
   20.3960   -4.1727  -13.2306 O   0  0  0  0  0  0  0  0  0  0  0  0
  2  1  1  6
  2  3  1  0
  4  3  1  0
  5  2  1  0
  5  6  2  0
  8  7  1  1
  9  8  1  0
  9  5  1  0
 10  8  1  0
 11 10  2  0
 13 12  1  1
 13 15  1  0
 14 13  1  0
 15 16  1  6
 15 17  1  0
 16 10  1  0
 17 18  1  0
 19 17  2  0
M  END
$$$$
