CAT.pdb
     RDKit          3D

 19 18  0  0  1  0  0  0  0  0999 V2000
   17.9227  -13.6343  -16.8405 N   0  0  0  0  0  0  0  0  0  0  0  0
   17.2050  -12.5060  -16.3440 C   0  0  1  0  0  0  0  0  0  0  0  0
   16.9578  -12.6017  -14.8484 C   0  0  0  0  0  0  0  0  0  0  0  0
   15.9704  -14.0856  -14.4992 S   0  0  0  0  0  0  0  0  0  0  0  0
   17.9238  -11.2170  -16.5688 C   0  0  0  0  0  0  0  0  0  0  0  0
   19.1727  -11.2762  -16.4208 O   0  0  0  0  0  0  0  0  0  0  0  0
   17.1408   -7.8339  -18.0314 C   0  0  0  0  0  0  0  0  0  0  0  0
   18.0084   -8.8539  -17.2944 C   0  0  2  0  0  0  0  0  0  0  0  0
   17.2667  -10.0139  -16.9214 N   0  0  0  0  0  0  0  0  0  0  0  0
   18.5942   -8.1379  -16.1379 C   0  0  0  0  0  0  0  0  0  0  0  0
   18.0210   -8.0080  -15.0325 O   0  0  0  0  0  0  0  0  0  0  0  0
   21.7762   -9.0104  -14.6075 C   0  0  0  0  0  0  0  0  0  0  0  0
   21.9319   -7.5788  -15.0794 C   0  0  1  0  0  0  0  0  0  0  0  0
   22.5937   -7.6127  -16.2918 O   0  0  0  0  0  0  0  0  0  0  0  0
   20.5816   -6.8985  -15.2137 C   0  0  2  0  0  0  0  0  0  0  0  0
   19.8822   -7.5657  -16.2943 N   0  0  0  0  0  0  0  0  0  0  0  0
   20.7210   -5.4583  -15.5210 C   0  0  0  0  0  0  0  0  0  0  0  0
   21.2438   -4.6042  -14.5631 O   0  0  0  0  0  0  0  0  0  0  0  0
   20.3882   -4.9602  -16.6142 O   0  0  0  0  0  0  0  0  0  0  0  0
  2  1  1  1
  2  3  1  0
  4  3  1  0
  5  2  1  0
  5  6  2  0
  8  7  1  1
  9  8  1  0
  9  5  1  0
 10  8  1  0
 11 10  2  0
 13 12  1  6
 13 15  1  0
 14 13  1  0
 15 16  1  6
 15 17  1  0
 16 10  1  0
 17 18  1  0
 19 17  2  0
M  END
$$$$
