CAT.pdb
     RDKit          3D

 19 18  0  0  1  0  0  0  0  0999 V2000
   19.1643  -12.7271  -17.1610 N   0  0  0  0  0  0  0  0  0  0  0  0
   20.2166  -11.8653  -17.5907 C   0  0  1  0  0  0  0  0  0  0  0  0
   19.8218  -11.0483  -18.8088 C   0  0  0  0  0  0  0  0  0  0  0  0
   19.6758  -12.1494  -20.2458 S   0  0  0  0  0  0  0  0  0  0  0  0
   20.6270  -10.8846  -16.5427 C   0  0  0  0  0  0  0  0  0  0  0  0
   19.6808  -10.2264  -16.0360 O   0  0  0  0  0  0  0  0  0  0  0  0
   23.7314   -9.9318  -14.6177 C   0  0  0  0  0  0  0  0  0  0  0  0
   22.3126   -9.7291  -15.1491 C   0  0  2  0  0  0  0  0  0  0  0  0
   21.9708  -10.6976  -16.1392 N   0  0  0  0  0  0  0  0  0  0  0  0
   22.2547   -8.3365  -15.6496 C   0  0  0  0  0  0  0  0  0  0  0  0
   22.6577   -7.9826  -16.7808 O   0  0  0  0  0  0  0  0  0  0  0  0
   19.7720   -6.3711  -16.7265 C   0  0  0  0  0  0  0  0  0  0  0  0
   20.2195   -5.6207  -15.4883 C   0  0  1  0  0  0  0  0  0  0  0  0
   19.3748   -5.9836  -14.4569 O   0  0  0  0  0  0  0  0  0  0  0  0
   21.6640   -5.9405  -15.1486 C   0  0  2  0  0  0  0  0  0  0  0  0
   21.7096   -7.3456  -14.7940 N   0  0  0  0  0  0  0  0  0  0  0  0
   22.1561   -5.1224  -14.0187 C   0  0  0  0  0  0  0  0  0  0  0  0
   22.3689   -3.7654  -14.2013 O   0  0  0  0  0  0  0  0  0  0  0  0
   22.3945   -5.5943  -12.8898 O   0  0  0  0  0  0  0  0  0  0  0  0
  2  1  1  1
  2  3  1  0
  4  3  1  0
  5  2  1  0
  5  6  2  0
  8  7  1  6
  9  8  1  0
  9  5  1  0
 10  8  1  0
 11 10  2  0
 13 12  1  6
 13 15  1  0
 14 13  1  0
 15 16  1  1
 15 17  1  0
 16 10  1  0
 17 18  1  0
 19 17  2  0
M  END
$$$$
