CAT.pdb
     RDKit          3D

 19 18  0  0  1  0  0  0  0  0999 V2000
   14.0351  -10.4580  -10.6901 N   0  0  0  0  0  0  0  0  0  0  0  0
   15.3378  -10.2746  -10.1387 C   0  0  1  0  0  0  0  0  0  0  0  0
   16.2714  -11.4199  -10.4907 C   0  0  0  0  0  0  0  0  0  0  0  0
   15.7535  -12.9112   -9.5925 S   0  0  0  0  0  0  0  0  0  0  0  0
   16.0018   -9.0281  -10.6227 C   0  0  0  0  0  0  0  0  0  0  0  0
   16.0210   -8.8920  -11.8742 O   0  0  0  0  0  0  0  0  0  0  0  0
   17.3250   -5.7976   -9.2170 C   0  0  0  0  0  0  0  0  0  0  0  0
   17.2115   -6.8997  -10.2700 C   0  0  2  0  0  0  0  0  0  0  0  0
   16.5701   -8.0651   -9.7549 N   0  0  0  0  0  0  0  0  0  0  0  0
   18.5891   -7.1547  -10.7501 C   0  0  0  0  0  0  0  0  0  0  0  0
   19.3997   -7.9170  -10.1763 O   0  0  0  0  0  0  0  0  0  0  0  0
   21.4162   -7.4529  -14.6363 C   0  0  0  0  0  0  0  0  0  0  0  0
   20.0997   -7.2428  -13.9158 C   0  0  1  0  0  0  0  0  0  0  0  0
   19.4510   -8.4620  -13.8758 O   0  0  0  0  0  0  0  0  0  0  0  0
   20.3241   -6.6979  -12.5168 C   0  0  2  0  0  0  0  0  0  0  0  0
   19.0134   -6.4947  -11.9313 N   0  0  0  0  0  0  0  0  0  0  0  0
   21.0668   -5.4189  -12.5387 C   0  0  0  0  0  0  0  0  0  0  0  0
   22.4330   -5.4196  -12.3067 O   0  0  0  0  0  0  0  0  0  0  0  0
   20.5222   -4.3192  -12.7584 O   0  0  0  0  0  0  0  0  0  0  0  0
  2  1  1  6
  2  3  1  0
  4  3  1  0
  5  2  1  0
  5  6  2  0
  8  7  1  1
  9  8  1  0
  9  5  1  0
 10  8  1  0
 11 10  2  0
 13 12  1  1
 13 15  1  0
 14 13  1  0
 15 16  1  6
 15 17  1  0
 16 10  1  0
 17 18  1  0
 19 17  2  0
M  END
$$$$
