CAT.pdb
     RDKit          3D

 19 18  0  0  1  0  0  0  0  0999 V2000
   23.4277  -12.8121  -18.0969 N   0  0  0  0  0  0  0  0  0  0  0  0
   23.3687  -12.2412  -16.7910 C   0  0  1  0  0  0  0  0  0  0  0  0
   24.7496  -12.0677  -16.1826 C   0  0  0  0  0  0  0  0  0  0  0  0
   25.4348  -13.7007  -15.7793 S   0  0  0  0  0  0  0  0  0  0  0  0
   22.7314  -10.8912  -16.7768 C   0  0  0  0  0  0  0  0  0  0  0  0
   23.2547  -10.0521  -17.5561 O   0  0  0  0  0  0  0  0  0  0  0  0
   19.6204   -9.2479  -15.4570 C   0  0  0  0  0  0  0  0  0  0  0  0
   21.0589   -9.2553  -15.9739 C   0  0  2  0  0  0  0  0  0  0  0  0
   21.6247  -10.5647  -15.9570 N   0  0  0  0  0  0  0  0  0  0  0  0
   21.8029   -8.2864  -15.1367 C   0  0  0  0  0  0  0  0  0  0  0  0
   22.3887   -8.5874  -14.0720 O   0  0  0  0  0  0  0  0  0  0  0  0
   22.1879   -4.3839  -16.7989 C   0  0  0  0  0  0  0  0  0  0  0  0
   23.2399   -5.0311  -15.9208 C   0  0  1  0  0  0  0  0  0  0  0  0
   23.9762   -4.0160  -15.3410 O   0  0  0  0  0  0  0  0  0  0  0  0
   22.6010   -5.9138  -14.8640 C   0  0  2  0  0  0  0  0  0  0  0  0
   21.8534   -6.9368  -15.5689 N   0  0  0  0  0  0  0  0  0  0  0  0
   21.6927   -5.1464  -13.9841 C   0  0  0  0  0  0  0  0  0  0  0  0
   22.2262   -4.2960  -13.0289 O   0  0  0  0  0  0  0  0  0  0  0  0
   20.4505   -5.2234  -14.0549 O   0  0  0  0  0  0  0  0  0  0  0  0
  2  1  1  6
  2  3  1  0
  4  3  1  0
  5  2  1  0
  5  6  2  0
  8  7  1  1
  9  8  1  0
  9  5  1  0
 10  8  1  0
 11 10  2  0
 13 12  1  1
 13 15  1  0
 14 13  1  0
 15 16  1  6
 15 17  1  0
 16 10  1  0
 17 18  1  0
 19 17  2  0
M  END
$$$$
