CAT.pdb
     RDKit          3D

 19 18  0  0  1  0  0  0  0  0999 V2000
   15.2828   -9.2138   -9.6982 N   0  0  0  0  0  0  0  0  0  0  0  0
   15.3226   -7.8091   -9.9432 C   0  0  1  0  0  0  0  0  0  0  0  0
   15.7417   -7.0278   -8.7099 C   0  0  0  0  0  0  0  0  0  0  0  0
   14.4043   -7.0854   -7.4824 S   0  0  0  0  0  0  0  0  0  0  0  0
   16.2839   -7.4360  -11.0229 C   0  0  0  0  0  0  0  0  0  0  0  0
   17.2893   -8.1879  -11.1175 O   0  0  0  0  0  0  0  0  0  0  0  0
   16.3582   -5.1460  -14.0112 C   0  0  0  0  0  0  0  0  0  0  0  0
   16.9766   -6.0844  -12.9751 C   0  0  2  0  0  0  0  0  0  0  0  0
   16.0937   -6.3267  -11.8812 N   0  0  0  0  0  0  0  0  0  0  0  0
   18.2563   -5.4612  -12.5661 C   0  0  0  0  0  0  0  0  0  0  0  0
   18.3754   -4.6826  -11.5931 O   0  0  0  0  0  0  0  0  0  0  0  0
   21.3116   -7.6127  -12.1715 C   0  0  0  0  0  0  0  0  0  0  0  0
   21.6769   -6.4891  -13.1206 C   0  0  1  0  0  0  0  0  0  0  0  0
   21.6132   -6.9953  -14.4046 O   0  0  0  0  0  0  0  0  0  0  0  0
   20.7396   -5.3069  -12.9531 C   0  0  2  0  0  0  0  0  0  0  0  0
   19.4155   -5.7663  -13.3239 N   0  0  0  0  0  0  0  0  0  0  0  0
   21.1335   -4.1685  -13.8115 C   0  0  0  0  0  0  0  0  0  0  0  0
   22.2705   -3.4405  -13.4993 O   0  0  0  0  0  0  0  0  0  0  0  0
   20.4877   -3.8205  -14.8194 O   0  0  0  0  0  0  0  0  0  0  0  0
  2  1  1  1
  2  3  1  0
  4  3  1  0
  5  2  1  0
  5  6  2  0
  8  7  1  6
  9  8  1  0
  9  5  1  0
 10  8  1  0
 11 10  2  0
 13 12  1  1
 13 15  1  0
 14 13  1  0
 15 16  1  6
 15 17  1  0
 16 10  1  0
 17 18  1  0
 19 17  2  0
M  END
$$$$
