CAT.pdb
     RDKit          3D

 19 18  0  0  1  0  0  0  0  0999 V2000
   19.4602  -12.3564  -15.7893 N   0  0  0  0  0  0  0  0  0  0  0  0
   19.8080  -11.4078  -16.7962 C   0  0  1  0  0  0  0  0  0  0  0  0
   18.5819  -10.7614  -17.4173 C   0  0  0  0  0  0  0  0  0  0  0  0
   17.6944  -11.9950  -18.4119 S   0  0  0  0  0  0  0  0  0  0  0  0
   20.6519  -10.2921  -16.2748 C   0  0  0  0  0  0  0  0  0  0  0  0
   20.2496   -9.7864  -15.1942 O   0  0  0  0  0  0  0  0  0  0  0  0
   24.0656   -8.8576  -16.9409 C   0  0  0  0  0  0  0  0  0  0  0  0
   22.6680   -8.8599  -16.3218 C   0  0  2  0  0  0  0  0  0  0  0  0
   21.8163   -9.8278  -16.9322 N   0  0  0  0  0  0  0  0  0  0  0  0
   22.1602   -7.4742  -16.4448 C   0  0  0  0  0  0  0  0  0  0  0  0
   21.6887   -6.9934  -17.5002 O   0  0  0  0  0  0  0  0  0  0  0  0
   19.4633   -5.9878  -14.6527 C   0  0  0  0  0  0  0  0  0  0  0  0
   20.6666   -5.1524  -14.2646 C   0  0  1  0  0  0  0  0  0  0  0  0
   21.1011   -5.6008  -13.0321 O   0  0  0  0  0  0  0  0  0  0  0  0
   21.7667   -5.2639  -15.3046 C   0  0  2  0  0  0  0  0  0  0  0  0
   22.2122   -6.6436  -15.2967 N   0  0  0  0  0  0  0  0  0  0  0  0
   22.9037   -4.3685  -14.9987 C   0  0  0  0  0  0  0  0  0  0  0  0
   22.7282   -2.9957  -15.0676 O   0  0  0  0  0  0  0  0  0  0  0  0
   24.0325   -4.7877  -14.6763 O   0  0  0  0  0  0  0  0  0  0  0  0
  2  1  1  1
  2  3  1  0
  4  3  1  0
  5  2  1  0
  5  6  2  0
  8  7  1  6
  9  8  1  0
  9  5  1  0
 10  8  1  0
 11 10  2  0
 13 12  1  6
 13 15  1  0
 14 13  1  0
 15 16  1  1
 15 17  1  0
 16 10  1  0
 17 18  1  0
 19 17  2  0
M  END
$$$$
