CAT.pdb
     RDKit          3D

 19 18  0  0  1  0  0  0  0  0999 V2000
   23.6569  -13.2029  -17.9539 N   0  0  0  0  0  0  0  0  0  0  0  0
   23.4280  -12.5421  -16.7107 C   0  0  1  0  0  0  0  0  0  0  0  0
   24.7164  -12.3235  -15.9365 C   0  0  0  0  0  0  0  0  0  0  0  0
   25.3592  -13.9285  -15.3800 S   0  0  0  0  0  0  0  0  0  0  0  0
   22.8044  -11.1958  -16.8761 C   0  0  0  0  0  0  0  0  0  0  0  0
   23.4109  -10.4265  -17.6670 O   0  0  0  0  0  0  0  0  0  0  0  0
   19.5757   -9.4658  -16.0407 C   0  0  0  0  0  0  0  0  0  0  0  0
   21.0582   -9.5069  -16.4104 C   0  0  2  0  0  0  0  0  0  0  0  0
   21.6236  -10.8001  -16.2032 N   0  0  0  0  0  0  0  0  0  0  0  0
   21.7127   -8.4477  -15.6085 C   0  0  0  0  0  0  0  0  0  0  0  0
   22.2681   -8.6488  -14.5047 O   0  0  0  0  0  0  0  0  0  0  0  0
   23.2641   -3.7308  -15.8820 C   0  0  0  0  0  0  0  0  0  0  0  0
   22.6222   -4.9578  -16.4976 C   0  0  1  0  0  0  0  0  0  0  0  0
   23.4841   -5.4328  -17.4674 O   0  0  0  0  0  0  0  0  0  0  0  0
   22.3483   -6.0167  -15.4450 C   0  0  2  0  0  0  0  0  0  0  0  0
   21.7087   -7.1266  -16.1240 N   0  0  0  0  0  0  0  0  0  0  0  0
   21.4646   -5.5090  -14.3730 C   0  0  0  0  0  0  0  0  0  0  0  0
   20.1036   -5.3955  -14.6078 O   0  0  0  0  0  0  0  0  0  0  0  0
   21.8835   -5.1710  -13.2486 O   0  0  0  0  0  0  0  0  0  0  0  0
  2  1  1  6
  2  3  1  0
  4  3  1  0
  5  2  1  0
  5  6  2  0
  8  7  1  1
  9  8  1  0
  9  5  1  0
 10  8  1  0
 11 10  2  0
 13 12  1  1
 13 15  1  0
 14 13  1  0
 15 16  1  6
 15 17  1  0
 16 10  1  0
 17 18  1  0
 19 17  2  0
M  END
$$$$
