FQF.pdb
     RDKit          3D

 32 33  0  0  1  0  0  0  0  0999 V2000
    6.2423  -18.0922   20.8007 N   0  0  0  0  0  0  0  0  0  0  0  0
    7.0342  -16.9569   21.1454 C   0  0  1  0  0  0  0  0  0  0  0  0
    6.1887  -15.8384   21.7105 C   0  0  0  0  0  0  0  0  0  0  0  0
    6.8482  -14.5217   21.6073 C   0  0  0  0  0  0  0  0  0  0  0  0
    7.1414  -13.8408   22.7583 C   0  0  0  0  0  0  0  0  0  0  0  0
    7.7564  -12.6054   22.7570 C   0  0  0  0  0  0  0  0  0  0  0  0
    8.0924  -12.0277   21.5388 C   0  0  0  0  0  0  0  0  0  0  0  0
    7.7962  -12.7147   20.3885 C   0  0  0  0  0  0  0  0  0  0  0  0
    7.1795  -13.9529   20.3957 C   0  0  0  0  0  0  0  0  0  0  0  0
    8.1261  -17.2422   22.0967 C   0  0  0  0  0  0  0  0  0  0  0  0
    7.8557  -17.9481   23.0962 O   0  0  0  0  0  0  0  0  0  0  0  0
   12.7665  -19.6249   21.9055 N   0  0  0  0  0  0  0  0  0  0  0  0
   13.4611  -18.7832   22.8079 C   0  0  0  0  0  0  0  0  0  0  0  0
   14.4230  -19.2633   23.4388 O   0  0  0  0  0  0  0  0  0  0  0  0
   13.0378  -17.3909   22.9763 C   0  0  0  0  0  0  0  0  0  0  0  0
   11.8781  -16.9600   22.1317 C   0  0  0  0  0  0  0  0  0  0  0  0
   10.5734  -17.1916   22.7818 C   0  0  2  0  0  0  0  0  0  0  0  0
    9.4468  -16.7752   21.9556 N   0  0  0  0  0  0  0  0  0  0  0  0
   10.4988  -16.3811   24.0148 C   0  0  0  0  0  0  0  0  0  0  0  0
   10.9888  -15.2380   24.0381 O   0  0  0  0  0  0  0  0  0  0  0  0
    9.8835  -16.8688   25.1756 N   0  0  0  0  0  0  0  0  0  0  0  0
   10.0907  -16.2681   26.4992 C   0  0  1  0  0  0  0  0  0  0  0  0
    8.7239  -15.9097   27.0465 C   0  0  0  0  0  0  0  0  0  0  0  0
    8.1792  -14.6557   26.4725 C   0  0  0  0  0  0  0  0  0  0  0  0
    8.8277  -13.4480   26.7211 C   0  0  0  0  0  0  0  0  0  0  0  0
    8.3647  -12.2580   26.2077 C   0  0  0  0  0  0  0  0  0  0  0  0
    7.2331  -12.2122   25.4215 C   0  0  0  0  0  0  0  0  0  0  0  0
    6.5814  -13.3978   25.1671 C   0  0  0  0  0  0  0  0  0  0  0  0
    7.0489  -14.5952   25.6847 C   0  0  0  0  0  0  0  0  0  0  0  0
   10.8542  -17.1504   27.3797 C   0  0  0  0  0  0  0  0  0  0  0  0
   11.0652  -18.3308   27.0146 O   0  0  0  0  0  0  0  0  0  0  0  0
   11.3485  -16.7301   28.5927 O   0  0  0  0  0  0  0  0  0  0  0  0
  2  1  1  1
  2  3  1  0
  4  3  1  0
  4  5  2  0
  6  5  1  0
  7  6  2  0
  8  9  2  0
  8  7  1  0
  9  4  1  0
 10  2  1  0
 10 11  2  0
 13 12  1  0
 13 14  2  0
 15 16  1  0
 15 13  1  0
 17 18  1  0
 17 16  1  6
 18 10  1  0
 19 17  1  0
 20 19  2  0
 21 19  1  0
 22 21  1  0
 23 24  1  0
 22 23  1  1
 24 29  2  0
 25 26  2  0
 25 24  1  0
 26 27  1  0
 27 28  2  0
 29 28  1  0
 30 22  1  0
 30 32  1  0
 31 30  2  0
M  END
$$$$
