FQF.pdb
     RDKit          3D

 32 33  0  0  1  0  0  0  0  0999 V2000
    6.5729  -17.9298   20.0690 N   0  0  0  0  0  0  0  0  0  0  0  0
    7.1851  -16.9101   20.8564 C   0  0  1  0  0  0  0  0  0  0  0  0
    6.2599  -15.7319   21.0597 C   0  0  0  0  0  0  0  0  0  0  0  0
    6.9868  -14.4508   21.1576 C   0  0  0  0  0  0  0  0  0  0  0  0
    7.4120  -13.8460   20.0052 C   0  0  0  0  0  0  0  0  0  0  0  0
    8.0980  -12.6486   20.0016 C   0  0  0  0  0  0  0  0  0  0  0  0
    8.3689  -12.0302   21.2161 C   0  0  0  0  0  0  0  0  0  0  0  0
    7.9403  -12.6409   22.3678 C   0  0  0  0  0  0  0  0  0  0  0  0
    7.2531  -13.8414   22.3655 C   0  0  0  0  0  0  0  0  0  0  0  0
    7.6596  -17.3638   22.1784 C   0  0  0  0  0  0  0  0  0  0  0  0
    6.8884  -18.0814   22.8571 O   0  0  0  0  0  0  0  0  0  0  0  0
   12.8886  -20.0638   24.3922 N   0  0  0  0  0  0  0  0  0  0  0  0
   11.6557  -20.7347   24.2050 C   0  0  0  0  0  0  0  0  0  0  0  0
   11.5961  -21.9469   24.4897 O   0  0  0  0  0  0  0  0  0  0  0  0
   10.4988  -19.9995   23.6881 C   0  0  0  0  0  0  0  0  0  0  0  0
   10.7059  -18.5308   23.4784 C   0  0  0  0  0  0  0  0  0  0  0  0
    9.5316  -17.7223   23.8602 C   0  0  2  0  0  0  0  0  0  0  0  0
    8.9171  -17.0445   22.7252 N   0  0  0  0  0  0  0  0  0  0  0  0
    9.9613  -16.6573   24.7897 C   0  0  0  0  0  0  0  0  0  0  0  0
   10.6984  -15.7401   24.3863 O   0  0  0  0  0  0  0  0  0  0  0  0
    9.5573  -16.6496   26.1316 N   0  0  0  0  0  0  0  0  0  0  0  0
   10.1302  -15.7387   27.1304 C   0  0  1  0  0  0  0  0  0  0  0  0
    8.9738  -15.0191   27.7946 C   0  0  0  0  0  0  0  0  0  0  0  0
    8.2743  -14.0805   26.8843 C   0  0  0  0  0  0  0  0  0  0  0  0
    8.7574  -12.7828   26.7322 C   0  0  0  0  0  0  0  0  0  0  0  0
    8.1467  -11.8758   25.8964 C   0  0  0  0  0  0  0  0  0  0  0  0
    7.0250  -12.2167   25.1710 C   0  0  0  0  0  0  0  0  0  0  0  0
    6.5359  -13.4959   25.3109 C   0  0  0  0  0  0  0  0  0  0  0  0
    7.1520  -14.4079   26.1528 C   0  0  0  0  0  0  0  0  0  0  0  0
   10.9921  -16.4460   28.0757 C   0  0  0  0  0  0  0  0  0  0  0  0
   11.5592  -15.7906   28.9812 O   0  0  0  0  0  0  0  0  0  0  0  0
   11.2011  -17.8039   28.0058 O   0  0  0  0  0  0  0  0  0  0  0  0
  2  1  1  1
  2  3  1  0
  4  3  1  0
  4  5  2  0
  6  5  1  0
  7  6  2  0
  8  9  2  0
  8  7  1  0
  9  4  1  0
 10  2  1  0
 10 11  2  0
 13 12  1  0
 13 14  2  0
 15 16  1  0
 15 13  1  0
 17 18  1  0
 17 16  1  6
 18 10  1  0
 19 17  1  0
 20 19  2  0
 21 19  1  0
 22 21  1  0
 23 24  1  0
 22 23  1  1
 24 29  2  0
 25 26  2  0
 25 24  1  0
 26 27  1  0
 27 28  2  0
 29 28  1  0
 30 22  1  0
 30 32  1  0
 31 30  2  0
M  END
$$$$
