FQF.pdb
     RDKit          3D

 32 33  0  0  1  0  0  0  0  0999 V2000
    5.3480  -18.4102   23.5989 N   0  0  0  0  0  0  0  0  0  0  0  0
    6.0821  -17.2019   23.7880 C   0  0  1  0  0  0  0  0  0  0  0  0
    6.0058  -16.7216   25.2194 C   0  0  0  0  0  0  0  0  0  0  0  0
    6.5379  -15.3549   25.3877 C   0  0  0  0  0  0  0  0  0  0  0  0
    6.8198  -14.9098   26.6514 C   0  0  0  0  0  0  0  0  0  0  0  0
    7.3195  -13.6482   26.9027 C   0  0  0  0  0  0  0  0  0  0  0  0
    7.5465  -12.7938   25.8307 C   0  0  0  0  0  0  0  0  0  0  0  0
    7.2621  -13.2453   24.5665 C   0  0  0  0  0  0  0  0  0  0  0  0
    6.7613  -14.5110   24.3204 C   0  0  0  0  0  0  0  0  0  0  0  0
    7.5036  -17.2859   23.3996 C   0  0  0  0  0  0  0  0  0  0  0  0
    8.1929  -18.1979   23.9130 O   0  0  0  0  0  0  0  0  0  0  0  0
    8.0371  -13.0917   19.0812 N   0  0  0  0  0  0  0  0  0  0  0  0
    9.2441  -13.5919   19.6272 C   0  0  0  0  0  0  0  0  0  0  0  0
   10.3091  -13.3393   19.0306 O   0  0  0  0  0  0  0  0  0  0  0  0
    9.2120  -14.3827   20.8599 C   0  0  0  0  0  0  0  0  0  0  0  0
    9.7205  -15.7869   20.7418 C   0  0  0  0  0  0  0  0  0  0  0  0
    9.4761  -16.5927   21.9539 C   0  0  2  0  0  0  0  0  0  0  0  0
    8.1340  -16.4119   22.4935 N   0  0  0  0  0  0  0  0  0  0  0  0
   10.4067  -16.1593   23.0165 C   0  0  0  0  0  0  0  0  0  0  0  0
   11.1809  -15.2068   22.8145 O   0  0  0  0  0  0  0  0  0  0  0  0
   10.4435  -16.7984   24.2632 N   0  0  0  0  0  0  0  0  0  0  0  0
   11.6484  -16.8406   25.1010 C   0  0  1  0  0  0  0  0  0  0  0  0
   11.9050  -15.4283   25.5866 C   0  0  0  0  0  0  0  0  0  0  0  0
   10.9280  -14.9790   26.6076 C   0  0  0  0  0  0  0  0  0  0  0  0
   11.2320  -15.1230   27.9595 C   0  0  0  0  0  0  0  0  0  0  0  0
   10.3610  -14.7177   28.9450 C   0  0  0  0  0  0  0  0  0  0  0  0
    9.1446  -14.1490   28.6326 C   0  0  0  0  0  0  0  0  0  0  0  0
    8.8302  -14.0001   27.3007 C   0  0  0  0  0  0  0  0  0  0  0  0
    9.7083  -14.4087   26.3096 C   0  0  0  0  0  0  0  0  0  0  0  0
   11.5186  -17.8116   26.1859 C   0  0  0  0  0  0  0  0  0  0  0  0
   12.5076  -18.0242   26.9261 O   0  0  0  0  0  0  0  0  0  0  0  0
   10.3503  -18.4983   26.4220 O   0  0  0  0  0  0  0  0  0  0  0  0
  2  1  1  1
  2  3  1  0
  4  3  1  0
  4  5  2  0
  6  5  1  0
  7  6  2  0
  8  9  2  0
  8  7  1  0
  9  4  1  0
 10  2  1  0
 10 11  2  0
 13 12  1  0
 13 14  2  0
 15 16  1  0
 15 13  1  0
 17 18  1  0
 17 16  1  6
 18 10  1  0
 19 17  1  0
 20 19  2  0
 21 19  1  0
 22 21  1  0
 23 24  1  0
 22 23  1  1
 24 29  2  0
 25 26  2  0
 25 24  1  0
 26 27  1  0
 27 28  2  0
 29 28  1  0
 30 22  1  0
 30 32  1  0
 31 30  2  0
M  END
$$$$
