FQF.pdb
     RDKit          3D

 32 33  0  0  1  0  0  0  0  0999 V2000
    6.0793  -17.2504   20.5917 N   0  0  0  0  0  0  0  0  0  0  0  0
    6.8541  -16.4654   21.4962 C   0  0  1  0  0  0  0  0  0  0  0  0
    6.2733  -15.0807   21.6711 C   0  0  0  0  0  0  0  0  0  0  0  0
    7.0462  -14.0472   20.9544 C   0  0  0  0  0  0  0  0  0  0  0  0
    8.1473  -13.5083   21.5641 C   0  0  0  0  0  0  0  0  0  0  0  0
    8.9282  -12.5382   20.9695 C   0  0  0  0  0  0  0  0  0  0  0  0
    8.5843  -12.0890   19.7004 C   0  0  0  0  0  0  0  0  0  0  0  0
    7.4798  -12.6327   19.0942 C   0  0  0  0  0  0  0  0  0  0  0  0
    6.7006  -13.6050   19.6950 C   0  0  0  0  0  0  0  0  0  0  0  0
    7.0289  -17.0697   22.8315 C   0  0  0  0  0  0  0  0  0  0  0  0
    5.9962  -17.3109   23.4992 O   0  0  0  0  0  0  0  0  0  0  0  0
    5.8439  -20.5298   24.9977 N   0  0  0  0  0  0  0  0  0  0  0  0
    7.2097  -20.7452   25.3032 C   0  0  0  0  0  0  0  0  0  0  0  0
    7.4959  -21.2109   26.4235 O   0  0  0  0  0  0  0  0  0  0  0  0
    8.2370  -20.4194   24.3109 C   0  0  0  0  0  0  0  0  0  0  0  0
    9.1506  -19.2885   24.6721 C   0  0  0  0  0  0  0  0  0  0  0  0
    8.4620  -17.9839   24.7213 C   0  0  2  0  0  0  0  0  0  0  0  0
    8.2749  -17.3919   23.4024 N   0  0  0  0  0  0  0  0  0  0  0  0
    9.2921  -17.0294   25.4847 C   0  0  0  0  0  0  0  0  0  0  0  0
   10.2964  -16.5187   24.9575 O   0  0  0  0  0  0  0  0  0  0  0  0
    8.9772  -16.6773   26.8040 N   0  0  0  0  0  0  0  0  0  0  0  0
    9.8645  -15.8636   27.6444 C   0  0  1  0  0  0  0  0  0  0  0  0
    9.0071  -14.8013   28.3022 C   0  0  0  0  0  0  0  0  0  0  0  0
    8.3621  -13.8898   27.3266 C   0  0  0  0  0  0  0  0  0  0  0  0
    8.9753  -12.6804   27.0070 C   0  0  0  0  0  0  0  0  0  0  0  0
    8.4193  -11.8024   26.1046 C   0  0  0  0  0  0  0  0  0  0  0  0
    7.2254  -12.0858   25.4762 C   0  0  0  0  0  0  0  0  0  0  0  0
    6.6076  -13.2774   25.7819 C   0  0  0  0  0  0  0  0  0  0  0  0
    7.1686  -14.1603   26.6906 C   0  0  0  0  0  0  0  0  0  0  0  0
   10.6054  -16.6840   28.6008 C   0  0  0  0  0  0  0  0  0  0  0  0
   10.2535  -17.8747   28.7734 O   0  0  0  0  0  0  0  0  0  0  0  0
   11.6740  -16.1951   29.3160 O   0  0  0  0  0  0  0  0  0  0  0  0
  2  1  1  6
  2  3  1  0
  4  3  1  0
  4  5  2  0
  6  5  1  0
  7  6  2  0
  8  9  2  0
  8  7  1  0
  9  4  1  0
 10  2  1  0
 10 11  2  0
 13 12  1  0
 13 14  2  0
 15 16  1  0
 15 13  1  0
 17 18  1  0
 17 16  1  6
 18 10  1  0
 19 17  1  0
 20 19  2  0
 21 19  1  0
 22 21  1  0
 23 24  1  0
 22 23  1  1
 24 29  2  0
 25 26  2  0
 25 24  1  0
 26 27  1  0
 27 28  2  0
 29 28  1  0
 30 22  1  0
 30 32  1  0
 31 30  2  0
M  END
$$$$
