FQF.pdb
     RDKit          3D

 32 33  0  0  1  0  0  0  0  0999 V2000
    5.8449  -17.7123   23.5931 N   0  0  0  0  0  0  0  0  0  0  0  0
    6.8214  -17.0568   22.7860 C   0  0  1  0  0  0  0  0  0  0  0  0
    6.4790  -15.6003   22.5695 C   0  0  0  0  0  0  0  0  0  0  0  0
    6.4205  -14.8381   23.8324 C   0  0  0  0  0  0  0  0  0  0  0  0
    7.1420  -13.6790   23.9352 C   0  0  0  0  0  0  0  0  0  0  0  0
    7.1467  -12.9031   25.0764 C   0  0  0  0  0  0  0  0  0  0  0  0
    6.3890  -13.3136   26.1664 C   0  0  0  0  0  0  0  0  0  0  0  0
    5.6679  -14.4760   26.0577 C   0  0  0  0  0  0  0  0  0  0  0  0
    5.6669  -15.2499   24.9111 C   0  0  0  0  0  0  0  0  0  0  0  0
    8.1990  -17.1389   23.3096 C   0  0  0  0  0  0  0  0  0  0  0  0
    8.4126  -17.9265   24.2606 O   0  0  0  0  0  0  0  0  0  0  0  0
   12.7365  -17.5782   20.1968 N   0  0  0  0  0  0  0  0  0  0  0  0
   13.5456  -17.2283   21.3050 C   0  0  0  0  0  0  0  0  0  0  0  0
   14.6823  -17.7333   21.3866 O   0  0  0  0  0  0  0  0  0  0  0  0
   13.0342  -16.2969   22.3135 C   0  0  0  0  0  0  0  0  0  0  0  0
   11.5937  -15.9123   22.1684 C   0  0  0  0  0  0  0  0  0  0  0  0
   10.6891  -16.7460   22.9840 C   0  0  2  0  0  0  0  0  0  0  0  0
    9.2851  -16.3935   22.8126 N   0  0  0  0  0  0  0  0  0  0  0  0
   10.9938  -16.5312   24.4136 C   0  0  0  0  0  0  0  0  0  0  0  0
   10.9289  -15.3873   24.8981 O   0  0  0  0  0  0  0  0  0  0  0  0
   11.3590  -17.5930   25.2521 N   0  0  0  0  0  0  0  0  0  0  0  0
   11.6025  -17.4246   26.6902 C   0  0  1  0  0  0  0  0  0  0  0  0
   10.3521  -16.8104   27.2864 C   0  0  0  0  0  0  0  0  0  0  0  0
   10.5639  -15.4296   27.7837 C   0  0  0  0  0  0  0  0  0  0  0  0
   10.2729  -14.3487   26.9544 C   0  0  0  0  0  0  0  0  0  0  0  0
   10.4480  -13.0485   27.3705 C   0  0  0  0  0  0  0  0  0  0  0  0
   10.9215  -12.7610   28.6331 C   0  0  0  0  0  0  0  0  0  0  0  0
   11.2134  -13.8190   29.4641 C   0  0  0  0  0  0  0  0  0  0  0  0
   11.0365  -15.1275   29.0436 C   0  0  0  0  0  0  0  0  0  0  0  0
   11.9883  -18.6839   27.3242 C   0  0  0  0  0  0  0  0  0  0  0  0
   11.8851  -19.7461   26.6668 O   0  0  0  0  0  0  0  0  0  0  0  0
   12.4603  -18.7427   28.6150 O   0  0  0  0  0  0  0  0  0  0  0  0
  2  1  1  1
  2  3  1  0
  4  3  1  0
  4  5  2  0
  6  5  1  0
  7  6  2  0
  8  9  2  0
  8  7  1  0
  9  4  1  0
 10  2  1  0
 10 11  2  0
 13 12  1  0
 13 14  2  0
 15 16  1  0
 15 13  1  0
 17 18  1  0
 17 16  1  6
 18 10  1  0
 19 17  1  0
 20 19  2  0
 21 19  1  0
 22 21  1  0
 23 24  1  0
 22 23  1  1
 24 29  2  0
 25 26  2  0
 25 24  1  0
 26 27  1  0
 27 28  2  0
 29 28  1  0
 30 22  1  0
 30 32  1  0
 31 30  2  0
M  END
$$$$
