FQF.pdb
     RDKit          3D

 32 33  0  0  1  0  0  0  0  0999 V2000
    6.0596  -17.7921   20.3840 N   0  0  0  0  0  0  0  0  0  0  0  0
    7.0622  -16.8804   20.8291 C   0  0  1  0  0  0  0  0  0  0  0  0
    6.4577  -15.5903   21.3346 C   0  0  0  0  0  0  0  0  0  0  0  0
    7.1485  -14.3963   20.8088 C   0  0  0  0  0  0  0  0  0  0  0  0
    7.2345  -14.2302   19.4525 C   0  0  0  0  0  0  0  0  0  0  0  0
    7.8612  -13.1458   18.8730 C   0  0  0  0  0  0  0  0  0  0  0  0
    8.4284  -12.1825   19.6982 C   0  0  0  0  0  0  0  0  0  0  0  0
    8.3391  -12.3542   21.0568 C   0  0  0  0  0  0  0  0  0  0  0  0
    7.7097  -13.4433   21.6322 C   0  0  0  0  0  0  0  0  0  0  0  0
    7.9538  -17.4187   21.8750 C   0  0  0  0  0  0  0  0  0  0  0  0
    7.4569  -18.2086   22.7114 O   0  0  0  0  0  0  0  0  0  0  0  0
   12.6912  -20.1815   20.1499 N   0  0  0  0  0  0  0  0  0  0  0  0
   12.5234  -18.7794   20.0442 C   0  0  0  0  0  0  0  0  0  0  0  0
   13.3159  -18.1446   19.3211 O   0  0  0  0  0  0  0  0  0  0  0  0
   11.4401  -18.1193   20.7769 C   0  0  0  0  0  0  0  0  0  0  0  0
   11.3412  -18.4601   22.2323 C   0  0  0  0  0  0  0  0  0  0  0  0
   10.2482  -17.7446   22.9193 C   0  0  2  0  0  0  0  0  0  0  0  0
    9.3210  -17.1042   21.9946 N   0  0  0  0  0  0  0  0  0  0  0  0
   10.8239  -16.6589   23.7396 C   0  0  0  0  0  0  0  0  0  0  0  0
   11.3848  -15.6945   23.1895 O   0  0  0  0  0  0  0  0  0  0  0  0
   10.7557  -16.6837   25.1391 N   0  0  0  0  0  0  0  0  0  0  0  0
   10.1073  -15.6255   25.9236 C   0  0  1  0  0  0  0  0  0  0  0  0
    8.8496  -15.2243   25.1796 C   0  0  0  0  0  0  0  0  0  0  0  0
    8.0456  -14.2101   25.9032 C   0  0  0  0  0  0  0  0  0  0  0  0
    8.6886  -13.1539   26.5450 C   0  0  0  0  0  0  0  0  0  0  0  0
    7.9872  -12.1851   27.2258 C   0  0  0  0  0  0  0  0  0  0  0  0
    6.6110  -12.2204   27.3010 C   0  0  0  0  0  0  0  0  0  0  0  0
    5.9615  -13.2583   26.6715 C   0  0  0  0  0  0  0  0  0  0  0  0
    6.6692  -14.2329   25.9864 C   0  0  0  0  0  0  0  0  0  0  0  0
    9.8559  -16.0497   27.2996 C   0  0  0  0  0  0  0  0  0  0  0  0
   10.2455  -15.3150   28.2376 O   0  0  0  0  0  0  0  0  0  0  0  0
    9.2071  -17.2250   27.5997 O   0  0  0  0  0  0  0  0  0  0  0  0
  2  1  1  1
  2  3  1  0
  4  3  1  0
  4  5  2  0
  6  5  1  0
  7  6  2  0
  8  9  2  0
  8  7  1  0
  9  4  1  0
 10  2  1  0
 10 11  2  0
 13 12  1  0
 13 14  2  0
 15 16  1  0
 15 13  1  0
 17 18  1  0
 17 16  1  6
 18 10  1  0
 19 17  1  0
 20 19  2  0
 21 19  1  0
 22 21  1  0
 23 24  1  0
 22 23  1  6
 24 29  2  0
 25 26  2  0
 25 24  1  0
 26 27  1  0
 27 28  2  0
 29 28  1  0
 30 22  1  0
 30 32  1  0
 31 30  2  0
M  END
$$$$
