FQF.pdb
     RDKit          3D

 32 33  0  0  1  0  0  0  0  0999 V2000
    6.0438  -18.2291   20.7826 N   0  0  0  0  0  0  0  0  0  0  0  0
    6.9480  -17.1318   20.8964 C   0  0  1  0  0  0  0  0  0  0  0  0
    6.2146  -15.8190   21.0515 C   0  0  0  0  0  0  0  0  0  0  0  0
    7.0821  -14.6518   20.7981 C   0  0  0  0  0  0  0  0  0  0  0  0
    7.3804  -13.8153   21.8401 C   0  0  0  0  0  0  0  0  0  0  0  0
    8.1824  -12.7016   21.6954 C   0  0  0  0  0  0  0  0  0  0  0  0
    8.7095  -12.4162   20.4419 C   0  0  0  0  0  0  0  0  0  0  0  0
    8.4072  -13.2581   19.4012 C   0  0  0  0  0  0  0  0  0  0  0  0
    7.6026  -14.3732   19.5520 C   0  0  0  0  0  0  0  0  0  0  0  0
    7.9203  -17.2558   22.0000 C   0  0  0  0  0  0  0  0  0  0  0  0
    7.4829  -17.5980   23.1234 O   0  0  0  0  0  0  0  0  0  0  0  0
   10.4893  -21.3670   22.0542 N   0  0  0  0  0  0  0  0  0  0  0  0
   11.4584  -20.3603   22.2835 C   0  0  0  0  0  0  0  0  0  0  0  0
   12.2661  -20.5229   23.2189 O   0  0  0  0  0  0  0  0  0  0  0  0
   11.4867  -19.1702   21.4297 C   0  0  0  0  0  0  0  0  0  0  0  0
   11.5798  -17.8594   22.1489 C   0  0  0  0  0  0  0  0  0  0  0  0
   10.3189  -17.4746   22.8125 C   0  0  2  0  0  0  0  0  0  0  0  0
    9.3019  -17.0158   21.8742 N   0  0  0  0  0  0  0  0  0  0  0  0
   10.5796  -16.3394   23.7215 C   0  0  0  0  0  0  0  0  0  0  0  0
   11.0843  -15.2920   23.2793 O   0  0  0  0  0  0  0  0  0  0  0  0
   10.2706  -16.4086   25.0866 N   0  0  0  0  0  0  0  0  0  0  0  0
   10.7724  -15.4374   26.0668 C   0  0  1  0  0  0  0  0  0  0  0  0
   10.0835  -14.1181   25.7818 C   0  0  0  0  0  0  0  0  0  0  0  0
    8.6978  -14.0615   26.3066 C   0  0  0  0  0  0  0  0  0  0  0  0
    8.3057  -12.9826   27.0959 C   0  0  0  0  0  0  0  0  0  0  0  0
    7.0303  -12.8816   27.6030 C   0  0  0  0  0  0  0  0  0  0  0  0
    6.0825  -13.8501   27.3488 C   0  0  0  0  0  0  0  0  0  0  0  0
    6.4553  -14.9224   26.5701 C   0  0  0  0  0  0  0  0  0  0  0  0
    7.7399  -15.0226   26.0603 C   0  0  0  0  0  0  0  0  0  0  0  0
   10.5820  -15.9059   27.4382 C   0  0  0  0  0  0  0  0  0  0  0  0
   10.9425  -15.1659   28.3835 O   0  0  0  0  0  0  0  0  0  0  0  0
   10.0214  -17.1287   27.7262 O   0  0  0  0  0  0  0  0  0  0  0  0
  2  1  1  1
  2  3  1  0
  4  3  1  0
  4  5  2  0
  6  5  1  0
  7  6  2  0
  8  9  2  0
  8  7  1  0
  9  4  1  0
 10  2  1  0
 10 11  2  0
 13 12  1  0
 13 14  2  0
 15 16  1  0
 15 13  1  0
 17 18  1  0
 17 16  1  6
 18 10  1  0
 19 17  1  0
 20 19  2  0
 21 19  1  0
 22 21  1  0
 23 24  1  0
 22 23  1  1
 24 29  2  0
 25 26  2  0
 25 24  1  0
 26 27  1  0
 27 28  2  0
 29 28  1  0
 30 22  1  0
 30 32  1  0
 31 30  2  0
M  END
$$$$
