FQF.pdb
     RDKit          3D

 32 33  0  0  1  0  0  0  0  0999 V2000
    7.0047  -17.9515   19.5790 N   0  0  0  0  0  0  0  0  0  0  0  0
    7.5327  -16.8029   20.2399 C   0  0  1  0  0  0  0  0  0  0  0  0
    6.4645  -15.7625   20.4883 C   0  0  0  0  0  0  0  0  0  0  0  0
    6.9986  -14.5426   21.1254 C   0  0  0  0  0  0  0  0  0  0  0  0
    7.5086  -13.5534   20.3279 C   0  0  0  0  0  0  0  0  0  0  0  0
    8.0283  -12.3805   20.8363 C   0  0  0  0  0  0  0  0  0  0  0  0
    8.0351  -12.1942   22.2132 C   0  0  0  0  0  0  0  0  0  0  0  0
    7.5227  -13.1890   23.0075 C   0  0  0  0  0  0  0  0  0  0  0  0
    7.0029  -14.3629   22.4925 C   0  0  0  0  0  0  0  0  0  0  0  0
    8.2072  -17.0934   21.5203 C   0  0  0  0  0  0  0  0  0  0  0  0
    7.5928  -17.8004   22.3528 O   0  0  0  0  0  0  0  0  0  0  0  0
   14.4066  -17.5308   21.5413 N   0  0  0  0  0  0  0  0  0  0  0  0
   13.3990  -18.2559   20.8600 C   0  0  0  0  0  0  0  0  0  0  0  0
   13.7376  -18.9706   19.8965 O   0  0  0  0  0  0  0  0  0  0  0  0
   12.0047  -18.1489   21.2966 C   0  0  0  0  0  0  0  0  0  0  0  0
   11.7649  -17.2752   22.4896 C   0  0  0  0  0  0  0  0  0  0  0  0
   10.3451  -17.2213   22.8892 C   0  0  2  0  0  0  0  0  0  0  0  0
    9.4908  -16.6300   21.8667 N   0  0  0  0  0  0  0  0  0  0  0  0
   10.2126  -16.3597   24.0821 C   0  0  0  0  0  0  0  0  0  0  0  0
   10.7821  -15.2544   24.1171 O   0  0  0  0  0  0  0  0  0  0  0  0
    9.4535  -16.7565   25.1912 N   0  0  0  0  0  0  0  0  0  0  0  0
    9.6917  -16.2403   26.5449 C   0  0  1  0  0  0  0  0  0  0  0  0
    8.3669  -15.7192   27.0642 C   0  0  0  0  0  0  0  0  0  0  0  0
    8.0844  -14.3267   26.6399 C   0  0  0  0  0  0  0  0  0  0  0  0
    6.8902  -14.0377   25.9832 C   0  0  0  0  0  0  0  0  0  0  0  0
    6.5794  -12.7611   25.5734 C   0  0  0  0  0  0  0  0  0  0  0  0
    7.4426  -11.7097   25.7975 C   0  0  0  0  0  0  0  0  0  0  0  0
    8.6267  -11.9799   26.4455 C   0  0  0  0  0  0  0  0  0  0  0  0
    8.9382  -13.2658   26.8575 C   0  0  0  0  0  0  0  0  0  0  0  0
   10.2957  -17.2516   27.4105 C   0  0  0  0  0  0  0  0  0  0  0  0
   10.4221  -18.4202   26.9750 O   0  0  0  0  0  0  0  0  0  0  0  0
   10.7299  -16.9649   28.6840 O   0  0  0  0  0  0  0  0  0  0  0  0
  2  1  1  1
  2  3  1  0
  4  3  1  0
  4  5  2  0
  6  5  1  0
  7  6  2  0
  8  9  2  0
  8  7  1  0
  9  4  1  0
 10  2  1  0
 10 11  2  0
 13 12  1  0
 13 14  2  0
 15 16  1  0
 15 13  1  0
 17 18  1  0
 17 16  1  6
 18 10  1  0
 19 17  1  0
 20 19  2  0
 21 19  1  0
 22 21  1  0
 23 24  1  0
 22 23  1  1
 24 29  2  0
 25 26  2  0
 25 24  1  0
 26 27  1  0
 27 28  2  0
 29 28  1  0
 30 22  1  0
 30 32  1  0
 31 30  2  0
M  END
$$$$
