FQF.pdb
     RDKit          3D

 32 33  0  0  1  0  0  0  0  0999 V2000
    7.2289  -17.2631   21.0256 N   0  0  0  0  0  0  0  0  0  0  0  0
    8.1535  -16.4197   21.7099 C   0  0  1  0  0  0  0  0  0  0  0  0
    7.5105  -15.1209   22.1400 C   0  0  0  0  0  0  0  0  0  0  0  0
    7.5113  -14.1059   21.0681 C   0  0  0  0  0  0  0  0  0  0  0  0
    6.4361  -14.0408   20.2230 C   0  0  0  0  0  0  0  0  0  0  0  0
    6.3516  -13.1249   19.1942 C   0  0  0  0  0  0  0  0  0  0  0  0
    7.3995  -12.2318   19.0070 C   0  0  0  0  0  0  0  0  0  0  0  0
    8.4745  -12.3017   19.8571 C   0  0  0  0  0  0  0  0  0  0  0  0
    8.5539  -13.2219   20.8868 C   0  0  0  0  0  0  0  0  0  0  0  0
    8.7853  -17.0404   22.8907 C   0  0  0  0  0  0  0  0  0  0  0  0
    8.0648  -17.7542   23.6267 O   0  0  0  0  0  0  0  0  0  0  0  0
   15.1300  -18.4100   24.2432 N   0  0  0  0  0  0  0  0  0  0  0  0
   14.1716  -19.3329   24.7278 C   0  0  0  0  0  0  0  0  0  0  0  0
   14.5245  -20.5174   24.8897 O   0  0  0  0  0  0  0  0  0  0  0  0
   12.8095  -18.8803   25.0211 C   0  0  0  0  0  0  0  0  0  0  0  0
   12.1898  -17.9837   23.9935 C   0  0  0  0  0  0  0  0  0  0  0  0
   10.8074  -17.5905   24.3294 C   0  0  2  0  0  0  0  0  0  0  0  0
   10.1394  -16.8840   23.2432 N   0  0  0  0  0  0  0  0  0  0  0  0
   10.8369  -16.6528   25.4708 C   0  0  0  0  0  0  0  0  0  0  0  0
   11.5689  -15.6478   25.4311 O   0  0  0  0  0  0  0  0  0  0  0  0
   10.0535  -16.8650   26.6133 N   0  0  0  0  0  0  0  0  0  0  0  0
   10.2434  -16.1130   27.8599 C   0  0  1  0  0  0  0  0  0  0  0  0
    8.8791  -15.6179   28.2956 C   0  0  0  0  0  0  0  0  0  0  0  0
    8.3610  -14.5198   27.4444 C   0  0  0  0  0  0  0  0  0  0  0  0
    8.9464  -13.2578   27.5196 C   0  0  0  0  0  0  0  0  0  0  0  0
    8.5051  -12.2074   26.7476 C   0  0  0  0  0  0  0  0  0  0  0  0
    7.4591  -12.3621   25.8628 C   0  0  0  0  0  0  0  0  0  0  0  0
    6.8705  -13.6037   25.7775 C   0  0  0  0  0  0  0  0  0  0  0  0
    7.3161  -14.6603   26.5555 C   0  0  0  0  0  0  0  0  0  0  0  0
   10.9206  -16.9150   28.8771 C   0  0  0  0  0  0  0  0  0  0  0  0
   11.1978  -16.3833   29.9780 O   0  0  0  0  0  0  0  0  0  0  0  0
   11.2630  -18.2309   28.6682 O   0  0  0  0  0  0  0  0  0  0  0  0
  2  1  1  1
  2  3  1  0
  4  3  1  0
  4  5  2  0
  6  5  1  0
  7  6  2  0
  8  9  2  0
  8  7  1  0
  9  4  1  0
 10  2  1  0
 10 11  2  0
 13 12  1  0
 13 14  2  0
 15 16  1  0
 15 13  1  0
 17 18  1  0
 17 16  1  6
 18 10  1  0
 19 17  1  0
 20 19  2  0
 21 19  1  0
 22 21  1  0
 23 24  1  0
 22 23  1  1
 24 29  2  0
 25 26  2  0
 25 24  1  0
 26 27  1  0
 27 28  2  0
 29 28  1  0
 30 22  1  0
 30 32  1  0
 31 30  2  0
M  END
$$$$
