SNT.pdb
     RDKit          3D

 22 21  0  0  1  0  0  0  0  0999 V2000
   18.0556  -12.9303  -14.7388 O   0  0  0  0  0  0  0  0  0  0  0  0
   18.3758  -11.7054  -15.3462 C   0  0  0  0  0  0  0  0  0  0  0  0
   17.1304  -10.8715  -15.5842 C   0  0  2  0  0  0  0  0  0  0  0  0
   16.5007  -11.2160  -16.8465 N   0  0  0  0  0  0  0  0  0  0  0  0
   17.5259   -9.4522  -15.5862 C   0  0  0  0  0  0  0  0  0  0  0  0
   18.1462   -8.9813  -16.5576 O   0  0  0  0  0  0  0  0  0  0  0  0
   13.9703   -6.2737  -14.2467 N   0  0  0  0  0  0  0  0  0  0  0  0
   15.3229   -6.1476  -14.7460 C   0  0  0  0  0  0  0  0  0  0  0  0
   15.4869   -5.7640  -15.9108 O   0  0  0  0  0  0  0  0  0  0  0  0
   16.4446   -6.4711  -13.8765 C   0  0  0  0  0  0  0  0  0  0  0  0
   17.5903   -7.2015  -14.4768 C   0  0  2  0  0  0  0  0  0  0  0  0
   17.2032   -8.6261  -14.4902 N   0  0  0  0  0  0  0  0  0  0  0  0
   18.8708   -7.0976  -13.7731 C   0  0  0  0  0  0  0  0  0  0  0  0
   19.0181   -7.5493  -12.6220 O   0  0  0  0  0  0  0  0  0  0  0  0
   21.9878   -8.6522  -14.0853 C   0  0  0  0  0  0  0  0  0  0  0  0
   22.3230   -7.2034  -14.3126 C   0  0  1  0  0  0  0  0  0  0  0  0
   22.5386   -6.9365  -15.6358 O   0  0  0  0  0  0  0  0  0  0  0  0
   21.2248   -6.3767  -13.6928 C   0  0  2  0  0  0  0  0  0  0  0  0
   19.9811   -6.4734  -14.3947 N   0  0  0  0  0  0  0  0  0  0  0  0
   21.6596   -4.9469  -13.5299 C   0  0  0  0  0  0  0  0  0  0  0  0
   21.0073   -3.9275  -14.2089 O   0  0  0  0  0  0  0  0  0  0  0  0
   22.6178   -4.6209  -12.7829 O   0  0  0  0  0  0  0  0  0  0  0  0
  2  1  1  0
  2  3  1  0
  3  5  1  0
  3  4  1  6
  5 12  1  0
  6  5  2  0
  7  8  1  0
  8  9  2  0
 10  8  1  0
 11 10  1  1
 11 13  1  0
 12 11  1  0
 13 14  2  0
 13 19  1  0
 16 17  1  0
 16 15  1  6
 18 16  1  0
 18 19  1  6
 20 18  1  0
 20 21  1  0
 22 20  2  0
M  END
$$$$
