SNT.pdb
     RDKit          3D

 22 21  0  0  1  0  0  0  0  0999 V2000
   20.5239  -32.5824   -3.5199 O   0  0  0  0  0  0  0  0  0  0  0  0
   21.7049  -33.3268   -3.6707 C   0  0  0  0  0  0  0  0  0  0  0  0
   22.0332  -33.5398   -5.1369 C   0  0  2  0  0  0  0  0  0  0  0  0
   21.1545  -34.5302   -5.7335 N   0  0  0  0  0  0  0  0  0  0  0  0
   23.4347  -33.9842   -5.2303 C   0  0  0  0  0  0  0  0  0  0  0  0
   23.7132  -35.1916   -5.1079 O   0  0  0  0  0  0  0  0  0  0  0  0
   25.8092  -31.6565   -8.7409 N   0  0  0  0  0  0  0  0  0  0  0  0
   26.3574  -32.7149   -7.9197 C   0  0  0  0  0  0  0  0  0  0  0  0
   26.6742  -33.7791   -8.4655 O   0  0  0  0  0  0  0  0  0  0  0  0
   26.5209  -32.5046   -6.4887 C   0  0  0  0  0  0  0  0  0  0  0  0
   25.8687  -33.4757   -5.5731 C   0  0  2  0  0  0  0  0  0  0  0  0
   24.4613  -33.0452   -5.4581 N   0  0  0  0  0  0  0  0  0  0  0  0
   26.4168  -33.5633   -4.2175 C   0  0  0  0  0  0  0  0  0  0  0  0
   26.1119  -32.7354   -3.3386 O   0  0  0  0  0  0  0  0  0  0  0  0
   25.5591  -33.8815   -1.8089 C   0  0  0  0  0  0  0  0  0  0  0  0
   26.5402  -34.9986   -1.5795 C   0  0  1  0  0  0  0  0  0  0  0  0
   25.9492  -36.2244   -1.7090 O   0  0  0  0  0  0  0  0  0  0  0  0
   27.7074  -34.7811   -2.5090 C   0  0  2  0  0  0  0  0  0  0  0  0
   27.3160  -34.6037   -3.8743 N   0  0  0  0  0  0  0  0  0  0  0  0
   28.7204  -35.8819   -2.3612 C   0  0  0  0  0  0  0  0  0  0  0  0
   29.4609  -36.0096   -1.1946 O   0  0  0  0  0  0  0  0  0  0  0  0
   28.9350  -36.7194   -3.2749 O   0  0  0  0  0  0  0  0  0  0  0  0
  2  1  1  0
  2  3  1  0
  3  5  1  0
  3  4  1  1
  5 12  1  0
  6  5  2  0
  7  8  1  0
  8  9  2  0
 10  8  1  0
 11 10  1  6
 11 13  1  0
 12 11  1  0
 13 14  2  0
 13 19  1  0
 16 17  1  0
 16 15  1  6
 18 16  1  0
 18 19  1  6
 20 18  1  0
 20 21  1  0
 22 20  2  0
M  END
$$$$
