SNT.pdb
     RDKit          3D

 22 21  0  0  1  0  0  0  0  0999 V2000
   18.1763  -21.9642  -15.0795 O   0  0  0  0  0  0  0  0  0  0  0  0
   19.2912  -21.1451  -14.8390 C   0  0  0  0  0  0  0  0  0  0  0  0
   19.9889  -21.5366  -13.5495 C   0  0  2  0  0  0  0  0  0  0  0  0
   19.1638  -21.2351  -12.3932 N   0  0  0  0  0  0  0  0  0  0  0  0
   21.2582  -20.7924  -13.4740 C   0  0  0  0  0  0  0  0  0  0  0  0
   21.2463  -19.5595  -13.3005 O   0  0  0  0  0  0  0  0  0  0  0  0
   26.5763  -21.2510  -11.1389 N   0  0  0  0  0  0  0  0  0  0  0  0
   26.0330  -21.1683  -12.4779 C   0  0  0  0  0  0  0  0  0  0  0  0
   26.7404  -20.6866  -13.3713 O   0  0  0  0  0  0  0  0  0  0  0  0
   24.6835  -21.6479  -12.7383 C   0  0  0  0  0  0  0  0  0  0  0  0
   23.7678  -20.7489  -13.4866 C   0  0  2  0  0  0  0  0  0  0  0  0
   22.4864  -21.4734  -13.5976 N   0  0  0  0  0  0  0  0  0  0  0  0
   24.1835  -20.3749  -14.8405 C   0  0  0  0  0  0  0  0  0  0  0  0
   24.2306  -21.2130  -15.7604 O   0  0  0  0  0  0  0  0  0  0  0  0
   23.0615  -17.3569  -17.0891 C   0  0  0  0  0  0  0  0  0  0  0  0
   24.5521  -17.3201  -16.8892 C   0  0  1  0  0  0  0  0  0  0  0  0
   24.9222  -16.3217  -16.0320 O   0  0  0  0  0  0  0  0  0  0  0  0
   24.9895  -18.6952  -16.4519 C   0  0  2  0  0  0  0  0  0  0  0  0
   24.5449  -19.0365  -15.1348 N   0  0  0  0  0  0  0  0  0  0  0  0
   26.4778  -18.8524  -16.5926 C   0  0  0  0  0  0  0  0  0  0  0  0
   27.0879  -18.7297  -17.8329 O   0  0  0  0  0  0  0  0  0  0  0  0
   27.2200  -19.0976  -15.6069 O   0  0  0  0  0  0  0  0  0  0  0  0
  2  1  1  0
  2  3  1  0
  3  5  1  0
  3  4  1  1
  5 12  1  0
  6  5  2  0
  7  8  1  0
  8  9  2  0
 10  8  1  0
 11 10  1  6
 11 13  1  0
 12 11  1  0
 13 14  2  0
 13 19  1  0
 16 17  1  0
 16 15  1  1
 18 16  1  0
 18 19  1  1
 20 18  1  0
 20 21  1  0
 22 20  2  0
M  END
$$$$
