SNT.pdb
     RDKit          3D

 22 21  0  0  1  0  0  0  0  0999 V2000
   16.7295  -14.1377  -18.1197 O   0  0  0  0  0  0  0  0  0  0  0  0
   17.8691  -13.3227  -18.2133 C   0  0  0  0  0  0  0  0  0  0  0  0
   19.0983  -14.0394  -17.6857 C   0  0  2  0  0  0  0  0  0  0  0  0
   18.7372  -15.2707  -17.0057 N   0  0  0  0  0  0  0  0  0  0  0  0
   19.7910  -13.1313  -16.7551 C   0  0  0  0  0  0  0  0  0  0  0  0
   19.4847  -13.1261  -15.5483 O   0  0  0  0  0  0  0  0  0  0  0  0
   23.3080   -9.8844  -14.6534 N   0  0  0  0  0  0  0  0  0  0  0  0
   23.8404  -10.7680  -15.6687 C   0  0  0  0  0  0  0  0  0  0  0  0
   25.0670  -10.8156  -15.8230 O   0  0  0  0  0  0  0  0  0  0  0  0
   22.9310  -11.5698  -16.4743 C   0  0  0  0  0  0  0  0  0  0  0  0
   21.4748  -11.3218  -16.3178 C   0  0  2  0  0  0  0  0  0  0  0  0
   20.8003  -12.2680  -17.2283 N   0  0  0  0  0  0  0  0  0  0  0  0
   21.0031   -9.9754  -16.6501 C   0  0  0  0  0  0  0  0  0  0  0  0
   21.1558   -9.4963  -17.7894 O   0  0  0  0  0  0  0  0  0  0  0  0
   17.7880   -8.4807  -16.9407 C   0  0  0  0  0  0  0  0  0  0  0  0
   18.4506   -7.6480  -15.8773 C   0  0  1  0  0  0  0  0  0  0  0  0
   17.9521   -7.9254  -14.6351 O   0  0  0  0  0  0  0  0  0  0  0  0
   19.9397   -7.8513  -15.9982 C   0  0  2  0  0  0  0  0  0  0  0  0
   20.3561   -9.1811  -15.6708 N   0  0  0  0  0  0  0  0  0  0  0  0
   20.6862   -6.8231  -15.1950 C   0  0  0  0  0  0  0  0  0  0  0  0
   20.4860   -5.4684  -15.4193 O   0  0  0  0  0  0  0  0  0  0  0  0
   21.5103   -7.1436  -14.3002 O   0  0  0  0  0  0  0  0  0  0  0  0
  2  1  1  0
  2  3  1  0
  3  5  1  0
  3  4  1  1
  5 12  1  0
  6  5  2  0
  7  8  1  0
  8  9  2  0
 10  8  1  0
 11 10  1  6
 11 13  1  0
 12 11  1  0
 13 14  2  0
 13 19  1  0
 16 17  1  0
 16 15  1  6
 18 16  1  0
 18 19  1  1
 20 18  1  0
 20 21  1  0
 22 20  2  0
M  END
$$$$
