SNT.pdb
     RDKit          3D

 22 21  0  0  1  0  0  0  0  0999 V2000
   14.6066  -12.5980  -10.7131 O   0  0  0  0  0  0  0  0  0  0  0  0
   14.8784  -11.2916  -11.1506 C   0  0  0  0  0  0  0  0  0  0  0  0
   14.6447  -10.2838  -10.0404 C   0  0  2  0  0  0  0  0  0  0  0  0
   13.2287  -10.1369   -9.7536 N   0  0  0  0  0  0  0  0  0  0  0  0
   15.2111   -8.9933  -10.4699 C   0  0  0  0  0  0  0  0  0  0  0  0
   14.7076   -8.3827  -11.4311 O   0  0  0  0  0  0  0  0  0  0  0  0
   14.5126   -5.5541   -9.5723 N   0  0  0  0  0  0  0  0  0  0  0  0
   15.5524   -5.6821   -8.5735 C   0  0  0  0  0  0  0  0  0  0  0  0
   15.3297   -5.2545   -7.4341 O   0  0  0  0  0  0  0  0  0  0  0  0
   16.8198   -6.3034   -8.9291 C   0  0  0  0  0  0  0  0  0  0  0  0
   16.8588   -7.1242  -10.1667 C   0  0  2  0  0  0  0  0  0  0  0  0
   16.3220   -8.4480   -9.7944 N   0  0  0  0  0  0  0  0  0  0  0  0
   18.1777   -7.3346  -10.7683 C   0  0  0  0  0  0  0  0  0  0  0  0
   19.1353   -7.7667  -10.0998 O   0  0  0  0  0  0  0  0  0  0  0  0
   19.3704   -9.6893  -13.0944 C   0  0  0  0  0  0  0  0  0  0  0  0
   19.6389   -8.3788  -13.7825 C   0  0  1  0  0  0  0  0  0  0  0  0
   18.7399   -8.1410  -14.7844 O   0  0  0  0  0  0  0  0  0  0  0  0
   19.6741   -7.3049  -12.7247 C   0  0  2  0  0  0  0  0  0  0  0  0
   18.3936   -7.0473  -12.1393 N   0  0  0  0  0  0  0  0  0  0  0  0
   20.3019   -6.0482  -13.2598 C   0  0  0  0  0  0  0  0  0  0  0  0
   21.6205   -6.0451  -13.6924 O   0  0  0  0  0  0  0  0  0  0  0  0
   19.6676   -4.9646  -13.3364 O   0  0  0  0  0  0  0  0  0  0  0  0
  2  1  1  0
  2  3  1  0
  3  5  1  0
  3  4  1  6
  5 12  1  0
  6  5  2  0
  7  8  1  0
  8  9  2  0
 10  8  1  0
 11 10  1  1
 11 13  1  0
 12 11  1  0
 13 14  2  0
 13 19  1  0
 16 17  1  0
 16 15  1  1
 18 16  1  0
 18 19  1  6
 20 18  1  0
 20 21  1  0
 22 20  2  0
M  END
$$$$
