SNT.pdb
     RDKit          3D

 22 21  0  0  1  0  0  0  0  0999 V2000
   16.8002  -15.0668  -14.0371 O   0  0  0  0  0  0  0  0  0  0  0  0
   17.4510  -13.9142  -14.5060 C   0  0  0  0  0  0  0  0  0  0  0  0
   17.6736  -13.9842  -16.0055 C   0  0  2  0  0  0  0  0  0  0  0  0
   18.5247  -15.1066  -16.3585 N   0  0  0  0  0  0  0  0  0  0  0  0
   18.2986  -12.7204  -16.4329 C   0  0  0  0  0  0  0  0  0  0  0  0
   19.4671  -12.7193  -16.8631 O   0  0  0  0  0  0  0  0  0  0  0  0
   14.6205   -9.4252  -16.5410 N   0  0  0  0  0  0  0  0  0  0  0  0
   16.0039   -9.0163  -16.4215 C   0  0  0  0  0  0  0  0  0  0  0  0
   16.3205   -8.2797  -15.4792 O   0  0  0  0  0  0  0  0  0  0  0  0
   16.9777   -9.4759  -17.4009 C   0  0  0  0  0  0  0  0  0  0  0  0
   18.1364  -10.2598  -16.9013 C   0  0  2  0  0  0  0  0  0  0  0  0
   17.5763  -11.5121  -16.3560 N   0  0  0  0  0  0  0  0  0  0  0  0
   18.9385   -9.6370  -15.8455 C   0  0  0  0  0  0  0  0  0  0  0  0
   18.6900   -9.8312  -14.6408 O   0  0  0  0  0  0  0  0  0  0  0  0
   22.5109   -9.9927  -15.0159 C   0  0  0  0  0  0  0  0  0  0  0  0
   22.3041   -8.5302  -15.3014 C   0  0  1  0  0  0  0  0  0  0  0  0
   22.8060   -8.1783  -16.5232 O   0  0  0  0  0  0  0  0  0  0  0  0
   20.8349   -8.2345  -15.1354 C   0  0  2  0  0  0  0  0  0  0  0  0
   20.0261   -8.7910  -16.1771 N   0  0  0  0  0  0  0  0  0  0  0  0
   20.6012   -6.7576  -14.9812 C   0  0  0  0  0  0  0  0  0  0  0  0
   21.2228   -6.0455  -13.9653 O   0  0  0  0  0  0  0  0  0  0  0  0
   19.8444   -6.1165  -15.7550 O   0  0  0  0  0  0  0  0  0  0  0  0
  2  1  1  0
  2  3  1  0
  3  5  1  0
  3  4  1  1
  5 12  1  0
  6  5  2  0
  7  8  1  0
  8  9  2  0
 10  8  1  0
 11 10  1  1
 11 13  1  0
 12 11  1  0
 13 14  2  0
 13 19  1  0
 16 17  1  0
 16 15  1  6
 18 16  1  0
 18 19  1  6
 20 18  1  0
 20 21  1  0
 22 20  2  0
M  END
$$$$
