SNT.pdb
     RDKit          3D

 22 21  0  0  1  0  0  0  0  0999 V2000
   20.9441  -14.5090  -15.2558 O   0  0  0  0  0  0  0  0  0  0  0  0
   19.5572  -14.6956  -15.3708 C   0  0  0  0  0  0  0  0  0  0  0  0
   19.0646  -14.2964  -16.7496 C   0  0  2  0  0  0  0  0  0  0  0  0
   19.9659  -14.7674  -17.7862 N   0  0  0  0  0  0  0  0  0  0  0  0
   18.9683  -12.8269  -16.7913 C   0  0  0  0  0  0  0  0  0  0  0  0
   19.5734  -12.1893  -17.6731 O   0  0  0  0  0  0  0  0  0  0  0  0
   14.3379  -11.4401  -15.9280 N   0  0  0  0  0  0  0  0  0  0  0  0
   15.5237  -10.7686  -16.4158 C   0  0  0  0  0  0  0  0  0  0  0  0
   15.5928  -10.4977  -17.6210 O   0  0  0  0  0  0  0  0  0  0  0  0
   16.5937  -10.4320  -15.4881 C   0  0  0  0  0  0  0  0  0  0  0  0
   17.9897  -10.6818  -15.9303 C   0  0  2  0  0  0  0  0  0  0  0  0
   18.1923  -12.1410  -15.8347 N   0  0  0  0  0  0  0  0  0  0  0  0
   19.0468  -10.0361  -15.1484 C   0  0  0  0  0  0  0  0  0  0  0  0
   19.1908  -10.2688  -13.9336 O   0  0  0  0  0  0  0  0  0  0  0  0
   22.6996  -10.1461  -15.3661 C   0  0  0  0  0  0  0  0  0  0  0  0
   22.3443   -8.6951  -15.5439 C   0  0  1  0  0  0  0  0  0  0  0  0
   22.4823   -8.2970  -16.8443 O   0  0  0  0  0  0  0  0  0  0  0  0
   20.9585   -8.4913  -14.9856 C   0  0  2  0  0  0  0  0  0  0  0  0
   19.9375   -9.1225  -15.7654 N   0  0  0  0  0  0  0  0  0  0  0  0
   20.6750   -7.0294  -14.7803 C   0  0  0  0  0  0  0  0  0  0  0  0
   21.4822   -6.2618  -13.9528 O   0  0  0  0  0  0  0  0  0  0  0  0
   19.7092   -6.4508  -15.3415 O   0  0  0  0  0  0  0  0  0  0  0  0
  2  1  1  0
  2  3  1  0
  3  5  1  0
  3  4  1  6
  5 12  1  0
  6  5  2  0
  7  8  1  0
  8  9  2  0
 10  8  1  0
 11 10  1  1
 11 13  1  0
 12 11  1  0
 13 14  2  0
 13 19  1  0
 16 17  1  0
 16 15  1  6
 18 16  1  0
 18 19  1  6
 20 18  1  0
 20 21  1  0
 22 20  2  0
M  END
$$$$
