PHP.pdb
     RDKit          3D

 25 27  0  0  1  0  0  0  0  0999 V2000
    8.7596  -15.0585   19.7890 N   0  0  0  0  0  0  0  0  0  0  0  0
    9.2185  -14.5559   18.4864 C   0  0  0  0  0  0  0  0  0  0  0  0
    8.1189  -13.5674   18.0846 C   0  0  0  0  0  0  0  0  0  0  0  0
    7.3600  -13.2841   19.3888 C   0  0  0  0  0  0  0  0  0  0  0  0
    8.3126  -13.8080   20.4017 C   0  0  1  0  0  0  0  0  0  0  0  0
    7.7622  -14.0354   21.7434 C   0  0  0  0  0  0  0  0  0  0  0  0
    7.1420  -13.0929   22.3507 O   0  0  0  0  0  0  0  0  0  0  0  0
    7.9297  -15.3091   22.3424 N   0  0  0  0  0  0  0  0  0  0  0  0
    7.3666  -15.5849   23.6764 C   0  0  1  0  0  0  0  0  0  0  0  0
    7.3718  -17.0881   23.8801 C   0  0  0  0  0  0  0  0  0  0  0  0
    6.4746  -17.7447   22.9068 C   0  0  0  0  0  0  0  0  0  0  0  0
    5.1282  -17.5844   22.7274 C   0  0  0  0  0  0  0  0  0  0  0  0
    4.7260  -18.3107   21.6409 N   0  0  0  0  0  0  0  0  0  0  0  0
    5.8081  -18.9166   21.1461 C   0  0  0  0  0  0  0  0  0  0  0  0
    6.8517  -18.5797   21.9000 N   0  0  0  0  0  0  0  0  0  0  0  0
    8.2843  -15.0299   24.6837 C   0  0  0  0  0  0  0  0  0  0  0  0
    9.4529  -15.5331   24.7972 O   0  0  0  0  0  0  0  0  0  0  0  0
    7.9914  -13.9819   25.5472 N   0  0  0  0  0  0  0  0  0  0  0  0
    6.7840  -13.2052   25.6219 C   0  0  0  0  0  0  0  0  0  0  0  0
    6.7221  -12.9453   27.1555 C   0  0  0  0  0  0  0  0  0  0  0  0
    8.1350  -12.3895   27.3009 C   0  0  0  0  0  0  0  0  0  0  0  0
    8.9112  -13.4924   26.6244 C   0  0  1  0  0  0  0  0  0  0  0  0
    9.1612  -14.5759   27.5873 C   0  0  0  0  0  0  0  0  0  0  0  0
    8.3380  -15.6835   27.6721 O   0  0  0  0  0  0  0  0  0  0  0  0
   10.1447  -14.5049   28.3583 O   0  0  0  0  0  0  0  0  0  0  0  0
  1  2  1  0
  3  2  1  0
  4  5  1  0
  4  3  1  0
  5  1  1  0
  5  6  1  1
  6  7  2  0
  8  6  1  0
  8  9  1  0
  9 16  1  0
  9 10  1  1
 10 11  1  0
 11 12  2  0
 11 15  1  0
 12 13  1  0
 13 14  1  0
 15 14  2  0
 16 17  2  0
 18 16  1  0
 18 22  1  0
 19 18  1  0
 20 19  1  0
 20 21  1  0
 21 22  1  0
 22 23  1  1
 23 25  2  0
 23 24  1  0
M  END
$$$$
