PHP.pdb
     RDKit          3D

 25 27  0  0  1  0  0  0  0  0999 V2000
    7.6962  -15.0342   19.0702 N   0  0  0  0  0  0  0  0  0  0  0  0
    8.5566  -14.4619   18.0252 C   0  0  0  0  0  0  0  0  0  0  0  0
    8.7084  -12.9998   18.4577 C   0  0  0  0  0  0  0  0  0  0  0  0
    8.2742  -12.9864   19.9303 C   0  0  0  0  0  0  0  0  0  0  0  0
    8.3046  -14.4354   20.2577 C   0  0  1  0  0  0  0  0  0  0  0  0
    7.5961  -14.8321   21.4807 C   0  0  0  0  0  0  0  0  0  0  0  0
    6.3223  -14.9699   21.4682 O   0  0  0  0  0  0  0  0  0  0  0  0
    8.3475  -15.0584   22.6610 N   0  0  0  0  0  0  0  0  0  0  0  0
    7.6646  -15.3494   23.9345 C   0  0  1  0  0  0  0  0  0  0  0  0
    7.8816  -16.8168   24.2522 C   0  0  0  0  0  0  0  0  0  0  0  0
    7.0482  -17.6644   23.3747 C   0  0  0  0  0  0  0  0  0  0  0  0
    5.7288  -18.0028   23.4991 C   0  0  0  0  0  0  0  0  0  0  0  0
    5.3389  -18.7187   22.4013 N   0  0  0  0  0  0  0  0  0  0  0  0
    6.4013  -18.8255   21.5994 C   0  0  0  0  0  0  0  0  0  0  0  0
    7.4213  -18.1968   22.1787 N   0  0  0  0  0  0  0  0  0  0  0  0
    8.3418  -14.5932   24.9996 C   0  0  0  0  0  0  0  0  0  0  0  0
    9.5923  -14.7757   25.1861 O   0  0  0  0  0  0  0  0  0  0  0  0
    7.7326  -13.6748   25.8453 N   0  0  0  0  0  0  0  0  0  0  0  0
    6.3768  -13.1984   25.8082 C   0  0  0  0  0  0  0  0  0  0  0  0
    6.1093  -13.0201   27.3313 C   0  0  0  0  0  0  0  0  0  0  0  0
    7.3344  -12.1621   27.6298 C   0  0  0  0  0  0  0  0  0  0  0  0
    8.4062  -13.0307   27.0189 C   0  0  1  0  0  0  0  0  0  0  0  0
    8.8064  -14.0653   27.9848 C   0  0  0  0  0  0  0  0  0  0  0  0
    9.7592  -13.8279   28.9582 O   0  0  0  0  0  0  0  0  0  0  0  0
    8.2763  -15.1980   27.9348 O   0  0  0  0  0  0  0  0  0  0  0  0
  1  2  1  0
  3  2  1  0
  4  5  1  0
  4  3  1  0
  5  1  1  0
  5  6  1  1
  6  7  2  0
  8  6  1  0
  8  9  1  0
  9 16  1  0
  9 10  1  1
 10 11  1  0
 11 12  2  0
 11 15  1  0
 12 13  1  0
 13 14  1  0
 15 14  2  0
 16 17  2  0
 18 16  1  0
 18 22  1  0
 19 18  1  0
 20 19  1  0
 20 21  1  0
 21 22  1  0
 22 23  1  1
 23 25  2  0
 23 24  1  0
M  END
$$$$
