PHP.pdb
     RDKit          3D

 25 27  0  0  1  0  0  0  0  0999 V2000
    8.9092  -15.0214   20.0190 N   0  0  0  0  0  0  0  0  0  0  0  0
    9.2776  -14.4570   18.7129 C   0  0  0  0  0  0  0  0  0  0  0  0
    8.1619  -13.4422   18.4421 C   0  0  0  0  0  0  0  0  0  0  0  0
    7.5026  -13.2199   19.8107 C   0  0  0  0  0  0  0  0  0  0  0  0
    8.5208  -13.8004   20.7240 C   0  0  1  0  0  0  0  0  0  0  0  0
    8.0669  -14.0913   22.0894 C   0  0  0  0  0  0  0  0  0  0  0  0
    7.4046  -13.2129   22.7462 O   0  0  0  0  0  0  0  0  0  0  0  0
    8.3737  -15.3540   22.6555 N   0  0  0  0  0  0  0  0  0  0  0  0
    7.8674  -15.7140   23.9922 C   0  0  1  0  0  0  0  0  0  0  0  0
    7.7363  -17.2243   24.0470 C   0  0  0  0  0  0  0  0  0  0  0  0
    6.6904  -17.6867   23.1112 C   0  0  0  0  0  0  0  0  0  0  0  0
    5.3313  -17.6850   23.2645 C   0  0  0  0  0  0  0  0  0  0  0  0
    4.7435  -18.1043   22.1033 N   0  0  0  0  0  0  0  0  0  0  0  0
    5.7233  -18.3637   21.2339 C   0  0  0  0  0  0  0  0  0  0  0  0
    6.8849  -18.1147   21.8338 N   0  0  0  0  0  0  0  0  0  0  0  0
    8.8943  -15.3539   24.9824 C   0  0  0  0  0  0  0  0  0  0  0  0
   10.0226  -15.9518   24.9461 O   0  0  0  0  0  0  0  0  0  0  0  0
    8.7484  -14.3992   25.9809 N   0  0  0  0  0  0  0  0  0  0  0  0
    7.6288  -13.5297   26.2199 C   0  0  0  0  0  0  0  0  0  0  0  0
    7.6666  -13.4585   27.7745 C   0  0  0  0  0  0  0  0  0  0  0  0
    9.1329  -13.0582   27.9006 C   0  0  0  0  0  0  0  0  0  0  0  0
    9.7628  -14.1351   27.0520 C   0  0  1  0  0  0  0  0  0  0  0  0
    9.9501  -15.3485   27.8619 C   0  0  0  0  0  0  0  0  0  0  0  0
   11.0350  -15.5055   28.7044 O   0  0  0  0  0  0  0  0  0  0  0  0
    9.1095  -16.2736   27.7955 O   0  0  0  0  0  0  0  0  0  0  0  0
  1  2  1  0
  3  2  1  0
  4  5  1  0
  4  3  1  0
  5  1  1  0
  5  6  1  1
  6  7  2  0
  8  6  1  0
  8  9  1  0
  9 16  1  0
  9 10  1  6
 10 11  1  0
 11 12  2  0
 11 15  1  0
 12 13  1  0
 13 14  1  0
 15 14  2  0
 16 17  2  0
 18 16  1  0
 18 22  1  0
 19 18  1  0
 20 19  1  0
 20 21  1  0
 21 22  1  0
 22 23  1  1
 23 25  2  0
 23 24  1  0
M  END
$$$$
