PHP.pdb
     RDKit          3D

 25 27  0  0  1  0  0  0  0  0999 V2000
    8.4430  -15.2258   19.7254 N   0  0  0  0  0  0  0  0  0  0  0  0
    8.7531  -14.6801   18.3965 C   0  0  0  0  0  0  0  0  0  0  0  0
    7.7588  -13.5233   18.2516 C   0  0  0  0  0  0  0  0  0  0  0  0
    7.2708  -13.2532   19.6820 C   0  0  0  0  0  0  0  0  0  0  0  0
    8.2882  -13.9836   20.4814 C   0  0  1  0  0  0  0  0  0  0  0  0
    7.9353  -14.2487   21.8815 C   0  0  0  0  0  0  0  0  0  0  0  0
    7.7247  -13.2738   22.6858 O   0  0  0  0  0  0  0  0  0  0  0  0
    7.8322  -15.5940   22.3157 N   0  0  0  0  0  0  0  0  0  0  0  0
    7.4134  -15.9016   23.6950 C   0  0  1  0  0  0  0  0  0  0  0  0
    7.6090  -17.3893   23.9181 C   0  0  0  0  0  0  0  0  0  0  0  0
    7.2053  -17.7639   25.2893 C   0  0  0  0  0  0  0  0  0  0  0  0
    6.4253  -17.0773   26.1786 C   0  0  0  0  0  0  0  0  0  0  0  0
    6.2220  -17.8462   27.2910 N   0  0  0  0  0  0  0  0  0  0  0  0
    6.8659  -19.0000   27.0988 C   0  0  0  0  0  0  0  0  0  0  0  0
    7.4525  -18.9523   25.9052 N   0  0  0  0  0  0  0  0  0  0  0  0
    8.3383  -15.2223   24.6159 C   0  0  0  0  0  0  0  0  0  0  0  0
    9.5670  -15.5717   24.6250 O   0  0  0  0  0  0  0  0  0  0  0  0
    7.9917  -14.2094   25.5012 N   0  0  0  0  0  0  0  0  0  0  0  0
    6.7001  -13.6116   25.7033 C   0  0  0  0  0  0  0  0  0  0  0  0
    6.7660  -13.3320   27.2332 C   0  0  0  0  0  0  0  0  0  0  0  0
    8.0915  -12.5775   27.2212 C   0  0  0  0  0  0  0  0  0  0  0  0
    8.9415  -13.5719   26.4694 C   0  0  1  0  0  0  0  0  0  0  0  0
    9.4466  -14.5888   27.4046 C   0  0  0  0  0  0  0  0  0  0  0  0
   10.5679  -14.3731   28.1841 O   0  0  0  0  0  0  0  0  0  0  0  0
    8.8527  -15.6858   27.5070 O   0  0  0  0  0  0  0  0  0  0  0  0
  1  2  1  0
  3  2  1  0
  4  5  1  0
  4  3  1  0
  5  1  1  0
  5  6  1  1
  6  7  2  0
  8  6  1  0
  8  9  1  0
  9 16  1  0
  9 10  1  6
 10 11  1  0
 11 12  2  0
 11 15  1  0
 12 13  1  0
 13 14  1  0
 15 14  2  0
 16 17  2  0
 18 16  1  0
 18 22  1  0
 19 18  1  0
 20 19  1  0
 20 21  1  0
 21 22  1  0
 22 23  1  1
 23 25  2  0
 23 24  1  0
M  END
$$$$
