PHP.pdb
     RDKit          3D

 25 27  0  0  1  0  0  0  0  0999 V2000
    9.3691  -17.8418   21.4811 N   0  0  0  0  0  0  0  0  0  0  0  0
    9.8647  -18.3648   20.2000 C   0  0  0  0  0  0  0  0  0  0  0  0
    9.2628  -17.4015   19.1716 C   0  0  0  0  0  0  0  0  0  0  0  0
    8.8365  -16.1770   19.9938 C   0  0  0  0  0  0  0  0  0  0  0  0
    9.5685  -16.4091   21.2658 C   0  0  1  0  0  0  0  0  0  0  0  0
    9.1132  -15.6253   22.4206 C   0  0  0  0  0  0  0  0  0  0  0  0
    9.0612  -14.3471   22.3481 O   0  0  0  0  0  0  0  0  0  0  0  0
    8.7351  -16.3095   23.6028 N   0  0  0  0  0  0  0  0  0  0  0  0
    8.3398  -15.5554   24.8060 C   0  0  1  0  0  0  0  0  0  0  0  0
    7.0464  -16.1547   25.3248 C   0  0  0  0  0  0  0  0  0  0  0  0
    7.0296  -17.6160   25.1062 C   0  0  0  0  0  0  0  0  0  0  0  0
    7.3998  -18.3286   23.9990 C   0  0  0  0  0  0  0  0  0  0  0  0
    7.3224  -19.6659   24.2739 N   0  0  0  0  0  0  0  0  0  0  0  0
    6.9101  -19.7878   25.5381 C   0  0  0  0  0  0  0  0  0  0  0  0
    6.7354  -18.5659   26.0356 N   0  0  0  0  0  0  0  0  0  0  0  0
    9.3509  -15.7940   25.8479 C   0  0  0  0  0  0  0  0  0  0  0  0
   10.0468  -16.8641   25.7984 O   0  0  0  0  0  0  0  0  0  0  0  0
    9.6273  -14.9423   26.9099 N   0  0  0  0  0  0  0  0  0  0  0  0
    9.0036  -13.6859   27.2247 C   0  0  0  0  0  0  0  0  0  0  0  0
    9.0465  -13.7428   28.7797 C   0  0  0  0  0  0  0  0  0  0  0  0
   10.5368  -14.0407   28.9078 C   0  0  0  0  0  0  0  0  0  0  0  0
   10.6384  -15.2256   27.9792 C   0  0  1  0  0  0  0  0  0  0  0  0
   10.2587  -16.4482   28.7035 C   0  0  0  0  0  0  0  0  0  0  0  0
   11.1493  -17.1221   29.5185 O   0  0  0  0  0  0  0  0  0  0  0  0
    9.0980  -16.9022   28.5869 O   0  0  0  0  0  0  0  0  0  0  0  0
  1  2  1  0
  3  2  1  0
  4  5  1  0
  4  3  1  0
  5  1  1  0
  5  6  1  1
  6  7  2  0
  8  6  1  0
  8  9  1  0
  9 16  1  0
  9 10  1  1
 10 11  1  0
 11 12  2  0
 11 15  1  0
 12 13  1  0
 13 14  1  0
 15 14  2  0
 16 17  2  0
 18 16  1  0
 18 22  1  0
 19 18  1  0
 20 19  1  0
 20 21  1  0
 21 22  1  0
 22 23  1  1
 23 25  2  0
 23 24  1  0
M  END
$$$$
