PHP.pdb
     RDKit          3D

 25 27  0  0  1  0  0  0  0  0999 V2000
    8.6754  -15.0462   19.6422 N   0  0  0  0  0  0  0  0  0  0  0  0
    9.0659  -14.4521   18.3559 C   0  0  0  0  0  0  0  0  0  0  0  0
    7.9497  -13.4379   18.0847 C   0  0  0  0  0  0  0  0  0  0  0  0
    7.2625  -13.2484   19.4445 C   0  0  0  0  0  0  0  0  0  0  0  0
    8.2660  -13.8426   20.3651 C   0  0  1  0  0  0  0  0  0  0  0  0
    7.7872  -14.1651   21.7148 C   0  0  0  0  0  0  0  0  0  0  0  0
    7.3259  -13.2387   22.4703 O   0  0  0  0  0  0  0  0  0  0  0  0
    7.8450  -15.5110   22.1555 N   0  0  0  0  0  0  0  0  0  0  0  0
    7.4369  -15.8640   23.5272 C   0  0  1  0  0  0  0  0  0  0  0  0
    7.7013  -17.3448   23.7230 C   0  0  0  0  0  0  0  0  0  0  0  0
    7.4270  -17.7386   25.1205 C   0  0  0  0  0  0  0  0  0  0  0  0
    8.3081  -18.0217   26.1276 C   0  0  0  0  0  0  0  0  0  0  0  0
    7.6169  -18.2348   27.2880 N   0  0  0  0  0  0  0  0  0  0  0  0
    6.3195  -18.0853   27.0102 C   0  0  0  0  0  0  0  0  0  0  0  0
    6.2049  -17.7890   25.7178 N   0  0  0  0  0  0  0  0  0  0  0  0
    8.3261  -15.1597   24.4643 C   0  0  0  0  0  0  0  0  0  0  0  0
    9.5704  -15.4481   24.4686 O   0  0  0  0  0  0  0  0  0  0  0  0
    7.9288  -14.1844   25.3702 N   0  0  0  0  0  0  0  0  0  0  0  0
    6.6271  -13.5941   25.5240 C   0  0  0  0  0  0  0  0  0  0  0  0
    6.6064  -13.3787   27.0656 C   0  0  0  0  0  0  0  0  0  0  0  0
    7.9295  -12.6258   27.1598 C   0  0  0  0  0  0  0  0  0  0  0  0
    8.8218  -13.5889   26.4162 C   0  0  1  0  0  0  0  0  0  0  0  0
    9.2747  -14.6444   27.3350 C   0  0  0  0  0  0  0  0  0  0  0  0
    8.6997  -15.9018   27.3450 O   0  0  0  0  0  0  0  0  0  0  0  0
   10.2073  -14.4102   28.1363 O   0  0  0  0  0  0  0  0  0  0  0  0
  1  2  1  0
  3  2  1  0
  4  5  1  0
  4  3  1  0
  5  1  1  0
  5  6  1  1
  6  7  2  0
  8  6  1  0
  8  9  1  0
  9 16  1  0
  9 10  1  6
 10 11  1  0
 11 12  2  0
 11 15  1  0
 12 13  1  0
 13 14  1  0
 15 14  2  0
 16 17  2  0
 18 16  1  0
 18 22  1  0
 19 18  1  0
 20 19  1  0
 20 21  1  0
 21 22  1  0
 22 23  1  1
 23 25  2  0
 23 24  1  0
M  END
$$$$
