PHP.pdb
     RDKit          3D

 25 27  0  0  1  0  0  0  0  0999 V2000
    9.0213  -14.9663   20.0905 N   0  0  0  0  0  0  0  0  0  0  0  0
    9.4607  -14.4340   18.7929 C   0  0  0  0  0  0  0  0  0  0  0  0
    8.2362  -13.6555   18.3005 C   0  0  0  0  0  0  0  0  0  0  0  0
    7.3717  -13.4633   19.5546 C   0  0  0  0  0  0  0  0  0  0  0  0
    8.3416  -13.7900   20.6318 C   0  0  1  0  0  0  0  0  0  0  0  0
    7.7647  -14.0652   21.9533 C   0  0  0  0  0  0  0  0  0  0  0  0
    6.9079  -13.2585   22.4599 O   0  0  0  0  0  0  0  0  0  0  0  0
    8.1723  -15.2329   22.6456 N   0  0  0  0  0  0  0  0  0  0  0  0
    7.6024  -15.5529   23.9667 C   0  0  1  0  0  0  0  0  0  0  0  0
    7.7150  -17.0520   24.1696 C   0  0  0  0  0  0  0  0  0  0  0  0
    6.8501  -17.7698   23.2105 C   0  0  0  0  0  0  0  0  0  0  0  0
    5.5009  -17.9891   23.2597 C   0  0  0  0  0  0  0  0  0  0  0  0
    5.0995  -18.6058   22.1071 N   0  0  0  0  0  0  0  0  0  0  0  0
    6.1843  -18.7688   21.3459 C   0  0  0  0  0  0  0  0  0  0  0  0
    7.2290  -18.2704   22.0027 N   0  0  0  0  0  0  0  0  0  0  0  0
    8.4542  -14.9335   24.9942 C   0  0  0  0  0  0  0  0  0  0  0  0
    9.6702  -15.3110   25.0969 O   0  0  0  0  0  0  0  0  0  0  0  0
    8.0493  -13.9503   25.8882 N   0  0  0  0  0  0  0  0  0  0  0  0
    6.7812  -13.2760   25.9506 C   0  0  0  0  0  0  0  0  0  0  0  0
    6.6483  -13.0883   27.4902 C   0  0  0  0  0  0  0  0  0  0  0  0
    8.0060  -12.4288   27.7088 C   0  0  0  0  0  0  0  0  0  0  0  0
    8.8907  -13.4363   27.0168 C   0  0  1  0  0  0  0  0  0  0  0  0
    9.1958  -14.5369   27.9437 C   0  0  0  0  0  0  0  0  0  0  0  0
   10.2335  -14.4602   28.8541 O   0  0  0  0  0  0  0  0  0  0  0  0
    8.5031  -15.5791   27.9173 O   0  0  0  0  0  0  0  0  0  0  0  0
  1  2  1  0
  3  2  1  0
  4  5  1  0
  4  3  1  0
  5  1  1  0
  5  6  1  1
  6  7  2  0
  8  6  1  0
  8  9  1  0
  9 16  1  0
  9 10  1  1
 10 11  1  0
 11 12  2  0
 11 15  1  0
 12 13  1  0
 13 14  1  0
 15 14  2  0
 16 17  2  0
 18 16  1  0
 18 22  1  0
 19 18  1  0
 20 19  1  0
 20 21  1  0
 21 22  1  0
 22 23  1  1
 23 25  2  0
 23 24  1  0
M  END
$$$$
