KRG.pdb
     RDKit          3D

 25 24  0  0  1  0  0  0  0  0999 V2000
   21.7497  -20.0304  -14.1294 N   0  0  0  0  0  0  0  0  0  0  0  0
   22.6485  -19.9746  -15.2312 C   0  0  1  0  0  0  0  0  0  0  0  0
   22.1806  -19.1388  -16.3812 C   0  0  0  0  0  0  0  0  0  0  0  0
   21.5913  -19.8516  -17.5301 C   0  0  0  0  0  0  0  0  0  0  0  0
   22.6058  -20.5638  -18.3652 C   0  0  0  0  0  0  0  0  0  0  0  0
   21.9385  -21.1585  -19.5752 C   0  0  0  0  0  0  0  0  0  0  0  0
   22.9231  -21.8402  -20.4268 N   0  0  0  0  0  0  0  0  0  0  0  0
   24.0096  -19.5465  -14.8874 C   0  0  0  0  0  0  0  0  0  0  0  0
   24.2425  -18.3249  -14.7061 O   0  0  0  0  0  0  0  0  0  0  0  0
   25.6641  -19.7476   -8.7326 N   0  0  0  0  0  0  0  0  0  0  0  0
   24.8325  -20.6801   -9.3860 C   0  0  0  0  0  0  0  0  0  0  0  0
   23.5503  -20.5611   -9.3828 N   0  0  0  0  0  0  0  0  0  0  0  0
   25.3650  -21.8164  -10.0939 N   0  0  0  0  0  0  0  0  0  0  0  0
   26.4206  -21.6551  -11.0664 C   0  0  0  0  0  0  0  0  0  0  0  0
   25.8576  -20.9223  -12.2637 C   0  0  0  0  0  0  0  0  0  0  0  0
   26.9343  -20.7993  -13.3033 C   0  0  0  0  0  0  0  0  0  0  0  0
   26.3933  -20.0262  -14.4826 C   0  0  2  0  0  0  0  0  0  0  0  0
   25.0553  -20.4777  -14.7568 N   0  0  0  0  0  0  0  0  0  0  0  0
   27.2948  -20.1804  -15.6338 C   0  0  0  0  0  0  0  0  0  0  0  0
   27.9984  -21.2209  -15.8360 O   0  0  0  0  0  0  0  0  0  0  0  0
   22.8732  -21.1978   -9.8033 N   0  0  0  0  0  0  0  0  0  0  0  0
   27.4001  -19.1275  -16.5784 C   0  0  0  0  0  0  0  0  0  0  0  0
   28.3942  -19.2096  -17.6295 C   0  0  0  0  0  0  0  0  0  0  0  0
   28.3707  -17.9882  -18.4369 O   0  0  0  0  0  0  0  0  0  0  0  0
   29.3186  -17.7961  -19.4243 O   0  0  0  0  0  0  0  0  0  0  0  0
  2  1  1  1
  3  2  1  0
  4  3  1  0
  5  4  1  0
  5  6  1  0
  7  6  1  0
  8  2  1  0
  8  9  2  0
 10 11  1  0
 11 12  2  0
 13 11  1  0
 13 14  1  0
 15 14  1  0
 17 16  1  1
 16 15  1  0
 17 18  1  0
 18  8  1  0
 19 17  1  0
 20 19  2  0
 21 19  1  0
 22 21  1  0
 23 22  1  0
 24 23  1  0
 25 23  2  0
M  END
$$$$
