KRG.pdb
     RDKit          3D

 25 24  0  0  1  0  0  0  0  0999 V2000
   27.8663  -24.6587  -16.3209 N   0  0  0  0  0  0  0  0  0  0  0  0
   27.6040  -23.3152  -16.7095 C   0  0  1  0  0  0  0  0  0  0  0  0
   27.6261  -23.0732  -18.1863 C   0  0  0  0  0  0  0  0  0  0  0  0
   27.8015  -24.2523  -19.0548 C   0  0  0  0  0  0  0  0  0  0  0  0
   26.8076  -24.3167  -20.1691 C   0  0  0  0  0  0  0  0  0  0  0  0
   27.0093  -25.5833  -20.9552 C   0  0  0  0  0  0  0  0  0  0  0  0
   25.9844  -25.7126  -22.0004 N   0  0  0  0  0  0  0  0  0  0  0  0
   26.3524  -22.7601  -16.1807 C   0  0  0  0  0  0  0  0  0  0  0  0
   25.2764  -23.3812  -16.3694 O   0  0  0  0  0  0  0  0  0  0  0  0
   26.0313  -19.8852   -8.6565 N   0  0  0  0  0  0  0  0  0  0  0  0
   24.9385  -20.6185   -9.1625 C   0  0  0  0  0  0  0  0  0  0  0  0
   23.7772  -20.5702   -8.6082 N   0  0  0  0  0  0  0  0  0  0  0  0
   25.0548  -21.4614  -10.3252 N   0  0  0  0  0  0  0  0  0  0  0  0
   26.1822  -21.3382  -11.2196 C   0  0  0  0  0  0  0  0  0  0  0  0
   25.7587  -21.8201  -12.5892 C   0  0  0  0  0  0  0  0  0  0  0  0
   25.4420  -20.6262  -13.4434 C   0  0  0  0  0  0  0  0  0  0  0  0
   25.1228  -21.0940  -14.8436 C   0  0  2  0  0  0  0  0  0  0  0  0
   26.3368  -21.5484  -15.4673 N   0  0  0  0  0  0  0  0  0  0  0  0
   24.4672  -20.0115  -15.5919 C   0  0  0  0  0  0  0  0  0  0  0  0
   25.0810  -18.9770  -16.0061 O   0  0  0  0  0  0  0  0  0  0  0  0
   22.9285  -21.0438   -8.9180 N   0  0  0  0  0  0  0  0  0  0  0  0
   23.0809  -20.1057  -15.8769 C   0  0  0  0  0  0  0  0  0  0  0  0
   22.4255  -19.0299  -16.5929 C   0  0  0  0  0  0  0  0  0  0  0  0
   21.3363  -18.4805  -15.7830 O   0  0  0  0  0  0  0  0  0  0  0  0
   20.5463  -17.4649  -16.2879 O   0  0  0  0  0  0  0  0  0  0  0  0
  2  1  1  6
  3  2  1  0
  4  3  1  0
  5  4  1  0
  5  6  1  0
  7  6  1  0
  8  2  1  0
  8  9  2  0
 10 11  1  0
 11 12  2  0
 13 11  1  0
 13 14  1  0
 15 14  1  0
 17 16  1  1
 16 15  1  0
 17 18  1  0
 18  8  1  0
 19 17  1  0
 20 19  2  0
 21 19  1  0
 22 21  1  0
 23 22  1  0
 24 23  1  0
 25 23  2  0
M  END
$$$$
