KRG.pdb
     RDKit          3D

 25 24  0  0  1  0  0  0  0  0999 V2000
   25.6829  -26.1288  -16.1405 N   0  0  0  0  0  0  0  0  0  0  0  0
   26.1536  -24.7947  -16.2929 C   0  0  1  0  0  0  0  0  0  0  0  0
   26.4419  -24.3881  -17.7042 C   0  0  0  0  0  0  0  0  0  0  0  0
   27.4198  -25.2034  -18.4486 C   0  0  0  0  0  0  0  0  0  0  0  0
   28.7866  -25.1820  -17.8443 C   0  0  0  0  0  0  0  0  0  0  0  0
   29.7558  -25.8803  -18.7587 C   0  0  0  0  0  0  0  0  0  0  0  0
   31.1189  -25.8176  -18.2134 N   0  0  0  0  0  0  0  0  0  0  0  0
   25.2877  -23.7703  -15.6969 C   0  0  0  0  0  0  0  0  0  0  0  0
   24.0512  -23.9803  -15.6182 O   0  0  0  0  0  0  0  0  0  0  0  0
   24.0065  -20.4438   -9.8296 N   0  0  0  0  0  0  0  0  0  0  0  0
   25.2985  -20.5769   -9.2807 C   0  0  0  0  0  0  0  0  0  0  0  0
   25.4921  -20.6111   -8.0081 N   0  0  0  0  0  0  0  0  0  0  0  0
   26.4740  -20.6828  -10.1070 N   0  0  0  0  0  0  0  0  0  0  0  0
   26.4793  -20.1695  -11.4570 C   0  0  0  0  0  0  0  0  0  0  0  0
   25.6329  -21.0815  -12.3168 C   0  0  0  0  0  0  0  0  0  0  0  0
   25.7760  -20.6608  -13.7513 C   0  0  0  0  0  0  0  0  0  0  0  0
   24.9486  -21.5800  -14.6183 C   0  0  2  0  0  0  0  0  0  0  0  0
   25.8169  -22.5607  -15.2127 N   0  0  0  0  0  0  0  0  0  0  0  0
   24.2108  -20.7914  -15.6161 C   0  0  0  0  0  0  0  0  0  0  0  0
   24.7792  -20.1120  -16.5292 O   0  0  0  0  0  0  0  0  0  0  0  0
   26.3833  -20.7255   -7.5252 N   0  0  0  0  0  0  0  0  0  0  0  0
   22.7930  -20.7737  -15.5761 C   0  0  0  0  0  0  0  0  0  0  0  0
   22.0609  -20.0238  -16.5767 C   0  0  0  0  0  0  0  0  0  0  0  0
   20.6242  -20.0933  -16.3022 O   0  0  0  0  0  0  0  0  0  0  0  0
   19.7421  -19.3360  -17.0498 O   0  0  0  0  0  0  0  0  0  0  0  0
  2  1  1  6
  3  2  1  0
  4  3  1  0
  5  4  1  0
  5  6  1  0
  7  6  1  0
  8  2  1  0
  8  9  2  0
 10 11  1  0
 11 12  2  0
 13 11  1  0
 13 14  1  0
 15 14  1  0
 17 16  1  6
 16 15  1  0
 17 18  1  0
 18  8  1  0
 19 17  1  0
 20 19  2  0
 21 19  1  0
 22 21  1  0
 23 22  1  0
 24 23  1  0
 25 23  2  0
M  END
$$$$
