KRG.pdb
     RDKit          3D

 25 24  0  0  1  0  0  0  0  0999 V2000
   25.8163  -25.2238  -16.1586 N   0  0  0  0  0  0  0  0  0  0  0  0
   26.3088  -23.9450  -15.7753 C   0  0  1  0  0  0  0  0  0  0  0  0
   26.8831  -23.1327  -16.8934 C   0  0  0  0  0  0  0  0  0  0  0  0
   26.2010  -23.2143  -18.1985 C   0  0  0  0  0  0  0  0  0  0  0  0
   26.8481  -22.3785  -19.2551 C   0  0  0  0  0  0  0  0  0  0  0  0
   26.0801  -22.5053  -20.5424 C   0  0  0  0  0  0  0  0  0  0  0  0
   26.7095  -21.7046  -21.6017 N   0  0  0  0  0  0  0  0  0  0  0  0
   25.3387  -23.1064  -15.0612 C   0  0  0  0  0  0  0  0  0  0  0  0
   24.1118  -23.2570  -15.2874 O   0  0  0  0  0  0  0  0  0  0  0  0
   25.8542  -19.7104   -7.2863 N   0  0  0  0  0  0  0  0  0  0  0  0
   24.9251  -20.6334   -7.8087 C   0  0  0  0  0  0  0  0  0  0  0  0
   23.9211  -21.0471   -7.1165 N   0  0  0  0  0  0  0  0  0  0  0  0
   25.0422  -21.1660   -9.1422 N   0  0  0  0  0  0  0  0  0  0  0  0
   26.0625  -20.6858  -10.0447 C   0  0  0  0  0  0  0  0  0  0  0  0
   25.9381  -21.4404  -11.3495 C   0  0  0  0  0  0  0  0  0  0  0  0
   25.4795  -20.4872  -12.4155 C   0  0  0  0  0  0  0  0  0  0  0  0
   24.7946  -21.2680  -13.5119 C   0  0  2  0  0  0  0  0  0  0  0  0
   25.7577  -22.1398  -14.1297 N   0  0  0  0  0  0  0  0  0  0  0  0
   24.1694  -20.3407  -14.4664 C   0  0  0  0  0  0  0  0  0  0  0  0
   24.8187  -19.7273  -15.3723 O   0  0  0  0  0  0  0  0  0  0  0  0
   23.2069  -21.7144   -7.4085 N   0  0  0  0  0  0  0  0  0  0  0  0
   22.7729  -20.1041  -14.3904 C   0  0  0  0  0  0  0  0  0  0  0  0
   22.1644  -19.1363  -15.2809 C   0  0  0  0  0  0  0  0  0  0  0  0
   21.6628  -19.8076  -16.4818 O   0  0  0  0  0  0  0  0  0  0  0  0
   20.9529  -19.0908  -17.4266 O   0  0  0  0  0  0  0  0  0  0  0  0
  2  1  1  6
  3  2  1  0
  4  3  1  0
  5  4  1  0
  5  6  1  0
  7  6  1  0
  8  2  1  0
  8  9  2  0
 10 11  1  0
 11 12  2  0
 13 11  1  0
 13 14  1  0
 15 14  1  0
 17 16  1  1
 16 15  1  0
 17 18  1  0
 18  8  1  0
 19 17  1  0
 20 19  2  0
 21 19  1  0
 22 21  1  0
 23 22  1  0
 24 23  1  0
 25 23  2  0
M  END
$$$$
