KRG.pdb
     RDKit          3D

 25 24  0  0  1  0  0  0  0  0999 V2000
   26.5996  -19.0029  -16.5804 N   0  0  0  0  0  0  0  0  0  0  0  0
   26.8117  -20.3214  -17.0715 C   0  0  1  0  0  0  0  0  0  0  0  0
   28.1492  -20.5481  -17.7039 C   0  0  0  0  0  0  0  0  0  0  0  0
   28.4101  -19.8595  -18.9818 C   0  0  0  0  0  0  0  0  0  0  0  0
   28.3409  -20.7687  -20.1661 C   0  0  0  0  0  0  0  0  0  0  0  0
   28.6251  -19.9889  -21.4207 C   0  0  0  0  0  0  0  0  0  0  0  0
   28.6365  -20.8774  -22.5910 N   0  0  0  0  0  0  0  0  0  0  0  0
   26.5955  -21.3835  -16.0818 C   0  0  0  0  0  0  0  0  0  0  0  0
   26.8041  -22.5791  -16.4077 O   0  0  0  0  0  0  0  0  0  0  0  0
   23.6557  -19.7903  -10.1060 N   0  0  0  0  0  0  0  0  0  0  0  0
   24.4089  -20.6704   -9.3021 C   0  0  0  0  0  0  0  0  0  0  0  0
   23.9137  -21.2097   -8.2427 N   0  0  0  0  0  0  0  0  0  0  0  0
   25.7712  -21.0182   -9.6166 N   0  0  0  0  0  0  0  0  0  0  0  0
   26.5008  -20.3046  -10.6386 C   0  0  0  0  0  0  0  0  0  0  0  0
   25.8565  -20.5961  -11.9755 C   0  0  0  0  0  0  0  0  0  0  0  0
   26.4442  -21.8631  -12.5275 C   0  0  0  0  0  0  0  0  0  0  0  0
   25.8187  -22.1505  -13.8719 C   0  0  2  0  0  0  0  0  0  0  0  0
   26.1606  -21.0868  -14.7778 N   0  0  0  0  0  0  0  0  0  0  0  0
   24.3668  -22.3241  -13.7176 C   0  0  0  0  0  0  0  0  0  0  0  0
   23.8424  -23.2949  -13.0843 O   0  0  0  0  0  0  0  0  0  0  0  0
   24.3698  -21.8807   -7.6244 N   0  0  0  0  0  0  0  0  0  0  0  0
   23.4889  -21.3723  -14.2968 C   0  0  0  0  0  0  0  0  0  0  0  0
   22.0572  -21.5421  -14.1516 C   0  0  0  0  0  0  0  0  0  0  0  0
   21.4406  -21.7362  -15.4655 O   0  0  0  0  0  0  0  0  0  0  0  0
   20.0685  -21.8651  -15.5707 O   0  0  0  0  0  0  0  0  0  0  0  0
  2  1  1  1
  3  2  1  0
  4  3  1  0
  5  4  1  0
  5  6  1  0
  7  6  1  0
  8  2  1  0
  8  9  2  0
 10 11  1  0
 11 12  2  0
 13 11  1  0
 13 14  1  0
 15 14  1  0
 17 16  1  1
 16 15  1  0
 17 18  1  0
 18  8  1  0
 19 17  1  0
 20 19  2  0
 21 19  1  0
 22 21  1  0
 23 22  1  0
 24 23  1  0
 25 23  2  0
M  END
$$$$
