KRG.pdb
     RDKit          3D

 25 24  0  0  1  0  0  0  0  0999 V2000
   25.0899  -21.9625  -15.1508 N   0  0  0  0  0  0  0  0  0  0  0  0
   24.3918  -20.9160  -14.4859 C   0  0  1  0  0  0  0  0  0  0  0  0
   24.4539  -19.5863  -15.1702 C   0  0  0  0  0  0  0  0  0  0  0  0
   25.7926  -19.0044  -15.3811 C   0  0  0  0  0  0  0  0  0  0  0  0
   26.4486  -19.4755  -16.6387 C   0  0  0  0  0  0  0  0  0  0  0  0
   27.7915  -18.8142  -16.7880 C   0  0  0  0  0  0  0  0  0  0  0  0
   28.4317  -19.2207  -18.0467 N   0  0  0  0  0  0  0  0  0  0  0  0
   22.9827  -21.2091  -14.1979 C   0  0  0  0  0  0  0  0  0  0  0  0
   22.3241  -21.9130  -15.0040 O   0  0  0  0  0  0  0  0  0  0  0  0
   19.0315  -24.2834   -8.3623 N   0  0  0  0  0  0  0  0  0  0  0  0
   18.1720  -24.1846   -9.4756 C   0  0  0  0  0  0  0  0  0  0  0  0
   16.8933  -24.2744   -9.3526 N   0  0  0  0  0  0  0  0  0  0  0  0
   18.6704  -23.9774  -10.8115 N   0  0  0  0  0  0  0  0  0  0  0  0
   19.8691  -23.2059  -11.0435 C   0  0  0  0  0  0  0  0  0  0  0  0
   19.5193  -21.7384  -10.9372 C   0  0  0  0  0  0  0  0  0  0  0  0
   20.7334  -20.9271  -11.2878 C   0  0  0  0  0  0  0  0  0  0  0  0
   20.9785  -21.0261  -12.7749 C   0  0  2  0  0  0  0  0  0  0  0  0
   22.3586  -20.7174  -13.0376 N   0  0  0  0  0  0  0  0  0  0  0  0
   20.0492  -20.1405  -13.4918 C   0  0  0  0  0  0  0  0  0  0  0  0
   20.0976  -18.8713  -13.4199 O   0  0  0  0  0  0  0  0  0  0  0  0
   16.2002  -24.2382  -10.1001 N   0  0  0  0  0  0  0  0  0  0  0  0
   19.0402  -20.7099  -14.3101 C   0  0  0  0  0  0  0  0  0  0  0  0
   18.1055  -19.8417  -14.9974 C   0  0  0  0  0  0  0  0  0  0  0  0
   16.8130  -19.8535  -14.3092 O   0  0  0  0  0  0  0  0  0  0  0  0
   15.7553  -19.1225  -14.8164 O   0  0  0  0  0  0  0  0  0  0  0  0
  2  1  1  6
  3  2  1  0
  4  3  1  0
  5  4  1  0
  5  6  1  0
  7  6  1  0
  8  2  1  0
  8  9  2  0
 10 11  1  0
 11 12  2  0
 13 11  1  0
 13 14  1  0
 15 14  1  0
 17 16  1  1
 16 15  1  0
 17 18  1  0
 18  8  1  0
 19 17  1  0
 20 19  2  0
 21 19  1  0
 22 21  1  0
 23 22  1  0
 24 23  1  0
 25 23  2  0
M  END
$$$$
