KRG.pdb
     RDKit          3D

 25 24  0  0  1  0  0  0  0  0999 V2000
   16.6653  -24.8679   -4.7296 N   0  0  0  0  0  0  0  0  0  0  0  0
   17.7640  -25.0602   -5.6131 C   0  0  1  0  0  0  0  0  0  0  0  0
   17.8686  -26.4353   -6.1948 C   0  0  0  0  0  0  0  0  0  0  0  0
   17.9546  -27.5591   -5.2436 C   0  0  0  0  0  0  0  0  0  0  0  0
   18.9330  -27.3227   -4.1388 C   0  0  0  0  0  0  0  0  0  0  0  0
   18.8934  -28.4745   -3.1719 C   0  0  0  0  0  0  0  0  0  0  0  0
   19.9018  -28.3000   -2.1174 N   0  0  0  0  0  0  0  0  0  0  0  0
   17.8342  -24.0969   -6.7183 C   0  0  0  0  0  0  0  0  0  0  0  0
   16.7692  -23.6805   -7.2394 O   0  0  0  0  0  0  0  0  0  0  0  0
   24.1647  -21.5170  -11.0022 N   0  0  0  0  0  0  0  0  0  0  0  0
   22.9650  -20.9659  -11.4972 C   0  0  0  0  0  0  0  0  0  0  0  0
   22.5183  -21.2608  -12.6685 N   0  0  0  0  0  0  0  0  0  0  0  0
   22.1701  -20.0447  -10.7257 N   0  0  0  0  0  0  0  0  0  0  0  0
   21.8719  -20.3065   -9.3370 C   0  0  0  0  0  0  0  0  0  0  0  0
   20.4740  -20.8771   -9.2491 C   0  0  0  0  0  0  0  0  0  0  0  0
   20.4878  -22.0420   -8.3014 C   0  0  0  0  0  0  0  0  0  0  0  0
   19.1104  -22.6604   -8.2621 C   0  0  2  0  0  0  0  0  0  0  0  0
   19.0701  -23.6325   -7.2026 N   0  0  0  0  0  0  0  0  0  0  0  0
   18.7858  -23.2347   -9.5761 C   0  0  0  0  0  0  0  0  0  0  0  0
   19.2907  -24.3192  -10.0088 O   0  0  0  0  0  0  0  0  0  0  0  0
   21.7201  -20.8410  -13.1452 N   0  0  0  0  0  0  0  0  0  0  0  0
   17.8655  -22.5609  -10.4195 C   0  0  0  0  0  0  0  0  0  0  0  0
   17.5365  -23.1275  -11.7120 C   0  0  0  0  0  0  0  0  0  0  0  0
   16.5746  -22.2679  -12.4048 O   0  0  0  0  0  0  0  0  0  0  0  0
   16.1942  -22.5634  -13.7004 O   0  0  0  0  0  0  0  0  0  0  0  0
  2  1  1  6
  3  2  1  0
  4  3  1  0
  5  4  1  0
  5  6  1  0
  7  6  1  0
  8  2  1  0
  8  9  2  0
 10 11  1  0
 11 12  2  0
 13 11  1  0
 13 14  1  0
 15 14  1  0
 17 16  1  6
 16 15  1  0
 17 18  1  0
 18  8  1  0
 19 17  1  0
 20 19  2  0
 21 19  1  0
 22 21  1  0
 23 22  1  0
 24 23  1  0
 25 23  2  0
M  END
$$$$
