CEL.pdb
     RDKit          3D

 24 23  0  0  1  0  0  0  0  0999 V2000
    7.3526  -15.2813   18.3305 N   0  0  0  0  0  0  0  0  0  0  0  0
    8.3006  -14.6456   19.1858 C   0  0  1  0  0  0  0  0  0  0  0  0
    7.9683  -13.1979   19.3848 C   0  0  0  0  0  0  0  0  0  0  0  0
    8.1991  -12.3047   17.8239 S   0  0  0  0  0  0  0  0  0  0  0  0
    8.4143  -15.3690   20.4965 C   0  0  0  0  0  0  0  0  0  0  0  0
    7.3693  -15.6492   21.1296 O   0  0  0  0  0  0  0  0  0  0  0  0
    9.6663  -15.7405   21.0324 N   0  0  0  0  0  0  0  0  0  0  0  0
    9.8961  -16.4127   22.2662 C   0  0  1  0  0  0  0  0  0  0  0  0
   10.9797  -17.4585   22.2785 C   0  0  0  0  0  0  0  0  0  0  0  0
   11.2494  -18.0933   23.5948 C   0  0  0  0  0  0  0  0  0  0  0  0
   12.3508  -19.1099   23.4744 C   0  0  0  0  0  0  0  0  0  0  0  0
   13.0478  -19.3901   24.4608 O   0  0  0  0  0  0  0  0  0  0  0  0
    9.8216  -15.5816   23.4669 C   0  0  0  0  0  0  0  0  0  0  0  0
   10.4744  -14.4787   23.4707 O   0  0  0  0  0  0  0  0  0  0  0  0
   12.5710  -19.7185   22.2639 O   0  0  0  0  0  0  0  0  0  0  0  0
    5.9401  -12.9737   26.7269 C   0  0  0  0  0  0  0  0  0  0  0  0
    7.3851  -13.3913   26.8131 C   0  0  2  0  0  0  0  0  0  0  0  0
    8.3374  -12.2695   27.0043 C   0  0  0  0  0  0  0  0  0  0  0  0
    7.7675  -14.3237   25.7340 C   0  0  0  0  0  0  0  0  0  0  0  0
    9.0836  -15.0311   25.8327 C   0  0  2  0  0  0  0  0  0  0  0  0
    9.0924  -15.8943   24.6152 N   0  0  0  0  0  0  0  0  0  0  0  0
    9.2602  -15.9271   26.9571 C   0  0  0  0  0  0  0  0  0  0  0  0
    9.9259  -15.5376   27.9739 O   0  0  0  0  0  0  0  0  0  0  0  0
    8.7603  -17.2253   27.0675 O   0  0  0  0  0  0  0  0  0  0  0  0
  2  1  1  6
  2  3  1  0
  4  3  1  0
  5  7  1  0
  5  2  1  0
  6  5  2  0
  8 13  1  0
  8  7  1  0
  8  9  1  6
 10 11  1  0
 10  9  1  0
 11 12  2  0
 13 21  1  0
 14 13  2  0
 15 11  1  0
 17 16  1  6
 18 17  1  0
 20 19  1  1
 19 17  1  0
 20 22  1  0
 21 20  1  0
 22 23  2  0
 22 24  1  0
M  END
$$$$
