CEL.pdb
     RDKit          3D

 24 23  0  0  1  0  0  0  0  0999 V2000
    6.1493  -15.2371   20.0315 N   0  0  0  0  0  0  0  0  0  0  0  0
    7.5557  -15.1892   20.2632 C   0  0  1  0  0  0  0  0  0  0  0  0
    8.0854  -13.7960   20.1068 C   0  0  0  0  0  0  0  0  0  0  0  0
    7.6754  -12.8244   21.5816 S   0  0  0  0  0  0  0  0  0  0  0  0
    7.9005  -15.7609   21.6080 C   0  0  0  0  0  0  0  0  0  0  0  0
    7.0382  -15.7392   22.5176 O   0  0  0  0  0  0  0  0  0  0  0  0
    9.1690  -16.3209   21.8728 N   0  0  0  0  0  0  0  0  0  0  0  0
    9.6062  -16.8893   23.1027 C   0  0  1  0  0  0  0  0  0  0  0  0
   10.6625  -17.9593   23.0190 C   0  0  0  0  0  0  0  0  0  0  0  0
   10.9410  -18.6919   24.2816 C   0  0  0  0  0  0  0  0  0  0  0  0
   12.0168  -19.7206   24.0683 C   0  0  0  0  0  0  0  0  0  0  0  0
   11.7573  -20.9262   24.1970 O   0  0  0  0  0  0  0  0  0  0  0  0
    9.7554  -15.9552   24.2177 C   0  0  0  0  0  0  0  0  0  0  0  0
   10.6427  -15.0363   24.1118 O   0  0  0  0  0  0  0  0  0  0  0  0
   13.2815  -19.3070   23.7316 O   0  0  0  0  0  0  0  0  0  0  0  0
    8.3625  -12.2248   25.8767 C   0  0  0  0  0  0  0  0  0  0  0  0
    7.3772  -13.3632   25.9288 C   0  0  2  0  0  0  0  0  0  0  0  0
    5.9792  -12.9521   26.2091 C   0  0  0  0  0  0  0  0  0  0  0  0
    7.8519  -14.4814   26.7680 C   0  0  0  0  0  0  0  0  0  0  0  0
    9.2234  -15.0294   26.5209 C   0  0  2  0  0  0  0  0  0  0  0  0
    9.0051  -15.9837   25.3943 N   0  0  0  0  0  0  0  0  0  0  0  0
    9.8186  -15.8049   27.5897 C   0  0  0  0  0  0  0  0  0  0  0  0
    9.6782  -17.0734   27.6006 O   0  0  0  0  0  0  0  0  0  0  0  0
   10.5672  -15.3061   28.6566 O   0  0  0  0  0  0  0  0  0  0  0  0
  2  1  1  1
  2  3  1  0
  4  3  1  0
  5  7  1  0
  5  2  1  0
  6  5  2  0
  8 13  1  0
  8  7  1  0
  8  9  1  6
 10 11  1  0
 10  9  1  0
 11 12  2  0
 13 21  1  0
 14 13  2  0
 15 11  1  0
 17 16  1  1
 18 17  1  0
 20 19  1  1
 19 17  1  0
 20 22  1  0
 21 20  1  0
 22 23  2  0
 22 24  1  0
M  END
$$$$
