CEL.pdb
     RDKit          3D

 24 23  0  0  1  0  0  0  0  0999 V2000
    6.2949  -15.8664   19.4722 N   0  0  0  0  0  0  0  0  0  0  0  0
    7.5870  -15.3642   19.8076 C   0  0  1  0  0  0  0  0  0  0  0  0
    7.6207  -13.8671   19.7488 C   0  0  0  0  0  0  0  0  0  0  0  0
    7.5247  -13.1940   21.4296 S   0  0  0  0  0  0  0  0  0  0  0  0
    8.0315  -15.8722   21.1487 C   0  0  0  0  0  0  0  0  0  0  0  0
    7.1657  -16.1502   22.0116 O   0  0  0  0  0  0  0  0  0  0  0  0
    9.3974  -16.0438   21.4613 N   0  0  0  0  0  0  0  0  0  0  0  0
    9.9326  -16.5461   22.6812 C   0  0  1  0  0  0  0  0  0  0  0  0
   11.2431  -17.2831   22.5956 C   0  0  0  0  0  0  0  0  0  0  0  0
   11.6969  -17.9411   23.8484 C   0  0  0  0  0  0  0  0  0  0  0  0
   13.0053  -18.6488   23.6285 C   0  0  0  0  0  0  0  0  0  0  0  0
   13.5438  -19.2625   24.5616 O   0  0  0  0  0  0  0  0  0  0  0  0
    9.7845  -15.6759   23.8469 C   0  0  0  0  0  0  0  0  0  0  0  0
   10.3784  -14.5403   23.8232 O   0  0  0  0  0  0  0  0  0  0  0  0
   13.5901  -18.6050   22.3875 O   0  0  0  0  0  0  0  0  0  0  0  0
    5.5630  -13.0561   26.3651 C   0  0  0  0  0  0  0  0  0  0  0  0
    7.0543  -13.2669   26.3982 C   0  0  2  0  0  0  0  0  0  0  0  0
    7.8372  -12.2228   25.6918 C   0  0  0  0  0  0  0  0  0  0  0  0
    7.4365  -14.6471   26.0390 C   0  0  0  0  0  0  0  0  0  0  0  0
    8.8794  -15.0368   26.1310 C   0  0  2  0  0  0  0  0  0  0  0  0
    9.0443  -15.9839   24.9893 N   0  0  0  0  0  0  0  0  0  0  0  0
    9.2841  -15.7665   27.3150 C   0  0  0  0  0  0  0  0  0  0  0  0
    9.0820  -17.0251   27.3785 O   0  0  0  0  0  0  0  0  0  0  0  0
    9.9027  -15.2318   28.4459 O   0  0  0  0  0  0  0  0  0  0  0  0
  2  1  1  1
  2  3  1  0
  4  3  1  0
  5  7  1  0
  5  2  1  0
  6  5  2  0
  8 13  1  0
  8  7  1  0
  8  9  1  6
 10 11  1  0
 10  9  1  0
 11 12  2  0
 13 21  1  0
 14 13  2  0
 15 11  1  0
 17 16  1  6
 18 17  1  0
 20 19  1  1
 19 17  1  0
 20 22  1  0
 21 20  1  0
 22 23  2  0
 22 24  1  0
M  END
$$$$
