CEL.pdb
     RDKit          3D

 24 23  0  0  1  0  0  0  0  0999 V2000
    7.7559  -14.9826   18.4256 N   0  0  0  0  0  0  0  0  0  0  0  0
    8.3841  -14.4111   19.5714 C   0  0  1  0  0  0  0  0  0  0  0  0
    7.8630  -13.0332   19.8466 C   0  0  0  0  0  0  0  0  0  0  0  0
    8.3414  -11.9247   18.4940 S   0  0  0  0  0  0  0  0  0  0  0  0
    8.2363  -15.3043   20.7691 C   0  0  0  0  0  0  0  0  0  0  0  0
    7.1058  -15.7708   21.0445 O   0  0  0  0  0  0  0  0  0  0  0  0
    9.3365  -15.6310   21.5910 N   0  0  0  0  0  0  0  0  0  0  0  0
    9.3058  -16.4149   22.7790 C   0  0  1  0  0  0  0  0  0  0  0  0
    9.9378  -17.7800   22.7088 C   0  0  0  0  0  0  0  0  0  0  0  0
   11.2760  -17.8395   22.0652 C   0  0  0  0  0  0  0  0  0  0  0  0
   11.7843  -19.2544   22.0350 C   0  0  0  0  0  0  0  0  0  0  0  0
   11.8985  -19.8502   20.9536 O   0  0  0  0  0  0  0  0  0  0  0  0
    9.5348  -15.6879   24.0269 C   0  0  0  0  0  0  0  0  0  0  0  0
   10.6918  -15.1682   24.2110 O   0  0  0  0  0  0  0  0  0  0  0  0
   12.1171  -19.8717   23.2149 O   0  0  0  0  0  0  0  0  0  0  0  0
    8.5997  -11.8904   25.8376 C   0  0  0  0  0  0  0  0  0  0  0  0
    7.4171  -12.8237   25.8263 C   0  0  2  0  0  0  0  0  0  0  0  0
    6.1172  -12.1704   26.1187 C   0  0  0  0  0  0  0  0  0  0  0  0
    7.6601  -14.0508   26.6107 C   0  0  0  0  0  0  0  0  0  0  0  0
    8.9010  -14.8422   26.3351 C   0  0  2  0  0  0  0  0  0  0  0  0
    8.5896  -15.5134   25.0389 N   0  0  0  0  0  0  0  0  0  0  0  0
    9.2180  -15.9046   27.2673 C   0  0  0  0  0  0  0  0  0  0  0  0
    9.7814  -15.6211   28.3768 O   0  0  0  0  0  0  0  0  0  0  0  0
    8.9634  -17.2651   27.0896 O   0  0  0  0  0  0  0  0  0  0  0  0
  2  1  1  6
  2  3  1  0
  4  3  1  0
  5  7  1  0
  5  2  1  0
  6  5  2  0
  8 13  1  0
  8  7  1  0
  8  9  1  6
 10 11  1  0
 10  9  1  0
 11 12  2  0
 13 21  1  0
 14 13  2  0
 15 11  1  0
 17 16  1  1
 18 17  1  0
 20 19  1  1
 19 17  1  0
 20 22  1  0
 21 20  1  0
 22 23  2  0
 22 24  1  0
M  END
$$$$
