CEL.pdb
     RDKit          3D

 24 23  0  0  1  0  0  0  0  0999 V2000
    7.3597  -15.5827   18.1499 N   0  0  0  0  0  0  0  0  0  0  0  0
    8.1140  -14.8394   19.1052 C   0  0  1  0  0  0  0  0  0  0  0  0
    7.7243  -13.3923   19.0987 C   0  0  0  0  0  0  0  0  0  0  0  0
    8.7267  -12.4910   20.3112 S   0  0  0  0  0  0  0  0  0  0  0  0
    7.9862  -15.4372   20.4765 C   0  0  0  0  0  0  0  0  0  0  0  0
    6.8435  -15.6871   20.9272 O   0  0  0  0  0  0  0  0  0  0  0  0
    9.1185  -15.7241   21.2690 N   0  0  0  0  0  0  0  0  0  0  0  0
    9.1214  -16.3239   22.5602 C   0  0  1  0  0  0  0  0  0  0  0  0
    9.8594  -17.6290   22.7014 C   0  0  0  0  0  0  0  0  0  0  0  0
    9.7851  -18.2713   24.0395 C   0  0  0  0  0  0  0  0  0  0  0  0
   10.6000  -19.5348   24.0640 C   0  0  0  0  0  0  0  0  0  0  0  0
   10.3012  -20.4809   23.3203 O   0  0  0  0  0  0  0  0  0  0  0  0
    9.2640  -15.4046   23.6883 C   0  0  0  0  0  0  0  0  0  0  0  0
   10.3509  -14.7310   23.7754 O   0  0  0  0  0  0  0  0  0  0  0  0
   11.6720  -19.6239   24.9166 O   0  0  0  0  0  0  0  0  0  0  0  0
    5.5657  -12.1088   26.9591 C   0  0  0  0  0  0  0  0  0  0  0  0
    6.9980  -12.4424   26.6321 C   0  0  2  0  0  0  0  0  0  0  0  0
    7.6662  -11.4657   25.7367 C   0  0  0  0  0  0  0  0  0  0  0  0
    7.1683  -13.8490   26.2167 C   0  0  0  0  0  0  0  0  0  0  0  0
    8.5435  -14.3321   25.8735 C   0  0  2  0  0  0  0  0  0  0  0  0
    8.3065  -15.2005   24.6830 N   0  0  0  0  0  0  0  0  0  0  0  0
    9.2038  -15.1708   26.8528 C   0  0  0  0  0  0  0  0  0  0  0  0
    8.9883  -16.4287   26.8518 O   0  0  0  0  0  0  0  0  0  0  0  0
   10.0937  -14.7467   27.8405 O   0  0  0  0  0  0  0  0  0  0  0  0
  2  1  1  6
  2  3  1  0
  4  3  1  0
  5  7  1  0
  5  2  1  0
  6  5  2  0
  8 13  1  0
  8  7  1  0
  8  9  1  6
 10 11  1  0
 10  9  1  0
 11 12  2  0
 13 21  1  0
 14 13  2  0
 15 11  1  0
 17 16  1  6
 18 17  1  0
 20 19  1  1
 19 17  1  0
 20 22  1  0
 21 20  1  0
 22 23  2  0
 22 24  1  0
M  END
$$$$
