CEL.pdb
     RDKit          3D

 24 23  0  0  1  0  0  0  0  0999 V2000
    7.5066  -15.3319   18.6132 N   0  0  0  0  0  0  0  0  0  0  0  0
    8.1306  -14.5913   19.6603 C   0  0  1  0  0  0  0  0  0  0  0  0
    7.3957  -13.3147   19.9360 C   0  0  0  0  0  0  0  0  0  0  0  0
    8.2820  -12.3689   21.2038 S   0  0  0  0  0  0  0  0  0  0  0  0
    8.2700  -15.4248   20.9013 C   0  0  0  0  0  0  0  0  0  0  0  0
    7.2765  -16.0650   21.3190 O   0  0  0  0  0  0  0  0  0  0  0  0
    9.4895  -15.5050   21.6078 N   0  0  0  0  0  0  0  0  0  0  0  0
    9.7708  -16.3432   22.7236 C   0  0  1  0  0  0  0  0  0  0  0  0
   10.7788  -17.4416   22.5112 C   0  0  0  0  0  0  0  0  0  0  0  0
   11.0124  -18.3373   23.6737 C   0  0  0  0  0  0  0  0  0  0  0  0
   12.0178  -19.4004   23.3269 C   0  0  0  0  0  0  0  0  0  0  0  0
   11.6403  -20.5558   23.0820 O   0  0  0  0  0  0  0  0  0  0  0  0
    9.8482  -15.6716   24.0202 C   0  0  0  0  0  0  0  0  0  0  0  0
   10.9960  -15.2539   24.4083 O   0  0  0  0  0  0  0  0  0  0  0  0
   13.3504  -19.0741   23.2862 O   0  0  0  0  0  0  0  0  0  0  0  0
    8.1084  -12.0243   26.1145 C   0  0  0  0  0  0  0  0  0  0  0  0
    7.1146  -13.1421   25.9346 C   0  0  2  0  0  0  0  0  0  0  0  0
    5.7110  -12.7702   26.2406 C   0  0  0  0  0  0  0  0  0  0  0  0
    7.5550  -14.3965   26.5769 C   0  0  0  0  0  0  0  0  0  0  0  0
    8.9218  -14.9204   26.2612 C   0  0  2  0  0  0  0  0  0  0  0  0
    8.7667  -15.4474   24.8735 N   0  0  0  0  0  0  0  0  0  0  0  0
    9.3944  -16.0333   27.0590 C   0  0  0  0  0  0  0  0  0  0  0  0
    9.1318  -17.2271   26.6921 O   0  0  0  0  0  0  0  0  0  0  0  0
   10.1428  -15.9506   28.2340 O   0  0  0  0  0  0  0  0  0  0  0  0
  2  1  1  6
  2  3  1  0
  4  3  1  0
  5  7  1  0
  5  2  1  0
  6  5  2  0
  8 13  1  0
  8  7  1  0
  8  9  1  6
 10 11  1  0
 10  9  1  0
 11 12  2  0
 13 21  1  0
 14 13  2  0
 15 11  1  0
 17 16  1  1
 18 17  1  0
 20 19  1  1
 19 17  1  0
 20 22  1  0
 21 20  1  0
 22 23  2  0
 22 24  1  0
M  END
$$$$
