CEL.pdb
     RDKit          3D

 24 23  0  0  1  0  0  0  0  0999 V2000
    9.4963  -14.0020   18.5145 N   0  0  0  0  0  0  0  0  0  0  0  0
    8.4867  -13.4820   19.3774 C   0  0  1  0  0  0  0  0  0  0  0  0
    7.1601  -13.4149   18.6836 C   0  0  0  0  0  0  0  0  0  0  0  0
    6.6419  -15.0858   18.2072 S   0  0  0  0  0  0  0  0  0  0  0  0
    8.4028  -14.2760   20.6490 C   0  0  0  0  0  0  0  0  0  0  0  0
    7.5320  -13.9739   21.4986 O   0  0  0  0  0  0  0  0  0  0  0  0
    9.2786  -15.3517   20.9108 N   0  0  0  0  0  0  0  0  0  0  0  0
    9.2387  -16.2249   22.0346 C   0  0  1  0  0  0  0  0  0  0  0  0
    9.9841  -17.5274   21.9097 C   0  0  0  0  0  0  0  0  0  0  0  0
    9.7269  -18.3019   20.6677 C   0  0  0  0  0  0  0  0  0  0  0  0
   10.5706  -19.5463   20.6378 C   0  0  0  0  0  0  0  0  0  0  0  0
   10.5774  -20.2677   19.6294 O   0  0  0  0  0  0  0  0  0  0  0  0
    9.3292  -15.5807   23.3442 C   0  0  0  0  0  0  0  0  0  0  0  0
   10.3778  -14.8888   23.5977 O   0  0  0  0  0  0  0  0  0  0  0  0
   11.3275  -19.8687   21.7365 O   0  0  0  0  0  0  0  0  0  0  0  0
    5.8081  -12.4288   26.8035 C   0  0  0  0  0  0  0  0  0  0  0  0
    7.1492  -13.1151   26.8097 C   0  0  2  0  0  0  0  0  0  0  0  0
    8.3017  -12.2076   27.0338 C   0  0  0  0  0  0  0  0  0  0  0  0
    7.3205  -14.0277   25.6617 C   0  0  0  0  0  0  0  0  0  0  0  0
    8.4904  -14.9624   25.6590 C   0  0  2  0  0  0  0  0  0  0  0  0
    8.3601  -15.6589   24.3455 N   0  0  0  0  0  0  0  0  0  0  0  0
    8.4945  -16.0055   26.6640 C   0  0  0  0  0  0  0  0  0  0  0  0
    7.7310  -17.0184   26.5231 O   0  0  0  0  0  0  0  0  0  0  0  0
    9.2753  -16.0380   27.8202 O   0  0  0  0  0  0  0  0  0  0  0  0
  2  1  1  6
  2  3  1  0
  4  3  1  0
  5  7  1  0
  5  2  1  0
  6  5  2  0
  8 13  1  0
  8  7  1  0
  8  9  1  6
 10 11  1  0
 10  9  1  0
 11 12  2  0
 13 21  1  0
 14 13  2  0
 15 11  1  0
 17 16  1  6
 18 17  1  0
 20 19  1  1
 19 17  1  0
 20 22  1  0
 21 20  1  0
 22 23  2  0
 22 24  1  0
M  END
$$$$
