CEL.pdb
     RDKit          3D

 24 23  0  0  1  0  0  0  0  0999 V2000
    7.6672  -15.1810   18.5798 N   0  0  0  0  0  0  0  0  0  0  0  0
    8.2579  -14.4443   19.6487 C   0  0  1  0  0  0  0  0  0  0  0  0
    7.5499  -13.1417   19.8677 C   0  0  0  0  0  0  0  0  0  0  0  0
    8.3739  -11.8381   18.9142 S   0  0  0  0  0  0  0  0  0  0  0  0
    8.3051  -15.2628   20.9064 C   0  0  0  0  0  0  0  0  0  0  0  0
    7.2481  -15.7853   21.3323 O   0  0  0  0  0  0  0  0  0  0  0  0
    9.5075  -15.4582   21.6196 N   0  0  0  0  0  0  0  0  0  0  0  0
    9.6822  -16.2523   22.7882 C   0  0  1  0  0  0  0  0  0  0  0  0
   10.6505  -17.4015   22.6902 C   0  0  0  0  0  0  0  0  0  0  0  0
   10.7426  -18.2724   23.8908 C   0  0  0  0  0  0  0  0  0  0  0  0
   11.7173  -19.3931   23.6560 C   0  0  0  0  0  0  0  0  0  0  0  0
   11.5737  -20.4746   24.2452 O   0  0  0  0  0  0  0  0  0  0  0  0
    9.7109  -15.5224   24.0549 C   0  0  0  0  0  0  0  0  0  0  0  0
   10.7269  -14.7779   24.2917 O   0  0  0  0  0  0  0  0  0  0  0  0
   12.7612  -19.2014   22.7856 O   0  0  0  0  0  0  0  0  0  0  0  0
    7.9818  -11.9894   26.3244 C   0  0  0  0  0  0  0  0  0  0  0  0
    7.0220  -13.1064   26.0071 C   0  0  2  0  0  0  0  0  0  0  0  0
    5.5946  -12.7728   26.2377 C   0  0  0  0  0  0  0  0  0  0  0  0
    7.4391  -14.3930   26.5994 C   0  0  0  0  0  0  0  0  0  0  0  0
    8.8335  -14.8777   26.3482 C   0  0  2  0  0  0  0  0  0  0  0  0
    8.7154  -15.5713   25.0319 N   0  0  0  0  0  0  0  0  0  0  0  0
    9.3581  -15.8629   27.2714 C   0  0  0  0  0  0  0  0  0  0  0  0
    9.1976  -17.1048   27.0251 O   0  0  0  0  0  0  0  0  0  0  0  0
   10.0559  -15.6024   28.4516 O   0  0  0  0  0  0  0  0  0  0  0  0
  2  1  1  6
  2  3  1  0
  4  3  1  0
  5  7  1  0
  5  2  1  0
  6  5  2  0
  8 13  1  0
  8  7  1  0
  8  9  1  6
 10 11  1  0
 10  9  1  0
 11 12  2  0
 13 21  1  0
 14 13  2  0
 15 11  1  0
 17 16  1  1
 18 17  1  0
 20 19  1  1
 19 17  1  0
 20 22  1  0
 21 20  1  0
 22 23  2  0
 22 24  1  0
M  END
$$$$
