CEL.pdb
     RDKit          3D

 24 23  0  0  1  0  0  0  0  0999 V2000
    7.4212  -15.0572   18.1721 N   0  0  0  0  0  0  0  0  0  0  0  0
    8.3753  -14.5427   19.0990 C   0  0  1  0  0  0  0  0  0  0  0  0
    8.2295  -13.0602   19.2629 C   0  0  0  0  0  0  0  0  0  0  0  0
    8.6968  -12.2326   17.7188 S   0  0  0  0  0  0  0  0  0  0  0  0
    8.2831  -15.2535   20.4183 C   0  0  0  0  0  0  0  0  0  0  0  0
    7.1565  -15.4205   20.9421 O   0  0  0  0  0  0  0  0  0  0  0  0
    9.4312  -15.7373   21.0820 N   0  0  0  0  0  0  0  0  0  0  0  0
    9.4702  -16.3813   22.3511 C   0  0  1  0  0  0  0  0  0  0  0  0
   10.3346  -17.6093   22.4634 C   0  0  0  0  0  0  0  0  0  0  0  0
   10.3875  -18.2409   23.8076 C   0  0  0  0  0  0  0  0  0  0  0  0
   11.2853  -19.4470   23.7887 C   0  0  0  0  0  0  0  0  0  0  0  0
   12.4043  -19.3798   23.2587 O   0  0  0  0  0  0  0  0  0  0  0  0
    9.4966  -15.4948   23.5137 C   0  0  0  0  0  0  0  0  0  0  0  0
   10.5239  -14.7443   23.6687 O   0  0  0  0  0  0  0  0  0  0  0  0
   10.8498  -20.6151   24.3630 O   0  0  0  0  0  0  0  0  0  0  0  0
    5.6113  -12.2722   26.7028 C   0  0  0  0  0  0  0  0  0  0  0  0
    7.0504  -12.7116   26.6286 C   0  0  2  0  0  0  0  0  0  0  0  0
    8.0191  -11.6068   26.4206 C   0  0  0  0  0  0  0  0  0  0  0  0
    7.2438  -13.8566   25.7168 C   0  0  0  0  0  0  0  0  0  0  0  0
    8.5869  -14.5173   25.6728 C   0  0  2  0  0  0  0  0  0  0  0  0
    8.4874  -15.3997   24.4731 N   0  0  0  0  0  0  0  0  0  0  0  0
    8.9224  -15.3881   26.7806 C   0  0  0  0  0  0  0  0  0  0  0  0
    8.4171  -16.5587   26.8365 O   0  0  0  0  0  0  0  0  0  0  0  0
    9.7773  -15.0861   27.8415 O   0  0  0  0  0  0  0  0  0  0  0  0
  2  1  1  6
  2  3  1  0
  4  3  1  0
  5  7  1  0
  5  2  1  0
  6  5  2  0
  8 13  1  0
  8  7  1  0
  8  9  1  6
 10 11  1  0
 10  9  1  0
 11 12  2  0
 13 21  1  0
 14 13  2  0
 15 11  1  0
 17 16  1  6
 18 17  1  0
 20 19  1  1
 19 17  1  0
 20 22  1  0
 21 20  1  0
 22 23  2  0
 22 24  1  0
M  END
$$$$
