KDD.pdb
     RDKit          3D

 26 25  0  0  1  0  0  0  0  0999 V2000
   10.0403  -13.0904   18.2767 N   0  0  0  0  0  0  0  0  0  0  0  0
    9.1984  -12.9931   19.3768 C   0  0  1  0  0  0  0  0  0  0  0  0
    7.7517  -12.6895   19.1567 C   0  0  0  0  0  0  0  0  0  0  0  0
    7.0400  -13.4409   18.1160 C   0  0  0  0  0  0  0  0  0  0  0  0
    7.7227  -13.9540   16.9377 C   0  0  0  0  0  0  0  0  0  0  0  0
    6.9119  -14.6632   15.9118 C   0  0  0  0  0  0  0  0  0  0  0  0
    7.7742  -15.1359   14.8139 N   0  0  0  0  0  0  0  0  0  0  0  0
    9.3156  -14.1899   20.2467 C   0  0  0  0  0  0  0  0  0  0  0  0
    8.6372  -14.2296   21.3368 O   0  0  0  0  0  0  0  0  0  0  0  0
   10.1420  -15.2799   19.9216 N   0  0  0  0  0  0  0  0  0  0  0  0
   10.2493  -16.4538   20.8102 C   0  0  1  0  0  0  0  0  0  0  0  0
    9.6401  -17.6490   20.1350 C   0  0  0  0  0  0  0  0  0  0  0  0
    9.4640  -18.7832   21.0274 C   0  0  0  0  0  0  0  0  0  0  0  0
    9.5413  -18.7648   22.2730 O   0  0  0  0  0  0  0  0  0  0  0  0
   11.6842  -16.6413   21.1608 C   0  0  0  0  0  0  0  0  0  0  0  0
   12.1731  -17.7153   21.5477 O   0  0  0  0  0  0  0  0  0  0  0  0
    9.1750  -20.0538   20.4764 O   0  0  0  0  0  0  0  0  0  0  0  0
   12.6119  -15.5420   21.0644 N   0  0  0  0  0  0  0  0  0  0  0  0
   14.0207  -15.6978   21.3511 C   0  0  1  0  0  0  0  0  0  0  0  0
   14.8897  -14.6281   20.7861 C   0  0  0  0  0  0  0  0  0  0  0  0
   14.6690  -14.5139   19.3326 C   0  0  0  0  0  0  0  0  0  0  0  0
   14.6325  -15.5346   18.5844 O   0  0  0  0  0  0  0  0  0  0  0  0
   14.2510  -15.8942   22.8119 C   0  0  0  0  0  0  0  0  0  0  0  0
   13.2952  -15.8540   23.5946 O   0  0  0  0  0  0  0  0  0  0  0  0
   14.4942  -13.3004   18.7287 O   0  0  0  0  0  0  0  0  0  0  0  0
   15.5341  -16.1167   23.2475 O   0  0  0  0  0  0  0  0  0  0  0  0
  2  1  1  6
  2  3  1  0
  3  4  1  0
  4  5  1  0
  6  5  1  0
  6  7  1  0
  8  2  1  0
  8  9  2  0
 10  8  1  0
 11 10  1  0
 11 12  1  6
 13 12  1  0
 13 17  1  0
 14 13  2  0
 15 11  1  0
 16 15  2  0
 18 15  1  0
 19 18  1  0
 19 20  1  1
 20 21  1  0
 21 25  1  0
 21 22  2  0
 23 19  1  0
 24 23  2  0
 26 23  1  0
M  END
$$$$
