KDD.pdb
     RDKit          3D

 26 25  0  0  1  0  0  0  0  0999 V2000
    7.6150  -17.0379   19.1064 N   0  0  0  0  0  0  0  0  0  0  0  0
    8.7447  -16.2355   19.0167 C   0  0  1  0  0  0  0  0  0  0  0  0
    8.6467  -14.7995   19.4192 C   0  0  0  0  0  0  0  0  0  0  0  0
    7.7239  -13.9357   18.6732 C   0  0  0  0  0  0  0  0  0  0  0  0
    7.8144  -13.7831   17.2288 C   0  0  0  0  0  0  0  0  0  0  0  0
    6.8786  -12.8366   16.5646 C   0  0  0  0  0  0  0  0  0  0  0  0
    7.1267  -12.8051   15.1120 N   0  0  0  0  0  0  0  0  0  0  0  0
    9.8981  -16.8567   19.7143 C   0  0  0  0  0  0  0  0  0  0  0  0
    9.6820  -17.5249   20.7899 O   0  0  0  0  0  0  0  0  0  0  0  0
   11.2170  -16.7396   19.2416 N   0  0  0  0  0  0  0  0  0  0  0  0
   12.3299  -17.4667   19.8833 C   0  0  1  0  0  0  0  0  0  0  0  0
   13.3903  -17.7604   18.8610 C   0  0  0  0  0  0  0  0  0  0  0  0
   14.2279  -18.8951   19.2143 C   0  0  0  0  0  0  0  0  0  0  0  0
   14.6748  -19.7582   18.4312 O   0  0  0  0  0  0  0  0  0  0  0  0
   12.8218  -16.6484   21.0259 C   0  0  0  0  0  0  0  0  0  0  0  0
   13.1234  -15.4465   20.9443 O   0  0  0  0  0  0  0  0  0  0  0  0
   14.5994  -19.0814   20.5666 O   0  0  0  0  0  0  0  0  0  0  0  0
   12.9780  -17.2347   22.3336 N   0  0  0  0  0  0  0  0  0  0  0  0
   13.3758  -16.4536   23.4837 C   0  0  1  0  0  0  0  0  0  0  0  0
   12.8388  -16.9462   24.7828 C   0  0  0  0  0  0  0  0  0  0  0  0
   11.3679  -16.8430   24.7925 C   0  0  0  0  0  0  0  0  0  0  0  0
   10.7397  -16.2242   23.8840 O   0  0  0  0  0  0  0  0  0  0  0  0
   14.8560  -16.2721   23.5213 C   0  0  0  0  0  0  0  0  0  0  0  0
   15.3623  -15.5346   24.3743 O   0  0  0  0  0  0  0  0  0  0  0  0
   10.6175  -17.4110   25.7835 O   0  0  0  0  0  0  0  0  0  0  0  0
   15.6202  -16.9385   22.5953 O   0  0  0  0  0  0  0  0  0  0  0  0
  2  1  1  1
  2  3  1  0
  3  4  1  0
  4  5  1  0
  6  5  1  0
  6  7  1  0
  8  2  1  0
  8  9  2  0
 10  8  1  0
 11 10  1  0
 11 12  1  6
 13 12  1  0
 13 17  1  0
 14 13  2  0
 15 11  1  0
 16 15  2  0
 18 15  1  0
 19 18  1  0
 19 20  1  1
 20 21  1  0
 21 25  1  0
 21 22  2  0
 23 19  1  0
 24 23  2  0
 26 23  1  0
M  END
$$$$
