KDD.pdb
     RDKit          3D

 26 25  0  0  1  0  0  0  0  0999 V2000
    9.1436  -17.5893   19.2712 N   0  0  0  0  0  0  0  0  0  0  0  0
    9.7487  -16.5620   19.9831 C   0  0  1  0  0  0  0  0  0  0  0  0
    8.9753  -15.3107   20.2470 C   0  0  0  0  0  0  0  0  0  0  0  0
    8.1992  -14.7339   19.1428 C   0  0  0  0  0  0  0  0  0  0  0  0
    7.4928  -13.4691   19.2803 C   0  0  0  0  0  0  0  0  0  0  0  0
    6.7041  -12.9774   18.1187 C   0  0  0  0  0  0  0  0  0  0  0  0
    6.0131  -11.7218   18.4630 N   0  0  0  0  0  0  0  0  0  0  0  0
   10.3160  -17.0597   21.2612 C   0  0  0  0  0  0  0  0  0  0  0  0
    9.8813  -18.1701   21.7387 O   0  0  0  0  0  0  0  0  0  0  0  0
   11.3102  -16.3600   21.9675 N   0  0  0  0  0  0  0  0  0  0  0  0
   11.9271  -16.9229   23.1848 C   0  0  1  0  0  0  0  0  0  0  0  0
   13.2463  -16.2496   23.4335 C   0  0  0  0  0  0  0  0  0  0  0  0
   14.2262  -16.5065   22.3907 C   0  0  0  0  0  0  0  0  0  0  0  0
   14.5044  -17.6167   21.8927 O   0  0  0  0  0  0  0  0  0  0  0  0
   10.9632  -16.7667   24.3088 C   0  0  0  0  0  0  0  0  0  0  0  0
   10.5386  -15.6733   24.7168 O   0  0  0  0  0  0  0  0  0  0  0  0
   14.9622  -15.4229   21.8561 O   0  0  0  0  0  0  0  0  0  0  0  0
   10.4562  -17.9226   25.0056 N   0  0  0  0  0  0  0  0  0  0  0  0
    9.6182  -17.8068   26.1783 C   0  0  1  0  0  0  0  0  0  0  0  0
    8.3795  -18.6329   26.1383 C   0  0  0  0  0  0  0  0  0  0  0  0
    7.7196  -18.4899   24.8274 C   0  0  0  0  0  0  0  0  0  0  0  0
    6.9522  -19.3866   24.3690 O   0  0  0  0  0  0  0  0  0  0  0  0
   10.4061  -18.0372   27.4240 C   0  0  0  0  0  0  0  0  0  0  0  0
    9.8598  -17.9180   28.5263 O   0  0  0  0  0  0  0  0  0  0  0  0
    7.9075  -17.3824   24.0489 O   0  0  0  0  0  0  0  0  0  0  0  0
   11.7307  -18.3791   27.3059 O   0  0  0  0  0  0  0  0  0  0  0  0
  2  1  1  1
  2  3  1  0
  3  4  1  0
  4  5  1  0
  6  5  1  0
  6  7  1  0
  8  2  1  0
  8  9  2  0
 10  8  1  0
 11 10  1  0
 11 12  1  1
 13 12  1  0
 13 17  1  0
 14 13  2  0
 15 11  1  0
 16 15  2  0
 18 15  1  0
 19 18  1  0
 19 20  1  6
 20 21  1  0
 21 25  1  0
 21 22  2  0
 23 19  1  0
 24 23  2  0
 26 23  1  0
M  END
$$$$
