KDD.pdb
     RDKit          3D

 26 25  0  0  1  0  0  0  0  0999 V2000
    8.7692  -20.2272   20.0294 N   0  0  0  0  0  0  0  0  0  0  0  0
    9.9645  -19.8091   19.4594 C   0  0  1  0  0  0  0  0  0  0  0  0
    9.9275  -18.7968   18.3606 C   0  0  0  0  0  0  0  0  0  0  0  0
    9.7081  -19.2743   16.9901 C   0  0  0  0  0  0  0  0  0  0  0  0
    8.4255  -19.1196   16.3201 C   0  0  0  0  0  0  0  0  0  0  0  0
    8.3001  -19.6181   14.9241 C   0  0  0  0  0  0  0  0  0  0  0  0
    6.9043  -19.5067   14.4637 N   0  0  0  0  0  0  0  0  0  0  0  0
   10.9243  -19.3612   20.4991 C   0  0  0  0  0  0  0  0  0  0  0  0
   11.7869  -18.4591   20.1954 O   0  0  0  0  0  0  0  0  0  0  0  0
   10.9241  -19.8886   21.8023 N   0  0  0  0  0  0  0  0  0  0  0  0
   11.8583  -19.3918   22.8317 C   0  0  1  0  0  0  0  0  0  0  0  0
   11.0843  -18.6979   23.9157 C   0  0  0  0  0  0  0  0  0  0  0  0
   10.8145  -17.2998   23.6218 C   0  0  0  0  0  0  0  0  0  0  0  0
   11.2370  -16.6541   22.6408 O   0  0  0  0  0  0  0  0  0  0  0  0
   12.6617  -20.5443   23.3250 C   0  0  0  0  0  0  0  0  0  0  0  0
   12.1887  -21.6613   23.5912 O   0  0  0  0  0  0  0  0  0  0  0  0
    9.9977  -16.5561   24.5057 O   0  0  0  0  0  0  0  0  0  0  0  0
   14.0834  -20.4142   23.5255 N   0  0  0  0  0  0  0  0  0  0  0  0
   14.8765  -21.4705   24.1139 C   0  0  1  0  0  0  0  0  0  0  0  0
   16.3182  -21.4440   23.7406 C   0  0  0  0  0  0  0  0  0  0  0  0
   16.4685  -21.6717   22.2915 C   0  0  0  0  0  0  0  0  0  0  0  0
   15.4653  -21.8498   21.5399 O   0  0  0  0  0  0  0  0  0  0  0  0
   14.6808  -21.5268   25.5918 C   0  0  0  0  0  0  0  0  0  0  0  0
   15.0481  -22.5247   26.2218 O   0  0  0  0  0  0  0  0  0  0  0  0
   17.6981  -21.7006   21.6956 O   0  0  0  0  0  0  0  0  0  0  0  0
   14.0911  -20.4544   26.2146 O   0  0  0  0  0  0  0  0  0  0  0  0
  2  1  1  1
  2  3  1  0
  3  4  1  0
  4  5  1  0
  6  5  1  0
  6  7  1  0
  8  2  1  0
  8  9  2  0
 10  8  1  0
 11 10  1  0
 11 12  1  1
 13 12  1  0
 13 17  1  0
 14 13  2  0
 15 11  1  0
 16 15  2  0
 18 15  1  0
 19 18  1  0
 19 20  1  1
 20 21  1  0
 21 25  1  0
 21 22  2  0
 23 19  1  0
 24 23  2  0
 26 23  1  0
M  END
$$$$
