KDD.pdb
     RDKit          3D

 26 25  0  0  1  0  0  0  0  0999 V2000
    7.0813  -17.3571   21.2925 N   0  0  0  0  0  0  0  0  0  0  0  0
    8.2387  -16.6207   21.5080 C   0  0  1  0  0  0  0  0  0  0  0  0
    8.1404  -15.3080   22.2156 C   0  0  0  0  0  0  0  0  0  0  0  0
    7.5029  -14.1901   21.5097 C   0  0  0  0  0  0  0  0  0  0  0  0
    8.2829  -13.1777   20.8138 C   0  0  0  0  0  0  0  0  0  0  0  0
    7.5547  -12.0462   20.1794 C   0  0  0  0  0  0  0  0  0  0  0  0
    8.4837  -11.2162   19.3917 N   0  0  0  0  0  0  0  0  0  0  0  0
    9.2836  -17.4471   22.1625 C   0  0  0  0  0  0  0  0  0  0  0  0
    8.9190  -18.4435   22.8864 O   0  0  0  0  0  0  0  0  0  0  0  0
   10.6562  -17.1782   22.0197 N   0  0  0  0  0  0  0  0  0  0  0  0
   11.6769  -18.0454   22.6403 C   0  0  1  0  0  0  0  0  0  0  0  0
   13.0227  -17.7338   22.0509 C   0  0  0  0  0  0  0  0  0  0  0  0
   13.0856  -17.9589   20.6158 C   0  0  0  0  0  0  0  0  0  0  0  0
   12.7918  -19.0143   20.0179 O   0  0  0  0  0  0  0  0  0  0  0  0
   11.6185  -17.8494   24.1151 C   0  0  0  0  0  0  0  0  0  0  0  0
   11.4126  -16.7555   24.6658 O   0  0  0  0  0  0  0  0  0  0  0  0
   13.5165  -16.9076   19.7728 O   0  0  0  0  0  0  0  0  0  0  0  0
   11.8057  -18.9637   25.0105 N   0  0  0  0  0  0  0  0  0  0  0  0
   11.7981  -18.8045   26.4478 C   0  0  1  0  0  0  0  0  0  0  0  0
   10.6896  -19.5153   27.1438 C   0  0  0  0  0  0  0  0  0  0  0  0
   10.8691  -19.4224   28.6044 C   0  0  0  0  0  0  0  0  0  0  0  0
   11.5443  -20.2799   29.2462 O   0  0  0  0  0  0  0  0  0  0  0  0
   13.1307  -19.1373   27.0300 C   0  0  0  0  0  0  0  0  0  0  0  0
   13.9229  -19.8369   26.3892 O   0  0  0  0  0  0  0  0  0  0  0  0
   10.3142  -18.4060   29.3302 O   0  0  0  0  0  0  0  0  0  0  0  0
   13.4401  -18.6498   28.2759 O   0  0  0  0  0  0  0  0  0  0  0  0
  2  1  1  1
  2  3  1  0
  3  4  1  0
  4  5  1  0
  6  5  1  0
  6  7  1  0
  8  2  1  0
  8  9  2  0
 10  8  1  0
 11 10  1  0
 11 12  1  6
 13 12  1  0
 13 17  1  0
 14 13  2  0
 15 11  1  0
 16 15  2  0
 18 15  1  0
 19 18  1  0
 19 20  1  1
 20 21  1  0
 21 25  1  0
 21 22  2  0
 23 19  1  0
 24 23  2  0
 26 23  1  0
M  END
$$$$
