KDD.pdb
     RDKit          3D

 26 25  0  0  1  0  0  0  0  0999 V2000
    9.8445  -15.9922   17.8049 N   0  0  0  0  0  0  0  0  0  0  0  0
   10.6820  -14.9331   18.1295 C   0  0  1  0  0  0  0  0  0  0  0  0
   10.2093  -13.9113   19.1123 C   0  0  0  0  0  0  0  0  0  0  0  0
    8.8412  -13.3990   18.9703 C   0  0  0  0  0  0  0  0  0  0  0  0
    8.3315  -12.3286   19.8142 C   0  0  0  0  0  0  0  0  0  0  0  0
    6.9589  -11.8205   19.5483 C   0  0  0  0  0  0  0  0  0  0  0  0
    6.6355  -10.7133   20.4660 N   0  0  0  0  0  0  0  0  0  0  0  0
   12.0223  -15.4190   18.5423 C   0  0  0  0  0  0  0  0  0  0  0  0
   12.1228  -16.5930   19.0535 O   0  0  0  0  0  0  0  0  0  0  0  0
   13.1842  -14.6411   18.3950 N   0  0  0  0  0  0  0  0  0  0  0  0
   14.5131  -15.1693   18.7609 C   0  0  1  0  0  0  0  0  0  0  0  0
   15.5589  -14.5424   17.8840 C   0  0  0  0  0  0  0  0  0  0  0  0
   15.5375  -15.0433   16.5193 C   0  0  0  0  0  0  0  0  0  0  0  0
   15.3718  -16.2294   16.1680 O   0  0  0  0  0  0  0  0  0  0  0  0
   14.7301  -14.9161   20.2121 C   0  0  0  0  0  0  0  0  0  0  0  0
   14.7203  -13.7886   20.7325 O   0  0  0  0  0  0  0  0  0  0  0  0
   15.7179  -14.1346   15.4500 O   0  0  0  0  0  0  0  0  0  0  0  0
   14.9718  -16.0105   21.1189 N   0  0  0  0  0  0  0  0  0  0  0  0
   15.2718  -15.7980   22.5174 C   0  0  1  0  0  0  0  0  0  0  0  0
   14.7752  -16.8678   23.4269 C   0  0  0  0  0  0  0  0  0  0  0  0
   13.3074  -16.9708   23.3308 C   0  0  0  0  0  0  0  0  0  0  0  0
   12.6079  -16.0408   22.8320 O   0  0  0  0  0  0  0  0  0  0  0  0
   16.7241  -15.5214   22.7172 C   0  0  0  0  0  0  0  0  0  0  0  0
   17.5029  -15.6110   21.7615 O   0  0  0  0  0  0  0  0  0  0  0  0
   12.6370  -18.0754   23.7761 O   0  0  0  0  0  0  0  0  0  0  0  0
   17.1565  -15.1714   23.9726 O   0  0  0  0  0  0  0  0  0  0  0  0
  2  1  1  1
  2  3  1  0
  3  4  1  0
  4  5  1  0
  6  5  1  0
  6  7  1  0
  8  2  1  0
  8  9  2  0
 10  8  1  0
 11 10  1  0
 11 12  1  6
 13 12  1  0
 13 17  1  0
 14 13  2  0
 15 11  1  0
 16 15  2  0
 18 15  1  0
 19 18  1  0
 19 20  1  1
 20 21  1  0
 21 25  1  0
 21 22  2  0
 23 19  1  0
 24 23  2  0
 26 23  1  0
M  END
$$$$
