KDD.pdb
     RDKit          3D

 26 25  0  0  1  0  0  0  0  0999 V2000
    8.4240  -16.7869   19.3871 N   0  0  0  0  0  0  0  0  0  0  0  0
    8.6993  -16.0151   20.5082 C   0  0  1  0  0  0  0  0  0  0  0  0
    7.5689  -15.5830   21.3851 C   0  0  0  0  0  0  0  0  0  0  0  0
    7.8767  -14.7208   22.5323 C   0  0  0  0  0  0  0  0  0  0  0  0
    6.8410  -14.2588   23.4443 C   0  0  0  0  0  0  0  0  0  0  0  0
    7.2421  -13.3672   24.5656 C   0  0  0  0  0  0  0  0  0  0  0  0
    6.0566  -12.9418   25.3312 N   0  0  0  0  0  0  0  0  0  0  0  0
    9.7492  -16.6460   21.3464 C   0  0  0  0  0  0  0  0  0  0  0  0
    9.6792  -17.9076   21.5777 O   0  0  0  0  0  0  0  0  0  0  0  0
   10.8157  -15.9134   21.8965 N   0  0  0  0  0  0  0  0  0  0  0  0
   11.8644  -16.5708   22.7011 C   0  0  1  0  0  0  0  0  0  0  0  0
   13.1206  -15.7491   22.6520 C   0  0  0  0  0  0  0  0  0  0  0  0
   14.2665  -16.4186   23.2458 C   0  0  0  0  0  0  0  0  0  0  0  0
   14.3967  -17.6471   23.4233 O   0  0  0  0  0  0  0  0  0  0  0  0
   11.3386  -16.7640   24.0807 C   0  0  0  0  0  0  0  0  0  0  0  0
   10.8950  -15.8483   24.7927 O   0  0  0  0  0  0  0  0  0  0  0  0
   15.3670  -15.6432   23.6808 O   0  0  0  0  0  0  0  0  0  0  0  0
   11.3184  -18.0748   24.6804 N   0  0  0  0  0  0  0  0  0  0  0  0
   10.8822  -18.2904   26.0421 C   0  0  1  0  0  0  0  0  0  0  0  0
    9.8819  -19.3817   26.2066 C   0  0  0  0  0  0  0  0  0  0  0  0
    8.5464  -18.8086   26.4565 C   0  0  0  0  0  0  0  0  0  0  0  0
    7.5082  -19.5326   26.4858 O   0  0  0  0  0  0  0  0  0  0  0  0
   12.0483  -18.4558   26.9578 C   0  0  0  0  0  0  0  0  0  0  0  0
   11.8591  -18.6318   28.1665 O   0  0  0  0  0  0  0  0  0  0  0  0
    8.3705  -17.4698   26.6675 O   0  0  0  0  0  0  0  0  0  0  0  0
   13.3119  -18.4067   26.4228 O   0  0  0  0  0  0  0  0  0  0  0  0
  2  1  1  6
  2  3  1  0
  3  4  1  0
  4  5  1  0
  6  5  1  0
  6  7  1  0
  8  2  1  0
  8  9  2  0
 10  8  1  0
 11 10  1  0
 11 12  1  1
 13 12  1  0
 13 17  1  0
 14 13  2  0
 15 11  1  0
 16 15  2  0
 18 15  1  0
 19 18  1  0
 19 20  1  6
 20 21  1  0
 21 25  1  0
 21 22  2  0
 23 19  1  0
 24 23  2  0
 26 23  1  0
M  END
$$$$
