KDD.pdb
     RDKit          3D

 26 25  0  0  1  0  0  0  0  0999 V2000
    8.3237  -13.6149   16.4876 N   0  0  0  0  0  0  0  0  0  0  0  0
    8.7200  -13.4185   17.8040 C   0  0  1  0  0  0  0  0  0  0  0  0
    7.6847  -13.4336   18.8816 C   0  0  0  0  0  0  0  0  0  0  0  0
    8.1216  -13.1879   20.2612 C   0  0  0  0  0  0  0  0  0  0  0  0
    8.2200  -14.2625   21.2375 C   0  0  0  0  0  0  0  0  0  0  0  0
    8.5048  -13.8998   22.6518 C   0  0  0  0  0  0  0  0  0  0  0  0
    8.4939  -15.1039   23.5019 N   0  0  0  0  0  0  0  0  0  0  0  0
    9.8191  -14.3445   18.1747 C   0  0  0  0  0  0  0  0  0  0  0  0
    9.7122  -15.5859   17.8627 O   0  0  0  0  0  0  0  0  0  0  0  0
   10.9712  -13.9125   18.8551 N   0  0  0  0  0  0  0  0  0  0  0  0
   12.1295  -14.8071   19.0480 C   0  0  1  0  0  0  0  0  0  0  0  0
   13.2917  -14.3005   18.2428 C   0  0  0  0  0  0  0  0  0  0  0  0
   14.4764  -15.1353   18.3591 C   0  0  0  0  0  0  0  0  0  0  0  0
   14.5015  -16.3818   18.4170 O   0  0  0  0  0  0  0  0  0  0  0  0
   12.4138  -14.8907   20.5072 C   0  0  0  0  0  0  0  0  0  0  0  0
   12.6697  -13.9103   21.2253 O   0  0  0  0  0  0  0  0  0  0  0  0
   15.7489  -14.5197   18.4160 O   0  0  0  0  0  0  0  0  0  0  0  0
   12.4057  -16.1638   21.1837 N   0  0  0  0  0  0  0  0  0  0  0  0
   12.7920  -16.2997   22.5705 C   0  0  1  0  0  0  0  0  0  0  0  0
   12.2809  -17.5292   23.2381 C   0  0  0  0  0  0  0  0  0  0  0  0
   10.8539  -17.3660   23.5721 C   0  0  0  0  0  0  0  0  0  0  0  0
    9.9401  -17.7007   22.7622 O   0  0  0  0  0  0  0  0  0  0  0  0
   14.2669  -16.1452   22.7328 C   0  0  0  0  0  0  0  0  0  0  0  0
   15.0051  -16.2303   21.7451 O   0  0  0  0  0  0  0  0  0  0  0  0
   10.4548  -16.8459   24.7713 O   0  0  0  0  0  0  0  0  0  0  0  0
   14.7652  -15.9100   23.9906 O   0  0  0  0  0  0  0  0  0  0  0  0
  2  1  1  6
  2  3  1  0
  3  4  1  0
  4  5  1  0
  6  5  1  0
  6  7  1  0
  8  2  1  0
  8  9  2  0
 10  8  1  0
 11 10  1  0
 11 12  1  6
 13 12  1  0
 13 17  1  0
 14 13  2  0
 15 11  1  0
 16 15  2  0
 18 15  1  0
 19 18  1  0
 19 20  1  6
 20 21  1  0
 21 25  1  0
 21 22  2  0
 23 19  1  0
 24 23  2  0
 26 23  1  0
M  END
$$$$
