QWD.pdb
     RDKit          3D

 32 33  0  0  1  0  0  0  0  0999 V2000
   11.8955  -19.9130   17.7615 N   0  0  0  0  0  0  0  0  0  0  0  0
   11.7729  -18.7470   16.9257 C   0  0  0  0  0  0  0  0  0  0  0  0
   12.4089  -18.7651   15.8566 O   0  0  0  0  0  0  0  0  0  0  0  0
   10.9332  -17.6100   17.3505 C   0  0  0  0  0  0  0  0  0  0  0  0
   10.2500  -17.8077   18.6616 C   0  0  0  0  0  0  0  0  0  0  0  0
    9.1478  -16.8149   18.8699 C   0  0  2  0  0  0  0  0  0  0  0  0
    9.0828  -15.8154   17.8677 N   0  0  0  0  0  0  0  0  0  0  0  0
    9.1632  -16.2537   20.2420 C   0  0  0  0  0  0  0  0  0  0  0  0
   10.2921  -15.8499   20.6594 O   0  0  0  0  0  0  0  0  0  0  0  0
    8.0717  -16.1278   21.1049 N   0  0  0  0  0  0  0  0  0  0  0  0
    8.2008  -15.6534   22.4690 C   0  0  1  0  0  0  0  0  0  0  0  0
    6.8205  -15.3964   23.0113 C   0  0  0  0  0  0  0  0  0  0  0  0
    6.8232  -15.0006   24.4294 C   0  0  0  0  0  0  0  0  0  0  0  0
    6.6149  -15.8251   25.5151 C   0  0  0  0  0  0  0  0  0  0  0  0
    6.6932  -15.1072   26.6483 N   0  0  0  0  0  0  0  0  0  0  0  0
    6.9531  -13.8122   26.3020 C   0  0  0  0  0  0  0  0  0  0  0  0
    7.1296  -12.6700   27.0560 C   0  0  0  0  0  0  0  0  0  0  0  0
    7.3836  -11.4813   26.4198 C   0  0  0  0  0  0  0  0  0  0  0  0
    7.4698  -11.3835   25.0468 C   0  0  0  0  0  0  0  0  0  0  0  0
    7.2948  -12.5196   24.2877 C   0  0  0  0  0  0  0  0  0  0  0  0
    7.0390  -13.7210   24.9138 C   0  0  0  0  0  0  0  0  0  0  0  0
    8.9218  -16.7062   23.2238 C   0  0  0  0  0  0  0  0  0  0  0  0
    8.8485  -17.8769   22.7656 O   0  0  0  0  0  0  0  0  0  0  0  0
    9.6606  -16.4856   24.3849 N   0  0  0  0  0  0  0  0  0  0  0  0
   10.4507  -17.5898   24.9726 C   0  0  1  0  0  0  0  0  0  0  0  0
   11.6345  -17.8786   24.0605 C   0  0  0  0  0  0  0  0  0  0  0  0
   12.8318  -18.0926   24.8614 C   0  0  0  0  0  0  0  0  0  0  0  0
   13.0294  -18.9810   25.7125 O   0  0  0  0  0  0  0  0  0  0  0  0
   10.8575  -17.0946   26.3050 C   0  0  0  0  0  0  0  0  0  0  0  0
   11.5317  -17.8529   27.2335 O   0  0  0  0  0  0  0  0  0  0  0  0
   13.9012  -17.1970   24.6606 O   0  0  0  0  0  0  0  0  0  0  0  0
   10.5864  -15.9171   26.6403 O   0  0  0  0  0  0  0  0  0  0  0  0
  2  1  1  0
  3  2  2  0
  4  2  1  0
  5  4  1  0
  6  8  1  0
  6  5  1  0
  6  7  1  6
  8  9  2  0
 10 11  1  0
 10  8  1  0
 11 12  1  1
 12 13  1  0
 13 14  2  0
 15 14  1  0
 16 15  1  0
 17 16  2  0
 18 17  1  0
 19 20  1  0
 19 18  2  0
 20 21  2  0
 21 16  1  0
 21 13  1  0
 22 11  1  0
 23 22  2  0
 24 22  1  0
 25 24  1  0
 25 26  1  6
 27 26  1  0
 27 28  2  0
 29 25  1  0
 29 30  1  0
 31 27  1  0
 32 29  2  0
M  END
$$$$
