QWD.pdb
     RDKit          3D

 32 33  0  0  1  0  0  0  0  0999 V2000
    8.4815  -12.5473   18.4430 N   0  0  0  0  0  0  0  0  0  0  0  0
    8.0396  -13.8674   18.8109 C   0  0  0  0  0  0  0  0  0  0  0  0
    7.3301  -14.4632   17.9806 O   0  0  0  0  0  0  0  0  0  0  0  0
    8.4237  -14.4464   20.1130 C   0  0  0  0  0  0  0  0  0  0  0  0
    9.8891  -14.6721   20.2761 C   0  0  0  0  0  0  0  0  0  0  0  0
   10.1785  -15.9660   20.9733 C   0  0  2  0  0  0  0  0  0  0  0  0
    9.4153  -17.0578   20.4905 N   0  0  0  0  0  0  0  0  0  0  0  0
   10.1119  -15.8247   22.4476 C   0  0  0  0  0  0  0  0  0  0  0  0
   10.8622  -14.9324   22.9500 O   0  0  0  0  0  0  0  0  0  0  0  0
    9.3146  -16.5669   23.3223 N   0  0  0  0  0  0  0  0  0  0  0  0
    9.3257  -16.3636   24.7579 C   0  0  1  0  0  0  0  0  0  0  0  0
    7.9040  -16.1905   25.2206 C   0  0  0  0  0  0  0  0  0  0  0  0
    7.3154  -14.9064   24.8054 C   0  0  0  0  0  0  0  0  0  0  0  0
    6.8612  -14.5776   23.5455 C   0  0  0  0  0  0  0  0  0  0  0  0
    6.3910  -13.3188   23.5497 N   0  0  0  0  0  0  0  0  0  0  0  0
    6.5384  -12.8250   24.8141 C   0  0  0  0  0  0  0  0  0  0  0  0
    6.2274  -11.6019   25.3724 C   0  0  0  0  0  0  0  0  0  0  0  0
    6.4957  -11.3852   26.7003 C   0  0  0  0  0  0  0  0  0  0  0  0
    7.0679  -12.3491   27.5038 C   0  0  0  0  0  0  0  0  0  0  0  0
    7.3809  -13.5725   26.9535 C   0  0  0  0  0  0  0  0  0  0  0  0
    7.1168  -13.8041   25.6203 C   0  0  0  0  0  0  0  0  0  0  0  0
    9.9776  -17.5535   25.3555 C   0  0  0  0  0  0  0  0  0  0  0  0
    9.8193  -17.7191   26.5937 O   0  0  0  0  0  0  0  0  0  0  0  0
   10.7391  -18.4813   24.6468 N   0  0  0  0  0  0  0  0  0  0  0  0
   11.4361  -19.5657   25.3726 C   0  0  1  0  0  0  0  0  0  0  0  0
   11.9042  -20.6033   24.3623 C   0  0  0  0  0  0  0  0  0  0  0  0
   10.7545  -21.1721   23.6726 C   0  0  0  0  0  0  0  0  0  0  0  0
    9.5560  -21.1032   24.0067 O   0  0  0  0  0  0  0  0  0  0  0  0
   12.5543  -18.8948   26.0695 C   0  0  0  0  0  0  0  0  0  0  0  0
   13.3173  -17.8950   25.5128 O   0  0  0  0  0  0  0  0  0  0  0  0
   11.0128  -21.8869   22.4859 O   0  0  0  0  0  0  0  0  0  0  0  0
   12.8513  -19.2346   27.2395 O   0  0  0  0  0  0  0  0  0  0  0  0
  2  1  1  0
  3  2  2  0
  4  2  1  0
  5  4  1  0
  6  8  1  0
  6  5  1  0
  6  7  1  6
  8  9  2  0
 10 11  1  0
 10  8  1  0
 11 12  1  1
 12 13  1  0
 13 14  2  0
 15 14  1  0
 16 15  1  0
 17 16  2  0
 18 17  1  0
 19 20  1  0
 19 18  2  0
 20 21  2  0
 21 16  1  0
 21 13  1  0
 22 11  1  0
 23 22  2  0
 24 22  1  0
 25 24  1  0
 25 26  1  6
 27 26  1  0
 27 28  2  0
 29 25  1  0
 29 30  1  0
 31 27  1  0
 32 29  2  0
M  END
$$$$
