QWD.pdb
     RDKit          3D

 32 33  0  0  1  0  0  0  0  0999 V2000
    8.2966  -12.4648   18.2157 N   0  0  0  0  0  0  0  0  0  0  0  0
    7.7622  -13.7359   17.8012 C   0  0  0  0  0  0  0  0  0  0  0  0
    7.2342  -13.7719   16.6753 O   0  0  0  0  0  0  0  0  0  0  0  0
    7.8502  -14.9084   18.6932 C   0  0  0  0  0  0  0  0  0  0  0  0
    8.4583  -14.6222   20.0250 C   0  0  0  0  0  0  0  0  0  0  0  0
    8.5981  -15.8639   20.8511 C   0  0  2  0  0  0  0  0  0  0  0  0
    7.4083  -16.6281   20.9391 N   0  0  0  0  0  0  0  0  0  0  0  0
    9.1987  -15.5796   22.1764 C   0  0  0  0  0  0  0  0  0  0  0  0
   10.1162  -14.7023   22.1887 O   0  0  0  0  0  0  0  0  0  0  0  0
    8.8562  -16.1745   23.3932 N   0  0  0  0  0  0  0  0  0  0  0  0
    9.5728  -15.9089   24.6254 C   0  0  1  0  0  0  0  0  0  0  0  0
    8.6219  -16.1052   25.7755 C   0  0  0  0  0  0  0  0  0  0  0  0
    7.4505  -15.2156   25.7126 C   0  0  0  0  0  0  0  0  0  0  0  0
    6.1410  -15.5918   25.4992 C   0  0  0  0  0  0  0  0  0  0  0  0
    5.3518  -14.5043   25.5092 N   0  0  0  0  0  0  0  0  0  0  0  0
    6.1471  -13.4165   25.7294 C   0  0  0  0  0  0  0  0  0  0  0  0
    5.8653  -12.0696   25.8338 C   0  0  0  0  0  0  0  0  0  0  0  0
    6.8909  -11.1875   26.0625 C   0  0  0  0  0  0  0  0  0  0  0  0
    8.2011  -11.5978   26.1930 C   0  0  0  0  0  0  0  0  0  0  0  0
    8.4900  -12.9408   26.0901 C   0  0  0  0  0  0  0  0  0  0  0  0
    7.4691  -13.8385   25.8604 C   0  0  0  0  0  0  0  0  0  0  0  0
   10.7184  -16.8490   24.6675 C   0  0  0  0  0  0  0  0  0  0  0  0
   10.7742  -17.6236   25.6588 O   0  0  0  0  0  0  0  0  0  0  0  0
   11.7169  -16.9275   23.6981 N   0  0  0  0  0  0  0  0  0  0  0  0
   12.7759  -17.9536   23.8172 C   0  0  1  0  0  0  0  0  0  0  0  0
   13.1243  -18.4558   22.4233 C   0  0  0  0  0  0  0  0  0  0  0  0
   14.2177  -19.4144   22.5048 C   0  0  0  0  0  0  0  0  0  0  0  0
   14.7809  -19.8410   23.5312 O   0  0  0  0  0  0  0  0  0  0  0  0
   13.9017  -17.2587   24.4773 C   0  0  0  0  0  0  0  0  0  0  0  0
   14.6722  -17.8161   25.4709 O   0  0  0  0  0  0  0  0  0  0  0  0
   14.7063  -19.9287   21.2871 O   0  0  0  0  0  0  0  0  0  0  0  0
   14.1978  -16.0894   24.1342 O   0  0  0  0  0  0  0  0  0  0  0  0
  2  1  1  0
  3  2  2  0
  4  2  1  0
  5  4  1  0
  6  8  1  0
  6  5  1  0
  6  7  1  1
  8  9  2  0
 10 11  1  0
 10  8  1  0
 11 12  1  1
 12 13  1  0
 13 14  2  0
 15 14  1  0
 16 15  1  0
 17 16  2  0
 18 17  1  0
 19 20  1  0
 19 18  2  0
 20 21  2  0
 21 16  1  0
 21 13  1  0
 22 11  1  0
 23 22  2  0
 24 22  1  0
 25 24  1  0
 25 26  1  6
 27 26  1  0
 27 28  2  0
 29 25  1  0
 29 30  1  0
 31 27  1  0
 32 29  2  0
M  END
$$$$
