QWD.pdb
     RDKit          3D

 32 33  0  0  1  0  0  0  0  0999 V2000
    8.2692  -12.2659   18.4041 N   0  0  0  0  0  0  0  0  0  0  0  0
    8.0952  -13.5184   17.7156 C   0  0  0  0  0  0  0  0  0  0  0  0
    7.7046  -13.4502   16.5363 O   0  0  0  0  0  0  0  0  0  0  0  0
    8.3701  -14.7935   18.4061 C   0  0  0  0  0  0  0  0  0  0  0  0
    8.7636  -14.6441   19.8372 C   0  0  0  0  0  0  0  0  0  0  0  0
    9.0997  -15.9632   20.4623 C   0  0  2  0  0  0  0  0  0  0  0  0
    8.1079  -16.9563   20.2681 N   0  0  0  0  0  0  0  0  0  0  0  0
    9.4949  -15.8150   21.8835 C   0  0  0  0  0  0  0  0  0  0  0  0
   10.2723  -14.8449   22.1409 O   0  0  0  0  0  0  0  0  0  0  0  0
    9.0992  -16.6270   22.9492 N   0  0  0  0  0  0  0  0  0  0  0  0
    9.4220  -16.3224   24.3296 C   0  0  1  0  0  0  0  0  0  0  0  0
    8.1516  -16.3799   25.1346 C   0  0  0  0  0  0  0  0  0  0  0  0
    7.2584  -15.2368   24.8837 C   0  0  0  0  0  0  0  0  0  0  0  0
    6.2684  -15.1594   23.9266 C   0  0  0  0  0  0  0  0  0  0  0  0
    5.6630  -13.9621   23.9996 N   0  0  0  0  0  0  0  0  0  0  0  0
    6.2583  -13.2566   25.0057 C   0  0  0  0  0  0  0  0  0  0  0  0
    6.0357  -11.9897   25.5054 C   0  0  0  0  0  0  0  0  0  0  0  0
    6.8071  -11.5357   26.5451 C   0  0  0  0  0  0  0  0  0  0  0  0
    7.8030  -12.3019   27.1137 C   0  0  0  0  0  0  0  0  0  0  0  0
    8.0309  -13.5676   26.6201 C   0  0  0  0  0  0  0  0  0  0  0  0
    7.2631  -14.0367   25.5756 C   0  0  0  0  0  0  0  0  0  0  0  0
   10.4201  -17.3266   24.7692 C   0  0  0  0  0  0  0  0  0  0  0  0
   10.0666  -18.5338   24.7113 O   0  0  0  0  0  0  0  0  0  0  0  0
   11.6993  -17.0240   25.2330 N   0  0  0  0  0  0  0  0  0  0  0  0
   12.5725  -18.1072   25.7359 C   0  0  1  0  0  0  0  0  0  0  0  0
   14.0173  -17.6316   25.6798 C   0  0  0  0  0  0  0  0  0  0  0  0
   14.4563  -17.5549   24.2934 C   0  0  0  0  0  0  0  0  0  0  0  0
   14.4221  -18.4558   23.4332 O   0  0  0  0  0  0  0  0  0  0  0  0
   12.1026  -18.3607   27.1148 C   0  0  0  0  0  0  0  0  0  0  0  0
   11.0914  -17.6548   27.7238 O   0  0  0  0  0  0  0  0  0  0  0  0
   14.9841  -16.3224   23.8594 O   0  0  0  0  0  0  0  0  0  0  0  0
   12.6376  -19.2664   27.7974 O   0  0  0  0  0  0  0  0  0  0  0  0
  2  1  1  0
  3  2  2  0
  4  2  1  0
  5  4  1  0
  6  8  1  0
  6  5  1  0
  6  7  1  1
  8  9  2  0
 10 11  1  0
 10  8  1  0
 11 12  1  1
 12 13  1  0
 13 14  2  0
 15 14  1  0
 16 15  1  0
 17 16  2  0
 18 17  1  0
 19 20  1  0
 19 18  2  0
 20 21  2  0
 21 16  1  0
 21 13  1  0
 22 11  1  0
 23 22  2  0
 24 22  1  0
 25 24  1  0
 25 26  1  1
 27 26  1  0
 27 28  2  0
 29 25  1  0
 29 30  1  0
 31 27  1  0
 32 29  2  0
M  END
$$$$
