QWD.pdb
     RDKit          3D

 32 33  0  0  1  0  0  0  0  0999 V2000
    7.9965  -12.1674   18.7414 N   0  0  0  0  0  0  0  0  0  0  0  0
    7.9373  -13.5984   18.5927 C   0  0  0  0  0  0  0  0  0  0  0  0
    7.7059  -14.0251   17.4472 O   0  0  0  0  0  0  0  0  0  0  0  0
    8.1400  -14.4783   19.7601 C   0  0  0  0  0  0  0  0  0  0  0  0
    9.5625  -14.6113   20.1889 C   0  0  0  0  0  0  0  0  0  0  0  0
    9.8330  -15.9458   20.8132 C   0  0  2  0  0  0  0  0  0  0  0  0
    8.9524  -16.9678   20.3800 N   0  0  0  0  0  0  0  0  0  0  0  0
    9.9265  -15.8548   22.2900 C   0  0  0  0  0  0  0  0  0  0  0  0
   10.7306  -14.9806   22.7383 O   0  0  0  0  0  0  0  0  0  0  0  0
    9.2250  -16.6258   23.2202 N   0  0  0  0  0  0  0  0  0  0  0  0
    9.4069  -16.4856   24.6518 C   0  0  1  0  0  0  0  0  0  0  0  0
    8.0561  -16.5752   25.3097 C   0  0  0  0  0  0  0  0  0  0  0  0
    7.2301  -15.3755   25.0950 C   0  0  0  0  0  0  0  0  0  0  0  0
    6.2191  -15.2265   24.1689 C   0  0  0  0  0  0  0  0  0  0  0  0
    5.6932  -13.9941   24.2696 N   0  0  0  0  0  0  0  0  0  0  0  0
    6.3616  -13.3375   25.2629 C   0  0  0  0  0  0  0  0  0  0  0  0
    6.2346  -12.0641   25.7791 C   0  0  0  0  0  0  0  0  0  0  0  0
    7.0638  -11.6700   26.7986 C   0  0  0  0  0  0  0  0  0  0  0  0
    8.0255  -12.5030   27.3307 C   0  0  0  0  0  0  0  0  0  0  0  0
    8.1580  -13.7757   26.8205 C   0  0  0  0  0  0  0  0  0  0  0  0
    7.3314  -14.1851   25.7959 C   0  0  0  0  0  0  0  0  0  0  0  0
   10.3204  -17.5729   25.0776 C   0  0  0  0  0  0  0  0  0  0  0  0
   10.2077  -17.9684   26.2678 O   0  0  0  0  0  0  0  0  0  0  0  0
   11.2763  -18.1725   24.2594 N   0  0  0  0  0  0  0  0  0  0  0  0
   12.1635  -19.2189   24.8131 C   0  0  1  0  0  0  0  0  0  0  0  0
   12.9049  -19.8853   23.6629 C   0  0  0  0  0  0  0  0  0  0  0  0
   11.9560  -20.5750   22.7999 C   0  0  0  0  0  0  0  0  0  0  0  0
   10.8316  -21.0170   23.1050 O   0  0  0  0  0  0  0  0  0  0  0  0
   13.0640  -18.4987   25.7386 C   0  0  0  0  0  0  0  0  0  0  0  0
   13.4920  -17.2063   25.5437 O   0  0  0  0  0  0  0  0  0  0  0  0
   12.3414  -20.7727   21.4588 O   0  0  0  0  0  0  0  0  0  0  0  0
   13.4811  -19.0725   26.7727 O   0  0  0  0  0  0  0  0  0  0  0  0
  2  1  1  0
  3  2  2  0
  4  2  1  0
  5  4  1  0
  6  8  1  0
  6  5  1  0
  6  7  1  1
  8  9  2  0
 10 11  1  0
 10  8  1  0
 11 12  1  1
 12 13  1  0
 13 14  2  0
 15 14  1  0
 16 15  1  0
 17 16  2  0
 18 17  1  0
 19 20  1  0
 19 18  2  0
 20 21  2  0
 21 16  1  0
 21 13  1  0
 22 11  1  0
 23 22  2  0
 24 22  1  0
 25 24  1  0
 25 26  1  6
 27 26  1  0
 27 28  2  0
 29 25  1  0
 29 30  1  0
 31 27  1  0
 32 29  2  0
M  END
$$$$
