FYP.pdb
     RDKit          3D

 31 33  0  0  1  0  0  0  0  0999 V2000
    5.1823  -19.6683   25.7409 N   0  0  0  0  0  0  0  0  0  0  0  0
    6.3231  -18.9407   25.2323 C   0  0  1  0  0  0  0  0  0  0  0  0
    6.5877  -19.4519   23.8379 C   0  0  0  0  0  0  0  0  0  0  0  0
    5.5940  -18.9771   22.8534 C   0  0  0  0  0  0  0  0  0  0  0  0
    4.3089  -19.4595   22.8466 C   0  0  0  0  0  0  0  0  0  0  0  0
    3.4037  -18.9967   21.9151 C   0  0  0  0  0  0  0  0  0  0  0  0
    3.7793  -18.0535   20.9907 C   0  0  0  0  0  0  0  0  0  0  0  0
    5.0812  -17.5683   21.0016 C   0  0  0  0  0  0  0  0  0  0  0  0
    5.9916  -18.0358   21.9409 C   0  0  0  0  0  0  0  0  0  0  0  0
    6.0951  -17.4890   25.1737 C   0  0  0  0  0  0  0  0  0  0  0  0
    4.9094  -17.0821   25.1232 O   0  0  0  0  0  0  0  0  0  0  0  0
   11.1833  -15.8220   29.1021 O   0  0  0  0  0  0  0  0  0  0  0  0
   10.2753  -15.3632   28.1532 C   0  0  0  0  0  0  0  0  0  0  0  0
   10.2194  -14.0397   27.7682 C   0  0  0  0  0  0  0  0  0  0  0  0
    9.2938  -13.6420   26.8187 C   0  0  0  0  0  0  0  0  0  0  0  0
    8.4158  -14.5311   26.2372 C   0  0  0  0  0  0  0  0  0  0  0  0
    7.4125  -14.1025   25.2094 C   0  0  0  0  0  0  0  0  0  0  0  0
    7.0818  -15.3145   24.3518 C   0  0  2  0  0  0  0  0  0  0  0  0
    7.1324  -16.5216   25.1708 N   0  0  0  0  0  0  0  0  0  0  0  0
    8.0828  -15.3862   23.2638 C   0  0  0  0  0  0  0  0  0  0  0  0
    8.8568  -16.4121   23.2957 O   0  0  0  0  0  0  0  0  0  0  0  0
    8.4823  -15.8523   26.6314 C   0  0  0  0  0  0  0  0  0  0  0  0
    9.3963  -16.2543   27.5715 C   0  0  0  0  0  0  0  0  0  0  0  0
    8.2421  -14.4507   22.2349 N   0  0  0  0  0  0  0  0  0  0  0  0
    8.0518  -13.0236   22.2802 C   0  0  0  0  0  0  0  0  0  0  0  0
    7.6095  -12.6582   20.8711 C   0  0  0  0  0  0  0  0  0  0  0  0
    7.7503  -13.8953   20.0556 C   0  0  0  0  0  0  0  0  0  0  0  0
    8.6439  -14.7827   20.8559 C   0  0  1  0  0  0  0  0  0  0  0  0
   10.0594  -14.4358   20.6877 C   0  0  0  0  0  0  0  0  0  0  0  0
   10.8059  -14.7511   19.5428 O   0  0  0  0  0  0  0  0  0  0  0  0
   10.6766  -13.8213   21.5962 O   0  0  0  0  0  0  0  0  0  0  0  0
  2  1  1  6
  2  3  1  0
  3  4  1  0
  4  5  2  0
  5  6  1  0
  7  6  2  0
  8  7  1  0
  9  4  1  0
  9  8  2  0
 10  2  1  0
 11 10  2  0
 13 12  1  0
 13 14  2  0
 15 14  1  0
 16 15  2  0
 17 16  1  0
 18 19  1  0
 18 17  1  1
 19 10  1  0
 20 18  1  0
 21 20  2  0
 22 23  2  0
 22 16  1  0
 23 13  1  0
 24 20  1  0
 25 24  1  0
 26 25  1  0
 26 27  1  0
 27 28  1  0
 28 24  1  0
 28 29  1  1
 30 29  1  0
 31 29  2  0
M  END
$$$$
