FYP.pdb
     RDKit          3D

 31 33  0  0  1  0  0  0  0  0999 V2000
    5.4284  -17.8088   20.3377 N   0  0  0  0  0  0  0  0  0  0  0  0
    6.3574  -16.7889   20.7696 C   0  0  1  0  0  0  0  0  0  0  0  0
    5.8405  -15.4709   20.2489 C   0  0  0  0  0  0  0  0  0  0  0  0
    6.7580  -14.3457   20.5209 C   0  0  0  0  0  0  0  0  0  0  0  0
    7.7570  -14.0104   19.6412 C   0  0  0  0  0  0  0  0  0  0  0  0
    8.5978  -12.9544   19.9228 C   0  0  0  0  0  0  0  0  0  0  0  0
    8.4430  -12.2330   21.0807 C   0  0  0  0  0  0  0  0  0  0  0  0
    7.4304  -12.5763   21.9679 C   0  0  0  0  0  0  0  0  0  0  0  0
    6.5843  -13.6404   21.6824 C   0  0  0  0  0  0  0  0  0  0  0  0
    6.4793  -16.7098   22.2330 C   0  0  0  0  0  0  0  0  0  0  0  0
    5.4232  -16.6681   22.9091 O   0  0  0  0  0  0  0  0  0  0  0  0
    9.0306  -18.2923   30.3976 O   0  0  0  0  0  0  0  0  0  0  0  0
    8.8783  -18.2529   29.0154 C   0  0  0  0  0  0  0  0  0  0  0  0
    7.7157  -18.6557   28.3917 C   0  0  0  0  0  0  0  0  0  0  0  0
    7.6228  -18.5937   27.0118 C   0  0  0  0  0  0  0  0  0  0  0  0
    8.6622  -18.1385   26.2295 C   0  0  0  0  0  0  0  0  0  0  0  0
    8.5639  -18.0710   24.7354 C   0  0  0  0  0  0  0  0  0  0  0  0
    7.8092  -16.7997   24.3780 C   0  0  2  0  0  0  0  0  0  0  0  0
    7.7162  -16.6778   22.9264 N   0  0  0  0  0  0  0  0  0  0  0  0
    8.5563  -15.6549   24.9456 C   0  0  0  0  0  0  0  0  0  0  0  0
    9.6672  -15.3790   24.3605 O   0  0  0  0  0  0  0  0  0  0  0  0
    9.8197  -17.7386   26.8662 C   0  0  0  0  0  0  0  0  0  0  0  0
    9.9198  -17.7970   28.2327 C   0  0  0  0  0  0  0  0  0  0  0  0
    8.1543  -14.8744   26.0357 N   0  0  0  0  0  0  0  0  0  0  0  0
    6.9655  -14.9980   26.8398 C   0  0  0  0  0  0  0  0  0  0  0  0
    6.6666  -13.5758   27.2904 C   0  0  0  0  0  0  0  0  0  0  0  0
    7.8235  -12.7478   26.8528 C   0  0  0  0  0  0  0  0  0  0  0  0
    8.9121  -13.7284   26.5701 C   0  0  1  0  0  0  0  0  0  0  0  0
    9.6004  -14.1556   27.7932 C   0  0  0  0  0  0  0  0  0  0  0  0
   10.5661  -13.3807   28.4523 O   0  0  0  0  0  0  0  0  0  0  0  0
    9.3402  -15.2717   28.3134 O   0  0  0  0  0  0  0  0  0  0  0  0
  2  1  1  1
  2  3  1  0
  3  4  1  0
  4  5  2  0
  5  6  1  0
  7  6  2  0
  8  7  1  0
  9  4  1  0
  9  8  2  0
 10  2  1  0
 11 10  2  0
 13 12  1  0
 13 14  2  0
 15 14  1  0
 16 15  2  0
 17 16  1  0
 18 19  1  0
 18 17  1  6
 19 10  1  0
 20 18  1  0
 21 20  2  0
 22 23  2  0
 22 16  1  0
 23 13  1  0
 24 20  1  0
 25 24  1  0
 26 25  1  0
 26 27  1  0
 27 28  1  0
 28 24  1  0
 28 29  1  1
 30 29  1  0
 31 29  2  0
M  END
$$$$
