FYP.pdb
     RDKit          3D

 31 33  0  0  1  0  0  0  0  0999 V2000
    6.1862  -17.8625   20.1599 N   0  0  0  0  0  0  0  0  0  0  0  0
    6.1493  -18.2375   21.5555 C   0  0  1  0  0  0  0  0  0  0  0  0
    6.6139  -19.6701   21.6408 C   0  0  0  0  0  0  0  0  0  0  0  0
    5.5193  -20.6120   21.9516 C   0  0  0  0  0  0  0  0  0  0  0  0
    5.0357  -20.7480   23.2291 C   0  0  0  0  0  0  0  0  0  0  0  0
    4.0129  -21.6356   23.4881 C   0  0  0  0  0  0  0  0  0  0  0  0
    3.4721  -22.3873   22.4744 C   0  0  0  0  0  0  0  0  0  0  0  0
    3.9649  -22.2459   21.1830 C   0  0  0  0  0  0  0  0  0  0  0  0
    4.9955  -21.3512   20.9241 C   0  0  0  0  0  0  0  0  0  0  0  0
    7.0207  -17.4017   22.3950 C   0  0  0  0  0  0  0  0  0  0  0  0
    8.1216  -17.0359   21.9172 O   0  0  0  0  0  0  0  0  0  0  0  0
   10.7230  -13.2511   29.1712 O   0  0  0  0  0  0  0  0  0  0  0  0
    9.7924  -13.8994   28.3656 C   0  0  0  0  0  0  0  0  0  0  0  0
    9.5478  -15.2532   28.4674 C   0  0  0  0  0  0  0  0  0  0  0  0
    8.6093  -15.8431   27.6381 C   0  0  0  0  0  0  0  0  0  0  0  0
    7.9021  -15.1181   26.7034 C   0  0  0  0  0  0  0  0  0  0  0  0
    6.8860  -15.7549   25.8042 C   0  0  0  0  0  0  0  0  0  0  0  0
    7.6001  -16.1896   24.5335 C   0  0  2  0  0  0  0  0  0  0  0  0
    6.6934  -16.9842   23.7104 N   0  0  0  0  0  0  0  0  0  0  0  0
    8.7780  -16.9941   24.9285 C   0  0  0  0  0  0  0  0  0  0  0  0
    8.5119  -18.1143   25.5004 O   0  0  0  0  0  0  0  0  0  0  0  0
    8.1564  -13.7645   26.6119 C   0  0  0  0  0  0  0  0  0  0  0  0
    9.0846  -13.1725   27.4298 C   0  0  0  0  0  0  0  0  0  0  0  0
   10.1169  -16.6377   24.7298 N   0  0  0  0  0  0  0  0  0  0  0  0
   10.6803  -15.3240   24.5513 C   0  0  0  0  0  0  0  0  0  0  0  0
   11.8953  -15.5531   23.6646 C   0  0  0  0  0  0  0  0  0  0  0  0
   12.0486  -17.0283   23.5400 C   0  0  0  0  0  0  0  0  0  0  0  0
   11.2362  -17.5941   24.6565 C   0  0  1  0  0  0  0  0  0  0  0  0
   11.9579  -17.5641   25.9334 C   0  0  0  0  0  0  0  0  0  0  0  0
   11.5628  -16.7852   27.0310 O   0  0  0  0  0  0  0  0  0  0  0  0
   12.9937  -18.2604   26.0958 O   0  0  0  0  0  0  0  0  0  0  0  0
  2  1  1  6
  2  3  1  0
  3  4  1  0
  4  5  2  0
  5  6  1  0
  7  6  2  0
  8  7  1  0
  9  4  1  0
  9  8  2  0
 10  2  1  0
 11 10  2  0
 13 12  1  0
 13 14  2  0
 15 14  1  0
 16 15  2  0
 17 16  1  0
 18 19  1  0
 18 17  1  1
 19 10  1  0
 20 18  1  0
 21 20  2  0
 22 23  2  0
 22 16  1  0
 23 13  1  0
 24 20  1  0
 25 24  1  0
 26 25  1  0
 26 27  1  0
 27 28  1  0
 28 24  1  0
 28 29  1  1
 30 29  1  0
 31 29  2  0
M  END
$$$$
