FYP.pdb
     RDKit          3D

 31 33  0  0  1  0  0  0  0  0999 V2000
    4.3415  -15.8271   21.2378 N   0  0  0  0  0  0  0  0  0  0  0  0
    5.6135  -16.4855   21.4333 C   0  0  1  0  0  0  0  0  0  0  0  0
    6.3675  -16.3861   20.1306 C   0  0  0  0  0  0  0  0  0  0  0  0
    6.9398  -15.0442   19.8985 C   0  0  0  0  0  0  0  0  0  0  0  0
    6.1429  -13.9749   19.5729 C   0  0  0  0  0  0  0  0  0  0  0  0
    6.7064  -12.7342   19.3623 C   0  0  0  0  0  0  0  0  0  0  0  0
    8.0634  -12.5592   19.4762 C   0  0  0  0  0  0  0  0  0  0  0  0
    8.8656  -13.6446   19.8060 C   0  0  0  0  0  0  0  0  0  0  0  0
    8.2961  -14.8938   20.0177 C   0  0  0  0  0  0  0  0  0  0  0  0
    6.4179  -15.8694   22.4992 C   0  0  0  0  0  0  0  0  0  0  0  0
    6.8832  -14.7222   22.2956 O   0  0  0  0  0  0  0  0  0  0  0  0
   11.1998  -13.9273   29.5079 O   0  0  0  0  0  0  0  0  0  0  0  0
   10.2025  -14.4220   28.6736 C   0  0  0  0  0  0  0  0  0  0  0  0
    9.8717  -15.7607   28.6361 C   0  0  0  0  0  0  0  0  0  0  0  0
    8.8697  -16.1942   27.7849 C   0  0  0  0  0  0  0  0  0  0  0  0
    8.1825  -15.3263   26.9639 C   0  0  0  0  0  0  0  0  0  0  0  0
    7.0976  -15.7936   26.0413 C   0  0  0  0  0  0  0  0  0  0  0  0
    7.7132  -15.9880   24.6640 C   0  0  2  0  0  0  0  0  0  0  0  0
    6.6998  -16.4920   23.7421 N   0  0  0  0  0  0  0  0  0  0  0  0
    8.8207  -16.9610   24.7961 C   0  0  0  0  0  0  0  0  0  0  0  0
    8.4650  -18.1638   25.0778 O   0  0  0  0  0  0  0  0  0  0  0  0
    8.5232  -13.9895   27.0113 C   0  0  0  0  0  0  0  0  0  0  0  0
    9.5148  -13.5520   27.8518 C   0  0  0  0  0  0  0  0  0  0  0  0
   10.1824  -16.6777   24.6398 N   0  0  0  0  0  0  0  0  0  0  0  0
   10.8410  -15.3966   24.6510 C   0  0  0  0  0  0  0  0  0  0  0  0
   12.0375  -15.5807   23.7294 C   0  0  0  0  0  0  0  0  0  0  0  0
   12.0824  -17.0288   23.3883 C   0  0  0  0  0  0  0  0  0  0  0  0
   11.2288  -17.6919   24.4169 C   0  0  1  0  0  0  0  0  0  0  0  0
   11.9484  -17.9026   25.6779 C   0  0  0  0  0  0  0  0  0  0  0  0
   12.9469  -18.8726   25.8499 O   0  0  0  0  0  0  0  0  0  0  0  0
   11.6867  -17.1961   26.6860 O   0  0  0  0  0  0  0  0  0  0  0  0
  2  1  1  6
  2  3  1  0
  3  4  1  0
  4  5  2  0
  5  6  1  0
  7  6  2  0
  8  7  1  0
  9  4  1  0
  9  8  2  0
 10  2  1  0
 11 10  2  0
 13 12  1  0
 13 14  2  0
 15 14  1  0
 16 15  2  0
 17 16  1  0
 18 19  1  0
 18 17  1  1
 19 10  1  0
 20 18  1  0
 21 20  2  0
 22 23  2  0
 22 16  1  0
 23 13  1  0
 24 20  1  0
 25 24  1  0
 26 25  1  0
 26 27  1  0
 27 28  1  0
 28 24  1  0
 28 29  1  1
 30 29  1  0
 31 29  2  0
M  END
$$$$
