FYP.pdb
     RDKit          3D

 31 33  0  0  1  0  0  0  0  0999 V2000
    6.4820  -17.2918   19.9195 N   0  0  0  0  0  0  0  0  0  0  0  0
    7.6411  -17.2893   20.7834 C   0  0  1  0  0  0  0  0  0  0  0  0
    8.6332  -16.3208   20.1892 C   0  0  0  0  0  0  0  0  0  0  0  0
    8.1427  -14.9275   20.1817 C   0  0  0  0  0  0  0  0  0  0  0  0
    8.8900  -13.9104   19.6418 C   0  0  0  0  0  0  0  0  0  0  0  0
    8.4051  -12.6196   19.6495 C   0  0  0  0  0  0  0  0  0  0  0  0
    7.1759  -12.3426   20.1950 C   0  0  0  0  0  0  0  0  0  0  0  0
    6.4234  -13.3755   20.7402 C   0  0  0  0  0  0  0  0  0  0  0  0
    6.9136  -14.6752   20.7315 C   0  0  0  0  0  0  0  0  0  0  0  0
    7.3284  -16.8700   22.1578 C   0  0  0  0  0  0  0  0  0  0  0  0
    6.2082  -16.3471   22.3722 O   0  0  0  0  0  0  0  0  0  0  0  0
    5.0853  -22.4084   23.5823 O   0  0  0  0  0  0  0  0  0  0  0  0
    5.8073  -21.3240   24.0704 C   0  0  0  0  0  0  0  0  0  0  0  0
    5.2951  -20.4682   25.0233 C   0  0  0  0  0  0  0  0  0  0  0  0
    6.0610  -19.4055   25.4709 C   0  0  0  0  0  0  0  0  0  0  0  0
    7.3320  -19.1688   24.9932 C   0  0  0  0  0  0  0  0  0  0  0  0
    8.1628  -18.0185   25.4760 C   0  0  0  0  0  0  0  0  0  0  0  0
    7.8008  -16.8020   24.6378 C   0  0  2  0  0  0  0  0  0  0  0  0
    8.2146  -17.0202   23.2551 N   0  0  0  0  0  0  0  0  0  0  0  0
    8.5053  -15.6324   25.2092 C   0  0  0  0  0  0  0  0  0  0  0  0
    9.6820  -15.4157   24.7390 O   0  0  0  0  0  0  0  0  0  0  0  0
    7.8325  -20.0327   24.0400 C   0  0  0  0  0  0  0  0  0  0  0  0
    7.0800  -21.0878   23.5913 C   0  0  0  0  0  0  0  0  0  0  0  0
    8.0002  -14.7715   26.1904 N   0  0  0  0  0  0  0  0  0  0  0  0
    6.7107  -14.7977   26.8318 C   0  0  0  0  0  0  0  0  0  0  0  0
    6.4236  -13.3399   27.1591 C   0  0  0  0  0  0  0  0  0  0  0  0
    7.6669  -12.5875   26.8375 C   0  0  0  0  0  0  0  0  0  0  0  0
    8.7348  -13.6267   26.7589 C   0  0  1  0  0  0  0  0  0  0  0  0
    9.2331  -14.0064   28.0855 C   0  0  0  0  0  0  0  0  0  0  0  0
    8.9797  -15.2493   28.6842 O   0  0  0  0  0  0  0  0  0  0  0  0
    9.9302  -13.2026   28.7578 O   0  0  0  0  0  0  0  0  0  0  0  0
  2  1  1  6
  2  3  1  0
  3  4  1  0
  4  5  2  0
  5  6  1  0
  7  6  2  0
  8  7  1  0
  9  4  1  0
  9  8  2  0
 10  2  1  0
 11 10  2  0
 13 12  1  0
 13 14  2  0
 15 14  1  0
 16 15  2  0
 17 16  1  0
 18 19  1  0
 18 17  1  1
 19 10  1  0
 20 18  1  0
 21 20  2  0
 22 23  2  0
 22 16  1  0
 23 13  1  0
 24 20  1  0
 25 24  1  0
 26 25  1  0
 26 27  1  0
 27 28  1  0
 28 24  1  0
 28 29  1  1
 30 29  1  0
 31 29  2  0
M  END
$$$$
