FYP.pdb
     RDKit          3D

 31 33  0  0  1  0  0  0  0  0999 V2000
    7.3864  -17.3332   20.6192 N   0  0  0  0  0  0  0  0  0  0  0  0
    8.7458  -16.8767   20.4372 C   0  0  1  0  0  0  0  0  0  0  0  0
    8.7189  -15.8293   19.3519 C   0  0  0  0  0  0  0  0  0  0  0  0
    8.1239  -14.5533   19.7990 C   0  0  0  0  0  0  0  0  0  0  0  0
    6.7867  -14.4535   20.0929 C   0  0  0  0  0  0  0  0  0  0  0  0
    6.2603  -13.2486   20.5082 C   0  0  0  0  0  0  0  0  0  0  0  0
    7.0663  -12.1437   20.6305 C   0  0  0  0  0  0  0  0  0  0  0  0
    8.4190  -12.2500   20.3318 C   0  0  0  0  0  0  0  0  0  0  0  0
    8.9475  -13.4647   19.9136 C   0  0  0  0  0  0  0  0  0  0  0  0
    9.3185  -16.2867   21.6565 C   0  0  0  0  0  0  0  0  0  0  0  0
   10.4872  -15.8343   21.5973 O   0  0  0  0  0  0  0  0  0  0  0  0
   11.1033  -13.8516   29.8524 O   0  0  0  0  0  0  0  0  0  0  0  0
   10.4116  -14.2948   28.7298 C   0  0  0  0  0  0  0  0  0  0  0  0
   10.0325  -15.6118   28.5718 C   0  0  0  0  0  0  0  0  0  0  0  0
    9.3457  -15.9939   27.4322 C   0  0  0  0  0  0  0  0  0  0  0  0
    9.0230  -15.0956   26.4380 C   0  0  0  0  0  0  0  0  0  0  0  0
    8.2799  -15.5073   25.2032 C   0  0  0  0  0  0  0  0  0  0  0  0
    9.3084  -15.8934   24.1511 C   0  0  2  0  0  0  0  0  0  0  0  0
    8.6315  -16.1979   22.8942 N   0  0  0  0  0  0  0  0  0  0  0  0
   10.0381  -17.0823   24.6459 C   0  0  0  0  0  0  0  0  0  0  0  0
    9.3655  -18.1779   24.6498 O   0  0  0  0  0  0  0  0  0  0  0  0
    9.4082  -13.7811   26.6086 C   0  0  0  0  0  0  0  0  0  0  0  0
   10.0890  -13.3944   27.7346 C   0  0  0  0  0  0  0  0  0  0  0  0
   11.3642  -17.1014   25.0934 N   0  0  0  0  0  0  0  0  0  0  0  0
   12.2170  -15.9889   25.4251 C   0  0  0  0  0  0  0  0  0  0  0  0
   13.6192  -16.4784   25.0951 C   0  0  0  0  0  0  0  0  0  0  0  0
   13.4887  -17.9225   24.7592 C   0  0  0  0  0  0  0  0  0  0  0  0
   12.1593  -18.3247   25.3046 C   0  0  1  0  0  0  0  0  0  0  0  0
   12.2148  -18.6005   26.7444 C   0  0  0  0  0  0  0  0  0  0  0  0
   12.8441  -19.7261   27.2962 O   0  0  0  0  0  0  0  0  0  0  0  0
   11.6812  -17.8095   27.5652 O   0  0  0  0  0  0  0  0  0  0  0  0
  2  1  1  1
  2  3  1  0
  3  4  1  0
  4  5  2  0
  5  6  1  0
  7  6  2  0
  8  7  1  0
  9  4  1  0
  9  8  2  0
 10  2  1  0
 11 10  2  0
 13 12  1  0
 13 14  2  0
 15 14  1  0
 16 15  2  0
 17 16  1  0
 18 19  1  0
 18 17  1  1
 19 10  1  0
 20 18  1  0
 21 20  2  0
 22 23  2  0
 22 16  1  0
 23 13  1  0
 24 20  1  0
 25 24  1  0
 26 25  1  0
 26 27  1  0
 27 28  1  0
 28 24  1  0
 28 29  1  1
 30 29  1  0
 31 29  2  0
M  END
$$$$
