FTW.pdb
     RDKit          3D

 33 35  0  0  1  0  0  0  0  0999 V2000
    7.7155  -16.7686   17.1133 N   0  0  0  0  0  0  0  0  0  0  0  0
    8.3438  -15.8745   18.0604 C   0  0  1  0  0  0  0  0  0  0  0  0
    7.5129  -14.5832   18.0197 C   0  0  0  0  0  0  0  0  0  0  0  0
    8.1187  -13.6002   18.9462 C   0  0  0  0  0  0  0  0  0  0  0  0
    9.1382  -12.7695   18.4996 C   0  0  0  0  0  0  0  0  0  0  0  0
    9.7272  -11.8424   19.3247 C   0  0  0  0  0  0  0  0  0  0  0  0
    9.2697  -11.7590   20.6296 C   0  0  0  0  0  0  0  0  0  0  0  0
    8.2556  -12.5824   21.0807 C   0  0  0  0  0  0  0  0  0  0  0  0
    7.6711  -13.5098   20.2441 C   0  0  0  0  0  0  0  0  0  0  0  0
    8.3207  -16.4946   19.3939 C   0  0  0  0  0  0  0  0  0  0  0  0
    7.2298  -16.9696   19.8662 O   0  0  0  0  0  0  0  0  0  0  0  0
    9.6099  -19.6297   20.3675 C   0  0  0  0  0  0  0  0  0  0  0  0
   10.1802  -18.6594   21.3787 C   0  0  1  0  0  0  0  0  0  0  0  0
   11.4745  -18.3714   20.9788 O   0  0  0  0  0  0  0  0  0  0  0  0
    9.4009  -17.3840   21.4638 C   0  0  2  0  0  0  0  0  0  0  0  0
    9.4339  -16.6210   20.2367 N   0  0  0  0  0  0  0  0  0  0  0  0
    9.9193  -16.5848   22.6032 C   0  0  0  0  0  0  0  0  0  0  0  0
   10.5697  -15.4984   22.3839 O   0  0  0  0  0  0  0  0  0  0  0  0
    9.7609  -16.9101   23.9701 N   0  0  0  0  0  0  0  0  0  0  0  0
   10.3130  -16.0582   25.0096 C   0  0  1  0  0  0  0  0  0  0  0  0
    9.5526  -14.8028   25.2106 C   0  0  0  0  0  0  0  0  0  0  0  0
    8.2999  -15.0826   25.9436 C   0  0  0  0  0  0  0  0  0  0  0  0
    7.7114  -16.3304   26.1177 C   0  0  0  0  0  0  0  0  0  0  0  0
    6.5770  -16.1904   26.8184 N   0  0  0  0  0  0  0  0  0  0  0  0
    6.3798  -14.8961   27.1225 C   0  0  0  0  0  0  0  0  0  0  0  0
    5.3842  -14.2552   27.8148 C   0  0  0  0  0  0  0  0  0  0  0  0
    5.4296  -12.8828   27.9873 C   0  0  0  0  0  0  0  0  0  0  0  0
    6.4884  -12.1906   27.4511 C   0  0  0  0  0  0  0  0  0  0  0  0
    7.4852  -12.8343   26.7576 C   0  0  0  0  0  0  0  0  0  0  0  0
    7.4567  -14.1951   26.5767 C   0  0  0  0  0  0  0  0  0  0  0  0
   10.3618  -16.8211   26.2752 C   0  0  0  0  0  0  0  0  0  0  0  0
   10.9370  -16.2693   27.4062 O   0  0  0  0  0  0  0  0  0  0  0  0
    9.8892  -17.9907   26.3761 O   0  0  0  0  0  0  0  0  0  0  0  0
  2  1  1  6
  2 10  1  0
  2  3  1  0
  4  3  1  0
  4  5  2  0
  6  5  1  0
  7  6  2  0
  8  9  2  0
  8  7  1  0
  9  4  1  0
 10 11  2  0
 13 12  1  6
 13 14  1  0
 15 13  1  0
 15 16  1  6
 16 10  1  0
 17 15  1  0
 18 17  2  0
 19 17  1  0
 20 21  1  1
 20 19  1  0
 21 22  1  0
 22 30  1  0
 23 24  1  0
 23 22  2  0
 24 25  1  0
 25 30  2  0
 25 26  1  0
 26 27  2  0
 27 28  1  0
 29 28  2  0
 30 29  1  0
 31 20  1  0
 31 32  1  0
 33 31  2  0
M  END
$$$$
