FTW.pdb
     RDKit          3D

 33 35  0  0  1  0  0  0  0  0999 V2000
    7.5272  -17.1086   17.7847 N   0  0  0  0  0  0  0  0  0  0  0  0
    8.1984  -16.2187   18.7059 C   0  0  1  0  0  0  0  0  0  0  0  0
    7.2900  -14.9852   18.8208 C   0  0  0  0  0  0  0  0  0  0  0  0
    7.8658  -14.0646   19.8272 C   0  0  0  0  0  0  0  0  0  0  0  0
    7.4411  -14.1340   21.1477 C   0  0  0  0  0  0  0  0  0  0  0  0
    7.9496  -13.3005   22.1140 C   0  0  0  0  0  0  0  0  0  0  0  0
    8.9090  -12.3784   21.7290 C   0  0  0  0  0  0  0  0  0  0  0  0
    9.3363  -12.3038   20.4169 C   0  0  0  0  0  0  0  0  0  0  0  0
    8.8193  -13.1453   19.4546 C   0  0  0  0  0  0  0  0  0  0  0  0
    8.3584  -16.8991   20.0000 C   0  0  0  0  0  0  0  0  0  0  0  0
    7.3584  -17.4745   20.5548 O   0  0  0  0  0  0  0  0  0  0  0  0
   10.1601  -19.9171   20.9887 C   0  0  0  0  0  0  0  0  0  0  0  0
   10.6111  -18.8301   21.9395 C   0  0  1  0  0  0  0  0  0  0  0  0
   11.8468  -18.3901   21.4954 O   0  0  0  0  0  0  0  0  0  0  0  0
    9.6671  -17.6689   21.9841 C   0  0  2  0  0  0  0  0  0  0  0  0
    9.5601  -16.9813   20.7173 N   0  0  0  0  0  0  0  0  0  0  0  0
   10.1037  -16.7419   23.0592 C   0  0  0  0  0  0  0  0  0  0  0  0
   10.7787  -15.6886   22.7657 O   0  0  0  0  0  0  0  0  0  0  0  0
    9.8379  -16.9053   24.4384 N   0  0  0  0  0  0  0  0  0  0  0  0
   10.4904  -16.0666   25.4293 C   0  0  1  0  0  0  0  0  0  0  0  0
    9.8967  -14.7141   25.5421 C   0  0  0  0  0  0  0  0  0  0  0  0
    8.4892  -14.8151   25.9823 C   0  0  0  0  0  0  0  0  0  0  0  0
    7.7776  -15.9906   26.1947 C   0  0  0  0  0  0  0  0  0  0  0  0
    6.5263  -15.6884   26.5693 N   0  0  0  0  0  0  0  0  0  0  0  0
    6.3688  -14.3544   26.6171 C   0  0  0  0  0  0  0  0  0  0  0  0
    5.2944  -13.5660   26.9415 C   0  0  0  0  0  0  0  0  0  0  0  0
    5.4091  -12.1872   26.9103 C   0  0  0  0  0  0  0  0  0  0  0  0
    6.6161  -11.6390   26.5492 C   0  0  0  0  0  0  0  0  0  0  0  0
    7.6917  -12.4304   26.2243 C   0  0  0  0  0  0  0  0  0  0  0  0
    7.5963  -13.7999   26.2498 C   0  0  0  0  0  0  0  0  0  0  0  0
   10.4355  -16.7474   26.7406 C   0  0  0  0  0  0  0  0  0  0  0  0
    9.8877  -18.0131   26.8525 O   0  0  0  0  0  0  0  0  0  0  0  0
   10.8781  -16.2110   27.7979 O   0  0  0  0  0  0  0  0  0  0  0  0
  2  1  1  6
  2 10  1  0
  2  3  1  0
  4  3  1  0
  4  5  2  0
  6  5  1  0
  7  6  2  0
  8  9  2  0
  8  7  1  0
  9  4  1  0
 10 11  2  0
 13 12  1  6
 13 14  1  0
 15 13  1  0
 15 16  1  6
 16 10  1  0
 17 15  1  0
 18 17  2  0
 19 17  1  0
 20 21  1  1
 20 19  1  0
 21 22  1  0
 22 30  1  0
 23 24  1  0
 23 22  2  0
 24 25  1  0
 25 30  2  0
 25 26  1  0
 26 27  2  0
 27 28  1  0
 29 28  2  0
 30 29  1  0
 31 20  1  0
 31 32  1  0
 33 31  2  0
M  END
$$$$
