FTW.pdb
     RDKit          3D

 33 35  0  0  1  0  0  0  0  0999 V2000
    7.6958  -17.3070   17.7585 N   0  0  0  0  0  0  0  0  0  0  0  0
    8.1176  -16.3811   18.7861 C   0  0  1  0  0  0  0  0  0  0  0  0
    6.9680  -15.3720   18.9268 C   0  0  0  0  0  0  0  0  0  0  0  0
    7.2849  -14.4437   20.0357 C   0  0  0  0  0  0  0  0  0  0  0  0
    8.0346  -13.3017   19.7855 C   0  0  0  0  0  0  0  0  0  0  0  0
    8.3502  -12.4126   20.7841 C   0  0  0  0  0  0  0  0  0  0  0  0
    7.8941  -12.6913   22.0621 C   0  0  0  0  0  0  0  0  0  0  0  0
    7.1476  -13.8258   22.3182 C   0  0  0  0  0  0  0  0  0  0  0  0
    6.8363  -14.7118   21.3084 C   0  0  0  0  0  0  0  0  0  0  0  0
    8.3467  -17.1226   20.0355 C   0  0  0  0  0  0  0  0  0  0  0  0
    7.4346  -17.8853   20.5100 O   0  0  0  0  0  0  0  0  0  0  0  0
   10.2489  -19.9584   20.8696 C   0  0  0  0  0  0  0  0  0  0  0  0
   10.6656  -18.9362   21.9043 C   0  0  1  0  0  0  0  0  0  0  0  0
   11.8946  -18.4360   21.5078 O   0  0  0  0  0  0  0  0  0  0  0  0
    9.6943  -17.8035   22.0261 C   0  0  2  0  0  0  0  0  0  0  0  0
    9.5261  -17.0708   20.7917 N   0  0  0  0  0  0  0  0  0  0  0  0
   10.1437  -16.9072   23.1217 C   0  0  0  0  0  0  0  0  0  0  0  0
   10.9682  -15.9529   22.8750 O   0  0  0  0  0  0  0  0  0  0  0  0
    9.7360  -16.9981   24.4726 N   0  0  0  0  0  0  0  0  0  0  0  0
   10.3920  -16.2143   25.5052 C   0  0  1  0  0  0  0  0  0  0  0  0
   10.0240  -14.7795   25.4814 C   0  0  0  0  0  0  0  0  0  0  0  0
    8.5618  -14.6302   25.6382 C   0  0  0  0  0  0  0  0  0  0  0  0
    7.6221  -15.6541   25.5925 C   0  0  0  0  0  0  0  0  0  0  0  0
    6.3961  -15.1367   25.7556 N   0  0  0  0  0  0  0  0  0  0  0  0
    6.4749  -13.8037   25.9093 C   0  0  0  0  0  0  0  0  0  0  0  0
    5.5169  -12.8422   26.1063 C   0  0  0  0  0  0  0  0  0  0  0  0
    5.8818  -11.5138   26.2383 C   0  0  0  0  0  0  0  0  0  0  0  0
    7.2154  -11.1914   26.1672 C   0  0  0  0  0  0  0  0  0  0  0  0
    8.1742  -12.1561   25.9697 C   0  0  0  0  0  0  0  0  0  0  0  0
    7.8307  -13.4787   25.8366 C   0  0  0  0  0  0  0  0  0  0  0  0
   10.0618  -16.7931   26.8251 C   0  0  0  0  0  0  0  0  0  0  0  0
   10.5962  -16.2540   27.9820 O   0  0  0  0  0  0  0  0  0  0  0  0
    9.2912  -17.7890   26.9508 O   0  0  0  0  0  0  0  0  0  0  0  0
  2  1  1  6
  2 10  1  0
  2  3  1  0
  4  3  1  0
  4  5  2  0
  6  5  1  0
  7  6  2  0
  8  9  2  0
  8  7  1  0
  9  4  1  0
 10 11  2  0
 13 12  1  6
 13 14  1  0
 15 13  1  0
 15 16  1  6
 16 10  1  0
 17 15  1  0
 18 17  2  0
 19 17  1  0
 20 21  1  1
 20 19  1  0
 21 22  1  0
 22 30  1  0
 23 24  1  0
 23 22  2  0
 24 25  1  0
 25 30  2  0
 25 26  1  0
 26 27  2  0
 27 28  1  0
 29 28  2  0
 30 29  1  0
 31 20  1  0
 31 32  1  0
 33 31  2  0
M  END
$$$$
