FTW.pdb
     RDKit          3D

 33 35  0  0  1  0  0  0  0  0999 V2000
    6.7687  -17.7082   18.8234 N   0  0  0  0  0  0  0  0  0  0  0  0
    7.5017  -16.6911   19.5440 C   0  0  1  0  0  0  0  0  0  0  0  0
    6.4448  -15.6839   20.0216 C   0  0  0  0  0  0  0  0  0  0  0  0
    7.1362  -14.4909   20.5606 C   0  0  0  0  0  0  0  0  0  0  0  0
    7.8165  -13.6404   19.6987 C   0  0  0  0  0  0  0  0  0  0  0  0
    8.4700  -12.5218   20.1556 C   0  0  0  0  0  0  0  0  0  0  0  0
    8.4305  -12.2637   21.5160 C   0  0  0  0  0  0  0  0  0  0  0  0
    7.7554  -13.1056   22.3794 C   0  0  0  0  0  0  0  0  0  0  0  0
    7.1026  -14.2259   21.9103 C   0  0  0  0  0  0  0  0  0  0  0  0
    8.2065  -17.3168   20.6732 C   0  0  0  0  0  0  0  0  0  0  0  0
    7.6107  -18.1792   21.4081 O   0  0  0  0  0  0  0  0  0  0  0  0
   11.3138  -19.3890   20.5975 C   0  0  0  0  0  0  0  0  0  0  0  0
   11.4922  -18.3651   21.6970 C   0  0  1  0  0  0  0  0  0  0  0  0
   12.3347  -17.3829   21.2035 O   0  0  0  0  0  0  0  0  0  0  0  0
   10.2016  -17.7340   22.1182 C   0  0  2  0  0  0  0  0  0  0  0  0
    9.5327  -17.0452   21.0379 N   0  0  0  0  0  0  0  0  0  0  0  0
   10.4698  -16.8139   23.2527 C   0  0  0  0  0  0  0  0  0  0  0  0
   11.1025  -15.7134   23.0529 O   0  0  0  0  0  0  0  0  0  0  0  0
   10.0796  -17.0332   24.5940 N   0  0  0  0  0  0  0  0  0  0  0  0
   10.5350  -16.1544   25.6577 C   0  0  1  0  0  0  0  0  0  0  0  0
    9.9316  -14.8024   25.6063 C   0  0  0  0  0  0  0  0  0  0  0  0
    8.5286  -14.8573   26.0683 C   0  0  0  0  0  0  0  0  0  0  0  0
    7.7668  -16.0070   26.2459 C   0  0  0  0  0  0  0  0  0  0  0  0
    6.5373  -15.6638   26.6558 N   0  0  0  0  0  0  0  0  0  0  0  0
    6.4428  -14.3271   26.7610 C   0  0  0  0  0  0  0  0  0  0  0  0
    5.4118  -13.5047   27.1374 C   0  0  0  0  0  0  0  0  0  0  0  0
    5.5897  -12.1324   27.1604 C   0  0  0  0  0  0  0  0  0  0  0  0
    6.8146  -11.6254   26.7995 C   0  0  0  0  0  0  0  0  0  0  0  0
    7.8467  -12.4509   26.4224 C   0  0  0  0  0  0  0  0  0  0  0  0
    7.6883  -13.8145   26.3938 C   0  0  0  0  0  0  0  0  0  0  0  0
   10.2344  -16.7868   26.9600 C   0  0  0  0  0  0  0  0  0  0  0  0
    9.6411  -18.0357   27.0141 O   0  0  0  0  0  0  0  0  0  0  0  0
   10.5010  -16.2226   28.0609 O   0  0  0  0  0  0  0  0  0  0  0  0
  2  1  1  1
  2 10  1  0
  2  3  1  0
  4  3  1  0
  4  5  2  0
  6  5  1  0
  7  6  2  0
  8  9  2  0
  8  7  1  0
  9  4  1  0
 10 11  2  0
 13 12  1  6
 13 14  1  0
 15 13  1  0
 15 16  1  6
 16 10  1  0
 17 15  1  0
 18 17  2  0
 19 17  1  0
 20 21  1  1
 20 19  1  0
 21 22  1  0
 22 30  1  0
 23 24  1  0
 23 22  2  0
 24 25  1  0
 25 30  2  0
 25 26  1  0
 26 27  2  0
 27 28  1  0
 29 28  2  0
 30 29  1  0
 31 20  1  0
 31 32  1  0
 33 31  2  0
M  END
$$$$
