FTW.pdb
     RDKit          3D

 33 35  0  0  1  0  0  0  0  0999 V2000
    6.2151  -20.2664   22.8845 N   0  0  0  0  0  0  0  0  0  0  0  0
    6.7292  -18.9378   23.1329 C   0  0  1  0  0  0  0  0  0  0  0  0
    6.0086  -18.4484   24.3982 C   0  0  0  0  0  0  0  0  0  0  0  0
    6.4479  -17.0648   24.6889 C   0  0  0  0  0  0  0  0  0  0  0  0
    6.0658  -16.0290   23.8464 C   0  0  0  0  0  0  0  0  0  0  0  0
    6.4493  -14.7306   24.0794 C   0  0  0  0  0  0  0  0  0  0  0  0
    7.2370  -14.4816   25.1913 C   0  0  0  0  0  0  0  0  0  0  0  0
    7.6209  -15.5075   26.0340 C   0  0  0  0  0  0  0  0  0  0  0  0
    7.2304  -16.8074   25.7910 C   0  0  0  0  0  0  0  0  0  0  0  0
    8.1844  -19.0156   23.3313 C   0  0  0  0  0  0  0  0  0  0  0  0
    8.7001  -20.0152   23.9427 O   0  0  0  0  0  0  0  0  0  0  0  0
    9.5894  -20.0484   20.5892 C   0  0  0  0  0  0  0  0  0  0  0  0
   10.2812  -18.7283   20.8495 C   0  0  1  0  0  0  0  0  0  0  0  0
    9.5356  -17.7481   20.2160 O   0  0  0  0  0  0  0  0  0  0  0  0
   10.3789  -18.4010   22.3071 C   0  0  2  0  0  0  0  0  0  0  0  0
    9.1042  -18.0528   22.8927 N   0  0  0  0  0  0  0  0  0  0  0  0
   11.3646  -17.3042   22.4834 C   0  0  0  0  0  0  0  0  0  0  0  0
   12.5898  -17.4783   22.1370 O   0  0  0  0  0  0  0  0  0  0  0  0
   11.0797  -16.0257   23.0160 N   0  0  0  0  0  0  0  0  0  0  0  0
   10.9014  -15.8347   24.4453 C   0  0  1  0  0  0  0  0  0  0  0  0
    9.5385  -16.1679   24.9206 C   0  0  0  0  0  0  0  0  0  0  0  0
    8.7168  -14.9417   24.9992 C   0  0  0  0  0  0  0  0  0  0  0  0
    8.2210  -14.3584   26.1599 C   0  0  0  0  0  0  0  0  0  0  0  0
    7.5057  -13.2711   25.8378 N   0  0  0  0  0  0  0  0  0  0  0  0
    7.5015  -13.1006   24.5045 C   0  0  0  0  0  0  0  0  0  0  0  0
    6.9240  -12.1513   23.7005 C   0  0  0  0  0  0  0  0  0  0  0  0
    7.0841  -12.2124   22.3272 C   0  0  0  0  0  0  0  0  0  0  0  0
    7.8294  -13.2393   21.8004 C   0  0  0  0  0  0  0  0  0  0  0  0
    8.4073  -14.1899   22.6075 C   0  0  0  0  0  0  0  0  0  0  0  0
    8.2592  -14.1451   23.9718 C   0  0  0  0  0  0  0  0  0  0  0  0
   11.8968  -16.6584   25.1641 C   0  0  0  0  0  0  0  0  0  0  0  0
   12.6595  -17.5912   24.4838 O   0  0  0  0  0  0  0  0  0  0  0  0
   12.0894  -16.5485   26.4100 O   0  0  0  0  0  0  0  0  0  0  0  0
  2  1  1  1
  2 10  1  0
  2  3  1  0
  4  3  1  0
  4  5  2  0
  6  5  1  0
  7  6  2  0
  8  9  2  0
  8  7  1  0
  9  4  1  0
 10 11  2  0
 13 12  1  1
 13 14  1  0
 15 13  1  0
 15 16  1  6
 16 10  1  0
 17 15  1  0
 18 17  2  0
 19 17  1  0
 20 21  1  1
 20 19  1  0
 21 22  1  0
 22 30  1  0
 23 24  1  0
 23 22  2  0
 24 25  1  0
 25 30  2  0
 25 26  1  0
 26 27  2  0
 27 28  1  0
 29 28  2  0
 30 29  1  0
 31 20  1  0
 31 32  1  0
 33 31  2  0
M  END
$$$$
