FTW.pdb
     RDKit          3D

 33 35  0  0  1  0  0  0  0  0999 V2000
    5.6871  -18.0465   25.1996 N   0  0  0  0  0  0  0  0  0  0  0  0
    6.3095  -16.8082   24.7867 C   0  0  1  0  0  0  0  0  0  0  0  0
    6.7021  -16.0920   26.0877 C   0  0  0  0  0  0  0  0  0  0  0  0
    6.6468  -14.6303   25.8595 C   0  0  0  0  0  0  0  0  0  0  0  0
    7.3132  -14.0764   24.7741 C   0  0  0  0  0  0  0  0  0  0  0  0
    7.2871  -12.7259   24.5239 C   0  0  0  0  0  0  0  0  0  0  0  0
    6.5689  -11.9235   25.3952 C   0  0  0  0  0  0  0  0  0  0  0  0
    5.9034  -12.4678   26.4772 C   0  0  0  0  0  0  0  0  0  0  0  0
    5.9360  -13.8249   26.7193 C   0  0  0  0  0  0  0  0  0  0  0  0
    7.4854  -17.1150   23.9582 C   0  0  0  0  0  0  0  0  0  0  0  0
    8.2630  -18.0816   24.2739 O   0  0  0  0  0  0  0  0  0  0  0  0
    9.9638  -16.7449   19.6584 C   0  0  0  0  0  0  0  0  0  0  0  0
    8.8130  -16.3224   20.5450 C   0  0  1  0  0  0  0  0  0  0  0  0
    7.6567  -16.8326   19.9790 O   0  0  0  0  0  0  0  0  0  0  0  0
    8.9389  -16.8372   21.9451 C   0  0  2  0  0  0  0  0  0  0  0  0
    7.8523  -16.4156   22.7999 N   0  0  0  0  0  0  0  0  0  0  0  0
   10.2490  -16.4049   22.4950 C   0  0  0  0  0  0  0  0  0  0  0  0
   10.7049  -15.2339   22.2261 O   0  0  0  0  0  0  0  0  0  0  0  0
   11.0854  -17.1854   23.3261 N   0  0  0  0  0  0  0  0  0  0  0  0
   12.3479  -16.6615   23.8186 C   0  0  1  0  0  0  0  0  0  0  0  0
   12.1995  -15.4389   24.6419 C   0  0  0  0  0  0  0  0  0  0  0  0
   11.7871  -15.8010   26.0144 C   0  0  0  0  0  0  0  0  0  0  0  0
   12.0667  -16.9962   26.6677 C   0  0  0  0  0  0  0  0  0  0  0  0
   11.5154  -16.9718   27.8895 N   0  0  0  0  0  0  0  0  0  0  0  0
   10.8755  -15.8058   28.0833 C   0  0  0  0  0  0  0  0  0  0  0  0
   10.1711  -15.3094   29.1504 C   0  0  0  0  0  0  0  0  0  0  0  0
    9.6042  -14.0487   29.0835 C   0  0  0  0  0  0  0  0  0  0  0  0
    9.7662  -13.3187   27.9308 C   0  0  0  0  0  0  0  0  0  0  0  0
   10.4723  -13.8177   26.8624 C   0  0  0  0  0  0  0  0  0  0  0  0
   11.0415  -15.0662   26.9110 C   0  0  0  0  0  0  0  0  0  0  0  0
   13.0267  -17.7140   24.6045 C   0  0  0  0  0  0  0  0  0  0  0  0
   14.3358  -17.5462   25.0200 O   0  0  0  0  0  0  0  0  0  0  0  0
   12.4503  -18.7943   24.9240 O   0  0  0  0  0  0  0  0  0  0  0  0
  2  1  1  1
  2 10  1  0
  2  3  1  0
  4  3  1  0
  4  5  2  0
  6  5  1  0
  7  6  2  0
  8  9  2  0
  8  7  1  0
  9  4  1  0
 10 11  2  0
 13 12  1  6
 13 14  1  0
 15 13  1  0
 15 16  1  1
 16 10  1  0
 17 15  1  0
 18 17  2  0
 19 17  1  0
 20 21  1  1
 20 19  1  0
 21 22  1  0
 22 30  1  0
 23 24  1  0
 23 22  2  0
 24 25  1  0
 25 30  2  0
 25 26  1  0
 26 27  2  0
 27 28  1  0
 29 28  2  0
 30 29  1  0
 31 20  1  0
 31 32  1  0
 33 31  2  0
M  END
$$$$
