FTW.pdb
     RDKit          3D

 33 35  0  0  1  0  0  0  0  0999 V2000
    9.1256  -14.2077   16.5667 N   0  0  0  0  0  0  0  0  0  0  0  0
    9.5757  -15.1739   17.5440 C   0  0  1  0  0  0  0  0  0  0  0  0
   11.0963  -14.9803   17.6428 C   0  0  0  0  0  0  0  0  0  0  0  0
   11.7449  -15.7639   16.5671 C   0  0  0  0  0  0  0  0  0  0  0  0
   10.9630  -16.4465   15.6442 C   0  0  0  0  0  0  0  0  0  0  0  0
   11.5228  -17.1839   14.6294 C   0  0  0  0  0  0  0  0  0  0  0  0
   12.9052  -17.2276   14.5522 C   0  0  0  0  0  0  0  0  0  0  0  0
   13.6894  -16.5508   15.4670 C   0  0  0  0  0  0  0  0  0  0  0  0
   13.1173  -15.8134   16.4820 C   0  0  0  0  0  0  0  0  0  0  0  0
    8.9084  -14.9053   18.8269 C   0  0  0  0  0  0  0  0  0  0  0  0
    7.8549  -14.1792   18.8671 O   0  0  0  0  0  0  0  0  0  0  0  0
    6.4220  -15.4782   19.9089 C   0  0  0  0  0  0  0  0  0  0  0  0
    7.1947  -15.9775   21.1100 C   0  0  1  0  0  0  0  0  0  0  0  0
    7.3892  -17.3369   20.9304 O   0  0  0  0  0  0  0  0  0  0  0  0
    8.5262  -15.3103   21.2626 C   0  0  2  0  0  0  0  0  0  0  0  0
    9.3375  -15.3931   20.0693 N   0  0  0  0  0  0  0  0  0  0  0  0
    9.2274  -15.9084   22.4272 C   0  0  0  0  0  0  0  0  0  0  0  0
   10.1312  -16.8034   22.2439 O   0  0  0  0  0  0  0  0  0  0  0  0
    8.9939  -15.5767   23.7817 N   0  0  0  0  0  0  0  0  0  0  0  0
    9.9411  -15.9534   24.8171 C   0  0  1  0  0  0  0  0  0  0  0  0
    9.8098  -15.1540   26.0573 C   0  0  0  0  0  0  0  0  0  0  0  0
    8.4161  -14.6867   26.2123 C   0  0  0  0  0  0  0  0  0  0  0  0
    7.2803  -15.4881   26.2470 C   0  0  0  0  0  0  0  0  0  0  0  0
    6.1953  -14.7119   26.3800 N   0  0  0  0  0  0  0  0  0  0  0  0
    6.5577  -13.4187   26.4361 C   0  0  0  0  0  0  0  0  0  0  0  0
    5.8292  -12.2642   26.5689 C   0  0  0  0  0  0  0  0  0  0  0  0
    6.4696  -11.0379   26.6019 C   0  0  0  0  0  0  0  0  0  0  0  0
    7.8394  -11.0120   26.4990 C   0  0  0  0  0  0  0  0  0  0  0  0
    8.5679  -12.1698   26.3658 C   0  0  0  0  0  0  0  0  0  0  0  0
    7.9496  -13.3953   26.3313 C   0  0  0  0  0  0  0  0  0  0  0  0
    9.7637  -17.3884   25.1262 C   0  0  0  0  0  0  0  0  0  0  0  0
    8.6697  -18.0817   24.6392 O   0  0  0  0  0  0  0  0  0  0  0  0
   10.5891  -18.0319   25.8375 O   0  0  0  0  0  0  0  0  0  0  0  0
  2  1  1  6
  2 10  1  0
  2  3  1  0
  4  3  1  0
  4  5  2  0
  6  5  1  0
  7  6  2  0
  8  9  2  0
  8  7  1  0
  9  4  1  0
 10 11  2  0
 13 12  1  6
 13 14  1  0
 15 13  1  0
 15 16  1  6
 16 10  1  0
 17 15  1  0
 18 17  2  0
 19 17  1  0
 20 21  1  1
 20 19  1  0
 21 22  1  0
 22 30  1  0
 23 24  1  0
 23 22  2  0
 24 25  1  0
 25 30  2  0
 25 26  1  0
 26 27  2  0
 27 28  1  0
 29 28  2  0
 30 29  1  0
 31 20  1  0
 31 32  1  0
 33 31  2  0
M  END
$$$$
