FTW.pdb
     RDKit          3D

 33 35  0  0  1  0  0  0  0  0999 V2000
   10.7881  -18.4806   17.9828 N   0  0  0  0  0  0  0  0  0  0  0  0
   10.3275  -18.6430   19.3439 C   0  0  1  0  0  0  0  0  0  0  0  0
   11.5275  -19.2080   20.1189 C   0  0  0  0  0  0  0  0  0  0  0  0
   11.8275  -20.5639   19.6057 C   0  0  0  0  0  0  0  0  0  0  0  0
   11.0389  -21.6385   19.9956 C   0  0  0  0  0  0  0  0  0  0  0  0
   11.2804  -22.9127   19.5425 C   0  0  0  0  0  0  0  0  0  0  0  0
   12.3452  -23.0968   18.6757 C   0  0  0  0  0  0  0  0  0  0  0  0
   13.1340  -22.0319   18.2834 C   0  0  0  0  0  0  0  0  0  0  0  0
   12.8828  -20.7568   18.7442 C   0  0  0  0  0  0  0  0  0  0  0  0
    9.9085  -17.3343   19.8682 C   0  0  0  0  0  0  0  0  0  0  0  0
    9.6332  -16.3756   19.0658 O   0  0  0  0  0  0  0  0  0  0  0  0
    7.1379  -14.3190   21.6393 C   0  0  0  0  0  0  0  0  0  0  0  0
    7.7858  -15.5913   21.1388 C   0  0  1  0  0  0  0  0  0  0  0  0
    7.8653  -15.4904   19.7599 O   0  0  0  0  0  0  0  0  0  0  0  0
    9.1610  -15.7998   21.6927 C   0  0  2  0  0  0  0  0  0  0  0  0
    9.7755  -17.0229   21.2286 N   0  0  0  0  0  0  0  0  0  0  0  0
    9.0863  -15.7694   23.1756 C   0  0  0  0  0  0  0  0  0  0  0  0
    8.2589  -16.5339   23.7940 O   0  0  0  0  0  0  0  0  0  0  0  0
    9.8713  -14.9485   24.0179 N   0  0  0  0  0  0  0  0  0  0  0  0
   10.0807  -15.2940   25.4135 C   0  0  1  0  0  0  0  0  0  0  0  0
    8.9544  -16.0483   26.0110 C   0  0  0  0  0  0  0  0  0  0  0  0
    7.7517  -15.1916   26.0785 C   0  0  0  0  0  0  0  0  0  0  0  0
    6.4450  -15.5886   25.8173 C   0  0  0  0  0  0  0  0  0  0  0  0
    5.6262  -14.5368   25.9611 N   0  0  0  0  0  0  0  0  0  0  0  0
    6.3321  -13.4472   26.3091 C   0  0  0  0  0  0  0  0  0  0  0  0
    5.9584  -12.1535   26.5696 C   0  0  0  0  0  0  0  0  0  0  0  0
    6.9106  -11.2112   26.9168 C   0  0  0  0  0  0  0  0  0  0  0  0
    8.2246  -11.6055   26.9917 C   0  0  0  0  0  0  0  0  0  0  0  0
    8.5974  -12.9022   26.7302 C   0  0  0  0  0  0  0  0  0  0  0  0
    7.6666  -13.8505   26.3844 C   0  0  0  0  0  0  0  0  0  0  0  0
   11.3265  -16.0821   25.5278 C   0  0  0  0  0  0  0  0  0  0  0  0
   12.0308  -16.4507   24.3952 O   0  0  0  0  0  0  0  0  0  0  0  0
   11.7929  -16.4475   26.6460 O   0  0  0  0  0  0  0  0  0  0  0  0
  2  1  1  6
  2 10  1  0
  2  3  1  0
  4  3  1  0
  4  5  2  0
  6  5  1  0
  7  6  2  0
  8  9  2  0
  8  7  1  0
  9  4  1  0
 10 11  2  0
 13 12  1  1
 13 14  1  0
 15 13  1  0
 15 16  1  1
 16 10  1  0
 17 15  1  0
 18 17  2  0
 19 17  1  0
 20 21  1  6
 20 19  1  0
 21 22  1  0
 22 30  1  0
 23 24  1  0
 23 22  2  0
 24 25  1  0
 25 30  2  0
 25 26  1  0
 26 27  2  0
 27 28  1  0
 29 28  2  0
 30 29  1  0
 31 20  1  0
 31 32  1  0
 33 31  2  0
M  END
$$$$
