FTW.pdb
     RDKit          3D

 33 35  0  0  1  0  0  0  0  0999 V2000
    7.9819  -16.8730   17.5435 N   0  0  0  0  0  0  0  0  0  0  0  0
    8.3719  -16.0000   18.6284 C   0  0  1  0  0  0  0  0  0  0  0  0
    7.3961  -14.8149   18.5728 C   0  0  0  0  0  0  0  0  0  0  0  0
    7.6395  -13.9450   19.7459 C   0  0  0  0  0  0  0  0  0  0  0  0
    7.0231  -14.2325   20.9568 C   0  0  0  0  0  0  0  0  0  0  0  0
    7.2222  -13.4534   22.0706 C   0  0  0  0  0  0  0  0  0  0  0  0
    8.0647  -12.3606   21.9497 C   0  0  0  0  0  0  0  0  0  0  0  0
    8.6814  -12.0687   20.7479 C   0  0  0  0  0  0  0  0  0  0  0  0
    8.4748  -12.8573   19.6358 C   0  0  0  0  0  0  0  0  0  0  0  0
    8.2639  -16.7347   19.8980 C   0  0  0  0  0  0  0  0  0  0  0  0
    7.4248  -17.6937   20.0196 O   0  0  0  0  0  0  0  0  0  0  0  0
    8.4210  -19.4351   21.0596 C   0  0  0  0  0  0  0  0  0  0  0  0
    9.3612  -18.7071   21.9951 C   0  0  1  0  0  0  0  0  0  0  0  0
   10.6147  -18.7273   21.4066 O   0  0  0  0  0  0  0  0  0  0  0  0
    8.9575  -17.2855   22.2342 C   0  0  2  0  0  0  0  0  0  0  0  0
    9.0301  -16.4714   21.0421 N   0  0  0  0  0  0  0  0  0  0  0  0
    9.8071  -16.7250   23.3157 C   0  0  0  0  0  0  0  0  0  0  0  0
   10.9239  -16.1582   23.0282 O   0  0  0  0  0  0  0  0  0  0  0  0
    9.4977  -16.7496   24.6952 N   0  0  0  0  0  0  0  0  0  0  0  0
   10.4357  -16.2390   25.6804 C   0  0  1  0  0  0  0  0  0  0  0  0
    9.8724  -15.1658   26.5321 C   0  0  0  0  0  0  0  0  0  0  0  0
    8.4508  -14.9449   26.1925 C   0  0  0  0  0  0  0  0  0  0  0  0
    7.4791  -15.9286   26.0454 C   0  0  0  0  0  0  0  0  0  0  0  0
    6.3134  -15.3532   25.7174 N   0  0  0  0  0  0  0  0  0  0  0  0
    6.4637  -14.0198   25.6383 C   0  0  0  0  0  0  0  0  0  0  0  0
    5.5827  -13.0108   25.3435 C   0  0  0  0  0  0  0  0  0  0  0  0
    6.0105  -11.6947   25.3346 C   0  0  0  0  0  0  0  0  0  0  0  0
    7.3274  -11.4327   25.6263 C   0  0  0  0  0  0  0  0  0  0  0  0
    8.2089  -12.4450   25.9214 C   0  0  0  0  0  0  0  0  0  0  0  0
    7.8022  -13.7563   25.9350 C   0  0  0  0  0  0  0  0  0  0  0  0
   10.8946  -17.3604   26.5277 C   0  0  0  0  0  0  0  0  0  0  0  0
   10.3407  -18.6204   26.3857 O   0  0  0  0  0  0  0  0  0  0  0  0
   11.7964  -17.2182   27.4041 O   0  0  0  0  0  0  0  0  0  0  0  0
  2  1  1  6
  2 10  1  0
  2  3  1  0
  4  3  1  0
  4  5  2  0
  6  5  1  0
  7  6  2  0
  8  9  2  0
  8  7  1  0
  9  4  1  0
 10 11  2  0
 13 12  1  6
 13 14  1  0
 15 13  1  0
 15 16  1  6
 16 10  1  0
 17 15  1  0
 18 17  2  0
 19 17  1  0
 20 21  1  1
 20 19  1  0
 21 22  1  0
 22 30  1  0
 23 24  1  0
 23 22  2  0
 24 25  1  0
 25 30  2  0
 25 26  1  0
 26 27  2  0
 27 28  1  0
 29 28  2  0
 30 29  1  0
 31 20  1  0
 31 32  1  0
 33 31  2  0
M  END
$$$$
