FTW.pdb
     RDKit          3D

 33 35  0  0  1  0  0  0  0  0999 V2000
   11.3012  -16.7800   17.5600 N   0  0  0  0  0  0  0  0  0  0  0  0
   11.2678  -17.4493   18.8415 C   0  0  1  0  0  0  0  0  0  0  0  0
   12.7364  -17.7184   19.2027 C   0  0  0  0  0  0  0  0  0  0  0  0
   13.2225  -18.8585   18.3929 C   0  0  0  0  0  0  0  0  0  0  0  0
   14.1542  -18.6411   17.3861 C   0  0  0  0  0  0  0  0  0  0  0  0
   14.6334  -19.6699   16.6121 C   0  0  0  0  0  0  0  0  0  0  0  0
   14.1551  -20.9446   16.8675 C   0  0  0  0  0  0  0  0  0  0  0  0
   13.2280  -21.1681   17.8678 C   0  0  0  0  0  0  0  0  0  0  0  0
   12.7534  -20.1283   18.6391 C   0  0  0  0  0  0  0  0  0  0  0  0
   10.6178  -16.5701   19.8252 C   0  0  0  0  0  0  0  0  0  0  0  0
   10.7783  -15.3016   19.7629 O   0  0  0  0  0  0  0  0  0  0  0  0
    7.2021  -15.4899   20.4820 C   0  0  0  0  0  0  0  0  0  0  0  0
    7.7210  -16.0733   21.7780 C   0  0  1  0  0  0  0  0  0  0  0  0
    7.2347  -17.3672   21.8634 O   0  0  0  0  0  0  0  0  0  0  0  0
    9.2163  -16.1090   21.8416 C   0  0  2  0  0  0  0  0  0  0  0  0
    9.7996  -17.0112   20.8747 N   0  0  0  0  0  0  0  0  0  0  0  0
    9.6253  -16.4700   23.2229 C   0  0  0  0  0  0  0  0  0  0  0  0
   10.2648  -17.5633   23.4396 O   0  0  0  0  0  0  0  0  0  0  0  0
    9.3739  -15.6962   24.3794 N   0  0  0  0  0  0  0  0  0  0  0  0
    9.8925  -16.0995   25.6753 C   0  0  1  0  0  0  0  0  0  0  0  0
    9.5119  -15.1831   26.7753 C   0  0  0  0  0  0  0  0  0  0  0  0
    8.1004  -14.7711   26.6243 C   0  0  0  0  0  0  0  0  0  0  0  0
    7.0128  -15.6179   26.4416 C   0  0  0  0  0  0  0  0  0  0  0  0
    5.8962  -14.8848   26.3258 N   0  0  0  0  0  0  0  0  0  0  0  0
    6.1911  -13.5771   26.4237 C   0  0  0  0  0  0  0  0  0  0  0  0
    5.4091  -12.4515   26.3726 C   0  0  0  0  0  0  0  0  0  0  0  0
    5.9829  -11.1994   26.5076 C   0  0  0  0  0  0  0  0  0  0  0  0
    7.3420  -11.1190   26.6920 C   0  0  0  0  0  0  0  0  0  0  0  0
    8.1242  -12.2479   26.7429 C   0  0  0  0  0  0  0  0  0  0  0  0
    7.5723  -13.4981   26.6110 C   0  0  0  0  0  0  0  0  0  0  0  0
    9.4149  -17.4662   25.9755 C   0  0  0  0  0  0  0  0  0  0  0  0
    8.4554  -18.0658   25.1790 O   0  0  0  0  0  0  0  0  0  0  0  0
    9.8545  -18.1336   26.9568 O   0  0  0  0  0  0  0  0  0  0  0  0
  2  1  1  6
  2 10  1  0
  2  3  1  0
  4  3  1  0
  4  5  2  0
  6  5  1  0
  7  6  2  0
  8  9  2  0
  8  7  1  0
  9  4  1  0
 10 11  2  0
 13 12  1  6
 13 14  1  0
 15 13  1  0
 15 16  1  6
 16 10  1  0
 17 15  1  0
 18 17  2  0
 19 17  1  0
 20 21  1  1
 20 19  1  0
 21 22  1  0
 22 30  1  0
 23 24  1  0
 23 22  2  0
 24 25  1  0
 25 30  2  0
 25 26  1  0
 26 27  2  0
 27 28  1  0
 29 28  2  0
 30 29  1  0
 31 20  1  0
 31 32  1  0
 33 31  2  0
M  END
$$$$
