DCP.pdb
     RDKit          3D

 22 22  0  0  1  0  0  0  0  0999 V2000
   16.9898  -13.2833  -15.5240 N   0  0  0  0  0  0  0  0  0  0  0  0
   18.4229  -13.5820  -15.7598 C   0  0  1  0  0  0  0  0  0  0  0  0
   18.4303  -14.9024  -16.4391 C   0  0  0  0  0  0  0  0  0  0  0  0
   17.8398  -16.0262  -15.7201 C   0  0  0  0  0  0  0  0  0  0  0  0
   18.5753  -16.9797  -15.3698 O   0  0  0  0  0  0  0  0  0  0  0  0
   19.0683  -12.4698  -16.4412 C   0  0  0  0  0  0  0  0  0  0  0  0
   20.2699  -12.5990  -16.8309 O   0  0  0  0  0  0  0  0  0  0  0  0
   16.4963  -16.1104  -15.3934 O   0  0  0  0  0  0  0  0  0  0  0  0
   18.4588  -11.2202  -16.7201 N   0  0  0  0  0  0  0  0  0  0  0  0
   19.2331  -10.1188  -17.3168 C   0  0  1  0  0  0  0  0  0  0  0  0
   18.3017   -9.4623  -18.3200 C   0  0  0  0  0  0  0  0  0  0  0  0
   18.9673   -7.8721  -18.8678 S   0  0  0  0  0  0  0  0  0  0  0  0
   19.6510   -9.1163  -16.3093 C   0  0  0  0  0  0  0  0  0  0  0  0
   18.8010   -8.8727  -15.3854 O   0  0  0  0  0  0  0  0  0  0  0  0
   20.9019   -8.4608  -16.3475 N   0  0  0  0  0  0  0  0  0  0  0  0
   21.9181   -8.4878  -17.3728 C   0  0  0  0  0  0  0  0  0  0  0  0
   23.2241   -8.2367  -16.6515 C   0  0  0  0  0  0  0  0  0  0  0  0
   22.8858   -7.9584  -15.2160 C   0  0  0  0  0  0  0  0  0  0  0  0
   21.4086   -7.5996  -15.3012 C   0  0  1  0  0  0  0  0  0  0  0  0
   21.2573   -6.1882  -15.7024 C   0  0  0  0  0  0  0  0  0  0  0  0
   20.8674   -5.8515  -16.8490 O   0  0  0  0  0  0  0  0  0  0  0  0
   21.5408   -5.1320  -14.8249 O   0  0  0  0  0  0  0  0  0  0  0  0
  2  1  1  6
  2  3  1  0
  3  4  1  0
  4  8  1  0
  5  4  2  0
  6  2  1  0
  7  6  2  0
  9  6  1  0
 10 13  1  0
 10  9  1  0
 11 12  1  0
 10 11  1  6
 13 15  1  0
 14 13  2  0
 15 16  1  0
 15 19  1  0
 16 17  1  0
 17 18  1  0
 19 20  1  6
 19 18  1  0
 20 22  1  0
 21 20  2  0
M  END
$$$$
