DCP.pdb
     RDKit          3D

 22 22  0  0  1  0  0  0  0  0999 V2000
   16.5373  -12.1854  -15.6390 N   0  0  0  0  0  0  0  0  0  0  0  0
   16.5434  -10.7183  -15.4244 C   0  0  1  0  0  0  0  0  0  0  0  0
   15.5689  -10.4894  -14.3277 C   0  0  0  0  0  0  0  0  0  0  0  0
   14.1740  -10.8239  -14.5937 C   0  0  0  0  0  0  0  0  0  0  0  0
   13.5669  -10.2209  -15.5105 O   0  0  0  0  0  0  0  0  0  0  0  0
   17.9036  -10.2391  -15.2285 C   0  0  0  0  0  0  0  0  0  0  0  0
   18.6676  -10.8621  -14.4283 O   0  0  0  0  0  0  0  0  0  0  0  0
   13.4639  -11.7808  -13.8874 O   0  0  0  0  0  0  0  0  0  0  0  0
   18.4702   -9.1089  -15.8707 N   0  0  0  0  0  0  0  0  0  0  0  0
   19.8665   -8.7167  -15.6158 C   0  0  1  0  0  0  0  0  0  0  0  0
   20.6782   -9.3493  -16.7321 C   0  0  0  0  0  0  0  0  0  0  0  0
   22.4137   -8.8514  -16.6246 S   0  0  0  0  0  0  0  0  0  0  0  0
   20.0518   -7.2472  -15.6494 C   0  0  0  0  0  0  0  0  0  0  0  0
   19.3622   -6.6224  -16.5267 O   0  0  0  0  0  0  0  0  0  0  0  0
   20.9272   -6.5610  -14.7783 N   0  0  0  0  0  0  0  0  0  0  0  0
   21.8912   -7.0926  -13.8443 C   0  0  0  0  0  0  0  0  0  0  0  0
   22.0123   -6.0503  -12.7544 C   0  0  0  0  0  0  0  0  0  0  0  0
   21.1722   -4.8790  -13.1722 C   0  0  0  0  0  0  0  0  0  0  0  0
   21.0102   -5.1209  -14.6667 C   0  0  1  0  0  0  0  0  0  0  0  0
   22.2029   -4.6346  -15.3859 C   0  0  0  0  0  0  0  0  0  0  0  0
   23.0515   -5.4141  -15.8881 O   0  0  0  0  0  0  0  0  0  0  0  0
   22.4631   -3.2671  -15.5533 O   0  0  0  0  0  0  0  0  0  0  0  0
  2  1  1  1
  2  3  1  0
  3  4  1  0
  4  8  1  0
  5  4  2  0
  6  2  1  0
  7  6  2  0
  9  6  1  0
 10 13  1  0
 10  9  1  0
 11 12  1  0
 10 11  1  6
 13 15  1  0
 14 13  2  0
 15 16  1  0
 15 19  1  0
 16 17  1  0
 17 18  1  0
 19 20  1  6
 19 18  1  0
 20 22  1  0
 21 20  2  0
M  END
$$$$
