DCP.pdb
     RDKit          3D

 22 22  0  0  1  0  0  0  0  0999 V2000
   23.2267  -11.1336  -19.0970 N   0  0  0  0  0  0  0  0  0  0  0  0
   23.9074  -10.1492  -18.2216 C   0  0  1  0  0  0  0  0  0  0  0  0
   24.8032   -9.3879  -19.1286 C   0  0  0  0  0  0  0  0  0  0  0  0
   25.9518  -10.0969  -19.6820 C   0  0  0  0  0  0  0  0  0  0  0  0
   26.6859   -9.5122  -20.5139 O   0  0  0  0  0  0  0  0  0  0  0  0
   22.9310   -9.3953  -17.4495 C   0  0  0  0  0  0  0  0  0  0  0  0
   21.9726   -8.8246  -18.0563 O   0  0  0  0  0  0  0  0  0  0  0  0
   26.2906  -11.3965  -19.3427 O   0  0  0  0  0  0  0  0  0  0  0  0
   22.9516   -9.2380  -16.0403 N   0  0  0  0  0  0  0  0  0  0  0  0
   21.9162   -8.4475  -15.3535 C   0  0  1  0  0  0  0  0  0  0  0  0
   21.7094   -9.1252  -14.0108 C   0  0  0  0  0  0  0  0  0  0  0  0
   20.5853   -8.1612  -12.9722 S   0  0  0  0  0  0  0  0  0  0  0  0
   22.3358   -7.0439  -15.1329 C   0  0  0  0  0  0  0  0  0  0  0  0
   23.5604   -6.8776  -14.8040 O   0  0  0  0  0  0  0  0  0  0  0  0
   21.4573   -5.9463  -15.2718 N   0  0  0  0  0  0  0  0  0  0  0  0
   20.0427   -5.9374  -15.5604 C   0  0  0  0  0  0  0  0  0  0  0  0
   19.7829   -4.6204  -16.2584 C   0  0  0  0  0  0  0  0  0  0  0  0
   21.0737   -3.8549  -16.2453 C   0  0  0  0  0  0  0  0  0  0  0  0
   21.8504   -4.5600  -15.1417 C   0  0  1  0  0  0  0  0  0  0  0  0
   21.4298   -4.0456  -13.8247 C   0  0  0  0  0  0  0  0  0  0  0  0
   20.6859   -4.7004  -13.0516 O   0  0  0  0  0  0  0  0  0  0  0  0
   21.8363   -2.7891  -13.3537 O   0  0  0  0  0  0  0  0  0  0  0  0
  2  1  1  6
  2  3  1  0
  3  4  1  0
  4  8  1  0
  5  4  2  0
  6  2  1  0
  7  6  2  0
  9  6  1  0
 10 13  1  0
 10  9  1  0
 11 12  1  0
 10 11  1  1
 13 15  1  0
 14 13  2  0
 15 16  1  0
 15 19  1  0
 16 17  1  0
 17 18  1  0
 19 20  1  1
 19 18  1  0
 20 22  1  0
 21 20  2  0
M  END
$$$$
