DCP.pdb
     RDKit          3D

 22 22  0  0  1  0  0  0  0  0999 V2000
   24.5967  -20.0099  -10.6498 N   0  0  0  0  0  0  0  0  0  0  0  0
   25.6254  -21.0772  -10.6158 C   0  0  1  0  0  0  0  0  0  0  0  0
   25.9100  -21.3780  -12.0417 C   0  0  0  0  0  0  0  0  0  0  0  0
   24.7775  -21.3846  -12.9614 C   0  0  0  0  0  0  0  0  0  0  0  0
   23.9922  -22.3624  -12.9540 O   0  0  0  0  0  0  0  0  0  0  0  0
   26.7441  -20.6782   -9.7747 C   0  0  0  0  0  0  0  0  0  0  0  0
   27.8525  -21.2861   -9.8935 O   0  0  0  0  0  0  0  0  0  0  0  0
   24.5082  -20.3636  -13.8580 O   0  0  0  0  0  0  0  0  0  0  0  0
   26.7084  -19.6403   -8.8091 N   0  0  0  0  0  0  0  0  0  0  0  0
   27.8642  -19.3838   -7.9333 C   0  0  1  0  0  0  0  0  0  0  0  0
   27.8456  -17.8904   -7.6604 C   0  0  0  0  0  0  0  0  0  0  0  0
   27.4272  -17.5595   -5.9320 S   0  0  0  0  0  0  0  0  0  0  0  0
   27.7688  -20.1164   -6.6491 C   0  0  0  0  0  0  0  0  0  0  0  0
   26.6071  -20.5597   -6.3499 O   0  0  0  0  0  0  0  0  0  0  0  0
   28.8759  -20.3234   -5.7962 N   0  0  0  0  0  0  0  0  0  0  0  0
   30.2363  -19.8600   -5.9340 C   0  0  0  0  0  0  0  0  0  0  0  0
   31.0843  -20.8799   -5.2062 C   0  0  0  0  0  0  0  0  0  0  0  0
   30.1422  -21.8580   -4.5673 C   0  0  0  0  0  0  0  0  0  0  0  0
   28.8318  -21.0826   -4.5654 C   0  0  1  0  0  0  0  0  0  0  0  0
   28.7958  -20.1610   -3.4141 C   0  0  0  0  0  0  0  0  0  0  0  0
   28.5215  -20.5473   -2.2499 O   0  0  0  0  0  0  0  0  0  0  0  0
   29.0667  -18.7920   -3.5497 O   0  0  0  0  0  0  0  0  0  0  0  0
  2  1  1  6
  2  3  1  0
  3  4  1  0
  4  8  1  0
  5  4  2  0
  6  2  1  0
  7  6  2  0
  9  6  1  0
 10 13  1  0
 10  9  1  0
 11 12  1  0
 10 11  1  1
 13 15  1  0
 14 13  2  0
 15 16  1  0
 15 19  1  0
 16 17  1  0
 17 18  1  0
 19 20  1  1
 19 18  1  0
 20 22  1  0
 21 20  2  0
M  END
$$$$
