DCP.pdb
     RDKit          3D

 22 22  0  0  1  0  0  0  0  0999 V2000
   16.2742  -11.9127  -16.3664 N   0  0  0  0  0  0  0  0  0  0  0  0
   17.6336  -11.5632  -15.8885 C   0  0  1  0  0  0  0  0  0  0  0  0
   18.5377  -12.5165  -16.5803 C   0  0  0  0  0  0  0  0  0  0  0  0
   18.3821  -13.9324  -16.2651 C   0  0  0  0  0  0  0  0  0  0  0  0
   18.4548  -14.7745  -17.1915 O   0  0  0  0  0  0  0  0  0  0  0  0
   17.8863  -10.1415  -16.0704 C   0  0  0  0  0  0  0  0  0  0  0  0
   17.1975   -9.4966  -16.9201 O   0  0  0  0  0  0  0  0  0  0  0  0
   18.1553  -14.4159  -14.9870 O   0  0  0  0  0  0  0  0  0  0  0  0
   18.8577   -9.3891  -15.3626 N   0  0  0  0  0  0  0  0  0  0  0  0
   19.0031   -7.9412  -15.5887 C   0  0  1  0  0  0  0  0  0  0  0  0
   17.6830   -7.3266  -15.1590 C   0  0  0  0  0  0  0  0  0  0  0  0
   17.3630   -7.6535  -13.4090 S   0  0  0  0  0  0  0  0  0  0  0  0
   20.1001   -7.3549  -14.7839 C   0  0  0  0  0  0  0  0  0  0  0  0
   20.4296   -8.0108  -13.7366 O   0  0  0  0  0  0  0  0  0  0  0  0
   20.7531   -6.1516  -15.1324 N   0  0  0  0  0  0  0  0  0  0  0  0
   20.3651   -5.1446  -16.0916 C   0  0  0  0  0  0  0  0  0  0  0  0
   21.6583   -4.5082  -16.5520 C   0  0  0  0  0  0  0  0  0  0  0  0
   22.7612   -5.1160  -15.7356 C   0  0  0  0  0  0  0  0  0  0  0  0
   21.9984   -5.6970  -14.5529 C   0  0  1  0  0  0  0  0  0  0  0  0
   21.7281   -4.6388  -13.5614 C   0  0  0  0  0  0  0  0  0  0  0  0
   20.5949   -4.1105  -13.4314 O   0  0  0  0  0  0  0  0  0  0  0  0
   22.7236   -4.1560  -12.7001 O   0  0  0  0  0  0  0  0  0  0  0  0
  2  1  1  6
  2  3  1  0
  3  4  1  0
  4  8  1  0
  5  4  2  0
  6  2  1  0
  7  6  2  0
  9  6  1  0
 10 13  1  0
 10  9  1  0
 11 12  1  0
 10 11  1  1
 13 15  1  0
 14 13  2  0
 15 16  1  0
 15 19  1  0
 16 17  1  0
 17 18  1  0
 19 20  1  1
 19 18  1  0
 20 22  1  0
 21 20  2  0
M  END
$$$$
