DCP.pdb
     RDKit          3D

 22 22  0  0  1  0  0  0  0  0999 V2000
   21.5371  -12.0684  -17.5917 N   0  0  0  0  0  0  0  0  0  0  0  0
   21.5678  -10.6687  -18.0801 C   0  0  1  0  0  0  0  0  0  0  0  0
   21.0165  -10.7333  -19.4573 C   0  0  0  0  0  0  0  0  0  0  0  0
   21.8283  -11.3985  -20.4707 C   0  0  0  0  0  0  0  0  0  0  0  0
   22.9297  -10.8948  -20.7963 O   0  0  0  0  0  0  0  0  0  0  0  0
   20.9081   -9.7847  -17.1307 C   0  0  0  0  0  0  0  0  0  0  0  0
   19.8206  -10.1590  -16.5926 O   0  0  0  0  0  0  0  0  0  0  0  0
   21.4556  -12.5707  -21.1078 O   0  0  0  0  0  0  0  0  0  0  0  0
   21.3846   -8.5079  -16.7387 N   0  0  0  0  0  0  0  0  0  0  0  0
   20.6313   -7.6827  -15.7795 C   0  0  1  0  0  0  0  0  0  0  0  0
   20.6240   -8.4703  -14.4815 C   0  0  0  0  0  0  0  0  0  0  0  0
   22.3033   -8.6600  -13.8370 S   0  0  0  0  0  0  0  0  0  0  0  0
   21.2704   -6.3662  -15.5486 C   0  0  0  0  0  0  0  0  0  0  0  0
   22.5307   -6.3182  -15.7604 O   0  0  0  0  0  0  0  0  0  0  0  0
   20.5535   -5.2259  -15.1227 N   0  0  0  0  0  0  0  0  0  0  0  0
   19.1721   -5.1118  -14.7185 C   0  0  0  0  0  0  0  0  0  0  0  0
   18.7747   -3.6882  -15.0417 C   0  0  0  0  0  0  0  0  0  0  0  0
   20.0091   -2.9886  -15.5311 C   0  0  0  0  0  0  0  0  0  0  0  0
   21.1158   -3.8973  -15.0138 C   0  0  1  0  0  0  0  0  0  0  0  0
   21.3963   -3.5907  -13.5984 C   0  0  0  0  0  0  0  0  0  0  0  0
   21.9184   -2.5069  -13.2342 O   0  0  0  0  0  0  0  0  0  0  0  0
   21.0962   -4.4943  -12.5691 O   0  0  0  0  0  0  0  0  0  0  0  0
  2  1  1  1
  2  3  1  0
  3  4  1  0
  4  8  1  0
  5  4  2  0
  6  2  1  0
  7  6  2  0
  9  6  1  0
 10 13  1  0
 10  9  1  0
 11 12  1  0
 10 11  1  1
 13 15  1  0
 14 13  2  0
 15 16  1  0
 15 19  1  0
 16 17  1  0
 17 18  1  0
 19 20  1  1
 19 18  1  0
 20 22  1  0
 21 20  2  0
M  END
$$$$
