DCP.pdb
     RDKit          3D

 22 22  0  0  1  0  0  0  0  0999 V2000
   18.8035  -12.4662  -17.2644 N   0  0  0  0  0  0  0  0  0  0  0  0
   19.3943  -11.2815  -17.9323 C   0  0  1  0  0  0  0  0  0  0  0  0
   18.2305  -10.5020  -18.4251 C   0  0  0  0  0  0  0  0  0  0  0  0
   17.3929  -11.1252  -19.4442 C   0  0  0  0  0  0  0  0  0  0  0  0
   16.1469  -11.1074  -19.3033 O   0  0  0  0  0  0  0  0  0  0  0  0
   20.3278  -10.6087  -17.0414 C   0  0  0  0  0  0  0  0  0  0  0  0
   19.9869  -10.3972  -15.8366 O   0  0  0  0  0  0  0  0  0  0  0  0
   17.8928  -11.7462  -20.5770 O   0  0  0  0  0  0  0  0  0  0  0  0
   21.6217  -10.1575  -17.4061 N   0  0  0  0  0  0  0  0  0  0  0  0
   22.4407   -9.3735  -16.4664 C   0  0  1  0  0  0  0  0  0  0  0  0
   23.8821   -9.6353  -16.8651 C   0  0  0  0  0  0  0  0  0  0  0  0
   25.0122   -8.6076  -15.8965 S   0  0  0  0  0  0  0  0  0  0  0  0
   22.1646   -7.9208  -16.5582 C   0  0  0  0  0  0  0  0  0  0  0  0
   21.9750   -7.4671  -17.7387 O   0  0  0  0  0  0  0  0  0  0  0  0
   22.1093   -7.0743  -15.4285 N   0  0  0  0  0  0  0  0  0  0  0  0
   22.3912   -7.3753  -14.0449 C   0  0  0  0  0  0  0  0  0  0  0  0
   21.5474   -6.4088  -13.2430 C   0  0  0  0  0  0  0  0  0  0  0  0
   20.8785   -5.4916  -14.2247 C   0  0  0  0  0  0  0  0  0  0  0  0
   21.7367   -5.6769  -15.4687 C   0  0  1  0  0  0  0  0  0  0  0  0
   22.9458   -4.8372  -15.3738 C   0  0  0  0  0  0  0  0  0  0  0  0
   24.0946   -5.3244  -15.2227 O   0  0  0  0  0  0  0  0  0  0  0  0
   22.8862   -3.4382  -15.4465 O   0  0  0  0  0  0  0  0  0  0  0  0
  2  1  1  1
  2  3  1  0
  3  4  1  0
  4  8  1  0
  5  4  2  0
  6  2  1  0
  7  6  2  0
  9  6  1  0
 10 13  1  0
 10  9  1  0
 11 12  1  0
 10 11  1  6
 13 15  1  0
 14 13  2  0
 15 16  1  0
 15 19  1  0
 16 17  1  0
 17 18  1  0
 19 20  1  1
 19 18  1  0
 20 22  1  0
 21 20  2  0
M  END
$$$$
