DCP.pdb
     RDKit          3D

 22 22  0  0  1  0  0  0  0  0999 V2000
   18.1831  -14.1027  -16.5749 N   0  0  0  0  0  0  0  0  0  0  0  0
   17.8420  -12.7799  -15.9983 C   0  0  1  0  0  0  0  0  0  0  0  0
   16.9740  -13.0846  -14.8327 C   0  0  0  0  0  0  0  0  0  0  0  0
   15.7144  -13.7704  -15.0996 C   0  0  0  0  0  0  0  0  0  0  0  0
   14.9405  -13.3064  -15.9705 O   0  0  0  0  0  0  0  0  0  0  0  0
   19.0495  -12.0048  -15.7553 C   0  0  0  0  0  0  0  0  0  0  0  0
   20.1083  -12.6083  -15.3987 O   0  0  0  0  0  0  0  0  0  0  0  0
   15.3102  -14.9209  -14.4424 O   0  0  0  0  0  0  0  0  0  0  0  0
   19.1549  -10.5969  -15.8873 N   0  0  0  0  0  0  0  0  0  0  0  0
   20.4597   -9.9235  -15.7752 C   0  0  1  0  0  0  0  0  0  0  0  0
   21.3088  -10.4897  -16.8993 C   0  0  0  0  0  0  0  0  0  0  0  0
   22.9282   -9.6855  -16.9474 S   0  0  0  0  0  0  0  0  0  0  0  0
   20.3494   -8.4552  -15.9382 C   0  0  0  0  0  0  0  0  0  0  0  0
   19.5518   -8.0586  -16.8559 O   0  0  0  0  0  0  0  0  0  0  0  0
   21.0687   -7.5355  -15.1427 N   0  0  0  0  0  0  0  0  0  0  0  0
   22.1480   -7.7769  -14.2146 C   0  0  0  0  0  0  0  0  0  0  0  0
   22.0577   -6.6634  -13.1944 C   0  0  0  0  0  0  0  0  0  0  0  0
   20.9678   -5.7379  -13.6505 C   0  0  0  0  0  0  0  0  0  0  0  0
   20.8303   -6.1087  -15.1208 C   0  0  1  0  0  0  0  0  0  0  0  0
   21.8676   -5.4193  -15.9113 C   0  0  0  0  0  0  0  0  0  0  0  0
   22.8615   -6.0216  -16.3901 O   0  0  0  0  0  0  0  0  0  0  0  0
   21.8072   -4.0440  -16.1773 O   0  0  0  0  0  0  0  0  0  0  0  0
  2  1  1  1
  2  3  1  0
  3  4  1  0
  4  8  1  0
  5  4  2  0
  6  2  1  0
  7  6  2  0
  9  6  1  0
 10 13  1  0
 10  9  1  0
 11 12  1  0
 10 11  1  6
 13 15  1  0
 14 13  2  0
 15 16  1  0
 15 19  1  0
 16 17  1  0
 17 18  1  0
 19 20  1  6
 19 18  1  0
 20 22  1  0
 21 20  2  0
M  END
$$$$
