DCP.pdb
     RDKit          3D

 22 22  0  0  1  0  0  0  0  0999 V2000
   28.6978  -21.8520  -17.9690 N   0  0  0  0  0  0  0  0  0  0  0  0
   28.3540  -22.7682  -16.8550 C   0  0  1  0  0  0  0  0  0  0  0  0
   29.5157  -23.6863  -16.7442 C   0  0  0  0  0  0  0  0  0  0  0  0
   29.6406  -24.7299  -17.7560 C   0  0  0  0  0  0  0  0  0  0  0  0
   28.9576  -24.6469  -18.8046 O   0  0  0  0  0  0  0  0  0  0  0  0
   27.9787  -22.0100  -15.6708 C   0  0  0  0  0  0  0  0  0  0  0  0
   27.6707  -22.6358  -14.6098 O   0  0  0  0  0  0  0  0  0  0  0  0
   30.4790  -25.8256  -17.6321 O   0  0  0  0  0  0  0  0  0  0  0  0
   27.9271  -20.5951  -15.5912 N   0  0  0  0  0  0  0  0  0  0  0  0
   27.3927  -19.9252  -14.3936 C   0  0  1  0  0  0  0  0  0  0  0  0
   27.4734  -18.4379  -14.6880 C   0  0  0  0  0  0  0  0  0  0  0  0
   26.2160  -17.5307  -13.7566 S   0  0  0  0  0  0  0  0  0  0  0  0
   25.9831  -20.2945  -14.1259 C   0  0  0  0  0  0  0  0  0  0  0  0
   25.2603  -20.5048  -15.1597 O   0  0  0  0  0  0  0  0  0  0  0  0
   25.4520  -20.4126  -12.8222 N   0  0  0  0  0  0  0  0  0  0  0  0
   26.0204  -19.9978  -11.5615 C   0  0  0  0  0  0  0  0  0  0  0  0
   25.4319  -20.9329  -10.5279 C   0  0  0  0  0  0  0  0  0  0  0  0
   24.4364  -21.8022  -11.2390 C   0  0  0  0  0  0  0  0  0  0  0  0
   24.1704  -21.0069  -12.5098 C   0  0  1  0  0  0  0  0  0  0  0  0
   23.1827  -19.9450  -12.2397 C   0  0  0  0  0  0  0  0  0  0  0  0
   22.0210  -20.1936  -11.8292 O   0  0  0  0  0  0  0  0  0  0  0  0
   23.4817  -18.5878  -12.4256 O   0  0  0  0  0  0  0  0  0  0  0  0
  2  1  1  6
  2  3  1  0
  3  4  1  0
  4  8  1  0
  5  4  2  0
  6  2  1  0
  7  6  2  0
  9  6  1  0
 10 13  1  0
 10  9  1  0
 11 12  1  0
 10 11  1  6
 13 15  1  0
 14 13  2  0
 15 16  1  0
 15 19  1  0
 16 17  1  0
 17 18  1  0
 19 20  1  1
 19 18  1  0
 20 22  1  0
 21 20  2  0
M  END
$$$$
