PCC.pdb
     RDKit          3D

 20 20  0  0  1  0  0  0  0  0999 V2000
    8.0279  -14.8235   19.6929 N   0  0  0  0  0  0  0  0  0  0  0  0
    6.8611  -14.0836   19.2928 C   0  0  0  0  0  0  0  0  0  0  0  0
    7.4172  -12.6521   19.3477 C   0  0  0  0  0  0  0  0  0  0  0  0
    8.1713  -12.6816   20.6589 C   0  0  0  0  0  0  0  0  0  0  0  0
    8.5162  -14.1552   20.8528 C   0  0  1  0  0  0  0  0  0  0  0  0
    7.8865  -14.6920   22.0733 C   0  0  0  0  0  0  0  0  0  0  0  0
    7.0317  -13.9083   22.6192 O   0  0  0  0  0  0  0  0  0  0  0  0
    8.1814  -15.9495   22.6092 N   0  0  0  0  0  0  0  0  0  0  0  0
    7.7180  -16.2566   23.9712 C   0  0  1  0  0  0  0  0  0  0  0  0
    7.3170  -17.7290   24.0359 C   0  0  0  0  0  0  0  0  0  0  0  0
    6.8087  -18.0773   25.7374 S   0  0  0  0  0  0  0  0  0  0  0  0
    8.8519  -16.0996   24.9348 C   0  0  0  0  0  0  0  0  0  0  0  0
    9.9984  -16.4737   24.6040 O   0  0  0  0  0  0  0  0  0  0  0  0
    8.6827  -15.5394   26.2205 N   0  0  0  0  0  0  0  0  0  0  0  0
    9.7186  -15.3598   27.1843 C   0  0  1  0  0  0  0  0  0  0  0  0
    9.2725  -14.3645   28.2643 C   0  0  0  0  0  0  0  0  0  0  0  0
   10.5826  -14.0182   29.4394 S   0  0  0  0  0  0  0  0  0  0  0  0
   10.1509  -16.5797   27.8548 C   0  0  0  0  0  0  0  0  0  0  0  0
   11.4872  -16.8186   28.0946 O   0  0  0  0  0  0  0  0  0  0  0  0
    9.3247  -17.4380   28.2284 O   0  0  0  0  0  0  0  0  0  0  0  0
  1  2  1  0
  3  2  1  0
  4  5  1  0
  4  3  1  0
  5  1  1  0
  6  8  1  0
  5  6  1  1
  7  6  2  0
  9 10  1  6
  9  8  1  0
  9 12  1  0
 11 10  1  0
 12 14  1  0
 13 12  2  0
 14 15  1  0
 15 16  1  1
 16 17  1  0
 18 15  1  0
 18 19  1  0
 20 18  2  0
M  END
$$$$
