PCC.pdb
     RDKit          3D

 20 20  0  0  1  0  0  0  0  0999 V2000
    7.8487  -14.7367   19.3037 N   0  0  0  0  0  0  0  0  0  0  0  0
    6.8449  -13.7132   19.1868 C   0  0  0  0  0  0  0  0  0  0  0  0
    7.7168  -12.4592   19.3568 C   0  0  0  0  0  0  0  0  0  0  0  0
    8.5878  -12.8650   20.5253 C   0  0  0  0  0  0  0  0  0  0  0  0
    8.6056  -14.3893   20.4600 C   0  0  1  0  0  0  0  0  0  0  0  0
    8.0123  -14.9800   21.6738 C   0  0  0  0  0  0  0  0  0  0  0  0
    6.9322  -14.4131   22.0676 O   0  0  0  0  0  0  0  0  0  0  0  0
    8.5642  -16.0690   22.3556 N   0  0  0  0  0  0  0  0  0  0  0  0
    8.0274  -16.4100   23.6821 C   0  0  1  0  0  0  0  0  0  0  0  0
    7.8399  -17.9236   23.7645 C   0  0  0  0  0  0  0  0  0  0  0  0
    7.2183  -18.3027   25.4212 S   0  0  0  0  0  0  0  0  0  0  0  0
    9.0331  -16.0653   24.7348 C   0  0  0  0  0  0  0  0  0  0  0  0
   10.2524  -16.1958   24.4890 O   0  0  0  0  0  0  0  0  0  0  0  0
    8.6617  -15.5919   26.0129 N   0  0  0  0  0  0  0  0  0  0  0  0
    9.5677  -15.1929   27.0396 C   0  0  1  0  0  0  0  0  0  0  0  0
    8.9437  -14.0830   27.8969 C   0  0  0  0  0  0  0  0  0  0  0  0
   10.0528  -13.5349   29.1955 S   0  0  0  0  0  0  0  0  0  0  0  0
    9.9895  -16.2628   27.9353 C   0  0  0  0  0  0  0  0  0  0  0  0
   11.2626  -16.2814   28.4634 O   0  0  0  0  0  0  0  0  0  0  0  0
    9.2110  -17.1880   28.2468 O   0  0  0  0  0  0  0  0  0  0  0  0
  1  2  1  0
  3  2  1  0
  4  5  1  0
  4  3  1  0
  5  1  1  0
  6  8  1  0
  5  6  1  1
  7  6  2  0
  9 10  1  6
  9  8  1  0
  9 12  1  0
 11 10  1  0
 12 14  1  0
 13 12  2  0
 14 15  1  0
 15 16  1  1
 16 17  1  0
 18 15  1  0
 18 19  1  0
 20 18  2  0
M  END
$$$$
