PCC.pdb
     RDKit          3D

 20 20  0  0  1  0  0  0  0  0999 V2000
    8.1362  -14.3923   20.4490 N   0  0  0  0  0  0  0  0  0  0  0  0
    8.6773  -15.6880   20.1372 C   0  0  0  0  0  0  0  0  0  0  0  0
    7.3786  -16.5003   20.0137 C   0  0  0  0  0  0  0  0  0  0  0  0
    6.6116  -16.0107   21.2223 C   0  0  0  0  0  0  0  0  0  0  0  0
    7.1865  -14.6222   21.4861 C   0  0  1  0  0  0  0  0  0  0  0  0
    7.8291  -14.5564   22.8117 C   0  0  0  0  0  0  0  0  0  0  0  0
    9.1101  -14.5943   22.7839 O   0  0  0  0  0  0  0  0  0  0  0  0
    7.1203  -14.4597   24.0131 N   0  0  0  0  0  0  0  0  0  0  0  0
    7.8801  -14.3332   25.2664 C   0  0  1  0  0  0  0  0  0  0  0  0
    6.9467  -13.8168   26.3595 C   0  0  0  0  0  0  0  0  0  0  0  0
    6.5184  -12.1086   25.9431 S   0  0  0  0  0  0  0  0  0  0  0  0
    8.3304  -15.6862   25.7196 C   0  0  0  0  0  0  0  0  0  0  0  0
    7.4925  -16.6070   25.8385 O   0  0  0  0  0  0  0  0  0  0  0  0
    9.6794  -15.9743   26.0237 N   0  0  0  0  0  0  0  0  0  0  0  0
   10.1848  -17.2543   26.3984 C   0  0  1  0  0  0  0  0  0  0  0  0
   11.6362  -17.4119   25.9244 C   0  0  0  0  0  0  0  0  0  0  0  0
   11.8392  -16.9213   24.2112 S   0  0  0  0  0  0  0  0  0  0  0  0
   10.1513  -17.5323   27.8289 C   0  0  0  0  0  0  0  0  0  0  0  0
   10.5828  -18.7445   28.3235 O   0  0  0  0  0  0  0  0  0  0  0  0
    9.7322  -16.6821   28.6417 O   0  0  0  0  0  0  0  0  0  0  0  0
  1  2  1  0
  3  2  1  0
  4  5  1  0
  4  3  1  0
  5  1  1  0
  6  8  1  0
  5  6  1  1
  7  6  2  0
  9 10  1  1
  9  8  1  0
  9 12  1  0
 11 10  1  0
 12 14  1  0
 13 12  2  0
 14 15  1  0
 15 16  1  1
 16 17  1  0
 18 15  1  0
 18 19  1  0
 20 18  2  0
M  END
$$$$
