PCC.pdb
     RDKit          3D

 20 20  0  0  1  0  0  0  0  0999 V2000
    7.7998  -14.7825   20.1965 N   0  0  0  0  0  0  0  0  0  0  0  0
    8.6943  -15.9064   20.1207 C   0  0  0  0  0  0  0  0  0  0  0  0
    7.7056  -17.0557   20.3716 C   0  0  0  0  0  0  0  0  0  0  0  0
    6.9030  -16.5035   21.5290 C   0  0  0  0  0  0  0  0  0  0  0  0
    7.0356  -14.9907   21.3810 C   0  0  1  0  0  0  0  0  0  0  0  0
    7.7091  -14.3994   22.5520 C   0  0  0  0  0  0  0  0  0  0  0  0
    8.9633  -14.1881   22.3934 O   0  0  0  0  0  0  0  0  0  0  0  0
    7.0540  -14.0862   23.7470 N   0  0  0  0  0  0  0  0  0  0  0  0
    7.8034  -13.3671   24.7890 C   0  0  1  0  0  0  0  0  0  0  0  0
    6.8133  -12.6358   25.6933 C   0  0  0  0  0  0  0  0  0  0  0  0
    5.5008  -13.8071   26.1177 S   0  0  0  0  0  0  0  0  0  0  0  0
    8.5102  -14.3501   25.6682 C   0  0  0  0  0  0  0  0  0  0  0  0
    8.2013  -15.5606   25.6122 O   0  0  0  0  0  0  0  0  0  0  0  0
    9.5257  -13.9662   26.5719 N   0  0  0  0  0  0  0  0  0  0  0  0
   10.1945  -14.8395   27.4799 C   0  0  1  0  0  0  0  0  0  0  0  0
   10.7092  -14.0519   28.6927 C   0  0  0  0  0  0  0  0  0  0  0  0
   10.7944  -15.0702   30.1667 S   0  0  0  0  0  0  0  0  0  0  0  0
    9.3841  -15.9440   27.9781 C   0  0  0  0  0  0  0  0  0  0  0  0
    9.9001  -17.2199   28.0561 O   0  0  0  0  0  0  0  0  0  0  0  0
    8.2046  -15.7640   28.3461 O   0  0  0  0  0  0  0  0  0  0  0  0
  1  2  1  0
  3  2  1  0
  4  5  1  0
  4  3  1  0
  5  1  1  0
  6  8  1  0
  5  6  1  1
  7  6  2  0
  9 10  1  1
  9  8  1  0
  9 12  1  0
 11 10  1  0
 12 14  1  0
 13 12  2  0
 14 15  1  0
 15 16  1  1
 16 17  1  0
 18 15  1  0
 18 19  1  0
 20 18  2  0
M  END
$$$$
