PCC.pdb
     RDKit          3D

 20 20  0  0  1  0  0  0  0  0999 V2000
    8.4651  -15.0715   20.1913 N   0  0  0  0  0  0  0  0  0  0  0  0
    9.6093  -15.9396   20.2700 C   0  0  0  0  0  0  0  0  0  0  0  0
    8.9074  -17.2987   20.4175 C   0  0  0  0  0  0  0  0  0  0  0  0
    7.8415  -16.9679   21.4390 C   0  0  0  0  0  0  0  0  0  0  0  0
    7.6187  -15.4683   21.2667 C   0  0  1  0  0  0  0  0  0  0  0  0
    7.9577  -14.7357   22.5007 C   0  0  0  0  0  0  0  0  0  0  0  0
    9.1434  -14.2491   22.5212 O   0  0  0  0  0  0  0  0  0  0  0  0
    7.0749  -14.5719   23.5727 N   0  0  0  0  0  0  0  0  0  0  0  0
    7.5083  -13.7580   24.7189 C   0  0  1  0  0  0  0  0  0  0  0  0
    6.2735  -13.2851   25.4834 C   0  0  0  0  0  0  0  0  0  0  0  0
    6.8506  -12.3010   26.8881 S   0  0  0  0  0  0  0  0  0  0  0  0
    8.2800  -14.6100   25.6767 C   0  0  0  0  0  0  0  0  0  0  0  0
    7.9653  -15.8112   25.8249 O   0  0  0  0  0  0  0  0  0  0  0  0
    9.3642  -14.1108   26.4323 N   0  0  0  0  0  0  0  0  0  0  0  0
   10.1590  -14.8743   27.3375 C   0  0  1  0  0  0  0  0  0  0  0  0
   10.9109  -13.9438   28.2992 C   0  0  0  0  0  0  0  0  0  0  0  0
   11.8903  -14.8598   29.4902 S   0  0  0  0  0  0  0  0  0  0  0  0
    9.4181  -15.8393   28.1405 C   0  0  0  0  0  0  0  0  0  0  0  0
    9.8918  -17.1214   28.3193 O   0  0  0  0  0  0  0  0  0  0  0  0
    8.3381  -15.5309   28.6858 O   0  0  0  0  0  0  0  0  0  0  0  0
  1  2  1  0
  3  2  1  0
  4  5  1  0
  4  3  1  0
  5  1  1  0
  6  8  1  0
  5  6  1  1
  7  6  2  0
  9 10  1  1
  9  8  1  0
  9 12  1  0
 11 10  1  0
 12 14  1  0
 13 12  2  0
 14 15  1  0
 15 16  1  1
 16 17  1  0
 18 15  1  0
 18 19  1  0
 20 18  2  0
M  END
$$$$
