PCC.pdb
     RDKit          3D

 20 20  0  0  1  0  0  0  0  0999 V2000
    9.9185  -18.8384   14.6067 N   0  0  0  0  0  0  0  0  0  0  0  0
   10.2030  -17.5995   13.9336 C   0  0  0  0  0  0  0  0  0  0  0  0
   11.6894  -17.8069   13.6033 C   0  0  0  0  0  0  0  0  0  0  0  0
   12.2044  -18.3657   14.9114 C   0  0  0  0  0  0  0  0  0  0  0  0
   10.9741  -19.0041   15.5493 C   0  0  1  0  0  0  0  0  0  0  0  0
   10.6421  -18.3537   16.8304 C   0  0  0  0  0  0  0  0  0  0  0  0
   10.0636  -17.2157   16.7146 O   0  0  0  0  0  0  0  0  0  0  0  0
   10.9246  -18.9133   18.0803 N   0  0  0  0  0  0  0  0  0  0  0  0
   10.6054  -18.1326   19.2856 C   0  0  1  0  0  0  0  0  0  0  0  0
   10.0310  -19.0719   20.3443 C   0  0  0  0  0  0  0  0  0  0  0  0
    9.6678  -18.0765   21.8112 S   0  0  0  0  0  0  0  0  0  0  0  0
   11.8647  -17.5774   19.8725 C   0  0  0  0  0  0  0  0  0  0  0  0
   12.8769  -18.3064   19.9622 O   0  0  0  0  0  0  0  0  0  0  0  0
   11.9631  -16.2468   20.3367 N   0  0  0  0  0  0  0  0  0  0  0  0
   13.1352  -15.6509   20.8890 C   0  0  1  0  0  0  0  0  0  0  0  0
   13.1758  -14.1525   20.5580 C   0  0  0  0  0  0  0  0  0  0  0  0
   13.1495  -13.8554   18.7894 S   0  0  0  0  0  0  0  0  0  0  0  0
   13.2724  -15.7913   22.3334 C   0  0  0  0  0  0  0  0  0  0  0  0
   12.2537  -16.3284   23.0910 O   0  0  0  0  0  0  0  0  0  0  0  0
   14.3133  -15.4299   22.9207 O   0  0  0  0  0  0  0  0  0  0  0  0
  1  2  1  0
  3  2  1  0
  4  5  1  0
  4  3  1  0
  5  1  1  0
  6  8  1  0
  5  6  1  1
  7  6  2  0
  9 10  1  1
  9  8  1  0
  9 12  1  0
 11 10  1  0
 12 14  1  0
 13 12  2  0
 14 15  1  0
 15 16  1  1
 16 17  1  0
 18 15  1  0
 18 19  1  0
 20 18  2  0
M  END
$$$$
