PCC.pdb
     RDKit          3D

 20 20  0  0  1  0  0  0  0  0999 V2000
    7.9148  -14.9966   19.3531 N   0  0  0  0  0  0  0  0  0  0  0  0
    6.7507  -14.1783   19.1433 C   0  0  0  0  0  0  0  0  0  0  0  0
    7.3945  -12.7831   19.1622 C   0  0  0  0  0  0  0  0  0  0  0  0
    8.3199  -12.9043   20.3528 C   0  0  0  0  0  0  0  0  0  0  0  0
    8.5987  -14.4010   20.4522 C   0  0  1  0  0  0  0  0  0  0  0  0
    8.1131  -14.9480   21.7326 C   0  0  0  0  0  0  0  0  0  0  0  0
    6.8532  -14.8119   21.9251 O   0  0  0  0  0  0  0  0  0  0  0  0
    8.9399  -15.5686   22.6741 N   0  0  0  0  0  0  0  0  0  0  0  0
    8.3563  -15.9668   23.9644 C   0  0  1  0  0  0  0  0  0  0  0  0
    8.9210  -17.3291   24.3622 C   0  0  0  0  0  0  0  0  0  0  0  0
    8.2792  -17.7215   26.0080 S   0  0  0  0  0  0  0  0  0  0  0  0
    8.7981  -15.0146   25.0307 C   0  0  0  0  0  0  0  0  0  0  0  0
    9.9808  -14.6084   25.0430 O   0  0  0  0  0  0  0  0  0  0  0  0
    7.9262  -14.5471   26.0390 N   0  0  0  0  0  0  0  0  0  0  0  0
    8.2838  -13.6469   27.0858 C   0  0  1  0  0  0  0  0  0  0  0  0
    7.0529  -12.8560   27.5500 C   0  0  0  0  0  0  0  0  0  0  0  0
    5.9533  -12.4662   26.1877 S   0  0  0  0  0  0  0  0  0  0  0  0
    8.8773  -14.2755   28.2594 C   0  0  0  0  0  0  0  0  0  0  0  0
    9.0234  -15.6444   28.3299 O   0  0  0  0  0  0  0  0  0  0  0  0
    9.2679  -13.5926   29.2290 O   0  0  0  0  0  0  0  0  0  0  0  0
  1  2  1  0
  3  2  1  0
  4  5  1  0
  4  3  1  0
  5  1  1  0
  6  8  1  0
  5  6  1  1
  7  6  2  0
  9 10  1  1
  9  8  1  0
  9 12  1  0
 11 10  1  0
 12 14  1  0
 13 12  2  0
 14 15  1  0
 15 16  1  1
 16 17  1  0
 18 15  1  0
 18 19  1  0
 20 18  2  0
M  END
$$$$
