QFD.pdb
     RDKit          3D

 29 29  0  0  1  0  0  0  0  0999 V2000
    8.4580  -12.0148   18.6422 N   0  0  0  0  0  0  0  0  0  0  0  0
    8.0521  -13.2334   18.0673 C   0  0  0  0  0  0  0  0  0  0  0  0
    7.6758  -13.2628   16.8793 O   0  0  0  0  0  0  0  0  0  0  0  0
    8.0674  -14.4772   18.8562 C   0  0  0  0  0  0  0  0  0  0  0  0
    8.4834  -14.2318   20.2951 C   0  0  0  0  0  0  0  0  0  0  0  0
    8.7124  -15.5890   20.9402 C   0  0  2  0  0  0  0  0  0  0  0  0
    7.3970  -16.2398   20.9202 N   0  0  0  0  0  0  0  0  0  0  0  0
    9.1114  -15.4522   22.3593 C   0  0  0  0  0  0  0  0  0  0  0  0
   10.1333  -14.7931   22.6590 O   0  0  0  0  0  0  0  0  0  0  0  0
    8.3945  -16.0347   23.4430 N   0  0  0  0  0  0  0  0  0  0  0  0
    8.8040  -15.9087   24.8156 C   0  0  1  0  0  0  0  0  0  0  0  0
    7.5917  -15.5420   25.6567 C   0  0  0  0  0  0  0  0  0  0  0  0
    7.5093  -14.0863   25.9111 C   0  0  0  0  0  0  0  0  0  0  0  0
    8.6026  -13.2672   26.0625 C   0  0  0  0  0  0  0  0  0  0  0  0
    8.5037  -11.9165   26.2954 C   0  0  0  0  0  0  0  0  0  0  0  0
    7.2782  -11.3095   26.3899 C   0  0  0  0  0  0  0  0  0  0  0  0
    6.1536  -12.1101   26.2417 C   0  0  0  0  0  0  0  0  0  0  0  0
    6.2703  -13.4647   26.0081 C   0  0  0  0  0  0  0  0  0  0  0  0
    9.3995  -17.1266   25.3896 C   0  0  0  0  0  0  0  0  0  0  0  0
    8.7300  -18.1818   25.4179 O   0  0  0  0  0  0  0  0  0  0  0  0
   10.7123  -17.1372   25.9089 N   0  0  0  0  0  0  0  0  0  0  0  0
   11.3176  -18.3812   26.4587 C   0  0  1  0  0  0  0  0  0  0  0  0
   12.8251  -18.2445   26.3588 C   0  0  0  0  0  0  0  0  0  0  0  0
   13.2841  -18.0801   24.9945 C   0  0  0  0  0  0  0  0  0  0  0  0
   12.8162  -18.7692   24.0572 O   0  0  0  0  0  0  0  0  0  0  0  0
   10.8849  -18.4130   27.8644 C   0  0  0  0  0  0  0  0  0  0  0  0
   10.2220  -17.4775   28.3509 O   0  0  0  0  0  0  0  0  0  0  0  0
   14.2682  -17.1575   24.6141 O   0  0  0  0  0  0  0  0  0  0  0  0
   11.1827  -19.4679   28.7155 O   0  0  0  0  0  0  0  0  0  0  0  0
  2  1  1  0
  2  3  2  0
  4  2  1  0
  5  4  1  0
  5  6  1  0
  6  7  1  1
  8  6  1  0
  8 10  1  0
  9  8  2  0
 11 10  1  0
 12 13  1  0
 11 12  1  1
 13 18  2  0
 14 13  1  0
 14 15  2  0
 15 16  1  0
 16 17  2  0
 18 17  1  0
 19 21  1  0
 19 11  1  0
 20 19  2  0
 22 21  1  0
 22 26  1  0
 22 23  1  1
 24 25  2  0
 24 23  1  0
 26 27  2  0
 26 29  1  0
 28 24  1  0
M  END
$$$$
