QFD.pdb
     RDKit          3D

 29 29  0  0  1  0  0  0  0  0999 V2000
   10.3818  -18.5422   17.9035 N   0  0  0  0  0  0  0  0  0  0  0  0
    9.1313  -18.3212   17.2972 C   0  0  0  0  0  0  0  0  0  0  0  0
    8.8152  -18.9642   16.2772 O   0  0  0  0  0  0  0  0  0  0  0  0
    8.1896  -17.3362   17.8566 C   0  0  0  0  0  0  0  0  0  0  0  0
    8.7605  -16.6335   19.0749 C   0  0  0  0  0  0  0  0  0  0  0  0
    7.6260  -15.8596   19.7267 C   0  0  2  0  0  0  0  0  0  0  0  0
    7.3347  -14.7652   18.7931 N   0  0  0  0  0  0  0  0  0  0  0  0
    8.0555  -15.2436   21.0026 C   0  0  0  0  0  0  0  0  0  0  0  0
    9.1832  -14.7054   21.0867 O   0  0  0  0  0  0  0  0  0  0  0  0
    7.2536  -15.2182   22.1790 N   0  0  0  0  0  0  0  0  0  0  0  0
    7.7337  -14.7439   23.4486 C   0  0  1  0  0  0  0  0  0  0  0  0
    6.5406  -14.4032   24.3273 C   0  0  0  0  0  0  0  0  0  0  0  0
    6.9493  -13.7766   25.6043 C   0  0  0  0  0  0  0  0  0  0  0  0
    7.2548  -14.4800   26.7449 C   0  0  0  0  0  0  0  0  0  0  0  0
    7.6353  -13.8781   27.9202 C   0  0  0  0  0  0  0  0  0  0  0  0
    7.7296  -12.5135   28.0103 C   0  0  0  0  0  0  0  0  0  0  0  0
    7.4272  -11.7741   26.8748 C   0  0  0  0  0  0  0  0  0  0  0  0
    7.0468  -12.3940   25.7024 C   0  0  0  0  0  0  0  0  0  0  0  0
    8.5739  -15.7051   24.1817 C   0  0  0  0  0  0  0  0  0  0  0  0
    8.2531  -16.9132   24.1968 O   0  0  0  0  0  0  0  0  0  0  0  0
    9.7386  -15.2997   24.8691 N   0  0  0  0  0  0  0  0  0  0  0  0
   10.8104  -16.2724   25.2174 C   0  0  1  0  0  0  0  0  0  0  0  0
   12.1247  -15.7143   24.7053 C   0  0  0  0  0  0  0  0  0  0  0  0
   13.2494  -16.5845   24.9823 C   0  0  0  0  0  0  0  0  0  0  0  0
   13.1229  -17.8318   25.0092 O   0  0  0  0  0  0  0  0  0  0  0  0
   10.7989  -16.3245   26.6875 C   0  0  0  0  0  0  0  0  0  0  0  0
   10.2340  -15.4372   27.3546 O   0  0  0  0  0  0  0  0  0  0  0  0
   14.5458  -16.1174   25.2380 O   0  0  0  0  0  0  0  0  0  0  0  0
   11.4039  -17.3468   27.4050 O   0  0  0  0  0  0  0  0  0  0  0  0
  2  1  1  0
  2  3  2  0
  4  2  1  0
  5  4  1  0
  5  6  1  0
  6  7  1  6
  8  6  1  0
  8 10  1  0
  9  8  2  0
 11 10  1  0
 12 13  1  0
 11 12  1  1
 13 18  2  0
 14 13  1  0
 14 15  2  0
 15 16  1  0
 16 17  2  0
 18 17  1  0
 19 21  1  0
 19 11  1  0
 20 19  2  0
 22 21  1  0
 22 26  1  0
 22 23  1  1
 24 25  2  0
 24 23  1  0
 26 27  2  0
 26 29  1  0
 28 24  1  0
M  END
$$$$
