QFD.pdb
     RDKit          3D

 29 29  0  0  1  0  0  0  0  0999 V2000
    7.4654  -17.6935   16.9898 N   0  0  0  0  0  0  0  0  0  0  0  0
    8.5699  -16.8357   16.8331 C   0  0  0  0  0  0  0  0  0  0  0  0
    8.4829  -15.8450   16.0816 O   0  0  0  0  0  0  0  0  0  0  0  0
    9.8303  -17.0966   17.5493 C   0  0  0  0  0  0  0  0  0  0  0  0
   10.0448  -16.1232   18.6940 C   0  0  0  0  0  0  0  0  0  0  0  0
    9.7778  -16.8759   19.9872 C   0  0  2  0  0  0  0  0  0  0  0  0
    8.4360  -17.4462   19.8183 N   0  0  0  0  0  0  0  0  0  0  0  0
    9.7195  -15.9559   21.1456 C   0  0  0  0  0  0  0  0  0  0  0  0
   10.7100  -15.2427   21.4260 O   0  0  0  0  0  0  0  0  0  0  0  0
    8.5821  -15.8188   21.9915 N   0  0  0  0  0  0  0  0  0  0  0  0
    8.6212  -15.1412   23.2590 C   0  0  1  0  0  0  0  0  0  0  0  0
    7.2282  -14.6240   23.5811 C   0  0  0  0  0  0  0  0  0  0  0  0
    7.2127  -13.7859   24.8008 C   0  0  0  0  0  0  0  0  0  0  0  0
    6.7112  -14.1975   26.0125 C   0  0  0  0  0  0  0  0  0  0  0  0
    6.7093  -13.4037   27.1343 C   0  0  0  0  0  0  0  0  0  0  0  0
    7.2207  -12.1325   27.0942 C   0  0  0  0  0  0  0  0  0  0  0  0
    7.7349  -11.6867   25.8840 C   0  0  0  0  0  0  0  0  0  0  0  0
    7.7294  -12.4965   24.7671 C   0  0  0  0  0  0  0  0  0  0  0  0
    9.0631  -15.9789   24.3861 C   0  0  0  0  0  0  0  0  0  0  0  0
    8.4441  -17.0334   24.6459 O   0  0  0  0  0  0  0  0  0  0  0  0
   10.1729  -15.6248   25.1838 N   0  0  0  0  0  0  0  0  0  0  0  0
   10.8103  -16.6066   26.1035 C   0  0  1  0  0  0  0  0  0  0  0  0
   12.3112  -16.3982   26.0334 C   0  0  0  0  0  0  0  0  0  0  0  0
   12.8471  -16.6222   24.7062 C   0  0  0  0  0  0  0  0  0  0  0  0
   12.5258  -17.6281   24.0300 O   0  0  0  0  0  0  0  0  0  0  0  0
   10.2927  -16.2556   27.4352 C   0  0  0  0  0  0  0  0  0  0  0  0
   10.5908  -16.9338   28.4365 O   0  0  0  0  0  0  0  0  0  0  0  0
   13.7502  -15.7534   24.0786 O   0  0  0  0  0  0  0  0  0  0  0  0
    9.4586  -15.1678   27.6511 O   0  0  0  0  0  0  0  0  0  0  0  0
  2  1  1  0
  2  3  2  0
  4  2  1  0
  5  4  1  0
  5  6  1  0
  6  7  1  6
  8  6  1  0
  8 10  1  0
  9  8  2  0
 11 10  1  0
 12 13  1  0
 11 12  1  1
 13 18  2  0
 14 13  1  0
 14 15  2  0
 15 16  1  0
 16 17  2  0
 18 17  1  0
 19 21  1  0
 19 11  1  0
 20 19  2  0
 22 21  1  0
 22 26  1  0
 22 23  1  1
 24 25  2  0
 24 23  1  0
 26 27  2  0
 26 29  1  0
 28 24  1  0
M  END
$$$$
