QFD.pdb
     RDKit          3D

 29 29  0  0  1  0  0  0  0  0999 V2000
    7.8933  -12.6195   16.3070 N   0  0  0  0  0  0  0  0  0  0  0  0
    7.5457  -13.9533   16.0235 C   0  0  0  0  0  0  0  0  0  0  0  0
    7.3414  -14.3029   14.8447 O   0  0  0  0  0  0  0  0  0  0  0  0
    7.4209  -14.9429   17.1075 C   0  0  0  0  0  0  0  0  0  0  0  0
    7.7770  -14.3520   18.4595 C   0  0  0  0  0  0  0  0  0  0  0  0
    8.4073  -15.4596   19.2881 C   0  0  2  0  0  0  0  0  0  0  0  0
    7.3792  -16.5046   19.3600 N   0  0  0  0  0  0  0  0  0  0  0  0
    8.6740  -15.0123   20.6739 C   0  0  0  0  0  0  0  0  0  0  0  0
    9.7291  -14.3906   20.9363 O   0  0  0  0  0  0  0  0  0  0  0  0
    7.7896  -15.2454   21.7654 N   0  0  0  0  0  0  0  0  0  0  0  0
    8.0728  -14.8260   23.1112 C   0  0  1  0  0  0  0  0  0  0  0  0
    6.7944  -14.2913   23.7368 C   0  0  0  0  0  0  0  0  0  0  0  0
    7.0343  -13.6891   25.0674 C   0  0  0  0  0  0  0  0  0  0  0  0
    7.4845  -12.4052   25.2625 C   0  0  0  0  0  0  0  0  0  0  0  0
    7.6980  -11.8644   26.5076 C   0  0  0  0  0  0  0  0  0  0  0  0
    7.4655  -12.6002   27.6406 C   0  0  0  0  0  0  0  0  0  0  0  0
    7.0100  -13.9015   27.4771 C   0  0  0  0  0  0  0  0  0  0  0  0
    6.8007  -14.4294   26.2198 C   0  0  0  0  0  0  0  0  0  0  0  0
    8.5924  -15.8900   23.9860 C   0  0  0  0  0  0  0  0  0  0  0  0
    8.0793  -17.0289   23.9373 O   0  0  0  0  0  0  0  0  0  0  0  0
    9.6602  -15.6603   24.8805 N   0  0  0  0  0  0  0  0  0  0  0  0
   10.3992  -16.7886   25.5105 C   0  0  1  0  0  0  0  0  0  0  0  0
   11.8693  -16.6221   25.1755 C   0  0  0  0  0  0  0  0  0  0  0  0
   12.6986  -17.6550   25.7622 C   0  0  0  0  0  0  0  0  0  0  0  0
   13.9469  -17.6404   25.6438 O   0  0  0  0  0  0  0  0  0  0  0  0
   10.1671  -16.6227   26.9537 C   0  0  0  0  0  0  0  0  0  0  0  0
   10.4843  -15.5681   27.5355 O   0  0  0  0  0  0  0  0  0  0  0  0
   12.1882  -18.7346   26.4959 O   0  0  0  0  0  0  0  0  0  0  0  0
    9.5905  -17.6121   27.7376 O   0  0  0  0  0  0  0  0  0  0  0  0
  2  1  1  0
  2  3  2  0
  4  2  1  0
  5  4  1  0
  5  6  1  0
  6  7  1  1
  8  6  1  0
  8 10  1  0
  9  8  2  0
 11 10  1  0
 12 13  1  0
 11 12  1  1
 13 18  2  0
 14 13  1  0
 14 15  2  0
 15 16  1  0
 16 17  2  0
 18 17  1  0
 19 21  1  0
 19 11  1  0
 20 19  2  0
 22 21  1  0
 22 26  1  0
 22 23  1  1
 24 25  2  0
 24 23  1  0
 26 27  2  0
 26 29  1  0
 28 24  1  0
M  END
$$$$
