QFD.pdb
     RDKit          3D

 29 29  0  0  1  0  0  0  0  0999 V2000
    8.1869  -11.9452   18.7781 N   0  0  0  0  0  0  0  0  0  0  0  0
    7.9665  -13.3098   18.5149 C   0  0  0  0  0  0  0  0  0  0  0  0
    7.7912  -13.6939   17.3421 O   0  0  0  0  0  0  0  0  0  0  0  0
    7.9409  -14.2914   19.6129 C   0  0  0  0  0  0  0  0  0  0  0  0
    9.3088  -14.9003   19.8620 C   0  0  0  0  0  0  0  0  0  0  0  0
    9.1080  -16.1270   20.7370 C   0  0  2  0  0  0  0  0  0  0  0  0
    7.6986  -16.4924   20.5518 N   0  0  0  0  0  0  0  0  0  0  0  0
    9.2915  -15.8040   22.1701 C   0  0  0  0  0  0  0  0  0  0  0  0
   10.3818  -15.3340   22.5688 O   0  0  0  0  0  0  0  0  0  0  0  0
    8.2860  -15.9955   23.1600 N   0  0  0  0  0  0  0  0  0  0  0  0
    8.5360  -15.8696   24.5704 C   0  0  1  0  0  0  0  0  0  0  0  0
    7.2342  -15.5089   25.2683 C   0  0  0  0  0  0  0  0  0  0  0  0
    7.1387  -14.0603   25.5562 C   0  0  0  0  0  0  0  0  0  0  0  0
    6.0510  -13.2817   25.2403 C   0  0  0  0  0  0  0  0  0  0  0  0
    5.9815  -11.9380   25.5194 C   0  0  0  0  0  0  0  0  0  0  0  0
    7.0213  -11.2968   26.1416 C   0  0  0  0  0  0  0  0  0  0  0  0
    8.1353  -12.0559   26.4738 C   0  0  0  0  0  0  0  0  0  0  0  0
    8.1889  -13.4042   26.1866 C   0  0  0  0  0  0  0  0  0  0  0  0
    9.0674  -17.0857   25.2075 C   0  0  0  0  0  0  0  0  0  0  0  0
    8.4556  -18.1671   25.0703 O   0  0  0  0  0  0  0  0  0  0  0  0
   10.2553  -17.0657   25.9702 N   0  0  0  0  0  0  0  0  0  0  0  0
   10.9267  -18.3259   26.3912 C   0  0  1  0  0  0  0  0  0  0  0  0
   12.3881  -18.2244   25.9975 C   0  0  0  0  0  0  0  0  0  0  0  0
   13.1744  -19.3473   26.4662 C   0  0  0  0  0  0  0  0  0  0  0  0
   12.6421  -20.3279   27.0384 O   0  0  0  0  0  0  0  0  0  0  0  0
   10.7775  -18.3533   27.8545 C   0  0  0  0  0  0  0  0  0  0  0  0
   10.9197  -19.4136   28.4923 O   0  0  0  0  0  0  0  0  0  0  0  0
   14.5661  -19.4318   26.3233 O   0  0  0  0  0  0  0  0  0  0  0  0
   10.4765  -17.2204   28.5975 O   0  0  0  0  0  0  0  0  0  0  0  0
  2  1  1  0
  2  3  2  0
  4  2  1  0
  5  4  1  0
  5  6  1  0
  6  7  1  1
  8  6  1  0
  8 10  1  0
  9  8  2  0
 11 10  1  0
 12 13  1  0
 11 12  1  1
 13 18  2  0
 14 13  1  0
 14 15  2  0
 15 16  1  0
 16 17  2  0
 18 17  1  0
 19 21  1  0
 19 11  1  0
 20 19  2  0
 22 21  1  0
 22 26  1  0
 22 23  1  1
 24 25  2  0
 24 23  1  0
 26 27  2  0
 26 29  1  0
 28 24  1  0
M  END
$$$$
