QFD.pdb
     RDKit          3D

 29 29  0  0  1  0  0  0  0  0999 V2000
   10.0207  -14.3432   15.8711 N   0  0  0  0  0  0  0  0  0  0  0  0
    8.6403  -14.6088   15.8072 C   0  0  0  0  0  0  0  0  0  0  0  0
    8.1229  -14.9399   14.7226 O   0  0  0  0  0  0  0  0  0  0  0  0
    7.7986  -14.4998   17.0111 C   0  0  0  0  0  0  0  0  0  0  0  0
    8.6183  -14.1920   18.2510 C   0  0  0  0  0  0  0  0  0  0  0  0
    8.4685  -15.3704   19.1993 C   0  0  2  0  0  0  0  0  0  0  0  0
    7.0595  -15.7653   19.0861 N   0  0  0  0  0  0  0  0  0  0  0  0
    8.6978  -14.9653   20.6047 C   0  0  0  0  0  0  0  0  0  0  0  0
    9.8479  -14.6425   20.9809 O   0  0  0  0  0  0  0  0  0  0  0  0
    7.6724  -14.9147   21.5915 N   0  0  0  0  0  0  0  0  0  0  0  0
    7.9313  -14.6624   22.9832 C   0  0  1  0  0  0  0  0  0  0  0  0
    6.6823  -14.0674   23.6138 C   0  0  0  0  0  0  0  0  0  0  0  0
    6.9382  -13.5494   24.9763 C   0  0  0  0  0  0  0  0  0  0  0  0
    7.6847  -12.4275   25.2469 C   0  0  0  0  0  0  0  0  0  0  0  0
    7.9077  -11.9618   26.5203 C   0  0  0  0  0  0  0  0  0  0  0  0
    7.3820  -12.6122   27.6065 C   0  0  0  0  0  0  0  0  0  0  0  0
    6.6228  -13.7496   27.3666 C   0  0  0  0  0  0  0  0  0  0  0  0
    6.4083  -14.2039   26.0817 C   0  0  0  0  0  0  0  0  0  0  0  0
    8.3049  -15.8552   23.7610 C   0  0  0  0  0  0  0  0  0  0  0  0
    7.8028  -16.9614   23.4663 O   0  0  0  0  0  0  0  0  0  0  0  0
    9.2205  -15.7853   24.8335 N   0  0  0  0  0  0  0  0  0  0  0  0
    9.8908  -17.0057   25.3602 C   0  0  1  0  0  0  0  0  0  0  0  0
   11.0908  -17.2910   24.4772 C   0  0  0  0  0  0  0  0  0  0  0  0
   11.9097  -18.3764   24.9774 C   0  0  0  0  0  0  0  0  0  0  0  0
   11.4022  -19.4514   25.3765 O   0  0  0  0  0  0  0  0  0  0  0  0
   10.3148  -16.6369   26.7198 C   0  0  0  0  0  0  0  0  0  0  0  0
   10.4923  -15.4447   27.0333 O   0  0  0  0  0  0  0  0  0  0  0  0
   13.3079  -18.3191   25.0563 O   0  0  0  0  0  0  0  0  0  0  0  0
   10.5364  -17.5778   27.7157 O   0  0  0  0  0  0  0  0  0  0  0  0
  2  1  1  0
  2  3  2  0
  4  2  1  0
  5  4  1  0
  5  6  1  0
  6  7  1  1
  8  6  1  0
  8 10  1  0
  9  8  2  0
 11 10  1  0
 12 13  1  0
 11 12  1  1
 13 18  2  0
 14 13  1  0
 14 15  2  0
 15 16  1  0
 16 17  2  0
 18 17  1  0
 19 21  1  0
 19 11  1  0
 20 19  2  0
 22 21  1  0
 22 26  1  0
 22 23  1  6
 24 25  2  0
 24 23  1  0
 26 27  2  0
 26 29  1  0
 28 24  1  0
M  END
$$$$
