QFD.pdb
     RDKit          3D

 29 29  0  0  1  0  0  0  0  0999 V2000
    9.6220  -13.7435   17.8289 N   0  0  0  0  0  0  0  0  0  0  0  0
    8.2274  -13.7100   17.6442 C   0  0  0  0  0  0  0  0  0  0  0  0
    7.7418  -14.0139   16.5371 O   0  0  0  0  0  0  0  0  0  0  0  0
    7.3334  -13.3190   18.7476 C   0  0  0  0  0  0  0  0  0  0  0  0
    8.0700  -13.2339   20.0720 C   0  0  0  0  0  0  0  0  0  0  0  0
    8.2827  -14.6555   20.5664 C   0  0  2  0  0  0  0  0  0  0  0  0
    6.9410  -15.2503   20.5844 N   0  0  0  0  0  0  0  0  0  0  0  0
    8.7879  -14.6737   21.9578 C   0  0  0  0  0  0  0  0  0  0  0  0
    9.8495  -14.0738   22.2436 O   0  0  0  0  0  0  0  0  0  0  0  0
    8.1335  -15.3456   23.0292 N   0  0  0  0  0  0  0  0  0  0  0  0
    8.6676  -15.4073   24.3628 C   0  0  1  0  0  0  0  0  0  0  0  0
    7.5184  -15.3262   25.3549 C   0  0  0  0  0  0  0  0  0  0  0  0
    7.1778  -13.9280   25.7007 C   0  0  0  0  0  0  0  0  0  0  0  0
    8.0909  -12.9974   26.1359 C   0  0  0  0  0  0  0  0  0  0  0  0
    7.7537  -11.7025   26.4491 C   0  0  0  0  0  0  0  0  0  0  0  0
    6.4577  -11.2695   26.3388 C   0  0  0  0  0  0  0  0  0  0  0  0
    5.5111  -12.1862   25.9017 C   0  0  0  0  0  0  0  0  0  0  0  0
    5.8662  -13.4826   25.5912 C   0  0  0  0  0  0  0  0  0  0  0  0
    9.4332  -16.6295   24.6582 C   0  0  0  0  0  0  0  0  0  0  0  0
    8.9626  -17.7412   24.3335 O   0  0  0  0  0  0  0  0  0  0  0  0
   10.6907  -16.5813   25.2983 N   0  0  0  0  0  0  0  0  0  0  0  0
   11.4474  -17.8240   25.6134 C   0  0  1  0  0  0  0  0  0  0  0  0
   12.9264  -17.5023   25.5120 C   0  0  0  0  0  0  0  0  0  0  0  0
   13.3534  -17.2506   24.1507 C   0  0  0  0  0  0  0  0  0  0  0  0
   12.8236  -17.8377   23.1775 O   0  0  0  0  0  0  0  0  0  0  0  0
   11.0730  -18.1432   26.9999 C   0  0  0  0  0  0  0  0  0  0  0  0
   10.3791  -17.3572   27.6722 O   0  0  0  0  0  0  0  0  0  0  0  0
   14.3724  -16.3497   23.8125 O   0  0  0  0  0  0  0  0  0  0  0  0
   11.4620  -19.3176   27.6286 O   0  0  0  0  0  0  0  0  0  0  0  0
  2  1  1  0
  2  3  2  0
  4  2  1  0
  5  4  1  0
  5  6  1  0
  6  7  1  1
  8  6  1  0
  8 10  1  0
  9  8  2  0
 11 10  1  0
 12 13  1  0
 11 12  1  1
 13 18  2  0
 14 13  1  0
 14 15  2  0
 15 16  1  0
 16 17  2  0
 18 17  1  0
 19 21  1  0
 19 11  1  0
 20 19  2  0
 22 21  1  0
 22 26  1  0
 22 23  1  1
 24 25  2  0
 24 23  1  0
 26 27  2  0
 26 29  1  0
 28 24  1  0
M  END
$$$$
