QFD.pdb
     RDKit          3D

 29 29  0  0  1  0  0  0  0  0999 V2000
    7.9889  -15.7881   15.5133 N   0  0  0  0  0  0  0  0  0  0  0  0
    8.4802  -16.7830   16.3787 C   0  0  0  0  0  0  0  0  0  0  0  0
    9.2978  -17.6233   15.9554 O   0  0  0  0  0  0  0  0  0  0  0  0
    8.0378  -16.8420   17.7825 C   0  0  0  0  0  0  0  0  0  0  0  0
    8.8195  -15.8856   18.6646 C   0  0  0  0  0  0  0  0  0  0  0  0
    9.1683  -16.6288   19.9439 C   0  0  2  0  0  0  0  0  0  0  0  0
    8.0207  -17.5103   20.1895 N   0  0  0  0  0  0  0  0  0  0  0  0
    9.2646  -15.7046   21.0965 C   0  0  0  0  0  0  0  0  0  0  0  0
   10.2466  -14.9339   21.1974 O   0  0  0  0  0  0  0  0  0  0  0  0
    8.2904  -15.6261   22.1321 N   0  0  0  0  0  0  0  0  0  0  0  0
    8.4127  -14.7460   23.2625 C   0  0  1  0  0  0  0  0  0  0  0  0
    7.0214  -14.4169   23.7798 C   0  0  0  0  0  0  0  0  0  0  0  0
    7.0593  -13.4780   24.9233 C   0  0  0  0  0  0  0  0  0  0  0  0
    6.6523  -13.7973   26.1966 C   0  0  0  0  0  0  0  0  0  0  0  0
    6.6987  -12.9106   27.2454 C   0  0  0  0  0  0  0  0  0  0  0  0
    7.1650  -11.6343   27.0641 C   0  0  0  0  0  0  0  0  0  0  0  0
    7.5838  -11.2805   25.7885 C   0  0  0  0  0  0  0  0  0  0  0  0
    7.5308  -12.1829   24.7463 C   0  0  0  0  0  0  0  0  0  0  0  0
    9.1923  -15.2964   24.3835 C   0  0  0  0  0  0  0  0  0  0  0  0
    9.3458  -14.6118   25.4181 O   0  0  0  0  0  0  0  0  0  0  0  0
    9.7721  -16.5824   24.3239 N   0  0  0  0  0  0  0  0  0  0  0  0
   10.5597  -17.1303   25.4620 C   0  0  1  0  0  0  0  0  0  0  0  0
    9.9984  -18.4995   25.7954 C   0  0  0  0  0  0  0  0  0  0  0  0
    9.7834  -18.6868   27.2158 C   0  0  0  0  0  0  0  0  0  0  0  0
   10.1422  -17.8250   28.0531 O   0  0  0  0  0  0  0  0  0  0  0  0
   11.9326  -17.2371   24.9441 C   0  0  0  0  0  0  0  0  0  0  0  0
   12.1460  -17.5500   23.7576 O   0  0  0  0  0  0  0  0  0  0  0  0
    9.1697  -19.8217   27.7634 O   0  0  0  0  0  0  0  0  0  0  0  0
   13.0502  -16.9988   25.7315 O   0  0  0  0  0  0  0  0  0  0  0  0
  2  1  1  0
  2  3  2  0
  4  2  1  0
  5  4  1  0
  5  6  1  0
  6  7  1  1
  8  6  1  0
  8 10  1  0
  9  8  2  0
 11 10  1  0
 12 13  1  0
 11 12  1  1
 13 18  2  0
 14 13  1  0
 14 15  2  0
 15 16  1  0
 16 17  2  0
 18 17  1  0
 19 21  1  0
 19 11  1  0
 20 19  2  0
 22 21  1  0
 22 26  1  0
 22 23  1  6
 24 25  2  0
 24 23  1  0
 26 27  2  0
 26 29  1  0
 28 24  1  0
M  END
$$$$
