QFD.pdb
     RDKit          3D

 29 29  0  0  1  0  0  0  0  0999 V2000
    8.5335  -12.2153   18.4142 N   0  0  0  0  0  0  0  0  0  0  0  0
    8.0418  -13.4166   17.8709 C   0  0  0  0  0  0  0  0  0  0  0  0
    7.7484  -13.4747   16.6608 O   0  0  0  0  0  0  0  0  0  0  0  0
    7.8700  -14.6089   18.7188 C   0  0  0  0  0  0  0  0  0  0  0  0
    8.2240  -14.3304   20.1683 C   0  0  0  0  0  0  0  0  0  0  0  0
    8.5220  -15.6669   20.8284 C   0  0  2  0  0  0  0  0  0  0  0  0
    7.2530  -16.4023   20.7745 N   0  0  0  0  0  0  0  0  0  0  0  0
    8.8693  -15.4978   22.2576 C   0  0  0  0  0  0  0  0  0  0  0  0
    9.9938  -15.0484   22.5771 O   0  0  0  0  0  0  0  0  0  0  0  0
    7.9893  -15.8198   23.3298 N   0  0  0  0  0  0  0  0  0  0  0  0
    8.4239  -15.9421   24.6949 C   0  0  1  0  0  0  0  0  0  0  0  0
    7.2283  -15.7321   25.6103 C   0  0  0  0  0  0  0  0  0  0  0  0
    6.9326  -14.2973   25.8212 C   0  0  0  0  0  0  0  0  0  0  0  0
    5.8601  -13.6416   25.2655 C   0  0  0  0  0  0  0  0  0  0  0  0
    5.6021  -12.3084   25.4767 C   0  0  0  0  0  0  0  0  0  0  0  0
    6.4244  -11.5528   26.2718 C   0  0  0  0  0  0  0  0  0  0  0  0
    7.5173  -12.1863   26.8479 C   0  0  0  0  0  0  0  0  0  0  0  0
    7.7620  -13.5257   26.6258 C   0  0  0  0  0  0  0  0  0  0  0  0
    9.0257  -17.2432   25.0302 C   0  0  0  0  0  0  0  0  0  0  0  0
    8.8711  -18.2090   24.2517 O   0  0  0  0  0  0  0  0  0  0  0  0
    9.7779  -17.4313   26.2100 N   0  0  0  0  0  0  0  0  0  0  0  0
   10.8368  -18.4742   26.2953 C   0  0  1  0  0  0  0  0  0  0  0  0
   11.9236  -18.1113   25.3012 C   0  0  0  0  0  0  0  0  0  0  0  0
   13.0520  -19.0188   25.3478 C   0  0  0  0  0  0  0  0  0  0  0  0
   12.8947  -20.2628   25.3324 O   0  0  0  0  0  0  0  0  0  0  0  0
   11.3358  -18.3823   27.6762 C   0  0  0  0  0  0  0  0  0  0  0  0
   11.2742  -17.3111   28.3087 O   0  0  0  0  0  0  0  0  0  0  0  0
   14.3859  -18.5936   25.4125 O   0  0  0  0  0  0  0  0  0  0  0  0
   11.8930  -19.4637   28.3441 O   0  0  0  0  0  0  0  0  0  0  0  0
  2  1  1  0
  2  3  2  0
  4  2  1  0
  5  4  1  0
  5  6  1  0
  6  7  1  1
  8  6  1  0
  8 10  1  0
  9  8  2  0
 11 10  1  0
 12 13  1  0
 11 12  1  1
 13 18  2  0
 14 13  1  0
 14 15  2  0
 15 16  1  0
 16 17  2  0
 18 17  1  0
 19 21  1  0
 19 11  1  0
 20 19  2  0
 22 21  1  0
 22 26  1  0
 22 23  1  6
 24 25  2  0
 24 23  1  0
 26 27  2  0
 26 29  1  0
 28 24  1  0
M  END
$$$$
