QFD.pdb
     RDKit          3D

 29 29  0  0  1  0  0  0  0  0999 V2000
    7.2592  -20.6871   18.8256 N   0  0  0  0  0  0  0  0  0  0  0  0
    8.5518  -20.1337   18.8803 C   0  0  0  0  0  0  0  0  0  0  0  0
    9.5368  -20.8771   19.0561 O   0  0  0  0  0  0  0  0  0  0  0  0
    8.7537  -18.6822   18.7316 C   0  0  0  0  0  0  0  0  0  0  0  0
    9.0872  -18.0169   20.0546 C   0  0  0  0  0  0  0  0  0  0  0  0
    9.0201  -16.5140   19.8375 C   0  0  2  0  0  0  0  0  0  0  0  0
   10.1852  -16.2042   19.0003 N   0  0  0  0  0  0  0  0  0  0  0  0
    9.1874  -15.7764   21.1102 C   0  0  0  0  0  0  0  0  0  0  0  0
   10.3276  -15.6502   21.6126 O   0  0  0  0  0  0  0  0  0  0  0  0
    8.1110  -15.1811   21.8278 N   0  0  0  0  0  0  0  0  0  0  0  0
    8.2523  -14.6399   23.1524 C   0  0  1  0  0  0  0  0  0  0  0  0
    7.0505  -13.7581   23.4519 C   0  0  0  0  0  0  0  0  0  0  0  0
    7.1169  -13.1665   24.8069 C   0  0  0  0  0  0  0  0  0  0  0  0
    7.9649  -12.1445   25.1610 C   0  0  0  0  0  0  0  0  0  0  0  0
    8.0085  -11.6073   26.4252 C   0  0  0  0  0  0  0  0  0  0  0  0
    7.1866  -12.0790   27.4158 C   0  0  0  0  0  0  0  0  0  0  0  0
    6.3180  -13.1119   27.0898 C   0  0  0  0  0  0  0  0  0  0  0  0
    6.2867  -13.6399   25.8156 C   0  0  0  0  0  0  0  0  0  0  0  0
    8.3468  -15.6509   24.2184 C   0  0  0  0  0  0  0  0  0  0  0  0
    7.5685  -16.6291   24.2065 O   0  0  0  0  0  0  0  0  0  0  0  0
    9.2977  -15.5480   25.2569 N   0  0  0  0  0  0  0  0  0  0  0  0
    9.7399  -16.7450   26.0235 C   0  0  1  0  0  0  0  0  0  0  0  0
   10.9324  -17.3418   25.3003 C   0  0  0  0  0  0  0  0  0  0  0  0
   11.5460  -18.4301   26.0339 C   0  0  0  0  0  0  0  0  0  0  0  0
   10.8936  -19.1187   26.8540 O   0  0  0  0  0  0  0  0  0  0  0  0
   10.1335  -16.2170   27.3390 C   0  0  0  0  0  0  0  0  0  0  0  0
    9.9577  -16.8854   28.3752 O   0  0  0  0  0  0  0  0  0  0  0  0
   12.8910  -18.7981   25.8928 O   0  0  0  0  0  0  0  0  0  0  0  0
   10.7146  -14.9671   27.5004 O   0  0  0  0  0  0  0  0  0  0  0  0
  2  1  1  0
  2  3  2  0
  4  2  1  0
  5  4  1  0
  5  6  1  0
  6  7  1  6
  8  6  1  0
  8 10  1  0
  9  8  2  0
 11 10  1  0
 12 13  1  0
 11 12  1  1
 13 18  2  0
 14 13  1  0
 14 15  2  0
 15 16  1  0
 16 17  2  0
 18 17  1  0
 19 21  1  0
 19 11  1  0
 20 19  2  0
 22 21  1  0
 22 26  1  0
 22 23  1  6
 24 25  2  0
 24 23  1  0
 26 27  2  0
 26 29  1  0
 28 24  1  0
M  END
$$$$
