YFR.pdb
     RDKit          3D

 35 36  0  0  1  0  0  0  0  0999 V2000
   28.0242  -16.9351  -18.5180 O   0  0  0  0  0  0  0  0  0  0  0  0
   27.6746  -17.5262  -17.3049 C   0  0  0  0  0  0  0  0  0  0  0  0
   26.7591  -18.5680  -17.2157 C   0  0  0  0  0  0  0  0  0  0  0  0
   26.4117  -19.1570  -16.0350 C   0  0  0  0  0  0  0  0  0  0  0  0
   26.9706  -18.7314  -14.8456 C   0  0  0  0  0  0  0  0  0  0  0  0
   26.5922  -19.4052  -13.5658 C   0  0  0  0  0  0  0  0  0  0  0  0
   27.7232  -20.3565  -13.1440 C   0  0  2  0  0  0  0  0  0  0  0  0
   27.7599  -21.4959  -14.0480 N   0  0  0  0  0  0  0  0  0  0  0  0
   27.4778  -20.8388  -11.7629 C   0  0  0  0  0  0  0  0  0  0  0  0
   26.6559  -21.7831  -11.5267 O   0  0  0  0  0  0  0  0  0  0  0  0
   27.8823  -17.7021  -14.8857 C   0  0  0  0  0  0  0  0  0  0  0  0
   28.2181  -17.1208  -16.0961 C   0  0  0  0  0  0  0  0  0  0  0  0
   28.1510  -20.2714  -10.6295 N   0  0  0  0  0  0  0  0  0  0  0  0
   27.7830  -20.6490   -9.2528 C   0  0  1  0  0  0  0  0  0  0  0  0
   28.8523  -20.1504   -8.2987 C   0  0  0  0  0  0  0  0  0  0  0  0
   28.3980  -20.1977   -6.9006 C   0  0  0  0  0  0  0  0  0  0  0  0
   28.5009  -21.3365   -6.0972 C   0  0  0  0  0  0  0  0  0  0  0  0
   28.0899  -21.3594   -4.7852 C   0  0  0  0  0  0  0  0  0  0  0  0
   27.5540  -20.2404   -4.2112 C   0  0  0  0  0  0  0  0  0  0  0  0
   27.4334  -19.0957   -4.9689 C   0  0  0  0  0  0  0  0  0  0  0  0
   27.8571  -19.0922   -6.2984 C   0  0  0  0  0  0  0  0  0  0  0  0
   26.4411  -20.1658   -8.9998 C   0  0  0  0  0  0  0  0  0  0  0  0
   26.2405  -18.9072   -9.1534 O   0  0  0  0  0  0  0  0  0  0  0  0
   21.0258  -20.2746  -14.1566 N   0  0  0  0  0  0  0  0  0  0  0  0
   20.4619  -20.2898  -12.8563 C   0  0  0  0  0  0  0  0  0  0  0  0
   19.2382  -20.0638  -12.6380 N   0  0  0  0  0  0  0  0  0  0  0  0
   21.3483  -20.5731  -11.7765 N   0  0  0  0  0  0  0  0  0  0  0  0
   22.7471  -20.8816  -11.9833 C   0  0  0  0  0  0  0  0  0  0  0  0
   23.3964  -21.1627  -10.6691 C   0  0  0  0  0  0  0  0  0  0  0  0
   23.3496  -20.1017   -9.6594 C   0  0  0  0  0  0  0  0  0  0  0  0
   24.0098  -20.3312   -8.3340 C   0  0  2  0  0  0  0  0  0  0  0  0
   25.3329  -20.9092   -8.6120 N   0  0  0  0  0  0  0  0  0  0  0  0
   23.2887  -21.0697   -7.3288 C   0  0  0  0  0  0  0  0  0  0  0  0
   23.7300  -22.1273   -6.7969 O   0  0  0  0  0  0  0  0  0  0  0  0
   22.0163  -20.7027   -6.8201 O   0  0  0  0  0  0  0  0  0  0  0  0
  2 12  2  0
  2  1  1  0
  3  2  1  0
  4  5  1  0
  4  3  2  0
  5 11  2  0
  6  5  1  0
  7  6  1  0
  7  8  1  6
  9  7  1  0
  9 10  2  0
 11 12  1  0
 13  9  1  0
 14 13  1  0
 14 22  1  0
 14 15  1  1
 16 17  2  0
 16 15  1  0
 18 17  1  0
 19 18  2  0
 20 19  1  0
 20 21  2  0
 21 16  1  0
 22 32  1  0
 22 23  2  0
 25 24  1  0
 25 27  1  0
 26 25  2  0
 27 28  1  0
 29 28  1  0
 29 30  1  0
 31 30  1  6
 31 33  1  0
 32 31  1  0
 33 35  1  0
 34 33  2  0
M  END
$$$$
