YFR.pdb
     RDKit          3D

 35 36  0  0  1  0  0  0  0  0999 V2000
   29.3745  -15.0347  -17.4035 O   0  0  0  0  0  0  0  0  0  0  0  0
   28.7367  -16.0294  -16.6640 C   0  0  0  0  0  0  0  0  0  0  0  0
   28.3054  -15.8314  -15.3578 C   0  0  0  0  0  0  0  0  0  0  0  0
   27.6769  -16.7957  -14.6252 C   0  0  0  0  0  0  0  0  0  0  0  0
   27.4357  -18.0440  -15.1655 C   0  0  0  0  0  0  0  0  0  0  0  0
   26.7261  -19.0789  -14.3529 C   0  0  0  0  0  0  0  0  0  0  0  0
   27.7044  -19.6705  -13.3257 C   0  0  2  0  0  0  0  0  0  0  0  0
   28.6358  -20.5609  -14.0012 N   0  0  0  0  0  0  0  0  0  0  0  0
   26.9495  -20.4388  -12.3057 C   0  0  0  0  0  0  0  0  0  0  0  0
   26.7101  -21.6812  -12.4547 O   0  0  0  0  0  0  0  0  0  0  0  0
   27.8456  -18.2854  -16.4562 C   0  0  0  0  0  0  0  0  0  0  0  0
   28.4814  -17.2908  -17.1788 C   0  0  0  0  0  0  0  0  0  0  0  0
   26.4553  -19.8263  -11.1056 N   0  0  0  0  0  0  0  0  0  0  0  0
   25.3745  -20.4472  -10.3186 C   0  0  1  0  0  0  0  0  0  0  0  0
   25.2936  -19.7681   -8.9641 C   0  0  0  0  0  0  0  0  0  0  0  0
   26.5079  -19.9990   -8.1670 C   0  0  0  0  0  0  0  0  0  0  0  0
   27.2782  -18.9673   -7.6236 C   0  0  0  0  0  0  0  0  0  0  0  0
   28.4002  -19.1995   -6.8634 C   0  0  0  0  0  0  0  0  0  0  0  0
   28.8077  -20.4794   -6.6090 C   0  0  0  0  0  0  0  0  0  0  0  0
   28.0769  -21.5266   -7.1271 C   0  0  0  0  0  0  0  0  0  0  0  0
   26.9406  -21.2704   -7.8956 C   0  0  0  0  0  0  0  0  0  0  0  0
   24.1639  -20.4093  -11.1131 C   0  0  0  0  0  0  0  0  0  0  0  0
   24.1041  -19.5178  -12.0348 O   0  0  0  0  0  0  0  0  0  0  0  0
   23.2328  -24.3962  -17.0663 N   0  0  0  0  0  0  0  0  0  0  0  0
   22.0957  -25.1698  -16.7235 C   0  0  0  0  0  0  0  0  0  0  0  0
   21.3027  -25.6414  -17.5867 N   0  0  0  0  0  0  0  0  0  0  0  0
   21.8718  -25.3995  -15.3346 N   0  0  0  0  0  0  0  0  0  0  0  0
   22.7197  -24.8306  -14.3090 C   0  0  0  0  0  0  0  0  0  0  0  0
   22.1026  -23.5743  -13.7905 C   0  0  0  0  0  0  0  0  0  0  0  0
   22.7735  -22.9135  -12.6678 C   0  0  0  0  0  0  0  0  0  0  0  0
   22.2041  -21.6349  -12.1326 C   0  0  2  0  0  0  0  0  0  0  0  0
   23.0507  -21.2335  -10.9994 N   0  0  0  0  0  0  0  0  0  0  0  0
   20.8005  -21.5923  -11.8108 C   0  0  0  0  0  0  0  0  0  0  0  0
   19.8944  -21.4575  -12.6809 O   0  0  0  0  0  0  0  0  0  0  0  0
   20.2734  -21.6982  -10.4980 O   0  0  0  0  0  0  0  0  0  0  0  0
  2 12  2  0
  2  1  1  0
  3  2  1  0
  4  5  1  0
  4  3  2  0
  5 11  2  0
  6  5  1  0
  7  6  1  0
  7  8  1  6
  9  7  1  0
  9 10  2  0
 11 12  1  0
 13  9  1  0
 14 13  1  0
 14 22  1  0
 14 15  1  1
 16 17  2  0
 16 15  1  0
 18 17  1  0
 19 18  2  0
 20 19  1  0
 20 21  2  0
 21 16  1  0
 22 32  1  0
 22 23  2  0
 25 24  1  0
 25 27  1  0
 26 25  2  0
 27 28  1  0
 29 28  1  0
 29 30  1  0
 31 30  1  1
 31 33  1  0
 32 31  1  0
 33 35  1  0
 34 33  2  0
M  END
$$$$
