YFR.pdb
     RDKit          3D

 35 36  0  0  1  0  0  0  0  0999 V2000
   23.9644  -18.2974  -17.7799 O   0  0  0  0  0  0  0  0  0  0  0  0
   24.0821  -18.8188  -16.4925 C   0  0  0  0  0  0  0  0  0  0  0  0
   23.5889  -20.0703  -16.1433 C   0  0  0  0  0  0  0  0  0  0  0  0
   23.7011  -20.5929  -14.8879 C   0  0  0  0  0  0  0  0  0  0  0  0
   24.3272  -19.8809  -13.8832 C   0  0  0  0  0  0  0  0  0  0  0  0
   24.4585  -20.4814  -12.5205 C   0  0  0  0  0  0  0  0  0  0  0  0
   25.9287  -20.8562  -12.2750 C   0  0  2  0  0  0  0  0  0  0  0  0
   26.2674  -22.0302  -13.0647 N   0  0  0  0  0  0  0  0  0  0  0  0
   26.1302  -21.1620  -10.8375 C   0  0  0  0  0  0  0  0  0  0  0  0
   25.7839  -22.2842  -10.3436 O   0  0  0  0  0  0  0  0  0  0  0  0
   24.8311  -18.6366  -14.1833 C   0  0  0  0  0  0  0  0  0  0  0  0
   24.7044  -18.1283  -15.4644 C   0  0  0  0  0  0  0  0  0  0  0  0
   26.7237  -20.2163   -9.9358 N   0  0  0  0  0  0  0  0  0  0  0  0
   26.8739  -20.5175   -8.5006 C   0  0  1  0  0  0  0  0  0  0  0  0
   27.9029  -19.5773   -7.9011 C   0  0  0  0  0  0  0  0  0  0  0  0
   28.0027  -19.7394   -6.4427 C   0  0  0  0  0  0  0  0  0  0  0  0
   28.5451  -20.8726   -5.8306 C   0  0  0  0  0  0  0  0  0  0  0  0
   28.6500  -21.0011   -4.4656 C   0  0  0  0  0  0  0  0  0  0  0  0
   28.2156  -19.9988   -3.6436 C   0  0  0  0  0  0  0  0  0  0  0  0
   27.6729  -18.8640   -4.2063 C   0  0  0  0  0  0  0  0  0  0  0  0
   27.5759  -18.7521   -5.5939 C   0  0  0  0  0  0  0  0  0  0  0  0
   25.5587  -20.4773   -7.8949 C   0  0  0  0  0  0  0  0  0  0  0  0
   24.7736  -19.5365   -8.2777 O   0  0  0  0  0  0  0  0  0  0  0  0
   19.1444  -25.9038   -6.4148 N   0  0  0  0  0  0  0  0  0  0  0  0
   18.5508  -24.6453   -6.1448 C   0  0  0  0  0  0  0  0  0  0  0  0
   17.3316  -24.5146   -5.8401 N   0  0  0  0  0  0  0  0  0  0  0  0
   19.3995  -23.5037   -6.2349 N   0  0  0  0  0  0  0  0  0  0  0  0
   20.7957  -23.6038   -6.6029 C   0  0  0  0  0  0  0  0  0  0  0  0
   21.3897  -22.2369   -6.6863 C   0  0  0  0  0  0  0  0  0  0  0  0
   22.7955  -22.1421   -7.0887 C   0  0  0  0  0  0  0  0  0  0  0  0
   23.7019  -21.2083   -6.3457 C   0  0  2  0  0  0  0  0  0  0  0  0
   25.0380  -21.3465   -6.9438 N   0  0  0  0  0  0  0  0  0  0  0  0
   23.7339  -21.2852   -4.9074 C   0  0  0  0  0  0  0  0  0  0  0  0
   22.7225  -21.0750   -4.1801 O   0  0  0  0  0  0  0  0  0  0  0  0
   24.8870  -21.6046   -4.1452 O   0  0  0  0  0  0  0  0  0  0  0  0
  2 12  2  0
  2  1  1  0
  3  2  1  0
  4  5  1  0
  4  3  2  0
  5 11  2  0
  6  5  1  0
  7  6  1  0
  7  8  1  6
  9  7  1  0
  9 10  2  0
 11 12  1  0
 13  9  1  0
 14 13  1  0
 14 22  1  0
 14 15  1  1
 16 17  2  0
 16 15  1  0
 18 17  1  0
 19 18  2  0
 20 19  1  0
 20 21  2  0
 21 16  1  0
 22 32  1  0
 22 23  2  0
 25 24  1  0
 25 27  1  0
 26 25  2  0
 27 28  1  0
 29 28  1  0
 29 30  1  0
 31 30  1  6
 31 33  1  0
 32 31  1  0
 33 35  1  0
 34 33  2  0
M  END
$$$$
