YFR.pdb
     RDKit          3D

 35 36  0  0  1  0  0  0  0  0999 V2000
   19.1100  -14.4321  -20.6002 O   0  0  0  0  0  0  0  0  0  0  0  0
   19.4605  -15.4941  -19.7680 C   0  0  0  0  0  0  0  0  0  0  0  0
   19.7623  -15.3231  -18.4223 C   0  0  0  0  0  0  0  0  0  0  0  0
   20.1031  -16.3547  -17.5970 C   0  0  0  0  0  0  0  0  0  0  0  0
   20.1641  -17.6486  -18.0771 C   0  0  0  0  0  0  0  0  0  0  0  0
   20.5184  -18.7670  -17.1505 C   0  0  0  0  0  0  0  0  0  0  0  0
   22.0484  -18.8864  -17.0671 C   0  0  2  0  0  0  0  0  0  0  0  0
   22.5562  -19.4718  -18.2983 N   0  0  0  0  0  0  0  0  0  0  0  0
   22.4173  -19.7585  -15.9253 C   0  0  0  0  0  0  0  0  0  0  0  0
   22.5181  -21.0212  -16.0611 O   0  0  0  0  0  0  0  0  0  0  0  0
   19.8732  -17.8655  -19.4039 C   0  0  0  0  0  0  0  0  0  0  0  0
   19.5303  -16.8022  -20.2209 C   0  0  0  0  0  0  0  0  0  0  0  0
   22.6801  -19.2277  -14.6180 N   0  0  0  0  0  0  0  0  0  0  0  0
   23.0890  -20.1029  -13.5046 C   0  0  1  0  0  0  0  0  0  0  0  0
   24.0717  -19.3566  -12.6216 C   0  0  0  0  0  0  0  0  0  0  0  0
   24.4053  -20.1228  -11.4113 C   0  0  0  0  0  0  0  0  0  0  0  0
   23.7048  -20.0023  -10.2080 C   0  0  0  0  0  0  0  0  0  0  0  0
   24.0161  -20.7404   -9.0904 C   0  0  0  0  0  0  0  0  0  0  0  0
   25.0469  -21.6379   -9.1222 C   0  0  0  0  0  0  0  0  0  0  0  0
   25.7646  -21.7870  -10.2891 C   0  0  0  0  0  0  0  0  0  0  0  0
   25.4327  -21.0294  -11.4130 C   0  0  0  0  0  0  0  0  0  0  0  0
   21.8899  -20.5793  -12.8461 C   0  0  0  0  0  0  0  0  0  0  0  0
   20.9622  -19.7168  -12.6382 O   0  0  0  0  0  0  0  0  0  0  0  0
   18.8362  -25.5284   -6.7477 N   0  0  0  0  0  0  0  0  0  0  0  0
   17.7849  -24.7904   -7.3468 C   0  0  0  0  0  0  0  0  0  0  0  0
   16.5811  -25.1734   -7.3261 N   0  0  0  0  0  0  0  0  0  0  0  0
   18.1444  -23.5714   -7.9923 N   0  0  0  0  0  0  0  0  0  0  0  0
   19.3384  -23.4459   -8.8005 C   0  0  0  0  0  0  0  0  0  0  0  0
   19.4159  -22.0671   -9.3669 C   0  0  0  0  0  0  0  0  0  0  0  0
   20.5058  -21.7903  -10.3066 C   0  0  0  0  0  0  0  0  0  0  0  0
   20.3822  -22.2661  -11.7221 C   0  0  2  0  0  0  0  0  0  0  0  0
   21.6187  -21.8716  -12.4130 N   0  0  0  0  0  0  0  0  0  0  0  0
   19.2006  -21.9072  -12.4643 C   0  0  0  0  0  0  0  0  0  0  0  0
   18.4776  -22.7511  -13.0653 O   0  0  0  0  0  0  0  0  0  0  0  0
   18.7116  -20.5830  -12.6055 O   0  0  0  0  0  0  0  0  0  0  0  0
  2 12  2  0
  2  1  1  0
  3  2  1  0
  4  5  1  0
  4  3  2  0
  5 11  2  0
  6  5  1  0
  7  6  1  0
  7  8  1  6
  9  7  1  0
  9 10  2  0
 11 12  1  0
 13  9  1  0
 14 13  1  0
 14 22  1  0
 14 15  1  1
 16 17  2  0
 16 15  1  0
 18 17  1  0
 19 18  2  0
 20 19  1  0
 20 21  2  0
 21 16  1  0
 22 32  1  0
 22 23  2  0
 25 24  1  0
 25 27  1  0
 26 25  2  0
 27 28  1  0
 29 28  1  0
 29 30  1  0
 31 30  1  1
 31 33  1  0
 32 31  1  0
 33 35  1  0
 34 33  2  0
M  END
$$$$
