YFR.pdb
     RDKit          3D

 35 36  0  0  1  0  0  0  0  0999 V2000
   20.3487  -17.0780  -20.4288 O   0  0  0  0  0  0  0  0  0  0  0  0
   20.3139  -18.2973  -19.7541 C   0  0  0  0  0  0  0  0  0  0  0  0
   20.6452  -18.4192  -18.4099 C   0  0  0  0  0  0  0  0  0  0  0  0
   20.6115  -19.6061  -17.7377 C   0  0  0  0  0  0  0  0  0  0  0  0
   20.2362  -20.7688  -18.3822 C   0  0  0  0  0  0  0  0  0  0  0  0
   20.1851  -22.0547  -17.6214 C   0  0  0  0  0  0  0  0  0  0  0  0
   21.6043  -22.4246  -17.1619 C   0  0  2  0  0  0  0  0  0  0  0  0
   22.4328  -22.7025  -18.3251 N   0  0  0  0  0  0  0  0  0  0  0  0
   21.5496  -23.6332  -16.3035 C   0  0  0  0  0  0  0  0  0  0  0  0
   21.4198  -24.7971  -16.8051 O   0  0  0  0  0  0  0  0  0  0  0  0
   19.8996  -20.6959  -19.7140 C   0  0  0  0  0  0  0  0  0  0  0  0
   19.9419  -19.4800  -20.3738 C   0  0  0  0  0  0  0  0  0  0  0  0
   21.6417  -23.5539  -14.8735 N   0  0  0  0  0  0  0  0  0  0  0  0
   21.7198  -24.7693  -14.0431 C   0  0  1  0  0  0  0  0  0  0  0  0
   23.1201  -24.8908  -13.4714 C   0  0  0  0  0  0  0  0  0  0  0  0
   24.1343  -24.9827  -14.5325 C   0  0  0  0  0  0  0  0  0  0  0  0
   24.7133  -23.8659  -15.1412 C   0  0  0  0  0  0  0  0  0  0  0  0
   25.6753  -23.9678  -16.1184 C   0  0  0  0  0  0  0  0  0  0  0  0
   26.1062  -25.1962  -16.5359 C   0  0  0  0  0  0  0  0  0  0  0  0
   25.5603  -26.3240  -15.9623 C   0  0  0  0  0  0  0  0  0  0  0  0
   24.5856  -26.1997  -14.9713 C   0  0  0  0  0  0  0  0  0  0  0  0
   20.6472  -24.7168  -13.0709 C   0  0  0  0  0  0  0  0  0  0  0  0
   20.4103  -23.5763  -12.5314 O   0  0  0  0  0  0  0  0  0  0  0  0
   19.2114  -25.6131   -5.5095 N   0  0  0  0  0  0  0  0  0  0  0  0
   17.9390  -25.1328   -5.9088 C   0  0  0  0  0  0  0  0  0  0  0  0
   17.1709  -24.4999   -5.1306 N   0  0  0  0  0  0  0  0  0  0  0  0
   17.5464  -25.3993   -7.2529 N   0  0  0  0  0  0  0  0  0  0  0  0
   18.4713  -25.9061   -8.2440 C   0  0  0  0  0  0  0  0  0  0  0  0
   18.9025  -24.7932   -9.1404 C   0  0  0  0  0  0  0  0  0  0  0  0
   19.6380  -25.1587  -10.3540 C   0  0  0  0  0  0  0  0  0  0  0  0
   18.8753  -25.6651  -11.5402 C   0  0  2  0  0  0  0  0  0  0  0  0
   19.8327  -25.7620  -12.6520 N   0  0  0  0  0  0  0  0  0  0  0  0
   17.6638  -24.9827  -11.9174 C   0  0  0  0  0  0  0  0  0  0  0  0
   17.4535  -24.5375  -13.0809 O   0  0  0  0  0  0  0  0  0  0  0  0
   16.5754  -24.7346  -11.0421 O   0  0  0  0  0  0  0  0  0  0  0  0
  2 12  2  0
  2  1  1  0
  3  2  1  0
  4  5  1  0
  4  3  2  0
  5 11  2  0
  6  5  1  0
  7  6  1  0
  7  8  1  6
  9  7  1  0
  9 10  2  0
 11 12  1  0
 13  9  1  0
 14 13  1  0
 14 22  1  0
 14 15  1  1
 16 17  2  0
 16 15  1  0
 18 17  1  0
 19 18  2  0
 20 19  1  0
 20 21  2  0
 21 16  1  0
 22 32  1  0
 22 23  2  0
 25 24  1  0
 25 27  1  0
 26 25  2  0
 27 28  1  0
 29 28  1  0
 29 30  1  0
 31 30  1  1
 31 33  1  0
 32 31  1  0
 33 35  1  0
 34 33  2  0
M  END
$$$$
