YFR.pdb
     RDKit          3D

 35 36  0  0  1  0  0  0  0  0999 V2000
   22.9782  -13.2820  -20.1176 O   0  0  0  0  0  0  0  0  0  0  0  0
   22.8722  -14.4533  -19.3691 C   0  0  0  0  0  0  0  0  0  0  0  0
   22.6436  -15.6950  -19.9497 C   0  0  0  0  0  0  0  0  0  0  0  0
   22.5416  -16.8486  -19.2283 C   0  0  0  0  0  0  0  0  0  0  0  0
   22.6648  -16.8310  -17.8526 C   0  0  0  0  0  0  0  0  0  0  0  0
   22.5715  -18.1095  -17.0835 C   0  0  0  0  0  0  0  0  0  0  0  0
   23.9050  -18.3618  -16.3622 C   0  0  2  0  0  0  0  0  0  0  0  0
   24.9374  -18.6591  -17.3431 N   0  0  0  0  0  0  0  0  0  0  0  0
   23.7614  -19.5161  -15.4417 C   0  0  0  0  0  0  0  0  0  0  0  0
   23.6597  -20.7070  -15.8827 O   0  0  0  0  0  0  0  0  0  0  0  0
   22.8918  -15.6233  -17.2343 C   0  0  0  0  0  0  0  0  0  0  0  0
   22.9911  -14.4668  -17.9883 C   0  0  0  0  0  0  0  0  0  0  0  0
   23.7321  -19.3517  -14.0162 N   0  0  0  0  0  0  0  0  0  0  0  0
   23.6448  -20.5138  -13.1135 C   0  0  1  0  0  0  0  0  0  0  0  0
   24.7870  -20.4548  -12.1164 C   0  0  0  0  0  0  0  0  0  0  0  0
   26.0947  -20.4269  -12.7890 C   0  0  0  0  0  0  0  0  0  0  0  0
   26.7609  -19.2453  -13.1252 C   0  0  0  0  0  0  0  0  0  0  0  0
   27.9927  -19.2352  -13.7362 C   0  0  0  0  0  0  0  0  0  0  0  0
   28.6202  -20.4109  -14.0416 C   0  0  0  0  0  0  0  0  0  0  0  0
   27.9972  -21.5994  -13.7281 C   0  0  0  0  0  0  0  0  0  0  0  0
   26.7475  -21.5887  -13.1074 C   0  0  0  0  0  0  0  0  0  0  0  0
   22.3137  -20.5379  -12.5425 C   0  0  0  0  0  0  0  0  0  0  0  0
   21.7919  -19.4041  -12.2427 O   0  0  0  0  0  0  0  0  0  0  0  0
   16.9678  -24.1955  -14.0070 N   0  0  0  0  0  0  0  0  0  0  0  0
   16.2622  -23.3039  -14.8533 C   0  0  0  0  0  0  0  0  0  0  0  0
   15.0597  -23.4900  -15.1934 N   0  0  0  0  0  0  0  0  0  0  0  0
   16.9772  -22.1630  -15.3210 N   0  0  0  0  0  0  0  0  0  0  0  0
   18.2972  -21.8232  -14.8344 C   0  0  0  0  0  0  0  0  0  0  0  0
   18.1826  -21.1498  -13.5073 C   0  0  0  0  0  0  0  0  0  0  0  0
   19.4254  -20.6924  -12.8798 C   0  0  0  0  0  0  0  0  0  0  0  0
   20.1093  -21.5844  -11.8888 C   0  0  2  0  0  0  0  0  0  0  0  0
   21.5243  -21.6517  -12.2826 N   0  0  0  0  0  0  0  0  0  0  0  0
   19.5470  -22.8869  -11.6380 C   0  0  0  0  0  0  0  0  0  0  0  0
   19.9816  -23.9440  -12.1764 O   0  0  0  0  0  0  0  0  0  0  0  0
   18.4556  -23.1369  -10.7668 O   0  0  0  0  0  0  0  0  0  0  0  0
  2 12  2  0
  2  1  1  0
  3  2  1  0
  4  5  1  0
  4  3  2  0
  5 11  2  0
  6  5  1  0
  7  6  1  0
  7  8  1  6
  9  7  1  0
  9 10  2  0
 11 12  1  0
 13  9  1  0
 14 13  1  0
 14 22  1  0
 14 15  1  1
 16 17  2  0
 16 15  1  0
 18 17  1  0
 19 18  2  0
 20 19  1  0
 20 21  2  0
 21 16  1  0
 22 32  1  0
 22 23  2  0
 25 24  1  0
 25 27  1  0
 26 25  2  0
 27 28  1  0
 29 28  1  0
 29 30  1  0
 31 30  1  6
 31 33  1  0
 32 31  1  0
 33 35  1  0
 34 33  2  0
M  END
$$$$
