YFR.pdb
     RDKit          3D

 35 36  0  0  1  0  0  0  0  0999 V2000
   22.5985  -21.9410   -6.6374 O   0  0  0  0  0  0  0  0  0  0  0  0
   23.0504  -21.8221   -7.9508 C   0  0  0  0  0  0  0  0  0  0  0  0
   22.3162  -22.2771   -9.0395 C   0  0  0  0  0  0  0  0  0  0  0  0
   22.7460  -22.1633  -10.3294 C   0  0  0  0  0  0  0  0  0  0  0  0
   23.9624  -21.5746  -10.6160 C   0  0  0  0  0  0  0  0  0  0  0  0
   24.4043  -21.4403  -12.0378 C   0  0  0  0  0  0  0  0  0  0  0  0
   24.0620  -20.0288  -12.5404 C   0  0  2  0  0  0  0  0  0  0  0  0
   22.6258  -19.9235  -12.7470 N   0  0  0  0  0  0  0  0  0  0  0  0
   24.7584  -19.7765  -13.8256 C   0  0  0  0  0  0  0  0  0  0  0  0
   24.3350  -20.2764  -14.9183 O   0  0  0  0  0  0  0  0  0  0  0  0
   24.7237  -21.1093   -9.5689 C   0  0  0  0  0  0  0  0  0  0  0  0
   24.2657  -21.2367   -8.2691 C   0  0  0  0  0  0  0  0  0  0  0  0
   25.9359  -18.9597  -13.9038 N   0  0  0  0  0  0  0  0  0  0  0  0
   26.6163  -18.7188  -15.1892 C   0  0  1  0  0  0  0  0  0  0  0  0
   27.4933  -17.4871  -15.0634 C   0  0  0  0  0  0  0  0  0  0  0  0
   28.3472  -17.3048  -16.2470 C   0  0  0  0  0  0  0  0  0  0  0  0
   27.9459  -16.5954  -17.3823 C   0  0  0  0  0  0  0  0  0  0  0  0
   28.7632  -16.4164  -18.4735 C   0  0  0  0  0  0  0  0  0  0  0  0
   30.0260  -16.9403  -18.4823 C   0  0  0  0  0  0  0  0  0  0  0  0
   30.4611  -17.6481  -17.3828 C   0  0  0  0  0  0  0  0  0  0  0  0
   29.6170  -17.8181  -16.2847 C   0  0  0  0  0  0  0  0  0  0  0  0
   27.2982  -19.9388  -15.5700 C   0  0  0  0  0  0  0  0  0  0  0  0
   28.0658  -20.4718  -14.6900 O   0  0  0  0  0  0  0  0  0  0  0  0
   28.3429  -27.0235  -17.3459 N   0  0  0  0  0  0  0  0  0  0  0  0
   27.0224  -26.8747  -16.8527 C   0  0  0  0  0  0  0  0  0  0  0  0
   26.5776  -27.5400  -15.8750 N   0  0  0  0  0  0  0  0  0  0  0  0
   26.1928  -25.9259  -17.5184 N   0  0  0  0  0  0  0  0  0  0  0  0
   26.6702  -25.1177  -18.6200 C   0  0  0  0  0  0  0  0  0  0  0  0
   27.6428  -24.1056  -18.1126 C   0  0  0  0  0  0  0  0  0  0  0  0
   27.0936  -22.8427  -17.6116 C   0  0  0  0  0  0  0  0  0  0  0  0
   28.0360  -21.7797  -17.1349 C   0  0  2  0  0  0  0  0  0  0  0  0
   27.2162  -20.6106  -16.7838 N   0  0  0  0  0  0  0  0  0  0  0  0
   29.1564  -21.4327  -17.9715 C   0  0  0  0  0  0  0  0  0  0  0  0
   29.0400  -20.7913  -19.0537 O   0  0  0  0  0  0  0  0  0  0  0  0
   30.5062  -21.7617  -17.6842 O   0  0  0  0  0  0  0  0  0  0  0  0
  2 12  2  0
  2  1  1  0
  3  2  1  0
  4  5  1  0
  4  3  2  0
  5 11  2  0
  6  5  1  0
  7  6  1  0
  7  8  1  6
  9  7  1  0
  9 10  2  0
 11 12  1  0
 13  9  1  0
 14 13  1  0
 14 22  1  0
 14 15  1  1
 16 17  2  0
 16 15  1  0
 18 17  1  0
 19 18  2  0
 20 19  1  0
 20 21  2  0
 21 16  1  0
 22 32  1  0
 22 23  2  0
 25 24  1  0
 25 27  1  0
 26 25  2  0
 27 28  1  0
 29 28  1  0
 29 30  1  0
 31 30  1  6
 31 33  1  0
 32 31  1  0
 33 35  1  0
 34 33  2  0
M  END
$$$$
