LSL.pdb
     RDKit          3D

 23 22  0  0  1  0  0  0  0  0999 V2000
   27.7426  -15.4954  -16.7462 C   0  0  0  0  0  0  0  0  0  0  0  0
   26.4521  -15.1050  -16.0060 C   0  0  2  0  0  0  0  0  0  0  0  0
   26.6859  -13.8287  -15.2366 C   0  0  0  0  0  0  0  0  0  0  0  0
   26.1285  -16.2487  -15.1100 C   0  0  0  0  0  0  0  0  0  0  0  0
   26.0081  -17.5813  -15.7798 C   0  0  2  0  0  0  0  0  0  0  0  0
   24.9011  -17.5396  -16.7107 N   0  0  0  0  0  0  0  0  0  0  0  0
   25.7309  -18.6624  -14.7810 C   0  0  0  0  0  0  0  0  0  0  0  0
   24.6852  -18.6156  -14.0535 O   0  0  0  0  0  0  0  0  0  0  0  0
   28.4144  -21.7804  -14.2080 O   0  0  0  0  0  0  0  0  0  0  0  0
   27.0548  -22.0667  -14.1395 C   0  0  0  0  0  0  0  0  0  0  0  0
   26.2492  -20.8919  -13.6865 C   0  0  2  0  0  0  0  0  0  0  0  0
   26.5810  -19.7772  -14.5788 N   0  0  0  0  0  0  0  0  0  0  0  0
   26.3996  -20.4952  -12.3009 C   0  0  0  0  0  0  0  0  0  0  0  0
   27.4707  -19.9223  -11.9470 O   0  0  0  0  0  0  0  0  0  0  0  0
   27.1149  -18.4413   -7.5382 C   0  0  0  0  0  0  0  0  0  0  0  0
   26.6988  -19.8723   -7.9245 C   0  0  2  0  0  0  0  0  0  0  0  0
   27.8884  -20.7315   -7.5129 C   0  0  0  0  0  0  0  0  0  0  0  0
   26.4603  -19.8550   -9.3922 C   0  0  0  0  0  0  0  0  0  0  0  0
   25.6596  -20.9856   -9.9442 C   0  0  2  0  0  0  0  0  0  0  0  0
   25.3879  -20.7301  -11.3431 N   0  0  0  0  0  0  0  0  0  0  0  0
   24.4120  -21.2854   -9.2413 C   0  0  0  0  0  0  0  0  0  0  0  0
   24.3527  -21.7598   -7.9376 O   0  0  0  0  0  0  0  0  0  0  0  0
   23.3094  -21.1147   -9.8202 O   0  0  0  0  0  0  0  0  0  0  0  0
  2  1  1  1
  2  3  1  0
  4  2  1  0
  4  5  1  0
  5  7  1  0
  5  6  1  6
  7  8  2  0
  9 10  1  0
 11 10  1  6
 12 11  1  0
 12  7  1  0
 13 11  1  0
 14 13  2  0
 16 15  1  6
 16 17  1  0
 18 16  1  0
 19 20  1  0
 19 18  1  1
 20 13  1  0
 21 19  1  0
 22 21  1  0
 23 21  2  0
M  END
$$$$
