LSL.pdb
     RDKit          3D

 23 22  0  0  1  0  0  0  0  0999 V2000
   14.7660  -12.0479   -9.2785 C   0  0  0  0  0  0  0  0  0  0  0  0
   13.8903  -11.5578  -10.4442 C   0  0  2  0  0  0  0  0  0  0  0  0
   14.0180  -12.5178  -11.6008 C   0  0  0  0  0  0  0  0  0  0  0  0
   14.3851  -10.1967  -10.7879 C   0  0  0  0  0  0  0  0  0  0  0  0
   14.1564   -9.1439   -9.7495 C   0  0  2  0  0  0  0  0  0  0  0  0
   12.7319   -8.9776   -9.5564 N   0  0  0  0  0  0  0  0  0  0  0  0
   14.7200   -7.8266  -10.1855 C   0  0  0  0  0  0  0  0  0  0  0  0
   14.2524   -7.2332  -11.2123 O   0  0  0  0  0  0  0  0  0  0  0  0
   16.5061   -5.2600   -7.6666 O   0  0  0  0  0  0  0  0  0  0  0  0
   16.0574   -4.8782   -8.9269 C   0  0  0  0  0  0  0  0  0  0  0  0
   16.3604   -5.9028   -9.9720 C   0  0  2  0  0  0  0  0  0  0  0  0
   15.7773   -7.1668   -9.5124 N   0  0  0  0  0  0  0  0  0  0  0  0
   17.7552   -6.0842  -10.3204 C   0  0  0  0  0  0  0  0  0  0  0  0
   18.4322   -6.9435   -9.6848 O   0  0  0  0  0  0  0  0  0  0  0  0
   21.3539   -6.8039  -14.1024 C   0  0  0  0  0  0  0  0  0  0  0  0
   21.3059   -7.2980  -12.6451 C   0  0  2  0  0  0  0  0  0  0  0  0
   21.5388   -8.8004  -12.7518 C   0  0  0  0  0  0  0  0  0  0  0  0
   19.9572   -6.9429  -12.1290 C   0  0  0  0  0  0  0  0  0  0  0  0
   19.7513   -5.5161  -11.7471 C   0  0  2  0  0  0  0  0  0  0  0  0
   18.3729   -5.3317  -11.3442 N   0  0  0  0  0  0  0  0  0  0  0  0
   20.1098   -4.5265  -12.7632 C   0  0  0  0  0  0  0  0  0  0  0  0
   21.3901   -4.0150  -12.9279 O   0  0  0  0  0  0  0  0  0  0  0  0
   19.2329   -4.0915  -13.5517 O   0  0  0  0  0  0  0  0  0  0  0  0
  2  1  1  1
  2  3  1  0
  4  2  1  0
  4  5  1  0
  5  7  1  0
  5  6  1  6
  7  8  2  0
  9 10  1  0
 11 10  1  1
 12 11  1  0
 12  7  1  0
 13 11  1  0
 14 13  2  0
 16 15  1  6
 16 17  1  0
 18 16  1  0
 19 20  1  0
 19 18  1  6
 20 13  1  0
 21 19  1  0
 22 21  1  0
 23 21  2  0
M  END
$$$$
