LSL.pdb
     RDKit          3D

 23 22  0  0  1  0  0  0  0  0999 V2000
   16.9578  -12.1460  -19.4407 C   0  0  0  0  0  0  0  0  0  0  0  0
   16.0026  -11.7847  -18.2906 C   0  0  2  0  0  0  0  0  0  0  0  0
   14.6181  -11.5588  -18.8455 C   0  0  0  0  0  0  0  0  0  0  0  0
   16.5613  -10.5574  -17.6605 C   0  0  0  0  0  0  0  0  0  0  0  0
   17.9362  -10.6938  -17.0858 C   0  0  2  0  0  0  0  0  0  0  0  0
   17.9347  -11.7689  -16.1173 N   0  0  0  0  0  0  0  0  0  0  0  0
   18.3520   -9.4390  -16.3818 C   0  0  0  0  0  0  0  0  0  0  0  0
   18.4453   -8.3408  -17.0224 O   0  0  0  0  0  0  0  0  0  0  0  0
   19.3164   -9.3886  -12.2766 O   0  0  0  0  0  0  0  0  0  0  0  0
   18.6799   -8.3080  -12.8786 C   0  0  0  0  0  0  0  0  0  0  0  0
   19.0634   -8.1512  -14.3147 C   0  0  2  0  0  0  0  0  0  0  0  0
   18.6616   -9.3828  -15.0008 N   0  0  0  0  0  0  0  0  0  0  0  0
   20.4540   -7.8486  -14.5876 C   0  0  0  0  0  0  0  0  0  0  0  0
   20.9405   -6.7720  -14.1349 O   0  0  0  0  0  0  0  0  0  0  0  0
   25.4421  -10.9713  -15.4168 C   0  0  0  0  0  0  0  0  0  0  0  0
   24.9502   -9.5124  -15.4118 C   0  0  2  0  0  0  0  0  0  0  0  0
   25.7848   -8.8400  -14.3284 C   0  0  0  0  0  0  0  0  0  0  0  0
   23.4982   -9.5635  -15.0949 C   0  0  0  0  0  0  0  0  0  0  0  0
   22.6657   -8.4487  -15.6319 C   0  0  2  0  0  0  0  0  0  0  0  0
   21.2736   -8.7191  -15.3403 N   0  0  0  0  0  0  0  0  0  0  0  0
   22.8293   -8.1609  -17.0569 C   0  0  0  0  0  0  0  0  0  0  0  0
   23.7259   -7.2278  -17.5603 O   0  0  0  0  0  0  0  0  0  0  0  0
   22.1344   -8.7760  -17.9047 O   0  0  0  0  0  0  0  0  0  0  0  0
  2  1  1  6
  2  3  1  0
  4  2  1  0
  4  5  1  0
  5  7  1  0
  5  6  1  1
  7  8  2  0
  9 10  1  0
 11 10  1  1
 12 11  1  0
 12  7  1  0
 13 11  1  0
 14 13  2  0
 16 15  1  1
 16 17  1  0
 18 16  1  0
 19 20  1  0
 19 18  1  6
 20 13  1  0
 21 19  1  0
 22 21  1  0
 23 21  2  0
M  END
$$$$
