LSL.pdb
     RDKit          3D

 23 22  0  0  1  0  0  0  0  0999 V2000
   18.6354  -12.0723  -20.8537 C   0  0  0  0  0  0  0  0  0  0  0  0
   19.0614  -13.0642  -19.7581 C   0  0  2  0  0  0  0  0  0  0  0  0
   18.0440  -14.1744  -19.6685 C   0  0  0  0  0  0  0  0  0  0  0  0
   19.1442  -12.2763  -18.4979 C   0  0  0  0  0  0  0  0  0  0  0  0
   20.1289  -11.1496  -18.5029 C   0  0  2  0  0  0  0  0  0  0  0  0
   21.4595  -11.6910  -18.6774 N   0  0  0  0  0  0  0  0  0  0  0  0
   20.1005  -10.4045  -17.2040 C   0  0  0  0  0  0  0  0  0  0  0  0
   18.9952   -9.9922  -16.7211 O   0  0  0  0  0  0  0  0  0  0  0  0
   23.3695  -10.2255  -14.5602 O   0  0  0  0  0  0  0  0  0  0  0  0
   22.0323  -10.1110  -14.1940 C   0  0  0  0  0  0  0  0  0  0  0  0
   21.2326   -9.3434  -15.1966 C   0  0  2  0  0  0  0  0  0  0  0  0
   21.2596  -10.1132  -16.4438 N   0  0  0  0  0  0  0  0  0  0  0  0
   21.6346   -7.9722  -15.4375 C   0  0  0  0  0  0  0  0  0  0  0  0
   22.3987   -7.7272  -16.4156 O   0  0  0  0  0  0  0  0  0  0  0  0
   19.4992   -2.5976  -15.8596 C   0  0  0  0  0  0  0  0  0  0  0  0
   20.8342   -3.2680  -15.4874 C   0  0  2  0  0  0  0  0  0  0  0  0
   21.7130   -3.0584  -16.7148 C   0  0  0  0  0  0  0  0  0  0  0  0
   20.5223   -4.6970  -15.2193 C   0  0  0  0  0  0  0  0  0  0  0  0
   21.6596   -5.5463  -14.7617 C   0  0  2  0  0  0  0  0  0  0  0  0
   21.1978   -6.9105  -14.6141 N   0  0  0  0  0  0  0  0  0  0  0  0
   22.3263   -5.1107  -13.5344 C   0  0  0  0  0  0  0  0  0  0  0  0
   22.2714   -5.8074  -12.3345 O   0  0  0  0  0  0  0  0  0  0  0  0
   22.9980   -4.0483  -13.5288 O   0  0  0  0  0  0  0  0  0  0  0  0
  2  1  1  6
  2  3  1  0
  4  2  1  0
  4  5  1  0
  5  7  1  0
  5  6  1  1
  7  8  2  0
  9 10  1  0
 11 10  1  1
 12 11  1  0
 12  7  1  0
 13 11  1  0
 14 13  2  0
 16 15  1  6
 16 17  1  0
 18 16  1  0
 19 20  1  0
 19 18  1  1
 20 13  1  0
 21 19  1  0
 22 21  1  0
 23 21  2  0
M  END
$$$$
