LSL.pdb
     RDKit          3D

 23 22  0  0  1  0  0  0  0  0999 V2000
   31.7406   -8.2580  -19.5826 C   0  0  0  0  0  0  0  0  0  0  0  0
   31.5002   -9.6503  -18.9747 C   0  0  2  0  0  0  0  0  0  0  0  0
   30.2633   -9.6101  -18.1121 C   0  0  0  0  0  0  0  0  0  0  0  0
   32.7220   -9.9736  -18.1883 C   0  0  0  0  0  0  0  0  0  0  0  0
   33.9987  -10.0213  -18.9672 C   0  0  2  0  0  0  0  0  0  0  0  0
   33.9802  -11.1852  -19.8267 N   0  0  0  0  0  0  0  0  0  0  0  0
   35.1811  -10.1395  -18.0555 C   0  0  0  0  0  0  0  0  0  0  0  0
   35.5652  -11.2827  -17.6424 O   0  0  0  0  0  0  0  0  0  0  0  0
   38.1494   -7.0734  -17.4713 O   0  0  0  0  0  0  0  0  0  0  0  0
   38.2419   -8.4579  -17.5703 C   0  0  0  0  0  0  0  0  0  0  0  0
   37.1603   -9.1551  -16.8100 C   0  0  2  0  0  0  0  0  0  0  0  0
   35.9326   -9.0282  -17.6011 N   0  0  0  0  0  0  0  0  0  0  0  0
   36.9344   -8.7147  -15.4481 C   0  0  0  0  0  0  0  0  0  0  0  0
   35.9983   -7.8938  -15.2236 O   0  0  0  0  0  0  0  0  0  0  0  0
   36.2295  -11.0994  -11.8663 C   0  0  0  0  0  0  0  0  0  0  0  0
   37.7168  -11.0723  -12.2629 C   0  0  2  0  0  0  0  0  0  0  0  0
   38.3770  -12.0578  -11.3061 C   0  0  0  0  0  0  0  0  0  0  0  0
   38.1724   -9.6692  -12.0755 C   0  0  0  0  0  0  0  0  0  0  0  0
   37.6158   -8.6621  -13.0242 C   0  0  2  0  0  0  0  0  0  0  0  0
   37.7272   -9.1756  -14.3733 N   0  0  0  0  0  0  0  0  0  0  0  0
   38.2036   -7.3244  -12.9504 C   0  0  0  0  0  0  0  0  0  0  0  0
   38.9862   -6.7664  -13.9525 O   0  0  0  0  0  0  0  0  0  0  0  0
   38.0093   -6.6092  -11.9352 O   0  0  0  0  0  0  0  0  0  0  0  0
  2  1  1  1
  2  3  1  0
  4  2  1  0
  4  5  1  0
  5  7  1  0
  5  6  1  6
  7  8  2  0
  9 10  1  0
 11 10  1  6
 12 11  1  0
 12  7  1  0
 13 11  1  0
 14 13  2  0
 16 15  1  1
 16 17  1  0
 18 16  1  0
 19 20  1  0
 19 18  1  1
 20 13  1  0
 21 19  1  0
 22 21  1  0
 23 21  2  0
M  END
$$$$
