LSL.pdb
     RDKit          3D

 23 22  0  0  1  0  0  0  0  0999 V2000
   29.2917  -19.3354  -19.7250 C   0  0  0  0  0  0  0  0  0  0  0  0
   28.1841  -18.3003  -19.9850 C   0  0  2  0  0  0  0  0  0  0  0  0
   28.7574  -17.1424  -20.7636 C   0  0  0  0  0  0  0  0  0  0  0  0
   27.6862  -17.8837  -18.6455 C   0  0  0  0  0  0  0  0  0  0  0  0
   27.3663  -18.9977  -17.6991 C   0  0  2  0  0  0  0  0  0  0  0  0
   26.7148  -20.0622  -18.4314 N   0  0  0  0  0  0  0  0  0  0  0  0
   26.4313  -18.5379  -16.6233 C   0  0  0  0  0  0  0  0  0  0  0  0
   26.7150  -17.5166  -15.9153 O   0  0  0  0  0  0  0  0  0  0  0  0
   21.9485  -18.0212  -15.3167 O   0  0  0  0  0  0  0  0  0  0  0  0
   23.1077  -18.0874  -16.0829 C   0  0  0  0  0  0  0  0  0  0  0  0
   24.2538  -18.6804  -15.3287 C   0  0  2  0  0  0  0  0  0  0  0  0
   25.2059  -19.1822  -16.3241 N   0  0  0  0  0  0  0  0  0  0  0  0
   23.9336  -19.7148  -14.3658 C   0  0  0  0  0  0  0  0  0  0  0  0
   23.7733  -20.8997  -14.7793 O   0  0  0  0  0  0  0  0  0  0  0  0
   22.6009  -21.0667   -9.0971 C   0  0  0  0  0  0  0  0  0  0  0  0
   24.0222  -21.1956   -9.6747 C   0  0  2  0  0  0  0  0  0  0  0  0
   24.9353  -20.9493   -8.4796 C   0  0  0  0  0  0  0  0  0  0  0  0
   24.1378  -20.1568  -10.7325 C   0  0  0  0  0  0  0  0  0  0  0  0
   23.4141  -20.4298  -12.0076 C   0  0  2  0  0  0  0  0  0  0  0  0
   23.7973  -19.4354  -12.9876 N   0  0  0  0  0  0  0  0  0  0  0  0
   21.9558  -20.4972  -11.9105 C   0  0  0  0  0  0  0  0  0  0  0  0
   21.1190  -19.3982  -12.0518 O   0  0  0  0  0  0  0  0  0  0  0  0
   21.3924  -21.5984  -11.6875 O   0  0  0  0  0  0  0  0  0  0  0  0
  2  1  1  1
  2  3  1  0
  4  2  1  0
  4  5  1  0
  5  7  1  0
  5  6  1  6
  7  8  2  0
  9 10  1  0
 11 10  1  6
 12 11  1  0
 12  7  1  0
 13 11  1  0
 14 13  2  0
 16 15  1  1
 16 17  1  0
 18 16  1  0
 19 20  1  0
 19 18  1  1
 20 13  1  0
 21 19  1  0
 22 21  1  0
 23 21  2  0
M  END
$$$$
