LSL.pdb
     RDKit          3D

 23 22  0  0  1  0  0  0  0  0999 V2000
   22.4148  -17.3064  -15.4889 C   0  0  0  0  0  0  0  0  0  0  0  0
   22.1817  -18.7801  -15.8622 C   0  0  2  0  0  0  0  0  0  0  0  0
   20.7023  -19.0237  -16.0287 C   0  0  0  0  0  0  0  0  0  0  0  0
   22.7608  -19.5837  -14.7511 C   0  0  0  0  0  0  0  0  0  0  0  0
   24.2078  -19.3370  -14.4603 C   0  0  2  0  0  0  0  0  0  0  0  0
   24.9740  -19.5675  -15.6659 N   0  0  0  0  0  0  0  0  0  0  0  0
   24.7121  -20.2743  -13.4066 C   0  0  0  0  0  0  0  0  0  0  0  0
   23.9000  -20.8341  -12.5991 O   0  0  0  0  0  0  0  0  0  0  0  0
   28.5588  -21.4014  -13.5098 O   0  0  0  0  0  0  0  0  0  0  0  0
   27.7538  -22.2021  -12.7060 C   0  0  0  0  0  0  0  0  0  0  0  0
   26.5780  -21.4583  -12.1599 C   0  0  2  0  0  0  0  0  0  0  0  0
   26.0810  -20.5959  -13.2361 N   0  0  0  0  0  0  0  0  0  0  0  0
   26.7990  -20.6876  -10.9528 C   0  0  0  0  0  0  0  0  0  0  0  0
   27.9631  -20.2524  -10.7158 O   0  0  0  0  0  0  0  0  0  0  0  0
   28.2558  -20.7826   -6.9484 C   0  0  0  0  0  0  0  0  0  0  0  0
   27.8037  -19.5376   -7.7332 C   0  0  2  0  0  0  0  0  0  0  0  0
   28.2684  -18.3662   -6.8760 C   0  0  0  0  0  0  0  0  0  0  0  0
   26.3246  -19.6345   -7.8521 C   0  0  0  0  0  0  0  0  0  0  0  0
   25.7999  -20.7847   -8.6431 C   0  0  2  0  0  0  0  0  0  0  0  0
   25.7552  -20.4121  -10.0414 N   0  0  0  0  0  0  0  0  0  0  0  0
   24.4981  -21.3047   -8.2244 C   0  0  0  0  0  0  0  0  0  0  0  0
   24.2705  -21.9325   -7.0070 O   0  0  0  0  0  0  0  0  0  0  0  0
   23.5042  -21.1936   -8.9857 O   0  0  0  0  0  0  0  0  0  0  0  0
  2  1  1  1
  2  3  1  0
  4  2  1  0
  4  5  1  0
  5  7  1  0
  5  6  1  6
  7  8  2  0
  9 10  1  0
 11 10  1  6
 12 11  1  0
 12  7  1  0
 13 11  1  0
 14 13  2  0
 16 15  1  1
 16 17  1  0
 18 16  1  0
 19 20  1  0
 19 18  1  1
 20 13  1  0
 21 19  1  0
 22 21  1  0
 23 21  2  0
M  END
$$$$
