LSL.pdb
     RDKit          3D

 23 22  0  0  1  0  0  0  0  0999 V2000
   16.3242   -9.6115  -19.8010 C   0  0  0  0  0  0  0  0  0  0  0  0
   17.5526  -10.4250  -19.3594 C   0  0  2  0  0  0  0  0  0  0  0  0
   17.4054  -11.8482  -19.8375 C   0  0  0  0  0  0  0  0  0  0  0  0
   17.5956  -10.3339  -17.8744 C   0  0  0  0  0  0  0  0  0  0  0  0
   18.7385  -11.0404  -17.2158 C   0  0  2  0  0  0  0  0  0  0  0  0
   18.2617  -12.2905  -16.6646 N   0  0  0  0  0  0  0  0  0  0  0  0
   19.2996  -10.2246  -16.0920 C   0  0  0  0  0  0  0  0  0  0  0  0
   18.6312  -10.0584  -15.0194 O   0  0  0  0  0  0  0  0  0  0  0  0
   23.3105   -9.7543  -15.6194 O   0  0  0  0  0  0  0  0  0  0  0  0
   22.3773   -9.6608  -14.5920 C   0  0  0  0  0  0  0  0  0  0  0  0
   21.1611   -8.8924  -14.9977 C   0  0  2  0  0  0  0  0  0  0  0  0
   20.5699   -9.5996  -16.1376 N   0  0  0  0  0  0  0  0  0  0  0  0
   21.3521   -7.4911  -15.3133 C   0  0  0  0  0  0  0  0  0  0  0  0
   21.6414   -7.1713  -16.5026 O   0  0  0  0  0  0  0  0  0  0  0  0
   18.7877   -2.3516  -14.5401 C   0  0  0  0  0  0  0  0  0  0  0  0
   20.2091   -2.8860  -14.7938 C   0  0  2  0  0  0  0  0  0  0  0  0
   20.4790   -2.5511  -16.2559 C   0  0  0  0  0  0  0  0  0  0  0  0
   20.1600   -4.3468  -14.5200 C   0  0  0  0  0  0  0  0  0  0  0  0
   21.4574   -5.0776  -14.6017 C   0  0  2  0  0  0  0  0  0  0  0  0
   21.2239   -6.4811  -14.3337 N   0  0  0  0  0  0  0  0  0  0  0  0
   22.5263   -4.5766  -13.7373 C   0  0  0  0  0  0  0  0  0  0  0  0
   23.4417   -3.6059  -14.1217 O   0  0  0  0  0  0  0  0  0  0  0  0
   22.6533   -5.0282  -12.5712 O   0  0  0  0  0  0  0  0  0  0  0  0
  2  1  1  1
  2  3  1  0
  4  2  1  0
  4  5  1  0
  5  7  1  0
  5  6  1  1
  7  8  2  0
  9 10  1  0
 11 10  1  6
 12 11  1  0
 12  7  1  0
 13 11  1  0
 14 13  2  0
 16 15  1  6
 16 17  1  0
 18 16  1  0
 19 20  1  0
 19 18  1  1
 20 13  1  0
 21 19  1  0
 22 21  1  0
 23 21  2  0
M  END
$$$$
