LSL.pdb
     RDKit          3D

 23 22  0  0  1  0  0  0  0  0999 V2000
   25.7965  -26.2187  -17.7957 C   0  0  0  0  0  0  0  0  0  0  0  0
   27.2613  -26.4638  -17.3957 C   0  0  2  0  0  0  0  0  0  0  0  0
   27.3641  -27.7784  -16.6630 C   0  0  0  0  0  0  0  0  0  0  0  0
   27.6531  -25.3119  -16.5384 C   0  0  0  0  0  0  0  0  0  0  0  0
   27.5783  -23.9664  -17.1889 C   0  0  2  0  0  0  0  0  0  0  0  0
   28.6717  -23.8385  -18.1281 N   0  0  0  0  0  0  0  0  0  0  0  0
   27.7094  -22.8710  -16.1760 C   0  0  0  0  0  0  0  0  0  0  0  0
   28.8426  -22.6055  -15.6562 O   0  0  0  0  0  0  0  0  0  0  0  0
   26.4190  -18.6298  -14.5942 O   0  0  0  0  0  0  0  0  0  0  0  0
   26.3527  -19.7328  -15.4392 C   0  0  0  0  0  0  0  0  0  0  0  0
   26.7564  -20.9983  -14.7539 C   0  0  2  0  0  0  0  0  0  0  0  0
   26.6213  -22.0777  -15.7366 N   0  0  0  0  0  0  0  0  0  0  0  0
   26.0497  -21.3313  -13.5335 C   0  0  0  0  0  0  0  0  0  0  0  0
   25.0392  -22.0891  -13.6055 O   0  0  0  0  0  0  0  0  0  0  0  0
   26.6248  -19.5718   -7.6528 C   0  0  0  0  0  0  0  0  0  0  0  0
   25.6703  -20.2698   -8.6387 C   0  0  2  0  0  0  0  0  0  0  0  0
   25.3995  -21.6267   -7.9998 C   0  0  0  0  0  0  0  0  0  0  0  0
   26.3993  -20.3590   -9.9318 C   0  0  0  0  0  0  0  0  0  0  0  0
   25.6172  -20.8637  -11.0970 C   0  0  2  0  0  0  0  0  0  0  0  0
   26.4580  -20.8351  -12.2753 N   0  0  0  0  0  0  0  0  0  0  0  0
   24.3575  -20.1704  -11.3671 C   0  0  0  0  0  0  0  0  0  0  0  0
   23.1096  -20.6664  -11.0138 O   0  0  0  0  0  0  0  0  0  0  0  0
   24.3671  -19.0574  -11.9512 O   0  0  0  0  0  0  0  0  0  0  0  0
  2  1  1  1
  2  3  1  0
  4  2  1  0
  4  5  1  0
  5  7  1  0
  5  6  1  6
  7  8  2  0
  9 10  1  0
 11 10  1  6
 12 11  1  0
 12  7  1  0
 13 11  1  0
 14 13  2  0
 16 15  1  1
 16 17  1  0
 18 16  1  0
 19 20  1  0
 19 18  1  1
 20 13  1  0
 21 19  1  0
 22 21  1  0
 23 21  2  0
M  END
$$$$
