LSL.pdb
     RDKit          3D

 23 22  0  0  1  0  0  0  0  0999 V2000
   20.6578  -18.5038  -14.7377 C   0  0  0  0  0  0  0  0  0  0  0  0
   21.8474  -18.4420  -15.7106 C   0  0  2  0  0  0  0  0  0  0  0  0
   23.0722  -19.0083  -15.0362 C   0  0  0  0  0  0  0  0  0  0  0  0
   22.0159  -17.0063  -16.0654 C   0  0  0  0  0  0  0  0  0  0  0  0
   20.8435  -16.3642  -16.7378 C   0  0  2  0  0  0  0  0  0  0  0  0
   20.5597  -17.0758  -17.9654 N   0  0  0  0  0  0  0  0  0  0  0  0
   21.1388  -14.9384  -17.0885 C   0  0  0  0  0  0  0  0  0  0  0  0
   22.2862  -14.6085  -17.5352 O   0  0  0  0  0  0  0  0  0  0  0  0
   18.4164  -11.6689  -16.4494 O   0  0  0  0  0  0  0  0  0  0  0  0
   19.1373  -11.8668  -17.6226 C   0  0  0  0  0  0  0  0  0  0  0  0
   20.4635  -12.5093  -17.3727 C   0  0  2  0  0  0  0  0  0  0  0  0
   20.1974  -13.8887  -16.9539 N   0  0  0  0  0  0  0  0  0  0  0  0
   21.3373  -11.8500  -16.4231 C   0  0  0  0  0  0  0  0  0  0  0  0
   21.2909  -12.2037  -15.2094 O   0  0  0  0  0  0  0  0  0  0  0  0
   25.9583   -8.8669  -15.7224 C   0  0  0  0  0  0  0  0  0  0  0  0
   25.4582  -10.1340  -15.0051 C   0  0  2  0  0  0  0  0  0  0  0  0
   26.7101  -10.9865  -14.8357 C   0  0  0  0  0  0  0  0  0  0  0  0
   24.4414  -10.7461  -15.9011 C   0  0  0  0  0  0  0  0  0  0  0  0
   23.0878  -10.1203  -15.8881 C   0  0  2  0  0  0  0  0  0  0  0  0
   22.2328  -10.8304  -16.8161 N   0  0  0  0  0  0  0  0  0  0  0  0
   23.0466   -8.6855  -16.1711 C   0  0  0  0  0  0  0  0  0  0  0  0
   23.1661   -7.7011  -15.1991 O   0  0  0  0  0  0  0  0  0  0  0  0
   22.8962   -8.2834  -17.3524 O   0  0  0  0  0  0  0  0  0  0  0  0
  2  1  1  1
  2  3  1  0
  4  2  1  0
  4  5  1  0
  5  7  1  0
  5  6  1  6
  7  8  2  0
  9 10  1  0
 11 10  1  1
 12 11  1  0
 12  7  1  0
 13 11  1  0
 14 13  2  0
 16 15  1  6
 16 17  1  0
 18 16  1  0
 19 20  1  0
 19 18  1  6
 20 13  1  0
 21 19  1  0
 22 21  1  0
 23 21  2  0
M  END
$$$$
