QDH.pdb
     RDKit          3D

 28 28  0  0  1  0  0  0  0  0999 V2000
    9.1346  -12.7847   18.3202 N   0  0  0  0  0  0  0  0  0  0  0  0
    8.3618  -13.4250   17.3204 C   0  0  0  0  0  0  0  0  0  0  0  0
    8.3179  -12.9588   16.1639 O   0  0  0  0  0  0  0  0  0  0  0  0
    7.6049  -14.6501   17.6494 C   0  0  0  0  0  0  0  0  0  0  0  0
    7.9086  -15.0574   19.0626 C   0  0  0  0  0  0  0  0  0  0  0  0
    8.9341  -16.1757   19.1024 C   0  0  2  0  0  0  0  0  0  0  0  0
    8.5567  -17.2946   18.2986 N   0  0  0  0  0  0  0  0  0  0  0  0
    9.1348  -16.5409   20.5338 C   0  0  0  0  0  0  0  0  0  0  0  0
    8.2094  -16.5060   21.3591 O   0  0  0  0  0  0  0  0  0  0  0  0
   10.3909  -16.9531   21.0564 N   0  0  0  0  0  0  0  0  0  0  0  0
   10.6297  -17.3470   22.3783 C   0  0  1  0  0  0  0  0  0  0  0  0
   11.9304  -17.9373   22.7433 C   0  0  0  0  0  0  0  0  0  0  0  0
   12.3146  -19.1026   21.9035 C   0  0  0  0  0  0  0  0  0  0  0  0
   13.3277  -19.1362   21.1666 O   0  0  0  0  0  0  0  0  0  0  0  0
   10.3881  -16.1968   23.2877 C   0  0  0  0  0  0  0  0  0  0  0  0
   10.9659  -15.0862   23.1705 O   0  0  0  0  0  0  0  0  0  0  0  0
   11.5007  -20.2251   21.9368 O   0  0  0  0  0  0  0  0  0  0  0  0
    9.4567  -16.3607   24.3433 N   0  0  0  0  0  0  0  0  0  0  0  0
    9.1193  -15.2344   25.1918 C   0  0  1  0  0  0  0  0  0  0  0  0
    7.6311  -14.9685   25.0781 C   0  0  0  0  0  0  0  0  0  0  0  0
    7.2248  -13.7973   25.8721 C   0  0  0  0  0  0  0  0  0  0  0  0
    8.0699  -12.9914   26.6091 C   0  0  0  0  0  0  0  0  0  0  0  0
    7.3416  -12.0206   27.2009 N   0  0  0  0  0  0  0  0  0  0  0  0
    6.0565  -12.1987   26.8519 C   0  0  0  0  0  0  0  0  0  0  0  0
    5.9924  -13.2879   26.0386 N   0  0  0  0  0  0  0  0  0  0  0  0
    9.4900  -15.5169   26.6030 C   0  0  0  0  0  0  0  0  0  0  0  0
    9.4615  -14.5968   27.4609 O   0  0  0  0  0  0  0  0  0  0  0  0
    9.8649  -16.7968   26.9612 O   0  0  0  0  0  0  0  0  0  0  0  0
  2  3  2  0
  2  1  1  0
  4  2  1  0
  5  4  1  0
  5  6  1  0
  6  8  1  0
  6  7  1  6
  8  9  2  0
 10 11  1  0
 10  8  1  0
 11 12  1  6
 13 12  1  0
 14 13  2  0
 15 18  1  0
 15 11  1  0
 16 15  2  0
 17 13  1  0
 19 18  1  0
 19 20  1  1
 21 20  1  0
 22 21  2  0
 23 22  1  0
 24 23  1  0
 24 25  2  0
 25 21  1  0
 26 28  1  0
 26 19  1  0
 27 26  2  0
M  END
$$$$
