QDH.pdb
     RDKit          3D

 28 28  0  0  1  0  0  0  0  0999 V2000
    8.1946  -12.5885   17.8258 N   0  0  0  0  0  0  0  0  0  0  0  0
    7.9271  -13.6724   16.9540 C   0  0  0  0  0  0  0  0  0  0  0  0
    7.7620  -13.4726   15.7335 O   0  0  0  0  0  0  0  0  0  0  0  0
    7.8434  -15.0452   17.4929 C   0  0  0  0  0  0  0  0  0  0  0  0
    7.9011  -14.9945   18.9928 C   0  0  0  0  0  0  0  0  0  0  0  0
    9.3352  -15.0415   19.4879 C   0  0  2  0  0  0  0  0  0  0  0  0
   10.2680  -15.3141   18.4410 N   0  0  0  0  0  0  0  0  0  0  0  0
    9.3921  -16.0518   20.5827 C   0  0  0  0  0  0  0  0  0  0  0  0
    8.4081  -16.3117   21.2917 O   0  0  0  0  0  0  0  0  0  0  0  0
   10.5682  -16.7871   20.8941 N   0  0  0  0  0  0  0  0  0  0  0  0
   10.7127  -17.6676   21.9726 C   0  0  1  0  0  0  0  0  0  0  0  0
   11.8605  -18.5919   22.0153 C   0  0  0  0  0  0  0  0  0  0  0  0
   12.0207  -19.4032   20.7797 C   0  0  0  0  0  0  0  0  0  0  0  0
   11.1108  -20.0991   20.2712 O   0  0  0  0  0  0  0  0  0  0  0  0
   10.7100  -16.8969   23.2431 C   0  0  0  0  0  0  0  0  0  0  0  0
   11.6016  -16.0661   23.5528 O   0  0  0  0  0  0  0  0  0  0  0  0
   13.2553  -19.3901   20.1482 O   0  0  0  0  0  0  0  0  0  0  0  0
    9.6454  -17.1097   24.1543 N   0  0  0  0  0  0  0  0  0  0  0  0
    9.6732  -16.4788   25.4596 C   0  0  1  0  0  0  0  0  0  0  0  0
    8.2509  -16.1586   25.8753 C   0  0  0  0  0  0  0  0  0  0  0  0
    7.7096  -15.0123   25.1268 C   0  0  0  0  0  0  0  0  0  0  0  0
    8.3991  -14.2599   24.1965 C   0  0  0  0  0  0  0  0  0  0  0  0
    7.5807  -13.2969   23.7207 N   0  0  0  0  0  0  0  0  0  0  0  0
    6.3915  -13.4277   24.3318 C   0  0  0  0  0  0  0  0  0  0  0  0
    6.4775  -14.4795   25.1911 N   0  0  0  0  0  0  0  0  0  0  0  0
   10.3165  -17.3740   26.4563 C   0  0  0  0  0  0  0  0  0  0  0  0
   10.7039  -18.5224   26.1181 O   0  0  0  0  0  0  0  0  0  0  0  0
   10.4838  -16.9327   27.7541 O   0  0  0  0  0  0  0  0  0  0  0  0
  2  3  2  0
  2  1  1  0
  4  2  1  0
  5  4  1  0
  5  6  1  0
  6  8  1  0
  6  7  1  6
  8  9  2  0
 10 11  1  0
 10  8  1  0
 11 12  1  6
 13 12  1  0
 14 13  2  0
 15 18  1  0
 15 11  1  0
 16 15  2  0
 17 13  1  0
 19 18  1  0
 19 20  1  1
 21 20  1  0
 22 21  2  0
 23 22  1  0
 24 23  1  0
 24 25  2  0
 25 21  1  0
 26 28  1  0
 26 19  1  0
 27 26  2  0
M  END
$$$$
