QDH.pdb
     RDKit          3D

 28 28  0  0  1  0  0  0  0  0999 V2000
    6.9571  -13.7155   14.8382 N   0  0  0  0  0  0  0  0  0  0  0  0
    7.3562  -14.4682   15.9699 C   0  0  0  0  0  0  0  0  0  0  0  0
    7.8447  -15.6075   15.8278 O   0  0  0  0  0  0  0  0  0  0  0  0
    7.1931  -13.9011   17.3241 C   0  0  0  0  0  0  0  0  0  0  0  0
    8.3644  -13.0145   17.6359 C   0  0  0  0  0  0  0  0  0  0  0  0
    9.6678  -13.7908   17.5867 C   0  0  2  0  0  0  0  0  0  0  0  0
    9.6739  -14.7876   16.5636 N   0  0  0  0  0  0  0  0  0  0  0  0
    9.8931  -14.3632   18.9447 C   0  0  0  0  0  0  0  0  0  0  0  0
    9.9838  -13.6486   19.9546 O   0  0  0  0  0  0  0  0  0  0  0  0
   10.0199  -15.7589   19.1828 N   0  0  0  0  0  0  0  0  0  0  0  0
   10.3280  -16.3469   20.4152 C   0  0  1  0  0  0  0  0  0  0  0  0
    9.6610  -17.5988   20.8170 C   0  0  0  0  0  0  0  0  0  0  0  0
    9.9470  -18.0053   22.2183 C   0  0  0  0  0  0  0  0  0  0  0  0
   10.9139  -18.7262   22.5591 O   0  0  0  0  0  0  0  0  0  0  0  0
   11.7943  -16.5719   20.5022 C   0  0  0  0  0  0  0  0  0  0  0  0
   12.4193  -17.3701   19.7583 O   0  0  0  0  0  0  0  0  0  0  0  0
    9.0900  -17.5590   23.2131 O   0  0  0  0  0  0  0  0  0  0  0  0
   12.5273  -15.8481   21.4757 N   0  0  0  0  0  0  0  0  0  0  0  0
   13.9680  -15.9933   21.5523 C   0  0  1  0  0  0  0  0  0  0  0  0
   14.6040  -14.6276   21.3824 C   0  0  0  0  0  0  0  0  0  0  0  0
   14.7139  -14.2506   19.9636 C   0  0  0  0  0  0  0  0  0  0  0  0
   14.3417  -15.0359   18.8905 C   0  0  0  0  0  0  0  0  0  0  0  0
   14.5888  -14.3597   17.7481 N   0  0  0  0  0  0  0  0  0  0  0  0
   15.1084  -13.1661   18.0799 C   0  0  0  0  0  0  0  0  0  0  0  0
   15.1822  -13.1061   19.4374 N   0  0  0  0  0  0  0  0  0  0  0  0
   14.3619  -16.5912   22.8546 C   0  0  0  0  0  0  0  0  0  0  0  0
   13.4858  -16.8682   23.7143 O   0  0  0  0  0  0  0  0  0  0  0  0
   15.6963  -16.8387   23.1099 O   0  0  0  0  0  0  0  0  0  0  0  0
  2  3  2  0
  2  1  1  0
  4  2  1  0
  5  4  1  0
  5  6  1  0
  6  8  1  0
  6  7  1  6
  8  9  2  0
 10 11  1  0
 10  8  1  0
 11 12  1  6
 13 12  1  0
 14 13  2  0
 15 18  1  0
 15 11  1  0
 16 15  2  0
 17 13  1  0
 19 18  1  0
 19 20  1  1
 21 20  1  0
 22 21  2  0
 23 22  1  0
 24 23  1  0
 24 25  2  0
 25 21  1  0
 26 28  1  0
 26 19  1  0
 27 26  2  0
M  END
$$$$
