QDH.pdb
     RDKit          3D

 28 28  0  0  1  0  0  0  0  0999 V2000
    5.7497  -17.4570   14.5372 N   0  0  0  0  0  0  0  0  0  0  0  0
    6.8321  -17.1870   13.6640 C   0  0  0  0  0  0  0  0  0  0  0  0
    6.6256  -16.6738   12.5456 O   0  0  0  0  0  0  0  0  0  0  0  0
    8.2109  -17.5147   14.0802 C   0  0  0  0  0  0  0  0  0  0  0  0
    8.2934  -17.5031   15.5797 C   0  0  0  0  0  0  0  0  0  0  0  0
    9.6193  -16.9342   16.0512 C   0  0  2  0  0  0  0  0  0  0  0  0
   10.7222  -17.3916   15.2670 N   0  0  0  0  0  0  0  0  0  0  0  0
    9.7607  -17.2801   17.4944 C   0  0  0  0  0  0  0  0  0  0  0  0
    8.8416  -17.1020   18.3082 O   0  0  0  0  0  0  0  0  0  0  0  0
   10.9491  -17.8355   18.0422 N   0  0  0  0  0  0  0  0  0  0  0  0
   11.1121  -18.2561   19.3674 C   0  0  1  0  0  0  0  0  0  0  0  0
   12.2634  -19.1020   19.7313 C   0  0  0  0  0  0  0  0  0  0  0  0
   12.3224  -20.3853   18.9827 C   0  0  0  0  0  0  0  0  0  0  0  0
   11.3719  -21.1982   18.9024 O   0  0  0  0  0  0  0  0  0  0  0  0
   11.1253  -17.0709   20.2636 C   0  0  0  0  0  0  0  0  0  0  0  0
   11.9397  -16.1202   20.1451 O   0  0  0  0  0  0  0  0  0  0  0  0
   13.5041  -20.7047   18.3309 O   0  0  0  0  0  0  0  0  0  0  0  0
   10.1688  -17.0089   21.3077 N   0  0  0  0  0  0  0  0  0  0  0  0
   10.1237  -15.8515   22.1799 C   0  0  1  0  0  0  0  0  0  0  0  0
    8.7184  -15.2830   22.1613 C   0  0  0  0  0  0  0  0  0  0  0  0
    8.4387  -14.5630   20.9081 C   0  0  0  0  0  0  0  0  0  0  0  0
    9.3315  -14.3730   19.8719 C   0  0  0  0  0  0  0  0  0  0  0  0
    8.7218  -13.6697   18.8936 N   0  0  0  0  0  0  0  0  0  0  0  0
    7.4648  -13.4135   19.2924 C   0  0  0  0  0  0  0  0  0  0  0  0
    7.2984  -13.9631   20.5262 N   0  0  0  0  0  0  0  0  0  0  0  0
   10.5133  -16.2278   23.5638 C   0  0  0  0  0  0  0  0  0  0  0  0
   10.6416  -17.4396   23.8776 O   0  0  0  0  0  0  0  0  0  0  0  0
   10.7325  -15.2355   24.4990 O   0  0  0  0  0  0  0  0  0  0  0  0
  2  3  2  0
  2  1  1  0
  4  2  1  0
  5  4  1  0
  5  6  1  0
  6  8  1  0
  6  7  1  6
  8  9  2  0
 10 11  1  0
 10  8  1  0
 11 12  1  6
 13 12  1  0
 14 13  2  0
 15 18  1  0
 15 11  1  0
 16 15  2  0
 17 13  1  0
 19 18  1  0
 19 20  1  1
 21 20  1  0
 22 21  2  0
 23 22  1  0
 24 23  1  0
 24 25  2  0
 25 21  1  0
 26 28  1  0
 26 19  1  0
 27 26  2  0
M  END
$$$$
