QDH.pdb
     RDKit          3D

 28 28  0  0  1  0  0  0  0  0999 V2000
    9.0985  -16.8541   14.4128 N   0  0  0  0  0  0  0  0  0  0  0  0
   10.3590  -16.8834   13.7671 C   0  0  0  0  0  0  0  0  0  0  0  0
   10.4359  -16.7410   12.5299 O   0  0  0  0  0  0  0  0  0  0  0  0
   11.5873  -17.0835   14.5627 C   0  0  0  0  0  0  0  0  0  0  0  0
   11.2343  -17.1161   16.0221 C   0  0  0  0  0  0  0  0  0  0  0  0
   11.4615  -18.4968   16.6102 C   0  0  2  0  0  0  0  0  0  0  0  0
   10.5730  -19.4760   16.0696 N   0  0  0  0  0  0  0  0  0  0  0  0
   11.3427  -18.3717   18.0910 C   0  0  0  0  0  0  0  0  0  0  0  0
   10.2569  -18.4944   18.6780 O   0  0  0  0  0  0  0  0  0  0  0  0
   12.4552  -18.1046   18.9347 N   0  0  0  0  0  0  0  0  0  0  0  0
   12.4216  -18.0663   20.3336 C   0  0  1  0  0  0  0  0  0  0  0  0
   13.6812  -18.1145   21.0984 C   0  0  0  0  0  0  0  0  0  0  0  0
   13.4847  -18.2598   22.5649 C   0  0  0  0  0  0  0  0  0  0  0  0
   12.4188  -18.6481   23.0977 O   0  0  0  0  0  0  0  0  0  0  0  0
   11.6735  -16.8614   20.7770 C   0  0  0  0  0  0  0  0  0  0  0  0
   12.0149  -15.6866   20.4864 O   0  0  0  0  0  0  0  0  0  0  0  0
   14.5481  -17.9460   23.3981 O   0  0  0  0  0  0  0  0  0  0  0  0
   10.5133  -17.0464   21.5697 N   0  0  0  0  0  0  0  0  0  0  0  0
    9.7236  -15.8998   21.9751 C   0  0  1  0  0  0  0  0  0  0  0  0
    8.4485  -15.8732   21.1555 C   0  0  0  0  0  0  0  0  0  0  0  0
    8.1068  -14.5079   20.7240 C   0  0  0  0  0  0  0  0  0  0  0  0
    8.8402  -13.3699   20.9963 C   0  0  0  0  0  0  0  0  0  0  0  0
    8.2198  -12.3071   20.4404 N   0  0  0  0  0  0  0  0  0  0  0  0
    7.1120  -12.7524   19.8244 C   0  0  0  0  0  0  0  0  0  0  0  0
    7.0492  -14.1002   20.0020 N   0  0  0  0  0  0  0  0  0  0  0  0
    9.4072  -15.9729   23.4254 C   0  0  0  0  0  0  0  0  0  0  0  0
    8.8275  -15.0126   23.9955 O   0  0  0  0  0  0  0  0  0  0  0  0
    9.7555  -17.1032   24.1382 O   0  0  0  0  0  0  0  0  0  0  0  0
  2  3  2  0
  2  1  1  0
  4  2  1  0
  5  4  1  0
  5  6  1  0
  6  8  1  0
  6  7  1  6
  8  9  2  0
 10 11  1  0
 10  8  1  0
 11 12  1  1
 13 12  1  0
 14 13  2  0
 15 18  1  0
 15 11  1  0
 16 15  2  0
 17 13  1  0
 19 18  1  0
 19 20  1  6
 21 20  1  0
 22 21  2  0
 23 22  1  0
 24 23  1  0
 24 25  2  0
 25 21  1  0
 26 28  1  0
 26 19  1  0
 27 26  2  0
M  END
$$$$
