QDH.pdb
     RDKit          3D

 28 28  0  0  1  0  0  0  0  0999 V2000
    6.7865  -13.0874   16.9148 N   0  0  0  0  0  0  0  0  0  0  0  0
    7.8111  -14.0656   16.9016 C   0  0  0  0  0  0  0  0  0  0  0  0
    7.7427  -15.0382   16.1231 O   0  0  0  0  0  0  0  0  0  0  0  0
    8.9652  -13.9328   17.8139 C   0  0  0  0  0  0  0  0  0  0  0  0
    8.5327  -14.2628   19.2137 C   0  0  0  0  0  0  0  0  0  0  0  0
    9.6988  -14.1791   20.1817 C   0  0  2  0  0  0  0  0  0  0  0  0
   10.9624  -14.1444   19.5164 N   0  0  0  0  0  0  0  0  0  0  0  0
    9.5777  -15.3308   21.1205 C   0  0  0  0  0  0  0  0  0  0  0  0
    8.4911  -15.6661   21.6160 O   0  0  0  0  0  0  0  0  0  0  0  0
   10.6886  -16.1250   21.5153 N   0  0  0  0  0  0  0  0  0  0  0  0
   10.6295  -17.2407   22.3586 C   0  0  1  0  0  0  0  0  0  0  0  0
   11.6862  -18.2665   22.2918 C   0  0  0  0  0  0  0  0  0  0  0  0
   12.9260  -17.8041   21.6138 C   0  0  0  0  0  0  0  0  0  0  0  0
   13.0019  -17.5338   20.3924 O   0  0  0  0  0  0  0  0  0  0  0  0
   10.5326  -16.7879   23.7706 C   0  0  0  0  0  0  0  0  0  0  0  0
   11.3128  -15.9465   24.2848 O   0  0  0  0  0  0  0  0  0  0  0  0
   14.0729  -17.6623   22.3807 O   0  0  0  0  0  0  0  0  0  0  0  0
    9.5057  -17.3336   24.5809 N   0  0  0  0  0  0  0  0  0  0  0  0
    9.4405  -16.9978   25.9900 C   0  0  1  0  0  0  0  0  0  0  0  0
    8.0066  -16.6535   26.3419 C   0  0  0  0  0  0  0  0  0  0  0  0
    7.6494  -15.2945   25.9031 C   0  0  0  0  0  0  0  0  0  0  0  0
    8.5122  -14.3796   25.3325 C   0  0  0  0  0  0  0  0  0  0  0  0
    7.8301  -13.2459   25.0623 N   0  0  0  0  0  0  0  0  0  0  0  0
    6.5571  -13.4283   25.4507 C   0  0  0  0  0  0  0  0  0  0  0  0
    6.4536  -14.6843   25.9643 N   0  0  0  0  0  0  0  0  0  0  0  0
    9.9197  -18.1349   26.8183 C   0  0  0  0  0  0  0  0  0  0  0  0
   10.2435  -19.2220   26.2736 O   0  0  0  0  0  0  0  0  0  0  0  0
   10.0054  -17.9855   28.1885 O   0  0  0  0  0  0  0  0  0  0  0  0
  2  3  2  0
  2  1  1  0
  4  2  1  0
  5  4  1  0
  5  6  1  0
  6  8  1  0
  6  7  1  6
  8  9  2  0
 10 11  1  0
 10  8  1  0
 11 12  1  1
 13 12  1  0
 14 13  2  0
 15 18  1  0
 15 11  1  0
 16 15  2  0
 17 13  1  0
 19 18  1  0
 19 20  1  1
 21 20  1  0
 22 21  2  0
 23 22  1  0
 24 23  1  0
 24 25  2  0
 25 21  1  0
 26 28  1  0
 26 19  1  0
 27 26  2  0
M  END
$$$$
