QDH.pdb
     RDKit          3D

 28 28  0  0  1  0  0  0  0  0999 V2000
    9.0797  -13.0166   17.4068 N   0  0  0  0  0  0  0  0  0  0  0  0
    8.5063  -14.0259   16.5949 C   0  0  0  0  0  0  0  0  0  0  0  0
    8.8239  -14.1222   15.3921 O   0  0  0  0  0  0  0  0  0  0  0  0
    7.5282  -14.9682   17.1755 C   0  0  0  0  0  0  0  0  0  0  0  0
    8.1304  -15.6287   18.3823 C   0  0  0  0  0  0  0  0  0  0  0  0
    9.4298  -16.3305   18.0317 C   0  0  2  0  0  0  0  0  0  0  0  0
    9.2524  -17.3562   17.0534 N   0  0  0  0  0  0  0  0  0  0  0  0
   10.0105  -16.8473   19.3039 C   0  0  0  0  0  0  0  0  0  0  0  0
    9.3213  -17.4318   20.1536 O   0  0  0  0  0  0  0  0  0  0  0  0
   11.3858  -16.7105   19.6363 N   0  0  0  0  0  0  0  0  0  0  0  0
   12.0009  -17.2379   20.7778 C   0  0  1  0  0  0  0  0  0  0  0  0
   13.4720  -17.2768   20.8657 C   0  0  0  0  0  0  0  0  0  0  0  0
   14.1128  -18.0947   19.8021 C   0  0  0  0  0  0  0  0  0  0  0  0
   13.7982  -19.2788   19.5385 O   0  0  0  0  0  0  0  0  0  0  0  0
   11.4982  -16.5278   21.9825 C   0  0  0  0  0  0  0  0  0  0  0  0
   11.8302  -15.3533   22.2848 O   0  0  0  0  0  0  0  0  0  0  0  0
   15.1236  -17.5113   19.0529 O   0  0  0  0  0  0  0  0  0  0  0  0
   10.5963  -17.2110   22.8361 N   0  0  0  0  0  0  0  0  0  0  0  0
   10.1498  -16.5860   24.0659 C   0  0  1  0  0  0  0  0  0  0  0  0
    8.6355  -16.5138   24.0527 C   0  0  0  0  0  0  0  0  0  0  0  0
    8.1464  -15.5090   23.0945 C   0  0  0  0  0  0  0  0  0  0  0  0
    7.2251  -15.7347   22.0908 C   0  0  0  0  0  0  0  0  0  0  0  0
    7.0232  -14.5825   21.4163 N   0  0  0  0  0  0  0  0  0  0  0  0
    7.7977  -13.6372   21.9742 C   0  0  0  0  0  0  0  0  0  0  0  0
    8.4824  -14.2112   23.0007 N   0  0  0  0  0  0  0  0  0  0  0  0
   10.6226  -17.3592   25.2437 C   0  0  0  0  0  0  0  0  0  0  0  0
   11.2425  -18.4422   25.0820 O   0  0  0  0  0  0  0  0  0  0  0  0
   10.3746  -16.8773   26.5138 O   0  0  0  0  0  0  0  0  0  0  0  0
  2  3  2  0
  2  1  1  0
  4  2  1  0
  5  4  1  0
  5  6  1  0
  6  8  1  0
  6  7  1  6
  8  9  2  0
 10 11  1  0
 10  8  1  0
 11 12  1  6
 13 12  1  0
 14 13  2  0
 15 18  1  0
 15 11  1  0
 16 15  2  0
 17 13  1  0
 19 18  1  0
 19 20  1  6
 21 20  1  0
 22 21  2  0
 23 22  1  0
 24 23  1  0
 24 25  2  0
 25 21  1  0
 26 28  1  0
 26 19  1  0
 27 26  2  0
M  END
$$$$
