QDH.pdb
     RDKit          3D

 28 28  0  0  1  0  0  0  0  0999 V2000
    7.4321  -12.6368   19.8938 N   0  0  0  0  0  0  0  0  0  0  0  0
    7.6538  -13.0375   18.5533 C   0  0  0  0  0  0  0  0  0  0  0  0
    7.0587  -12.4642   17.6184 O   0  0  0  0  0  0  0  0  0  0  0  0
    8.5937  -14.1390   18.2617 C   0  0  0  0  0  0  0  0  0  0  0  0
    9.1355  -14.6845   19.5518 C   0  0  0  0  0  0  0  0  0  0  0  0
   10.2050  -15.7312   19.2980 C   0  0  2  0  0  0  0  0  0  0  0  0
    9.9140  -16.5486   18.1632 N   0  0  0  0  0  0  0  0  0  0  0  0
   10.3538  -16.5243   20.5516 C   0  0  0  0  0  0  0  0  0  0  0  0
    9.3747  -16.9019   21.2130 O   0  0  0  0  0  0  0  0  0  0  0  0
   11.6180  -16.9044   21.0791 N   0  0  0  0  0  0  0  0  0  0  0  0
   11.8180  -17.6828   22.2252 C   0  0  1  0  0  0  0  0  0  0  0  0
   12.9744  -18.5942   22.2993 C   0  0  0  0  0  0  0  0  0  0  0  0
   12.9596  -19.6638   21.2666 C   0  0  0  0  0  0  0  0  0  0  0  0
   11.9609  -20.3731   21.0015 O   0  0  0  0  0  0  0  0  0  0  0  0
   11.8652  -16.8002   23.4197 C   0  0  0  0  0  0  0  0  0  0  0  0
   12.7008  -15.8717   23.5639 O   0  0  0  0  0  0  0  0  0  0  0  0
   14.1246  -19.8924   20.5498 O   0  0  0  0  0  0  0  0  0  0  0  0
   10.9177  -17.0166   24.4513 N   0  0  0  0  0  0  0  0  0  0  0  0
   10.9726  -16.2213   25.6625 C   0  0  1  0  0  0  0  0  0  0  0  0
    9.5584  -15.8568   26.0694 C   0  0  0  0  0  0  0  0  0  0  0  0
    9.5331  -15.0949   27.3287 C   0  0  0  0  0  0  0  0  0  0  0  0
    9.5424  -13.7183   27.4375 C   0  0  0  0  0  0  0  0  0  0  0  0
    9.5123  -13.3834   28.7453 N   0  0  0  0  0  0  0  0  0  0  0  0
    9.4842  -14.5198   29.4612 C   0  0  0  0  0  0  0  0  0  0  0  0
    9.4972  -15.5634   28.5878 N   0  0  0  0  0  0  0  0  0  0  0  0
   11.6476  -16.9762   26.7502 C   0  0  0  0  0  0  0  0  0  0  0  0
   11.5491  -18.2294   26.8058 O   0  0  0  0  0  0  0  0  0  0  0  0
   12.3820  -16.2889   27.6965 O   0  0  0  0  0  0  0  0  0  0  0  0
  2  3  2  0
  2  1  1  0
  4  2  1  0
  5  4  1  0
  5  6  1  0
  6  8  1  0
  6  7  1  6
  8  9  2  0
 10 11  1  0
 10  8  1  0
 11 12  1  6
 13 12  1  0
 14 13  2  0
 15 18  1  0
 15 11  1  0
 16 15  2  0
 17 13  1  0
 19 18  1  0
 19 20  1  1
 21 20  1  0
 22 21  2  0
 23 22  1  0
 24 23  1  0
 24 25  2  0
 25 21  1  0
 26 28  1  0
 26 19  1  0
 27 26  2  0
M  END
$$$$
