QDH.pdb
     RDKit          3D

 28 28  0  0  1  0  0  0  0  0999 V2000
   11.0597  -16.5080   12.3408 N   0  0  0  0  0  0  0  0  0  0  0  0
   10.0893  -17.2022   11.5772 C   0  0  0  0  0  0  0  0  0  0  0  0
    9.6985  -16.7402   10.4861 O   0  0  0  0  0  0  0  0  0  0  0  0
    9.5382  -18.4788   12.0757 C   0  0  0  0  0  0  0  0  0  0  0  0
   10.4815  -19.0667   13.0856 C   0  0  0  0  0  0  0  0  0  0  0  0
   11.6034  -19.8317   12.4073 C   0  0  2  0  0  0  0  0  0  0  0  0
   11.1258  -20.9302   11.6292 N   0  0  0  0  0  0  0  0  0  0  0  0
   12.5562  -20.2561   13.4725 C   0  0  0  0  0  0  0  0  0  0  0  0
   12.1728  -20.7820   14.5285 O   0  0  0  0  0  0  0  0  0  0  0  0
   13.9636  -20.0917   13.3595 N   0  0  0  0  0  0  0  0  0  0  0  0
   14.8998  -20.4102   14.3503 C   0  0  1  0  0  0  0  0  0  0  0  0
   16.3204  -20.5724   13.9911 C   0  0  0  0  0  0  0  0  0  0  0  0
   17.1732  -21.0324   15.1188 C   0  0  0  0  0  0  0  0  0  0  0  0
   16.9579  -22.0707   15.7867 O   0  0  0  0  0  0  0  0  0  0  0  0
   14.8251  -19.4047   15.4419 C   0  0  0  0  0  0  0  0  0  0  0  0
   14.8584  -18.1632   15.2453 O   0  0  0  0  0  0  0  0  0  0  0  0
   18.2782  -20.2643   15.4544 O   0  0  0  0  0  0  0  0  0  0  0  0
   14.7101  -19.8702   16.7756 N   0  0  0  0  0  0  0  0  0  0  0  0
   14.6405  -18.9211   17.8697 C   0  0  1  0  0  0  0  0  0  0  0  0
   13.4013  -19.2164   18.6916 C   0  0  0  0  0  0  0  0  0  0  0  0
   12.1725  -18.8117   17.9890 C   0  0  0  0  0  0  0  0  0  0  0  0
   11.9686  -17.6020   17.3551 C   0  0  0  0  0  0  0  0  0  0  0  0
   10.7266  -17.5906   16.8251 N   0  0  0  0  0  0  0  0  0  0  0  0
   10.1453  -18.7673   17.1123 C   0  0  0  0  0  0  0  0  0  0  0  0
   11.0359  -19.5097   17.8248 N   0  0  0  0  0  0  0  0  0  0  0  0
   15.8588  -19.0127   18.7159 C   0  0  0  0  0  0  0  0  0  0  0  0
   15.9689  -18.2980   19.7456 O   0  0  0  0  0  0  0  0  0  0  0  0
   16.8656  -19.8885   18.3605 O   0  0  0  0  0  0  0  0  0  0  0  0
  2  3  2  0
  2  1  1  0
  4  2  1  0
  5  4  1  0
  5  6  1  0
  6  8  1  0
  6  7  1  1
  8  9  2  0
 10 11  1  0
 10  8  1  0
 11 12  1  6
 13 12  1  0
 14 13  2  0
 15 18  1  0
 15 11  1  0
 16 15  2  0
 17 13  1  0
 19 18  1  0
 19 20  1  1
 21 20  1  0
 22 21  2  0
 23 22  1  0
 24 23  1  0
 24 25  2  0
 25 21  1  0
 26 28  1  0
 26 19  1  0
 27 26  2  0
M  END
$$$$
