QDH.pdb
     RDKit          3D

 28 28  0  0  1  0  0  0  0  0999 V2000
    7.0488  -16.6914   22.1736 N   0  0  0  0  0  0  0  0  0  0  0  0
    5.9335  -16.9428   21.3372 C   0  0  0  0  0  0  0  0  0  0  0  0
    4.7815  -16.9709   21.8156 O   0  0  0  0  0  0  0  0  0  0  0  0
    6.1360  -17.1726   19.8922 C   0  0  0  0  0  0  0  0  0  0  0  0
    7.5627  -16.8676   19.5357 C   0  0  0  0  0  0  0  0  0  0  0  0
    8.3950  -18.1353   19.4734 C   0  0  2  0  0  0  0  0  0  0  0  0
    7.5928  -19.3167   19.4357 N   0  0  0  0  0  0  0  0  0  0  0  0
    9.3246  -18.1117   20.6388 C   0  0  0  0  0  0  0  0  0  0  0  0
    9.1981  -18.8869   21.5988 O   0  0  0  0  0  0  0  0  0  0  0  0
   10.4165  -17.2068   20.7369 N   0  0  0  0  0  0  0  0  0  0  0  0
   11.4171  -17.2459   21.7150 C   0  0  1  0  0  0  0  0  0  0  0  0
   12.7575  -16.7108   21.4139 C   0  0  0  0  0  0  0  0  0  0  0  0
   13.7970  -17.1149   22.3971 C   0  0  0  0  0  0  0  0  0  0  0  0
   13.5737  -17.8212   23.4080 O   0  0  0  0  0  0  0  0  0  0  0  0
   10.9309  -16.5708   22.9463 C   0  0  0  0  0  0  0  0  0  0  0  0
   10.5349  -15.3776   22.9732 O   0  0  0  0  0  0  0  0  0  0  0  0
   15.0976  -16.6835   22.1832 O   0  0  0  0  0  0  0  0  0  0  0  0
   10.9125  -17.3114   24.1545 N   0  0  0  0  0  0  0  0  0  0  0  0
    9.9930  -16.9447   25.2140 C   0  0  1  0  0  0  0  0  0  0  0  0
    8.5775  -17.0162   24.6759 C   0  0  0  0  0  0  0  0  0  0  0  0
    8.0772  -15.6892   24.2811 C   0  0  0  0  0  0  0  0  0  0  0  0
    8.7646  -14.4984   24.4093 C   0  0  0  0  0  0  0  0  0  0  0  0
    7.9907  -13.4950   23.9429 N   0  0  0  0  0  0  0  0  0  0  0  0
    6.8314  -14.0292   23.5241 C   0  0  0  0  0  0  0  0  0  0  0  0
    6.8912  -15.3725   23.7341 N   0  0  0  0  0  0  0  0  0  0  0  0
   10.1523  -17.8540   26.3787 C   0  0  0  0  0  0  0  0  0  0  0  0
   10.6925  -18.9810   26.2321 O   0  0  0  0  0  0  0  0  0  0  0  0
    9.7021  -17.4495   27.6200 O   0  0  0  0  0  0  0  0  0  0  0  0
  2  3  2  0
  2  1  1  0
  4  2  1  0
  5  4  1  0
  5  6  1  0
  6  8  1  0
  6  7  1  1
  8  9  2  0
 10 11  1  0
 10  8  1  0
 11 12  1  6
 13 12  1  0
 14 13  2  0
 15 18  1  0
 15 11  1  0
 16 15  2  0
 17 13  1  0
 19 18  1  0
 19 20  1  6
 21 20  1  0
 22 21  2  0
 23 22  1  0
 24 23  1  0
 24 25  2  0
 25 21  1  0
 26 28  1  0
 26 19  1  0
 27 26  2  0
M  END
$$$$
