QDH.pdb
     RDKit          3D

 28 28  0  0  1  0  0  0  0  0999 V2000
    8.9647  -12.2681   17.6683 N   0  0  0  0  0  0  0  0  0  0  0  0
    8.0365  -13.2248   17.1888 C   0  0  0  0  0  0  0  0  0  0  0  0
    7.0387  -12.8606   16.5341 O   0  0  0  0  0  0  0  0  0  0  0  0
    8.2516  -14.6597   17.4654 C   0  0  0  0  0  0  0  0  0  0  0  0
    9.5176  -14.8291   18.2554 C   0  0  0  0  0  0  0  0  0  0  0  0
    9.7931  -16.2941   18.5416 C   0  0  2  0  0  0  0  0  0  0  0  0
    9.3009  -17.1556   17.5139 N   0  0  0  0  0  0  0  0  0  0  0  0
    9.2053  -16.6019   19.8767 C   0  0  0  0  0  0  0  0  0  0  0  0
    7.9813  -16.5879   20.0772 O   0  0  0  0  0  0  0  0  0  0  0  0
    9.9963  -16.9318   21.0108 N   0  0  0  0  0  0  0  0  0  0  0  0
    9.5075  -17.4357   22.2219 C   0  0  1  0  0  0  0  0  0  0  0  0
    9.4118  -18.8929   22.4240 C   0  0  0  0  0  0  0  0  0  0  0  0
   10.6194  -19.6383   21.9805 C   0  0  0  0  0  0  0  0  0  0  0  0
   11.5745  -19.9433   22.7325 O   0  0  0  0  0  0  0  0  0  0  0  0
   10.3038  -16.8783   23.3459 C   0  0  0  0  0  0  0  0  0  0  0  0
   11.4291  -17.3236   23.6871 O   0  0  0  0  0  0  0  0  0  0  0  0
   10.6953  -20.0215   20.6497 O   0  0  0  0  0  0  0  0  0  0  0  0
    9.7660  -15.7863   24.0720 N   0  0  0  0  0  0  0  0  0  0  0  0
    9.5469  -15.9049   25.5005 C   0  0  1  0  0  0  0  0  0  0  0  0
    8.0671  -16.1209   25.7492 C   0  0  0  0  0  0  0  0  0  0  0  0
    7.2993  -14.8761   25.5819 C   0  0  0  0  0  0  0  0  0  0  0  0
    7.8285  -13.6390   25.2713 C   0  0  0  0  0  0  0  0  0  0  0  0
    6.8238  -12.7395   25.2006 N   0  0  0  0  0  0  0  0  0  0  0  0
    5.6742  -13.3845   25.4601 C   0  0  0  0  0  0  0  0  0  0  0  0
    5.9727  -14.6917   25.6925 N   0  0  0  0  0  0  0  0  0  0  0  0
   10.3371  -17.0345   26.0557 C   0  0  0  0  0  0  0  0  0  0  0  0
   10.6770  -17.9932   25.3149 O   0  0  0  0  0  0  0  0  0  0  0  0
   10.6931  -17.0204   27.3899 O   0  0  0  0  0  0  0  0  0  0  0  0
  2  3  2  0
  2  1  1  0
  4  2  1  0
  5  4  1  0
  5  6  1  0
  6  8  1  0
  6  7  1  6
  8  9  2  0
 10 11  1  0
 10  8  1  0
 11 12  1  6
 13 12  1  0
 14 13  2  0
 15 18  1  0
 15 11  1  0
 16 15  2  0
 17 13  1  0
 19 18  1  0
 19 20  1  6
 21 20  1  0
 22 21  2  0
 23 22  1  0
 24 23  1  0
 24 25  2  0
 25 21  1  0
 26 28  1  0
 26 19  1  0
 27 26  2  0
M  END
$$$$
