QDH.pdb
     RDKit          3D

 28 28  0  0  1  0  0  0  0  0999 V2000
    8.3291  -11.7869   19.0399 N   0  0  0  0  0  0  0  0  0  0  0  0
    7.8378  -13.0333   18.5797 C   0  0  0  0  0  0  0  0  0  0  0  0
    7.6972  -13.2420   17.3576 O   0  0  0  0  0  0  0  0  0  0  0  0
    7.4905  -14.0900   19.5516 C   0  0  0  0  0  0  0  0  0  0  0  0
    8.7365  -14.8281   19.9494 C   0  0  0  0  0  0  0  0  0  0  0  0
    8.4812  -16.3211   20.0479 C   0  0  2  0  0  0  0  0  0  0  0  0
    7.2088  -16.6959   19.5177 N   0  0  0  0  0  0  0  0  0  0  0  0
    8.6395  -16.7033   21.4802 C   0  0  0  0  0  0  0  0  0  0  0  0
    7.6678  -16.8241   22.2416 O   0  0  0  0  0  0  0  0  0  0  0  0
    9.9051  -16.9558   22.0763 N   0  0  0  0  0  0  0  0  0  0  0  0
   10.1078  -17.4870   23.3554 C   0  0  1  0  0  0  0  0  0  0  0  0
   11.3381  -18.2451   23.6475 C   0  0  0  0  0  0  0  0  0  0  0  0
   11.3225  -18.9227   24.9708 C   0  0  0  0  0  0  0  0  0  0  0  0
   10.2970  -19.4124   25.4994 O   0  0  0  0  0  0  0  0  0  0  0  0
   10.0001  -16.4010   24.3640 C   0  0  0  0  0  0  0  0  0  0  0  0
   10.5087  -15.2609   24.2132 O   0  0  0  0  0  0  0  0  0  0  0  0
   12.5186  -19.0201   25.6661 O   0  0  0  0  0  0  0  0  0  0  0  0
    9.2859  -16.6645   25.5595 N   0  0  0  0  0  0  0  0  0  0  0  0
    9.2475  -15.6695   26.6136 C   0  0  1  0  0  0  0  0  0  0  0  0
    7.8039  -15.2778   26.8602 C   0  0  0  0  0  0  0  0  0  0  0  0
    7.5123  -13.9261   26.3550 C   0  0  0  0  0  0  0  0  0  0  0  0
    6.2811  -13.3017   26.3892 C   0  0  0  0  0  0  0  0  0  0  0  0
    6.3983  -12.0748   25.8375 N   0  0  0  0  0  0  0  0  0  0  0  0
    7.6767  -11.9143   25.4571 C   0  0  0  0  0  0  0  0  0  0  0  0
    8.3529  -13.0513   25.7769 N   0  0  0  0  0  0  0  0  0  0  0  0
    9.8597  -16.2054   27.8572 C   0  0  0  0  0  0  0  0  0  0  0  0
   10.2417  -17.4033   27.9089 O   0  0  0  0  0  0  0  0  0  0  0  0
   10.0044  -15.3766   28.9522 O   0  0  0  0  0  0  0  0  0  0  0  0
  2  3  2  0
  2  1  1  0
  4  2  1  0
  5  4  1  0
  5  6  1  0
  6  8  1  0
  6  7  1  1
  8  9  2  0
 10 11  1  0
 10  8  1  0
 11 12  1  6
 13 12  1  0
 14 13  2  0
 15 18  1  0
 15 11  1  0
 16 15  2  0
 17 13  1  0
 19 18  1  0
 19 20  1  1
 21 20  1  0
 22 21  2  0
 23 22  1  0
 24 23  1  0
 24 25  2  0
 25 21  1  0
 26 28  1  0
 26 19  1  0
 27 26  2  0
M  END
$$$$
