KGP.pdb
     RDKit          3D

 21 21  0  0  1  0  0  0  0  0999 V2000
    7.0513  -17.4578   20.1962 N   0  0  0  0  0  0  0  0  0  0  0  0
    7.0595  -16.1175   20.6813 C   0  0  1  0  0  0  0  0  0  0  0  0
    6.3550  -15.1411   19.8129 C   0  0  0  0  0  0  0  0  0  0  0  0
    7.0146  -13.8374   19.5772 C   0  0  0  0  0  0  0  0  0  0  0  0
    8.2769  -13.8931   18.7653 C   0  0  0  0  0  0  0  0  0  0  0  0
    8.8297  -12.5179   18.4373 C   0  0  0  0  0  0  0  0  0  0  0  0
   10.0899  -12.7182   17.7601 N   0  0  0  0  0  0  0  0  0  0  0  0
    6.6302  -16.0296   22.1162 C   0  0  0  0  0  0  0  0  0  0  0  0
    5.4485  -16.2548   22.4844 O   0  0  0  0  0  0  0  0  0  0  0  0
    7.5526  -15.6823   23.1440 N   0  0  0  0  0  0  0  0  0  0  0  0
    7.1335  -15.4190   24.5049 C   0  0  0  0  0  0  0  0  0  0  0  0
    8.2929  -14.8616   25.2879 C   0  0  0  0  0  0  0  0  0  0  0  0
    9.4537  -14.9268   24.8040 O   0  0  0  0  0  0  0  0  0  0  0  0
    8.0570  -14.2719   26.5585 N   0  0  0  0  0  0  0  0  0  0  0  0
    6.7631  -14.0538   27.1705 C   0  0  0  0  0  0  0  0  0  0  0  0
    6.9573  -13.0560   28.2677 C   0  0  0  0  0  0  0  0  0  0  0  0
    8.3628  -12.5406   28.0362 C   0  0  0  0  0  0  0  0  0  0  0  0
    9.0492  -13.7817   27.4744 C   0  0  1  0  0  0  0  0  0  0  0  0
    9.2437  -14.7258   28.5870 C   0  0  0  0  0  0  0  0  0  0  0  0
    8.4294  -15.6722   28.7253 O   0  0  0  0  0  0  0  0  0  0  0  0
   10.2883  -14.6118   29.4863 O   0  0  0  0  0  0  0  0  0  0  0  0
  2  8  1  0
  2  1  1  6
  3  2  1  0
  4  3  1  0
  5  4  1  0
  6  5  1  0
  7  6  1  0
  8  9  2  0
 10  8  1  0
 10 11  1  0
 12 14  1  0
 12 11  1  0
 13 12  2  0
 14 18  1  0
 15 14  1  0
 15 16  1  0
 16 17  1  0
 18 19  1  1
 18 17  1  0
 19 21  1  0
 20 19  2  0
M  END
$$$$
