KGP.pdb
     RDKit          3D

 21 21  0  0  1  0  0  0  0  0999 V2000
    7.7777  -16.4144   21.0737 N   0  0  0  0  0  0  0  0  0  0  0  0
    8.3062  -15.0961   21.1950 C   0  0  1  0  0  0  0  0  0  0  0  0
    7.6471  -14.0838   20.3320 C   0  0  0  0  0  0  0  0  0  0  0  0
    7.3592  -14.4647   18.9312 C   0  0  0  0  0  0  0  0  0  0  0  0
    8.1114  -13.6904   17.8870 C   0  0  0  0  0  0  0  0  0  0  0  0
    7.7233  -14.0767   16.4711 C   0  0  0  0  0  0  0  0  0  0  0  0
    8.5479  -13.2963   15.5778 N   0  0  0  0  0  0  0  0  0  0  0  0
    8.4121  -14.6554   22.6251 C   0  0  0  0  0  0  0  0  0  0  0  0
    9.0517  -13.6290   22.9718 O   0  0  0  0  0  0  0  0  0  0  0  0
    7.7850  -15.3880   23.6730 N   0  0  0  0  0  0  0  0  0  0  0  0
    7.8832  -14.9914   25.0623 C   0  0  0  0  0  0  0  0  0  0  0  0
    9.2458  -15.3528   25.5921 C   0  0  0  0  0  0  0  0  0  0  0  0
   10.0828  -15.8972   24.8246 O   0  0  0  0  0  0  0  0  0  0  0  0
    9.5634  -15.0734   26.9481 N   0  0  0  0  0  0  0  0  0  0  0  0
    8.7019  -14.4149   27.9075 C   0  0  0  0  0  0  0  0  0  0  0  0
    9.5683  -13.9620   29.0395 C   0  0  0  0  0  0  0  0  0  0  0  0
   10.9749  -14.1627   28.5142 C   0  0  0  0  0  0  0  0  0  0  0  0
   10.7912  -15.3879   27.6242 C   0  0  1  0  0  0  0  0  0  0  0  0
   10.6183  -16.5558   28.5034 C   0  0  0  0  0  0  0  0  0  0  0  0
    9.4620  -17.0150   28.6770 O   0  0  0  0  0  0  0  0  0  0  0  0
   11.6792  -17.1676   29.1460 O   0  0  0  0  0  0  0  0  0  0  0  0
  2  8  1  0
  2  1  1  1
  3  2  1  0
  4  3  1  0
  5  4  1  0
  6  5  1  0
  7  6  1  0
  8  9  2  0
 10  8  1  0
 10 11  1  0
 12 14  1  0
 12 11  1  0
 13 12  2  0
 14 18  1  0
 15 14  1  0
 15 16  1  0
 16 17  1  0
 18 19  1  1
 18 17  1  0
 19 21  1  0
 20 19  2  0
M  END
$$$$
