KGP.pdb
     RDKit          3D

 21 21  0  0  1  0  0  0  0  0999 V2000
    7.7433  -19.0760   22.8268 N   0  0  0  0  0  0  0  0  0  0  0  0
    8.2533  -19.1573   24.1554 C   0  0  1  0  0  0  0  0  0  0  0  0
    9.6173  -19.7338   24.2601 C   0  0  0  0  0  0  0  0  0  0  0  0
   10.0683  -20.6226   23.1661 C   0  0  0  0  0  0  0  0  0  0  0  0
   11.4585  -21.1712   23.3152 C   0  0  0  0  0  0  0  0  0  0  0  0
   11.8978  -22.0002   22.1218 C   0  0  0  0  0  0  0  0  0  0  0  0
   13.2584  -22.4159   22.3724 N   0  0  0  0  0  0  0  0  0  0  0  0
    8.1153  -17.8609   24.8977 C   0  0  0  0  0  0  0  0  0  0  0  0
    8.6152  -16.7847   24.4795 O   0  0  0  0  0  0  0  0  0  0  0  0
    7.4022  -17.7855   26.1279 N   0  0  0  0  0  0  0  0  0  0  0  0
    7.1835  -16.5332   26.8215 C   0  0  0  0  0  0  0  0  0  0  0  0
    6.6693  -15.5045   25.8493 C   0  0  0  0  0  0  0  0  0  0  0  0
    5.9709  -15.8752   24.8692 O   0  0  0  0  0  0  0  0  0  0  0  0
    6.9809  -14.1339   26.0547 N   0  0  0  0  0  0  0  0  0  0  0  0
    7.7386  -13.5881   27.1612 C   0  0  0  0  0  0  0  0  0  0  0  0
    7.4634  -12.1184   27.2011 C   0  0  0  0  0  0  0  0  0  0  0  0
    6.3073  -11.9459   26.2377 C   0  0  0  0  0  0  0  0  0  0  0  0
    6.6073  -13.0332   25.2106 C   0  0  1  0  0  0  0  0  0  0  0  0
    7.7534  -12.5814   24.4048 C   0  0  0  0  0  0  0  0  0  0  0  0
    7.5625  -11.7142   23.5163 O   0  0  0  0  0  0  0  0  0  0  0  0
    9.0327  -13.0743   24.5877 O   0  0  0  0  0  0  0  0  0  0  0  0
  2  8  1  0
  2  1  1  6
  3  2  1  0
  4  3  1  0
  5  4  1  0
  6  5  1  0
  7  6  1  0
  8  9  2  0
 10  8  1  0
 10 11  1  0
 12 14  1  0
 12 11  1  0
 13 12  2  0
 14 18  1  0
 15 14  1  0
 15 16  1  0
 16 17  1  0
 18 19  1  6
 18 17  1  0
 19 21  1  0
 20 19  2  0
M  END
$$$$
