KGP.pdb
     RDKit          3D

 21 21  0  0  1  0  0  0  0  0999 V2000
    8.8804  -17.5326   20.7369 N   0  0  0  0  0  0  0  0  0  0  0  0
    7.9400  -16.6951   20.0690 C   0  0  1  0  0  0  0  0  0  0  0  0
    7.0472  -17.4036   19.1177 C   0  0  0  0  0  0  0  0  0  0  0  0
    7.5201  -18.6949   18.5708 C   0  0  0  0  0  0  0  0  0  0  0  0
    6.7102  -19.8961   18.9670 C   0  0  0  0  0  0  0  0  0  0  0  0
    7.2235  -21.1846   18.3501 C   0  0  0  0  0  0  0  0  0  0  0  0
    6.4013  -22.2565   18.8619 N   0  0  0  0  0  0  0  0  0  0  0  0
    7.1868  -15.8138   21.0212 C   0  0  0  0  0  0  0  0  0  0  0  0
    5.9987  -15.4544   20.8157 O   0  0  0  0  0  0  0  0  0  0  0  0
    7.7890  -15.3353   22.2196 N   0  0  0  0  0  0  0  0  0  0  0  0
    7.0437  -14.6042   23.2232 C   0  0  0  0  0  0  0  0  0  0  0  0
    7.9781  -14.1602   24.3176 C   0  0  0  0  0  0  0  0  0  0  0  0
    9.2184  -14.3259   24.1762 O   0  0  0  0  0  0  0  0  0  0  0  0
    7.4443  -13.5621   25.4903 N   0  0  0  0  0  0  0  0  0  0  0  0
    6.0397  -13.3843   25.7933 C   0  0  0  0  0  0  0  0  0  0  0  0
    5.9500  -12.3647   26.8839 C   0  0  0  0  0  0  0  0  0  0  0  0
    7.3536  -11.8001   26.9606 C   0  0  0  0  0  0  0  0  0  0  0  0
    8.1894  -13.0223   26.5935 C   0  0  1  0  0  0  0  0  0  0  0  0
    8.1616  -13.9428   27.7418 C   0  0  0  0  0  0  0  0  0  0  0  0
    7.3432  -14.8958   27.7323 O   0  0  0  0  0  0  0  0  0  0  0  0
    9.0014  -13.7997   28.8314 O   0  0  0  0  0  0  0  0  0  0  0  0
  2  8  1  0
  2  1  1  1
  3  2  1  0
  4  3  1  0
  5  4  1  0
  6  5  1  0
  7  6  1  0
  8  9  2  0
 10  8  1  0
 10 11  1  0
 12 14  1  0
 12 11  1  0
 13 12  2  0
 14 18  1  0
 15 14  1  0
 15 16  1  0
 16 17  1  0
 18 19  1  1
 18 17  1  0
 19 21  1  0
 20 19  2  0
M  END
$$$$
