KGP.pdb
     RDKit          3D

 21 21  0  0  1  0  0  0  0  0999 V2000
    7.5100  -19.9068   22.5606 N   0  0  0  0  0  0  0  0  0  0  0  0
    6.8120  -18.8221   21.9539 C   0  0  1  0  0  0  0  0  0  0  0  0
    5.7780  -19.2261   20.9682 C   0  0  0  0  0  0  0  0  0  0  0  0
    5.9992  -20.4869   20.2253 C   0  0  0  0  0  0  0  0  0  0  0  0
    5.0338  -21.5944   20.5368 C   0  0  0  0  0  0  0  0  0  0  0  0
    5.1977  -22.7956   19.6232 C   0  0  0  0  0  0  0  0  0  0  0  0
    4.2026  -23.7662   20.0167 N   0  0  0  0  0  0  0  0  0  0  0  0
    6.2945  -17.8423   22.9653 C   0  0  0  0  0  0  0  0  0  0  0  0
    5.0834  -17.7932   23.3026 O   0  0  0  0  0  0  0  0  0  0  0  0
    7.1614  -16.9080   23.6005 N   0  0  0  0  0  0  0  0  0  0  0  0
    6.6829  -15.9362   24.5616 C   0  0  0  0  0  0  0  0  0  0  0  0
    7.8301  -15.0723   25.0151 C   0  0  0  0  0  0  0  0  0  0  0  0
    8.9792  -15.2715   24.5398 O   0  0  0  0  0  0  0  0  0  0  0  0
    7.5963  -14.0480   25.9710 N   0  0  0  0  0  0  0  0  0  0  0  0
    6.3085  -13.6590   26.5065 C   0  0  0  0  0  0  0  0  0  0  0  0
    6.4793  -12.3092   27.1278 C   0  0  0  0  0  0  0  0  0  0  0  0
    7.8509  -11.8711   26.6574 C   0  0  0  0  0  0  0  0  0  0  0  0
    8.5848  -13.2066   26.5863 C   0  0  1  0  0  0  0  0  0  0  0  0
    8.8539  -13.6416   27.9666 C   0  0  0  0  0  0  0  0  0  0  0  0
    9.7354  -13.0393   28.6286 O   0  0  0  0  0  0  0  0  0  0  0  0
    8.1741  -14.6878   28.5635 O   0  0  0  0  0  0  0  0  0  0  0  0
  2  8  1  0
  2  1  1  1
  3  2  1  0
  4  3  1  0
  5  4  1  0
  6  5  1  0
  7  6  1  0
  8  9  2  0
 10  8  1  0
 10 11  1  0
 12 14  1  0
 12 11  1  0
 13 12  2  0
 14 18  1  0
 15 14  1  0
 15 16  1  0
 16 17  1  0
 18 19  1  1
 18 17  1  0
 19 21  1  0
 20 19  2  0
M  END
$$$$
