KGP.pdb
     RDKit          3D

 21 21  0  0  1  0  0  0  0  0999 V2000
    7.3171  -17.0047   19.9923 N   0  0  0  0  0  0  0  0  0  0  0  0
    7.5108  -15.6776   20.4751 C   0  0  1  0  0  0  0  0  0  0  0  0
    7.1488  -14.6093   19.5099 C   0  0  0  0  0  0  0  0  0  0  0  0
    8.1901  -14.1725   18.5533 C   0  0  0  0  0  0  0  0  0  0  0  0
    9.4870  -13.7339   19.1709 C   0  0  0  0  0  0  0  0  0  0  0  0
   10.5097  -13.2861   18.1423 C   0  0  0  0  0  0  0  0  0  0  0  0
   11.7277  -12.9856   18.8586 N   0  0  0  0  0  0  0  0  0  0  0  0
    6.8938  -15.4686   21.8265 C   0  0  0  0  0  0  0  0  0  0  0  0
    5.7255  -15.0262   21.9765 O   0  0  0  0  0  0  0  0  0  0  0  0
    7.6108  -15.7651   23.0206 N   0  0  0  0  0  0  0  0  0  0  0  0
    7.1112  -15.4110   24.3329 C   0  0  0  0  0  0  0  0  0  0  0  0
    8.2276  -14.8180   25.1515 C   0  0  0  0  0  0  0  0  0  0  0  0
    9.4071  -14.8636   24.7128 O   0  0  0  0  0  0  0  0  0  0  0  0
    7.9308  -14.2178   26.4042 N   0  0  0  0  0  0  0  0  0  0  0  0
    6.6099  -14.0178   26.9625 C   0  0  0  0  0  0  0  0  0  0  0  0
    6.7417  -13.0031   28.0535 C   0  0  0  0  0  0  0  0  0  0  0  0
    8.1451  -12.4630   27.8704 C   0  0  0  0  0  0  0  0  0  0  0  0
    8.8766  -13.6971   27.3518 C   0  0  1  0  0  0  0  0  0  0  0  0
    9.0454  -14.6237   28.4831 C   0  0  0  0  0  0  0  0  0  0  0  0
    8.2387  -15.5785   28.6073 O   0  0  0  0  0  0  0  0  0  0  0  0
   10.0578  -14.4842   29.4151 O   0  0  0  0  0  0  0  0  0  0  0  0
  2  8  1  0
  2  1  1  6
  3  2  1  0
  4  3  1  0
  5  4  1  0
  6  5  1  0
  7  6  1  0
  8  9  2  0
 10  8  1  0
 10 11  1  0
 12 14  1  0
 12 11  1  0
 13 12  2  0
 14 18  1  0
 15 14  1  0
 15 16  1  0
 16 17  1  0
 18 19  1  1
 18 17  1  0
 19 21  1  0
 20 19  2  0
M  END
$$$$
