KGP.pdb
     RDKit          3D

 21 21  0  0  1  0  0  0  0  0999 V2000
    8.1230  -19.2766   22.6109 N   0  0  0  0  0  0  0  0  0  0  0  0
    6.7225  -19.4045   22.8430 C   0  0  1  0  0  0  0  0  0  0  0  0
    6.3051  -20.7159   23.3999 C   0  0  0  0  0  0  0  0  0  0  0  0
    7.3220  -21.7898   23.4521 C   0  0  0  0  0  0  0  0  0  0  0  0
    7.5439  -22.3997   24.8065 C   0  0  0  0  0  0  0  0  0  0  0  0
    8.6016  -23.4886   24.7982 C   0  0  0  0  0  0  0  0  0  0  0  0
    8.9255  -23.7752   26.1766 N   0  0  0  0  0  0  0  0  0  0  0  0
    6.1660  -18.2451   23.6155 C   0  0  0  0  0  0  0  0  0  0  0  0
    4.9303  -18.0362   23.7268 O   0  0  0  0  0  0  0  0  0  0  0  0
    7.0216  -17.3129   24.2687 N   0  0  0  0  0  0  0  0  0  0  0  0
    6.5108  -16.1659   24.9903 C   0  0  0  0  0  0  0  0  0  0  0  0
    7.5510  -15.0769   25.0023 C   0  0  0  0  0  0  0  0  0  0  0  0
    8.5637  -15.1815   24.2611 O   0  0  0  0  0  0  0  0  0  0  0  0
    7.3718  -13.9508   25.8493 N   0  0  0  0  0  0  0  0  0  0  0  0
    6.1293  -13.5375   26.4672 C   0  0  0  0  0  0  0  0  0  0  0  0
    6.3050  -12.1174   26.9028 C   0  0  0  0  0  0  0  0  0  0  0  0
    7.6027  -11.6998   26.2424 C   0  0  0  0  0  0  0  0  0  0  0  0
    8.3811  -13.0117   26.2533 C   0  0  1  0  0  0  0  0  0  0  0  0
    8.8058  -13.2667   27.6395 C   0  0  0  0  0  0  0  0  0  0  0  0
    8.1586  -14.0954   28.3267 O   0  0  0  0  0  0  0  0  0  0  0  0
    9.8899  -12.6293   28.2153 O   0  0  0  0  0  0  0  0  0  0  0  0
  2  8  1  0
  2  1  1  1
  3  2  1  0
  4  3  1  0
  5  4  1  0
  6  5  1  0
  7  6  1  0
  8  9  2  0
 10  8  1  0
 10 11  1  0
 12 14  1  0
 12 11  1  0
 13 12  2  0
 14 18  1  0
 15 14  1  0
 15 16  1  0
 16 17  1  0
 18 19  1  1
 18 17  1  0
 19 21  1  0
 20 19  2  0
M  END
$$$$
