KGP.pdb
     RDKit          3D

 21 21  0  0  1  0  0  0  0  0999 V2000
    8.7324  -18.1023   21.5527 N   0  0  0  0  0  0  0  0  0  0  0  0
    8.2097  -16.9013   20.9903 C   0  0  1  0  0  0  0  0  0  0  0  0
    7.3987  -17.0953   19.7620 C   0  0  0  0  0  0  0  0  0  0  0  0
    6.6574  -18.3691   19.6280 C   0  0  0  0  0  0  0  0  0  0  0  0
    7.1899  -19.3168   18.5917 C   0  0  0  0  0  0  0  0  0  0  0  0
    6.4157  -20.6211   18.5302 C   0  0  0  0  0  0  0  0  0  0  0  0
    7.1451  -21.5059   17.6515 N   0  0  0  0  0  0  0  0  0  0  0  0
    7.5158  -16.0499   22.0123 C   0  0  0  0  0  0  0  0  0  0  0  0
    6.8907  -16.5384   22.9889 O   0  0  0  0  0  0  0  0  0  0  0  0
    7.5319  -14.6287   21.9247 N   0  0  0  0  0  0  0  0  0  0  0  0
    6.9765  -13.7821   22.9601 C   0  0  0  0  0  0  0  0  0  0  0  0
    7.9434  -13.6980   24.1116 C   0  0  0  0  0  0  0  0  0  0  0  0
    9.1251  -14.1050   23.9573 O   0  0  0  0  0  0  0  0  0  0  0  0
    7.5057  -13.1612   25.3518 N   0  0  0  0  0  0  0  0  0  0  0  0
    6.1509  -12.7713   25.6818 C   0  0  0  0  0  0  0  0  0  0  0  0
    6.2272  -11.8932   26.8902 C   0  0  0  0  0  0  0  0  0  0  0  0
    7.7078  -11.6047   27.0284 C   0  0  0  0  0  0  0  0  0  0  0  0
    8.3166  -12.9035   26.5092 C   0  0  1  0  0  0  0  0  0  0  0  0
    8.1042  -13.9371   27.5356 C   0  0  0  0  0  0  0  0  0  0  0  0
    8.8334  -13.9314   28.5584 O   0  0  0  0  0  0  0  0  0  0  0  0
    7.1329  -14.9147   27.4179 O   0  0  0  0  0  0  0  0  0  0  0  0
  2  8  1  0
  2  1  1  1
  3  2  1  0
  4  3  1  0
  5  4  1  0
  6  5  1  0
  7  6  1  0
  8  9  2  0
 10  8  1  0
 10 11  1  0
 12 14  1  0
 12 11  1  0
 13 12  2  0
 14 18  1  0
 15 14  1  0
 15 16  1  0
 16 17  1  0
 18 19  1  1
 18 17  1  0
 19 21  1  0
 20 19  2  0
M  END
$$$$
