YVS.pdb
     RDKit          3D

 26 26  0  0  1  0  0  0  0  0999 V2000
   21.0942  -15.2872  -17.9126 O   0  0  0  0  0  0  0  0  0  0  0  0
   20.9573  -16.3644  -17.0472 C   0  0  0  0  0  0  0  0  0  0  0  0
   21.3947  -17.6225  -17.4284 C   0  0  0  0  0  0  0  0  0  0  0  0
   21.2813  -18.7119  -16.6119 C   0  0  0  0  0  0  0  0  0  0  0  0
   20.7148  -18.6096  -15.3440 C   0  0  0  0  0  0  0  0  0  0  0  0
   20.5734  -19.7368  -14.4345 C   0  0  0  0  0  0  0  0  0  0  0  0
   21.7298  -19.9611  -13.4947 C   0  0  2  0  0  0  0  0  0  0  0  0
   22.9256  -20.3687  -14.2233 N   0  0  0  0  0  0  0  0  0  0  0  0
   21.4549  -20.9596  -12.4369 C   0  0  0  0  0  0  0  0  0  0  0  0
   21.6906  -22.1957  -12.6654 O   0  0  0  0  0  0  0  0  0  0  0  0
   20.2777  -17.3639  -14.9570 C   0  0  0  0  0  0  0  0  0  0  0  0
   20.3939  -16.2469  -15.7942 C   0  0  0  0  0  0  0  0  0  0  0  0
   22.6793  -20.5028   -8.8412 C   0  0  0  0  0  0  0  0  0  0  0  0
   21.2435  -20.9221   -8.8323 C   0  0  2  0  0  0  0  0  0  0  0  0
   21.0305  -21.7821   -7.5957 C   0  0  0  0  0  0  0  0  0  0  0  0
   20.8296  -21.6797  -10.0888 C   0  0  2  0  0  0  0  0  0  0  0  0
   20.9459  -20.6652  -11.1662 N   0  0  0  0  0  0  0  0  0  0  0  0
   19.4708  -22.2140  -10.0390 C   0  0  0  0  0  0  0  0  0  0  0  0
   18.4509  -21.4389  -10.1229 O   0  0  0  0  0  0  0  0  0  0  0  0
   16.3879  -25.9923   -9.8456 O   0  0  0  0  0  0  0  0  0  0  0  0
   17.7026  -25.5500   -9.9656 C   0  0  0  0  0  0  0  0  0  0  0  0
   17.7946  -24.0478   -9.7938 C   0  0  2  0  0  0  0  0  0  0  0  0
   19.1761  -23.5928   -9.9010 N   0  0  0  0  0  0  0  0  0  0  0  0
   17.1849  -23.6217   -8.5129 C   0  0  0  0  0  0  0  0  0  0  0  0
   15.8749  -23.2023   -8.4638 O   0  0  0  0  0  0  0  0  0  0  0  0
   17.8529  -23.6363   -7.4513 O   0  0  0  0  0  0  0  0  0  0  0  0
  2  3  2  0
  2  1  1  0
  4  3  1  0
  5  4  2  0
  6  5  1  0
  7  6  1  0
  7  9  1  0
  7  8  1  6
  9 17  1  0
  9 10  2  0
 11  5  1  0
 11 12  2  0
 12  2  1  0
 14 13  1  6
 14 15  1  0
 16 14  1  0
 16 17  1  6
 18 16  1  0
 18 19  2  0
 20 21  1  0
 22 21  1  1
 22 23  1  0
 23 18  1  0
 24 22  1  0
 25 24  1  0
 26 24  2  0
M  END
$$$$
