YVS.pdb
     RDKit          3D

 26 26  0  0  1  0  0  0  0  0999 V2000
   22.7571  -21.4899   -6.9836 O   0  0  0  0  0  0  0  0  0  0  0  0
   23.4789  -21.1500   -8.1201 C   0  0  0  0  0  0  0  0  0  0  0  0
   24.8434  -20.9253   -8.0357 C   0  0  0  0  0  0  0  0  0  0  0  0
   25.5954  -20.5888   -9.1255 C   0  0  0  0  0  0  0  0  0  0  0  0
   25.0210  -20.4539  -10.3868 C   0  0  0  0  0  0  0  0  0  0  0  0
   25.7765  -20.1009  -11.5793 C   0  0  0  0  0  0  0  0  0  0  0  0
   25.4529  -20.9030  -12.8134 C   0  0  2  0  0  0  0  0  0  0  0  0
   25.8914  -22.2864  -12.6689 N   0  0  0  0  0  0  0  0  0  0  0  0
   26.0347  -20.3478  -14.0563 C   0  0  0  0  0  0  0  0  0  0  0  0
   27.2426  -20.6332  -14.3648 O   0  0  0  0  0  0  0  0  0  0  0  0
   23.6664  -20.6752  -10.4800 C   0  0  0  0  0  0  0  0  0  0  0  0
   22.8954  -21.0202   -9.3626 C   0  0  0  0  0  0  0  0  0  0  0  0
   24.7656  -20.9711  -17.3879 C   0  0  0  0  0  0  0  0  0  0  0  0
   26.0842  -20.3521  -17.0479 C   0  0  2  0  0  0  0  0  0  0  0  0
   26.8856  -21.3891  -16.2754 C   0  0  0  0  0  0  0  0  0  0  0  0
   25.9553  -19.0653  -16.2408 C   0  0  2  0  0  0  0  0  0  0  0  0
   25.3610  -19.5132  -14.9563 N   0  0  0  0  0  0  0  0  0  0  0  0
   25.1070  -18.0543  -16.8674 C   0  0  0  0  0  0  0  0  0  0  0  0
   23.8376  -18.0439  -16.6764 O   0  0  0  0  0  0  0  0  0  0  0  0
   26.5801  -15.1195  -19.4496 O   0  0  0  0  0  0  0  0  0  0  0  0
   25.4822  -14.7757  -18.6655 C   0  0  0  0  0  0  0  0  0  0  0  0
   24.7078  -16.0046  -18.2356 C   0  0  2  0  0  0  0  0  0  0  0  0
   25.6027  -17.0296  -17.7108 N   0  0  0  0  0  0  0  0  0  0  0  0
   23.8827  -16.5283  -19.3487 C   0  0  0  0  0  0  0  0  0  0  0  0
   22.8461  -15.7843  -19.8648 O   0  0  0  0  0  0  0  0  0  0  0  0
   24.1153  -17.6590  -19.8394 O   0  0  0  0  0  0  0  0  0  0  0  0
  2  3  2  0
  2  1  1  0
  4  3  1  0
  5  4  2  0
  6  5  1  0
  7  6  1  0
  7  9  1  0
  7  8  1  1
  9 17  1  0
  9 10  2  0
 11  5  1  0
 11 12  2  0
 12  2  1  0
 14 13  1  1
 14 15  1  0
 16 14  1  0
 16 17  1  1
 18 16  1  0
 18 19  2  0
 20 21  1  0
 22 21  1  6
 22 23  1  0
 23 18  1  0
 24 22  1  0
 25 24  1  0
 26 24  2  0
M  END
$$$$
