YVS.pdb
     RDKit          3D

 26 26  0  0  1  0  0  0  0  0999 V2000
   18.2697  -11.8035  -24.2118 O   0  0  0  0  0  0  0  0  0  0  0  0
   18.4946  -11.3546  -22.9172 C   0  0  0  0  0  0  0  0  0  0  0  0
   17.4635  -10.7811  -22.1911 C   0  0  0  0  0  0  0  0  0  0  0  0
   17.6365  -10.3249  -20.9151 C   0  0  0  0  0  0  0  0  0  0  0  0
   18.8701  -10.4152  -20.2757 C   0  0  0  0  0  0  0  0  0  0  0  0
   19.1069   -9.9482  -18.9180 C   0  0  0  0  0  0  0  0  0  0  0  0
   19.7377  -10.9517  -17.9875 C   0  0  2  0  0  0  0  0  0  0  0  0
   18.8318  -12.0639  -17.7244 N   0  0  0  0  0  0  0  0  0  0  0  0
   20.1718  -10.3767  -16.6943 C   0  0  0  0  0  0  0  0  0  0  0  0
   19.3572  -10.3654  -15.7084 O   0  0  0  0  0  0  0  0  0  0  0  0
   19.9000  -10.9835  -20.9893 C   0  0  0  0  0  0  0  0  0  0  0  0
   19.7227  -11.4512  -22.2977 C   0  0  0  0  0  0  0  0  0  0  0  0
   24.1879   -9.8008  -15.7476 C   0  0  0  0  0  0  0  0  0  0  0  0
   23.0851   -9.9676  -14.7510 C   0  0  2  0  0  0  0  0  0  0  0  0
   22.8189  -11.4592  -14.6155 C   0  0  0  0  0  0  0  0  0  0  0  0
   21.8083   -9.2289  -15.1362 C   0  0  2  0  0  0  0  0  0  0  0  0
   21.4351   -9.8280  -16.4421 N   0  0  0  0  0  0  0  0  0  0  0  0
   21.9762   -7.7839  -15.2699 C   0  0  0  0  0  0  0  0  0  0  0  0
   22.5416   -7.2757  -16.3044 O   0  0  0  0  0  0  0  0  0  0  0  0
   19.4122   -4.9724  -14.0201 O   0  0  0  0  0  0  0  0  0  0  0  0
   20.4255   -4.7683  -14.9528 C   0  0  0  0  0  0  0  0  0  0  0  0
   21.7193   -5.4199  -14.5097 C   0  0  2  0  0  0  0  0  0  0  0  0
   21.5381   -6.8513  -14.2975 N   0  0  0  0  0  0  0  0  0  0  0  0
   22.2583   -4.7596  -13.2982 C   0  0  0  0  0  0  0  0  0  0  0  0
   22.4100   -5.4620  -12.1243 O   0  0  0  0  0  0  0  0  0  0  0  0
   22.5855   -3.5490  -13.3224 O   0  0  0  0  0  0  0  0  0  0  0  0
  2  3  2  0
  2  1  1  0
  4  3  1  0
  5  4  2  0
  6  5  1  0
  7  6  1  0
  7  9  1  0
  7  8  1  1
  9 17  1  0
  9 10  2  0
 11  5  1  0
 11 12  2  0
 12  2  1  0
 14 13  1  6
 14 15  1  0
 16 14  1  0
 16 17  1  6
 18 16  1  0
 18 19  2  0
 20 21  1  0
 22 21  1  1
 22 23  1  0
 23 18  1  0
 24 22  1  0
 25 24  1  0
 26 24  2  0
M  END
$$$$
