YVS.pdb
     RDKit          3D

 26 26  0  0  1  0  0  0  0  0999 V2000
   23.0301  -17.5430  -15.2054 O   0  0  0  0  0  0  0  0  0  0  0  0
   23.1995  -16.1798  -15.4081 C   0  0  0  0  0  0  0  0  0  0  0  0
   24.2306  -15.5055  -14.7745 C   0  0  0  0  0  0  0  0  0  0  0  0
   24.4370  -14.1656  -14.9428 C   0  0  0  0  0  0  0  0  0  0  0  0
   23.6127  -13.4048  -15.7677 C   0  0  0  0  0  0  0  0  0  0  0  0
   23.7907  -11.9768  -15.9838 C   0  0  0  0  0  0  0  0  0  0  0  0
   23.7661  -11.5304  -17.4229 C   0  0  2  0  0  0  0  0  0  0  0  0
   24.8674  -12.1222  -18.1738 N   0  0  0  0  0  0  0  0  0  0  0  0
   23.8110  -10.0606  -17.5933 C   0  0  0  0  0  0  0  0  0  0  0  0
   24.9150   -9.4418  -17.4097 O   0  0  0  0  0  0  0  0  0  0  0  0
   22.5860  -14.0663  -16.4012 C   0  0  0  0  0  0  0  0  0  0  0  0
   22.3744  -15.4401  -16.2286 C   0  0  0  0  0  0  0  0  0  0  0  0
   20.9589   -8.0593  -19.7652 C   0  0  0  0  0  0  0  0  0  0  0  0
   22.3216   -7.5066  -19.4913 C   0  0  2  0  0  0  0  0  0  0  0  0
   23.2712   -8.1167  -20.5112 C   0  0  0  0  0  0  0  0  0  0  0  0
   22.8097   -7.7824  -18.0736 C   0  0  2  0  0  0  0  0  0  0  0  0
   22.7201   -9.2591  -17.9512 N   0  0  0  0  0  0  0  0  0  0  0  0
   22.0101   -7.1375  -17.0348 C   0  0  0  0  0  0  0  0  0  0  0  0
   21.1653   -7.8072  -16.3378 O   0  0  0  0  0  0  0  0  0  0  0  0
   21.1597   -5.2443  -13.2011 O   0  0  0  0  0  0  0  0  0  0  0  0
   21.7987   -5.8352  -14.2878 C   0  0  0  0  0  0  0  0  0  0  0  0
   21.3565   -5.2068  -15.5933 C   0  0  2  0  0  0  0  0  0  0  0  0
   22.1017   -5.7596  -16.7185 N   0  0  0  0  0  0  0  0  0  0  0  0
   21.4771   -3.7315  -15.5399 C   0  0  0  0  0  0  0  0  0  0  0  0
   20.5931   -2.9811  -14.7983 O   0  0  0  0  0  0  0  0  0  0  0  0
   22.3872   -3.1416  -16.1700 O   0  0  0  0  0  0  0  0  0  0  0  0
  2  3  2  0
  2  1  1  0
  4  3  1  0
  5  4  2  0
  6  5  1  0
  7  6  1  0
  7  9  1  0
  7  8  1  6
  9 17  1  0
  9 10  2  0
 11  5  1  0
 11 12  2  0
 12  2  1  0
 14 13  1  1
 14 15  1  0
 16 14  1  0
 16 17  1  1
 18 16  1  0
 18 19  2  0
 20 21  1  0
 22 21  1  1
 22 23  1  0
 23 18  1  0
 24 22  1  0
 25 24  1  0
 26 24  2  0
M  END
$$$$
