YVS.pdb
     RDKit          3D

 26 26  0  0  1  0  0  0  0  0999 V2000
   19.0475  -12.9179  -24.0753 O   0  0  0  0  0  0  0  0  0  0  0  0
   19.0909  -12.2560  -22.8554 C   0  0  0  0  0  0  0  0  0  0  0  0
   20.2877  -12.1456  -22.1665 C   0  0  0  0  0  0  0  0  0  0  0  0
   20.3799  -11.5042  -20.9637 C   0  0  0  0  0  0  0  0  0  0  0  0
   19.2640  -10.9244  -20.3659 C   0  0  0  0  0  0  0  0  0  0  0  0
   19.3082  -10.2277  -19.0891 C   0  0  0  0  0  0  0  0  0  0  0  0
   19.5921  -11.0921  -17.8879 C   0  0  2  0  0  0  0  0  0  0  0  0
   18.5311  -12.0720  -17.6850 N   0  0  0  0  0  0  0  0  0  0  0  0
   19.7797  -10.3287  -16.6335 C   0  0  0  0  0  0  0  0  0  0  0  0
   18.7622  -10.0535  -15.9092 O   0  0  0  0  0  0  0  0  0  0  0  0
   18.0710  -11.0292  -21.0431 C   0  0  0  0  0  0  0  0  0  0  0  0
   17.9765  -11.6868  -22.2762 C   0  0  0  0  0  0  0  0  0  0  0  0
   22.6272   -9.3029  -12.8207 C   0  0  0  0  0  0  0  0  0  0  0  0
   22.2621   -9.9024  -14.1416 C   0  0  2  0  0  0  0  0  0  0  0  0
   23.5240   -9.9299  -14.9908 C   0  0  0  0  0  0  0  0  0  0  0  0
   21.1501   -9.1461  -14.8596 C   0  0  2  0  0  0  0  0  0  0  0  0
   21.0098   -9.8670  -16.1496 N   0  0  0  0  0  0  0  0  0  0  0  0
   21.4486   -7.7357  -15.0960 C   0  0  0  0  0  0  0  0  0  0  0  0
   22.2934   -7.3790  -15.9944 O   0  0  0  0  0  0  0  0  0  0  0  0
   20.3561   -3.0702  -14.9176 O   0  0  0  0  0  0  0  0  0  0  0  0
   20.0002   -4.3971  -14.6916 C   0  0  0  0  0  0  0  0  0  0  0  0
   21.2214   -5.2919  -14.6387 C   0  0  2  0  0  0  0  0  0  0  0  0
   20.8445   -6.6760  -14.3754 N   0  0  0  0  0  0  0  0  0  0  0  0
   22.1972   -4.7997  -13.6389 C   0  0  0  0  0  0  0  0  0  0  0  0
   22.2681   -5.3687  -12.3876 O   0  0  0  0  0  0  0  0  0  0  0  0
   22.9753   -3.8558  -13.9164 O   0  0  0  0  0  0  0  0  0  0  0  0
  2  3  2  0
  2  1  1  0
  4  3  1  0
  5  4  2  0
  6  5  1  0
  7  6  1  0
  7  9  1  0
  7  8  1  1
  9 17  1  0
  9 10  2  0
 11  5  1  0
 11 12  2  0
 12  2  1  0
 14 13  1  1
 14 15  1  0
 16 14  1  0
 16 17  1  6
 18 16  1  0
 18 19  2  0
 20 21  1  0
 22 21  1  1
 22 23  1  0
 23 18  1  0
 24 22  1  0
 25 24  1  0
 26 24  2  0
M  END
$$$$
