YVS.pdb
     RDKit          3D

 26 26  0  0  1  0  0  0  0  0999 V2000
   15.0327  -27.0290  -17.7576 O   0  0  0  0  0  0  0  0  0  0  0  0
   15.6799  -26.9229  -16.5337 C   0  0  0  0  0  0  0  0  0  0  0  0
   15.2584  -25.9871  -15.6031 C   0  0  0  0  0  0  0  0  0  0  0  0
   15.8635  -25.8456  -14.3864 C   0  0  0  0  0  0  0  0  0  0  0  0
   16.9441  -26.6430  -14.0189 C   0  0  0  0  0  0  0  0  0  0  0  0
   17.6216  -26.5354  -12.7356 C   0  0  0  0  0  0  0  0  0  0  0  0
   18.3422  -25.2350  -12.4895 C   0  0  2  0  0  0  0  0  0  0  0  0
   19.4301  -25.0503  -13.4429 N   0  0  0  0  0  0  0  0  0  0  0  0
   18.8848  -25.1028  -11.1185 C   0  0  0  0  0  0  0  0  0  0  0  0
   20.1312  -24.8659  -10.9579 O   0  0  0  0  0  0  0  0  0  0  0  0
   17.3695  -27.5752  -14.9370 C   0  0  0  0  0  0  0  0  0  0  0  0
   16.7492  -27.7203  -16.1845 C   0  0  0  0  0  0  0  0  0  0  0  0
   17.6840  -22.6174   -8.6824 C   0  0  0  0  0  0  0  0  0  0  0  0
   18.9421  -23.4242   -8.6225 C   0  0  2  0  0  0  0  0  0  0  0  0
   19.7830  -23.0425   -9.8313 C   0  0  0  0  0  0  0  0  0  0  0  0
   18.6926  -24.9280   -8.5974 C   0  0  2  0  0  0  0  0  0  0  0  0
   18.1334  -25.2147   -9.9423 N   0  0  0  0  0  0  0  0  0  0  0  0
   17.7604  -25.3576   -7.5578 C   0  0  0  0  0  0  0  0  0  0  0  0
   16.4932  -25.3577   -7.7635 O   0  0  0  0  0  0  0  0  0  0  0  0
   19.0340  -26.4452   -3.7734 O   0  0  0  0  0  0  0  0  0  0  0  0
   17.8078  -26.9808   -4.1580 C   0  0  0  0  0  0  0  0  0  0  0  0
   17.1773  -26.1672   -5.2694 C   0  0  2  0  0  0  0  0  0  0  0  0
   18.1676  -25.7996   -6.2749 N   0  0  0  0  0  0  0  0  0  0  0  0
   16.4901  -24.9719   -4.7279 C   0  0  0  0  0  0  0  0  0  0  0  0
   15.3869  -25.1039   -3.9154 O   0  0  0  0  0  0  0  0  0  0  0  0
   16.9026  -23.8192   -5.0010 O   0  0  0  0  0  0  0  0  0  0  0  0
  2  3  2  0
  2  1  1  0
  4  3  1  0
  5  4  2  0
  6  5  1  0
  7  6  1  0
  7  9  1  0
  7  8  1  6
  9 17  1  0
  9 10  2  0
 11  5  1  0
 11 12  2  0
 12  2  1  0
 14 13  1  6
 14 15  1  0
 16 14  1  0
 16 17  1  6
 18 16  1  0
 18 19  2  0
 20 21  1  0
 22 21  1  1
 22 23  1  0
 23 18  1  0
 24 22  1  0
 25 24  1  0
 26 24  2  0
M  END
$$$$
