YVS.pdb
     RDKit          3D

 26 26  0  0  1  0  0  0  0  0999 V2000
   15.0020  -11.8575  -22.7080 O   0  0  0  0  0  0  0  0  0  0  0  0
   15.7155  -11.3789  -21.6172 C   0  0  0  0  0  0  0  0  0  0  0  0
   15.0658  -10.6763  -20.6154 C   0  0  0  0  0  0  0  0  0  0  0  0
   15.7249  -10.1861  -19.5238 C   0  0  0  0  0  0  0  0  0  0  0  0
   17.0956  -10.3709  -19.3633 C   0  0  0  0  0  0  0  0  0  0  0  0
   17.8444   -9.8728  -18.2193 C   0  0  0  0  0  0  0  0  0  0  0  0
   18.3317  -10.9237  -17.2555 C   0  0  2  0  0  0  0  0  0  0  0  0
   17.2145  -11.6548  -16.6687 N   0  0  0  0  0  0  0  0  0  0  0  0
   19.1745  -10.3875  -16.1629 C   0  0  0  0  0  0  0  0  0  0  0  0
   18.6266  -10.0452  -15.0591 O   0  0  0  0  0  0  0  0  0  0  0  0
   17.7491  -11.0677  -20.3533 C   0  0  0  0  0  0  0  0  0  0  0  0
   17.0734  -11.5702  -21.4726 C   0  0  0  0  0  0  0  0  0  0  0  0
   23.4566  -10.1392  -13.8533 C   0  0  0  0  0  0  0  0  0  0  0  0
   22.5087  -10.5689  -14.9276 C   0  0  2  0  0  0  0  0  0  0  0  0
   23.3146  -10.7193  -16.2091 C   0  0  0  0  0  0  0  0  0  0  0  0
   21.3518   -9.5978  -15.1339 C   0  0  2  0  0  0  0  0  0  0  0  0
   20.5627  -10.2171  -16.2281 N   0  0  0  0  0  0  0  0  0  0  0  0
   21.7690   -8.2490  -15.5094 C   0  0  0  0  0  0  0  0  0  0  0  0
   22.0572   -7.9596  -16.7265 O   0  0  0  0  0  0  0  0  0  0  0  0
   21.1971   -4.0191  -16.3372 O   0  0  0  0  0  0  0  0  0  0  0  0
   21.0260   -5.3537  -15.9796 C   0  0  0  0  0  0  0  0  0  0  0  0
   22.1322   -5.8210  -15.0561 C   0  0  2  0  0  0  0  0  0  0  0  0
   21.8832   -7.1794  -14.5874 N   0  0  0  0  0  0  0  0  0  0  0  0
   22.3087   -4.8839  -13.9227 C   0  0  0  0  0  0  0  0  0  0  0  0
   22.9114   -3.6607  -14.1101 O   0  0  0  0  0  0  0  0  0  0  0  0
   21.9116   -5.1898  -12.7728 O   0  0  0  0  0  0  0  0  0  0  0  0
  2  3  2  0
  2  1  1  0
  4  3  1  0
  5  4  2  0
  6  5  1  0
  7  6  1  0
  7  9  1  0
  7  8  1  1
  9 17  1  0
  9 10  2  0
 11  5  1  0
 11 12  2  0
 12  2  1  0
 14 13  1  1
 14 15  1  0
 16 14  1  0
 16 17  1  6
 18 16  1  0
 18 19  2  0
 20 21  1  0
 22 21  1  1
 22 23  1  0
 23 18  1  0
 24 22  1  0
 25 24  1  0
 26 24  2  0
M  END
$$$$
