YVS.pdb
     RDKit          3D

 26 26  0  0  1  0  0  0  0  0999 V2000
   17.1049  -16.2026  -17.3680 O   0  0  0  0  0  0  0  0  0  0  0  0
   18.1784  -16.9293  -16.8703 C   0  0  0  0  0  0  0  0  0  0  0  0
   19.4011  -16.3111  -16.6650 C   0  0  0  0  0  0  0  0  0  0  0  0
   20.4854  -16.9843  -16.1776 C   0  0  0  0  0  0  0  0  0  0  0  0
   20.4135  -18.3382  -15.8603 C   0  0  0  0  0  0  0  0  0  0  0  0
   21.5365  -19.1006  -15.3358 C   0  0  0  0  0  0  0  0  0  0  0  0
   22.6893  -19.2951  -16.2866 C   0  0  2  0  0  0  0  0  0  0  0  0
   22.2932  -20.1081  -17.4307 N   0  0  0  0  0  0  0  0  0  0  0  0
   23.8835  -19.9061  -15.6606 C   0  0  0  0  0  0  0  0  0  0  0  0
   23.9451  -21.1776  -15.5372 O   0  0  0  0  0  0  0  0  0  0  0  0
   19.2030  -18.9603  -16.0611 C   0  0  0  0  0  0  0  0  0  0  0  0
   18.0912  -18.2701  -16.5608 C   0  0  0  0  0  0  0  0  0  0  0  0
   27.4589  -17.7647  -14.9323 C   0  0  0  0  0  0  0  0  0  0  0  0
   27.3551  -19.2456  -15.1151 C   0  0  2  0  0  0  0  0  0  0  0  0
   27.3562  -19.5184  -16.6117 C   0  0  0  0  0  0  0  0  0  0  0  0
   26.1160  -19.8477  -14.4623 C   0  0  2  0  0  0  0  0  0  0  0  0
   24.9896  -19.1967  -15.1771 N   0  0  0  0  0  0  0  0  0  0  0  0
   26.0197  -19.5954  -13.0265 C   0  0  0  0  0  0  0  0  0  0  0  0
   25.8062  -18.4128  -12.5748 O   0  0  0  0  0  0  0  0  0  0  0  0
   23.9018  -21.3608  -10.4689 O   0  0  0  0  0  0  0  0  0  0  0  0
   24.5895  -20.1804  -10.2004 C   0  0  0  0  0  0  0  0  0  0  0  0
   26.0399  -20.2807  -10.6260 C   0  0  2  0  0  0  0  0  0  0  0  0
   26.1476  -20.6073  -12.0433 N   0  0  0  0  0  0  0  0  0  0  0  0
   26.7717  -21.2604   -9.7903 C   0  0  0  0  0  0  0  0  0  0  0  0
   26.7401  -21.1743   -8.4169 O   0  0  0  0  0  0  0  0  0  0  0  0
   27.4326  -22.1852  -10.3207 O   0  0  0  0  0  0  0  0  0  0  0  0
  2  3  2  0
  2  1  1  0
  4  3  1  0
  5  4  2  0
  6  5  1  0
  7  6  1  0
  7  9  1  0
  7  8  1  6
  9 17  1  0
  9 10  2  0
 11  5  1  0
 11 12  2  0
 12  2  1  0
 14 13  1  6
 14 15  1  0
 16 14  1  0
 16 17  1  6
 18 16  1  0
 18 19  2  0
 20 21  1  0
 22 21  1  1
 22 23  1  0
 23 18  1  0
 24 22  1  0
 25 24  1  0
 26 24  2  0
M  END
$$$$
