DWP.pdb
     RDKit          3D

 30 32  0  0  1  0  0  0  0  0999 V2000
   11.4139  -16.5528   19.8673 N   0  0  0  0  0  0  0  0  0  0  0  0
   11.6536  -17.0237   21.2053 C   0  0  1  0  0  0  0  0  0  0  0  0
   13.1049  -17.3009   21.4935 C   0  0  0  0  0  0  0  0  0  0  0  0
   13.9038  -17.6576   20.3180 C   0  0  0  0  0  0  0  0  0  0  0  0
   14.0842  -18.8439   19.9834 O   0  0  0  0  0  0  0  0  0  0  0  0
   11.0246  -16.1544   22.2309 C   0  0  0  0  0  0  0  0  0  0  0  0
   11.0415  -14.9043   22.1108 O   0  0  0  0  0  0  0  0  0  0  0  0
   14.4722  -16.6544   19.5598 O   0  0  0  0  0  0  0  0  0  0  0  0
   10.3816  -16.6871   23.3889 N   0  0  0  0  0  0  0  0  0  0  0  0
    9.7126  -15.8409   24.3497 C   0  0  1  0  0  0  0  0  0  0  0  0
    8.2448  -15.8193   24.0769 C   0  0  0  0  0  0  0  0  0  0  0  0
    7.4212  -15.0073   24.9724 C   0  0  0  0  0  0  0  0  0  0  0  0
    6.6260  -15.5086   26.0184 C   0  0  0  0  0  0  0  0  0  0  0  0
    5.9722  -14.5443   26.6362 N   0  0  0  0  0  0  0  0  0  0  0  0
    6.3167  -13.3962   26.0211 C   0  0  0  0  0  0  0  0  0  0  0  0
    5.8960  -12.1241   26.3253 C   0  0  0  0  0  0  0  0  0  0  0  0
    6.3822  -11.0691   25.5786 C   0  0  0  0  0  0  0  0  0  0  0  0
    7.2704  -11.3070   24.5535 C   0  0  0  0  0  0  0  0  0  0  0  0
    7.6847  -12.5815   24.2563 C   0  0  0  0  0  0  0  0  0  0  0  0
    7.2084  -13.6523   24.9925 C   0  0  0  0  0  0  0  0  0  0  0  0
   10.0008  -16.4196   25.7151 C   0  0  0  0  0  0  0  0  0  0  0  0
    9.8534  -17.6645   25.8307 O   0  0  0  0  0  0  0  0  0  0  0  0
   10.4055  -15.6730   26.8048 N   0  0  0  0  0  0  0  0  0  0  0  0
   10.6346  -14.2141   26.7569 C   0  0  0  0  0  0  0  0  0  0  0  0
    9.8071  -13.8080   27.9567 C   0  0  0  0  0  0  0  0  0  0  0  0
    9.8952  -14.9805   28.9152 C   0  0  0  0  0  0  0  0  0  0  0  0
   10.7675  -16.0027   28.1218 C   0  0  1  0  0  0  0  0  0  0  0  0
   10.5554  -17.3344   28.6502 C   0  0  0  0  0  0  0  0  0  0  0  0
    9.4062  -18.0065   28.1382 O   0  0  0  0  0  0  0  0  0  0  0  0
   11.2055  -17.9695   29.4641 O   0  0  0  0  0  0  0  0  0  0  0  0
  2  1  1  6
  3  2  1  0
  3  4  1  0
  4  5  2  0
  6  2  1  0
  6  7  2  0
  8  4  1  0
  9  6  1  0
 10  9  1  0
 10 11  1  6
 12 13  2  0
 12 11  1  0
 14 13  1  0
 15 20  2  0
 15 14  1  0
 16 15  1  0
 17 18  1  0
 17 16  2  0
 18 19  2  0
 19 20  1  0
 20 12  1  0
 21 10  1  0
 22 21  2  0
 23 27  1  0
 23 21  1  0
 24 23  1  0
 25 24  1  0
 25 26  1  0
 26 27  1  0
 28 29  1  0
 27 28  1  1
 30 28  2  0
M  END
$$$$
