DWP.pdb
     RDKit          3D

 30 32  0  0  1  0  0  0  0  0999 V2000
   11.2205  -18.0811   20.8764 N   0  0  0  0  0  0  0  0  0  0  0  0
   12.0743  -16.9977   21.2846 C   0  0  1  0  0  0  0  0  0  0  0  0
   12.6103  -16.1889   20.1337 C   0  0  0  0  0  0  0  0  0  0  0  0
   13.2081  -16.9817   19.0561 C   0  0  0  0  0  0  0  0  0  0  0  0
   12.8700  -16.8313   17.8665 O   0  0  0  0  0  0  0  0  0  0  0  0
   11.4515  -16.1527   22.3340 C   0  0  0  0  0  0  0  0  0  0  0  0
   11.8840  -14.9971   22.5684 O   0  0  0  0  0  0  0  0  0  0  0  0
   14.1715  -17.9204   19.3646 O   0  0  0  0  0  0  0  0  0  0  0  0
   10.3486  -16.6051   23.1196 N   0  0  0  0  0  0  0  0  0  0  0  0
    9.6867  -15.7471   24.0747 C   0  0  1  0  0  0  0  0  0  0  0  0
    8.2297  -15.6603   23.7599 C   0  0  0  0  0  0  0  0  0  0  0  0
    7.3880  -14.9592   24.7292 C   0  0  0  0  0  0  0  0  0  0  0  0
    6.4650  -15.5736   25.5942 C   0  0  0  0  0  0  0  0  0  0  0  0
    5.8287  -14.6869   26.3343 N   0  0  0  0  0  0  0  0  0  0  0  0
    6.3111  -13.4797   25.9809 C   0  0  0  0  0  0  0  0  0  0  0  0
    5.9576  -12.2541   26.4916 C   0  0  0  0  0  0  0  0  0  0  0  0
    6.5862  -11.1260   26.0023 C   0  0  0  0  0  0  0  0  0  0  0  0
    7.5458  -11.2471   25.0221 C   0  0  0  0  0  0  0  0  0  0  0  0
    7.8922  -12.4757   24.5173 C   0  0  0  0  0  0  0  0  0  0  0  0
    7.2732  -13.6181   24.9940 C   0  0  0  0  0  0  0  0  0  0  0  0
    9.9103  -16.3584   25.4379 C   0  0  0  0  0  0  0  0  0  0  0  0
    9.7354  -17.6023   25.5218 O   0  0  0  0  0  0  0  0  0  0  0  0
   10.2857  -15.6418   26.5578 N   0  0  0  0  0  0  0  0  0  0  0  0
   10.6935  -14.2221   26.5214 C   0  0  0  0  0  0  0  0  0  0  0  0
    9.8000  -13.6939   27.6221 C   0  0  0  0  0  0  0  0  0  0  0  0
    9.6442  -14.8471   28.5952 C   0  0  0  0  0  0  0  0  0  0  0  0
   10.4647  -15.9834   27.9089 C   0  0  1  0  0  0  0  0  0  0  0  0
   10.0385  -17.2683   28.4237 C   0  0  0  0  0  0  0  0  0  0  0  0
   10.8027  -17.7563   29.5247 O   0  0  0  0  0  0  0  0  0  0  0  0
    9.1293  -17.9971   28.0624 O   0  0  0  0  0  0  0  0  0  0  0  0
  2  1  1  6
  3  2  1  0
  3  4  1  0
  4  5  2  0
  6  2  1  0
  6  7  2  0
  8  4  1  0
  9  6  1  0
 10  9  1  0
 10 11  1  6
 12 13  2  0
 12 11  1  0
 14 13  1  0
 15 20  2  0
 15 14  1  0
 16 15  1  0
 17 18  1  0
 17 16  2  0
 18 19  2  0
 19 20  1  0
 20 12  1  0
 21 10  1  0
 22 21  2  0
 23 27  1  0
 23 21  1  0
 24 23  1  0
 25 24  1  0
 25 26  1  0
 26 27  1  0
 28 29  1  0
 27 28  1  6
 30 28  2  0
M  END
$$$$
