DWP.pdb
     RDKit          3D

 30 32  0  0  1  0  0  0  0  0999 V2000
   10.5703  -16.4990   20.5595 N   0  0  0  0  0  0  0  0  0  0  0  0
   11.3021  -16.9365   21.7182 C   0  0  1  0  0  0  0  0  0  0  0  0
   12.7952  -16.9195   21.5273 C   0  0  0  0  0  0  0  0  0  0  0  0
   13.2738  -17.7015   20.3843 C   0  0  0  0  0  0  0  0  0  0  0  0
   13.9934  -17.1980   19.5008 O   0  0  0  0  0  0  0  0  0  0  0  0
   10.8771  -16.2318   22.9534 C   0  0  0  0  0  0  0  0  0  0  0  0
   11.2184  -15.0414   23.1632 O   0  0  0  0  0  0  0  0  0  0  0  0
   12.9195  -19.0313   20.2816 O   0  0  0  0  0  0  0  0  0  0  0  0
   10.0744  -16.8627   23.9513 N   0  0  0  0  0  0  0  0  0  0  0  0
    9.5811  -16.1442   25.1032 C   0  0  1  0  0  0  0  0  0  0  0  0
    8.0885  -16.1768   25.1252 C   0  0  0  0  0  0  0  0  0  0  0  0
    7.3975  -14.9653   24.6842 C   0  0  0  0  0  0  0  0  0  0  0  0
    7.0355  -14.6775   23.3561 C   0  0  0  0  0  0  0  0  0  0  0  0
    6.4512  -13.4995   23.2566 N   0  0  0  0  0  0  0  0  0  0  0  0
    6.4128  -12.9873   24.5021 C   0  0  0  0  0  0  0  0  0  0  0  0
    5.8834  -11.7822   24.8962 C   0  0  0  0  0  0  0  0  0  0  0  0
    5.9286  -11.4446   26.2346 C   0  0  0  0  0  0  0  0  0  0  0  0
    6.4967  -12.3116   27.1412 C   0  0  0  0  0  0  0  0  0  0  0  0
    7.0237  -13.5133   26.7381 C   0  0  0  0  0  0  0  0  0  0  0  0
    6.9889  -13.8696   25.4013 C   0  0  0  0  0  0  0  0  0  0  0  0
   10.1552  -16.8278   26.3219 C   0  0  0  0  0  0  0  0  0  0  0  0
    9.9899  -18.0742   26.3864 O   0  0  0  0  0  0  0  0  0  0  0  0
   10.8307  -16.1726   27.3333 N   0  0  0  0  0  0  0  0  0  0  0  0
   11.3603  -14.7991   27.2068 C   0  0  0  0  0  0  0  0  0  0  0  0
   10.7797  -14.2071   28.4723 C   0  0  0  0  0  0  0  0  0  0  0  0
   10.7220  -15.3579   29.4590 C   0  0  0  0  0  0  0  0  0  0  0  0
   11.2597  -16.5556   28.6153 C   0  0  1  0  0  0  0  0  0  0  0  0
   10.8280  -17.8023   29.2127 C   0  0  0  0  0  0  0  0  0  0  0  0
    9.6022  -18.3203   28.6993 O   0  0  0  0  0  0  0  0  0  0  0  0
   11.3486  -18.4771   30.0857 O   0  0  0  0  0  0  0  0  0  0  0  0
  2  1  1  6
  3  2  1  0
  3  4  1  0
  4  5  2  0
  6  2  1  0
  6  7  2  0
  8  4  1  0
  9  6  1  0
 10  9  1  0
 10 11  1  1
 12 13  2  0
 12 11  1  0
 14 13  1  0
 15 20  2  0
 15 14  1  0
 16 15  1  0
 17 18  1  0
 17 16  2  0
 18 19  2  0
 19 20  1  0
 20 12  1  0
 21 10  1  0
 22 21  2  0
 23 27  1  0
 23 21  1  0
 24 23  1  0
 25 24  1  0
 25 26  1  0
 26 27  1  0
 28 29  1  0
 27 28  1  1
 30 28  2  0
M  END
$$$$
