DWP.pdb
     RDKit          3D

 30 32  0  0  1  0  0  0  0  0999 V2000
   10.3177  -16.7124   20.6244 N   0  0  0  0  0  0  0  0  0  0  0  0
   11.1899  -16.9695   21.7391 C   0  0  1  0  0  0  0  0  0  0  0  0
   12.6476  -16.7732   21.4188 C   0  0  0  0  0  0  0  0  0  0  0  0
   13.1591  -17.6336   20.3485 C   0  0  0  0  0  0  0  0  0  0  0  0
   13.5269  -17.1684   19.2530 O   0  0  0  0  0  0  0  0  0  0  0  0
   10.7718  -16.2408   22.9627 C   0  0  0  0  0  0  0  0  0  0  0  0
   11.1024  -15.0423   23.1407 O   0  0  0  0  0  0  0  0  0  0  0  0
   13.2364  -18.9955   20.5574 O   0  0  0  0  0  0  0  0  0  0  0  0
    9.9878  -16.8569   23.9844 N   0  0  0  0  0  0  0  0  0  0  0  0
    9.5355  -16.1273   25.1461 C   0  0  1  0  0  0  0  0  0  0  0  0
    8.0441  -16.1494   25.2148 C   0  0  0  0  0  0  0  0  0  0  0  0
    7.3434  -14.9844   24.6749 C   0  0  0  0  0  0  0  0  0  0  0  0
    6.8303  -14.8811   23.3696 C   0  0  0  0  0  0  0  0  0  0  0  0
    6.2763  -13.7034   23.1575 N   0  0  0  0  0  0  0  0  0  0  0  0
    6.4078  -13.0089   24.3045 C   0  0  0  0  0  0  0  0  0  0  0  0
    5.9698  -11.7332   24.5661 C   0  0  0  0  0  0  0  0  0  0  0  0
    6.1900  -11.2014   25.8214 C   0  0  0  0  0  0  0  0  0  0  0  0
    6.8371  -11.9501   26.7790 C   0  0  0  0  0  0  0  0  0  0  0  0
    7.2718  -13.2238   26.5084 C   0  0  0  0  0  0  0  0  0  0  0  0
    7.0614  -13.7743   25.2562 C   0  0  0  0  0  0  0  0  0  0  0  0
   10.1427  -16.8067   26.3511 C   0  0  0  0  0  0  0  0  0  0  0  0
   10.0532  -18.0620   26.3820 O   0  0  0  0  0  0  0  0  0  0  0  0
   10.7708  -16.1385   27.3844 N   0  0  0  0  0  0  0  0  0  0  0  0
   11.1809  -14.7209   27.3118 C   0  0  0  0  0  0  0  0  0  0  0  0
   10.5654  -14.2329   28.6049 C   0  0  0  0  0  0  0  0  0  0  0  0
   10.6155  -15.4240   29.5429 C   0  0  0  0  0  0  0  0  0  0  0  0
   11.2439  -16.5359   28.6463 C   0  0  1  0  0  0  0  0  0  0  0  0
   10.9254  -17.8384   29.1940 C   0  0  0  0  0  0  0  0  0  0  0  0
    9.7086  -18.4085   28.7159 O   0  0  0  0  0  0  0  0  0  0  0  0
   11.5349  -18.5223   29.9998 O   0  0  0  0  0  0  0  0  0  0  0  0
  2  1  1  6
  3  2  1  0
  3  4  1  0
  4  5  2  0
  6  2  1  0
  6  7  2  0
  8  4  1  0
  9  6  1  0
 10  9  1  0
 10 11  1  1
 12 13  2  0
 12 11  1  0
 14 13  1  0
 15 20  2  0
 15 14  1  0
 16 15  1  0
 17 18  1  0
 17 16  2  0
 18 19  2  0
 19 20  1  0
 20 12  1  0
 21 10  1  0
 22 21  2  0
 23 27  1  0
 23 21  1  0
 24 23  1  0
 25 24  1  0
 25 26  1  0
 26 27  1  0
 28 29  1  0
 27 28  1  1
 30 28  2  0
M  END
$$$$
