DWP.pdb
     RDKit          3D

 30 32  0  0  1  0  0  0  0  0999 V2000
   10.6620  -16.3642   20.4924 N   0  0  0  0  0  0  0  0  0  0  0  0
   11.2852  -16.8625   21.6893 C   0  0  1  0  0  0  0  0  0  0  0  0
   12.7867  -16.9262   21.6029 C   0  0  0  0  0  0  0  0  0  0  0  0
   13.3010  -17.7682   20.5196 C   0  0  0  0  0  0  0  0  0  0  0  0
   13.7950  -17.2780   19.4864 O   0  0  0  0  0  0  0  0  0  0  0  0
   10.8135  -16.1570   22.9071 C   0  0  0  0  0  0  0  0  0  0  0  0
   10.9625  -14.9157   23.0281 O   0  0  0  0  0  0  0  0  0  0  0  0
   13.2377  -19.1411   20.6450 O   0  0  0  0  0  0  0  0  0  0  0  0
   10.1796  -16.8434   23.9865 N   0  0  0  0  0  0  0  0  0  0  0  0
    9.5913  -16.1379   25.1013 C   0  0  1  0  0  0  0  0  0  0  0  0
    8.1032  -16.2481   25.0478 C   0  0  0  0  0  0  0  0  0  0  0  0
    7.3702  -15.0557   24.6228 C   0  0  0  0  0  0  0  0  0  0  0  0
    6.8358  -14.8486   23.3386 C   0  0  0  0  0  0  0  0  0  0  0  0
    6.2540  -13.6694   23.2393 N   0  0  0  0  0  0  0  0  0  0  0  0
    6.3878  -13.0765   24.4417 C   0  0  0  0  0  0  0  0  0  0  0  0
    5.9269  -11.8391   24.8214 C   0  0  0  0  0  0  0  0  0  0  0  0
    6.1544  -11.4159   26.1161 C   0  0  0  0  0  0  0  0  0  0  0  0
    6.8313  -12.2319   26.9948 C   0  0  0  0  0  0  0  0  0  0  0  0
    7.2886  -13.4666   26.6064 C   0  0  0  0  0  0  0  0  0  0  0  0
    7.0714  -13.9085   25.3130 C   0  0  0  0  0  0  0  0  0  0  0  0
   10.1363  -16.7762   26.3574 C   0  0  0  0  0  0  0  0  0  0  0  0
    9.9534  -18.0165   26.4718 O   0  0  0  0  0  0  0  0  0  0  0  0
   10.8038  -16.0870   27.3514 N   0  0  0  0  0  0  0  0  0  0  0  0
   11.3238  -14.7138   27.1867 C   0  0  0  0  0  0  0  0  0  0  0  0
   10.7350  -14.0897   28.4327 C   0  0  0  0  0  0  0  0  0  0  0  0
   10.6823  -15.2118   29.4522 C   0  0  0  0  0  0  0  0  0  0  0  0
   11.2314  -16.4295   28.6452 C   0  0  1  0  0  0  0  0  0  0  0  0
   10.8068  -17.6615   29.2773 C   0  0  0  0  0  0  0  0  0  0  0  0
    9.5645  -18.1799   28.8058 O   0  0  0  0  0  0  0  0  0  0  0  0
   11.3453  -18.3235   30.1492 O   0  0  0  0  0  0  0  0  0  0  0  0
  2  1  1  6
  3  2  1  0
  3  4  1  0
  4  5  2  0
  6  2  1  0
  6  7  2  0
  8  4  1  0
  9  6  1  0
 10  9  1  0
 10 11  1  1
 12 13  2  0
 12 11  1  0
 14 13  1  0
 15 20  2  0
 15 14  1  0
 16 15  1  0
 17 18  1  0
 17 16  2  0
 18 19  2  0
 19 20  1  0
 20 12  1  0
 21 10  1  0
 22 21  2  0
 23 27  1  0
 23 21  1  0
 24 23  1  0
 25 24  1  0
 25 26  1  0
 26 27  1  0
 28 29  1  0
 27 28  1  1
 30 28  2  0
M  END
$$$$
