DWP.pdb
     RDKit          3D

 30 32  0  0  1  0  0  0  0  0999 V2000
   10.5098  -16.2069   20.5927 N   0  0  0  0  0  0  0  0  0  0  0  0
   11.0152  -16.8792   21.7598 C   0  0  1  0  0  0  0  0  0  0  0  0
   12.4912  -17.1678   21.6947 C   0  0  0  0  0  0  0  0  0  0  0  0
   12.8962  -18.0322   20.5830 C   0  0  0  0  0  0  0  0  0  0  0  0
   12.3747  -19.1482   20.3968 O   0  0  0  0  0  0  0  0  0  0  0  0
   10.6224  -16.1975   23.0183 C   0  0  0  0  0  0  0  0  0  0  0  0
   10.8929  -14.9850   23.2031 O   0  0  0  0  0  0  0  0  0  0  0  0
   13.8810  -17.6008   19.7179 O   0  0  0  0  0  0  0  0  0  0  0  0
    9.9310  -16.8759   24.0671 N   0  0  0  0  0  0  0  0  0  0  0  0
    9.4664  -16.1862   25.2482 C   0  0  1  0  0  0  0  0  0  0  0  0
    7.9743  -16.2096   25.2999 C   0  0  0  0  0  0  0  0  0  0  0  0
    7.2790  -15.0419   24.7591 C   0  0  0  0  0  0  0  0  0  0  0  0
    6.7351  -14.9505   23.4655 C   0  0  0  0  0  0  0  0  0  0  0  0
    6.1947  -13.7673   23.2485 N   0  0  0  0  0  0  0  0  0  0  0  0
    6.3659  -13.0574   24.3806 C   0  0  0  0  0  0  0  0  0  0  0  0
    5.9549  -11.7707   24.6327 C   0  0  0  0  0  0  0  0  0  0  0  0
    6.2149  -11.2232   25.8736 C   0  0  0  0  0  0  0  0  0  0  0  0
    6.8738  -11.9675   26.8266 C   0  0  0  0  0  0  0  0  0  0  0  0
    7.2812  -13.2521   26.5656 C   0  0  0  0  0  0  0  0  0  0  0  0
    7.0309  -13.8185   25.3279 C   0  0  0  0  0  0  0  0  0  0  0  0
   10.0603  -16.9068   26.4357 C   0  0  0  0  0  0  0  0  0  0  0  0
    9.8943  -18.1544   26.4653 O   0  0  0  0  0  0  0  0  0  0  0  0
   10.7540  -16.2831   27.4547 N   0  0  0  0  0  0  0  0  0  0  0  0
   11.2886  -14.9090   27.3583 C   0  0  0  0  0  0  0  0  0  0  0  0
   10.7298  -14.3498   28.6483 C   0  0  0  0  0  0  0  0  0  0  0  0
   10.6808  -15.5273   29.6035 C   0  0  0  0  0  0  0  0  0  0  0  0
   11.1999  -16.7035   28.7190 C   0  0  1  0  0  0  0  0  0  0  0  0
   10.7708  -17.9644   29.2880 C   0  0  0  0  0  0  0  0  0  0  0  0
   11.5423  -18.4134   30.4005 O   0  0  0  0  0  0  0  0  0  0  0  0
    9.8539  -18.7011   28.9640 O   0  0  0  0  0  0  0  0  0  0  0  0
  2  1  1  6
  3  2  1  0
  3  4  1  0
  4  5  2  0
  6  2  1  0
  6  7  2  0
  8  4  1  0
  9  6  1  0
 10  9  1  0
 10 11  1  1
 12 13  2  0
 12 11  1  0
 14 13  1  0
 15 20  2  0
 15 14  1  0
 16 15  1  0
 17 18  1  0
 17 16  2  0
 18 19  2  0
 19 20  1  0
 20 12  1  0
 21 10  1  0
 22 21  2  0
 23 27  1  0
 23 21  1  0
 24 23  1  0
 25 24  1  0
 25 26  1  0
 26 27  1  0
 28 29  1  0
 27 28  1  1
 30 28  2  0
M  END
$$$$
