DWP.pdb
     RDKit          3D

 30 32  0  0  1  0  0  0  0  0999 V2000
   10.8522  -17.1684   19.9988 N   0  0  0  0  0  0  0  0  0  0  0  0
   11.7322  -16.8987   21.1044 C   0  0  1  0  0  0  0  0  0  0  0  0
   13.0736  -16.3583   20.6864 C   0  0  0  0  0  0  0  0  0  0  0  0
   13.7843  -17.1808   19.7037 C   0  0  0  0  0  0  0  0  0  0  0  0
   13.8911  -18.4148   19.8365 O   0  0  0  0  0  0  0  0  0  0  0  0
   11.0849  -16.0700   22.1519 C   0  0  0  0  0  0  0  0  0  0  0  0
   11.1733  -14.8174   22.1253 O   0  0  0  0  0  0  0  0  0  0  0  0
   14.3510  -16.5746   18.6011 O   0  0  0  0  0  0  0  0  0  0  0  0
   10.3434  -16.6460   23.2273 N   0  0  0  0  0  0  0  0  0  0  0  0
    9.6753  -15.8336   24.2173 C   0  0  1  0  0  0  0  0  0  0  0  0
    8.2022  -15.8392   23.9734 C   0  0  0  0  0  0  0  0  0  0  0  0
    7.3792  -15.0612   24.8991 C   0  0  0  0  0  0  0  0  0  0  0  0
    6.5170  -15.6041   25.8684 C   0  0  0  0  0  0  0  0  0  0  0  0
    5.8825  -14.6609   26.5367 N   0  0  0  0  0  0  0  0  0  0  0  0
    6.3062  -13.4859   26.0315 C   0  0  0  0  0  0  0  0  0  0  0  0
    5.9322  -12.2228   26.4219 C   0  0  0  0  0  0  0  0  0  0  0  0
    6.4987  -11.1371   25.7836 C   0  0  0  0  0  0  0  0  0  0  0  0
    7.4185  -11.3364   24.7783 C   0  0  0  0  0  0  0  0  0  0  0  0
    7.7857  -12.6022   24.3945 C   0  0  0  0  0  0  0  0  0  0  0  0
    7.2288  -13.7032   25.0214 C   0  0  0  0  0  0  0  0  0  0  0  0
   10.0028  -16.4320   25.5652 C   0  0  0  0  0  0  0  0  0  0  0  0
    9.9653  -17.6884   25.6366 O   0  0  0  0  0  0  0  0  0  0  0  0
   10.3312  -15.6913   26.6842 N   0  0  0  0  0  0  0  0  0  0  0  0
   10.4334  -14.2173   26.6880 C   0  0  0  0  0  0  0  0  0  0  0  0
    9.5628  -13.9257   27.8906 C   0  0  0  0  0  0  0  0  0  0  0  0
    9.7435  -15.1185   28.8103 C   0  0  0  0  0  0  0  0  0  0  0  0
   10.7083  -16.0336   27.9936 C   0  0  1  0  0  0  0  0  0  0  0  0
   10.6076  -17.3961   28.4745 C   0  0  0  0  0  0  0  0  0  0  0  0
    9.4809  -18.1222   27.9868 O   0  0  0  0  0  0  0  0  0  0  0  0
   11.3351  -18.0182   29.2309 O   0  0  0  0  0  0  0  0  0  0  0  0
  2  1  1  6
  3  2  1  0
  3  4  1  0
  4  5  2  0
  6  2  1  0
  6  7  2  0
  8  4  1  0
  9  6  1  0
 10  9  1  0
 10 11  1  6
 12 13  2  0
 12 11  1  0
 14 13  1  0
 15 20  2  0
 15 14  1  0
 16 15  1  0
 17 18  1  0
 17 16  2  0
 18 19  2  0
 19 20  1  0
 20 12  1  0
 21 10  1  0
 22 21  2  0
 23 27  1  0
 23 21  1  0
 24 23  1  0
 25 24  1  0
 25 26  1  0
 26 27  1  0
 28 29  1  0
 27 28  1  1
 30 28  2  0
M  END
$$$$
