DWP.pdb
     RDKit          3D

 30 32  0  0  1  0  0  0  0  0999 V2000
    9.4067  -16.4682   20.6737 N   0  0  0  0  0  0  0  0  0  0  0  0
   10.4401  -16.6439   21.6589 C   0  0  1  0  0  0  0  0  0  0  0  0
   11.8061  -16.2358   21.1758 C   0  0  0  0  0  0  0  0  0  0  0  0
   12.4058  -17.1474   20.1978 C   0  0  0  0  0  0  0  0  0  0  0  0
   12.0904  -18.3515   20.1447 O   0  0  0  0  0  0  0  0  0  0  0  0
   10.0883  -16.0268   22.9621 C   0  0  0  0  0  0  0  0  0  0  0  0
   10.0252  -14.7784   23.0852 O   0  0  0  0  0  0  0  0  0  0  0  0
   13.3449  -16.6617   19.3110 O   0  0  0  0  0  0  0  0  0  0  0  0
    9.8112  -16.8088   24.1240 N   0  0  0  0  0  0  0  0  0  0  0  0
    9.5155  -16.2027   25.4013 C   0  0  1  0  0  0  0  0  0  0  0  0
    8.0979  -16.4776   25.7815 C   0  0  0  0  0  0  0  0  0  0  0  0
    7.1153  -15.4473   25.4458 C   0  0  0  0  0  0  0  0  0  0  0  0
    5.9432  -15.6590   24.6981 C   0  0  0  0  0  0  0  0  0  0  0  0
    5.2661  -14.5400   24.5296 N   0  0  0  0  0  0  0  0  0  0  0  0
    5.9660  -13.5738   25.1555 C   0  0  0  0  0  0  0  0  0  0  0  0
    5.6449  -12.2421   25.2615 C   0  0  0  0  0  0  0  0  0  0  0  0
    6.4933  -11.4099   25.9650 C   0  0  0  0  0  0  0  0  0  0  0  0
    7.6336  -11.9230   26.5420 C   0  0  0  0  0  0  0  0  0  0  0  0
    7.9466  -13.2549   26.4303 C   0  0  0  0  0  0  0  0  0  0  0  0
    7.1096  -14.1050   25.7288 C   0  0  0  0  0  0  0  0  0  0  0  0
   10.4712  -16.8079   26.4025 C   0  0  0  0  0  0  0  0  0  0  0  0
   10.6914  -18.0415   26.2813 O   0  0  0  0  0  0  0  0  0  0  0  0
   11.0942  -16.0960   27.4093 N   0  0  0  0  0  0  0  0  0  0  0  0
   11.4244  -14.6592   27.3111 C   0  0  0  0  0  0  0  0  0  0  0  0
   10.8243  -14.1914   28.6187 C   0  0  0  0  0  0  0  0  0  0  0  0
   10.9682  -15.3681   29.5653 C   0  0  0  0  0  0  0  0  0  0  0  0
   11.6275  -16.4540   28.6590 C   0  0  1  0  0  0  0  0  0  0  0  0
   11.3975  -17.7658   29.2281 C   0  0  0  0  0  0  0  0  0  0  0  0
   12.5780  -18.4676   29.6130 O   0  0  0  0  0  0  0  0  0  0  0  0
   10.3527  -18.3631   29.4287 O   0  0  0  0  0  0  0  0  0  0  0  0
  2  1  1  6
  3  2  1  0
  3  4  1  0
  4  5  2  0
  6  2  1  0
  6  7  2  0
  8  4  1  0
  9  6  1  0
 10  9  1  0
 10 11  1  1
 12 13  2  0
 12 11  1  0
 14 13  1  0
 15 20  2  0
 15 14  1  0
 16 15  1  0
 17 18  1  0
 17 16  2  0
 18 19  2  0
 19 20  1  0
 20 12  1  0
 21 10  1  0
 22 21  2  0
 23 27  1  0
 23 21  1  0
 24 23  1  0
 25 24  1  0
 25 26  1  0
 26 27  1  0
 28 29  1  0
 27 28  1  1
 30 28  2  0
M  END
$$$$
