ICQ.pdb
     RDKit          3D

 24 23  0  0  1  0  0  0  0  0999 V2000
   27.7098  -21.4605  -16.6264 C   0  0  0  0  0  0  0  0  0  0  0  0
   26.2091  -21.2544  -16.8227 C   0  0  0  0  0  0  0  0  0  0  0  0
   25.5620  -21.7312  -15.5475 C   0  0  2  0  0  0  0  0  0  0  0  0
   26.0827  -23.0714  -15.1050 C   0  0  0  0  0  0  0  0  0  0  0  0
   24.0893  -21.5632  -15.4741 C   0  0  2  0  0  0  0  0  0  0  0  0
   23.8172  -20.2102  -15.9893 N   0  0  0  0  0  0  0  0  0  0  0  0
   23.4252  -21.7180  -14.2067 C   0  0  0  0  0  0  0  0  0  0  0  0
   23.5072  -22.8356  -13.6096 O   0  0  0  0  0  0  0  0  0  0  0  0
   22.6663  -20.7352  -13.5250 N   0  0  0  0  0  0  0  0  0  0  0  0
   21.8638  -21.0304  -12.3304 C   0  0  1  0  0  0  0  0  0  0  0  0
   21.8198  -19.8303  -11.4261 C   0  0  0  0  0  0  0  0  0  0  0  0
   20.6622  -19.9329  -10.0709 S   0  0  0  0  0  0  0  0  0  0  0  0
   20.5538  -21.5750  -12.7113 C   0  0  0  0  0  0  0  0  0  0  0  0
   19.9637  -21.0580  -13.7298 O   0  0  0  0  0  0  0  0  0  0  0  0
   19.5229  -26.2319  -10.1418 N   0  0  0  0  0  0  0  0  0  0  0  0
   18.3413  -25.5020   -9.7876 C   0  0  0  0  0  0  0  0  0  0  0  0
   17.9314  -25.6980   -8.6176 O   0  0  0  0  0  0  0  0  0  0  0  0
   17.6920  -24.6006  -10.7621 C   0  0  0  0  0  0  0  0  0  0  0  0
   18.3376  -24.5359  -12.0955 C   0  0  0  0  0  0  0  0  0  0  0  0
   18.5837  -23.1447  -12.5755 C   0  0  2  0  0  0  0  0  0  0  0  0
   19.8551  -22.6250  -12.0736 N   0  0  0  0  0  0  0  0  0  0  0  0
   17.4800  -22.1943  -12.2919 C   0  0  0  0  0  0  0  0  0  0  0  0
   16.4387  -22.2633  -12.9939 O   0  0  0  0  0  0  0  0  0  0  0  0
   17.5159  -21.2307  -11.3015 O   0  0  0  0  0  0  0  0  0  0  0  0
  1  2  1  0
  3  4  1  6
  3  2  1  0
  3  5  1  0
  5  6  1  1
  7  5  1  0
  7  9  1  0
  8  7  2  0
 10  9  1  0
 10 11  1  6
 12 11  1  0
 13 10  1  0
 14 13  2  0
 16 17  2  0
 16 15  1  0
 18 16  1  0
 19 18  1  0
 20 19  1  1
 20 21  1  0
 21 13  1  0
 22 20  1  0
 23 22  2  0
 24 22  1  0
M  END
$$$$
