ICQ.pdb
     RDKit          3D

 24 23  0  0  1  0  0  0  0  0999 V2000
   15.6679  -14.5268  -15.6711 C   0  0  0  0  0  0  0  0  0  0  0  0
   16.6673  -13.5729  -16.3228 C   0  0  0  0  0  0  0  0  0  0  0  0
   16.9907  -12.5414  -15.2722 C   0  0  2  0  0  0  0  0  0  0  0  0
   15.7570  -11.9750  -14.6238 C   0  0  0  0  0  0  0  0  0  0  0  0
   18.0277  -11.5481  -15.6468 C   0  0  2  0  0  0  0  0  0  0  0  0
   19.2103  -12.3353  -16.0363 N   0  0  0  0  0  0  0  0  0  0  0  0
   18.4293  -10.5534  -14.6872 C   0  0  0  0  0  0  0  0  0  0  0  0
   19.1413  -10.9137  -13.6996 O   0  0  0  0  0  0  0  0  0  0  0  0
   18.1127   -9.1731  -14.7185 N   0  0  0  0  0  0  0  0  0  0  0  0
   18.5200   -8.2349  -13.6639 C   0  0  1  0  0  0  0  0  0  0  0  0
   19.6405   -7.3602  -14.1530 C   0  0  0  0  0  0  0  0  0  0  0  0
   21.2864   -7.9886  -13.8642 S   0  0  0  0  0  0  0  0  0  0  0  0
   17.3529   -7.5181  -13.1330 C   0  0  0  0  0  0  0  0  0  0  0  0
   16.4243   -7.1909  -13.9596 O   0  0  0  0  0  0  0  0  0  0  0  0
   15.1645   -6.8231   -7.0868 N   0  0  0  0  0  0  0  0  0  0  0  0
   14.2073   -6.1636   -7.9253 C   0  0  0  0  0  0  0  0  0  0  0  0
   13.1902   -5.7345   -7.3281 O   0  0  0  0  0  0  0  0  0  0  0  0
   14.4459   -6.0258   -9.3772 C   0  0  0  0  0  0  0  0  0  0  0  0
   15.6901   -6.6575   -9.8791 C   0  0  0  0  0  0  0  0  0  0  0  0
   15.8963   -6.4913  -11.3477 C   0  0  2  0  0  0  0  0  0  0  0  0
   17.1296   -7.1411  -11.7893 N   0  0  0  0  0  0  0  0  0  0  0  0
   15.8469   -5.0849  -11.8181 C   0  0  0  0  0  0  0  0  0  0  0  0
   16.9066   -4.4081  -11.7863 O   0  0  0  0  0  0  0  0  0  0  0  0
   14.7087   -4.4612  -12.2935 O   0  0  0  0  0  0  0  0  0  0  0  0
  1  2  1  0
  3  4  1  6
  3  2  1  0
  3  5  1  0
  5  6  1  1
  7  5  1  0
  7  9  1  0
  8  7  2  0
 10  9  1  0
 10 11  1  6
 12 11  1  0
 13 10  1  0
 14 13  2  0
 16 17  2  0
 16 15  1  0
 18 16  1  0
 19 18  1  0
 20 19  1  1
 20 21  1  0
 21 13  1  0
 22 20  1  0
 23 22  2  0
 24 22  1  0
M  END
$$$$
