ICQ.pdb
     RDKit          3D

 24 23  0  0  1  0  0  0  0  0999 V2000
   29.8017  -21.8193  -17.2060 C   0  0  0  0  0  0  0  0  0  0  0  0
   29.1767  -20.6461  -16.4535 C   0  0  0  0  0  0  0  0  0  0  0  0
   27.9378  -21.1975  -15.7953 C   0  0  2  0  0  0  0  0  0  0  0  0
   27.1950  -22.1588  -16.6825 C   0  0  0  0  0  0  0  0  0  0  0  0
   27.0948  -20.2057  -15.0826 C   0  0  2  0  0  0  0  0  0  0  0  0
   28.0299  -19.3749  -14.3044 N   0  0  0  0  0  0  0  0  0  0  0  0
   26.0494  -20.6687  -14.2084 C   0  0  0  0  0  0  0  0  0  0  0  0
   25.0885  -21.3317  -14.7073 O   0  0  0  0  0  0  0  0  0  0  0  0
   25.9662  -20.4644  -12.8092 N   0  0  0  0  0  0  0  0  0  0  0  0
   24.8445  -20.9515  -11.9950 C   0  0  1  0  0  0  0  0  0  0  0  0
   25.2210  -20.9485  -10.5395 C   0  0  0  0  0  0  0  0  0  0  0  0
   26.9350  -21.3046  -10.1897 S   0  0  0  0  0  0  0  0  0  0  0  0
   23.6134  -20.2209  -12.3242 C   0  0  0  0  0  0  0  0  0  0  0  0
   23.7110  -18.9624  -12.5676 O   0  0  0  0  0  0  0  0  0  0  0  0
   19.7239  -19.3058  -16.4983 N   0  0  0  0  0  0  0  0  0  0  0  0
   20.7665  -20.2877  -16.4431 C   0  0  0  0  0  0  0  0  0  0  0  0
   20.8451  -21.0308  -17.4515 O   0  0  0  0  0  0  0  0  0  0  0  0
   21.6545  -20.3783  -15.2654 C   0  0  0  0  0  0  0  0  0  0  0  0
   21.4070  -19.3723  -14.2044 C   0  0  0  0  0  0  0  0  0  0  0  0
   21.1611  -19.9684  -12.8587 C   0  0  2  0  0  0  0  0  0  0  0  0
   22.3078  -20.7555  -12.4071 N   0  0  0  0  0  0  0  0  0  0  0  0
   19.9096  -20.7594  -12.7583 C   0  0  0  0  0  0  0  0  0  0  0  0
   20.0015  -21.9971  -12.5544 O   0  0  0  0  0  0  0  0  0  0  0  0
   18.6394  -20.2269  -12.8734 O   0  0  0  0  0  0  0  0  0  0  0  0
  1  2  1  0
  3  4  1  6
  3  2  1  0
  3  5  1  0
  5  6  1  1
  7  5  1  0
  7  9  1  0
  8  7  2  0
 10  9  1  0
 10 11  1  1
 12 11  1  0
 13 10  1  0
 14 13  2  0
 16 17  2  0
 16 15  1  0
 18 16  1  0
 19 18  1  0
 20 19  1  6
 20 21  1  0
 21 13  1  0
 22 20  1  0
 23 22  2  0
 24 22  1  0
M  END
$$$$
