ICQ.pdb
     RDKit          3D

 24 23  0  0  1  0  0  0  0  0999 V2000
   22.5196  -19.4304  -19.3713 C   0  0  0  0  0  0  0  0  0  0  0  0
   21.4760  -19.0459  -18.3243 C   0  0  0  0  0  0  0  0  0  0  0  0
   22.0280  -19.5216  -17.0048 C   0  0  2  0  0  0  0  0  0  0  0  0
   22.4828  -20.9547  -17.0551 C   0  0  0  0  0  0  0  0  0  0  0  0
   21.2383  -19.1448  -15.8061 C   0  0  2  0  0  0  0  0  0  0  0  0
   20.9987  -17.6963  -15.9270 N   0  0  0  0  0  0  0  0  0  0  0  0
   21.7711  -19.4181  -14.4974 C   0  0  0  0  0  0  0  0  0  0  0  0
   22.4593  -18.5201  -13.9211 O   0  0  0  0  0  0  0  0  0  0  0  0
   21.6104  -20.6121  -13.7524 N   0  0  0  0  0  0  0  0  0  0  0  0
   21.3541  -20.6241  -12.3059 C   0  0  1  0  0  0  0  0  0  0  0  0
   20.5627  -19.4089  -11.9098 C   0  0  0  0  0  0  0  0  0  0  0  0
   20.7137  -18.9190  -10.1997 S   0  0  0  0  0  0  0  0  0  0  0  0
   20.7734  -21.9097  -11.8961 C   0  0  0  0  0  0  0  0  0  0  0  0
   21.3155  -22.5225  -10.9045 O   0  0  0  0  0  0  0  0  0  0  0  0
   19.5618  -24.0546   -7.7881 N   0  0  0  0  0  0  0  0  0  0  0  0
   18.1709  -24.0682   -8.1340 C   0  0  0  0  0  0  0  0  0  0  0  0
   17.4301  -24.6672   -7.3169 O   0  0  0  0  0  0  0  0  0  0  0  0
   17.6956  -23.4131   -9.3705 C   0  0  0  0  0  0  0  0  0  0  0  0
   18.7558  -22.8326  -10.2295 C   0  0  0  0  0  0  0  0  0  0  0  0
   18.5456  -23.0744  -11.6869 C   0  0  2  0  0  0  0  0  0  0  0  0
   19.6630  -22.5616  -12.4787 N   0  0  0  0  0  0  0  0  0  0  0  0
   17.2540  -22.5668  -12.2123 C   0  0  0  0  0  0  0  0  0  0  0  0
   17.2450  -21.4543  -12.7990 O   0  0  0  0  0  0  0  0  0  0  0  0
   16.0501  -23.2367  -12.1018 O   0  0  0  0  0  0  0  0  0  0  0  0
  1  2  1  0
  3  4  1  6
  3  2  1  0
  3  5  1  0
  5  6  1  1
  7  5  1  0
  7  9  1  0
  8  7  2  0
 10  9  1  0
 10 11  1  6
 12 11  1  0
 13 10  1  0
 14 13  2  0
 16 17  2  0
 16 15  1  0
 18 16  1  0
 19 18  1  0
 20 19  1  1
 20 21  1  0
 21 13  1  0
 22 20  1  0
 23 22  2  0
 24 22  1  0
M  END
$$$$
