ICQ.pdb
     RDKit          3D

 24 23  0  0  1  0  0  0  0  0999 V2000
   11.3868   -8.4910   -8.0212 C   0  0  0  0  0  0  0  0  0  0  0  0
   11.4218   -9.4347   -9.2218 C   0  0  0  0  0  0  0  0  0  0  0  0
   12.8511   -9.4321   -9.7006 C   0  0  2  0  0  0  0  0  0  0  0  0
   13.4469   -8.0509   -9.7246 C   0  0  0  0  0  0  0  0  0  0  0  0
   13.1285  -10.2671  -10.8958 C   0  0  2  0  0  0  0  0  0  0  0  0
   12.6247  -11.6118  -10.5671 N   0  0  0  0  0  0  0  0  0  0  0  0
   14.4806  -10.3838  -11.3749 C   0  0  0  0  0  0  0  0  0  0  0  0
   15.0537  -11.5149  -11.3091 O   0  0  0  0  0  0  0  0  0  0  0  0
   15.2720   -9.3490  -11.9308 N   0  0  0  0  0  0  0  0  0  0  0  0
   16.4383   -9.6056  -12.7866 C   0  0  1  0  0  0  0  0  0  0  0  0
   16.1118  -10.6633  -13.8038 C   0  0  0  0  0  0  0  0  0  0  0  0
   17.3816  -10.9772  -15.0188 S   0  0  0  0  0  0  0  0  0  0  0  0
   16.9601   -8.3479  -13.3374 C   0  0  0  0  0  0  0  0  0  0  0  0
   16.1334   -7.5700  -13.9409 O   0  0  0  0  0  0  0  0  0  0  0  0
   22.4614   -5.1217  -12.2472 N   0  0  0  0  0  0  0  0  0  0  0  0
   21.8173   -4.4231  -13.3203 C   0  0  0  0  0  0  0  0  0  0  0  0
   22.4333   -3.4117  -13.7360 O   0  0  0  0  0  0  0  0  0  0  0  0
   20.5261   -4.8975  -13.8604 C   0  0  0  0  0  0  0  0  0  0  0  0
   19.9959   -6.1367  -13.2423 C   0  0  0  0  0  0  0  0  0  0  0  0
   18.7098   -6.6016  -13.8396 C   0  0  2  0  0  0  0  0  0  0  0  0
   18.2942   -7.8855  -13.2765 N   0  0  0  0  0  0  0  0  0  0  0  0
   18.7062   -6.6533  -15.3226 C   0  0  0  0  0  0  0  0  0  0  0  0
   19.0113   -7.7377  -15.8819 O   0  0  0  0  0  0  0  0  0  0  0  0
   18.3878   -5.5846  -16.1392 O   0  0  0  0  0  0  0  0  0  0  0  0
  1  2  1  0
  3  4  1  6
  3  2  1  0
  3  5  1  0
  5  6  1  1
  7  5  1  0
  7  9  1  0
  8  7  2  0
 10  9  1  0
 10 11  1  6
 12 11  1  0
 13 10  1  0
 14 13  2  0
 16 17  2  0
 16 15  1  0
 18 16  1  0
 19 18  1  0
 20 19  1  1
 20 21  1  0
 21 13  1  0
 22 20  1  0
 23 22  2  0
 24 22  1  0
M  END
$$$$
