ICQ.pdb
     RDKit          3D

 24 23  0  0  1  0  0  0  0  0999 V2000
   27.1596  -20.3558   -7.5617 C   0  0  0  0  0  0  0  0  0  0  0  0
   27.1144  -21.2572   -8.7941 C   0  0  0  0  0  0  0  0  0  0  0  0
   26.0784  -20.6499   -9.7053 C   0  0  2  0  0  0  0  0  0  0  0  0
   24.7767  -20.3847   -8.9995 C   0  0  0  0  0  0  0  0  0  0  0  0
   25.9610  -21.2725  -11.0474 C   0  0  2  0  0  0  0  0  0  0  0  0
   27.2655  -21.9055  -11.3077 N   0  0  0  0  0  0  0  0  0  0  0  0
   25.6116  -20.4512  -12.1765 C   0  0  0  0  0  0  0  0  0  0  0  0
   24.4609  -19.9155  -12.2059 O   0  0  0  0  0  0  0  0  0  0  0  0
   26.4303  -20.1610  -13.2954 N   0  0  0  0  0  0  0  0  0  0  0  0
   25.9706  -19.3573  -14.4360 C   0  0  1  0  0  0  0  0  0  0  0  0
   27.1404  -18.9499  -15.2879 C   0  0  0  0  0  0  0  0  0  0  0  0
   28.0718  -17.5482  -14.6923 S   0  0  0  0  0  0  0  0  0  0  0  0
   24.8875  -20.0470  -15.1493 C   0  0  0  0  0  0  0  0  0  0  0  0
   24.9970  -21.3163  -15.3210 O   0  0  0  0  0  0  0  0  0  0  0  0
   21.1078  -21.1650  -11.6317 N   0  0  0  0  0  0  0  0  0  0  0  0
   20.2552  -21.4330  -12.7523 C   0  0  0  0  0  0  0  0  0  0  0  0
   19.1366  -21.9208  -12.4590 O   0  0  0  0  0  0  0  0  0  0  0  0
   20.7059  -21.1402  -14.1288 C   0  0  0  0  0  0  0  0  0  0  0  0
   22.0401  -20.5023  -14.2382 C   0  0  0  0  0  0  0  0  0  0  0  0
   22.4132  -20.1286  -15.6339 C   0  0  2  0  0  0  0  0  0  0  0  0
   23.7142  -19.4623  -15.6774 N   0  0  0  0  0  0  0  0  0  0  0  0
   21.3891  -19.3269  -16.3482 C   0  0  0  0  0  0  0  0  0  0  0  0
   20.3736  -19.9191  -16.7953 O   0  0  0  0  0  0  0  0  0  0  0  0
   21.4731  -17.9633  -16.5578 O   0  0  0  0  0  0  0  0  0  0  0  0
  1  2  1  0
  3  4  1  1
  3  2  1  0
  3  5  1  0
  5  6  1  6
  7  5  1  0
  7  9  1  0
  8  7  2  0
 10  9  1  0
 10 11  1  6
 12 11  1  0
 13 10  1  0
 14 13  2  0
 16 17  2  0
 16 15  1  0
 18 16  1  0
 19 18  1  0
 20 19  1  1
 20 21  1  0
 21 13  1  0
 22 20  1  0
 23 22  2  0
 24 22  1  0
M  END
$$$$
