ICQ.pdb
     RDKit          3D

 24 23  0  0  1  0  0  0  0  0999 V2000
   25.2714  -14.4253  -19.0704 C   0  0  0  0  0  0  0  0  0  0  0  0
   25.4832  -13.4580  -17.9072 C   0  0  0  0  0  0  0  0  0  0  0  0
   24.1661  -12.7487  -17.7220 C   0  0  2  0  0  0  0  0  0  0  0  0
   23.5191  -12.3866  -19.0310 C   0  0  0  0  0  0  0  0  0  0  0  0
   24.1506  -11.6851  -16.6871 C   0  0  2  0  0  0  0  0  0  0  0  0
   24.8132  -12.2681  -15.5076 N   0  0  0  0  0  0  0  0  0  0  0  0
   22.8923  -11.1186  -16.2783 C   0  0  0  0  0  0  0  0  0  0  0  0
   22.2079  -10.4765  -17.1335 O   0  0  0  0  0  0  0  0  0  0  0  0
   22.3091  -11.1978  -14.9899 N   0  0  0  0  0  0  0  0  0  0  0  0
   20.9948  -10.6245  -14.6701 C   0  0  1  0  0  0  0  0  0  0  0  0
   20.5188  -11.1314  -13.3372 C   0  0  0  0  0  0  0  0  0  0  0  0
   19.1402  -10.2465  -12.6278 S   0  0  0  0  0  0  0  0  0  0  0  0
   21.0226   -9.1625  -14.8097 C   0  0  0  0  0  0  0  0  0  0  0  0
   22.0591   -8.5391  -14.3742 O   0  0  0  0  0  0  0  0  0  0  0  0
   22.0249   -5.3813  -18.9952 N   0  0  0  0  0  0  0  0  0  0  0  0
   21.3015   -4.4751  -18.1526 C   0  0  0  0  0  0  0  0  0  0  0  0
   21.4027   -3.2651  -18.4702 O   0  0  0  0  0  0  0  0  0  0  0  0
   20.5120   -4.9772  -17.0088 C   0  0  0  0  0  0  0  0  0  0  0  0
   20.5100   -6.4500  -16.8361 C   0  0  0  0  0  0  0  0  0  0  0  0
   20.1375   -6.8917  -15.4602 C   0  0  2  0  0  0  0  0  0  0  0  0
   20.0198   -8.3471  -15.3815 N   0  0  0  0  0  0  0  0  0  0  0  0
   18.9230   -6.2369  -14.9142 C   0  0  0  0  0  0  0  0  0  0  0  0
   17.8395   -6.8752  -14.9388 O   0  0  0  0  0  0  0  0  0  0  0  0
   18.8987   -4.9643  -14.3755 O   0  0  0  0  0  0  0  0  0  0  0  0
  1  2  1  0
  3  4  1  6
  3  2  1  0
  3  5  1  0
  5  6  1  1
  7  5  1  0
  7  9  1  0
  8  7  2  0
 10  9  1  0
 10 11  1  1
 12 11  1  0
 13 10  1  0
 14 13  2  0
 16 17  2  0
 16 15  1  0
 18 16  1  0
 19 18  1  0
 20 19  1  6
 20 21  1  0
 21 13  1  0
 22 20  1  0
 23 22  2  0
 24 22  1  0
M  END
$$$$
