HGS.pdb
     RDKit          3D

 21 21  0  0  1  0  0  0  0  0999 V2000
    8.9713  -17.1527   26.4577 N   0  0  0  0  0  0  0  0  0  0  0  0
    7.5999  -17.0109   26.8383 C   0  0  1  0  0  0  0  0  0  0  0  0
    7.3457  -15.6180   27.3840 C   0  0  0  0  0  0  0  0  0  0  0  0
    8.6347  -15.0227   27.8126 C   0  0  0  0  0  0  0  0  0  0  0  0
    9.6301  -15.6868   28.5152 C   0  0  0  0  0  0  0  0  0  0  0  0
   10.6291  -14.8101   28.7102 N   0  0  0  0  0  0  0  0  0  0  0  0
   10.2735  -13.6364   28.1498 C   0  0  0  0  0  0  0  0  0  0  0  0
    9.0475  -13.7724   27.5998 N   0  0  0  0  0  0  0  0  0  0  0  0
    6.6931  -17.2806   25.7002 C   0  0  0  0  0  0  0  0  0  0  0  0
    5.4663  -17.0164   25.7604 O   0  0  0  0  0  0  0  0  0  0  0  0
    7.2383  -17.8500   24.5241 N   0  0  0  0  0  0  0  0  0  0  0  0
    6.4170  -18.0945   23.3617 C   0  0  0  0  0  0  0  0  0  0  0  0
    6.8544  -17.2095   22.2483 C   0  0  0  0  0  0  0  0  0  0  0  0
    6.2943  -17.2694   21.1471 O   0  0  0  0  0  0  0  0  0  0  0  0
    7.9607  -13.4488   22.5769 O   0  0  0  0  0  0  0  0  0  0  0  0
    7.8869  -14.0598   21.3428 C   0  0  0  0  0  0  0  0  0  0  0  0
    8.4406  -15.4485   21.3870 C   0  0  2  0  0  0  0  0  0  0  0  0
    7.9147  -16.2784   22.4078 N   0  0  0  0  0  0  0  0  0  0  0  0
    9.9118  -15.3890   21.5200 C   0  0  0  0  0  0  0  0  0  0  0  0
   10.6262  -14.8239   20.6599 O   0  0  0  0  0  0  0  0  0  0  0  0
   10.5094  -15.9705   22.6186 O   0  0  0  0  0  0  0  0  0  0  0  0
  2  1  1  6
  2  3  1  0
  3  4  1  0
  4  5  2  0
  5  6  1  0
  7  6  1  0
  8  4  1  0
  8  7  2  0
  9  2  1  0
  9 10  2  0
 11  9  1  0
 12 11  1  0
 12 13  1  0
 13 18  1  0
 14 13  2  0
 16 15  1  0
 17 16  1  1
 17 19  1  0
 18 17  1  0
 19 20  2  0
 19 21  1  0
M  END
$$$$
