HGS.pdb
     RDKit          3D

 21 21  0  0  1  0  0  0  0  0999 V2000
    8.4689  -16.6237   21.2543 N   0  0  0  0  0  0  0  0  0  0  0  0
    9.7747  -16.2667   20.7927 C   0  0  1  0  0  0  0  0  0  0  0  0
    9.9851  -14.7688   20.9134 C   0  0  0  0  0  0  0  0  0  0  0  0
    8.9439  -14.0679   20.1232 C   0  0  0  0  0  0  0  0  0  0  0  0
    9.0099  -13.8087   18.7616 C   0  0  0  0  0  0  0  0  0  0  0  0
    7.8815  -13.1612   18.4269 N   0  0  0  0  0  0  0  0  0  0  0  0
    7.1330  -13.0186   19.5393 C   0  0  0  0  0  0  0  0  0  0  0  0
    7.7902  -13.5773   20.5785 N   0  0  0  0  0  0  0  0  0  0  0  0
   10.8280  -16.9866   21.5426 C   0  0  0  0  0  0  0  0  0  0  0  0
   12.0452  -16.8466   21.2646 O   0  0  0  0  0  0  0  0  0  0  0  0
   10.4364  -17.8491   22.5949 N   0  0  0  0  0  0  0  0  0  0  0  0
   11.4116  -18.6112   23.3392 C   0  0  0  0  0  0  0  0  0  0  0  0
   11.7862  -17.8693   24.5735 C   0  0  0  0  0  0  0  0  0  0  0  0
   12.7995  -17.1603   24.5918 O   0  0  0  0  0  0  0  0  0  0  0  0
   10.7478  -15.6918   28.6180 O   0  0  0  0  0  0  0  0  0  0  0  0
   10.2969  -16.3599   27.4990 C   0  0  0  0  0  0  0  0  0  0  0  0
   11.3188  -17.3270   26.9914 C   0  0  2  0  0  0  0  0  0  0  0  0
   11.0053  -17.9476   25.7570 N   0  0  0  0  0  0  0  0  0  0  0  0
   11.5604  -18.3697   28.0111 C   0  0  0  0  0  0  0  0  0  0  0  0
   11.2836  -19.5728   27.7979 O   0  0  0  0  0  0  0  0  0  0  0  0
   12.1037  -18.0063   29.2256 O   0  0  0  0  0  0  0  0  0  0  0  0
  2  1  1  1
  2  3  1  0
  3  4  1  0
  4  5  2  0
  5  6  1  0
  7  6  1  0
  8  4  1  0
  8  7  2  0
  9  2  1  0
  9 10  2  0
 11  9  1  0
 12 11  1  0
 12 13  1  0
 13 18  1  0
 14 13  2  0
 16 15  1  0
 17 16  1  1
 17 19  1  0
 18 17  1  0
 19 20  2  0
 19 21  1  0
M  END
$$$$
