HGS.pdb
     RDKit          3D

 21 21  0  0  1  0  0  0  0  0999 V2000
   10.6442  -16.1060   17.7927 N   0  0  0  0  0  0  0  0  0  0  0  0
   11.0865  -15.3706   18.9369 C   0  0  1  0  0  0  0  0  0  0  0  0
   10.9132  -13.8810   18.7052 C   0  0  0  0  0  0  0  0  0  0  0  0
    9.4795  -13.5926   18.4579 C   0  0  0  0  0  0  0  0  0  0  0  0
    8.5960  -13.0645   19.3885 C   0  0  0  0  0  0  0  0  0  0  0  0
    7.4022  -12.9538   18.7825 N   0  0  0  0  0  0  0  0  0  0  0  0
    7.5315  -13.3969   17.5155 C   0  0  0  0  0  0  0  0  0  0  0  0
    8.8095  -13.7881   17.3214 N   0  0  0  0  0  0  0  0  0  0  0  0
   10.3564  -15.7801   20.1573 C   0  0  0  0  0  0  0  0  0  0  0  0
    9.3783  -16.5668   20.1052 O   0  0  0  0  0  0  0  0  0  0  0  0
   10.7842  -15.2633   21.4041 N   0  0  0  0  0  0  0  0  0  0  0  0
   10.2057  -15.7266   22.6437 C   0  0  0  0  0  0  0  0  0  0  0  0
   11.2637  -16.3497   23.4842 C   0  0  0  0  0  0  0  0  0  0  0  0
   12.4446  -16.3302   23.1165 O   0  0  0  0  0  0  0  0  0  0  0  0
   10.0839  -17.8923   27.0799 O   0  0  0  0  0  0  0  0  0  0  0  0
   11.4566  -17.7986   26.9873 C   0  0  0  0  0  0  0  0  0  0  0  0
   11.8974  -17.6182   25.5695 C   0  0  2  0  0  0  0  0  0  0  0  0
   10.9603  -16.9796   24.7202 N   0  0  0  0  0  0  0  0  0  0  0  0
   12.2574  -18.9315   24.9939 C   0  0  0  0  0  0  0  0  0  0  0  0
   11.6248  -19.4213   24.0300 O   0  0  0  0  0  0  0  0  0  0  0  0
   13.3159  -19.6320   25.5334 O   0  0  0  0  0  0  0  0  0  0  0  0
  2  1  1  6
  2  3  1  0
  3  4  1  0
  4  5  2  0
  5  6  1  0
  7  6  1  0
  8  4  1  0
  8  7  2  0
  9  2  1  0
  9 10  2  0
 11  9  1  0
 12 11  1  0
 12 13  1  0
 13 18  1  0
 14 13  2  0
 16 15  1  0
 17 16  1  1
 17 19  1  0
 18 17  1  0
 19 20  2  0
 19 21  1  0
M  END
$$$$
