HGS.pdb
     RDKit          3D

 21 21  0  0  1  0  0  0  0  0999 V2000
    9.2647  -17.9725   21.3338 N   0  0  0  0  0  0  0  0  0  0  0  0
    8.8175  -16.8844   20.5202 C   0  0  1  0  0  0  0  0  0  0  0  0
    8.0554  -17.4053   19.3159 C   0  0  0  0  0  0  0  0  0  0  0  0
    8.9621  -18.2431   18.4938 C   0  0  0  0  0  0  0  0  0  0  0  0
   10.2474  -17.8914   18.1068 C   0  0  0  0  0  0  0  0  0  0  0  0
   10.7338  -18.9096   17.3780 N   0  0  0  0  0  0  0  0  0  0  0  0
    9.7871  -19.8673   17.3097 C   0  0  0  0  0  0  0  0  0  0  0  0
    8.7007  -19.4528   17.9968 N   0  0  0  0  0  0  0  0  0  0  0  0
    7.9675  -15.9487   21.2897 C   0  0  0  0  0  0  0  0  0  0  0  0
    7.5200  -14.8931   20.7758 O   0  0  0  0  0  0  0  0  0  0  0  0
    7.6618  -16.2666   22.6350 N   0  0  0  0  0  0  0  0  0  0  0  0
    6.7443  -15.4589   23.4042 C   0  0  0  0  0  0  0  0  0  0  0  0
    7.5102  -14.5784   24.3274 C   0  0  0  0  0  0  0  0  0  0  0  0
    8.7456  -14.6313   24.3582 O   0  0  0  0  0  0  0  0  0  0  0  0
    5.4121  -12.1700   27.0335 O   0  0  0  0  0  0  0  0  0  0  0  0
    6.6497  -11.6923   26.6570 C   0  0  0  0  0  0  0  0  0  0  0  0
    7.5082  -12.7814   26.0965 C   0  0  2  0  0  0  0  0  0  0  0  0
    6.8600  -13.6596   25.1933 N   0  0  0  0  0  0  0  0  0  0  0  0
    8.0921  -13.5682   27.2035 C   0  0  0  0  0  0  0  0  0  0  0  0
    7.8403  -14.7871   27.3464 O   0  0  0  0  0  0  0  0  0  0  0  0
    8.9340  -12.9426   28.0990 O   0  0  0  0  0  0  0  0  0  0  0  0
  2  1  1  1
  2  3  1  0
  3  4  1  0
  4  5  2  0
  5  6  1  0
  7  6  1  0
  8  4  1  0
  8  7  2  0
  9  2  1  0
  9 10  2  0
 11  9  1  0
 12 11  1  0
 12 13  1  0
 13 18  1  0
 14 13  2  0
 16 15  1  0
 17 16  1  1
 17 19  1  0
 18 17  1  0
 19 20  2  0
 19 21  1  0
M  END
$$$$
