HGS.pdb
     RDKit          3D

 21 21  0  0  1  0  0  0  0  0999 V2000
    7.9089  -15.7859   19.1201 N   0  0  0  0  0  0  0  0  0  0  0  0
    8.2985  -14.4418   19.4159 C   0  0  1  0  0  0  0  0  0  0  0  0
    7.6519  -13.4784   18.4380 C   0  0  0  0  0  0  0  0  0  0  0  0
    7.9789  -13.9002   17.0542 C   0  0  0  0  0  0  0  0  0  0  0  0
    7.2866  -13.5164   15.9145 C   0  0  0  0  0  0  0  0  0  0  0  0
    7.8889  -14.1055   14.8683 N   0  0  0  0  0  0  0  0  0  0  0  0
    8.9234  -14.8340   15.3346 C   0  0  0  0  0  0  0  0  0  0  0  0
    8.9742  -14.7044   16.6780 N   0  0  0  0  0  0  0  0  0  0  0  0
    7.9414  -14.0690   20.8028 C   0  0  0  0  0  0  0  0  0  0  0  0
    8.1941  -12.9273   21.2623 O   0  0  0  0  0  0  0  0  0  0  0  0
    7.3006  -15.0342   21.6167 N   0  0  0  0  0  0  0  0  0  0  0  0
    6.8760  -14.7164   22.9600 C   0  0  0  0  0  0  0  0  0  0  0  0
    8.0687  -14.5737   23.8382 C   0  0  0  0  0  0  0  0  0  0  0  0
    9.1673  -15.0098   23.4738 O   0  0  0  0  0  0  0  0  0  0  0  0
    7.6367  -12.5782   27.4891 O   0  0  0  0  0  0  0  0  0  0  0  0
    8.9027  -12.5793   26.9424 C   0  0  0  0  0  0  0  0  0  0  0  0
    9.0812  -13.7105   25.9803 C   0  0  2  0  0  0  0  0  0  0  0  0
    7.9895  -13.9413   25.1071 N   0  0  0  0  0  0  0  0  0  0  0  0
    9.3757  -14.9517   26.7274 C   0  0  0  0  0  0  0  0  0  0  0  0
    8.6559  -15.9710   26.6164 O   0  0  0  0  0  0  0  0  0  0  0  0
   10.4700  -14.9853   27.5661 O   0  0  0  0  0  0  0  0  0  0  0  0
  2  1  1  6
  2  3  1  0
  3  4  1  0
  4  5  2  0
  5  6  1  0
  7  6  1  0
  8  4  1  0
  8  7  2  0
  9  2  1  0
  9 10  2  0
 11  9  1  0
 12 11  1  0
 12 13  1  0
 13 18  1  0
 14 13  2  0
 16 15  1  0
 17 16  1  1
 17 19  1  0
 18 17  1  0
 19 20  2  0
 19 21  1  0
M  END
$$$$
