HGS.pdb
     RDKit          3D

 21 21  0  0  1  0  0  0  0  0999 V2000
    9.4924  -16.1606   20.8712 N   0  0  0  0  0  0  0  0  0  0  0  0
    8.5792  -15.5561   21.7912 C   0  0  1  0  0  0  0  0  0  0  0  0
    7.2159  -15.3876   21.1465 C   0  0  0  0  0  0  0  0  0  0  0  0
    7.3333  -14.4517   20.0020 C   0  0  0  0  0  0  0  0  0  0  0  0
    8.5058  -13.8369   19.5862 C   0  0  0  0  0  0  0  0  0  0  0  0
    8.1971  -13.0716   18.5263 N   0  0  0  0  0  0  0  0  0  0  0  0
    6.8769  -13.2011   18.2847 C   0  0  0  0  0  0  0  0  0  0  0  0
    6.3510  -14.0500   19.1941 N   0  0  0  0  0  0  0  0  0  0  0  0
    8.4559  -16.3532   23.0320 C   0  0  0  0  0  0  0  0  0  0  0  0
    8.6775  -17.5898   23.0436 O   0  0  0  0  0  0  0  0  0  0  0  0
    8.0786  -15.6899   24.2246 N   0  0  0  0  0  0  0  0  0  0  0  0
    8.0042  -16.3968   25.4818 C   0  0  0  0  0  0  0  0  0  0  0  0
    9.2931  -16.2517   26.2111 C   0  0  0  0  0  0  0  0  0  0  0  0
   10.3658  -16.4458   25.6267 O   0  0  0  0  0  0  0  0  0  0  0  0
    9.3975  -13.9873   29.6838 O   0  0  0  0  0  0  0  0  0  0  0  0
   10.5337  -14.2191   28.9373 C   0  0  0  0  0  0  0  0  0  0  0  0
   10.5102  -15.5789   28.3148 C   0  0  2  0  0  0  0  0  0  0  0  0
    9.3372  -15.8905   27.5838 N   0  0  0  0  0  0  0  0  0  0  0  0
   10.7170  -16.6037   29.3601 C   0  0  0  0  0  0  0  0  0  0  0  0
    9.8484  -17.4714   29.6095 O   0  0  0  0  0  0  0  0  0  0  0  0
   11.8956  -16.6019   30.0763 O   0  0  0  0  0  0  0  0  0  0  0  0
  2  1  1  6
  2  3  1  0
  3  4  1  0
  4  5  2  0
  5  6  1  0
  7  6  1  0
  8  4  1  0
  8  7  2  0
  9  2  1  0
  9 10  2  0
 11  9  1  0
 12 11  1  0
 12 13  1  0
 13 18  1  0
 14 13  2  0
 16 15  1  0
 17 16  1  1
 17 19  1  0
 18 17  1  0
 19 20  2  0
 19 21  1  0
M  END
$$$$
