HGS.pdb
     RDKit          3D

 21 21  0  0  1  0  0  0  0  0999 V2000
    8.2296  -12.8783   16.4650 N   0  0  0  0  0  0  0  0  0  0  0  0
    8.4904  -13.3874   17.7760 C   0  0  1  0  0  0  0  0  0  0  0  0
    7.2803  -13.1876   18.6693 C   0  0  0  0  0  0  0  0  0  0  0  0
    7.6086  -13.6485   20.0403 C   0  0  0  0  0  0  0  0  0  0  0  0
    7.9555  -12.8245   21.1015 C   0  0  0  0  0  0  0  0  0  0  0  0
    8.1755  -13.6176   22.1631 N   0  0  0  0  0  0  0  0  0  0  0  0
    7.9738  -14.8952   21.7820 C   0  0  0  0  0  0  0  0  0  0  0  0
    7.6257  -14.9086   20.4771 N   0  0  0  0  0  0  0  0  0  0  0  0
    8.8570  -14.8206   17.7355 C   0  0  0  0  0  0  0  0  0  0  0  0
    8.2156  -15.6437   17.0358 O   0  0  0  0  0  0  0  0  0  0  0  0
    9.9593  -15.2566   18.5097 N   0  0  0  0  0  0  0  0  0  0  0  0
   10.3761  -16.6394   18.5051 C   0  0  0  0  0  0  0  0  0  0  0  0
   11.5090  -16.8208   19.4525 C   0  0  0  0  0  0  0  0  0  0  0  0
   11.9147  -17.9560   19.7296 O   0  0  0  0  0  0  0  0  0  0  0  0
   15.4830  -14.2076   19.9207 O   0  0  0  0  0  0  0  0  0  0  0  0
   14.1265  -14.2890   19.6864 C   0  0  0  0  0  0  0  0  0  0  0  0
   13.5554  -15.5637   20.2214 C   0  0  2  0  0  0  0  0  0  0  0  0
   12.1554  -15.7138   20.0634 N   0  0  0  0  0  0  0  0  0  0  0  0
   13.8989  -15.6956   21.6532 C   0  0  0  0  0  0  0  0  0  0  0  0
   13.0136  -15.7905   22.5345 O   0  0  0  0  0  0  0  0  0  0  0  0
   15.2270  -15.7142   22.0247 O   0  0  0  0  0  0  0  0  0  0  0  0
  2  1  1  6
  2  3  1  0
  3  4  1  0
  4  5  2  0
  5  6  1  0
  7  6  1  0
  8  4  1  0
  8  7  2  0
  9  2  1  0
  9 10  2  0
 11  9  1  0
 12 11  1  0
 12 13  1  0
 13 18  1  0
 14 13  2  0
 16 15  1  0
 17 16  1  1
 17 19  1  0
 18 17  1  0
 19 20  2  0
 19 21  1  0
M  END
$$$$
