HGS.pdb
     RDKit          3D

 21 21  0  0  1  0  0  0  0  0999 V2000
    8.9574  -16.5462   19.7746 N   0  0  0  0  0  0  0  0  0  0  0  0
   10.1279  -15.8349   19.3626 C   0  0  1  0  0  0  0  0  0  0  0  0
    9.9484  -14.3460   19.5938 C   0  0  0  0  0  0  0  0  0  0  0  0
    8.7914  -13.8679   18.7985 C   0  0  0  0  0  0  0  0  0  0  0  0
    7.6905  -13.1953   19.3095 C   0  0  0  0  0  0  0  0  0  0  0  0
    6.8704  -12.9370   18.2774 N   0  0  0  0  0  0  0  0  0  0  0  0
    7.4364  -13.4301   17.1574 C   0  0  0  0  0  0  0  0  0  0  0  0
    8.6163  -14.0010   17.4830 N   0  0  0  0  0  0  0  0  0  0  0  0
   11.3313  -16.3155   20.0774 C   0  0  0  0  0  0  0  0  0  0  0  0
   12.4690  -15.8355   19.8455 O   0  0  0  0  0  0  0  0  0  0  0  0
   11.1781  -17.3408   21.0417 N   0  0  0  0  0  0  0  0  0  0  0  0
   12.3115  -17.8508   21.7773 C   0  0  0  0  0  0  0  0  0  0  0  0
   12.2713  -17.3359   23.1728 C   0  0  0  0  0  0  0  0  0  0  0  0
   13.3221  -17.0916   23.7780 O   0  0  0  0  0  0  0  0  0  0  0  0
    9.3612  -15.0711   24.8811 O   0  0  0  0  0  0  0  0  0  0  0  0
    9.6168  -16.1970   25.6352 C   0  0  0  0  0  0  0  0  0  0  0  0
   10.9052  -16.8421   25.2341 C   0  0  2  0  0  0  0  0  0  0  0  0
   11.0436  -17.1100   23.8498 N   0  0  0  0  0  0  0  0  0  0  0  0
   11.0844  -18.0989   25.9917 C   0  0  0  0  0  0  0  0  0  0  0  0
   11.2116  -19.2022   25.4121 O   0  0  0  0  0  0  0  0  0  0  0  0
   11.1118  -18.0525   27.3699 O   0  0  0  0  0  0  0  0  0  0  0  0
  2  1  1  1
  2  3  1  0
  3  4  1  0
  4  5  2  0
  5  6  1  0
  7  6  1  0
  8  4  1  0
  8  7  2  0
  9  2  1  0
  9 10  2  0
 11  9  1  0
 12 11  1  0
 12 13  1  0
 13 18  1  0
 14 13  2  0
 16 15  1  0
 17 16  1  6
 17 19  1  0
 18 17  1  0
 19 20  2  0
 19 21  1  0
M  END
$$$$
