SDV.pdb
     RDKit          3D

 22 21  0  0  1  0  0  0  0  0999 V2000
    5.1611  -15.3888   21.1222 O   0  0  0  0  0  0  0  0  0  0  0  0
    6.2561  -15.1421   20.2697 C   0  0  0  0  0  0  0  0  0  0  0  0
    7.0944  -16.4020   20.2590 C   0  0  2  0  0  0  0  0  0  0  0  0
    6.2342  -17.5406   19.9906 N   0  0  0  0  0  0  0  0  0  0  0  0
    7.8095  -16.6282   21.5247 C   0  0  0  0  0  0  0  0  0  0  0  0
    7.2569  -17.1912   22.5011 O   0  0  0  0  0  0  0  0  0  0  0  0
    9.1530  -16.2219   21.6898 N   0  0  0  0  0  0  0  0  0  0  0  0
    9.8323  -16.2459   22.9749 C   0  0  1  0  0  0  0  0  0  0  0  0
   11.3173  -16.0083   22.6008 C   0  0  0  0  0  0  0  0  0  0  0  0
   12.2366  -16.5040   23.6184 C   0  0  0  0  0  0  0  0  0  0  0  0
   12.8312  -17.6046   23.5384 O   0  0  0  0  0  0  0  0  0  0  0  0
    9.3912  -15.0615   23.7501 C   0  0  0  0  0  0  0  0  0  0  0  0
    9.4100  -13.9002   23.2348 O   0  0  0  0  0  0  0  0  0  0  0  0
   12.4586  -15.6995   24.7407 O   0  0  0  0  0  0  0  0  0  0  0  0
    7.0381  -12.5885   27.0626 C   0  0  0  0  0  0  0  0  0  0  0  0
    7.2484  -13.6470   25.9704 C   0  0  1  0  0  0  0  0  0  0  0  0
    6.8124  -13.1521   24.6331 C   0  0  0  0  0  0  0  0  0  0  0  0
    8.6873  -14.1343   25.9994 C   0  0  2  0  0  0  0  0  0  0  0  0
    8.9430  -15.1819   25.0656 N   0  0  0  0  0  0  0  0  0  0  0  0
    8.9987  -14.6171   27.3568 C   0  0  0  0  0  0  0  0  0  0  0  0
    8.9362  -13.8031   28.3325 O   0  0  0  0  0  0  0  0  0  0  0  0
    9.3643  -15.9273   27.6413 O   0  0  0  0  0  0  0  0  0  0  0  0
  1  2  1  0
  2  3  1  0
  3  4  1  1
  5  3  1  0
  5  6  2  0
  7  5  1  0
  8 12  1  0
  8  7  1  0
  8  9  1  6
 10  9  1  0
 10 11  2  0
 12 13  2  0
 14 10  1  0
 16 15  1  1
 16 17  1  0
 18 16  1  0
 19 12  1  0
 18 19  1  6
 20 22  1  0
 20 18  1  0
 21 20  2  0
M  END
$$$$
