SDV.pdb
     RDKit          3D

 22 21  0  0  1  0  0  0  0  0999 V2000
    8.1988  -12.0397   19.5674 O   0  0  0  0  0  0  0  0  0  0  0  0
    9.1614  -13.0633   19.4559 C   0  0  0  0  0  0  0  0  0  0  0  0
    8.4119  -14.3766   19.5160 C   0  0  2  0  0  0  0  0  0  0  0  0
    7.2329  -14.2878   18.6731 N   0  0  0  0  0  0  0  0  0  0  0  0
    8.0003  -14.7424   20.8803 C   0  0  0  0  0  0  0  0  0  0  0  0
    6.8554  -14.4707   21.3174 O   0  0  0  0  0  0  0  0  0  0  0  0
    8.8805  -15.4200   21.7541 N   0  0  0  0  0  0  0  0  0  0  0  0
    8.4725  -15.9115   23.0601 C   0  0  1  0  0  0  0  0  0  0  0  0
    9.3543  -17.1699   23.2619 C   0  0  0  0  0  0  0  0  0  0  0  0
    9.1382  -18.1756   22.2284 C   0  0  0  0  0  0  0  0  0  0  0  0
    8.0224  -18.6935   21.9877 O   0  0  0  0  0  0  0  0  0  0  0  0
    8.8998  -14.9216   24.0778 C   0  0  0  0  0  0  0  0  0  0  0  0
    9.9928  -14.2859   23.9515 O   0  0  0  0  0  0  0  0  0  0  0  0
   10.2434  -18.5772   21.4714 O   0  0  0  0  0  0  0  0  0  0  0  0
    6.8847  -11.9209   25.3598 C   0  0  0  0  0  0  0  0  0  0  0  0
    7.1875  -12.8295   26.5599 C   0  0  1  0  0  0  0  0  0  0  0  0
    5.9794  -13.5876   26.9949 C   0  0  0  0  0  0  0  0  0  0  0  0
    8.3806  -13.7155   26.2436 C   0  0  2  0  0  0  0  0  0  0  0  0
    8.1197  -14.6562   25.2034 N   0  0  0  0  0  0  0  0  0  0  0  0
    8.7669  -14.4467   27.4637 C   0  0  0  0  0  0  0  0  0  0  0  0
    8.5414  -15.6968   27.5334 O   0  0  0  0  0  0  0  0  0  0  0  0
    9.3703  -13.8449   28.5615 O   0  0  0  0  0  0  0  0  0  0  0  0
  1  2  1  0
  2  3  1  0
  3  4  1  6
  5  3  1  0
  5  6  2  0
  7  5  1  0
  8 12  1  0
  8  7  1  0
  8  9  1  1
 10  9  1  0
 10 11  2  0
 12 13  2  0
 14 10  1  0
 16 15  1  6
 16 17  1  0
 18 16  1  0
 19 12  1  0
 18 19  1  6
 20 22  1  0
 20 18  1  0
 21 20  2  0
M  END
$$$$
