SDV.pdb
     RDKit          3D

 22 21  0  0  1  0  0  0  0  0999 V2000
    7.8240  -12.4575   20.0845 O   0  0  0  0  0  0  0  0  0  0  0  0
    8.6823  -13.3955   19.4761 C   0  0  0  0  0  0  0  0  0  0  0  0
    8.0516  -14.7571   19.6727 C   0  0  2  0  0  0  0  0  0  0  0  0
    6.6867  -14.7222   19.1787 N   0  0  0  0  0  0  0  0  0  0  0  0
    8.0423  -15.1893   21.0789 C   0  0  0  0  0  0  0  0  0  0  0  0
    7.0020  -15.1296   21.7789 O   0  0  0  0  0  0  0  0  0  0  0  0
    9.2084  -15.6940   21.6979 N   0  0  0  0  0  0  0  0  0  0  0  0
    9.2279  -16.1767   23.0691 C   0  0  1  0  0  0  0  0  0  0  0  0
   10.6175  -16.8517   23.1926 C   0  0  0  0  0  0  0  0  0  0  0  0
   10.6707  -18.1478   22.5268 C   0  0  0  0  0  0  0  0  0  0  0  0
    9.6690  -18.8824   22.3587 O   0  0  0  0  0  0  0  0  0  0  0  0
    9.2420  -14.9996   23.9705 C   0  0  0  0  0  0  0  0  0  0  0  0
    9.9792  -13.9952   23.7210 O   0  0  0  0  0  0  0  0  0  0  0  0
   11.9123  -18.5853   22.0546 O   0  0  0  0  0  0  0  0  0  0  0  0
    6.8452  -12.1286   27.0626 C   0  0  0  0  0  0  0  0  0  0  0  0
    6.9057  -13.2906   26.0608 C   0  0  1  0  0  0  0  0  0  0  0  0
    6.4075  -12.8840   24.7156 C   0  0  0  0  0  0  0  0  0  0  0  0
    8.3078  -13.8758   26.0391 C   0  0  2  0  0  0  0  0  0  0  0  0
    8.4500  -14.9557   25.1180 N   0  0  0  0  0  0  0  0  0  0  0  0
    8.6448  -14.3537   27.3921 C   0  0  0  0  0  0  0  0  0  0  0  0
    8.7785  -13.5068   28.3319 O   0  0  0  0  0  0  0  0  0  0  0  0
    8.8305  -15.6939   27.7095 O   0  0  0  0  0  0  0  0  0  0  0  0
  1  2  1  0
  2  3  1  0
  3  4  1  1
  5  3  1  0
  5  6  2  0
  7  5  1  0
  8 12  1  0
  8  7  1  0
  8  9  1  6
 10  9  1  0
 10 11  2  0
 12 13  2  0
 14 10  1  0
 16 15  1  1
 16 17  1  0
 18 16  1  0
 19 12  1  0
 18 19  1  6
 20 22  1  0
 20 18  1  0
 21 20  2  0
M  END
$$$$
