SDV.pdb
     RDKit          3D

 22 21  0  0  1  0  0  0  0  0999 V2000
    7.7163  -12.2574   20.3155 O   0  0  0  0  0  0  0  0  0  0  0  0
    8.7290  -12.9968   19.6715 C   0  0  0  0  0  0  0  0  0  0  0  0
    8.2454  -14.4289   19.5985 C   0  0  2  0  0  0  0  0  0  0  0  0
    6.9679  -14.4627   18.9093 N   0  0  0  0  0  0  0  0  0  0  0  0
    8.0936  -15.0532   20.9221 C   0  0  0  0  0  0  0  0  0  0  0  0
    6.9666  -15.1995   21.4553 O   0  0  0  0  0  0  0  0  0  0  0  0
    9.2151  -15.5174   21.6461 N   0  0  0  0  0  0  0  0  0  0  0  0
    9.1047  -16.1574   22.9468 C   0  0  1  0  0  0  0  0  0  0  0  0
   10.3694  -17.0505   23.0162 C   0  0  0  0  0  0  0  0  0  0  0  0
   10.4282  -17.8426   24.2391 C   0  0  0  0  0  0  0  0  0  0  0  0
   11.4847  -18.3450   24.6894 O   0  0  0  0  0  0  0  0  0  0  0  0
    9.2605  -15.1129   23.9876 C   0  0  0  0  0  0  0  0  0  0  0  0
   10.2954  -14.3765   24.0235 O   0  0  0  0  0  0  0  0  0  0  0  0
    9.2347  -18.0469   24.9389 O   0  0  0  0  0  0  0  0  0  0  0  0
    7.0390  -12.3371   27.4479 C   0  0  0  0  0  0  0  0  0  0  0  0
    6.9765  -13.2313   26.2014 C   0  0  1  0  0  0  0  0  0  0  0  0
    6.5544  -12.4643   24.9944 C   0  0  0  0  0  0  0  0  0  0  0  0
    8.2981  -13.9607   26.0273 C   0  0  2  0  0  0  0  0  0  0  0  0
    8.2804  -14.9047   24.9581 N   0  0  0  0  0  0  0  0  0  0  0  0
    8.6218  -14.6643   27.2814 C   0  0  0  0  0  0  0  0  0  0  0  0
    8.3718  -15.9081   27.3752 O   0  0  0  0  0  0  0  0  0  0  0  0
    9.1907  -14.0426   28.3865 O   0  0  0  0  0  0  0  0  0  0  0  0
  1  2  1  0
  2  3  1  0
  3  4  1  1
  5  3  1  0
  5  6  2  0
  7  5  1  0
  8 12  1  0
  8  7  1  0
  8  9  1  1
 10  9  1  0
 10 11  2  0
 12 13  2  0
 14 10  1  0
 16 15  1  1
 16 17  1  0
 18 16  1  0
 19 12  1  0
 18 19  1  6
 20 22  1  0
 20 18  1  0
 21 20  2  0
M  END
$$$$
