SDV.pdb
     RDKit          3D

 22 21  0  0  1  0  0  0  0  0999 V2000
    7.5769  -14.3345   18.0519 O   0  0  0  0  0  0  0  0  0  0  0  0
    7.3667  -13.0251   18.5296 C   0  0  0  0  0  0  0  0  0  0  0  0
    8.3216  -12.8231   19.6860 C   0  0  2  0  0  0  0  0  0  0  0  0
    9.6708  -13.1289   19.2448 N   0  0  0  0  0  0  0  0  0  0  0  0
    7.9972  -13.6583   20.8529 C   0  0  0  0  0  0  0  0  0  0  0  0
    6.8760  -13.5978   21.4142 O   0  0  0  0  0  0  0  0  0  0  0  0
    8.9380  -14.5676   21.3872 N   0  0  0  0  0  0  0  0  0  0  0  0
    8.6300  -15.4654   22.4885 C   0  0  1  0  0  0  0  0  0  0  0  0
    9.5613  -16.6779   22.2347 C   0  0  0  0  0  0  0  0  0  0  0  0
    9.3505  -17.7554   23.1942 C   0  0  0  0  0  0  0  0  0  0  0  0
    8.5103  -17.7020   24.1230 O   0  0  0  0  0  0  0  0  0  0  0  0
    9.0911  -14.8269   23.7447 C   0  0  0  0  0  0  0  0  0  0  0  0
   10.2647  -14.3495   23.8416 O   0  0  0  0  0  0  0  0  0  0  0  0
   10.1344  -18.9060   23.0618 O   0  0  0  0  0  0  0  0  0  0  0  0
    7.7234  -11.8526   25.7670 C   0  0  0  0  0  0  0  0  0  0  0  0
    7.5573  -13.1353   26.5945 C   0  0  1  0  0  0  0  0  0  0  0  0
    6.1480  -13.6218   26.5788 C   0  0  0  0  0  0  0  0  0  0  0  0
    8.5652  -14.1754   26.1350 C   0  0  2  0  0  0  0  0  0  0  0  0
    8.2557  -14.7295   24.8575 N   0  0  0  0  0  0  0  0  0  0  0  0
    8.6134  -15.2627   27.1290 C   0  0  0  0  0  0  0  0  0  0  0  0
    8.0193  -16.3588   26.8762 O   0  0  0  0  0  0  0  0  0  0  0  0
    9.2769  -15.1623   28.3460 O   0  0  0  0  0  0  0  0  0  0  0  0
  1  2  1  0
  2  3  1  0
  3  4  1  6
  5  3  1  0
  5  6  2  0
  7  5  1  0
  8 12  1  0
  8  7  1  0
  8  9  1  6
 10  9  1  0
 10 11  2  0
 12 13  2  0
 14 10  1  0
 16 15  1  6
 16 17  1  0
 18 16  1  0
 19 12  1  0
 18 19  1  6
 20 22  1  0
 20 18  1  0
 21 20  2  0
M  END
$$$$
