SDV.pdb
     RDKit          3D

 22 21  0  0  1  0  0  0  0  0999 V2000
    8.5606  -12.9172   18.5073 O   0  0  0  0  0  0  0  0  0  0  0  0
    8.0705  -13.2497   19.7864 C   0  0  0  0  0  0  0  0  0  0  0  0
    8.0935  -14.7597   19.8843 C   0  0  2  0  0  0  0  0  0  0  0  0
    7.0782  -15.3068   19.0021 N   0  0  0  0  0  0  0  0  0  0  0  0
    7.8576  -15.2514   21.2508 C   0  0  0  0  0  0  0  0  0  0  0  0
    6.6980  -15.4579   21.6849 O   0  0  0  0  0  0  0  0  0  0  0  0
    8.9322  -15.5147   22.1302 N   0  0  0  0  0  0  0  0  0  0  0  0
    8.7414  -16.0188   23.4805 C   0  0  1  0  0  0  0  0  0  0  0  0
    9.8365  -17.1070   23.6158 C   0  0  0  0  0  0  0  0  0  0  0  0
    9.5403  -18.2991   22.8300 C   0  0  0  0  0  0  0  0  0  0  0  0
    8.4545  -18.9218   22.8976 O   0  0  0  0  0  0  0  0  0  0  0  0
    9.0944  -14.9358   24.4295 C   0  0  0  0  0  0  0  0  0  0  0  0
   10.1727  -14.2770   24.2964 O   0  0  0  0  0  0  0  0  0  0  0  0
   10.5292  -18.7644   21.9574 O   0  0  0  0  0  0  0  0  0  0  0  0
    6.9532  -11.8786   25.5393 C   0  0  0  0  0  0  0  0  0  0  0  0
    7.2460  -12.7575   26.7637 C   0  0  1  0  0  0  0  0  0  0  0  0
    6.0479  -13.5432   27.1765 C   0  0  0  0  0  0  0  0  0  0  0  0
    8.4731  -13.6134   26.4984 C   0  0  2  0  0  0  0  0  0  0  0  0
    8.2581  -14.6054   25.4961 N   0  0  0  0  0  0  0  0  0  0  0  0
    8.8693  -14.2787   27.7525 C   0  0  0  0  0  0  0  0  0  0  0  0
    8.6440  -15.5231   27.8907 O   0  0  0  0  0  0  0  0  0  0  0  0
    9.4820  -13.6197   28.8116 O   0  0  0  0  0  0  0  0  0  0  0  0
  1  2  1  0
  2  3  1  0
  3  4  1  6
  5  3  1  0
  5  6  2  0
  7  5  1  0
  8 12  1  0
  8  7  1  0
  8  9  1  1
 10  9  1  0
 10 11  2  0
 12 13  2  0
 14 10  1  0
 16 15  1  6
 16 17  1  0
 18 16  1  0
 19 12  1  0
 18 19  1  6
 20 22  1  0
 20 18  1  0
 21 20  2  0
M  END
$$$$
