SDV.pdb
     RDKit          3D

 22 21  0  0  1  0  0  0  0  0999 V2000
   10.0197  -12.9898   18.3981 O   0  0  0  0  0  0  0  0  0  0  0  0
    9.7257  -13.5105   19.6746 C   0  0  0  0  0  0  0  0  0  0  0  0
    8.3999  -14.2309   19.5581 C   0  0  2  0  0  0  0  0  0  0  0  0
    7.4994  -13.4361   18.7422 N   0  0  0  0  0  0  0  0  0  0  0  0
    7.7674  -14.4864   20.8617 C   0  0  0  0  0  0  0  0  0  0  0  0
    6.8534  -13.7493   21.3054 O   0  0  0  0  0  0  0  0  0  0  0  0
    8.1637  -15.5783   21.6667 N   0  0  0  0  0  0  0  0  0  0  0  0
    7.5207  -15.9016   22.9299 C   0  0  1  0  0  0  0  0  0  0  0  0
    7.8120  -17.4136   23.1047 C   0  0  0  0  0  0  0  0  0  0  0  0
    7.2524  -17.9519   24.3389 C   0  0  0  0  0  0  0  0  0  0  0  0
    6.3358  -17.3929   24.9860 O   0  0  0  0  0  0  0  0  0  0  0  0
    8.2511  -15.1971   24.0109 C   0  0  0  0  0  0  0  0  0  0  0  0
    9.5169  -15.0899   23.9811 O   0  0  0  0  0  0  0  0  0  0  0  0
    7.7748  -19.1577   24.8176 O   0  0  0  0  0  0  0  0  0  0  0  0
    6.9526  -11.6959   25.5589 C   0  0  0  0  0  0  0  0  0  0  0  0
    7.1553  -12.7671   26.6401 C   0  0  1  0  0  0  0  0  0  0  0  0
    5.8556  -13.3216   27.1159 C   0  0  0  0  0  0  0  0  0  0  0  0
    8.1211  -13.8266   26.1368 C   0  0  2  0  0  0  0  0  0  0  0  0
    7.5760  -14.6308   25.0924 N   0  0  0  0  0  0  0  0  0  0  0  0
    8.5002  -14.6983   27.2634 C   0  0  0  0  0  0  0  0  0  0  0  0
    9.1547  -14.2034   28.2355 O   0  0  0  0  0  0  0  0  0  0  0  0
    8.1833  -16.0498   27.3296 O   0  0  0  0  0  0  0  0  0  0  0  0
  1  2  1  0
  2  3  1  0
  3  4  1  6
  5  3  1  0
  5  6  2  0
  7  5  1  0
  8 12  1  0
  8  7  1  0
  8  9  1  1
 10  9  1  0
 10 11  2  0
 12 13  2  0
 14 10  1  0
 16 15  1  6
 16 17  1  0
 18 16  1  0
 19 12  1  0
 18 19  1  6
 20 22  1  0
 20 18  1  0
 21 20  2  0
M  END
$$$$
