SDV.pdb
     RDKit          3D

 22 21  0  0  1  0  0  0  0  0999 V2000
    8.4026  -12.7316   18.3739 O   0  0  0  0  0  0  0  0  0  0  0  0
    8.1746  -13.0875   19.7186 C   0  0  0  0  0  0  0  0  0  0  0  0
    8.0325  -14.5937   19.7542 C   0  0  2  0  0  0  0  0  0  0  0  0
    6.8095  -14.9702   19.0680 N   0  0  0  0  0  0  0  0  0  0  0  0
    8.0027  -15.1368   21.1212 C   0  0  0  0  0  0  0  0  0  0  0  0
    6.9268  -15.2653   21.7550 O   0  0  0  0  0  0  0  0  0  0  0  0
    9.1890  -15.5399   21.7753 N   0  0  0  0  0  0  0  0  0  0  0  0
    9.1948  -16.1409   23.0991 C   0  0  1  0  0  0  0  0  0  0  0  0
   10.5282  -16.9301   23.1295 C   0  0  0  0  0  0  0  0  0  0  0  0
   10.4979  -18.1120   22.2761 C   0  0  0  0  0  0  0  0  0  0  0  0
    9.7794  -19.1135   22.5043 O   0  0  0  0  0  0  0  0  0  0  0  0
    9.3189  -15.0519   24.0976 C   0  0  0  0  0  0  0  0  0  0  0  0
   10.1402  -14.0979   23.9243 O   0  0  0  0  0  0  0  0  0  0  0  0
   11.3200  -18.1178   21.1447 O   0  0  0  0  0  0  0  0  0  0  0  0
    7.2073  -12.3641   27.5834 C   0  0  0  0  0  0  0  0  0  0  0  0
    7.1490  -13.4067   26.4578 C   0  0  1  0  0  0  0  0  0  0  0  0
    6.5893  -12.8300   25.2019 C   0  0  0  0  0  0  0  0  0  0  0  0
    8.5168  -14.0436   26.2781 C   0  0  2  0  0  0  0  0  0  0  0  0
    8.5418  -15.0383   25.2559 N   0  0  0  0  0  0  0  0  0  0  0  0
    8.9266  -14.6583   27.5536 C   0  0  0  0  0  0  0  0  0  0  0  0
    8.6010  -15.8648   27.7917 O   0  0  0  0  0  0  0  0  0  0  0  0
    9.6568  -13.9899   28.5290 O   0  0  0  0  0  0  0  0  0  0  0  0
  1  2  1  0
  2  3  1  0
  3  4  1  1
  5  3  1  0
  5  6  2  0
  7  5  1  0
  8 12  1  0
  8  7  1  0
  8  9  1  6
 10  9  1  0
 10 11  2  0
 12 13  2  0
 14 10  1  0
 16 15  1  1
 16 17  1  0
 18 16  1  0
 19 12  1  0
 18 19  1  6
 20 22  1  0
 20 18  1  0
 21 20  2  0
M  END
$$$$
