SDV.pdb
     RDKit          3D

 22 21  0  0  1  0  0  0  0  0999 V2000
    7.1454  -13.4787   19.2661 O   0  0  0  0  0  0  0  0  0  0  0  0
    8.4744  -13.9482   19.2765 C   0  0  0  0  0  0  0  0  0  0  0  0
    8.4105  -15.4353   19.5493 C   0  0  2  0  0  0  0  0  0  0  0  0
    7.4660  -16.0451   18.6304 N   0  0  0  0  0  0  0  0  0  0  0  0
    8.0095  -15.7505   20.9293 C   0  0  0  0  0  0  0  0  0  0  0  0
    6.8155  -15.9984   21.2273 O   0  0  0  0  0  0  0  0  0  0  0  0
    8.9574  -15.7899   21.9768 N   0  0  0  0  0  0  0  0  0  0  0  0
    8.6133  -16.1653   23.3386 C   0  0  1  0  0  0  0  0  0  0  0  0
    9.5790  -17.3387   23.6426 C   0  0  0  0  0  0  0  0  0  0  0  0
    9.1731  -18.5795   22.9931 C   0  0  0  0  0  0  0  0  0  0  0  0
    9.9301  -19.2573   22.2590 O   0  0  0  0  0  0  0  0  0  0  0  0
    9.0003  -15.0492   24.2346 C   0  0  0  0  0  0  0  0  0  0  0  0
   10.1347  -14.4874   24.1250 O   0  0  0  0  0  0  0  0  0  0  0  0
    7.8658  -19.0277   23.2074 O   0  0  0  0  0  0  0  0  0  0  0  0
    6.8950  -11.8518   25.0559 C   0  0  0  0  0  0  0  0  0  0  0  0
    7.1714  -12.6219   26.3552 C   0  0  1  0  0  0  0  0  0  0  0  0
    5.9542  -13.3305   26.8445 C   0  0  0  0  0  0  0  0  0  0  0  0
    8.3713  -13.5344   26.1645 C   0  0  2  0  0  0  0  0  0  0  0  0
    8.1356  -14.5806   25.2239 N   0  0  0  0  0  0  0  0  0  0  0  0
    8.7265  -14.1311   27.4647 C   0  0  0  0  0  0  0  0  0  0  0  0
    8.4611  -15.3572   27.6758 O   0  0  0  0  0  0  0  0  0  0  0  0
    9.3416  -13.4252   28.4917 O   0  0  0  0  0  0  0  0  0  0  0  0
  1  2  1  0
  2  3  1  0
  3  4  1  6
  5  3  1  0
  5  6  2  0
  7  5  1  0
  8 12  1  0
  8  7  1  0
  8  9  1  1
 10  9  1  0
 10 11  2  0
 12 13  2  0
 14 10  1  0
 16 15  1  6
 16 17  1  0
 18 16  1  0
 19 12  1  0
 18 19  1  6
 20 22  1  0
 20 18  1  0
 21 20  2  0
M  END
$$$$
