SDV.pdb
     RDKit          3D

 22 21  0  0  1  0  0  0  0  0999 V2000
    7.5187  -13.2526   20.4116 O   0  0  0  0  0  0  0  0  0  0  0  0
    8.2577  -14.0773   19.5395 C   0  0  0  0  0  0  0  0  0  0  0  0
    7.8395  -15.5031   19.8269 C   0  0  2  0  0  0  0  0  0  0  0  0
    6.5021  -15.7187   19.3042 N   0  0  0  0  0  0  0  0  0  0  0  0
    7.8525  -15.8284   21.2617 C   0  0  0  0  0  0  0  0  0  0  0  0
    6.7980  -15.8439   21.9425 O   0  0  0  0  0  0  0  0  0  0  0  0
    9.0573  -16.1409   21.9311 N   0  0  0  0  0  0  0  0  0  0  0  0
    9.1021  -16.5493   23.3257 C   0  0  1  0  0  0  0  0  0  0  0  0
   10.4318  -17.3389   23.4264 C   0  0  0  0  0  0  0  0  0  0  0  0
   10.6903  -17.8291   24.7751 C   0  0  0  0  0  0  0  0  0  0  0  0
   11.8316  -17.8663   25.2922 O   0  0  0  0  0  0  0  0  0  0  0  0
    9.2632  -15.3316   24.1562 C   0  0  0  0  0  0  0  0  0  0  0  0
   10.1650  -14.4762   23.8923 O   0  0  0  0  0  0  0  0  0  0  0  0
    9.5981  -18.2806   25.5228 O   0  0  0  0  0  0  0  0  0  0  0  0
    7.2144  -12.1047   27.2434 C   0  0  0  0  0  0  0  0  0  0  0  0
    7.1209  -13.2475   26.2222 C   0  0  1  0  0  0  0  0  0  0  0  0
    6.6060  -12.7696   24.9070 C   0  0  0  0  0  0  0  0  0  0  0  0
    8.4589  -13.9616   26.1287 C   0  0  2  0  0  0  0  0  0  0  0  0
    8.4339  -15.0854   25.2505 N   0  0  0  0  0  0  0  0  0  0  0  0
    8.8510  -14.4154   27.4751 C   0  0  0  0  0  0  0  0  0  0  0  0
    8.6232  -15.6206   27.8125 O   0  0  0  0  0  0  0  0  0  0  0  0
    9.4624  -13.5942   28.4149 O   0  0  0  0  0  0  0  0  0  0  0  0
  1  2  1  0
  2  3  1  0
  3  4  1  1
  5  3  1  0
  5  6  2  0
  7  5  1  0
  8 12  1  0
  8  7  1  0
  8  9  1  6
 10  9  1  0
 10 11  2  0
 12 13  2  0
 14 10  1  0
 16 15  1  1
 16 17  1  0
 18 16  1  0
 19 12  1  0
 18 19  1  6
 20 22  1  0
 20 18  1  0
 21 20  2  0
M  END
$$$$
