SDV.pdb
     RDKit          3D

 22 21  0  0  1  0  0  0  0  0999 V2000
    9.0722  -15.1590   18.2854 O   0  0  0  0  0  0  0  0  0  0  0  0
    8.2352  -14.9661   19.4030 C   0  0  0  0  0  0  0  0  0  0  0  0
    7.7686  -16.3373   19.8415 C   0  0  2  0  0  0  0  0  0  0  0  0
    6.7912  -16.8319   18.8884 N   0  0  0  0  0  0  0  0  0  0  0  0
    7.1715  -16.3391   21.1862 C   0  0  0  0  0  0  0  0  0  0  0  0
    5.9380  -16.1828   21.3587 O   0  0  0  0  0  0  0  0  0  0  0  0
    7.9665  -16.5212   22.3404 N   0  0  0  0  0  0  0  0  0  0  0  0
    7.4134  -16.5367   23.6849 C   0  0  1  0  0  0  0  0  0  0  0  0
    7.6747  -17.9872   24.1641 C   0  0  0  0  0  0  0  0  0  0  0  0
    7.3211  -18.1856   25.5647 C   0  0  0  0  0  0  0  0  0  0  0  0
    8.0692  -18.7536   26.3948 O   0  0  0  0  0  0  0  0  0  0  0  0
    8.2441  -15.6491   24.5338 C   0  0  0  0  0  0  0  0  0  0  0  0
    9.5126  -15.7172   24.5037 O   0  0  0  0  0  0  0  0  0  0  0  0
    6.0768  -17.7130   25.9940 O   0  0  0  0  0  0  0  0  0  0  0  0
    7.0838  -11.7626   25.4181 C   0  0  0  0  0  0  0  0  0  0  0  0
    7.4353  -12.6128   26.6473 C   0  0  1  0  0  0  0  0  0  0  0  0
    6.2144  -13.0358   27.3914 C   0  0  0  0  0  0  0  0  0  0  0  0
    8.3262  -13.7713   26.2313 C   0  0  2  0  0  0  0  0  0  0  0  0
    7.6634  -14.7138   25.3904 N   0  0  0  0  0  0  0  0  0  0  0  0
    8.8033  -14.4632   27.4421 C   0  0  0  0  0  0  0  0  0  0  0  0
    8.3553  -15.6237   27.7086 O   0  0  0  0  0  0  0  0  0  0  0  0
    9.7257  -13.9167   28.3263 O   0  0  0  0  0  0  0  0  0  0  0  0
  1  2  1  0
  2  3  1  0
  3  4  1  6
  5  3  1  0
  5  6  2  0
  7  5  1  0
  8 12  1  0
  8  7  1  0
  8  9  1  1
 10  9  1  0
 10 11  2  0
 12 13  2  0
 14 10  1  0
 16 15  1  6
 16 17  1  0
 18 16  1  0
 19 12  1  0
 18 19  1  6
 20 22  1  0
 20 18  1  0
 21 20  2  0
M  END
$$$$
