YNV.pdb
     RDKit          3D

 28 28  0  0  1  0  0  0  0  0999 V2000
    8.3758  -13.8418   14.1073 O   0  0  0  0  0  0  0  0  0  0  0  0
    8.0550  -14.0751   15.4262 C   0  0  0  0  0  0  0  0  0  0  0  0
    8.5914  -15.1410   16.0996 C   0  0  0  0  0  0  0  0  0  0  0  0
    8.2722  -15.3865   17.4381 C   0  0  0  0  0  0  0  0  0  0  0  0
    7.4009  -14.5304   18.0743 C   0  0  0  0  0  0  0  0  0  0  0  0
    7.0632  -14.7911   19.4905 C   0  0  0  0  0  0  0  0  0  0  0  0
    8.3912  -14.8894   20.2435 C   0  0  2  0  0  0  0  0  0  0  0  0
    9.1726  -15.9079   19.6085 N   0  0  0  0  0  0  0  0  0  0  0  0
    8.0592  -15.2462   21.6502 C   0  0  0  0  0  0  0  0  0  0  0  0
    7.0394  -14.7729   22.2072 O   0  0  0  0  0  0  0  0  0  0  0  0
    6.8514  -13.4595   17.4263 C   0  0  0  0  0  0  0  0  0  0  0  0
    7.1934  -13.2432   16.0843 C   0  0  0  0  0  0  0  0  0  0  0  0
    7.9560  -19.4695   23.7396 N   0  0  0  0  0  0  0  0  0  0  0  0
    9.3005  -19.0378   23.4887 C   0  0  0  0  0  0  0  0  0  0  0  0
   10.0723  -19.8423   22.9609 O   0  0  0  0  0  0  0  0  0  0  0  0
    9.6413  -17.6963   23.8745 C   0  0  0  0  0  0  0  0  0  0  0  0
    8.6268  -16.5987   23.7264 C   0  0  2  0  0  0  0  0  0  0  0  0
    8.9186  -16.1242   22.3308 N   0  0  0  0  0  0  0  0  0  0  0  0
    8.8590  -15.4076   24.5488 C   0  0  0  0  0  0  0  0  0  0  0  0
    9.9791  -14.7884   24.4435 O   0  0  0  0  0  0  0  0  0  0  0  0
    5.9424  -13.2113   26.8034 C   0  0  0  0  0  0  0  0  0  0  0  0
    7.1908  -12.6297   26.1754 C   0  0  1  0  0  0  0  0  0  0  0  0
    7.5908  -11.4165   26.9846 C   0  0  0  0  0  0  0  0  0  0  0  0
    8.3230  -13.6147   26.2089 C   0  0  2  0  0  0  0  0  0  0  0  0
    7.9629  -14.8376   25.4734 N   0  0  0  0  0  0  0  0  0  0  0  0
    8.6018  -14.0055   27.6027 C   0  0  0  0  0  0  0  0  0  0  0  0
    8.3793  -15.3209   28.0494 O   0  0  0  0  0  0  0  0  0  0  0  0
    9.0441  -13.1577   28.4089 O   0  0  0  0  0  0  0  0  0  0  0  0
  2  1  1  0
  2 12  2  0
  3  2  1  0
  4  3  2  0
  4  5  1  0
  5 11  2  0
  6  5  1  0
  7  9  1  0
  7  6  1  0
  7  8  1  6
  9 18  1  0
 10  9  2  0
 11 12  1  0
 14 13  1  0
 15 14  2  0
 16 14  1  0
 17 16  1  1
 18 17  1  0
 19 17  1  0
 20 19  2  0
 22 21  1  1
 22 23  1  0
 22 24  1  0
 24 26  1  0
 24 25  1  6
 25 19  1  0
 26 27  1  0
 28 26  2  0
M  END
$$$$
