YNV.pdb
     RDKit          3D

 28 28  0  0  1  0  0  0  0  0999 V2000
    8.0114  -12.1171   16.9278 O   0  0  0  0  0  0  0  0  0  0  0  0
    7.9860  -12.7583   18.1465 C   0  0  0  0  0  0  0  0  0  0  0  0
    9.1355  -12.9287   18.8725 C   0  0  0  0  0  0  0  0  0  0  0  0
    9.1203  -13.5781   20.1102 C   0  0  0  0  0  0  0  0  0  0  0  0
    7.9187  -14.0480   20.5918 C   0  0  0  0  0  0  0  0  0  0  0  0
    7.9036  -14.7354   21.9013 C   0  0  0  0  0  0  0  0  0  0  0  0
    8.5591  -16.1005   21.6838 C   0  0  2  0  0  0  0  0  0  0  0  0
    7.7136  -16.8494   20.8033 N   0  0  0  0  0  0  0  0  0  0  0  0
    8.6656  -16.7415   23.0232 C   0  0  0  0  0  0  0  0  0  0  0  0
    7.6405  -16.9530   23.7151 O   0  0  0  0  0  0  0  0  0  0  0  0
    6.7572  -13.8914   19.8883 C   0  0  0  0  0  0  0  0  0  0  0  0
    6.8089  -13.2355   18.6507 C   0  0  0  0  0  0  0  0  0  0  0  0
    9.9234  -20.7758   23.8126 N   0  0  0  0  0  0  0  0  0  0  0  0
   10.9719  -19.8594   23.4695 C   0  0  0  0  0  0  0  0  0  0  0  0
   11.5721  -20.0456   22.4081 O   0  0  0  0  0  0  0  0  0  0  0  0
   11.2399  -18.7932   24.3947 C   0  0  0  0  0  0  0  0  0  0  0  0
   10.1396  -17.8445   24.7761 C   0  0  2  0  0  0  0  0  0  0  0  0
    9.9424  -17.0999   23.4858 N   0  0  0  0  0  0  0  0  0  0  0  0
   10.5131  -16.7917   25.7255 C   0  0  0  0  0  0  0  0  0  0  0  0
   11.6156  -16.1577   25.5484 O   0  0  0  0  0  0  0  0  0  0  0  0
    9.8284  -13.3586   29.1410 C   0  0  0  0  0  0  0  0  0  0  0  0
    9.2801  -14.3774   28.1651 C   0  0  1  0  0  0  0  0  0  0  0  0
    8.8521  -13.6365   26.9182 C   0  0  0  0  0  0  0  0  0  0  0  0
   10.3296  -15.3801   27.7825 C   0  0  2  0  0  0  0  0  0  0  0  0
    9.7752  -16.3746   26.8499 N   0  0  0  0  0  0  0  0  0  0  0  0
   10.7844  -16.1070   28.9816 C   0  0  0  0  0  0  0  0  0  0  0  0
   11.7896  -15.5826   29.8145 O   0  0  0  0  0  0  0  0  0  0  0  0
   10.2721  -17.2109   29.2704 O   0  0  0  0  0  0  0  0  0  0  0  0
  2  1  1  0
  2 12  2  0
  3  2  1  0
  4  3  2  0
  4  5  1  0
  5 11  2  0
  6  5  1  0
  7  9  1  0
  7  6  1  0
  7  8  1  6
  9 18  1  0
 10  9  2  0
 11 12  1  0
 14 13  1  0
 15 14  2  0
 16 14  1  0
 17 16  1  6
 18 17  1  0
 19 17  1  0
 20 19  2  0
 22 21  1  1
 22 23  1  0
 22 24  1  0
 24 26  1  0
 24 25  1  6
 25 19  1  0
 26 27  1  0
 28 26  2  0
M  END
$$$$
