YNV.pdb
     RDKit          3D

 28 28  0  0  1  0  0  0  0  0999 V2000
    7.8700  -13.0781   16.0531 O   0  0  0  0  0  0  0  0  0  0  0  0
    7.5565  -13.3885   17.3578 C   0  0  0  0  0  0  0  0  0  0  0  0
    6.9760  -14.5893   17.6720 C   0  0  0  0  0  0  0  0  0  0  0  0
    6.6540  -14.9139   18.9929 C   0  0  0  0  0  0  0  0  0  0  0  0
    6.9329  -13.9974   19.9823 C   0  0  0  0  0  0  0  0  0  0  0  0
    6.5913  -14.3414   21.3796 C   0  0  0  0  0  0  0  0  0  0  0  0
    7.9118  -14.6539   22.0860 C   0  0  2  0  0  0  0  0  0  0  0  0
    8.5961  -15.6398   21.3044 N   0  0  0  0  0  0  0  0  0  0  0  0
    7.5615  -15.1685   23.4384 C   0  0  0  0  0  0  0  0  0  0  0  0
    6.8545  -14.4871   24.2194 O   0  0  0  0  0  0  0  0  0  0  0  0
    7.5116  -12.7923   19.6967 C   0  0  0  0  0  0  0  0  0  0  0  0
    7.8212  -12.4996   18.3614 C   0  0  0  0  0  0  0  0  0  0  0  0
    7.6285  -20.7982   25.5901 N   0  0  0  0  0  0  0  0  0  0  0  0
    7.5143  -19.4104   25.9338 C   0  0  0  0  0  0  0  0  0  0  0  0
    7.3206  -19.1268   27.1185 O   0  0  0  0  0  0  0  0  0  0  0  0
    7.6352  -18.4580   24.8647 C   0  0  0  0  0  0  0  0  0  0  0  0
    7.8117  -17.0007   25.1826 C   0  0  2  0  0  0  0  0  0  0  0  0
    8.0447  -16.4337   23.8107 N   0  0  0  0  0  0  0  0  0  0  0  0
    9.0377  -16.6557   25.9087 C   0  0  0  0  0  0  0  0  0  0  0  0
   10.1661  -16.7511   25.3033 O   0  0  0  0  0  0  0  0  0  0  0  0
   10.0988  -13.4358   27.3527 C   0  0  0  0  0  0  0  0  0  0  0  0
   10.3806  -14.4751   28.4163 C   0  0  1  0  0  0  0  0  0  0  0  0
    9.2494  -14.4263   29.4188 C   0  0  0  0  0  0  0  0  0  0  0  0
   10.4302  -15.8543   27.8260 C   0  0  2  0  0  0  0  0  0  0  0  0
    9.1273  -16.2109   27.2416 N   0  0  0  0  0  0  0  0  0  0  0  0
   10.7219  -16.8384   28.8841 C   0  0  0  0  0  0  0  0  0  0  0  0
   11.9873  -16.8974   29.4961 O   0  0  0  0  0  0  0  0  0  0  0  0
    9.8334  -17.6393   29.2497 O   0  0  0  0  0  0  0  0  0  0  0  0
  2  1  1  0
  2 12  2  0
  3  2  1  0
  4  3  2  0
  4  5  1  0
  5 11  2  0
  6  5  1  0
  7  9  1  0
  7  6  1  0
  7  8  1  6
  9 18  1  0
 10  9  2  0
 11 12  1  0
 14 13  1  0
 15 14  2  0
 16 14  1  0
 17 16  1  6
 18 17  1  0
 19 17  1  0
 20 19  2  0
 22 21  1  6
 22 23  1  0
 22 24  1  0
 24 26  1  0
 24 25  1  1
 25 19  1  0
 26 27  1  0
 28 26  2  0
M  END
$$$$
