YNV.pdb
     RDKit          3D

 28 28  0  0  1  0  0  0  0  0999 V2000
    8.1978  -12.0253   17.0584 O   0  0  0  0  0  0  0  0  0  0  0  0
    8.0278  -12.7123   18.2399 C   0  0  0  0  0  0  0  0  0  0  0  0
    9.0195  -12.7366   19.1851 C   0  0  0  0  0  0  0  0  0  0  0  0
    8.8568  -13.4309   20.3873 C   0  0  0  0  0  0  0  0  0  0  0  0
    7.6713  -14.0963   20.6074 C   0  0  0  0  0  0  0  0  0  0  0  0
    7.5002  -14.8311   21.8796 C   0  0  0  0  0  0  0  0  0  0  0  0
    7.9817  -16.2606   21.6246 C   0  0  2  0  0  0  0  0  0  0  0  0
    7.0009  -16.9061   20.8046 N   0  0  0  0  0  0  0  0  0  0  0  0
    8.1032  -16.9144   22.9566 C   0  0  0  0  0  0  0  0  0  0  0  0
    7.0817  -17.1796   23.6352 O   0  0  0  0  0  0  0  0  0  0  0  0
    6.6655  -14.0884   19.6817 C   0  0  0  0  0  0  0  0  0  0  0  0
    6.8625  -13.3821   18.4871 C   0  0  0  0  0  0  0  0  0  0  0  0
   12.1165  -20.7689   25.0138 N   0  0  0  0  0  0  0  0  0  0  0  0
   11.0976  -19.8386   25.4055 C   0  0  0  0  0  0  0  0  0  0  0  0
   10.7345  -19.8481   26.5843 O   0  0  0  0  0  0  0  0  0  0  0  0
   10.5796  -18.9665   24.3878 C   0  0  0  0  0  0  0  0  0  0  0  0
    9.6114  -17.8804   24.7605 C   0  0  2  0  0  0  0  0  0  0  0  0
    9.3899  -17.2233   23.4274 N   0  0  0  0  0  0  0  0  0  0  0  0
   10.1593  -16.8011   25.5877 C   0  0  0  0  0  0  0  0  0  0  0  0
   11.2316  -16.2076   25.2043 O   0  0  0  0  0  0  0  0  0  0  0  0
   10.2069  -13.1071   28.7230 C   0  0  0  0  0  0  0  0  0  0  0  0
    9.4614  -14.1609   27.9327 C   0  0  1  0  0  0  0  0  0  0  0  0
    8.9925  -13.5238   26.6438 C   0  0  0  0  0  0  0  0  0  0  0  0
   10.3573  -15.3158   27.5906 C   0  0  2  0  0  0  0  0  0  0  0  0
    9.6259  -16.3169   26.7974 N   0  0  0  0  0  0  0  0  0  0  0  0
   10.8089  -15.9788   28.8274 C   0  0  0  0  0  0  0  0  0  0  0  0
   10.3523  -17.2635   29.1744 O   0  0  0  0  0  0  0  0  0  0  0  0
   11.6125  -15.3948   29.5875 O   0  0  0  0  0  0  0  0  0  0  0  0
  2  1  1  0
  2 12  2  0
  3  2  1  0
  4  3  2  0
  4  5  1  0
  5 11  2  0
  6  5  1  0
  7  9  1  0
  7  6  1  0
  7  8  1  6
  9 18  1  0
 10  9  2  0
 11 12  1  0
 14 13  1  0
 15 14  2  0
 16 14  1  0
 17 16  1  6
 18 17  1  0
 19 17  1  0
 20 19  2  0
 22 21  1  1
 22 23  1  0
 22 24  1  0
 24 26  1  0
 24 25  1  6
 25 19  1  0
 26 27  1  0
 28 26  2  0
M  END
$$$$
