YNV.pdb
     RDKit          3D

 28 28  0  0  1  0  0  0  0  0999 V2000
    9.0145  -12.6706   17.0261 O   0  0  0  0  0  0  0  0  0  0  0  0
    8.4921  -13.0917   18.2288 C   0  0  0  0  0  0  0  0  0  0  0  0
    9.3099  -13.5701   19.2187 C   0  0  0  0  0  0  0  0  0  0  0  0
    8.7896  -14.0000   20.4427 C   0  0  0  0  0  0  0  0  0  0  0  0
    7.4280  -13.9338   20.6385 C   0  0  0  0  0  0  0  0  0  0  0  0
    6.8782  -14.3893   21.9337 C   0  0  0  0  0  0  0  0  0  0  0  0
    6.8748  -15.9185   21.8914 C   0  0  2  0  0  0  0  0  0  0  0  0
    5.7524  -16.3254   21.1002 N   0  0  0  0  0  0  0  0  0  0  0  0
    6.7540  -16.3846   23.3001 C   0  0  0  0  0  0  0  0  0  0  0  0
    5.6744  -16.2567   23.9265 O   0  0  0  0  0  0  0  0  0  0  0  0
    6.5893  -13.4608   19.6680 C   0  0  0  0  0  0  0  0  0  0  0  0
    7.1450  -13.0382   18.4527 C   0  0  0  0  0  0  0  0  0  0  0  0
    5.9117  -19.0038   24.0472 N   0  0  0  0  0  0  0  0  0  0  0  0
    7.0849  -19.6840   24.5139 C   0  0  0  0  0  0  0  0  0  0  0  0
    7.1626  -20.8984   24.3119 O   0  0  0  0  0  0  0  0  0  0  0  0
    8.0798  -18.8919   25.1826 C   0  0  0  0  0  0  0  0  0  0  0  0
    7.8722  -17.4125   25.3385 C   0  0  2  0  0  0  0  0  0  0  0  0
    7.8802  -16.9686   23.9029 N   0  0  0  0  0  0  0  0  0  0  0  0
    8.9923  -16.6756   25.9313 C   0  0  0  0  0  0  0  0  0  0  0  0
   10.0725  -16.5343   25.2513 O   0  0  0  0  0  0  0  0  0  0  0  0
    9.0310  -13.1881   26.9861 C   0  0  0  0  0  0  0  0  0  0  0  0
    9.7637  -13.9239   28.0874 C   0  0  1  0  0  0  0  0  0  0  0  0
    8.8085  -14.0837   29.2488 C   0  0  0  0  0  0  0  0  0  0  0  0
   10.1905  -15.2900   27.6348 C   0  0  2  0  0  0  0  0  0  0  0  0
    9.0236  -16.0776   27.2057 N   0  0  0  0  0  0  0  0  0  0  0  0
   10.8203  -16.0115   28.7555 C   0  0  0  0  0  0  0  0  0  0  0  0
   12.0836  -15.6349   29.2469 O   0  0  0  0  0  0  0  0  0  0  0  0
   10.2270  -16.9773   29.2842 O   0  0  0  0  0  0  0  0  0  0  0  0
  2  1  1  0
  2 12  2  0
  3  2  1  0
  4  3  2  0
  4  5  1  0
  5 11  2  0
  6  5  1  0
  7  9  1  0
  7  6  1  0
  7  8  1  6
  9 18  1  0
 10  9  2  0
 11 12  1  0
 14 13  1  0
 15 14  2  0
 16 14  1  0
 17 16  1  6
 18 17  1  0
 19 17  1  0
 20 19  2  0
 22 21  1  6
 22 23  1  0
 22 24  1  0
 24 26  1  0
 24 25  1  1
 25 19  1  0
 26 27  1  0
 28 26  2  0
M  END
$$$$
