YNV.pdb
     RDKit          3D

 28 28  0  0  1  0  0  0  0  0999 V2000
    8.1788  -12.9776   15.9997 O   0  0  0  0  0  0  0  0  0  0  0  0
    7.8238  -13.3627   17.2735 C   0  0  0  0  0  0  0  0  0  0  0  0
    8.1482  -12.5874   18.3557 C   0  0  0  0  0  0  0  0  0  0  0  0
    7.7926  -12.9694   19.6525 C   0  0  0  0  0  0  0  0  0  0  0  0
    7.1041  -14.1495   19.8251 C   0  0  0  0  0  0  0  0  0  0  0  0
    6.7286  -14.5532   21.1975 C   0  0  0  0  0  0  0  0  0  0  0  0
    8.0203  -14.9891   21.8917 C   0  0  2  0  0  0  0  0  0  0  0  0
    8.6478  -15.9701   21.0580 N   0  0  0  0  0  0  0  0  0  0  0  0
    7.6260  -15.5572   23.2101 C   0  0  0  0  0  0  0  0  0  0  0  0
    6.8571  -14.9263   23.9749 O   0  0  0  0  0  0  0  0  0  0  0  0
    6.7677  -14.9418   18.7631 C   0  0  0  0  0  0  0  0  0  0  0  0
    7.1401  -14.5284   17.4767 C   0  0  0  0  0  0  0  0  0  0  0  0
    7.6051  -19.3736   26.9622 N   0  0  0  0  0  0  0  0  0  0  0  0
    7.8864  -19.8642   25.6441 C   0  0  0  0  0  0  0  0  0  0  0  0
    7.9661  -21.0855   25.4914 O   0  0  0  0  0  0  0  0  0  0  0  0
    8.0536  -18.8881   24.6030 C   0  0  0  0  0  0  0  0  0  0  0  0
    7.8639  -17.4305   24.9118 C   0  0  2  0  0  0  0  0  0  0  0  0
    8.1392  -16.8143   23.5692 N   0  0  0  0  0  0  0  0  0  0  0  0
    8.8816  -16.8301   25.7796 C   0  0  0  0  0  0  0  0  0  0  0  0
   10.0952  -16.7697   25.3642 O   0  0  0  0  0  0  0  0  0  0  0  0
   10.3661  -13.7066   29.2610 C   0  0  0  0  0  0  0  0  0  0  0  0
    9.2628  -14.3852   28.4780 C   0  0  1  0  0  0  0  0  0  0  0  0
    8.7669  -13.4057   27.4380 C   0  0  0  0  0  0  0  0  0  0  0  0
    9.7733  -15.6072   27.7712 C   0  0  2  0  0  0  0  0  0  0  0  0
    8.6771  -16.2871   27.0625 N   0  0  0  0  0  0  0  0  0  0  0  0
   10.3187  -16.5599   28.7551 C   0  0  0  0  0  0  0  0  0  0  0  0
   11.6221  -16.4155   29.2647 O   0  0  0  0  0  0  0  0  0  0  0  0
    9.6161  -17.5170   29.1487 O   0  0  0  0  0  0  0  0  0  0  0  0
  2  1  1  0
  2 12  2  0
  3  2  1  0
  4  3  2  0
  4  5  1  0
  5 11  2  0
  6  5  1  0
  7  9  1  0
  7  6  1  0
  7  8  1  6
  9 18  1  0
 10  9  2  0
 11 12  1  0
 14 13  1  0
 15 14  2  0
 16 14  1  0
 17 16  1  6
 18 17  1  0
 19 17  1  0
 20 19  2  0
 22 21  1  6
 22 23  1  0
 22 24  1  0
 24 26  1  0
 24 25  1  1
 25 19  1  0
 26 27  1  0
 28 26  2  0
M  END
$$$$
