YNV.pdb
     RDKit          3D

 28 28  0  0  1  0  0  0  0  0999 V2000
    7.5601  -13.3266   15.6384 O   0  0  0  0  0  0  0  0  0  0  0  0
    7.4763  -13.7330   16.9516 C   0  0  0  0  0  0  0  0  0  0  0  0
    7.9498  -12.9383   17.9625 C   0  0  0  0  0  0  0  0  0  0  0  0
    7.8695  -13.3417   19.2984 C   0  0  0  0  0  0  0  0  0  0  0  0
    7.3008  -14.5631   19.5837 C   0  0  0  0  0  0  0  0  0  0  0  0
    7.2167  -14.9894   20.9975 C   0  0  0  0  0  0  0  0  0  0  0  0
    8.6545  -15.0724   21.5133 C   0  0  2  0  0  0  0  0  0  0  0  0
    9.3977  -15.8773   20.5908 N   0  0  0  0  0  0  0  0  0  0  0  0
    8.5889  -15.6985   22.8624 C   0  0  0  0  0  0  0  0  0  0  0  0
    7.7139  -15.3463   23.6898 O   0  0  0  0  0  0  0  0  0  0  0  0
    6.8205  -15.3755   18.5948 C   0  0  0  0  0  0  0  0  0  0  0  0
    6.9172  -14.9397   17.2662 C   0  0  0  0  0  0  0  0  0  0  0  0
   10.6792  -19.7208   21.9576 N   0  0  0  0  0  0  0  0  0  0  0  0
    9.9126  -19.6107   23.1648 C   0  0  0  0  0  0  0  0  0  0  0  0
    8.9355  -20.3523   23.2936 O   0  0  0  0  0  0  0  0  0  0  0  0
   10.3473  -18.6404   24.1314 C   0  0  0  0  0  0  0  0  0  0  0  0
    9.4645  -17.4707   24.4606 C   0  0  2  0  0  0  0  0  0  0  0  0
    9.5320  -16.6901   23.1784 N   0  0  0  0  0  0  0  0  0  0  0  0
    9.9969  -16.5376   25.4582 C   0  0  0  0  0  0  0  0  0  0  0  0
   11.1138  -15.9487   25.2245 O   0  0  0  0  0  0  0  0  0  0  0  0
    9.6320  -13.1209   28.8901 C   0  0  0  0  0  0  0  0  0  0  0  0
    9.0183  -14.1462   27.9611 C   0  0  1  0  0  0  0  0  0  0  0  0
    8.5632  -13.4229   26.7135 C   0  0  0  0  0  0  0  0  0  0  0  0
   10.0240  -15.1873   27.5637 C   0  0  2  0  0  0  0  0  0  0  0  0
    9.4033  -16.1943   26.6880 N   0  0  0  0  0  0  0  0  0  0  0  0
   10.5139  -15.8898   28.7636 C   0  0  0  0  0  0  0  0  0  0  0  0
   11.5123  -15.3283   29.5804 O   0  0  0  0  0  0  0  0  0  0  0  0
   10.0382  -17.0060   29.0675 O   0  0  0  0  0  0  0  0  0  0  0  0
  2  1  1  0
  2 12  2  0
  3  2  1  0
  4  3  2  0
  4  5  1  0
  5 11  2  0
  6  5  1  0
  7  9  1  0
  7  6  1  0
  7  8  1  6
  9 18  1  0
 10  9  2  0
 11 12  1  0
 14 13  1  0
 15 14  2  0
 16 14  1  0
 17 16  1  6
 18 17  1  0
 19 17  1  0
 20 19  2  0
 22 21  1  1
 22 23  1  0
 22 24  1  0
 24 26  1  0
 24 25  1  6
 25 19  1  0
 26 27  1  0
 28 26  2  0
M  END
$$$$
