YNV.pdb
     RDKit          3D

 28 28  0  0  1  0  0  0  0  0999 V2000
    5.1597  -10.9402   26.2194 O   0  0  0  0  0  0  0  0  0  0  0  0
    6.0849  -11.9497   26.3669 C   0  0  0  0  0  0  0  0  0  0  0  0
    7.1508  -11.8044   27.2155 C   0  0  0  0  0  0  0  0  0  0  0  0
    8.0953  -12.8229   27.3723 C   0  0  0  0  0  0  0  0  0  0  0  0
    7.9343  -13.9858   26.6523 C   0  0  0  0  0  0  0  0  0  0  0  0
    8.9343  -15.0628   26.8184 C   0  0  0  0  0  0  0  0  0  0  0  0
    8.4821  -16.2183   25.9237 C   0  0  2  0  0  0  0  0  0  0  0  0
    7.2433  -16.7101   26.4478 N   0  0  0  0  0  0  0  0  0  0  0  0
    9.5539  -17.2497   25.9834 C   0  0  0  0  0  0  0  0  0  0  0  0
    9.9132  -17.7369   27.0824 O   0  0  0  0  0  0  0  0  0  0  0  0
    6.8802  -14.1571   25.7989 C   0  0  0  0  0  0  0  0  0  0  0  0
    5.9521  -13.1152   25.6660 C   0  0  0  0  0  0  0  0  0  0  0  0
   11.3151  -21.7759   24.6190 N   0  0  0  0  0  0  0  0  0  0  0  0
    9.9739  -21.3494   24.8953 C   0  0  0  0  0  0  0  0  0  0  0  0
    9.1254  -22.2210   25.0998 O   0  0  0  0  0  0  0  0  0  0  0  0
    9.7260  -19.9342   24.9115 C   0  0  0  0  0  0  0  0  0  0  0  0
   10.8537  -18.9779   24.6472 C   0  0  2  0  0  0  0  0  0  0  0  0
   10.1475  -17.6580   24.7778 N   0  0  0  0  0  0  0  0  0  0  0  0
   11.3594  -18.9613   23.2712 C   0  0  0  0  0  0  0  0  0  0  0  0
   11.9529  -20.0045   22.8147 O   0  0  0  0  0  0  0  0  0  0  0  0
   10.2193  -16.5453   20.1190 C   0  0  0  0  0  0  0  0  0  0  0  0
   11.7164  -16.7105   20.2683 C   0  0  1  0  0  0  0  0  0  0  0  0
   12.2484  -15.4785   20.9655 C   0  0  0  0  0  0  0  0  0  0  0  0
   12.0477  -17.9095   21.1085 C   0  0  2  0  0  0  0  0  0  0  0  0
   11.2640  -17.8971   22.3542 N   0  0  0  0  0  0  0  0  0  0  0  0
   13.4726  -17.8753   21.4849 C   0  0  0  0  0  0  0  0  0  0  0  0
   14.4770  -18.2430   20.5710 O   0  0  0  0  0  0  0  0  0  0  0  0
   13.8026  -17.5141   22.6361 O   0  0  0  0  0  0  0  0  0  0  0  0
  2  1  1  0
  2 12  2  0
  3  2  1  0
  4  3  2  0
  4  5  1  0
  5 11  2  0
  6  5  1  0
  7  9  1  0
  7  6  1  0
  7  8  1  1
  9 18  1  0
 10  9  2  0
 11 12  1  0
 14 13  1  0
 15 14  2  0
 16 14  1  0
 17 16  1  6
 18 17  1  0
 19 17  1  0
 20 19  2  0
 22 21  1  1
 22 23  1  0
 22 24  1  0
 24 26  1  0
 24 25  1  1
 25 19  1  0
 26 27  1  0
 28 26  2  0
M  END
$$$$
