YNV.pdb
     RDKit          3D

 28 28  0  0  1  0  0  0  0  0999 V2000
    8.7917  -12.2082   19.4138 O   0  0  0  0  0  0  0  0  0  0  0  0
    8.2375  -13.0885   20.3164 C   0  0  0  0  0  0  0  0  0  0  0  0
    9.0319  -13.8184   21.1611 C   0  0  0  0  0  0  0  0  0  0  0  0
    8.4793  -14.7144   22.0807 C   0  0  0  0  0  0  0  0  0  0  0  0
    7.1097  -14.8521   22.1234 C   0  0  0  0  0  0  0  0  0  0  0  0
    6.5257  -15.8008   23.0963 C   0  0  0  0  0  0  0  0  0  0  0  0
    7.0736  -17.1835   22.7385 C   0  0  2  0  0  0  0  0  0  0  0  0
    6.0025  -18.1229   22.8854 N   0  0  0  0  0  0  0  0  0  0  0  0
    8.1850  -17.4618   23.6890 C   0  0  0  0  0  0  0  0  0  0  0  0
    7.9843  -18.1331   24.7299 O   0  0  0  0  0  0  0  0  0  0  0  0
    6.2938  -14.1363   21.2923 C   0  0  0  0  0  0  0  0  0  0  0  0
    6.8817  -13.2468   20.3824 C   0  0  0  0  0  0  0  0  0  0  0  0
   13.7267  -18.5416   23.1684 N   0  0  0  0  0  0  0  0  0  0  0  0
   13.1396  -17.2593   23.4295 C   0  0  0  0  0  0  0  0  0  0  0  0
   13.8590  -16.3894   23.9266 O   0  0  0  0  0  0  0  0  0  0  0  0
   11.7537  -17.0911   23.0893 C   0  0  0  0  0  0  0  0  0  0  0  0
   10.6934  -17.4251   24.0993 C   0  0  2  0  0  0  0  0  0  0  0  0
    9.4582  -16.9521   23.3862 N   0  0  0  0  0  0  0  0  0  0  0  0
   10.7111  -16.6202   25.3245 C   0  0  0  0  0  0  0  0  0  0  0  0
   11.7566  -16.6457   26.0697 O   0  0  0  0  0  0  0  0  0  0  0  0
    8.8301  -13.2229   28.4405 C   0  0  0  0  0  0  0  0  0  0  0  0
    8.5951  -14.2904   27.3935 C   0  0  1  0  0  0  0  0  0  0  0  0
    7.9897  -13.6201   26.1805 C   0  0  0  0  0  0  0  0  0  0  0  0
    9.8851  -14.9379   26.9813 C   0  0  2  0  0  0  0  0  0  0  0  0
    9.6790  -15.7870   25.7969 N   0  0  0  0  0  0  0  0  0  0  0  0
   10.3745  -15.8076   28.0663 C   0  0  0  0  0  0  0  0  0  0  0  0
   11.3568  -15.3631   28.9700 O   0  0  0  0  0  0  0  0  0  0  0  0
    9.9129  -16.9633   28.1921 O   0  0  0  0  0  0  0  0  0  0  0  0
  2  1  1  0
  2 12  2  0
  3  2  1  0
  4  3  2  0
  4  5  1  0
  5 11  2  0
  6  5  1  0
  7  9  1  0
  7  6  1  0
  7  8  1  1
  9 18  1  0
 10  9  2  0
 11 12  1  0
 14 13  1  0
 15 14  2  0
 16 14  1  0
 17 16  1  6
 18 17  1  0
 19 17  1  0
 20 19  2  0
 22 21  1  1
 22 23  1  0
 22 24  1  0
 24 26  1  0
 24 25  1  6
 25 19  1  0
 26 27  1  0
 28 26  2  0
M  END
$$$$
