IMV.pdb
     RDKit          3D

 24 23  0  0  1  0  0  0  0  0999 V2000
    8.3026  -12.7394   19.6961 C   0  0  0  0  0  0  0  0  0  0  0  0
    8.3752  -14.0739   20.3582 C   0  0  0  0  0  0  0  0  0  0  0  0
    7.3921  -15.0823   19.8018 C   0  0  2  0  0  0  0  0  0  0  0  0
    6.0160  -14.4763   19.9314 C   0  0  0  0  0  0  0  0  0  0  0  0
    7.5100  -16.3940   20.5340 C   0  0  2  0  0  0  0  0  0  0  0  0
    6.9002  -17.4828   19.8186 N   0  0  0  0  0  0  0  0  0  0  0  0
    7.0548  -16.3466   21.9159 C   0  0  0  0  0  0  0  0  0  0  0  0
    5.8442  -16.2335   22.2380 O   0  0  0  0  0  0  0  0  0  0  0  0
    6.5816  -20.5518   26.3582 C   0  0  0  0  0  0  0  0  0  0  0  0
    7.6814  -19.3786   27.1988 S   0  0  0  0  0  0  0  0  0  0  0  0
    7.4663  -17.7294   26.4834 C   0  0  0  0  0  0  0  0  0  0  0  0
    7.8313  -17.7777   25.0157 C   0  0  0  0  0  0  0  0  0  0  0  0
    7.6000  -16.4330   24.3586 C   0  0  2  0  0  0  0  0  0  0  0  0
    7.9998  -16.4299   22.9756 N   0  0  0  0  0  0  0  0  0  0  0  0
    8.2469  -15.3366   25.0930 C   0  0  0  0  0  0  0  0  0  0  0  0
    9.4916  -15.1557   24.9148 O   0  0  0  0  0  0  0  0  0  0  0  0
    7.3892  -11.6847   25.3748 C   0  0  0  0  0  0  0  0  0  0  0  0
    7.4832  -12.2422   26.7840 C   0  0  1  0  0  0  0  0  0  0  0  0
    6.1033  -12.4701   27.3624 C   0  0  0  0  0  0  0  0  0  0  0  0
    8.2892  -13.5332   26.7681 C   0  0  2  0  0  0  0  0  0  0  0  0
    7.5581  -14.4776   25.9826 N   0  0  0  0  0  0  0  0  0  0  0  0
    8.5792  -14.0094   28.1333 C   0  0  0  0  0  0  0  0  0  0  0  0
    9.4127  -13.2635   28.9462 O   0  0  0  0  0  0  0  0  0  0  0  0
    8.0924  -15.0727   28.5822 O   0  0  0  0  0  0  0  0  0  0  0  0
  2  1  1  0
  3  2  1  0
  3  4  1  1
  5  6  1  6
  5  3  1  0
  7  5  1  0
  8  7  2  0
 10  9  1  0
 11 10  1  0
 12 11  1  0
 13 12  1  1
 13 14  1  0
 14  7  1  0
 15 13  1  0
 15 16  2  0
 18 17  1  6
 18 20  1  0
 19 18  1  0
 20 21  1  6
 21 15  1  0
 22 20  1  0
 23 22  1  0
 24 22  2  0
M  END
$$$$
