IMV.pdb
     RDKit          3D

 24 23  0  0  1  0  0  0  0  0999 V2000
    9.8439  -20.2554   19.8813 C   0  0  0  0  0  0  0  0  0  0  0  0
    9.4216  -18.8257   19.8343 C   0  0  0  0  0  0  0  0  0  0  0  0
    9.7234  -18.0611   21.1060 C   0  0  2  0  0  0  0  0  0  0  0  0
    9.0662  -18.8106   22.2391 C   0  0  0  0  0  0  0  0  0  0  0  0
    9.2300  -16.6415   20.9980 C   0  0  2  0  0  0  0  0  0  0  0  0
    9.8078  -15.9390   19.8836 N   0  0  0  0  0  0  0  0  0  0  0  0
    9.3521  -15.8742   22.2291 C   0  0  0  0  0  0  0  0  0  0  0  0
   10.4280  -15.3411   22.6038 O   0  0  0  0  0  0  0  0  0  0  0  0
    4.8593  -11.6532   25.9318 C   0  0  0  0  0  0  0  0  0  0  0  0
    6.6288  -11.9619   25.6743 S   0  0  0  0  0  0  0  0  0  0  0  0
    6.9981  -13.6977   26.0334 C   0  0  0  0  0  0  0  0  0  0  0  0
    6.9035  -14.4968   24.7519 C   0  0  0  0  0  0  0  0  0  0  0  0
    8.2774  -14.9293   24.2843 C   0  0  2  0  0  0  0  0  0  0  0  0
    8.2185  -15.7011   23.0704 N   0  0  0  0  0  0  0  0  0  0  0  0
    9.0184  -15.6512   25.3282 C   0  0  0  0  0  0  0  0  0  0  0  0
    8.9327  -16.9184   25.3486 O   0  0  0  0  0  0  0  0  0  0  0  0
   10.0582  -13.9928   28.8810 C   0  0  0  0  0  0  0  0  0  0  0  0
   11.1599  -14.8311   28.2573 C   0  0  1  0  0  0  0  0  0  0  0  0
   11.9332  -15.5770   29.3232 C   0  0  0  0  0  0  0  0  0  0  0  0
   10.5559  -15.7943   27.2454 C   0  0  2  0  0  0  0  0  0  0  0  0
    9.8175  -15.0105   26.3053 N   0  0  0  0  0  0  0  0  0  0  0  0
    9.7440  -16.8347   27.9034 C   0  0  0  0  0  0  0  0  0  0  0  0
    8.3688  -16.8087   27.7620 O   0  0  0  0  0  0  0  0  0  0  0  0
   10.2627  -17.7456   28.5894 O   0  0  0  0  0  0  0  0  0  0  0  0
  2  1  1  0
  3  2  1  0
  3  4  1  1
  5  6  1  6
  5  3  1  0
  7  5  1  0
  8  7  2  0
 10  9  1  0
 11 10  1  0
 12 11  1  0
 13 12  1  1
 13 14  1  0
 14  7  1  0
 15 13  1  0
 15 16  2  0
 18 17  1  1
 18 20  1  0
 19 18  1  0
 20 21  1  6
 21 15  1  0
 22 20  1  0
 23 22  1  0
 24 22  2  0
M  END
$$$$
