IMV.pdb
     RDKit          3D

 24 23  0  0  1  0  0  0  0  0999 V2000
    8.0673  -12.7980   19.7862 C   0  0  0  0  0  0  0  0  0  0  0  0
    7.3485  -14.0483   20.1667 C   0  0  0  0  0  0  0  0  0  0  0  0
    8.2317  -15.2782   20.1747 C   0  0  2  0  0  0  0  0  0  0  0  0
    8.8397  -15.3951   18.7983 C   0  0  0  0  0  0  0  0  0  0  0  0
    7.4333  -16.4990   20.5521 C   0  0  2  0  0  0  0  0  0  0  0  0
    6.3971  -16.7975   19.6000 N   0  0  0  0  0  0  0  0  0  0  0  0
    6.9126  -16.4723   21.9113 C   0  0  0  0  0  0  0  0  0  0  0  0
    5.7231  -16.1702   22.1866 O   0  0  0  0  0  0  0  0  0  0  0  0
    7.2837  -20.9119   26.2965 C   0  0  0  0  0  0  0  0  0  0  0  0
    7.4921  -19.4834   27.3959 S   0  0  0  0  0  0  0  0  0  0  0  0
    7.0234  -17.9712   26.5175 C   0  0  0  0  0  0  0  0  0  0  0  0
    7.5125  -18.0600   25.0883 C   0  0  0  0  0  0  0  0  0  0  0  0
    7.3144  -16.7425   24.3684 C   0  0  2  0  0  0  0  0  0  0  0  0
    7.7650  -16.7985   23.0022 N   0  0  0  0  0  0  0  0  0  0  0  0
    7.9409  -15.6199   25.0806 C   0  0  0  0  0  0  0  0  0  0  0  0
    9.1824  -15.4206   24.8997 O   0  0  0  0  0  0  0  0  0  0  0  0
    7.4649  -11.4417   27.6248 C   0  0  0  0  0  0  0  0  0  0  0  0
    6.8197  -12.6429   26.9566 C   0  0  1  0  0  0  0  0  0  0  0  0
    5.9715  -12.2094   25.7806 C   0  0  0  0  0  0  0  0  0  0  0  0
    7.8989  -13.6234   26.5202 C   0  0  2  0  0  0  0  0  0  0  0  0
    7.2359  -14.7552   25.9519 N   0  0  0  0  0  0  0  0  0  0  0  0
    8.7985  -13.9728   27.6352 C   0  0  0  0  0  0  0  0  0  0  0  0
    9.8023  -13.0926   27.9947 O   0  0  0  0  0  0  0  0  0  0  0  0
    8.6818  -15.0464   28.2700 O   0  0  0  0  0  0  0  0  0  0  0  0
  2  1  1  0
  3  2  1  0
  3  4  1  6
  5  6  1  6
  5  3  1  0
  7  5  1  0
  8  7  2  0
 10  9  1  0
 11 10  1  0
 12 11  1  0
 13 12  1  1
 13 14  1  0
 14  7  1  0
 15 13  1  0
 15 16  2  0
 18 17  1  6
 18 20  1  0
 19 18  1  0
 20 21  1  1
 21 15  1  0
 22 20  1  0
 23 22  1  0
 24 22  2  0
M  END
$$$$
