IMV.pdb
     RDKit          3D

 24 23  0  0  1  0  0  0  0  0999 V2000
    8.8257  -12.2354   19.3768 C   0  0  0  0  0  0  0  0  0  0  0  0
    7.7252  -12.8183   20.1976 C   0  0  0  0  0  0  0  0  0  0  0  0
    7.4826  -14.2891   19.9314 C   0  0  2  0  0  0  0  0  0  0  0  0
    6.2104  -14.6648   20.6512 C   0  0  0  0  0  0  0  0  0  0  0  0
    8.6610  -15.1096   20.3881 C   0  0  2  0  0  0  0  0  0  0  0  0
    8.5171  -16.5058   20.0736 N   0  0  0  0  0  0  0  0  0  0  0  0
    9.0148  -14.9150   21.7867 C   0  0  0  0  0  0  0  0  0  0  0  0
   10.1846  -14.6583   22.1712 O   0  0  0  0  0  0  0  0  0  0  0  0
    7.0206  -10.9622   27.0933 C   0  0  0  0  0  0  0  0  0  0  0  0
    6.3316  -12.6404   27.0494 S   0  0  0  0  0  0  0  0  0  0  0  0
    7.5466  -13.7740   26.3304 C   0  0  0  0  0  0  0  0  0  0  0  0
    7.2140  -13.9910   24.8702 C   0  0  0  0  0  0  0  0  0  0  0  0
    8.3003  -14.7924   24.1838 C   0  0  2  0  0  0  0  0  0  0  0  0
    8.0122  -15.0134   22.7906 N   0  0  0  0  0  0  0  0  0  0  0  0
    8.5717  -16.0633   24.8703 C   0  0  0  0  0  0  0  0  0  0  0  0
    7.6247  -16.9056   24.9566 O   0  0  0  0  0  0  0  0  0  0  0  0
   12.4506  -17.3087   25.3787 C   0  0  0  0  0  0  0  0  0  0  0  0
   11.2804  -18.2559   25.1820 C   0  0  1  0  0  0  0  0  0  0  0  0
   11.6333  -19.6485   25.6580 C   0  0  0  0  0  0  0  0  0  0  0  0
   10.0614  -17.7191   25.9185 C   0  0  2  0  0  0  0  0  0  0  0  0
    9.8263  -16.3943   25.4360 N   0  0  0  0  0  0  0  0  0  0  0  0
   10.2378  -17.7852   27.3811 C   0  0  0  0  0  0  0  0  0  0  0  0
   10.2415  -16.6133   28.1148 O   0  0  0  0  0  0  0  0  0  0  0  0
   10.3850  -18.8740   27.9828 O   0  0  0  0  0  0  0  0  0  0  0  0
  2  1  1  0
  3  2  1  0
  3  4  1  1
  5  6  1  1
  5  3  1  0
  7  5  1  0
  8  7  2  0
 10  9  1  0
 11 10  1  0
 12 11  1  0
 13 12  1  1
 13 14  1  0
 14  7  1  0
 15 13  1  0
 15 16  2  0
 18 17  1  1
 18 20  1  0
 19 18  1  0
 20 21  1  6
 21 15  1  0
 22 20  1  0
 23 22  1  0
 24 22  2  0
M  END
$$$$
