IMV.pdb
     RDKit          3D

 24 23  0  0  1  0  0  0  0  0999 V2000
    7.8850  -12.3997   19.1959 C   0  0  0  0  0  0  0  0  0  0  0  0
    7.8020  -13.5447   20.1482 C   0  0  0  0  0  0  0  0  0  0  0  0
    8.8261  -14.6288   19.8853 C   0  0  2  0  0  0  0  0  0  0  0  0
    8.6259  -15.0905   18.4624 C   0  0  0  0  0  0  0  0  0  0  0  0
    8.6720  -15.7522   20.8775 C   0  0  2  0  0  0  0  0  0  0  0  0
    7.4532  -16.4925   20.6889 N   0  0  0  0  0  0  0  0  0  0  0  0
    8.8363  -15.3463   22.2658 C   0  0  0  0  0  0  0  0  0  0  0  0
    9.8708  -14.7765   22.6982 O   0  0  0  0  0  0  0  0  0  0  0  0
    6.7892  -11.7352   27.9757 C   0  0  0  0  0  0  0  0  0  0  0  0
    6.6771  -12.5147   26.3409 S   0  0  0  0  0  0  0  0  0  0  0  0
    6.5602  -14.3111   26.5345 C   0  0  0  0  0  0  0  0  0  0  0  0
    6.4747  -14.9496   25.1653 C   0  0  0  0  0  0  0  0  0  0  0  0
    7.8524  -15.1036   24.5559 C   0  0  2  0  0  0  0  0  0  0  0  0
    7.7949  -15.5919   23.2028 N   0  0  0  0  0  0  0  0  0  0  0  0
    8.7337  -15.9441   25.3787 C   0  0  0  0  0  0  0  0  0  0  0  0
    8.7982  -17.1828   25.1049 O   0  0  0  0  0  0  0  0  0  0  0  0
   12.3222  -14.9400   26.4616 C   0  0  0  0  0  0  0  0  0  0  0  0
   11.5591  -15.4897   27.6537 C   0  0  1  0  0  0  0  0  0  0  0  0
   11.0905  -14.3664   28.5532 C   0  0  0  0  0  0  0  0  0  0  0  0
   10.3842  -16.3248   27.1650 C   0  0  2  0  0  0  0  0  0  0  0  0
    9.5092  -15.4466   26.4534 N   0  0  0  0  0  0  0  0  0  0  0  0
    9.7227  -17.0343   28.2757 C   0  0  0  0  0  0  0  0  0  0  0  0
   10.4271  -17.9937   28.9795 O   0  0  0  0  0  0  0  0  0  0  0  0
    8.5377  -16.7944   28.6037 O   0  0  0  0  0  0  0  0  0  0  0  0
  2  1  1  0
  3  2  1  0
  3  4  1  6
  5  6  1  1
  5  3  1  0
  7  5  1  0
  8  7  2  0
 10  9  1  0
 11 10  1  0
 12 11  1  0
 13 12  1  1
 13 14  1  0
 14  7  1  0
 15 13  1  0
 15 16  2  0
 18 17  1  6
 18 20  1  0
 19 18  1  0
 20 21  1  1
 21 15  1  0
 22 20  1  0
 23 22  1  0
 24 22  2  0
M  END
$$$$
