IMV.pdb
     RDKit          3D

 24 23  0  0  1  0  0  0  0  0999 V2000
    2.3340  -18.4137   22.0375 C   0  0  0  0  0  0  0  0  0  0  0  0
    3.7100  -17.9406   21.7098 C   0  0  0  0  0  0  0  0  0  0  0  0
    4.6824  -19.0619   21.4095 C   0  0  2  0  0  0  0  0  0  0  0  0
    3.8643  -20.3132   21.2027 C   0  0  0  0  0  0  0  0  0  0  0  0
    5.6796  -19.2099   22.5294 C   0  0  2  0  0  0  0  0  0  0  0  0
    5.0706  -19.6463   23.7573 N   0  0  0  0  0  0  0  0  0  0  0  0
    6.5158  -18.0370   22.7400 C   0  0  0  0  0  0  0  0  0  0  0  0
    7.2406  -17.5384   21.8411 O   0  0  0  0  0  0  0  0  0  0  0  0
    7.9837  -12.1067   27.7661 C   0  0  0  0  0  0  0  0  0  0  0  0
    6.7764  -13.2296   27.0083 S   0  0  0  0  0  0  0  0  0  0  0  0
    7.6438  -14.4602   26.0026 C   0  0  0  0  0  0  0  0  0  0  0  0
    6.6248  -15.2884   25.2504 C   0  0  0  0  0  0  0  0  0  0  0  0
    7.3052  -16.2102   24.2602 C   0  0  2  0  0  0  0  0  0  0  0  0
    6.5361  -17.4017   24.0123 N   0  0  0  0  0  0  0  0  0  0  0  0
    8.6769  -16.5476   24.6663 C   0  0  0  0  0  0  0  0  0  0  0  0
    8.8302  -17.4466   25.5505 O   0  0  0  0  0  0  0  0  0  0  0  0
   13.3024  -16.6848   23.0415 C   0  0  0  0  0  0  0  0  0  0  0  0
   11.9138  -16.0720   22.9977 C   0  0  1  0  0  0  0  0  0  0  0  0
   11.2438  -16.3595   21.6715 C   0  0  0  0  0  0  0  0  0  0  0  0
   11.0844  -16.6069   24.1564 C   0  0  2  0  0  0  0  0  0  0  0  0
    9.8280  -15.9260   24.1257 N   0  0  0  0  0  0  0  0  0  0  0  0
   11.7932  -16.4669   25.4419 C   0  0  0  0  0  0  0  0  0  0  0  0
   11.3018  -15.5914   26.3926 O   0  0  0  0  0  0  0  0  0  0  0  0
   12.8310  -17.1188   25.7015 O   0  0  0  0  0  0  0  0  0  0  0  0
  2  1  1  0
  3  2  1  0
  3  4  1  1
  5  6  1  1
  5  3  1  0
  7  5  1  0
  8  7  2  0
 10  9  1  0
 11 10  1  0
 12 11  1  0
 13 12  1  1
 13 14  1  0
 14  7  1  0
 15 13  1  0
 15 16  2  0
 18 17  1  6
 18 20  1  0
 19 18  1  0
 20 21  1  1
 21 15  1  0
 22 20  1  0
 23 22  1  0
 24 22  2  0
M  END
$$$$
