IMV.pdb
     RDKit          3D

 24 23  0  0  1  0  0  0  0  0999 V2000
    6.7143  -17.6317   17.8833 C   0  0  0  0  0  0  0  0  0  0  0  0
    6.6665  -17.9605   19.3373 C   0  0  0  0  0  0  0  0  0  0  0  0
    7.4747  -17.0149   20.2007 C   0  0  2  0  0  0  0  0  0  0  0  0
    8.8915  -17.0435   19.6814 C   0  0  0  0  0  0  0  0  0  0  0  0
    7.3891  -17.4194   21.6497 C   0  0  2  0  0  0  0  0  0  0  0  0
    6.0507  -17.7637   22.0490 N   0  0  0  0  0  0  0  0  0  0  0  0
    7.9876  -16.4637   22.5703 C   0  0  0  0  0  0  0  0  0  0  0  0
    9.1972  -16.1229   22.5182 O   0  0  0  0  0  0  0  0  0  0  0  0
    6.0854  -10.4596   25.4833 C   0  0  0  0  0  0  0  0  0  0  0  0
    6.1044  -11.8553   26.6427 S   0  0  0  0  0  0  0  0  0  0  0  0
    7.3463  -13.0626   26.1151 C   0  0  0  0  0  0  0  0  0  0  0  0
    6.7253  -13.9960   25.0988 C   0  0  0  0  0  0  0  0  0  0  0  0
    7.7507  -14.9784   24.5727 C   0  0  2  0  0  0  0  0  0  0  0  0
    7.1926  -15.8691   23.5889 N   0  0  0  0  0  0  0  0  0  0  0  0
    8.4027  -15.7331   25.6522 C   0  0  0  0  0  0  0  0  0  0  0  0
    8.9449  -15.0746   26.5935 O   0  0  0  0  0  0  0  0  0  0  0  0
    6.9561  -19.0466   27.0625 C   0  0  0  0  0  0  0  0  0  0  0  0
    8.4618  -19.1822   26.9217 C   0  0  1  0  0  0  0  0  0  0  0  0
    8.8122  -20.0453   25.7289 C   0  0  0  0  0  0  0  0  0  0  0  0
    9.0883  -17.8004   26.7994 C   0  0  2  0  0  0  0  0  0  0  0  0
    8.4567  -17.1470   25.6960 N   0  0  0  0  0  0  0  0  0  0  0  0
   10.5551  -17.8785   26.6700 C   0  0  0  0  0  0  0  0  0  0  0  0
   11.1554  -17.4338   25.5065 O   0  0  0  0  0  0  0  0  0  0  0  0
   11.2781  -18.3369   27.5846 O   0  0  0  0  0  0  0  0  0  0  0  0
  2  1  1  0
  3  2  1  0
  3  4  1  6
  5  6  1  1
  5  3  1  0
  7  5  1  0
  8  7  2  0
 10  9  1  0
 11 10  1  0
 12 11  1  0
 13 12  1  1
 13 14  1  0
 14  7  1  0
 15 13  1  0
 15 16  2  0
 18 17  1  6
 18 20  1  0
 19 18  1  0
 20 21  1  6
 21 15  1  0
 22 20  1  0
 23 22  1  0
 24 22  2  0
M  END
$$$$
