IMV.pdb
     RDKit          3D

 24 23  0  0  1  0  0  0  0  0999 V2000
    6.7685  -17.9853   17.9685 C   0  0  0  0  0  0  0  0  0  0  0  0
    6.5602  -16.6849   18.6687 C   0  0  0  0  0  0  0  0  0  0  0  0
    7.4834  -16.4768   19.8508 C   0  0  2  0  0  0  0  0  0  0  0  0
    7.2333  -17.6126   20.8126 C   0  0  0  0  0  0  0  0  0  0  0  0
    7.2387  -15.1302   20.4810 C   0  0  2  0  0  0  0  0  0  0  0  0
    7.3658  -14.0489   19.5408 N   0  0  0  0  0  0  0  0  0  0  0  0
    8.0244  -14.8839   21.6815 C   0  0  0  0  0  0  0  0  0  0  0  0
    9.2681  -14.6966   21.6635 O   0  0  0  0  0  0  0  0  0  0  0  0
    5.5758  -11.9524   27.2573 C   0  0  0  0  0  0  0  0  0  0  0  0
    6.9936  -11.4118   26.2622 S   0  0  0  0  0  0  0  0  0  0  0  0
    7.1240  -12.4475   24.7829 C   0  0  0  0  0  0  0  0  0  0  0  0
    7.3149  -13.8880   25.2054 C   0  0  0  0  0  0  0  0  0  0  0  0
    8.1194  -14.6499   24.1731 C   0  0  2  0  0  0  0  0  0  0  0  0
    7.3843  -14.8472   22.9511 N   0  0  0  0  0  0  0  0  0  0  0  0
    8.6228  -15.9289   24.6936 C   0  0  0  0  0  0  0  0  0  0  0  0
    7.7809  -16.8562   24.9059 O   0  0  0  0  0  0  0  0  0  0  0  0
   11.2075  -18.1104   23.2728 C   0  0  0  0  0  0  0  0  0  0  0  0
   11.5965  -17.9109   24.7269 C   0  0  1  0  0  0  0  0  0  0  0  0
   12.7409  -16.9275   24.8445 C   0  0  0  0  0  0  0  0  0  0  0  0
   10.3853  -17.4370   25.5175 C   0  0  2  0  0  0  0  0  0  0  0  0
    9.9888  -16.1783   24.9682 N   0  0  0  0  0  0  0  0  0  0  0  0
   10.6690  -17.3797   26.9635 C   0  0  0  0  0  0  0  0  0  0  0  0
   10.9480  -18.5504   27.6442 O   0  0  0  0  0  0  0  0  0  0  0  0
   10.6652  -16.2995   27.5977 O   0  0  0  0  0  0  0  0  0  0  0  0
  2  1  1  0
  3  2  1  0
  3  4  1  1
  5  6  1  6
  5  3  1  0
  7  5  1  0
  8  7  2  0
 10  9  1  0
 11 10  1  0
 12 11  1  0
 13 12  1  1
 13 14  1  0
 14  7  1  0
 15 13  1  0
 15 16  2  0
 18 17  1  6
 18 20  1  0
 19 18  1  0
 20 21  1  6
 21 15  1  0
 22 20  1  0
 23 22  1  0
 24 22  2  0
M  END
$$$$
