KMP.pdb
     RDKit          3D

 25 25  0  0  1  0  0  0  0  0999 V2000
   20.0657  -19.0875  -15.8262 N   0  0  0  0  0  0  0  0  0  0  0  0
   20.8220  -20.1364  -15.2003 C   0  0  1  0  0  0  0  0  0  0  0  0
   20.9165  -21.2865  -16.1819 C   0  0  0  0  0  0  0  0  0  0  0  0
   19.5319  -21.8263  -16.3722 C   0  0  0  0  0  0  0  0  0  0  0  0
   19.4926  -23.0729  -17.2182 C   0  0  0  0  0  0  0  0  0  0  0  0
   19.9201  -24.2260  -16.2990 C   0  0  0  0  0  0  0  0  0  0  0  0
   18.8522  -24.5503  -15.3691 N   0  0  0  0  0  0  0  0  0  0  0  0
   22.1433  -19.6847  -14.7234 C   0  0  0  0  0  0  0  0  0  0  0  0
   22.6566  -18.6987  -15.3014 O   0  0  0  0  0  0  0  0  0  0  0  0
   27.1999  -20.4527   -8.7099 C   0  0  0  0  0  0  0  0  0  0  0  0
   25.5863  -20.8160   -9.4245 S   0  0  0  0  0  0  0  0  0  0  0  0
   25.6957  -20.4655  -11.2334 C   0  0  0  0  0  0  0  0  0  0  0  0
   24.3435  -20.5706  -11.8387 C   0  0  0  0  0  0  0  0  0  0  0  0
   24.1698  -20.0496  -13.2276 C   0  0  2  0  0  0  0  0  0  0  0  0
   22.7772  -20.3548  -13.6593 N   0  0  0  0  0  0  0  0  0  0  0  0
   25.0543  -20.5870  -14.2601 C   0  0  0  0  0  0  0  0  0  0  0  0
   24.6420  -21.5330  -15.0280 O   0  0  0  0  0  0  0  0  0  0  0  0
   26.3760  -20.1575  -14.5278 N   0  0  0  0  0  0  0  0  0  0  0  0
   27.2125  -19.3062  -13.7393 C   0  0  0  0  0  0  0  0  0  0  0  0
   27.8551  -18.3833  -14.7832 C   0  0  0  0  0  0  0  0  0  0  0  0
   27.7653  -19.1348  -16.0839 C   0  0  0  0  0  0  0  0  0  0  0  0
   27.1990  -20.4893  -15.7014 C   0  0  1  0  0  0  0  0  0  0  0  0
   28.2625  -21.4557  -15.3685 C   0  0  0  0  0  0  0  0  0  0  0  0
   29.0059  -21.8688  -16.2762 O   0  0  0  0  0  0  0  0  0  0  0  0
   28.4575  -21.9156  -14.0795 O   0  0  0  0  0  0  0  0  0  0  0  0
  2  1  1  6
  2  8  1  0
  2  3  1  0
  4  3  1  0
  4  5  1  0
  6  5  1  0
  6  7  1  0
  8  9  2  0
 10 11  1  0
 11 12  1  0
 13 12  1  0
 14 13  1  1
 15 14  1  0
 15  8  1  0
 16 14  1  0
 16 17  2  0
 18 16  1  0
 19 18  1  0
 20 19  1  0
 21 20  1  0
 21 22  1  0
 22 18  1  0
 22 23  1  1
 23 25  1  0
 24 23  2  0
M  END
$$$$
