KMP.pdb
     RDKit          3D

 25 25  0  0  1  0  0  0  0  0999 V2000
   21.1301  -14.6492  -19.1843 N   0  0  0  0  0  0  0  0  0  0  0  0
   21.7896  -13.4110  -19.4939 C   0  0  1  0  0  0  0  0  0  0  0  0
   20.9131  -12.6522  -20.4691 C   0  0  0  0  0  0  0  0  0  0  0  0
   19.7670  -13.5473  -20.8296 C   0  0  0  0  0  0  0  0  0  0  0  0
   18.4565  -13.1017  -20.2337 C   0  0  0  0  0  0  0  0  0  0  0  0
   17.3756  -13.9875  -20.8695 C   0  0  0  0  0  0  0  0  0  0  0  0
   16.0877  -13.7349  -20.2466 N   0  0  0  0  0  0  0  0  0  0  0  0
   22.1206  -12.6212  -18.2922 C   0  0  0  0  0  0  0  0  0  0  0  0
   21.2994  -12.6427  -17.3463 O   0  0  0  0  0  0  0  0  0  0  0  0
   27.9282  -12.2186  -15.7645 C   0  0  0  0  0  0  0  0  0  0  0  0
   26.7686  -11.2591  -14.7738 S   0  0  0  0  0  0  0  0  0  0  0  0
   25.8127  -10.1870  -15.9330 C   0  0  0  0  0  0  0  0  0  0  0  0
   25.1950  -11.0298  -16.9884 C   0  0  0  0  0  0  0  0  0  0  0  0
   23.7036  -11.0496  -17.0669 C   0  0  2  0  0  0  0  0  0  0  0  0
   23.3188  -11.8832  -18.2400 N   0  0  0  0  0  0  0  0  0  0  0  0
   23.0242   -9.7652  -17.2266 C   0  0  0  0  0  0  0  0  0  0  0  0
   22.8335   -9.2832  -18.4040 O   0  0  0  0  0  0  0  0  0  0  0  0
   22.5212   -8.9555  -16.1805 N   0  0  0  0  0  0  0  0  0  0  0  0
   22.5381   -9.2078  -14.7725 C   0  0  0  0  0  0  0  0  0  0  0  0
   21.1361   -8.7755  -14.3231 C   0  0  0  0  0  0  0  0  0  0  0  0
   20.6591   -7.8186  -15.3821 C   0  0  0  0  0  0  0  0  0  0  0  0
   21.8495   -7.6526  -16.3078 C   0  0  1  0  0  0  0  0  0  0  0  0
   22.7239   -6.5424  -15.8852 C   0  0  0  0  0  0  0  0  0  0  0  0
   22.2796   -5.3810  -15.9166 O   0  0  0  0  0  0  0  0  0  0  0  0
   24.0209   -6.7536  -15.4558 O   0  0  0  0  0  0  0  0  0  0  0  0
  2  1  1  1
  2  8  1  0
  2  3  1  0
  4  3  1  0
  4  5  1  0
  6  5  1  0
  6  7  1  0
  8  9  2  0
 10 11  1  0
 11 12  1  0
 13 12  1  0
 14 13  1  6
 15 14  1  0
 15  8  1  0
 16 14  1  0
 16 17  2  0
 18 16  1  0
 19 18  1  0
 20 19  1  0
 21 20  1  0
 21 22  1  0
 22 18  1  0
 22 23  1  1
 23 25  1  0
 24 23  2  0
M  END
$$$$
