KMP.pdb
     RDKit          3D

 25 25  0  0  1  0  0  0  0  0999 V2000
   28.7997  -19.7214  -15.5380 N   0  0  0  0  0  0  0  0  0  0  0  0
   27.9505  -19.1542  -14.5276 C   0  0  1  0  0  0  0  0  0  0  0  0
   27.0364  -18.1519  -15.2018 C   0  0  0  0  0  0  0  0  0  0  0  0
   27.8892  -17.0102  -15.6645 C   0  0  0  0  0  0  0  0  0  0  0  0
   28.4798  -17.2282  -17.0338 C   0  0  0  0  0  0  0  0  0  0  0  0
   29.1950  -15.9208  -17.4031 C   0  0  0  0  0  0  0  0  0  0  0  0
   29.8429  -16.0501  -18.6968 N   0  0  0  0  0  0  0  0  0  0  0  0
   27.2098  -20.1751  -13.7616 C   0  0  0  0  0  0  0  0  0  0  0  0
   26.9094  -21.2352  -14.3578 O   0  0  0  0  0  0  0  0  0  0  0  0
   26.5152  -19.5319   -7.2366 C   0  0  0  0  0  0  0  0  0  0  0  0
   27.0216  -21.1918   -7.7212 S   0  0  0  0  0  0  0  0  0  0  0  0
   27.2789  -21.1753   -9.5489 C   0  0  0  0  0  0  0  0  0  0  0  0
   26.1109  -20.5346  -10.2056 C   0  0  0  0  0  0  0  0  0  0  0  0
   25.9121  -20.7969  -11.6624 C   0  0  2  0  0  0  0  0  0  0  0  0
   26.8684  -19.9387  -12.4159 N   0  0  0  0  0  0  0  0  0  0  0  0
   24.5858  -20.5299  -12.2162 C   0  0  0  0  0  0  0  0  0  0  0  0
   24.2464  -19.3253  -12.5137 O   0  0  0  0  0  0  0  0  0  0  0  0
   23.5863  -21.4960  -12.4817 N   0  0  0  0  0  0  0  0  0  0  0  0
   23.6248  -22.9059  -12.2427 C   0  0  0  0  0  0  0  0  0  0  0  0
   23.0056  -23.4936  -13.5177 C   0  0  0  0  0  0  0  0  0  0  0  0
   22.1796  -22.3812  -14.1050 C   0  0  0  0  0  0  0  0  0  0  0  0
   22.2622  -21.2653  -13.0805 C   0  0  1  0  0  0  0  0  0  0  0  0
   21.1843  -21.3586  -12.0780 C   0  0  0  0  0  0  0  0  0  0  0  0
   21.4424  -21.8378  -10.9596 O   0  0  0  0  0  0  0  0  0  0  0  0
   19.8971  -20.9300  -12.3439 O   0  0  0  0  0  0  0  0  0  0  0  0
  2  1  1  6
  2  8  1  0
  2  3  1  0
  4  3  1  0
  4  5  1  0
  6  5  1  0
  6  7  1  0
  8  9  2  0
 10 11  1  0
 11 12  1  0
 13 12  1  0
 14 13  1  1
 15 14  1  0
 15  8  1  0
 16 14  1  0
 16 17  2  0
 18 16  1  0
 19 18  1  0
 20 19  1  0
 21 20  1  0
 21 22  1  0
 22 18  1  0
 22 23  1  1
 23 25  1  0
 24 23  2  0
M  END
$$$$
