KMP.pdb
     RDKit          3D

 25 25  0  0  1  0  0  0  0  0999 V2000
   29.0281  -20.3538  -15.9858 N   0  0  0  0  0  0  0  0  0  0  0  0
   28.2842  -19.6952  -14.9480 C   0  0  1  0  0  0  0  0  0  0  0  0
   27.4373  -18.6204  -15.5979 C   0  0  0  0  0  0  0  0  0  0  0  0
   28.3732  -17.6193  -16.2034 C   0  0  0  0  0  0  0  0  0  0  0  0
   28.0425  -17.2893  -17.6362 C   0  0  0  0  0  0  0  0  0  0  0  0
   29.0619  -16.2289  -18.0760 C   0  0  0  0  0  0  0  0  0  0  0  0
   28.9809  -16.0181  -19.5111 N   0  0  0  0  0  0  0  0  0  0  0  0
   27.4881  -20.6311  -14.1308 C   0  0  0  0  0  0  0  0  0  0  0  0
   26.9986  -21.6277  -14.7112 O   0  0  0  0  0  0  0  0  0  0  0  0
   27.4362  -20.5702   -7.4611 C   0  0  0  0  0  0  0  0  0  0  0  0
   25.6985  -20.4067   -7.9087 S   0  0  0  0  0  0  0  0  0  0  0  0
   25.4723  -21.2355   -9.5424 C   0  0  0  0  0  0  0  0  0  0  0  0
   26.3870  -20.6207  -10.5380 C   0  0  0  0  0  0  0  0  0  0  0  0
   26.1871  -20.9860  -11.9724 C   0  0  2  0  0  0  0  0  0  0  0  0
   27.3034  -20.3873  -12.7561 N   0  0  0  0  0  0  0  0  0  0  0  0
   24.9469  -20.5460  -12.6091 C   0  0  0  0  0  0  0  0  0  0  0  0
   24.8416  -19.3387  -13.0404 O   0  0  0  0  0  0  0  0  0  0  0  0
   23.7948  -21.3400  -12.8214 N   0  0  0  0  0  0  0  0  0  0  0  0
   23.5768  -22.7071  -12.4610 C   0  0  0  0  0  0  0  0  0  0  0  0
   22.8818  -23.2885  -13.6993 C   0  0  0  0  0  0  0  0  0  0  0  0
   22.2772  -22.1050  -14.4054 C   0  0  0  0  0  0  0  0  0  0  0  0
   22.5427  -20.9336  -13.4786 C   0  0  1  0  0  0  0  0  0  0  0  0
   21.4504  -20.7440  -12.5057 C   0  0  0  0  0  0  0  0  0  0  0  0
   20.3795  -20.2438  -12.8931 O   0  0  0  0  0  0  0  0  0  0  0  0
   21.5811  -21.1050  -11.1776 O   0  0  0  0  0  0  0  0  0  0  0  0
  2  1  1  6
  2  8  1  0
  2  3  1  0
  4  3  1  0
  4  5  1  0
  6  5  1  0
  6  7  1  0
  8  9  2  0
 10 11  1  0
 11 12  1  0
 13 12  1  0
 14 13  1  1
 15 14  1  0
 15  8  1  0
 16 14  1  0
 16 17  2  0
 18 16  1  0
 19 18  1  0
 20 19  1  0
 21 20  1  0
 21 22  1  0
 22 18  1  0
 22 23  1  1
 23 25  1  0
 24 23  2  0
M  END
$$$$
