KMP.pdb
     RDKit          3D

 25 25  0  0  1  0  0  0  0  0999 V2000
   27.9074  -25.0787  -16.4364 N   0  0  0  0  0  0  0  0  0  0  0  0
   26.7777  -24.5355  -17.1383 C   0  0  1  0  0  0  0  0  0  0  0  0
   26.0688  -25.6819  -17.8297 C   0  0  0  0  0  0  0  0  0  0  0  0
   26.8794  -26.9188  -17.5889 C   0  0  0  0  0  0  0  0  0  0  0  0
   26.2559  -28.1596  -18.1744 C   0  0  0  0  0  0  0  0  0  0  0  0
   27.3320  -29.2524  -18.1026 C   0  0  0  0  0  0  0  0  0  0  0  0
   26.9592  -30.2621  -17.1270 N   0  0  0  0  0  0  0  0  0  0  0  0
   25.8805  -23.7552  -16.2644 C   0  0  0  0  0  0  0  0  0  0  0  0
   24.6854  -23.6415  -16.6227 O   0  0  0  0  0  0  0  0  0  0  0  0
   24.3549  -20.3290   -9.6808 C   0  0  0  0  0  0  0  0  0  0  0  0
   25.0085  -21.6305  -10.7416 S   0  0  0  0  0  0  0  0  0  0  0  0
   25.8625  -20.8082  -12.1564 C   0  0  0  0  0  0  0  0  0  0  0  0
   26.4090  -21.8427  -13.0712 C   0  0  0  0  0  0  0  0  0  0  0  0
   25.5958  -22.1962  -14.2731 C   0  0  2  0  0  0  0  0  0  0  0  0
   26.3765  -23.1737  -15.0816 N   0  0  0  0  0  0  0  0  0  0  0  0
   25.2272  -21.1073  -15.1762 C   0  0  0  0  0  0  0  0  0  0  0  0
   26.0771  -20.6762  -16.0403 O   0  0  0  0  0  0  0  0  0  0  0  0
   23.9764  -20.4462  -15.2137 N   0  0  0  0  0  0  0  0  0  0  0  0
   22.8033  -20.7159  -14.4408 C   0  0  0  0  0  0  0  0  0  0  0  0
   21.6725  -20.6067  -15.4722 C   0  0  0  0  0  0  0  0  0  0  0  0
   22.2299  -19.7558  -16.5813 C   0  0  0  0  0  0  0  0  0  0  0  0
   23.5917  -19.3179  -16.0760 C   0  0  1  0  0  0  0  0  0  0  0  0
   23.5171  -18.0528  -15.3213 C   0  0  0  0  0  0  0  0  0  0  0  0
   23.6671  -18.0787  -14.0868 O   0  0  0  0  0  0  0  0  0  0  0  0
   23.2857  -16.8405  -15.9441 O   0  0  0  0  0  0  0  0  0  0  0  0
  2  1  1  1
  2  8  1  0
  2  3  1  0
  4  3  1  0
  4  5  1  0
  6  5  1  0
  6  7  1  0
  8  9  2  0
 10 11  1  0
 11 12  1  0
 13 12  1  0
 14 13  1  1
 15 14  1  0
 15  8  1  0
 16 14  1  0
 16 17  2  0
 18 16  1  0
 19 18  1  0
 20 19  1  0
 21 20  1  0
 21 22  1  0
 22 18  1  0
 22 23  1  1
 23 25  1  0
 24 23  2  0
M  END
$$$$
