KMP.pdb
     RDKit          3D

 25 25  0  0  1  0  0  0  0  0999 V2000
   20.3579  -13.1061  -18.6153 N   0  0  0  0  0  0  0  0  0  0  0  0
   20.3780  -11.6813  -18.7988 C   0  0  1  0  0  0  0  0  0  0  0  0
   18.9803  -11.2461  -19.1885 C   0  0  0  0  0  0  0  0  0  0  0  0
   18.8147  -11.5318  -20.6499 C   0  0  0  0  0  0  0  0  0  0  0  0
   17.8889  -12.6883  -20.9268 C   0  0  0  0  0  0  0  0  0  0  0  0
   17.7297  -12.7516  -22.4525 C   0  0  0  0  0  0  0  0  0  0  0  0
   16.9271  -13.9031  -22.8271 N   0  0  0  0  0  0  0  0  0  0  0  0
   20.8915  -10.9583  -17.6193 C   0  0  0  0  0  0  0  0  0  0  0  0
   20.2227  -11.0344  -16.5626 O   0  0  0  0  0  0  0  0  0  0  0  0
   26.8744  -10.2624  -14.5450 C   0  0  0  0  0  0  0  0  0  0  0  0
   26.3156  -11.2539  -15.9418 S   0  0  0  0  0  0  0  0  0  0  0  0
   24.4762  -11.1169  -16.0110 C   0  0  0  0  0  0  0  0  0  0  0  0
   24.1000   -9.7535  -16.4643 C   0  0  0  0  0  0  0  0  0  0  0  0
   22.6431   -9.4410  -16.5672 C   0  0  2  0  0  0  0  0  0  0  0  0
   22.0880  -10.2210  -17.7084 N   0  0  0  0  0  0  0  0  0  0  0  0
   22.2718   -8.0456  -16.7953 C   0  0  0  0  0  0  0  0  0  0  0  0
   22.1678   -7.5986  -17.9970 O   0  0  0  0  0  0  0  0  0  0  0  0
   21.9932   -7.0855  -15.7935 N   0  0  0  0  0  0  0  0  0  0  0  0
   21.9861   -7.2569  -14.3733 C   0  0  0  0  0  0  0  0  0  0  0  0
   20.7316   -6.4897  -13.9350 C   0  0  0  0  0  0  0  0  0  0  0  0
   20.4608   -5.5086  -15.0435 C   0  0  0  0  0  0  0  0  0  0  0  0
   21.6348   -5.6722  -15.9905 C   0  0  1  0  0  0  0  0  0  0  0  0
   22.7501   -4.7712  -15.6440 C   0  0  0  0  0  0  0  0  0  0  0  0
   23.7270   -5.2324  -15.0275 O   0  0  0  0  0  0  0  0  0  0  0  0
   22.7421   -3.4311  -15.9834 O   0  0  0  0  0  0  0  0  0  0  0  0
  2  1  1  1
  2  8  1  0
  2  3  1  0
  4  3  1  0
  4  5  1  0
  6  5  1  0
  6  7  1  0
  8  9  2  0
 10 11  1  0
 11 12  1  0
 13 12  1  0
 14 13  1  6
 15 14  1  0
 15  8  1  0
 16 14  1  0
 16 17  2  0
 18 16  1  0
 19 18  1  0
 20 19  1  0
 21 20  1  0
 21 22  1  0
 22 18  1  0
 22 23  1  1
 23 25  1  0
 24 23  2  0
M  END
$$$$
