KMP.pdb
     RDKit          3D

 25 25  0  0  1  0  0  0  0  0999 V2000
   39.1911  -24.5608    4.3936 N   0  0  0  0  0  0  0  0  0  0  0  0
   37.8776  -25.0068    4.7675 C   0  0  1  0  0  0  0  0  0  0  0  0
   38.0177  -26.3755    5.4016 C   0  0  0  0  0  0  0  0  0  0  0  0
   38.4282  -27.3286    4.3209 C   0  0  0  0  0  0  0  0  0  0  0  0
   37.2745  -28.1158    3.7549 C   0  0  0  0  0  0  0  0  0  0  0  0
   37.8903  -29.1488    2.8005 C   0  0  0  0  0  0  0  0  0  0  0  0
   36.8516  -29.9910    2.2329 N   0  0  0  0  0  0  0  0  0  0  0  0
   37.1714  -24.0460    5.6368 C   0  0  0  0  0  0  0  0  0  0  0  0
   37.8403  -23.4848    6.5353 O   0  0  0  0  0  0  0  0  0  0  0  0
   32.2432  -20.1279    2.6030 C   0  0  0  0  0  0  0  0  0  0  0  0
   32.0901  -21.3454    3.9223 S   0  0  0  0  0  0  0  0  0  0  0  0
   33.7808  -21.6285    4.6066 C   0  0  0  0  0  0  0  0  0  0  0  0
   33.7073  -22.6238    5.7066 C   0  0  0  0  0  0  0  0  0  0  0  0
   34.9839  -22.9867    6.3916 C   0  0  2  0  0  0  0  0  0  0  0  0
   35.8005  -23.7908    5.4401 N   0  0  0  0  0  0  0  0  0  0  0  0
   34.8847  -23.7699    7.6220 C   0  0  0  0  0  0  0  0  0  0  0  0
   35.0021  -25.0501    7.5777 O   0  0  0  0  0  0  0  0  0  0  0  0
   34.6705  -23.2521    8.9216 N   0  0  0  0  0  0  0  0  0  0  0  0
   34.4963  -21.8892    9.3195 C   0  0  0  0  0  0  0  0  0  0  0  0
   35.3476  -21.7849   10.5918 C   0  0  0  0  0  0  0  0  0  0  0  0
   35.4700  -23.1953   11.1022 C   0  0  0  0  0  0  0  0  0  0  0  0
   34.5848  -24.0113   10.1790 C   0  0  1  0  0  0  0  0  0  0  0  0
   33.1984  -24.0918   10.6763 C   0  0  0  0  0  0  0  0  0  0  0  0
   32.3318  -23.3616   10.1636 O   0  0  0  0  0  0  0  0  0  0  0  0
   32.8339  -24.9534   11.6941 O   0  0  0  0  0  0  0  0  0  0  0  0
  2  1  1  1
  2  8  1  0
  2  3  1  0
  4  3  1  0
  4  5  1  0
  6  5  1  0
  6  7  1  0
  8  9  2  0
 10 11  1  0
 11 12  1  0
 13 12  1  0
 14 13  1  6
 15 14  1  0
 15  8  1  0
 16 14  1  0
 16 17  2  0
 18 16  1  0
 19 18  1  0
 20 19  1  0
 21 20  1  0
 21 22  1  0
 22 18  1  0
 22 23  1  1
 23 25  1  0
 24 23  2  0
M  END
$$$$
