KMP.pdb
     RDKit          3D

 25 25  0  0  1  0  0  0  0  0999 V2000
   28.8371  -20.3357  -16.2283 N   0  0  0  0  0  0  0  0  0  0  0  0
   28.0357  -19.6552  -15.2492 C   0  0  1  0  0  0  0  0  0  0  0  0
   27.2387  -18.5856  -15.9673 C   0  0  0  0  0  0  0  0  0  0  0  0
   28.2017  -17.5178  -16.3881 C   0  0  0  0  0  0  0  0  0  0  0  0
   29.4145  -18.0600  -17.0996 C   0  0  0  0  0  0  0  0  0  0  0  0
   30.1798  -16.8390  -17.6293 C   0  0  0  0  0  0  0  0  0  0  0  0
   31.3156  -17.2652  -18.4284 N   0  0  0  0  0  0  0  0  0  0  0  0
   27.1836  -20.5722  -14.4678 C   0  0  0  0  0  0  0  0  0  0  0  0
   26.7198  -21.5727  -15.0624 O   0  0  0  0  0  0  0  0  0  0  0  0
   25.9572  -19.8301   -8.1452 C   0  0  0  0  0  0  0  0  0  0  0  0
   27.3297  -20.9590   -8.4423 S   0  0  0  0  0  0  0  0  0  0  0  0
   27.2953  -21.4054  -10.2330 C   0  0  0  0  0  0  0  0  0  0  0  0
   26.1240  -20.7605  -10.8796 C   0  0  0  0  0  0  0  0  0  0  0  0
   25.8928  -21.0485  -12.3267 C   0  0  2  0  0  0  0  0  0  0  0  0
   26.9202  -20.3070  -13.1100 N   0  0  0  0  0  0  0  0  0  0  0  0
   24.5937  -20.6765  -12.8845 C   0  0  0  0  0  0  0  0  0  0  0  0
   24.4011  -19.4806  -13.3174 O   0  0  0  0  0  0  0  0  0  0  0  0
   23.4708  -21.5280  -13.0148 N   0  0  0  0  0  0  0  0  0  0  0  0
   23.3388  -22.8951  -12.6148 C   0  0  0  0  0  0  0  0  0  0  0  0
   22.6045  -23.5367  -13.7995 C   0  0  0  0  0  0  0  0  0  0  0  0
   21.9056  -22.3993  -14.4942 C   0  0  0  0  0  0  0  0  0  0  0  0
   22.1660  -21.1957  -13.6080 C   0  0  1  0  0  0  0  0  0  0  0  0
   21.1218  -21.0348  -12.5787 C   0  0  0  0  0  0  0  0  0  0  0  0
   21.3527  -21.4263  -11.4208 O   0  0  0  0  0  0  0  0  0  0  0  0
   19.8956  -20.4628  -12.8619 O   0  0  0  0  0  0  0  0  0  0  0  0
  2  1  1  6
  2  8  1  0
  2  3  1  0
  4  3  1  0
  4  5  1  0
  6  5  1  0
  6  7  1  0
  8  9  2  0
 10 11  1  0
 11 12  1  0
 13 12  1  0
 14 13  1  1
 15 14  1  0
 15  8  1  0
 16 14  1  0
 16 17  2  0
 18 16  1  0
 19 18  1  0
 20 19  1  0
 21 20  1  0
 21 22  1  0
 22 18  1  0
 22 23  1  1
 23 25  1  0
 24 23  2  0
M  END
$$$$
