NTR.pdb
     RDKit          3D

 27 26  0  0  1  0  0  0  0  0999 V2000
    8.0436  -13.5888   14.7684 N   0  0  0  0  0  0  0  0  0  0  0  0
    8.7613  -14.7383   15.1619 C   0  0  0  0  0  0  0  0  0  0  0  0
    9.4528  -15.3647   14.3282 O   0  0  0  0  0  0  0  0  0  0  0  0
    8.6957  -15.2096   16.5802 C   0  0  0  0  0  0  0  0  0  0  0  0
    7.8517  -14.2295   17.3681 C   0  0  2  0  0  0  0  0  0  0  0  0
    8.0417  -12.9063   16.7568 N   0  0  0  0  0  0  0  0  0  0  0  0
    8.3068  -14.1119   18.7695 C   0  0  0  0  0  0  0  0  0  0  0  0
    8.1521  -13.0438   19.4580 O   0  0  0  0  0  0  0  0  0  0  0  0
    6.9052  -13.8899   20.8610 C   0  0  0  0  0  0  0  0  0  0  0  0
    7.6575  -15.0475   21.4683 C   0  0  1  0  0  0  0  0  0  0  0  0
    6.8966  -16.1815   21.3228 O   0  0  0  0  0  0  0  0  0  0  0  0
    9.0597  -15.1795   20.9159 C   0  0  2  0  0  0  0  0  0  0  0  0
    8.9576  -15.1835   19.4698 N   0  0  0  0  0  0  0  0  0  0  0  0
    9.7332  -16.4053   21.4186 C   0  0  0  0  0  0  0  0  0  0  0  0
   10.0233  -17.3599   20.6387 O   0  0  0  0  0  0  0  0  0  0  0  0
   12.9089  -14.4707   18.8503 N   0  0  0  0  0  0  0  0  0  0  0  0
   14.3045  -14.7218   18.9217 C   0  0  0  0  0  0  0  0  0  0  0  0
   15.0762  -14.6238   17.8681 N   0  0  0  0  0  0  0  0  0  0  0  0
   14.9217  -15.0875   20.1544 N   0  0  0  0  0  0  0  0  0  0  0  0
   14.2573  -14.8958   21.3934 C   0  0  0  0  0  0  0  0  0  0  0  0
   12.9557  -15.6169   21.5381 C   0  0  0  0  0  0  0  0  0  0  0  0
   12.2273  -15.4070   22.8089 C   0  0  0  0  0  0  0  0  0  0  0  0
   11.4943  -16.6591   23.2287 C   0  0  2  0  0  0  0  0  0  0  0  0
   10.0865  -16.5766   22.7819 N   0  0  0  0  0  0  0  0  0  0  0  0
   11.4293  -16.8475   24.6879 C   0  0  0  0  0  0  0  0  0  0  0  0
   12.2243  -17.8062   25.3501 O   0  0  0  0  0  0  0  0  0  0  0  0
   10.6819  -16.1916   25.4538 O   0  0  0  0  0  0  0  0  0  0  0  0
  2  1  1  0
  3  2  2  0
  4  2  1  0
  5  4  1  0
  5  6  1  6
  7  5  1  0
  7  8  2  0
 10  9  1  6
 10 12  1  0
 11 10  1  0
 12 13  1  6
 13  7  1  0
 14 12  1  0
 15 14  2  0
 16 17  1  0
 17 18  2  0
 19 17  1  0
 20 19  1  0
 21 20  1  0
 23 22  1  1
 22 21  1  0
 23 24  1  0
 24 14  1  0
 25 23  1  0
 26 25  1  0
 27 25  2  0
M  END
$$$$
