NTR.pdb
     RDKit          3D

 27 26  0  0  1  0  0  0  0  0999 V2000
    6.9989  -12.7182   16.1259 N   0  0  0  0  0  0  0  0  0  0  0  0
    7.6053  -13.9801   15.9492 C   0  0  0  0  0  0  0  0  0  0  0  0
    8.1077  -14.2880   14.8454 O   0  0  0  0  0  0  0  0  0  0  0  0
    7.6479  -14.9529   17.0849 C   0  0  0  0  0  0  0  0  0  0  0  0
    8.7934  -14.5678   17.9977 C   0  0  2  0  0  0  0  0  0  0  0  0
   10.0258  -14.6420   17.2000 N   0  0  0  0  0  0  0  0  0  0  0  0
    8.9576  -15.5262   19.1110 C   0  0  0  0  0  0  0  0  0  0  0  0
    8.0203  -15.7832   19.9442 O   0  0  0  0  0  0  0  0  0  0  0  0
   10.1772  -19.1663   19.0616 C   0  0  0  0  0  0  0  0  0  0  0  0
   11.0180  -18.3730   20.0304 C   0  0  1  0  0  0  0  0  0  0  0  0
   12.2449  -18.1493   19.4554 O   0  0  0  0  0  0  0  0  0  0  0  0
   10.3256  -17.1122   20.4991 C   0  0  2  0  0  0  0  0  0  0  0  0
   10.1786  -16.2443   19.3472 N   0  0  0  0  0  0  0  0  0  0  0  0
   11.0820  -16.4456   21.5912 C   0  0  0  0  0  0  0  0  0  0  0  0
   11.9264  -15.5353   21.3422 O   0  0  0  0  0  0  0  0  0  0  0  0
   10.1421  -16.0736   30.5365 N   0  0  0  0  0  0  0  0  0  0  0  0
   10.4377  -14.8290   29.9204 C   0  0  0  0  0  0  0  0  0  0  0  0
   10.2186  -13.6904   30.5293 N   0  0  0  0  0  0  0  0  0  0  0  0
   10.9931  -14.7741   28.6079 N   0  0  0  0  0  0  0  0  0  0  0  0
   11.1899  -15.9535   27.8440 C   0  0  0  0  0  0  0  0  0  0  0  0
   11.7400  -15.7402   26.4704 C   0  0  0  0  0  0  0  0  0  0  0  0
   10.9804  -16.3514   25.3573 C   0  0  0  0  0  0  0  0  0  0  0  0
   11.6842  -16.1397   24.0378 C   0  0  2  0  0  0  0  0  0  0  0  0
   10.9057  -16.7842   22.9575 N   0  0  0  0  0  0  0  0  0  0  0  0
   13.0215  -16.7532   23.9734 C   0  0  0  0  0  0  0  0  0  0  0  0
   13.2019  -18.1086   23.6269 O   0  0  0  0  0  0  0  0  0  0  0  0
   14.0921  -16.1441   24.2143 O   0  0  0  0  0  0  0  0  0  0  0  0
  2  1  1  0
  3  2  2  0
  4  2  1  0
  5  4  1  0
  5  6  1  6
  7  5  1  0
  7  8  2  0
 10  9  1  6
 10 12  1  0
 11 10  1  0
 12 13  1  6
 13  7  1  0
 14 12  1  0
 15 14  2  0
 16 17  1  0
 17 18  2  0
 19 17  1  0
 20 19  1  0
 21 20  1  0
 23 22  1  1
 22 21  1  0
 23 24  1  0
 24 14  1  0
 25 23  1  0
 26 25  1  0
 27 25  2  0
M  END
$$$$
