NTR.pdb
     RDKit          3D

 27 26  0  0  1  0  0  0  0  0999 V2000
    8.6292  -18.3018   14.6112 N   0  0  0  0  0  0  0  0  0  0  0  0
    9.9653  -17.8873   14.4261 C   0  0  0  0  0  0  0  0  0  0  0  0
   10.7766  -18.6274   13.8265 O   0  0  0  0  0  0  0  0  0  0  0  0
   10.4135  -16.5589   14.9481 C   0  0  0  0  0  0  0  0  0  0  0  0
    9.2331  -15.8899   15.6211 C   0  0  2  0  0  0  0  0  0  0  0  0
    8.7088  -14.8896   14.6803 N   0  0  0  0  0  0  0  0  0  0  0  0
    9.6369  -15.1505   16.8356 C   0  0  0  0  0  0  0  0  0  0  0  0
   10.6307  -14.3437   16.8538 O   0  0  0  0  0  0  0  0  0  0  0  0
    7.8247  -12.6385   18.7792 C   0  0  0  0  0  0  0  0  0  0  0  0
    8.2124  -13.7263   19.7494 C   0  0  1  0  0  0  0  0  0  0  0  0
    7.0952  -14.4745   20.0289 O   0  0  0  0  0  0  0  0  0  0  0  0
    9.3874  -14.5446   19.2613 C   0  0  2  0  0  0  0  0  0  0  0  0
    8.9490  -15.2773   18.0898 N   0  0  0  0  0  0  0  0  0  0  0  0
    9.8949  -15.4586   20.3179 C   0  0  0  0  0  0  0  0  0  0  0  0
    9.5721  -16.6829   20.3353 O   0  0  0  0  0  0  0  0  0  0  0  0
   15.1443  -13.5598   19.7136 N   0  0  0  0  0  0  0  0  0  0  0  0
   16.0081  -14.6825   19.8101 C   0  0  0  0  0  0  0  0  0  0  0  0
   16.8590  -14.9798   18.8599 N   0  0  0  0  0  0  0  0  0  0  0  0
   15.9835  -15.5304   20.9567 N   0  0  0  0  0  0  0  0  0  0  0  0
   15.0621  -15.3101   22.0130 C   0  0  0  0  0  0  0  0  0  0  0  0
   13.6705  -15.7929   21.7573 C   0  0  0  0  0  0  0  0  0  0  0  0
   12.6676  -15.4856   22.8009 C   0  0  0  0  0  0  0  0  0  0  0  0
   11.2900  -15.9421   22.3824 C   0  0  2  0  0  0  0  0  0  0  0  0
   10.7588  -15.0204   21.3545 N   0  0  0  0  0  0  0  0  0  0  0  0
   10.3009  -15.9205   23.4733 C   0  0  0  0  0  0  0  0  0  0  0  0
   10.2241  -16.9559   24.4282 O   0  0  0  0  0  0  0  0  0  0  0  0
    9.4597  -15.0055   23.6482 O   0  0  0  0  0  0  0  0  0  0  0  0
  2  1  1  0
  3  2  2  0
  4  2  1  0
  5  4  1  0
  5  6  1  6
  7  5  1  0
  7  8  2  0
 10  9  1  6
 10 12  1  0
 11 10  1  0
 12 13  1  6
 13  7  1  0
 14 12  1  0
 15 14  2  0
 16 17  1  0
 17 18  2  0
 19 17  1  0
 20 19  1  0
 21 20  1  0
 23 22  1  1
 22 21  1  0
 23 24  1  0
 24 14  1  0
 25 23  1  0
 26 25  1  0
 27 25  2  0
M  END
$$$$
