NTR.pdb
     RDKit          3D

 27 26  0  0  1  0  0  0  0  0999 V2000
    9.9982  -17.0949   15.1215 N   0  0  0  0  0  0  0  0  0  0  0  0
    9.0417  -18.0557   15.5130 C   0  0  0  0  0  0  0  0  0  0  0  0
    9.3372  -19.2716   15.5196 O   0  0  0  0  0  0  0  0  0  0  0  0
    7.6703  -17.6197   15.9217 C   0  0  0  0  0  0  0  0  0  0  0  0
    7.6119  -16.1080   15.8527 C   0  0  2  0  0  0  0  0  0  0  0  0
    8.2766  -15.7060   14.6048 N   0  0  0  0  0  0  0  0  0  0  0  0
    8.3704  -15.4759   16.9528 C   0  0  0  0  0  0  0  0  0  0  0  0
    9.5615  -15.0314   16.8033 O   0  0  0  0  0  0  0  0  0  0  0  0
    6.6929  -13.0077   19.5673 C   0  0  0  0  0  0  0  0  0  0  0  0
    7.5943  -14.0009   20.2572 C   0  0  1  0  0  0  0  0  0  0  0  0
    6.8078  -14.9100   20.9212 O   0  0  0  0  0  0  0  0  0  0  0  0
    8.5898  -14.6337   19.3099 C   0  0  2  0  0  0  0  0  0  0  0  0
    7.8336  -15.3102   18.2744 N   0  0  0  0  0  0  0  0  0  0  0  0
    9.5019  -15.5691   20.0185 C   0  0  0  0  0  0  0  0  0  0  0  0
    9.4300  -16.8198   19.8338 O   0  0  0  0  0  0  0  0  0  0  0  0
   16.1582  -15.9309   24.7589 N   0  0  0  0  0  0  0  0  0  0  0  0
   16.6588  -16.9443   23.8996 C   0  0  0  0  0  0  0  0  0  0  0  0
   17.6495  -17.7226   24.2574 N   0  0  0  0  0  0  0  0  0  0  0  0
   16.0926  -17.1561   22.6078 N   0  0  0  0  0  0  0  0  0  0  0  0
   15.2122  -16.2066   22.0275 C   0  0  0  0  0  0  0  0  0  0  0  0
   13.7563  -16.5138   22.1727 C   0  0  0  0  0  0  0  0  0  0  0  0
   12.8202  -15.5897   21.4952 C   0  0  0  0  0  0  0  0  0  0  0  0
   11.3920  -16.0596   21.6399 C   0  0  2  0  0  0  0  0  0  0  0  0
   10.4931  -15.1232   20.9303 N   0  0  0  0  0  0  0  0  0  0  0  0
   10.9123  -16.0802   23.0322 C   0  0  0  0  0  0  0  0  0  0  0  0
   11.2494  -17.1236   23.9195 O   0  0  0  0  0  0  0  0  0  0  0  0
   10.1805  -15.1971   23.5420 O   0  0  0  0  0  0  0  0  0  0  0  0
  2  1  1  0
  3  2  2  0
  4  2  1  0
  5  4  1  0
  5  6  1  6
  7  5  1  0
  7  8  2  0
 10  9  1  6
 10 12  1  0
 11 10  1  0
 12 13  1  6
 13  7  1  0
 14 12  1  0
 15 14  2  0
 16 17  1  0
 17 18  2  0
 19 17  1  0
 20 19  1  0
 21 20  1  0
 23 22  1  1
 22 21  1  0
 23 24  1  0
 24 14  1  0
 25 23  1  0
 26 25  1  0
 27 25  2  0
M  END
$$$$
