NTR.pdb
     RDKit          3D

 27 26  0  0  1  0  0  0  0  0999 V2000
   12.0922  -16.6528   13.6165 N   0  0  0  0  0  0  0  0  0  0  0  0
   10.7717  -17.1498   13.5889 C   0  0  0  0  0  0  0  0  0  0  0  0
   10.4108  -17.9275   12.6776 O   0  0  0  0  0  0  0  0  0  0  0  0
    9.8002  -16.7461   14.6525 C   0  0  0  0  0  0  0  0  0  0  0  0
   10.4866  -15.7588   15.5732 C   0  0  2  0  0  0  0  0  0  0  0  0
   11.7229  -16.3970   16.0473 N   0  0  0  0  0  0  0  0  0  0  0  0
    9.6768  -15.4711   16.7758 C   0  0  0  0  0  0  0  0  0  0  0  0
    8.5123  -14.9432   16.7134 O   0  0  0  0  0  0  0  0  0  0  0  0
    7.2858  -16.0210   17.8007 C   0  0  0  0  0  0  0  0  0  0  0  0
    8.0294  -16.3705   19.0655 C   0  0  1  0  0  0  0  0  0  0  0  0
    8.2682  -17.7229   19.0669 O   0  0  0  0  0  0  0  0  0  0  0  0
    9.2740  -15.5318   19.2552 C   0  0  2  0  0  0  0  0  0  0  0  0
   10.1299  -15.7599   18.1076 N   0  0  0  0  0  0  0  0  0  0  0  0
    9.9682  -15.8617   20.5274 C   0  0  0  0  0  0  0  0  0  0  0  0
   11.1309  -16.3634   20.5281 O   0  0  0  0  0  0  0  0  0  0  0  0
    9.7324  -13.0249   28.6215 N   0  0  0  0  0  0  0  0  0  0  0  0
   10.2985  -14.3135   28.8088 C   0  0  0  0  0  0  0  0  0  0  0  0
   11.1631  -14.5533   29.7627 N   0  0  0  0  0  0  0  0  0  0  0  0
    9.9388  -15.4027   27.9611 N   0  0  0  0  0  0  0  0  0  0  0  0
    9.2464  -15.1863   26.7416 C   0  0  0  0  0  0  0  0  0  0  0  0
    9.9766  -15.6123   25.5086 C   0  0  0  0  0  0  0  0  0  0  0  0
    9.2797  -15.3874   24.2229 C   0  0  0  0  0  0  0  0  0  0  0  0
   10.1058  -15.8878   23.0617 C   0  0  2  0  0  0  0  0  0  0  0  0
    9.3785  -15.6375   21.7981 N   0  0  0  0  0  0  0  0  0  0  0  0
   10.3498  -17.3400   23.0893 C   0  0  0  0  0  0  0  0  0  0  0  0
   11.5831  -17.8789   23.5116 O   0  0  0  0  0  0  0  0  0  0  0  0
    9.5074  -18.2060   22.7493 O   0  0  0  0  0  0  0  0  0  0  0  0
  2  1  1  0
  3  2  2  0
  4  2  1  0
  5  4  1  0
  5  6  1  1
  7  5  1  0
  7  8  2  0
 10  9  1  6
 10 12  1  0
 11 10  1  0
 12 13  1  6
 13  7  1  0
 14 12  1  0
 15 14  2  0
 16 17  1  0
 17 18  2  0
 19 17  1  0
 20 19  1  0
 21 20  1  0
 23 22  1  1
 22 21  1  0
 23 24  1  0
 24 14  1  0
 25 23  1  0
 26 25  1  0
 27 25  2  0
M  END
$$$$
