NTR.pdb
     RDKit          3D

 27 26  0  0  1  0  0  0  0  0999 V2000
   13.3099  -16.8153   16.3550 N   0  0  0  0  0  0  0  0  0  0  0  0
   13.6925  -17.1477   17.6720 C   0  0  0  0  0  0  0  0  0  0  0  0
   14.3085  -18.2130   17.8986 O   0  0  0  0  0  0  0  0  0  0  0  0
   13.3610  -16.2239   18.8010 C   0  0  0  0  0  0  0  0  0  0  0  0
   12.5572  -15.0659   18.2471 C   0  0  2  0  0  0  0  0  0  0  0  0
   13.5139  -14.0128   17.8780 N   0  0  0  0  0  0  0  0  0  0  0  0
   11.6616  -14.4788   19.2660 C   0  0  0  0  0  0  0  0  0  0  0  0
   12.1011  -13.8543   20.2935 O   0  0  0  0  0  0  0  0  0  0  0  0
    8.0245  -12.7398   18.5945 C   0  0  0  0  0  0  0  0  0  0  0  0
    8.0163  -13.8041   19.6631 C   0  0  1  0  0  0  0  0  0  0  0  0
    7.4293  -14.9324   19.1450 O   0  0  0  0  0  0  0  0  0  0  0  0
    9.3900  -14.0461   20.2488 C   0  0  2  0  0  0  0  0  0  0  0  0
   10.2302  -14.5615   19.1858 N   0  0  0  0  0  0  0  0  0  0  0  0
    9.3363  -14.9808   21.4033 C   0  0  0  0  0  0  0  0  0  0  0  0
    9.7686  -16.1671   21.3062 O   0  0  0  0  0  0  0  0  0  0  0  0
   10.5187  -14.0688   30.0687 N   0  0  0  0  0  0  0  0  0  0  0  0
   10.6728  -15.4430   29.7470 C   0  0  0  0  0  0  0  0  0  0  0  0
   11.1934  -16.2943   30.5953 N   0  0  0  0  0  0  0  0  0  0  0  0
   10.2581  -15.9506   28.4802 N   0  0  0  0  0  0  0  0  0  0  0  0
    9.6401  -15.1097   27.5190 C   0  0  0  0  0  0  0  0  0  0  0  0
    9.3479  -15.7531   26.2015 C   0  0  0  0  0  0  0  0  0  0  0  0
    9.4040  -14.8718   25.0143 C   0  0  0  0  0  0  0  0  0  0  0  0
    8.7696  -15.5346   23.8146 C   0  0  2  0  0  0  0  0  0  0  0  0
    8.8056  -14.6052   22.6642 N   0  0  0  0  0  0  0  0  0  0  0  0
    7.3470  -15.8660   24.0029 C   0  0  0  0  0  0  0  0  0  0  0  0
    6.3307  -15.2304   23.2595 O   0  0  0  0  0  0  0  0  0  0  0  0
    6.9209  -16.7194   24.8188 O   0  0  0  0  0  0  0  0  0  0  0  0
  2  1  1  0
  3  2  2  0
  4  2  1  0
  5  4  1  0
  5  6  1  1
  7  5  1  0
  7  8  2  0
 10  9  1  6
 10 12  1  0
 11 10  1  0
 12 13  1  6
 13  7  1  0
 14 12  1  0
 15 14  2  0
 16 17  1  0
 17 18  2  0
 19 17  1  0
 20 19  1  0
 21 20  1  0
 23 22  1  1
 22 21  1  0
 23 24  1  0
 24 14  1  0
 25 23  1  0
 26 25  1  0
 27 25  2  0
M  END
$$$$
