NTR.pdb
     RDKit          3D

 27 26  0  0  1  0  0  0  0  0999 V2000
    7.3068  -18.2569   14.7435 N   0  0  0  0  0  0  0  0  0  0  0  0
    6.4365  -19.1518   15.4015 C   0  0  0  0  0  0  0  0  0  0  0  0
    5.3717  -19.5126   14.8524 O   0  0  0  0  0  0  0  0  0  0  0  0
    6.7879  -19.6713   16.7597 C   0  0  0  0  0  0  0  0  0  0  0  0
    8.0396  -18.9609   17.2310 C   0  0  2  0  0  0  0  0  0  0  0  0
    9.1865  -19.6776   16.6552 N   0  0  0  0  0  0  0  0  0  0  0  0
    8.1954  -19.0335   18.6992 C   0  0  0  0  0  0  0  0  0  0  0  0
    7.3438  -18.5264   19.5093 O   0  0  0  0  0  0  0  0  0  0  0  0
    9.5185  -22.2395   20.7138 C   0  0  0  0  0  0  0  0  0  0  0  0
   10.2197  -20.9689   21.1247 C   0  0  1  0  0  0  0  0  0  0  0  0
   11.4846  -20.9809   20.5898 O   0  0  0  0  0  0  0  0  0  0  0  0
    9.4231  -19.7306   20.7777 C   0  0  2  0  0  0  0  0  0  0  0  0
    9.3117  -19.6770   19.3333 N   0  0  0  0  0  0  0  0  0  0  0  0
   10.0570  -18.5012   21.3217 C   0  0  0  0  0  0  0  0  0  0  0  0
   11.0166  -17.9370   20.7180 O   0  0  0  0  0  0  0  0  0  0  0  0
    7.5981  -13.0767   18.8668 N   0  0  0  0  0  0  0  0  0  0  0  0
    8.0882  -12.3015   19.9506 C   0  0  0  0  0  0  0  0  0  0  0  0
    8.3641  -11.0282   19.8167 N   0  0  0  0  0  0  0  0  0  0  0  0
    8.2943  -12.8851   21.2356 N   0  0  0  0  0  0  0  0  0  0  0  0
    7.7895  -14.1744   21.5459 C   0  0  0  0  0  0  0  0  0  0  0  0
    8.8212  -15.2472   21.6864 C   0  0  0  0  0  0  0  0  0  0  0  0
    9.2795  -15.5402   23.0625 C   0  0  0  0  0  0  0  0  0  0  0  0
   10.2729  -16.6778   23.0741 C   0  0  2  0  0  0  0  0  0  0  0  0
    9.6311  -17.8954   22.5318 N   0  0  0  0  0  0  0  0  0  0  0  0
   10.7345  -17.0487   24.4226 C   0  0  0  0  0  0  0  0  0  0  0  0
   10.3387  -18.2542   25.0387 O   0  0  0  0  0  0  0  0  0  0  0  0
   11.5000  -16.3462   25.1269 O   0  0  0  0  0  0  0  0  0  0  0  0
  2  1  1  0
  3  2  2  0
  4  2  1  0
  5  4  1  0
  5  6  1  6
  7  5  1  0
  7  8  2  0
 10  9  1  6
 10 12  1  0
 11 10  1  0
 12 13  1  6
 13  7  1  0
 14 12  1  0
 15 14  2  0
 16 17  1  0
 17 18  2  0
 19 17  1  0
 20 19  1  0
 21 20  1  0
 23 22  1  1
 22 21  1  0
 23 24  1  0
 24 14  1  0
 25 23  1  0
 26 25  1  0
 27 25  2  0
M  END
$$$$
