NIF.pdb
     RDKit          3D

 28 28  0  0  1  0  0  0  0  0999 V2000
   12.9339  -19.0771   18.0180 N   0  0  0  0  0  0  0  0  0  0  0  0
   13.1964  -17.6843   17.9598 C   0  0  0  0  0  0  0  0  0  0  0  0
   14.1250  -17.2786   17.2338 O   0  0  0  0  0  0  0  0  0  0  0  0
   12.3872  -16.7523   18.7402 C   0  0  0  0  0  0  0  0  0  0  0  0
   11.3961  -17.3665   19.6704 C   0  0  2  0  0  0  0  0  0  0  0  0
   10.3152  -18.0444   18.9919 N   0  0  0  0  0  0  0  0  0  0  0  0
   10.9061  -16.4382   20.7372 C   0  0  0  0  0  0  0  0  0  0  0  0
   11.7103  -15.8772   21.5289 O   0  0  0  0  0  0  0  0  0  0  0  0
    5.5577  -14.1397   20.4760 C   0  0  0  0  0  0  0  0  0  0  0  0
    6.7256  -15.0111   20.6808 C   0  0  0  0  0  0  0  0  0  0  0  0
    7.9187  -14.5352   21.4009 C   0  0  2  0  0  0  0  0  0  0  0  0
    8.5456  -13.3317   20.6392 C   0  0  0  0  0  0  0  0  0  0  0  0
    8.9235  -15.4196   21.9556 C   0  0  2  0  0  0  0  0  0  0  0  0
    9.5236  -16.1863   20.8688 N   0  0  0  0  0  0  0  0  0  0  0  0
    8.7877  -16.1539   23.1946 C   0  0  0  0  0  0  0  0  0  0  0  0
    8.6440  -17.3641   23.3849 O   0  0  0  0  0  0  0  0  0  0  0  0
    8.8120  -15.3711   24.4251 N   0  0  0  0  0  0  0  0  0  0  0  0
    8.5923  -16.0204   25.7062 C   0  0  1  0  0  0  0  0  0  0  0  0
    8.7774  -15.0259   26.7968 C   0  0  0  0  0  0  0  0  0  0  0  0
    7.9015  -13.8359   26.7071 C   0  0  0  0  0  0  0  0  0  0  0  0
    8.4338  -12.6452   26.2709 C   0  0  0  0  0  0  0  0  0  0  0  0
    7.6927  -11.4906   26.1551 C   0  0  0  0  0  0  0  0  0  0  0  0
    6.3587  -11.5542   26.4968 C   0  0  0  0  0  0  0  0  0  0  0  0
    5.8106  -12.7430   26.9365 C   0  0  0  0  0  0  0  0  0  0  0  0
    6.5722  -13.8968   27.0475 C   0  0  0  0  0  0  0  0  0  0  0  0
    7.3220  -16.7771   25.7518 C   0  0  0  0  0  0  0  0  0  0  0  0
    6.3129  -16.6234   24.8155 O   0  0  0  0  0  0  0  0  0  0  0  0
    7.1284  -17.6012   26.6741 O   0  0  0  0  0  0  0  0  0  0  0  0
  1  2  1  0
  2  3  2  0
  4  5  1  0
  4  2  1  0
  5  6  1  6
  7  5  1  0
  7  8  2  0
  9 10  1  0
 10 11  1  0
 11 13  1  0
 11 12  1  6
 13 14  1  6
 14  7  1  0
 15 17  1  0
 15 13  1  0
 16 15  2  0
 18 17  1  0
 18 26  1  0
 18 19  1  1
 20 19  1  0
 20 25  2  0
 21 20  1  0
 22 21  2  0
 22 23  1  0
 23 24  2  0
 24 25  1  0
 26 27  1  0
 28 26  2  0
M  END
$$$$
