NIF.pdb
     RDKit          3D

 28 28  0  0  1  0  0  0  0  0999 V2000
    6.7957  -20.4508   18.1004 N   0  0  0  0  0  0  0  0  0  0  0  0
    6.6594  -20.3484   19.5086 C   0  0  0  0  0  0  0  0  0  0  0  0
    6.0414  -21.2431   20.1182 O   0  0  0  0  0  0  0  0  0  0  0  0
    7.2366  -19.2115   20.2204 C   0  0  0  0  0  0  0  0  0  0  0  0
    7.8914  -18.1731   19.3733 C   0  0  2  0  0  0  0  0  0  0  0  0
    8.7859  -18.7226   18.3801 N   0  0  0  0  0  0  0  0  0  0  0  0
    8.5191  -17.0596   20.1517 C   0  0  0  0  0  0  0  0  0  0  0  0
    9.7600  -17.0400   20.3710 O   0  0  0  0  0  0  0  0  0  0  0  0
    7.8548  -12.0571   19.1190 C   0  0  0  0  0  0  0  0  0  0  0  0
    8.2943  -13.3354   19.7005 C   0  0  0  0  0  0  0  0  0  0  0  0
    7.9548  -13.7032   21.0854 C   0  0  2  0  0  0  0  0  0  0  0  0
    8.4240  -12.5810   22.0560 C   0  0  0  0  0  0  0  0  0  0  0  0
    8.1613  -15.0281   21.6343 C   0  0  2  0  0  0  0  0  0  0  0  0
    7.7153  -16.0147   20.6561 N   0  0  0  0  0  0  0  0  0  0  0  0
    7.9139  -15.4029   23.0095 C   0  0  0  0  0  0  0  0  0  0  0  0
    6.8969  -15.8653   23.5323 O   0  0  0  0  0  0  0  0  0  0  0  0
    9.0129  -15.2084   23.9485 N   0  0  0  0  0  0  0  0  0  0  0  0
    8.8910  -15.6737   25.3195 C   0  0  1  0  0  0  0  0  0  0  0  0
    7.4546  -15.6866   25.7058 C   0  0  0  0  0  0  0  0  0  0  0  0
    6.9308  -14.3901   26.1918 C   0  0  0  0  0  0  0  0  0  0  0  0
    5.5764  -14.1564   26.1448 C   0  0  0  0  0  0  0  0  0  0  0  0
    5.0031  -12.9814   26.5768 C   0  0  0  0  0  0  0  0  0  0  0  0
    5.8438  -12.0094   27.0756 C   0  0  0  0  0  0  0  0  0  0  0  0
    7.2059  -12.2302   27.1287 C   0  0  0  0  0  0  0  0  0  0  0  0
    7.7666  -13.4201   26.6887 C   0  0  0  0  0  0  0  0  0  0  0  0
    9.6199  -16.9385   25.5595 C   0  0  0  0  0  0  0  0  0  0  0  0
    9.9021  -17.4233   26.8260 O   0  0  0  0  0  0  0  0  0  0  0  0
   10.0107  -17.6191   24.5842 O   0  0  0  0  0  0  0  0  0  0  0  0
  1  2  1  0
  2  3  2  0
  4  5  1  0
  4  2  1  0
  5  6  1  1
  7  5  1  0
  7  8  2  0
  9 10  1  0
 10 11  1  0
 11 13  1  0
 11 12  1  1
 13 14  1  6
 14  7  1  0
 15 17  1  0
 15 13  1  0
 16 15  2  0
 18 17  1  0
 18 26  1  0
 18 19  1  6
 20 19  1  0
 20 25  2  0
 21 20  1  0
 22 21  2  0
 22 23  1  0
 23 24  2  0
 24 25  1  0
 26 27  1  0
 28 26  2  0
M  END
$$$$
