NIF.pdb
     RDKit          3D

 28 28  0  0  1  0  0  0  0  0999 V2000
   10.2214  -20.9109   18.9974 N   0  0  0  0  0  0  0  0  0  0  0  0
   10.2621  -19.7454   18.1899 C   0  0  0  0  0  0  0  0  0  0  0  0
   10.5314  -19.8639   16.9786 O   0  0  0  0  0  0  0  0  0  0  0  0
    9.9916  -18.4363   18.7777 C   0  0  0  0  0  0  0  0  0  0  0  0
    9.6716  -18.4265   20.2345 C   0  0  2  0  0  0  0  0  0  0  0  0
    8.3638  -18.9610   20.5387 N   0  0  0  0  0  0  0  0  0  0  0  0
    9.9192  -17.1108   20.9032 C   0  0  0  0  0  0  0  0  0  0  0  0
   11.0424  -16.5444   20.8255 O   0  0  0  0  0  0  0  0  0  0  0  0
    6.6472  -13.3043   19.7739 C   0  0  0  0  0  0  0  0  0  0  0  0
    7.7602  -14.1225   20.2806 C   0  0  0  0  0  0  0  0  0  0  0  0
    7.9751  -14.3120   21.7250 C   0  0  2  0  0  0  0  0  0  0  0  0
    7.9194  -12.9354   22.4485 C   0  0  0  0  0  0  0  0  0  0  0  0
    8.9955  -15.1820   22.2741 C   0  0  2  0  0  0  0  0  0  0  0  0
    8.8861  -16.4909   21.6386 N   0  0  0  0  0  0  0  0  0  0  0  0
    9.3811  -15.2299   23.6676 C   0  0  0  0  0  0  0  0  0  0  0  0
   10.2364  -14.5805   24.2742 O   0  0  0  0  0  0  0  0  0  0  0  0
    8.6748  -16.1892   24.5093 N   0  0  0  0  0  0  0  0  0  0  0  0
    9.0211  -16.3194   25.9143 C   0  0  1  0  0  0  0  0  0  0  0  0
    7.8679  -15.8807   26.7451 C   0  0  0  0  0  0  0  0  0  0  0  0
    7.5972  -14.4257   26.7127 C   0  0  0  0  0  0  0  0  0  0  0  0
    8.5790  -13.5537   27.1211 C   0  0  0  0  0  0  0  0  0  0  0  0
    8.4145  -12.1866   27.1221 C   0  0  0  0  0  0  0  0  0  0  0  0
    7.2027  -11.6918   26.6896 C   0  0  0  0  0  0  0  0  0  0  0  0
    6.2076  -12.5555   26.2766 C   0  0  0  0  0  0  0  0  0  0  0  0
    6.3905  -13.9304   26.2826 C   0  0  0  0  0  0  0  0  0  0  0  0
    9.5657  -17.6542   26.2462 C   0  0  0  0  0  0  0  0  0  0  0  0
    9.9918  -18.0058   27.5164 O   0  0  0  0  0  0  0  0  0  0  0  0
    9.6558  -18.5233   25.3497 O   0  0  0  0  0  0  0  0  0  0  0  0
  1  2  1  0
  2  3  2  0
  4  5  1  0
  4  2  1  0
  5  6  1  6
  7  5  1  0
  7  8  2  0
  9 10  1  0
 10 11  1  0
 11 13  1  0
 11 12  1  1
 13 14  1  1
 14  7  1  0
 15 17  1  0
 15 13  1  0
 16 15  2  0
 18 17  1  0
 18 26  1  0
 18 19  1  1
 20 19  1  0
 20 25  2  0
 21 20  1  0
 22 21  2  0
 22 23  1  0
 23 24  2  0
 24 25  1  0
 26 27  1  0
 28 26  2  0
M  END
$$$$
