NIF.pdb
     RDKit          3D

 28 28  0  0  1  0  0  0  0  0999 V2000
   10.8943  -19.6757   17.0115 N   0  0  0  0  0  0  0  0  0  0  0  0
   11.2454  -20.1195   18.3123 C   0  0  0  0  0  0  0  0  0  0  0  0
   11.4713  -21.3322   18.4918 O   0  0  0  0  0  0  0  0  0  0  0  0
   11.3374  -19.1643   19.4130 C   0  0  0  0  0  0  0  0  0  0  0  0
   10.9902  -17.7515   19.0842 C   0  0  2  0  0  0  0  0  0  0  0  0
   11.8645  -17.1601   18.0971 N   0  0  0  0  0  0  0  0  0  0  0  0
   10.8087  -16.8745   20.2833 C   0  0  0  0  0  0  0  0  0  0  0  0
   11.7998  -16.3575   20.8653 O   0  0  0  0  0  0  0  0  0  0  0  0
    6.9581  -13.2956   20.1769 C   0  0  0  0  0  0  0  0  0  0  0  0
    8.1829  -13.9746   20.6285 C   0  0  0  0  0  0  0  0  0  0  0  0
    8.1572  -14.9405   21.7397 C   0  0  2  0  0  0  0  0  0  0  0  0
    7.6541  -14.2377   23.0339 C   0  0  0  0  0  0  0  0  0  0  0  0
    9.2252  -15.8832   22.0045 C   0  0  2  0  0  0  0  0  0  0  0  0
    9.5116  -16.6221   20.7793 N   0  0  0  0  0  0  0  0  0  0  0  0
    9.3584  -16.6659   23.2138 C   0  0  0  0  0  0  0  0  0  0  0  0
    8.9224  -17.7883   23.4813 O   0  0  0  0  0  0  0  0  0  0  0  0
   10.1107  -16.0593   24.3063 N   0  0  0  0  0  0  0  0  0  0  0  0
   10.5239  -16.8654   25.4423 C   0  0  1  0  0  0  0  0  0  0  0  0
   11.3370  -16.0293   26.3655 C   0  0  0  0  0  0  0  0  0  0  0  0
   10.5510  -15.1909   27.2987 C   0  0  0  0  0  0  0  0  0  0  0  0
   10.5816  -15.4782   28.6432 C   0  0  0  0  0  0  0  0  0  0  0  0
    9.8838  -14.7507   29.5812 C   0  0  0  0  0  0  0  0  0  0  0  0
    9.1272  -13.6906   29.1296 C   0  0  0  0  0  0  0  0  0  0  0  0
    9.0869  -13.3905   27.7823 C   0  0  0  0  0  0  0  0  0  0  0  0
    9.7961  -14.1344   26.8510 C   0  0  0  0  0  0  0  0  0  0  0  0
    9.3949  -17.5847   26.0720 C   0  0  0  0  0  0  0  0  0  0  0  0
    8.0726  -17.3868   25.7106 O   0  0  0  0  0  0  0  0  0  0  0  0
    9.6236  -18.4168   26.9789 O   0  0  0  0  0  0  0  0  0  0  0  0
  1  2  1  0
  2  3  2  0
  4  5  1  0
  4  2  1  0
  5  6  1  6
  7  5  1  0
  7  8  2  0
  9 10  1  0
 10 11  1  0
 11 13  1  0
 11 12  1  1
 13 14  1  6
 14  7  1  0
 15 17  1  0
 15 13  1  0
 16 15  2  0
 18 17  1  0
 18 26  1  0
 18 19  1  1
 20 19  1  0
 20 25  2  0
 21 20  1  0
 22 21  2  0
 22 23  1  0
 23 24  2  0
 24 25  1  0
 26 27  1  0
 28 26  2  0
M  END
$$$$
