NIF.pdb
     RDKit          3D

 28 28  0  0  1  0  0  0  0  0999 V2000
    8.4945  -20.8332   18.3445 N   0  0  0  0  0  0  0  0  0  0  0  0
    9.7199  -20.1322   18.2052 C   0  0  0  0  0  0  0  0  0  0  0  0
   10.4760  -20.4279   17.2593 O   0  0  0  0  0  0  0  0  0  0  0  0
   10.0783  -19.0855   19.1583 C   0  0  0  0  0  0  0  0  0  0  0  0
    9.9610  -17.6829   18.6646 C   0  0  2  0  0  0  0  0  0  0  0  0
   10.8134  -17.3994   17.5326 N   0  0  0  0  0  0  0  0  0  0  0  0
   10.0774  -16.6477   19.7390 C   0  0  0  0  0  0  0  0  0  0  0  0
   11.1808  -16.0919   19.9880 O   0  0  0  0  0  0  0  0  0  0  0  0
    7.0654  -12.4276   20.0026 C   0  0  0  0  0  0  0  0  0  0  0  0
    8.0931  -13.4531   20.2422 C   0  0  0  0  0  0  0  0  0  0  0  0
    8.0547  -14.3103   21.4389 C   0  0  2  0  0  0  0  0  0  0  0  0
    7.8692  -13.4301   22.7087 C   0  0  0  0  0  0  0  0  0  0  0  0
    8.9673  -15.4134   21.6618 C   0  0  2  0  0  0  0  0  0  0  0  0
    8.9402  -16.2868   20.4932 N   0  0  0  0  0  0  0  0  0  0  0  0
    9.1335  -16.1100   22.9188 C   0  0  0  0  0  0  0  0  0  0  0  0
    8.2936  -16.6603   23.6350 O   0  0  0  0  0  0  0  0  0  0  0  0
   10.4892  -16.1827   23.4523 N   0  0  0  0  0  0  0  0  0  0  0  0
   10.7231  -16.0018   24.8748 C   0  0  1  0  0  0  0  0  0  0  0  0
    9.7205  -15.0468   25.4179 C   0  0  0  0  0  0  0  0  0  0  0  0
    9.8077  -14.8187   26.8780 C   0  0  0  0  0  0  0  0  0  0  0  0
    9.8208  -13.5284   27.3536 C   0  0  0  0  0  0  0  0  0  0  0  0
    9.8977  -13.2243   28.6943 C   0  0  0  0  0  0  0  0  0  0  0  0
    9.9632  -14.2768   29.5822 C   0  0  0  0  0  0  0  0  0  0  0  0
    9.9510  -15.5776   29.1190 C   0  0  0  0  0  0  0  0  0  0  0  0
    9.8734  -15.8657   27.7645 C   0  0  0  0  0  0  0  0  0  0  0  0
   10.8307  -17.2851   25.6028 C   0  0  0  0  0  0  0  0  0  0  0  0
    9.9737  -18.3524   25.3905 O   0  0  0  0  0  0  0  0  0  0  0  0
   11.7326  -17.4346   26.4580 O   0  0  0  0  0  0  0  0  0  0  0  0
  1  2  1  0
  2  3  2  0
  4  5  1  0
  4  2  1  0
  5  6  1  6
  7  5  1  0
  7  8  2  0
  9 10  1  0
 10 11  1  0
 11 13  1  0
 11 12  1  1
 13 14  1  6
 14  7  1  0
 15 17  1  0
 15 13  1  0
 16 15  2  0
 18 17  1  0
 18 26  1  0
 18 19  1  1
 20 19  1  0
 20 25  2  0
 21 20  1  0
 22 21  2  0
 22 23  1  0
 23 24  2  0
 24 25  1  0
 26 27  1  0
 28 26  2  0
M  END
$$$$
