NIF.pdb
     RDKit          3D

 28 28  0  0  1  0  0  0  0  0999 V2000
   11.1830  -19.9652   17.5570 N   0  0  0  0  0  0  0  0  0  0  0  0
   10.6543  -20.3048   18.8287 C   0  0  0  0  0  0  0  0  0  0  0  0
   10.3826  -21.4980   19.0663 O   0  0  0  0  0  0  0  0  0  0  0  0
   10.4367  -19.2674   19.8331 C   0  0  0  0  0  0  0  0  0  0  0  0
   10.5558  -17.8593   19.3560 C   0  0  2  0  0  0  0  0  0  0  0  0
   11.8086  -17.5824   18.6911 N   0  0  0  0  0  0  0  0  0  0  0  0
   10.2232  -16.8345   20.3948 C   0  0  0  0  0  0  0  0  0  0  0  0
   11.0929  -16.4360   21.2153 O   0  0  0  0  0  0  0  0  0  0  0  0
    7.1465  -12.5780   19.3000 C   0  0  0  0  0  0  0  0  0  0  0  0
    8.0732  -13.4942   19.9835 C   0  0  0  0  0  0  0  0  0  0  0  0
    7.6026  -14.4223   21.0254 C   0  0  2  0  0  0  0  0  0  0  0  0
    6.8497  -13.6295   22.1327 C   0  0  0  0  0  0  0  0  0  0  0  0
    8.4146  -15.4920   21.5693 C   0  0  2  0  0  0  0  0  0  0  0  0
    8.9167  -16.3054   20.4668 N   0  0  0  0  0  0  0  0  0  0  0  0
    8.1022  -16.2429   22.7656 C   0  0  0  0  0  0  0  0  0  0  0  0
    7.6004  -17.3630   22.8877 O   0  0  0  0  0  0  0  0  0  0  0  0
    8.4075  -15.6011   24.0394 N   0  0  0  0  0  0  0  0  0  0  0  0
    8.0828  -16.2689   25.2882 C   0  0  1  0  0  0  0  0  0  0  0  0
    8.5599  -15.4379   26.4258 C   0  0  0  0  0  0  0  0  0  0  0  0
    8.0214  -14.0593   26.4564 C   0  0  0  0  0  0  0  0  0  0  0  0
    8.7609  -13.0402   25.9032 C   0  0  0  0  0  0  0  0  0  0  0  0
    8.3367  -11.7304   25.8857 C   0  0  0  0  0  0  0  0  0  0  0  0
    7.1121  -11.4509   26.4537 C   0  0  0  0  0  0  0  0  0  0  0  0
    6.3587  -12.4641   27.0129 C   0  0  0  0  0  0  0  0  0  0  0  0
    6.8017  -13.7784   27.0221 C   0  0  0  0  0  0  0  0  0  0  0  0
    6.6646  -16.6835   25.3613 C   0  0  0  0  0  0  0  0  0  0  0  0
    6.1934  -17.6207   26.2658 O   0  0  0  0  0  0  0  0  0  0  0  0
    5.8328  -16.1755   24.5755 O   0  0  0  0  0  0  0  0  0  0  0  0
  1  2  1  0
  2  3  2  0
  4  5  1  0
  4  2  1  0
  5  6  1  1
  7  5  1  0
  7  8  2  0
  9 10  1  0
 10 11  1  0
 11 13  1  0
 11 12  1  1
 13 14  1  6
 14  7  1  0
 15 17  1  0
 15 13  1  0
 16 15  2  0
 18 17  1  0
 18 26  1  0
 18 19  1  1
 20 19  1  0
 20 25  2  0
 21 20  1  0
 22 21  2  0
 22 23  1  0
 23 24  2  0
 24 25  1  0
 26 27  1  0
 28 26  2  0
M  END
$$$$
