NIF.pdb
     RDKit          3D

 28 28  0  0  1  0  0  0  0  0999 V2000
    7.7301  -18.9852   15.4570 N   0  0  0  0  0  0  0  0  0  0  0  0
    8.5244  -19.1889   16.6145 C   0  0  0  0  0  0  0  0  0  0  0  0
    8.4979  -20.3037   17.1716 O   0  0  0  0  0  0  0  0  0  0  0  0
    9.3538  -18.1055   17.1346 C   0  0  0  0  0  0  0  0  0  0  0  0
    9.4811  -18.0336   18.6190 C   0  0  2  0  0  0  0  0  0  0  0  0
    8.4851  -18.8123   19.3191 N   0  0  0  0  0  0  0  0  0  0  0  0
    9.5943  -16.6403   19.1534 C   0  0  0  0  0  0  0  0  0  0  0  0
    9.5897  -15.6458   18.3792 O   0  0  0  0  0  0  0  0  0  0  0  0
    7.5383  -13.0215   18.6889 C   0  0  0  0  0  0  0  0  0  0  0  0
    8.5967  -13.9078   19.1983 C   0  0  0  0  0  0  0  0  0  0  0  0
    8.6282  -14.3304   20.6085 C   0  0  2  0  0  0  0  0  0  0  0  0
    8.2115  -13.1413   21.5218 C   0  0  0  0  0  0  0  0  0  0  0  0
    9.7004  -15.1172   21.1837 C   0  0  2  0  0  0  0  0  0  0  0  0
    9.7139  -16.4285   20.5438 N   0  0  0  0  0  0  0  0  0  0  0  0
   10.0515  -15.1386   22.5869 C   0  0  0  0  0  0  0  0  0  0  0  0
   10.9228  -14.5110   23.1937 O   0  0  0  0  0  0  0  0  0  0  0  0
    9.2813  -16.0364   23.4404 N   0  0  0  0  0  0  0  0  0  0  0  0
    8.7451  -15.5593   24.7037 C   0  0  1  0  0  0  0  0  0  0  0  0
    7.8665  -14.3861   24.4503 C   0  0  0  0  0  0  0  0  0  0  0  0
    7.3128  -13.7508   25.6674 C   0  0  0  0  0  0  0  0  0  0  0  0
    6.0065  -14.0009   26.0170 C   0  0  0  0  0  0  0  0  0  0  0  0
    5.4112  -13.4547   27.1319 C   0  0  0  0  0  0  0  0  0  0  0  0
    6.1782  -12.6226   27.9191 C   0  0  0  0  0  0  0  0  0  0  0  0
    7.4913  -12.3623   27.5803 C   0  0  0  0  0  0  0  0  0  0  0  0
    8.0750  -12.9210   26.4530 C   0  0  0  0  0  0  0  0  0  0  0  0
    8.1367  -16.6403   25.5097 C   0  0  0  0  0  0  0  0  0  0  0  0
    8.4123  -16.8321   26.8535 O   0  0  0  0  0  0  0  0  0  0  0  0
    7.3315  -17.4326   24.9702 O   0  0  0  0  0  0  0  0  0  0  0  0
  1  2  1  0
  2  3  2  0
  4  5  1  0
  4  2  1  0
  5  6  1  1
  7  5  1  0
  7  8  2  0
  9 10  1  0
 10 11  1  0
 11 13  1  0
 11 12  1  1
 13 14  1  1
 14  7  1  0
 15 17  1  0
 15 13  1  0
 16 15  2  0
 18 17  1  0
 18 26  1  0
 18 19  1  6
 20 19  1  0
 20 25  2  0
 21 20  1  0
 22 21  2  0
 22 23  1  0
 23 24  2  0
 24 25  1  0
 26 27  1  0
 28 26  2  0
M  END
$$$$
