NIF.pdb
     RDKit          3D

 28 28  0  0  1  0  0  0  0  0999 V2000
    9.2485  -20.7971   19.1146 N   0  0  0  0  0  0  0  0  0  0  0  0
    8.6001  -20.6859   20.3714 C   0  0  0  0  0  0  0  0  0  0  0  0
    8.2928  -21.7282   20.9821 O   0  0  0  0  0  0  0  0  0  0  0  0
    8.3033  -19.3696   20.9295 C   0  0  0  0  0  0  0  0  0  0  0  0
    8.5226  -18.2084   20.0195 C   0  0  2  0  0  0  0  0  0  0  0  0
    9.3554  -18.5207   18.8804 N   0  0  0  0  0  0  0  0  0  0  0  0
    8.9599  -16.9602   20.7200 C   0  0  0  0  0  0  0  0  0  0  0  0
   10.1821  -16.6761   20.8376 O   0  0  0  0  0  0  0  0  0  0  0  0
    7.1119  -12.2931   19.2294 C   0  0  0  0  0  0  0  0  0  0  0  0
    7.8794  -13.3655   19.8822 C   0  0  0  0  0  0  0  0  0  0  0  0
    7.6181  -13.7526   21.2787 C   0  0  2  0  0  0  0  0  0  0  0  0
    7.5135  -12.4781   22.1654 C   0  0  0  0  0  0  0  0  0  0  0  0
    8.3073  -14.8358   21.9504 C   0  0  2  0  0  0  0  0  0  0  0  0
    7.9953  -16.0855   21.2647 N   0  0  0  0  0  0  0  0  0  0  0  0
    8.4476  -14.9655   23.3844 C   0  0  0  0  0  0  0  0  0  0  0  0
    8.6030  -14.0962   24.2455 O   0  0  0  0  0  0  0  0  0  0  0  0
    8.4127  -16.3196   23.9254 N   0  0  0  0  0  0  0  0  0  0  0  0
    8.3278  -16.5289   25.3607 C   0  0  1  0  0  0  0  0  0  0  0  0
    7.0497  -15.9580   25.8636 C   0  0  0  0  0  0  0  0  0  0  0  0
    7.1331  -14.5501   26.3135 C   0  0  0  0  0  0  0  0  0  0  0  0
    6.1074  -13.6876   26.0045 C   0  0  0  0  0  0  0  0  0  0  0  0
    6.1011  -12.3640   26.3839 C   0  0  0  0  0  0  0  0  0  0  0  0
    7.1818  -11.9043   27.1058 C   0  0  0  0  0  0  0  0  0  0  0  0
    8.2189  -12.7590   27.4232 C   0  0  0  0  0  0  0  0  0  0  0  0
    8.2090  -14.0897   27.0325 C   0  0  0  0  0  0  0  0  0  0  0  0
    8.5873  -17.9327   25.7487 C   0  0  0  0  0  0  0  0  0  0  0  0
    8.8243  -18.3277   27.0550 O   0  0  0  0  0  0  0  0  0  0  0  0
    8.5988  -18.8231   24.8689 O   0  0  0  0  0  0  0  0  0  0  0  0
  1  2  1  0
  2  3  2  0
  4  5  1  0
  4  2  1  0
  5  6  1  6
  7  5  1  0
  7  8  2  0
  9 10  1  0
 10 11  1  0
 11 13  1  0
 11 12  1  1
 13 14  1  1
 14  7  1  0
 15 17  1  0
 15 13  1  0
 16 15  2  0
 18 17  1  0
 18 26  1  0
 18 19  1  6
 20 19  1  0
 20 25  2  0
 21 20  1  0
 22 21  2  0
 22 23  1  0
 23 24  2  0
 24 25  1  0
 26 27  1  0
 28 26  2  0
M  END
$$$$
