NIF.pdb
     RDKit          3D

 28 28  0  0  1  0  0  0  0  0999 V2000
   13.6393  -19.9092   19.1551 N   0  0  0  0  0  0  0  0  0  0  0  0
   12.2655  -19.5913   19.3097 C   0  0  0  0  0  0  0  0  0  0  0  0
   11.4282  -20.1917   18.6080 O   0  0  0  0  0  0  0  0  0  0  0  0
   11.8516  -18.5779   20.2761 C   0  0  0  0  0  0  0  0  0  0  0  0
   11.2761  -17.3258   19.7053 C   0  0  2  0  0  0  0  0  0  0  0  0
   12.1444  -16.6789   18.7482 N   0  0  0  0  0  0  0  0  0  0  0  0
   10.7513  -16.3732   20.7334 C   0  0  0  0  0  0  0  0  0  0  0  0
   11.5351  -15.6803   21.4363 O   0  0  0  0  0  0  0  0  0  0  0  0
    7.1634  -12.7803   19.6877 C   0  0  0  0  0  0  0  0  0  0  0  0
    8.1784  -13.6196   20.3440 C   0  0  0  0  0  0  0  0  0  0  0  0
    7.8237  -14.5273   21.4478 C   0  0  2  0  0  0  0  0  0  0  0  0
    7.0401  -13.7434   22.5402 C   0  0  0  0  0  0  0  0  0  0  0  0
    8.7426  -15.4932   22.0154 C   0  0  2  0  0  0  0  0  0  0  0  0
    9.3592  -16.2471   20.9289 N   0  0  0  0  0  0  0  0  0  0  0  0
    8.4941  -16.2705   23.2099 C   0  0  0  0  0  0  0  0  0  0  0  0
    8.1970  -17.4614   23.3308 O   0  0  0  0  0  0  0  0  0  0  0  0
    8.5939  -15.5645   24.4824 N   0  0  0  0  0  0  0  0  0  0  0  0
    8.4618  -16.2933   25.7324 C   0  0  1  0  0  0  0  0  0  0  0  0
    8.6782  -15.3586   26.8690 C   0  0  0  0  0  0  0  0  0  0  0  0
    7.9477  -14.0752   26.7651 C   0  0  0  0  0  0  0  0  0  0  0  0
    8.6525  -12.9241   26.5015 C   0  0  0  0  0  0  0  0  0  0  0  0
    8.0548  -11.6890   26.3863 C   0  0  0  0  0  0  0  0  0  0  0  0
    6.6870  -11.6272   26.5459 C   0  0  0  0  0  0  0  0  0  0  0  0
    5.9664  -12.7748   26.8111 C   0  0  0  0  0  0  0  0  0  0  0  0
    6.5849  -14.0111   26.9242 C   0  0  0  0  0  0  0  0  0  0  0  0
    7.2170  -17.0899   25.7993 C   0  0  0  0  0  0  0  0  0  0  0  0
    6.1622  -16.9256   24.9167 O   0  0  0  0  0  0  0  0  0  0  0  0
    7.0893  -17.9599   26.6905 O   0  0  0  0  0  0  0  0  0  0  0  0
  1  2  1  0
  2  3  2  0
  4  5  1  0
  4  2  1  0
  5  6  1  1
  7  5  1  0
  7  8  2  0
  9 10  1  0
 10 11  1  0
 11 13  1  0
 11 12  1  1
 13 14  1  6
 14  7  1  0
 15 17  1  0
 15 13  1  0
 16 15  2  0
 18 17  1  0
 18 26  1  0
 18 19  1  1
 20 19  1  0
 20 25  2  0
 21 20  1  0
 22 21  2  0
 22 23  1  0
 23 24  2  0
 24 25  1  0
 26 27  1  0
 28 26  2  0
M  END
$$$$
