NIF.pdb
     RDKit          3D

 28 28  0  0  1  0  0  0  0  0999 V2000
    8.6439  -21.6279   20.1745 N   0  0  0  0  0  0  0  0  0  0  0  0
    9.6274  -20.6891   19.7697 C   0  0  0  0  0  0  0  0  0  0  0  0
   10.3449  -20.9582   18.7865 O   0  0  0  0  0  0  0  0  0  0  0  0
    9.7872  -19.4341   20.4989 C   0  0  0  0  0  0  0  0  0  0  0  0
    8.7802  -18.3738   20.2051 C   0  0  2  0  0  0  0  0  0  0  0  0
    8.4112  -18.3031   18.8096 N   0  0  0  0  0  0  0  0  0  0  0  0
    9.1256  -17.0325   20.7718 C   0  0  0  0  0  0  0  0  0  0  0  0
   10.2829  -16.5508   20.6406 O   0  0  0  0  0  0  0  0  0  0  0  0
    7.1007  -12.9133   18.9471 C   0  0  0  0  0  0  0  0  0  0  0  0
    7.8863  -13.8608   19.7535 C   0  0  0  0  0  0  0  0  0  0  0  0
    7.6721  -13.9921   21.2045 C   0  0  2  0  0  0  0  0  0  0  0  0
    7.6308  -12.5806   21.8584 C   0  0  0  0  0  0  0  0  0  0  0  0
    8.3633  -14.9616   22.0302 C   0  0  2  0  0  0  0  0  0  0  0  0
    8.1479  -16.2917   21.4701 N   0  0  0  0  0  0  0  0  0  0  0  0
    8.4194  -14.9289   23.4754 C   0  0  0  0  0  0  0  0  0  0  0  0
    8.1860  -14.0021   24.2550 O   0  0  0  0  0  0  0  0  0  0  0  0
    8.8181  -16.1631   24.1428 N   0  0  0  0  0  0  0  0  0  0  0  0
    8.7623  -16.2589   25.5914 C   0  0  1  0  0  0  0  0  0  0  0  0
    7.4064  -15.8613   26.0561 C   0  0  0  0  0  0  0  0  0  0  0  0
    7.2427  -14.4155   26.3289 C   0  0  0  0  0  0  0  0  0  0  0  0
    8.2578  -13.7350   26.9597 C   0  0  0  0  0  0  0  0  0  0  0  0
    8.1914  -12.3908   27.2505 C   0  0  0  0  0  0  0  0  0  0  0  0
    7.0465  -11.7165   26.8833 C   0  0  0  0  0  0  0  0  0  0  0  0
    6.0191  -12.3869   26.2493 C   0  0  0  0  0  0  0  0  0  0  0  0
    6.1027  -13.7417   25.9643 C   0  0  0  0  0  0  0  0  0  0  0  0
    9.2443  -17.5634   26.0958 C   0  0  0  0  0  0  0  0  0  0  0  0
    9.6625  -18.5905   25.2659 O   0  0  0  0  0  0  0  0  0  0  0  0
    9.2833  -17.7707   27.3298 O   0  0  0  0  0  0  0  0  0  0  0  0
  1  2  1  0
  2  3  2  0
  4  5  1  0
  4  2  1  0
  5  6  1  6
  7  5  1  0
  7  8  2  0
  9 10  1  0
 10 11  1  0
 11 13  1  0
 11 12  1  1
 13 14  1  1
 14  7  1  0
 15 17  1  0
 15 13  1  0
 16 15  2  0
 18 17  1  0
 18 26  1  0
 18 19  1  6
 20 19  1  0
 20 25  2  0
 21 20  1  0
 22 21  2  0
 22 23  1  0
 23 24  2  0
 24 25  1  0
 26 27  1  0
 28 26  2  0
M  END
$$$$
