NIF.pdb
     RDKit          3D

 28 28  0  0  1  0  0  0  0  0999 V2000
    8.5202  -12.6441   16.5252 N   0  0  0  0  0  0  0  0  0  0  0  0
    7.9979  -13.9342   16.7991 C   0  0  0  0  0  0  0  0  0  0  0  0
    7.9403  -14.7670   15.8733 O   0  0  0  0  0  0  0  0  0  0  0  0
    7.5393  -14.2693   18.1443 C   0  0  0  0  0  0  0  0  0  0  0  0
    8.5261  -14.9694   19.0166 C   0  0  2  0  0  0  0  0  0  0  0  0
    9.0352  -16.1930   18.4405 N   0  0  0  0  0  0  0  0  0  0  0  0
    8.0674  -15.1523   20.4294 C   0  0  0  0  0  0  0  0  0  0  0  0
    7.9490  -14.1669   21.2061 O   0  0  0  0  0  0  0  0  0  0  0  0
    4.2023  -18.6358   20.9332 C   0  0  0  0  0  0  0  0  0  0  0  0
    5.0435  -17.4969   21.3335 C   0  0  0  0  0  0  0  0  0  0  0  0
    6.2201  -17.6814   22.1995 C   0  0  2  0  0  0  0  0  0  0  0  0
    5.7643  -18.1591   23.6087 C   0  0  0  0  0  0  0  0  0  0  0  0
    7.3194  -16.7399   22.2660 C   0  0  2  0  0  0  0  0  0  0  0  0
    7.7661  -16.4454   20.9085 N   0  0  0  0  0  0  0  0  0  0  0  0
    8.3835  -16.7766   23.2454 C   0  0  0  0  0  0  0  0  0  0  0  0
    9.5267  -17.2306   23.1545 O   0  0  0  0  0  0  0  0  0  0  0  0
    8.0880  -16.2046   24.5543 N   0  0  0  0  0  0  0  0  0  0  0  0
    9.1603  -15.9710   25.5064 C   0  0  1  0  0  0  0  0  0  0  0  0
    9.4380  -14.5116   25.5821 C   0  0  0  0  0  0  0  0  0  0  0  0
    8.3116  -13.6904   26.0804 C   0  0  0  0  0  0  0  0  0  0  0  0
    8.2953  -13.3092   27.4017 C   0  0  0  0  0  0  0  0  0  0  0  0
    7.2893  -12.5447   27.9489 C   0  0  0  0  0  0  0  0  0  0  0  0
    6.2624  -12.1546   27.1161 C   0  0  0  0  0  0  0  0  0  0  0  0
    6.2656  -12.5300   25.7872 C   0  0  0  0  0  0  0  0  0  0  0  0
    7.2871  -13.3009   25.2526 C   0  0  0  0  0  0  0  0  0  0  0  0
    8.9238  -16.6362   26.8064 C   0  0  0  0  0  0  0  0  0  0  0  0
    7.7653  -17.3356   27.1015 O   0  0  0  0  0  0  0  0  0  0  0  0
    9.8005  -16.5755   27.6981 O   0  0  0  0  0  0  0  0  0  0  0  0
  1  2  1  0
  2  3  2  0
  4  5  1  0
  4  2  1  0
  5  6  1  6
  7  5  1  0
  7  8  2  0
  9 10  1  0
 10 11  1  0
 11 13  1  0
 11 12  1  1
 13 14  1  6
 14  7  1  0
 15 17  1  0
 15 13  1  0
 16 15  2  0
 18 17  1  0
 18 26  1  0
 18 19  1  1
 20 19  1  0
 20 25  2  0
 21 20  1  0
 22 21  2  0
 22 23  1  0
 23 24  2  0
 24 25  1  0
 26 27  1  0
 28 26  2  0
M  END
$$$$
