TAT.pdb
     RDKit          3D

 20 19  0  0  1  0  0  0  0  0999 V2000
    8.8155  -12.1615   18.2961 C   0  0  0  0  0  0  0  0  0  0  0  0
    8.9308  -13.0379   19.5304 C   0  0  1  0  0  0  0  0  0  0  0  0
    8.1221  -12.6247   20.5600 O   0  0  0  0  0  0  0  0  0  0  0  0
    8.5992  -14.4571   19.0723 C   0  0  2  0  0  0  0  0  0  0  0  0
    7.2658  -14.5357   18.5621 N   0  0  0  0  0  0  0  0  0  0  0  0
    8.8629  -15.4501   20.1456 C   0  0  0  0  0  0  0  0  0  0  0  0
    7.9340  -15.7925   20.9216 O   0  0  0  0  0  0  0  0  0  0  0  0
   11.7524  -17.5652   21.2591 C   0  0  0  0  0  0  0  0  0  0  0  0
   10.3579  -16.9440   21.4042 C   0  0  2  0  0  0  0  0  0  0  0  0
   10.1429  -16.0362   20.3315 N   0  0  0  0  0  0  0  0  0  0  0  0
   10.2538  -16.3146   22.7450 C   0  0  0  0  0  0  0  0  0  0  0  0
   10.7448  -15.2055   23.0416 O   0  0  0  0  0  0  0  0  0  0  0  0
    7.4165  -14.9826   24.3461 C   0  0  0  0  0  0  0  0  0  0  0  0
    7.8657  -16.0793   25.2380 C   0  0  1  0  0  0  0  0  0  0  0  0
    7.0512  -17.1887   25.0568 O   0  0  0  0  0  0  0  0  0  0  0  0
    9.3183  -16.4475   25.0837 C   0  0  2  0  0  0  0  0  0  0  0  0
    9.5530  -17.0073   23.7677 N   0  0  0  0  0  0  0  0  0  0  0  0
    9.8150  -17.3194   26.1615 C   0  0  0  0  0  0  0  0  0  0  0  0
    9.9054  -16.9709   27.4794 O   0  0  0  0  0  0  0  0  0  0  0  0
   10.1912  -18.4924   25.8447 O   0  0  0  0  0  0  0  0  0  0  0  0
  2  1  1  6
  2  3  1  0
  4  2  1  0
  4  5  1  1
  6 10  1  0
  6  4  1  0
  7  6  2  0
  9  8  1  6
  9 11  1  0
  9 10  1  0
 11 12  2  0
 14 13  1  6
 15 14  1  0
 16 18  1  0
 16 14  1  0
 17 11  1  0
 16 17  1  6
 18 19  1  0
 20 18  2  0
M  END
$$$$
