TAT.pdb
     RDKit          3D

 20 19  0  0  1  0  0  0  0  0999 V2000
   11.4576  -18.7780   22.1193 C   0  0  0  0  0  0  0  0  0  0  0  0
   11.3704  -17.5688   21.2055 C   0  0  1  0  0  0  0  0  0  0  0  0
   11.8177  -17.8240   19.9328 O   0  0  0  0  0  0  0  0  0  0  0  0
    9.9069  -17.1308   21.2240 C   0  0  2  0  0  0  0  0  0  0  0  0
    9.6423  -16.1738   20.1952 N   0  0  0  0  0  0  0  0  0  0  0  0
    9.4995  -16.6537   22.5708 C   0  0  0  0  0  0  0  0  0  0  0  0
    9.8170  -15.4958   22.9457 O   0  0  0  0  0  0  0  0  0  0  0  0
    7.2571  -17.8645   25.3056 C   0  0  0  0  0  0  0  0  0  0  0  0
    8.3316  -16.9428   24.7163 C   0  0  2  0  0  0  0  0  0  0  0  0
    8.7540  -17.4675   23.4645 N   0  0  0  0  0  0  0  0  0  0  0  0
    9.4320  -16.8019   25.7032 C   0  0  0  0  0  0  0  0  0  0  0  0
   10.5019  -17.4442   25.6605 O   0  0  0  0  0  0  0  0  0  0  0  0
   10.3180  -13.2031   27.4501 C   0  0  0  0  0  0  0  0  0  0  0  0
   10.1286  -14.3163   28.4119 C   0  0  1  0  0  0  0  0  0  0  0  0
    8.9024  -14.1775   29.0476 O   0  0  0  0  0  0  0  0  0  0  0  0
   10.2684  -15.6886   27.8065 C   0  0  2  0  0  0  0  0  0  0  0  0
    9.2719  -15.8800   26.7716 N   0  0  0  0  0  0  0  0  0  0  0  0
   10.2543  -16.7697   28.8063 C   0  0  0  0  0  0  0  0  0  0  0  0
   11.2047  -16.9673   29.7677 O   0  0  0  0  0  0  0  0  0  0  0  0
    9.2809  -17.5878   28.7764 O   0  0  0  0  0  0  0  0  0  0  0  0
  2  1  1  1
  2  3  1  0
  4  2  1  0
  4  5  1  6
  6 10  1  0
  6  4  1  0
  7  6  2  0
  9  8  1  1
  9 11  1  0
  9 10  1  0
 11 12  2  0
 14 13  1  6
 15 14  1  0
 16 18  1  0
 16 14  1  0
 17 11  1  0
 16 17  1  6
 18 19  1  0
 20 18  2  0
M  END
$$$$
