TAT.pdb
     RDKit          3D

 20 19  0  0  1  0  0  0  0  0999 V2000
   10.5610  -13.3107   20.3398 C   0  0  0  0  0  0  0  0  0  0  0  0
    9.3627  -12.9071   19.4995 C   0  0  1  0  0  0  0  0  0  0  0  0
    9.7104  -12.4535   18.2512 O   0  0  0  0  0  0  0  0  0  0  0  0
    8.4601  -14.1379   19.4336 C   0  0  2  0  0  0  0  0  0  0  0  0
    7.3830  -13.9385   18.5147 N   0  0  0  0  0  0  0  0  0  0  0  0
    7.9946  -14.5434   20.7851 C   0  0  0  0  0  0  0  0  0  0  0  0
    7.0580  -13.9120   21.3385 O   0  0  0  0  0  0  0  0  0  0  0  0
    8.5220  -17.4294   23.0859 C   0  0  0  0  0  0  0  0  0  0  0  0
    8.0805  -15.9955   22.7686 C   0  0  2  0  0  0  0  0  0  0  0  0
    8.5755  -15.6330   21.4863 N   0  0  0  0  0  0  0  0  0  0  0  0
    8.5450  -15.1015   23.8593 C   0  0  0  0  0  0  0  0  0  0  0  0
    9.6668  -14.5539   23.8904 O   0  0  0  0  0  0  0  0  0  0  0  0
    6.3422  -12.1312   25.1996 C   0  0  0  0  0  0  0  0  0  0  0  0
    6.7400  -13.0538   26.2907 C   0  0  1  0  0  0  0  0  0  0  0  0
    5.6650  -13.8643   26.6291 O   0  0  0  0  0  0  0  0  0  0  0  0
    7.9626  -13.8804   25.9882 C   0  0  2  0  0  0  0  0  0  0  0  0
    7.6674  -14.8426   24.9453 N   0  0  0  0  0  0  0  0  0  0  0  0
    8.5494  -14.5099   27.1831 C   0  0  0  0  0  0  0  0  0  0  0  0
    9.0650  -13.8386   28.2555 O   0  0  0  0  0  0  0  0  0  0  0  0
    8.5810  -15.7808   27.2247 O   0  0  0  0  0  0  0  0  0  0  0  0
  2  1  1  1
  2  3  1  0
  4  2  1  0
  4  5  1  6
  6 10  1  0
  6  4  1  0
  7  6  2  0
  9  8  1  1
  9 11  1  0
  9 10  1  0
 11 12  2  0
 14 13  1  6
 15 14  1  0
 16 18  1  0
 16 14  1  0
 17 11  1  0
 16 17  1  6
 18 19  1  0
 20 18  2  0
M  END
$$$$
