TAT.pdb
     RDKit          3D

 20 19  0  0  1  0  0  0  0  0999 V2000
   11.5295  -17.3061   14.9986 C   0  0  0  0  0  0  0  0  0  0  0  0
   10.7534  -16.3572   14.1030 C   0  0  1  0  0  0  0  0  0  0  0  0
   11.2245  -16.3296   12.8137 O   0  0  0  0  0  0  0  0  0  0  0  0
    9.2956  -16.8085   14.1733 C   0  0  2  0  0  0  0  0  0  0  0  0
    8.5039  -16.1505   13.1811 N   0  0  0  0  0  0  0  0  0  0  0  0
    8.7441  -16.6528   15.5442 C   0  0  0  0  0  0  0  0  0  0  0  0
    8.1094  -15.6100   15.8473 O   0  0  0  0  0  0  0  0  0  0  0  0
    8.3590  -18.7985   18.5824 C   0  0  0  0  0  0  0  0  0  0  0  0
    8.3545  -17.4595   17.8351 C   0  0  2  0  0  0  0  0  0  0  0  0
    8.9088  -17.6515   16.5402 N   0  0  0  0  0  0  0  0  0  0  0  0
    9.0841  -16.4560   18.6508 C   0  0  0  0  0  0  0  0  0  0  0  0
   10.3011  -16.2029   18.5315 O   0  0  0  0  0  0  0  0  0  0  0  0
    7.7165  -12.8645   19.4507 C   0  0  0  0  0  0  0  0  0  0  0  0
    8.0707  -13.5740   20.7041 C   0  0  1  0  0  0  0  0  0  0  0  0
    6.9114  -13.9497   21.3689 O   0  0  0  0  0  0  0  0  0  0  0  0
    8.9862  -14.7545   20.5103 C   0  0  2  0  0  0  0  0  0  0  0  0
    8.3645  -15.7284   19.6354 N   0  0  0  0  0  0  0  0  0  0  0  0
    9.4443  -15.3495   21.7770 C   0  0  0  0  0  0  0  0  0  0  0  0
   10.2615  -14.7383   22.6855 O   0  0  0  0  0  0  0  0  0  0  0  0
    9.0501  -16.5271   22.0519 O   0  0  0  0  0  0  0  0  0  0  0  0
  2  1  1  1
  2  3  1  0
  4  2  1  0
  4  5  1  6
  6 10  1  0
  6  4  1  0
  7  6  2  0
  9  8  1  1
  9 11  1  0
  9 10  1  0
 11 12  2  0
 14 13  1  6
 15 14  1  0
 16 18  1  0
 16 14  1  0
 17 11  1  0
 16 17  1  6
 18 19  1  0
 20 18  2  0
M  END
$$$$
