TAT.pdb
     RDKit          3D

 20 19  0  0  1  0  0  0  0  0999 V2000
    6.6378  -18.1520   20.5767 C   0  0  0  0  0  0  0  0  0  0  0  0
    7.5338  -18.4440   19.3865 C   0  0  1  0  0  0  0  0  0  0  0  0
    7.2515  -19.6447   18.7835 O   0  0  0  0  0  0  0  0  0  0  0  0
    7.3619  -17.2653   18.4299 C   0  0  2  0  0  0  0  0  0  0  0  0
    7.7592  -17.6168   17.1022 N   0  0  0  0  0  0  0  0  0  0  0  0
    8.0540  -16.0510   18.9341 C   0  0  0  0  0  0  0  0  0  0  0  0
    9.3047  -16.0552   19.0679 O   0  0  0  0  0  0  0  0  0  0  0  0
    7.0723  -12.5467   19.8452 C   0  0  0  0  0  0  0  0  0  0  0  0
    8.0600  -13.7088   19.6854 C   0  0  2  0  0  0  0  0  0  0  0  0
    7.3465  -14.8680   19.2756 N   0  0  0  0  0  0  0  0  0  0  0  0
    8.7981  -13.8856   20.9616 C   0  0  0  0  0  0  0  0  0  0  0  0
    9.5668  -13.0335   21.4537 O   0  0  0  0  0  0  0  0  0  0  0  0
    7.3573  -16.8015   23.6350 C   0  0  0  0  0  0  0  0  0  0  0  0
    8.2904  -15.7083   24.0015 C   0  0  1  0  0  0  0  0  0  0  0  0
    8.9183  -16.0159   25.2007 O   0  0  0  0  0  0  0  0  0  0  0  0
    9.3010  -15.3730   22.9358 C   0  0  2  0  0  0  0  0  0  0  0  0
    8.6291  -15.0981   21.6814 N   0  0  0  0  0  0  0  0  0  0  0  0
   10.3576  -16.3891   22.7958 C   0  0  0  0  0  0  0  0  0  0  0  0
   10.6863  -17.0306   21.6351 O   0  0  0  0  0  0  0  0  0  0  0  0
   11.0205  -16.6977   23.8366 O   0  0  0  0  0  0  0  0  0  0  0  0
  2  1  1  1
  2  3  1  0
  4  2  1  0
  4  5  1  6
  6 10  1  0
  6  4  1  0
  7  6  2  0
  9  8  1  1
  9 11  1  0
  9 10  1  0
 11 12  2  0
 14 13  1  6
 15 14  1  0
 16 18  1  0
 16 14  1  0
 17 11  1  0
 16 17  1  6
 18 19  1  0
 20 18  2  0
M  END
$$$$
