TAT.pdb
     RDKit          3D

 20 19  0  0  1  0  0  0  0  0999 V2000
    9.0534  -12.4920   20.2906 C   0  0  0  0  0  0  0  0  0  0  0  0
    8.1335  -13.1091   19.2525 C   0  0  1  0  0  0  0  0  0  0  0  0
    8.4179  -12.7015   17.9728 O   0  0  0  0  0  0  0  0  0  0  0  0
    8.2665  -14.6221   19.4174 C   0  0  2  0  0  0  0  0  0  0  0  0
    7.5330  -15.3172   18.4059 N   0  0  0  0  0  0  0  0  0  0  0  0
    7.9000  -15.0532   20.7913 C   0  0  0  0  0  0  0  0  0  0  0  0
    6.6966  -15.0212   21.1557 O   0  0  0  0  0  0  0  0  0  0  0  0
    9.1768  -17.2160   23.3881 C   0  0  0  0  0  0  0  0  0  0  0  0
    8.4713  -15.9029   23.0278 C   0  0  2  0  0  0  0  0  0  0  0  0
    8.8714  -15.5068   21.7225 N   0  0  0  0  0  0  0  0  0  0  0  0
    8.7771  -14.8951   24.0744 C   0  0  0  0  0  0  0  0  0  0  0  0
    9.7773  -14.1475   24.0605 O   0  0  0  0  0  0  0  0  0  0  0  0
    6.4113  -12.0958   25.2077 C   0  0  0  0  0  0  0  0  0  0  0  0
    6.7435  -12.9791   26.3520 C   0  0  1  0  0  0  0  0  0  0  0  0
    5.6831  -13.8410   26.5967 O   0  0  0  0  0  0  0  0  0  0  0  0
    8.0317  -13.7434   26.1911 C   0  0  2  0  0  0  0  0  0  0  0  0
    7.8829  -14.7605   25.1695 N   0  0  0  0  0  0  0  0  0  0  0  0
    8.5453  -14.2909   27.4580 C   0  0  0  0  0  0  0  0  0  0  0  0
    8.9300  -13.5496   28.5392 O   0  0  0  0  0  0  0  0  0  0  0  0
    8.6401  -15.5553   27.5583 O   0  0  0  0  0  0  0  0  0  0  0  0
  2  1  1  1
  2  3  1  0
  4  2  1  0
  4  5  1  6
  6 10  1  0
  6  4  1  0
  7  6  2  0
  9  8  1  1
  9 11  1  0
  9 10  1  0
 11 12  2  0
 14 13  1  6
 15 14  1  0
 16 18  1  0
 16 14  1  0
 17 11  1  0
 16 17  1  6
 18 19  1  0
 20 18  2  0
M  END
$$$$
