TAT.pdb
     RDKit          3D

 20 19  0  0  1  0  0  0  0  0999 V2000
    6.4854  -17.5252   18.5344 C   0  0  0  0  0  0  0  0  0  0  0  0
    7.5254  -17.6657   17.4374 C   0  0  1  0  0  0  0  0  0  0  0  0
    7.0376  -18.2795   16.3104 O   0  0  0  0  0  0  0  0  0  0  0  0
    8.0293  -16.2523   17.1504 C   0  0  2  0  0  0  0  0  0  0  0  0
    8.9202  -16.2399   16.0322 N   0  0  0  0  0  0  0  0  0  0  0  0
    8.6207  -15.6297   18.3629 C   0  0  0  0  0  0  0  0  0  0  0  0
    9.6784  -16.1008   18.8542 O   0  0  0  0  0  0  0  0  0  0  0  0
    7.7171  -12.8319   20.6974 C   0  0  0  0  0  0  0  0  0  0  0  0
    8.5294  -14.0526   20.2484 C   0  0  2  0  0  0  0  0  0  0  0  0
    8.0284  -14.5059   18.9977 N   0  0  0  0  0  0  0  0  0  0  0  0
    8.4749  -15.0809   21.3182 C   0  0  0  0  0  0  0  0  0  0  0  0
    7.4498  -15.7257   21.6227 O   0  0  0  0  0  0  0  0  0  0  0  0
   11.9019  -17.2301   22.2340 C   0  0  0  0  0  0  0  0  0  0  0  0
   10.5145  -17.5460   22.6526 C   0  0  1  0  0  0  0  0  0  0  0  0
   10.5371  -18.5294   23.6321 O   0  0  0  0  0  0  0  0  0  0  0  0
    9.7176  -16.3514   23.1081 C   0  0  2  0  0  0  0  0  0  0  0  0
    9.6581  -15.3606   22.0521 N   0  0  0  0  0  0  0  0  0  0  0  0
   10.1933  -15.7863   24.3820 C   0  0  0  0  0  0  0  0  0  0  0  0
   10.1308  -16.4124   25.5948 O   0  0  0  0  0  0  0  0  0  0  0  0
   10.7042  -14.6218   24.3562 O   0  0  0  0  0  0  0  0  0  0  0  0
  2  1  1  1
  2  3  1  0
  4  2  1  0
  4  5  1  6
  6 10  1  0
  6  4  1  0
  7  6  2  0
  9  8  1  1
  9 11  1  0
  9 10  1  0
 11 12  2  0
 14 13  1  1
 15 14  1  0
 16 18  1  0
 16 14  1  0
 17 11  1  0
 16 17  1  6
 18 19  1  0
 20 18  2  0
M  END
$$$$
