TAT.pdb
     RDKit          3D

 20 19  0  0  1  0  0  0  0  0999 V2000
    6.5522  -18.6603   20.2396 C   0  0  0  0  0  0  0  0  0  0  0  0
    7.3142  -18.4932   18.9371 C   0  0  1  0  0  0  0  0  0  0  0  0
    6.7003  -19.1067   17.8733 O   0  0  0  0  0  0  0  0  0  0  0  0
    7.4628  -16.9876   18.7256 C   0  0  2  0  0  0  0  0  0  0  0  0
    7.9589  -16.6975   17.4164 N   0  0  0  0  0  0  0  0  0  0  0  0
    8.2794  -16.3659   19.8000 C   0  0  0  0  0  0  0  0  0  0  0  0
    9.5148  -16.5956   19.8576 O   0  0  0  0  0  0  0  0  0  0  0  0
    7.6891  -14.0368   22.6814 C   0  0  0  0  0  0  0  0  0  0  0  0
    8.5024  -15.0489   21.8655 C   0  0  2  0  0  0  0  0  0  0  0  0
    7.7098  -15.5094   20.7790 N   0  0  0  0  0  0  0  0  0  0  0  0
    8.9581  -16.1342   22.7705 C   0  0  0  0  0  0  0  0  0  0  0  0
    8.2158  -17.0298   23.2245 O   0  0  0  0  0  0  0  0  0  0  0  0
   12.9552  -18.5306   24.4589 C   0  0  0  0  0  0  0  0  0  0  0  0
   12.3027  -17.4838   23.6353 C   0  0  1  0  0  0  0  0  0  0  0  0
   12.3921  -17.8259   22.2929 O   0  0  0  0  0  0  0  0  0  0  0  0
   10.8764  -17.1908   24.0219 C   0  0  2  0  0  0  0  0  0  0  0  0
   10.3251  -16.1696   23.1538 N   0  0  0  0  0  0  0  0  0  0  0  0
   10.7162  -16.8617   25.4482 C   0  0  0  0  0  0  0  0  0  0  0  0
   10.4878  -17.7669   26.4457 O   0  0  0  0  0  0  0  0  0  0  0  0
   10.7962  -15.6373   25.7833 O   0  0  0  0  0  0  0  0  0  0  0  0
  2  1  1  1
  2  3  1  0
  4  2  1  0
  4  5  1  6
  6 10  1  0
  6  4  1  0
  7  6  2  0
  9  8  1  1
  9 11  1  0
  9 10  1  0
 11 12  2  0
 14 13  1  1
 15 14  1  0
 16 18  1  0
 16 14  1  0
 17 11  1  0
 16 17  1  6
 18 19  1  0
 20 18  2  0
M  END
$$$$
