WMC.pdb
     RDKit          3D

 29 30  0  0  1  0  0  0  0  0999 V2000
   26.2201  -21.5255  -13.0655 N   0  0  0  0  0  0  0  0  0  0  0  0
   25.9402  -20.4199  -12.2051 C   0  0  1  0  0  0  0  0  0  0  0  0
   24.6130  -19.7655  -12.4013 C   0  0  0  0  0  0  0  0  0  0  0  0
   24.4788  -19.0138  -13.6736 C   0  0  0  0  0  0  0  0  0  0  0  0
   25.2214  -17.9227  -14.1042 C   0  0  0  0  0  0  0  0  0  0  0  0
   24.8273  -17.5098  -15.3191 N   0  0  0  0  0  0  0  0  0  0  0  0
   23.8257  -18.3212  -15.6984 C   0  0  0  0  0  0  0  0  0  0  0  0
   23.0637  -18.3419  -16.8465 C   0  0  0  0  0  0  0  0  0  0  0  0
   22.0563  -19.2835  -17.0351 C   0  0  0  0  0  0  0  0  0  0  0  0
   21.8089  -20.2193  -16.0562 C   0  0  0  0  0  0  0  0  0  0  0  0
   22.5794  -20.1825  -14.9187 C   0  0  0  0  0  0  0  0  0  0  0  0
   23.5823  -19.2659  -14.7023 C   0  0  0  0  0  0  0  0  0  0  0  0
   25.9545  -20.9179  -10.7805 C   0  0  0  0  0  0  0  0  0  0  0  0
   25.5053  -22.0639  -10.5000 O   0  0  0  0  0  0  0  0  0  0  0  0
   29.1668  -19.3453   -3.7331 C   0  0  0  0  0  0  0  0  0  0  0  0
   28.5900  -18.7611   -5.3267 S   0  0  0  0  0  0  0  0  0  0  0  0
   27.5260  -19.9881   -6.1672 C   0  0  0  0  0  0  0  0  0  0  0  0
   27.4030  -19.5503   -7.5945 C   0  0  0  0  0  0  0  0  0  0  0  0
   26.5660  -20.4973   -8.4329 C   0  0  2  0  0  0  0  0  0  0  0  0
   26.4892  -20.0448   -9.8006 N   0  0  0  0  0  0  0  0  0  0  0  0
   25.2017  -20.6640   -7.8390 C   0  0  0  0  0  0  0  0  0  0  0  0
   24.3185  -19.8047   -8.0835 O   0  0  0  0  0  0  0  0  0  0  0  0
   24.8600  -21.7615   -7.0038 N   0  0  0  0  0  0  0  0  0  0  0  0
   23.5641  -21.9833   -6.4224 C   0  0  1  0  0  0  0  0  0  0  0  0
   23.4007  -23.4018   -5.9135 C   0  0  0  0  0  0  0  0  0  0  0  0
   24.8644  -23.7802   -4.8977 S   0  0  0  0  0  0  0  0  0  0  0  0
   23.3521  -21.0640   -5.2941 C   0  0  0  0  0  0  0  0  0  0  0  0
   24.2548  -20.3492   -4.7961 O   0  0  0  0  0  0  0  0  0  0  0  0
   22.0798  -20.9764   -4.7415 O   0  0  0  0  0  0  0  0  0  0  0  0
  2  1  1  6
  2 13  1  0
  3  2  1  0
  4  3  1  0
  4 12  1  0
  5  6  1  0
  5  4  2  0
  6  7  1  0
  7 12  2  0
  7  8  1  0
  8  9  2  0
  9 10  1  0
 11 10  2  0
 12 11  1  0
 13 14  2  0
 16 15  1  0
 17 18  1  0
 17 16  1  0
 19 18  1  1
 19 21  1  0
 20 19  1  0
 20 13  1  0
 21 22  2  0
 23 21  1  0
 23 24  1  0
 24 27  1  0
 24 25  1  1
 26 25  1  0
 27 28  2  0
 27 29  1  0
M  END
$$$$
