WMC.pdb
     RDKit          3D

 29 30  0  0  1  0  0  0  0  0999 V2000
   28.4117  -19.5280  -15.7739 N   0  0  0  0  0  0  0  0  0  0  0  0
   27.1918  -19.2548  -15.0824 C   0  0  1  0  0  0  0  0  0  0  0  0
   25.9459  -19.3659  -15.8969 C   0  0  0  0  0  0  0  0  0  0  0  0
   25.7857  -18.3081  -16.9251 C   0  0  0  0  0  0  0  0  0  0  0  0
   26.3761  -18.2390  -18.1797 C   0  0  0  0  0  0  0  0  0  0  0  0
   25.9875  -17.1398  -18.8449 N   0  0  0  0  0  0  0  0  0  0  0  0
   25.1414  -16.4774  -18.0384 C   0  0  0  0  0  0  0  0  0  0  0  0
   24.4574  -15.2948  -18.2202 C   0  0  0  0  0  0  0  0  0  0  0  0
   23.6221  -14.7776  -17.2345 C   0  0  0  0  0  0  0  0  0  0  0  0
   23.4703  -15.4574  -16.0471 C   0  0  0  0  0  0  0  0  0  0  0  0
   24.1604  -16.6348  -15.8847 C   0  0  0  0  0  0  0  0  0  0  0  0
   24.9927  -17.1725  -16.8390 C   0  0  0  0  0  0  0  0  0  0  0  0
   27.0511  -20.2580  -13.9637 C   0  0  0  0  0  0  0  0  0  0  0  0
   27.4235  -21.4532  -14.1270 O   0  0  0  0  0  0  0  0  0  0  0  0
   27.1938  -19.3564   -7.7655 C   0  0  0  0  0  0  0  0  0  0  0  0
   25.8835  -20.5796   -7.7404 S   0  0  0  0  0  0  0  0  0  0  0  0
   25.5535  -21.2710   -9.4009 C   0  0  0  0  0  0  0  0  0  0  0  0
   26.1442  -20.3170  -10.3933 C   0  0  0  0  0  0  0  0  0  0  0  0
   25.9231  -20.7476  -11.8306 C   0  0  2  0  0  0  0  0  0  0  0  0
   26.4904  -19.7905  -12.7490 N   0  0  0  0  0  0  0  0  0  0  0  0
   24.4659  -20.9608  -12.1005 C   0  0  0  0  0  0  0  0  0  0  0  0
   23.7519  -19.9772  -12.4185 O   0  0  0  0  0  0  0  0  0  0  0  0
   23.8504  -22.2384  -12.0115 N   0  0  0  0  0  0  0  0  0  0  0  0
   22.4973  -22.5308  -12.3988 C   0  0  1  0  0  0  0  0  0  0  0  0
   22.4109  -23.7426  -13.3053 C   0  0  0  0  0  0  0  0  0  0  0  0
   23.6088  -24.9655  -12.6831 S   0  0  0  0  0  0  0  0  0  0  0  0
   21.6750  -22.7898  -11.2073 C   0  0  0  0  0  0  0  0  0  0  0  0
   22.1356  -22.8611  -10.0425 O   0  0  0  0  0  0  0  0  0  0  0  0
   20.3065  -22.9673  -11.3730 O   0  0  0  0  0  0  0  0  0  0  0  0
  2  1  1  6
  2 13  1  0
  3  2  1  0
  4  3  1  0
  4 12  1  0
  5  6  1  0
  5  4  2  0
  6  7  1  0
  7 12  2  0
  7  8  1  0
  8  9  2  0
  9 10  1  0
 11 10  2  0
 12 11  1  0
 13 14  2  0
 16 15  1  0
 17 18  1  0
 17 16  1  0
 19 18  1  1
 19 21  1  0
 20 19  1  0
 20 13  1  0
 21 22  2  0
 23 21  1  0
 23 24  1  0
 24 27  1  0
 24 25  1  6
 26 25  1  0
 27 28  2  0
 27 29  1  0
M  END
$$$$
