WMC.pdb
     RDKit          3D

 29 30  0  0  1  0  0  0  0  0999 V2000
   27.2826  -22.2761  -12.8091 N   0  0  0  0  0  0  0  0  0  0  0  0
   26.2883  -21.6071  -12.0315 C   0  0  1  0  0  0  0  0  0  0  0  0
   26.7099  -20.3163  -11.4117 C   0  0  0  0  0  0  0  0  0  0  0  0
   27.7233  -20.4512  -10.3362 C   0  0  0  0  0  0  0  0  0  0  0  0
   29.0383  -20.8815  -10.4499 C   0  0  0  0  0  0  0  0  0  0  0  0
   29.6651  -20.8620   -9.2631 N   0  0  0  0  0  0  0  0  0  0  0  0
   28.7730  -20.4209   -8.3605 C   0  0  0  0  0  0  0  0  0  0  0  0
   28.8864  -20.2145   -7.0027 C   0  0  0  0  0  0  0  0  0  0  0  0
   27.8160  -19.7487   -6.2449 C   0  0  0  0  0  0  0  0  0  0  0  0
   26.6122  -19.4859   -6.8588 C   0  0  0  0  0  0  0  0  0  0  0  0
   26.5188  -19.6978   -8.2136 C   0  0  0  0  0  0  0  0  0  0  0  0
   27.5575  -20.1565   -8.9903 C   0  0  0  0  0  0  0  0  0  0  0  0
   25.1273  -21.2766  -12.9374 C   0  0  0  0  0  0  0  0  0  0  0  0
   25.2646  -20.4386  -13.8716 O   0  0  0  0  0  0  0  0  0  0  0  0
   24.0239  -25.6521  -14.2344 C   0  0  0  0  0  0  0  0  0  0  0  0
   22.9381  -25.0779  -15.5401 S   0  0  0  0  0  0  0  0  0  0  0  0
   22.6713  -23.2701  -15.4702 C   0  0  0  0  0  0  0  0  0  0  0  0
   22.1857  -22.9563  -14.0883 C   0  0  0  0  0  0  0  0  0  0  0  0
   22.7714  -21.6719  -13.5339 C   0  0  2  0  0  0  0  0  0  0  0  0
   23.9043  -21.9463  -12.6838 N   0  0  0  0  0  0  0  0  0  0  0  0
   21.7257  -20.8845  -12.8071 C   0  0  0  0  0  0  0  0  0  0  0  0
   21.5083  -21.1288  -11.5941 O   0  0  0  0  0  0  0  0  0  0  0  0
   20.9621  -19.8641  -13.4355 N   0  0  0  0  0  0  0  0  0  0  0  0
   20.0034  -19.0239  -12.7712 C   0  0  1  0  0  0  0  0  0  0  0  0
   20.1434  -17.5687  -13.1719 C   0  0  0  0  0  0  0  0  0  0  0  0
   19.4430  -17.4023  -14.8450 S   0  0  0  0  0  0  0  0  0  0  0  0
   18.6372  -19.4600  -13.0971 C   0  0  0  0  0  0  0  0  0  0  0  0
   18.3604  -20.2526  -14.0293 O   0  0  0  0  0  0  0  0  0  0  0  0
   17.5854  -18.9694  -12.3323 O   0  0  0  0  0  0  0  0  0  0  0  0
  2  1  1  6
  2 13  1  0
  3  2  1  0
  4  3  1  0
  4 12  1  0
  5  6  1  0
  5  4  2  0
  6  7  1  0
  7 12  2  0
  7  8  1  0
  8  9  2  0
  9 10  1  0
 11 10  2  0
 12 11  1  0
 13 14  2  0
 16 15  1  0
 17 18  1  0
 17 16  1  0
 19 18  1  1
 19 21  1  0
 20 19  1  0
 20 13  1  0
 21 22  2  0
 23 21  1  0
 23 24  1  0
 24 27  1  0
 24 25  1  6
 26 25  1  0
 27 28  2  0
 27 29  1  0
M  END
$$$$
