WMC.pdb
     RDKit          3D

 29 30  0  0  1  0  0  0  0  0999 V2000
   27.9024  -22.0725  -13.2009 N   0  0  0  0  0  0  0  0  0  0  0  0
   26.7504  -21.7864  -12.4058 C   0  0  1  0  0  0  0  0  0  0  0  0
   26.7983  -20.5122  -11.6299 C   0  0  0  0  0  0  0  0  0  0  0  0
   27.8574  -20.4624  -10.5918 C   0  0  0  0  0  0  0  0  0  0  0  0
   29.2242  -20.6416  -10.7558 C   0  0  0  0  0  0  0  0  0  0  0  0
   29.8792  -20.5121   -9.5914 N   0  0  0  0  0  0  0  0  0  0  0  0
   28.9542  -20.2477   -8.6535 C   0  0  0  0  0  0  0  0  0  0  0  0
   29.0765  -20.0301   -7.2982 C   0  0  0  0  0  0  0  0  0  0  0  0
   27.9666  -19.7738   -6.4985 C   0  0  0  0  0  0  0  0  0  0  0  0
   26.7136  -19.7353   -7.0674 C   0  0  0  0  0  0  0  0  0  0  0  0
   26.6121  -19.9545   -8.4204 C   0  0  0  0  0  0  0  0  0  0  0  0
   27.6888  -20.2097   -9.2378 C   0  0  0  0  0  0  0  0  0  0  0  0
   25.5607  -21.6706  -13.3272 C   0  0  0  0  0  0  0  0  0  0  0  0
   25.5240  -20.7718  -14.2130 O   0  0  0  0  0  0  0  0  0  0  0  0
   23.4381  -26.7437  -15.7874 C   0  0  0  0  0  0  0  0  0  0  0  0
   22.0190  -25.7683  -16.2857 S   0  0  0  0  0  0  0  0  0  0  0  0
   22.1353  -24.0368  -15.7091 C   0  0  0  0  0  0  0  0  0  0  0  0
   23.2300  -23.9923  -14.6875 C   0  0  0  0  0  0  0  0  0  0  0  0
   23.4150  -22.6152  -14.0795 C   0  0  2  0  0  0  0  0  0  0  0  0
   24.5134  -22.6077  -13.1441 N   0  0  0  0  0  0  0  0  0  0  0  0
   22.1481  -22.1483  -13.4326 C   0  0  0  0  0  0  0  0  0  0  0  0
   21.8387  -22.5943  -12.2996 O   0  0  0  0  0  0  0  0  0  0  0  0
   21.2731  -21.2144  -14.0501 N   0  0  0  0  0  0  0  0  0  0  0  0
   20.0733  -20.6908  -13.4561 C   0  0  1  0  0  0  0  0  0  0  0  0
   19.9498  -19.1917  -13.6428 C   0  0  0  0  0  0  0  0  0  0  0  0
   21.1773  -18.4107  -12.5470 S   0  0  0  0  0  0  0  0  0  0  0  0
   18.8918  -21.3269  -14.0581 C   0  0  0  0  0  0  0  0  0  0  0  0
   18.9208  -21.9865  -15.1248 O   0  0  0  0  0  0  0  0  0  0  0  0
   17.6676  -21.1939  -13.4136 O   0  0  0  0  0  0  0  0  0  0  0  0
  2  1  1  6
  2 13  1  0
  3  2  1  0
  4  3  1  0
  4 12  1  0
  5  6  1  0
  5  4  2  0
  6  7  1  0
  7 12  2  0
  7  8  1  0
  8  9  2  0
  9 10  1  0
 11 10  2  0
 12 11  1  0
 13 14  2  0
 16 15  1  0
 17 18  1  0
 17 16  1  0
 19 18  1  1
 19 21  1  0
 20 19  1  0
 20 13  1  0
 21 22  2  0
 23 21  1  0
 23 24  1  0
 24 27  1  0
 24 25  1  6
 26 25  1  0
 27 28  2  0
 27 29  1  0
M  END
$$$$
