WMC.pdb
     RDKit          3D

 29 30  0  0  1  0  0  0  0  0999 V2000
   26.5163  -21.4186  -13.0821 N   0  0  0  0  0  0  0  0  0  0  0  0
   26.0914  -20.4016  -12.1732 C   0  0  1  0  0  0  0  0  0  0  0  0
   24.6848  -19.9305  -12.3388 C   0  0  0  0  0  0  0  0  0  0  0  0
   24.4145  -19.2371  -13.6226 C   0  0  0  0  0  0  0  0  0  0  0  0
   23.2851  -19.3324  -14.4244 C   0  0  0  0  0  0  0  0  0  0  0  0
   23.3857  -18.5476  -15.5087 N   0  0  0  0  0  0  0  0  0  0  0  0
   24.5769  -17.9309  -15.4319 C   0  0  0  0  0  0  0  0  0  0  0  0
   25.1840  -17.0273  -16.2771 C   0  0  0  0  0  0  0  0  0  0  0  0
   26.4462  -16.5088  -16.0037 C   0  0  0  0  0  0  0  0  0  0  0  0
   27.1105  -16.9029  -14.8641 C   0  0  0  0  0  0  0  0  0  0  0  0
   26.4887  -17.8044  -14.0338 C   0  0  0  0  0  0  0  0  0  0  0  0
   25.2424  -18.3347  -14.2752 C   0  0  0  0  0  0  0  0  0  0  0  0
   26.1848  -20.9549  -10.7721 C   0  0  0  0  0  0  0  0  0  0  0  0
   26.1132  -22.1992  -10.5707 O   0  0  0  0  0  0  0  0  0  0  0  0
   28.6329  -19.0450   -3.5065 C   0  0  0  0  0  0  0  0  0  0  0  0
   28.2055  -18.5823   -5.1849 S   0  0  0  0  0  0  0  0  0  0  0  0
   27.3757  -19.9409   -6.0848 C   0  0  0  0  0  0  0  0  0  0  0  0
   27.2152  -19.4872   -7.5033 C   0  0  0  0  0  0  0  0  0  0  0  0
   26.5023  -20.5056   -8.3722 C   0  0  2  0  0  0  0  0  0  0  0  0
   26.3540  -20.0183   -9.7221 N   0  0  0  0  0  0  0  0  0  0  0  0
   25.1773  -20.8717   -7.7788 C   0  0  0  0  0  0  0  0  0  0  0  0
   24.1523  -20.2365   -8.1310 O   0  0  0  0  0  0  0  0  0  0  0  0
   25.0280  -21.9155   -6.8264 N   0  0  0  0  0  0  0  0  0  0  0  0
   23.7850  -22.3064   -6.2193 C   0  0  1  0  0  0  0  0  0  0  0  0
   23.9862  -23.3024   -5.0944 C   0  0  0  0  0  0  0  0  0  0  0  0
   22.4781  -23.2717   -4.0734 S   0  0  0  0  0  0  0  0  0  0  0  0
   23.0975  -21.1277   -5.6707 C   0  0  0  0  0  0  0  0  0  0  0  0
   23.6910  -20.1463   -5.1623 O   0  0  0  0  0  0  0  0  0  0  0  0
   21.7087  -21.0914   -5.7141 O   0  0  0  0  0  0  0  0  0  0  0  0
  2  1  1  6
  2 13  1  0
  3  2  1  0
  4  3  1  0
  4 12  1  0
  5  6  1  0
  5  4  2  0
  6  7  1  0
  7 12  2  0
  7  8  1  0
  8  9  2  0
  9 10  1  0
 11 10  2  0
 12 11  1  0
 13 14  2  0
 16 15  1  0
 17 18  1  0
 17 16  1  0
 19 18  1  1
 19 21  1  0
 20 19  1  0
 20 13  1  0
 21 22  2  0
 23 21  1  0
 23 24  1  0
 24 27  1  0
 24 25  1  1
 26 25  1  0
 27 28  2  0
 27 29  1  0
M  END
$$$$
