WMC.pdb
     RDKit          3D

 29 30  0  0  1  0  0  0  0  0999 V2000
   27.5345  -20.5919  -16.4475 N   0  0  0  0  0  0  0  0  0  0  0  0
   27.3079  -19.8062  -15.2760 C   0  0  1  0  0  0  0  0  0  0  0  0
   26.5242  -18.5521  -15.4780 C   0  0  0  0  0  0  0  0  0  0  0  0
   27.1197  -17.6035  -16.4513 C   0  0  0  0  0  0  0  0  0  0  0  0
   26.4633  -16.8061  -17.3790 C   0  0  0  0  0  0  0  0  0  0  0  0
   27.3284  -16.0612  -18.0851 N   0  0  0  0  0  0  0  0  0  0  0  0
   28.5573  -16.3597  -17.6314 C   0  0  0  0  0  0  0  0  0  0  0  0
   29.7983  -15.8912  -18.0053 C   0  0  0  0  0  0  0  0  0  0  0  0
   30.9632  -16.3475  -17.3956 C   0  0  0  0  0  0  0  0  0  0  0  0
   30.8822  -17.2891  -16.3946 C   0  0  0  0  0  0  0  0  0  0  0  0
   29.6359  -17.7439  -16.0356 C   0  0  0  0  0  0  0  0  0  0  0  0
   28.4664  -17.3129  -16.6179 C   0  0  0  0  0  0  0  0  0  0  0  0
   26.5180  -20.6399  -14.2969 C   0  0  0  0  0  0  0  0  0  0  0  0
   25.8987  -21.6683  -14.6876 O   0  0  0  0  0  0  0  0  0  0  0  0
   27.3789  -20.2204   -7.8418 C   0  0  0  0  0  0  0  0  0  0  0  0
   25.6095  -20.4949   -7.9289 S   0  0  0  0  0  0  0  0  0  0  0  0
   25.0883  -21.1201   -9.5664 C   0  0  0  0  0  0  0  0  0  0  0  0
   25.9354  -20.4233  -10.5866 C   0  0  0  0  0  0  0  0  0  0  0  0
   25.6619  -20.8936  -12.0023 C   0  0  2  0  0  0  0  0  0  0  0  0
   26.5131  -20.2109  -12.9461 N   0  0  0  0  0  0  0  0  0  0  0  0
   24.2160  -20.7160  -12.3484 C   0  0  0  0  0  0  0  0  0  0  0  0
   23.8118  -19.5895  -12.7303 O   0  0  0  0  0  0  0  0  0  0  0  0
   23.2734  -21.7758  -12.2626 N   0  0  0  0  0  0  0  0  0  0  0  0
   21.8878  -21.6791  -12.6333 C   0  0  1  0  0  0  0  0  0  0  0  0
   21.3230  -23.0104  -13.0874 C   0  0  0  0  0  0  0  0  0  0  0  0
   19.5611  -22.7457  -13.4657 S   0  0  0  0  0  0  0  0  0  0  0  0
   21.0904  -21.2083  -11.4907 C   0  0  0  0  0  0  0  0  0  0  0  0
   21.2899  -21.5657  -10.3048 O   0  0  0  0  0  0  0  0  0  0  0  0
   20.0529  -20.3150  -11.7306 O   0  0  0  0  0  0  0  0  0  0  0  0
  2  1  1  6
  2 13  1  0
  3  2  1  0
  4  3  1  0
  4 12  1  0
  5  6  1  0
  5  4  2  0
  6  7  1  0
  7 12  2  0
  7  8  1  0
  8  9  2  0
  9 10  1  0
 11 10  2  0
 12 11  1  0
 13 14  2  0
 16 15  1  0
 17 18  1  0
 17 16  1  0
 19 18  1  1
 19 21  1  0
 20 19  1  0
 20 13  1  0
 21 22  2  0
 23 21  1  0
 23 24  1  0
 24 27  1  0
 24 25  1  1
 26 25  1  0
 27 28  2  0
 27 29  1  0
M  END
$$$$
