WMC.pdb
     RDKit          3D

 29 30  0  0  1  0  0  0  0  0999 V2000
   26.1214  -21.5780  -13.0628 N   0  0  0  0  0  0  0  0  0  0  0  0
   25.9996  -20.4735  -12.1648 C   0  0  1  0  0  0  0  0  0  0  0  0
   24.7161  -19.7152  -12.2401 C   0  0  0  0  0  0  0  0  0  0  0  0
   24.4978  -18.9991  -13.5212 C   0  0  0  0  0  0  0  0  0  0  0  0
   23.3264  -18.9077  -14.2607 C   0  0  0  0  0  0  0  0  0  0  0  0
   23.4994  -18.1629  -15.3639 N   0  0  0  0  0  0  0  0  0  0  0  0
   24.7808  -17.7586  -15.3617 C   0  0  0  0  0  0  0  0  0  0  0  0
   25.4856  -16.9812  -16.2551 C   0  0  0  0  0  0  0  0  0  0  0  0
   26.8309  -16.6837  -16.0584 C   0  0  0  0  0  0  0  0  0  0  0  0
   27.4799  -17.1740  -14.9477 C   0  0  0  0  0  0  0  0  0  0  0  0
   26.7600  -17.9471  -14.0684 C   0  0  0  0  0  0  0  0  0  0  0  0
   25.4303  -18.2586  -14.2339 C   0  0  0  0  0  0  0  0  0  0  0  0
   26.0907  -21.0025  -10.7543 C   0  0  0  0  0  0  0  0  0  0  0  0
   25.8737  -22.2228  -10.5146 O   0  0  0  0  0  0  0  0  0  0  0  0
   28.9055  -19.1517   -3.5928 C   0  0  0  0  0  0  0  0  0  0  0  0
   28.5388  -18.7154   -5.2924 S   0  0  0  0  0  0  0  0  0  0  0  0
   27.5007  -19.9737   -6.1189 C   0  0  0  0  0  0  0  0  0  0  0  0
   27.3775  -19.5603   -7.5535 C   0  0  0  0  0  0  0  0  0  0  0  0
   26.5740  -20.5423   -8.3843 C   0  0  2  0  0  0  0  0  0  0  0  0
   26.4266  -20.0714   -9.7400 N   0  0  0  0  0  0  0  0  0  0  0  0
   25.2418  -20.8033   -7.7526 C   0  0  0  0  0  0  0  0  0  0  0  0
   24.2912  -20.0141   -7.9803 O   0  0  0  0  0  0  0  0  0  0  0  0
   25.0044  -21.9144   -6.8994 N   0  0  0  0  0  0  0  0  0  0  0  0
   23.7459  -22.2218   -6.2764 C   0  0  1  0  0  0  0  0  0  0  0  0
   23.7175  -23.6263   -5.7070 C   0  0  0  0  0  0  0  0  0  0  0  0
   25.0307  -23.7226   -4.4485 S   0  0  0  0  0  0  0  0  0  0  0  0
   23.4800  -21.2773   -5.1809 C   0  0  0  0  0  0  0  0  0  0  0  0
   24.3119  -20.4339   -4.7681 O   0  0  0  0  0  0  0  0  0  0  0  0
   22.2363  -21.3151   -4.5613 O   0  0  0  0  0  0  0  0  0  0  0  0
  2  1  1  6
  2 13  1  0
  3  2  1  0
  4  3  1  0
  4 12  1  0
  5  6  1  0
  5  4  2  0
  6  7  1  0
  7 12  2  0
  7  8  1  0
  8  9  2  0
  9 10  1  0
 11 10  2  0
 12 11  1  0
 13 14  2  0
 16 15  1  0
 17 18  1  0
 17 16  1  0
 19 18  1  1
 19 21  1  0
 20 19  1  0
 20 13  1  0
 21 22  2  0
 23 21  1  0
 23 24  1  0
 24 27  1  0
 24 25  1  1
 26 25  1  0
 27 28  2  0
 27 29  1  0
M  END
$$$$
