WMC.pdb
     RDKit          3D

 29 30  0  0  1  0  0  0  0  0999 V2000
   26.0979  -21.7227  -13.0320 N   0  0  0  0  0  0  0  0  0  0  0  0
   25.9242  -20.5954  -12.1718 C   0  0  1  0  0  0  0  0  0  0  0  0
   24.6428  -19.8472  -12.3343 C   0  0  0  0  0  0  0  0  0  0  0  0
   24.4747  -19.1931  -13.6556 C   0  0  0  0  0  0  0  0  0  0  0  0
   23.4310  -19.3454  -14.5582 C   0  0  0  0  0  0  0  0  0  0  0  0
   23.6097  -18.5826  -15.6481 N   0  0  0  0  0  0  0  0  0  0  0  0
   24.7677  -17.9237  -15.4746 C   0  0  0  0  0  0  0  0  0  0  0  0
   25.4236  -17.0193  -16.2815 C   0  0  0  0  0  0  0  0  0  0  0  0
   26.6366  -16.4515  -15.9031 C   0  0  0  0  0  0  0  0  0  0  0  0
   27.2009  -16.7963  -14.6957 C   0  0  0  0  0  0  0  0  0  0  0  0
   26.5316  -17.6995  -13.9050 C   0  0  0  0  0  0  0  0  0  0  0  0
   25.3319  -18.2778  -14.2498 C   0  0  0  0  0  0  0  0  0  0  0  0
   25.9439  -21.0860  -10.7447 C   0  0  0  0  0  0  0  0  0  0  0  0
   25.5214  -22.2412  -10.4605 O   0  0  0  0  0  0  0  0  0  0  0  0
   28.7524  -19.4248   -3.5349 C   0  0  0  0  0  0  0  0  0  0  0  0
   28.4859  -18.9642   -5.2467 S   0  0  0  0  0  0  0  0  0  0  0  0
   27.3150  -20.0883   -6.0891 C   0  0  0  0  0  0  0  0  0  0  0  0
   27.3290  -19.7205   -7.5412 C   0  0  0  0  0  0  0  0  0  0  0  0
   26.4074  -20.5863   -8.3787 C   0  0  2  0  0  0  0  0  0  0  0  0
   26.4528  -20.1954   -9.7667 N   0  0  0  0  0  0  0  0  0  0  0  0
   25.0087  -20.5382   -7.8468 C   0  0  0  0  0  0  0  0  0  0  0  0
   24.1812  -19.7513   -8.3706 O   0  0  0  0  0  0  0  0  0  0  0  0
   24.5731  -21.3512   -6.7659 N   0  0  0  0  0  0  0  0  0  0  0  0
   23.2008  -21.6492   -6.4589 C   0  0  1  0  0  0  0  0  0  0  0  0
   22.8349  -23.0792   -6.8041 C   0  0  0  0  0  0  0  0  0  0  0  0
   21.0848  -23.3094   -6.3551 S   0  0  0  0  0  0  0  0  0  0  0  0
   22.9476  -21.4445   -5.0247 C   0  0  0  0  0  0  0  0  0  0  0  0
   23.7981  -21.6578   -4.1276 O   0  0  0  0  0  0  0  0  0  0  0  0
   21.6947  -20.9883   -4.6320 O   0  0  0  0  0  0  0  0  0  0  0  0
  2  1  1  6
  2 13  1  0
  3  2  1  0
  4  3  1  0
  4 12  1  0
  5  6  1  0
  5  4  2  0
  6  7  1  0
  7 12  2  0
  7  8  1  0
  8  9  2  0
  9 10  1  0
 11 10  2  0
 12 11  1  0
 13 14  2  0
 16 15  1  0
 17 18  1  0
 17 16  1  0
 19 18  1  1
 19 21  1  0
 20 19  1  0
 20 13  1  0
 21 22  2  0
 23 21  1  0
 23 24  1  0
 24 27  1  0
 24 25  1  1
 26 25  1  0
 27 28  2  0
 27 29  1  0
M  END
$$$$
