WMC.pdb
     RDKit          3D

 29 30  0  0  1  0  0  0  0  0999 V2000
   28.2335  -21.4123  -11.4443 N   0  0  0  0  0  0  0  0  0  0  0  0
   27.0295  -21.4188  -10.6753 C   0  0  1  0  0  0  0  0  0  0  0  0
   26.9718  -20.4365   -9.5529 C   0  0  0  0  0  0  0  0  0  0  0  0
   28.0008  -20.6392   -8.5032 C   0  0  0  0  0  0  0  0  0  0  0  0
   29.2215  -21.2905   -8.6173 C   0  0  0  0  0  0  0  0  0  0  0  0
   29.9000  -21.2672   -7.4593 N   0  0  0  0  0  0  0  0  0  0  0  0
   29.1361  -20.6035   -6.5755 C   0  0  0  0  0  0  0  0  0  0  0  0
   29.3472  -20.2957   -5.2489 C   0  0  0  0  0  0  0  0  0  0  0  0
   28.4045  -19.5915   -4.5056 C   0  0  0  0  0  0  0  0  0  0  0  0
   27.2310  -19.1896   -5.1025 C   0  0  0  0  0  0  0  0  0  0  0  0
   27.0389  -19.5057   -6.4262 C   0  0  0  0  0  0  0  0  0  0  0  0
   27.9505  -20.1995   -7.1880 C   0  0  0  0  0  0  0  0  0  0  0  0
   25.8835  -21.0720  -11.5940 C   0  0  0  0  0  0  0  0  0  0  0  0
   25.8448  -19.9500  -12.1714 O   0  0  0  0  0  0  0  0  0  0  0  0
   26.6775  -23.3073  -15.6035 C   0  0  0  0  0  0  0  0  0  0  0  0
   25.0830  -24.1160  -15.4736 S   0  0  0  0  0  0  0  0  0  0  0  0
   23.7555  -22.9512  -14.9990 C   0  0  0  0  0  0  0  0  0  0  0  0
   23.5511  -23.1044  -13.5230 C   0  0  0  0  0  0  0  0  0  0  0  0
   23.8475  -21.8332  -12.7505 C   0  0  2  0  0  0  0  0  0  0  0  0
   24.8785  -22.0563  -11.7663 N   0  0  0  0  0  0  0  0  0  0  0  0
   22.6011  -21.2958  -12.1186 C   0  0  0  0  0  0  0  0  0  0  0  0
   22.2490  -21.7297  -10.9935 O   0  0  0  0  0  0  0  0  0  0  0  0
   21.7924  -20.3076  -12.7420 N   0  0  0  0  0  0  0  0  0  0  0  0
   20.5321  -19.8348  -12.2375 C   0  0  1  0  0  0  0  0  0  0  0  0
   20.0737  -18.5709  -12.9374 C   0  0  0  0  0  0  0  0  0  0  0  0
   21.2955  -17.2739  -12.5596 S   0  0  0  0  0  0  0  0  0  0  0  0
   19.4962  -20.8624  -12.4214 C   0  0  0  0  0  0  0  0  0  0  0  0
   19.5479  -21.7575  -13.2989 O   0  0  0  0  0  0  0  0  0  0  0  0
   18.3919  -20.8478  -11.5775 O   0  0  0  0  0  0  0  0  0  0  0  0
  2  1  1  6
  2 13  1  0
  3  2  1  0
  4  3  1  0
  4 12  1  0
  5  6  1  0
  5  4  2  0
  6  7  1  0
  7 12  2  0
  7  8  1  0
  8  9  2  0
  9 10  1  0
 11 10  2  0
 12 11  1  0
 13 14  2  0
 16 15  1  0
 17 18  1  0
 17 16  1  0
 19 18  1  1
 19 21  1  0
 20 19  1  0
 20 13  1  0
 21 22  2  0
 23 21  1  0
 23 24  1  0
 24 27  1  0
 24 25  1  6
 26 25  1  0
 27 28  2  0
 27 29  1  0
M  END
$$$$
