ISE.pdb
     RDKit          3D

 24 23  0  0  1  0  0  0  0  0999 V2000
   15.1338  -20.3839   15.4449 C   0  0  0  0  0  0  0  0  0  0  0  0
   13.6815  -19.8824   15.4880 C   0  0  0  0  0  0  0  0  0  0  0  0
   13.4203  -19.1356   16.7506 C   0  0  2  0  0  0  0  0  0  0  0  0
   13.8157  -19.9096   17.9887 C   0  0  0  0  0  0  0  0  0  0  0  0
   12.0443  -18.6007   16.9230 C   0  0  2  0  0  0  0  0  0  0  0  0
   11.6497  -17.9233   15.7001 N   0  0  0  0  0  0  0  0  0  0  0  0
   11.9328  -17.7039   18.0977 C   0  0  0  0  0  0  0  0  0  0  0  0
   12.6931  -16.7318   18.3243 O   0  0  0  0  0  0  0  0  0  0  0  0
    9.0407  -18.4372   21.2368 O   0  0  0  0  0  0  0  0  0  0  0  0
    9.4494  -17.1486   20.9165 C   0  0  0  0  0  0  0  0  0  0  0  0
   10.8267  -17.1243   20.2947 C   0  0  2  0  0  0  0  0  0  0  0  0
   10.9028  -17.9056   19.0872 N   0  0  0  0  0  0  0  0  0  0  0  0
   11.8412  -17.5124   21.2936 C   0  0  0  0  0  0  0  0  0  0  0  0
   12.7310  -18.3460   21.0050 O   0  0  0  0  0  0  0  0  0  0  0  0
   11.8027  -16.9344   22.5859 N   0  0  0  0  0  0  0  0  0  0  0  0
   12.7809  -17.2814   23.6339 C   0  0  1  0  0  0  0  0  0  0  0  0
   13.9700  -16.4258   23.3807 C   0  0  0  0  0  0  0  0  0  0  0  0
   15.2729  -17.0680   23.1179 C   0  0  0  0  0  0  0  0  0  0  0  0
   16.5019  -16.2969   23.1492 C   0  0  0  0  0  0  0  0  0  0  0  0
   17.3755  -16.4025   23.9936 O   0  0  0  0  0  0  0  0  0  0  0  0
   12.2235  -17.2016   24.9527 C   0  0  0  0  0  0  0  0  0  0  0  0
   12.8099  -17.9333   26.0010 O   0  0  0  0  0  0  0  0  0  0  0  0
   16.7270  -15.3379   22.1263 O   0  0  0  0  0  0  0  0  0  0  0  0
   11.2096  -16.5032   25.2777 O   0  0  0  0  0  0  0  0  0  0  0  0
  1  2  1  0
  3  2  1  0
  3  5  1  0
  3  4  1  1
  5  6  1  6
  7  5  1  0
  7 12  1  0
  8  7  2  0
 10  9  1  0
 11 10  1  1
 11 12  1  0
 11 13  1  0
 13 14  2  0
 13 15  1  0
 15 16  1  0
 16 17  1  1
 16 21  1  0
 17 18  1  0
 18 19  1  0
 19 23  1  0
 19 20  2  0
 21 22  1  0
 24 21  2  0
M  END
$$$$
