ISE.pdb
     RDKit          3D

 24 23  0  0  1  0  0  0  0  0999 V2000
    6.8853  -11.4855   27.2182 C   0  0  0  0  0  0  0  0  0  0  0  0
    6.1505  -12.6095   26.4702 C   0  0  0  0  0  0  0  0  0  0  0  0
    7.1231  -13.5276   25.8136 C   0  0  2  0  0  0  0  0  0  0  0  0
    8.0812  -12.8111   24.8878 C   0  0  0  0  0  0  0  0  0  0  0  0
    6.5440  -14.7017   25.1100 C   0  0  2  0  0  0  0  0  0  0  0  0
    5.6233  -15.3771   26.0078 N   0  0  0  0  0  0  0  0  0  0  0  0
    7.5871  -15.6276   24.6087 C   0  0  0  0  0  0  0  0  0  0  0  0
    8.1980  -16.4616   25.3197 O   0  0  0  0  0  0  0  0  0  0  0  0
    9.3123  -15.1324   20.7197 O   0  0  0  0  0  0  0  0  0  0  0  0
    9.1199  -16.4221   21.1990 C   0  0  0  0  0  0  0  0  0  0  0  0
    9.0265  -16.4628   22.7070 C   0  0  2  0  0  0  0  0  0  0  0  0
    7.9751  -15.6225   23.2194 N   0  0  0  0  0  0  0  0  0  0  0  0
   10.3420  -16.1642   23.3050 C   0  0  0  0  0  0  0  0  0  0  0  0
   10.7276  -14.9790   23.4334 O   0  0  0  0  0  0  0  0  0  0  0  0
   11.1697  -17.2301   23.7346 N   0  0  0  0  0  0  0  0  0  0  0  0
   12.4983  -17.0040   24.3341 C   0  0  1  0  0  0  0  0  0  0  0  0
   12.6572  -18.0499   25.3786 C   0  0  0  0  0  0  0  0  0  0  0  0
   11.7085  -18.0849   26.5090 C   0  0  0  0  0  0  0  0  0  0  0  0
   11.8854  -19.0259   27.5996 C   0  0  0  0  0  0  0  0  0  0  0  0
   11.3339  -20.1100   27.6878 O   0  0  0  0  0  0  0  0  0  0  0  0
   13.5400  -16.9397   23.3509 C   0  0  0  0  0  0  0  0  0  0  0  0
   14.7800  -16.3678   23.6878 O   0  0  0  0  0  0  0  0  0  0  0  0
   12.7652  -18.6785   28.6588 O   0  0  0  0  0  0  0  0  0  0  0  0
   13.4459  -17.3690   22.1559 O   0  0  0  0  0  0  0  0  0  0  0  0
  1  2  1  0
  3  2  1  0
  3  5  1  0
  3  4  1  6
  5  6  1  1
  7  5  1  0
  7 12  1  0
  8  7  2  0
 10  9  1  0
 11 10  1  6
 11 12  1  0
 11 13  1  0
 13 14  2  0
 13 15  1  0
 15 16  1  0
 16 17  1  1
 16 21  1  0
 17 18  1  0
 18 19  1  0
 19 23  1  0
 19 20  2  0
 21 22  1  0
 24 21  2  0
M  END
$$$$
