ISE.pdb
     RDKit          3D

 24 23  0  0  1  0  0  0  0  0999 V2000
    6.8115  -11.7421   27.6368 C   0  0  0  0  0  0  0  0  0  0  0  0
    6.0407  -12.7736   26.7972 C   0  0  0  0  0  0  0  0  0  0  0  0
    6.9783  -13.5865   25.9726 C   0  0  2  0  0  0  0  0  0  0  0  0
    7.8684  -12.7448   25.0851 C   0  0  0  0  0  0  0  0  0  0  0  0
    6.3667  -14.6748   25.1660 C   0  0  2  0  0  0  0  0  0  0  0  0
    5.4616  -15.4321   26.0130 N   0  0  0  0  0  0  0  0  0  0  0  0
    7.3850  -15.5527   24.5423 C   0  0  0  0  0  0  0  0  0  0  0  0
    8.0520  -16.4175   25.1600 O   0  0  0  0  0  0  0  0  0  0  0  0
    8.8911  -14.8663   20.5579 O   0  0  0  0  0  0  0  0  0  0  0  0
    8.6457  -16.1642   20.9883 C   0  0  0  0  0  0  0  0  0  0  0  0
    8.6747  -16.2814   22.4949 C   0  0  2  0  0  0  0  0  0  0  0  0
    7.6792  -15.4593   23.1332 N   0  0  0  0  0  0  0  0  0  0  0  0
   10.0381  -16.0251   22.9976 C   0  0  0  0  0  0  0  0  0  0  0  0
   10.5083  -14.8637   22.9960 O   0  0  0  0  0  0  0  0  0  0  0  0
   10.8153  -17.1045   23.4838 N   0  0  0  0  0  0  0  0  0  0  0  0
   12.2131  -16.9344   23.9229 C   0  0  1  0  0  0  0  0  0  0  0  0
   12.4647  -18.0172   24.9099 C   0  0  0  0  0  0  0  0  0  0  0  0
   11.9787  -17.8534   26.2942 C   0  0  0  0  0  0  0  0  0  0  0  0
   11.6960  -19.0093   27.1248 C   0  0  0  0  0  0  0  0  0  0  0  0
   12.3907  -19.3959   28.0496 O   0  0  0  0  0  0  0  0  0  0  0  0
   13.1297  -16.8671   22.8222 C   0  0  0  0  0  0  0  0  0  0  0  0
   14.3627  -16.2100   22.9831 O   0  0  0  0  0  0  0  0  0  0  0  0
   10.5237  -19.7652   26.8586 O   0  0  0  0  0  0  0  0  0  0  0  0
   12.9259  -17.3663   21.6687 O   0  0  0  0  0  0  0  0  0  0  0  0
  1  2  1  0
  3  2  1  0
  3  5  1  0
  3  4  1  6
  5  6  1  1
  7  5  1  0
  7 12  1  0
  8  7  2  0
 10  9  1  0
 11 10  1  6
 11 12  1  0
 11 13  1  0
 13 14  2  0
 13 15  1  0
 15 16  1  0
 16 17  1  1
 16 21  1  0
 17 18  1  0
 18 19  1  0
 19 23  1  0
 19 20  2  0
 21 22  1  0
 24 21  2  0
M  END
$$$$
