ISE.pdb
     RDKit          3D

 24 23  0  0  1  0  0  0  0  0999 V2000
    7.0211  -11.4724   27.4679 C   0  0  0  0  0  0  0  0  0  0  0  0
    6.1626  -12.5111   26.7283 C   0  0  0  0  0  0  0  0  0  0  0  0
    7.0157  -13.3909   25.8808 C   0  0  2  0  0  0  0  0  0  0  0  0
    7.9020  -12.6176   24.9296 C   0  0  0  0  0  0  0  0  0  0  0  0
    6.3105  -14.4648   25.1335 C   0  0  2  0  0  0  0  0  0  0  0  0
    5.4664  -15.2009   26.0585 N   0  0  0  0  0  0  0  0  0  0  0  0
    7.2494  -15.3660   24.4244 C   0  0  0  0  0  0  0  0  0  0  0  0
    7.9412  -16.2523   24.9815 O   0  0  0  0  0  0  0  0  0  0  0  0
    8.5783  -14.5588   20.4139 O   0  0  0  0  0  0  0  0  0  0  0  0
    8.3199  -15.8718   20.7875 C   0  0  0  0  0  0  0  0  0  0  0  0
    8.3975  -16.0652   22.2845 C   0  0  2  0  0  0  0  0  0  0  0  0
    7.4288  -15.2720   22.9962 N   0  0  0  0  0  0  0  0  0  0  0  0
    9.7784  -15.8412   22.7541 C   0  0  0  0  0  0  0  0  0  0  0  0
   10.2309  -14.6781   22.8660 O   0  0  0  0  0  0  0  0  0  0  0  0
   10.5925  -16.9536   23.0788 N   0  0  0  0  0  0  0  0  0  0  0  0
   11.9748  -16.8017   23.5707 C   0  0  1  0  0  0  0  0  0  0  0  0
   12.1318  -17.8016   24.6596 C   0  0  0  0  0  0  0  0  0  0  0  0
   13.4629  -17.9976   25.2671 C   0  0  0  0  0  0  0  0  0  0  0  0
   13.6731  -19.0074   26.2880 C   0  0  0  0  0  0  0  0  0  0  0  0
   12.8006  -19.7093   26.7712 O   0  0  0  0  0  0  0  0  0  0  0  0
   12.9432  -16.8700   22.5154 C   0  0  0  0  0  0  0  0  0  0  0  0
   14.2054  -16.2746   22.6902 O   0  0  0  0  0  0  0  0  0  0  0  0
   14.9900  -19.2119   26.7784 O   0  0  0  0  0  0  0  0  0  0  0  0
   12.7626  -17.4420   21.3923 O   0  0  0  0  0  0  0  0  0  0  0  0
  1  2  1  0
  3  2  1  0
  3  5  1  0
  3  4  1  6
  5  6  1  1
  7  5  1  0
  7 12  1  0
  8  7  2  0
 10  9  1  0
 11 10  1  6
 11 12  1  0
 11 13  1  0
 13 14  2  0
 13 15  1  0
 15 16  1  0
 16 17  1  1
 16 21  1  0
 17 18  1  0
 18 19  1  0
 19 23  1  0
 19 20  2  0
 21 22  1  0
 24 21  2  0
M  END
$$$$
