ISE.pdb
     RDKit          3D

 24 23  0  0  1  0  0  0  0  0999 V2000
    8.9636  -15.3726   15.0861 C   0  0  0  0  0  0  0  0  0  0  0  0
    8.2122  -14.4073   16.0169 C   0  0  0  0  0  0  0  0  0  0  0  0
    8.7797  -14.4560   17.3937 C   0  0  2  0  0  0  0  0  0  0  0  0
    8.9145  -15.8643   17.9290 C   0  0  0  0  0  0  0  0  0  0  0  0
    8.1072  -13.6053   18.4102 C   0  0  2  0  0  0  0  0  0  0  0  0
    8.0434  -12.2427   17.9109 N   0  0  0  0  0  0  0  0  0  0  0  0
    8.7807  -13.6665   19.7291 C   0  0  0  0  0  0  0  0  0  0  0  0
    9.9090  -13.1756   19.9743 O   0  0  0  0  0  0  0  0  0  0  0  0
    7.0976  -15.9307   23.0032 O   0  0  0  0  0  0  0  0  0  0  0  0
    7.8583  -14.7932   23.2429 C   0  0  0  0  0  0  0  0  0  0  0  0
    8.8200  -14.5009   22.1141 C   0  0  2  0  0  0  0  0  0  0  0  0
    8.1523  -14.3203   20.8509 N   0  0  0  0  0  0  0  0  0  0  0  0
    9.8724  -15.5341   22.0639 C   0  0  0  0  0  0  0  0  0  0  0  0
   10.1486  -16.1081   20.9849 O   0  0  0  0  0  0  0  0  0  0  0  0
   10.5711  -15.8744   23.2478 N   0  0  0  0  0  0  0  0  0  0  0  0
   11.8255  -16.6502   23.2272 C   0  0  1  0  0  0  0  0  0  0  0  0
   12.7395  -15.9225   22.3080 C   0  0  0  0  0  0  0  0  0  0  0  0
   14.1610  -16.3163   22.2495 C   0  0  0  0  0  0  0  0  0  0  0  0
   15.0876  -15.6288   21.3692 C   0  0  0  0  0  0  0  0  0  0  0  0
   16.2825  -15.8595   21.2897 O   0  0  0  0  0  0  0  0  0  0  0  0
   12.3351  -16.9041   24.5432 C   0  0  0  0  0  0  0  0  0  0  0  0
   11.9464  -16.0758   25.6114 O   0  0  0  0  0  0  0  0  0  0  0  0
   14.5864  -14.6029   20.5249 O   0  0  0  0  0  0  0  0  0  0  0  0
   13.1361  -17.8455   24.8488 O   0  0  0  0  0  0  0  0  0  0  0  0
  1  2  1  0
  3  2  1  0
  3  5  1  0
  3  4  1  1
  5  6  1  6
  7  5  1  0
  7 12  1  0
  8  7  2  0
 10  9  1  0
 11 10  1  1
 11 12  1  0
 11 13  1  0
 13 14  2  0
 13 15  1  0
 15 16  1  0
 16 17  1  6
 16 21  1  0
 17 18  1  0
 18 19  1  0
 19 23  1  0
 19 20  2  0
 21 22  1  0
 24 21  2  0
M  END
$$$$
