ISE.pdb
     RDKit          3D

 24 23  0  0  1  0  0  0  0  0999 V2000
    6.5646  -11.5191   27.2050 C   0  0  0  0  0  0  0  0  0  0  0  0
    5.8809  -12.6892   26.4797 C   0  0  0  0  0  0  0  0  0  0  0  0
    6.8825  -13.5048   25.7369 C   0  0  2  0  0  0  0  0  0  0  0  0
    7.7168  -12.6866   24.7763 C   0  0  0  0  0  0  0  0  0  0  0  0
    6.3590  -14.7055   25.0347 C   0  0  2  0  0  0  0  0  0  0  0  0
    5.5727  -15.4891   25.9717 N   0  0  0  0  0  0  0  0  0  0  0  0
    7.4397  -15.5164   24.4256 C   0  0  0  0  0  0  0  0  0  0  0  0
    8.1932  -16.2904   25.0639 O   0  0  0  0  0  0  0  0  0  0  0  0
    8.9019  -14.8093   20.4491 O   0  0  0  0  0  0  0  0  0  0  0  0
    8.7127  -16.1195   20.8706 C   0  0  0  0  0  0  0  0  0  0  0  0
    8.7288  -16.2427   22.3769 C   0  0  2  0  0  0  0  0  0  0  0  0
    7.6974  -15.4598   23.0074 N   0  0  0  0  0  0  0  0  0  0  0  0
   10.0765  -15.9402   22.8963 C   0  0  0  0  0  0  0  0  0  0  0  0
   10.4170  -14.7573   23.1297 O   0  0  0  0  0  0  0  0  0  0  0  0
   10.9865  -16.9999   23.1301 N   0  0  0  0  0  0  0  0  0  0  0  0
   12.3584  -16.7670   23.6193 C   0  0  1  0  0  0  0  0  0  0  0  0
   12.3615  -17.1952   25.0429 C   0  0  0  0  0  0  0  0  0  0  0  0
   11.6538  -18.4343   25.4209 C   0  0  0  0  0  0  0  0  0  0  0  0
   11.6940  -18.9272   26.7853 C   0  0  0  0  0  0  0  0  0  0  0  0
   12.4091  -18.4872   27.6697 O   0  0  0  0  0  0  0  0  0  0  0  0
   13.3503  -17.3759   22.7817 C   0  0  0  0  0  0  0  0  0  0  0  0
   14.7137  -17.1403   23.0342 O   0  0  0  0  0  0  0  0  0  0  0  0
   10.8425  -20.0063   27.1418 O   0  0  0  0  0  0  0  0  0  0  0  0
   13.1045  -18.1405   21.7937 O   0  0  0  0  0  0  0  0  0  0  0  0
  1  2  1  0
  3  2  1  0
  3  5  1  0
  3  4  1  6
  5  6  1  1
  7  5  1  0
  7 12  1  0
  8  7  2  0
 10  9  1  0
 11 10  1  6
 11 12  1  0
 11 13  1  0
 13 14  2  0
 13 15  1  0
 15 16  1  0
 16 17  1  1
 16 21  1  0
 17 18  1  0
 18 19  1  0
 19 23  1  0
 19 20  2  0
 21 22  1  0
 24 21  2  0
M  END
$$$$
