ISE.pdb
     RDKit          3D

 24 23  0  0  1  0  0  0  0  0999 V2000
    8.2589  -16.1125   15.4796 C   0  0  0  0  0  0  0  0  0  0  0  0
    7.7078  -14.9586   16.3326 C   0  0  0  0  0  0  0  0  0  0  0  0
    8.2867  -14.9961   17.7050 C   0  0  2  0  0  0  0  0  0  0  0  0
    8.2047  -16.3644   18.3448 C   0  0  0  0  0  0  0  0  0  0  0  0
    7.7789  -13.9755   18.6587 C   0  0  2  0  0  0  0  0  0  0  0  0
    7.8482  -12.6696   18.0263 N   0  0  0  0  0  0  0  0  0  0  0  0
    8.5147  -13.9928   19.9451 C   0  0  0  0  0  0  0  0  0  0  0  0
    9.7450  -13.7764   20.0631 O   0  0  0  0  0  0  0  0  0  0  0  0
    6.6249  -15.3608   23.5435 O   0  0  0  0  0  0  0  0  0  0  0  0
    7.5792  -14.3545   23.6262 C   0  0  0  0  0  0  0  0  0  0  0  0
    8.5220  -14.3632   22.4449 C   0  0  2  0  0  0  0  0  0  0  0  0
    7.8311  -14.2706   21.1846 N   0  0  0  0  0  0  0  0  0  0  0  0
    9.4207  -15.5310   22.5217 C   0  0  0  0  0  0  0  0  0  0  0  0
    9.1723  -16.5685   21.8646 O   0  0  0  0  0  0  0  0  0  0  0  0
   10.5707  -15.4716   23.3462 N   0  0  0  0  0  0  0  0  0  0  0  0
   11.4948  -16.6118   23.4931 C   0  0  1  0  0  0  0  0  0  0  0  0
   12.8436  -16.0900   23.1485 C   0  0  0  0  0  0  0  0  0  0  0  0
   14.0086  -16.9909   23.2492 C   0  0  0  0  0  0  0  0  0  0  0  0
   15.3529  -16.4974   23.0140 C   0  0  0  0  0  0  0  0  0  0  0  0
   15.7871  -15.4282   23.4082 O   0  0  0  0  0  0  0  0  0  0  0  0
   11.3800  -17.2499   24.7721 C   0  0  0  0  0  0  0  0  0  0  0  0
   11.8790  -18.5532   24.9464 O   0  0  0  0  0  0  0  0  0  0  0  0
   16.2513  -17.3060   22.2685 O   0  0  0  0  0  0  0  0  0  0  0  0
   10.8498  -16.7278   25.8053 O   0  0  0  0  0  0  0  0  0  0  0  0
  1  2  1  0
  3  2  1  0
  3  5  1  0
  3  4  1  1
  5  6  1  6
  7  5  1  0
  7 12  1  0
  8  7  2  0
 10  9  1  0
 11 10  1  1
 11 12  1  0
 11 13  1  0
 13 14  2  0
 13 15  1  0
 15 16  1  0
 16 17  1  1
 16 21  1  0
 17 18  1  0
 18 19  1  0
 19 23  1  0
 19 20  2  0
 21 22  1  0
 24 21  2  0
M  END
$$$$
