ISE.pdb
     RDKit          3D

 24 23  0  0  1  0  0  0  0  0999 V2000
    6.5760  -11.3901   26.8963 C   0  0  0  0  0  0  0  0  0  0  0  0
    5.8795  -12.6092   26.2706 C   0  0  0  0  0  0  0  0  0  0  0  0
    6.8539  -13.4353   25.5038 C   0  0  2  0  0  0  0  0  0  0  0  0
    7.6062  -12.6439   24.4569 C   0  0  0  0  0  0  0  0  0  0  0  0
    6.3189  -14.6790   24.8904 C   0  0  2  0  0  0  0  0  0  0  0  0
    5.5770  -15.4157   25.8988 N   0  0  0  0  0  0  0  0  0  0  0  0
    7.3860  -15.5127   24.2878 C   0  0  0  0  0  0  0  0  0  0  0  0
    8.1441  -16.2741   24.9359 O   0  0  0  0  0  0  0  0  0  0  0  0
    8.8576  -14.7869   20.3247 O   0  0  0  0  0  0  0  0  0  0  0  0
    8.7072  -16.1021   20.7463 C   0  0  0  0  0  0  0  0  0  0  0  0
    8.7058  -16.2221   22.2529 C   0  0  2  0  0  0  0  0  0  0  0  0
    7.6234  -15.4957   22.8651 N   0  0  0  0  0  0  0  0  0  0  0  0
   10.0265  -15.8461   22.7930 C   0  0  0  0  0  0  0  0  0  0  0  0
   10.1641  -14.7954   23.4616 O   0  0  0  0  0  0  0  0  0  0  0  0
   11.1423  -16.6837   22.5499 N   0  0  0  0  0  0  0  0  0  0  0  0
   12.2159  -16.8745   23.5433 C   0  0  1  0  0  0  0  0  0  0  0  0
   11.5636  -17.4714   24.7384 C   0  0  0  0  0  0  0  0  0  0  0  0
   12.4033  -17.9056   25.8722 C   0  0  0  0  0  0  0  0  0  0  0  0
   11.8152  -18.5640   27.0240 C   0  0  0  0  0  0  0  0  0  0  0  0
   12.4267  -19.2400   27.8342 O   0  0  0  0  0  0  0  0  0  0  0  0
   13.3319  -17.6015   23.0121 C   0  0  0  0  0  0  0  0  0  0  0  0
   14.6406  -17.1706   23.2945 O   0  0  0  0  0  0  0  0  0  0  0  0
   10.4194  -18.4245   27.2454 O   0  0  0  0  0  0  0  0  0  0  0  0
   13.2474  -18.6412   22.2820 O   0  0  0  0  0  0  0  0  0  0  0  0
  1  2  1  0
  3  2  1  0
  3  5  1  0
  3  4  1  6
  5  6  1  1
  7  5  1  0
  7 12  1  0
  8  7  2  0
 10  9  1  0
 11 10  1  6
 11 12  1  0
 11 13  1  0
 13 14  2  0
 13 15  1  0
 15 16  1  0
 16 17  1  1
 16 21  1  0
 17 18  1  0
 18 19  1  0
 19 23  1  0
 19 20  2  0
 21 22  1  0
 24 21  2  0
M  END
$$$$
