ISE.pdb
     RDKit          3D

 24 23  0  0  1  0  0  0  0  0999 V2000
    7.4971  -11.7436   19.8312 C   0  0  0  0  0  0  0  0  0  0  0  0
    7.6952  -13.1856   20.3254 C   0  0  0  0  0  0  0  0  0  0  0  0
    8.5448  -13.9556   19.3739 C   0  0  2  0  0  0  0  0  0  0  0  0
    8.0220  -13.9242   17.9548 C   0  0  0  0  0  0  0  0  0  0  0  0
    8.8493  -15.3594   19.7555 C   0  0  2  0  0  0  0  0  0  0  0  0
    7.6165  -16.1274   19.7337 N   0  0  0  0  0  0  0  0  0  0  0  0
    9.5198  -15.4509   21.0741 C   0  0  0  0  0  0  0  0  0  0  0  0
   10.6936  -15.0708   21.3023 O   0  0  0  0  0  0  0  0  0  0  0  0
    8.0746  -17.9963   24.1720 O   0  0  0  0  0  0  0  0  0  0  0  0
    8.5398  -16.7401   24.5407 C   0  0  0  0  0  0  0  0  0  0  0  0
    9.4645  -16.1465   23.5029 C   0  0  2  0  0  0  0  0  0  0  0  0
    8.8338  -16.0042   22.2160 N   0  0  0  0  0  0  0  0  0  0  0  0
   10.7215  -16.9170   23.4434 C   0  0  0  0  0  0  0  0  0  0  0  0
   10.8003  -17.9516   22.7410 O   0  0  0  0  0  0  0  0  0  0  0  0
   11.8432  -16.4780   24.1883 N   0  0  0  0  0  0  0  0  0  0  0  0
   13.1206  -17.2155   24.1978 C   0  0  1  0  0  0  0  0  0  0  0  0
   14.1401  -16.2712   23.6696 C   0  0  0  0  0  0  0  0  0  0  0  0
   15.5600  -16.6751   23.6690 C   0  0  0  0  0  0  0  0  0  0  0  0
   16.5987  -15.7413   23.2750 C   0  0  0  0  0  0  0  0  0  0  0  0
   17.7472  -15.7551   23.6849 O   0  0  0  0  0  0  0  0  0  0  0  0
   13.4097  -17.7956   25.4769 C   0  0  0  0  0  0  0  0  0  0  0  0
   12.6267  -17.4464   26.5918 O   0  0  0  0  0  0  0  0  0  0  0  0
   16.2756  -14.7227   22.3398 O   0  0  0  0  0  0  0  0  0  0  0  0
   14.3431  -18.6302   25.7078 O   0  0  0  0  0  0  0  0  0  0  0  0
  1  2  1  0
  3  2  1  0
  3  5  1  0
  3  4  1  6
  5  6  1  1
  7  5  1  0
  7 12  1  0
  8  7  2  0
 10  9  1  0
 11 10  1  1
 11 12  1  0
 11 13  1  0
 13 14  2  0
 13 15  1  0
 15 16  1  0
 16 17  1  1
 16 21  1  0
 17 18  1  0
 18 19  1  0
 19 23  1  0
 19 20  2  0
 21 22  1  0
 24 21  2  0
M  END
$$$$
