DLN.pdb
     RDKit          3D

 25 24  0  0  1  0  0  0  0  0999 V2000
    8.6057  -16.4921   21.1886 N   0  0  0  0  0  0  0  0  0  0  0  0
    9.7972  -16.6540   21.9953 C   0  0  1  0  0  0  0  0  0  0  0  0
   10.9369  -16.0181   21.2100 C   0  0  0  0  0  0  0  0  0  0  0  0
   11.1373  -16.7505   19.9551 C   0  0  0  0  0  0  0  0  0  0  0  0
   10.2217  -17.4763   19.4977 O   0  0  0  0  0  0  0  0  0  0  0  0
    9.6656  -15.9657   23.3081 C   0  0  0  0  0  0  0  0  0  0  0  0
   10.6545  -15.8396   24.0933 O   0  0  0  0  0  0  0  0  0  0  0  0
   12.3198  -16.6651   19.2505 O   0  0  0  0  0  0  0  0  0  0  0  0
    5.5545  -12.2545   26.0437 C   0  0  0  0  0  0  0  0  0  0  0  0
    6.8261  -13.0591   26.1295 C   0  0  2  0  0  0  0  0  0  0  0  0
    7.9565  -12.0821   26.4136 C   0  0  0  0  0  0  0  0  0  0  0  0
    7.1326  -13.7444   24.8440 C   0  0  0  0  0  0  0  0  0  0  0  0
    8.1929  -14.8207   25.0063 C   0  0  2  0  0  0  0  0  0  0  0  0
    8.4349  -15.4249   23.7325 N   0  0  0  0  0  0  0  0  0  0  0  0
    7.7829  -15.7983   26.0444 C   0  0  0  0  0  0  0  0  0  0  0  0
    6.5759  -15.9374   26.3530 O   0  0  0  0  0  0  0  0  0  0  0  0
    6.6680  -20.2577   28.1445 N   0  0  0  0  0  0  0  0  0  0  0  0
    7.4428  -20.1005   26.9529 C   0  0  0  0  0  0  0  0  0  0  0  0
    7.8612  -21.1459   26.4124 O   0  0  0  0  0  0  0  0  0  0  0  0
    7.7383  -18.7813   26.3838 C   0  0  0  0  0  0  0  0  0  0  0  0
    8.4008  -17.8857   27.3583 C   0  0  2  0  0  0  0  0  0  0  0  0
    8.7548  -16.5920   26.7044 N   0  0  0  0  0  0  0  0  0  0  0  0
    9.6774  -18.4193   27.9277 C   0  0  0  0  0  0  0  0  0  0  0  0
    9.6837  -19.2530   28.8216 O   0  0  0  0  0  0  0  0  0  0  0  0
   10.9208  -17.9817   27.4566 O   0  0  0  0  0  0  0  0  0  0  0  0
  2  1  1  6
  2  3  1  0
  4  3  1  0
  5  4  2  0
  6  2  1  0
  7  6  2  0
  8  4  1  0
 10  9  1  6
 10 12  1  0
 11 10  1  0
 13 12  1  6
 13 14  1  0
 14  6  1  0
 15 22  1  0
 15 13  1  0
 16 15  2  0
 18 19  2  0
 18 17  1  0
 20 18  1  0
 21 20  1  6
 21 22  1  0
 23 25  1  0
 23 21  1  0
 24 23  2  0
M  END
$$$$
