DLN.pdb
     RDKit          3D

 25 24  0  0  1  0  0  0  0  0999 V2000
    6.8129  -16.3990   21.7904 N   0  0  0  0  0  0  0  0  0  0  0  0
    8.1546  -15.9134   21.5441 C   0  0  1  0  0  0  0  0  0  0  0  0
    8.0351  -14.8557   20.4546 C   0  0  0  0  0  0  0  0  0  0  0  0
    7.9368  -15.5086   19.1449 C   0  0  0  0  0  0  0  0  0  0  0  0
    7.9473  -16.7606   19.0643 O   0  0  0  0  0  0  0  0  0  0  0  0
    8.7437  -15.2945   22.7626 C   0  0  0  0  0  0  0  0  0  0  0  0
    9.8634  -14.6982   22.7287 O   0  0  0  0  0  0  0  0  0  0  0  0
    7.8317  -14.7775   17.9802 O   0  0  0  0  0  0  0  0  0  0  0  0
    7.7203  -11.9747   25.7089 C   0  0  0  0  0  0  0  0  0  0  0  0
    6.7820  -13.1511   25.6240 C   0  0  2  0  0  0  0  0  0  0  0  0
    5.6024  -12.8504   26.5357 C   0  0  0  0  0  0  0  0  0  0  0  0
    7.4226  -14.4035   26.1112 C   0  0  0  0  0  0  0  0  0  0  0  0
    8.5908  -14.8278   25.2369 C   0  0  2  0  0  0  0  0  0  0  0  0
    8.0801  -15.3457   24.0051 N   0  0  0  0  0  0  0  0  0  0  0  0
    9.4538  -15.7943   25.9599 C   0  0  0  0  0  0  0  0  0  0  0  0
   10.0214  -15.4712   27.0300 O   0  0  0  0  0  0  0  0  0  0  0  0
   13.7355  -18.8740   24.2454 N   0  0  0  0  0  0  0  0  0  0  0  0
   12.4694  -18.2192   24.3599 C   0  0  0  0  0  0  0  0  0  0  0  0
   11.7458  -18.2129   23.3418 O   0  0  0  0  0  0  0  0  0  0  0  0
   12.0311  -17.5825   25.6065 C   0  0  0  0  0  0  0  0  0  0  0  0
   10.6782  -18.0220   26.0152 C   0  0  2  0  0  0  0  0  0  0  0  0
    9.6493  -17.1020   25.4483 N   0  0  0  0  0  0  0  0  0  0  0  0
   10.4466  -18.0340   27.4933 C   0  0  0  0  0  0  0  0  0  0  0  0
    9.7828  -17.1700   28.0472 O   0  0  0  0  0  0  0  0  0  0  0  0
   10.9848  -19.0406   28.3038 O   0  0  0  0  0  0  0  0  0  0  0  0
  2  1  1  1
  2  3  1  0
  4  3  1  0
  5  4  2  0
  6  2  1  0
  7  6  2  0
  8  4  1  0
 10  9  1  1
 10 12  1  0
 11 10  1  0
 13 12  1  1
 13 14  1  0
 14  6  1  0
 15 22  1  0
 15 13  1  0
 16 15  2  0
 18 19  2  0
 18 17  1  0
 20 18  1  0
 21 20  1  1
 21 22  1  0
 23 25  1  0
 23 21  1  0
 24 23  2  0
M  END
$$$$
