DLN.pdb
     RDKit          3D

 25 24  0  0  1  0  0  0  0  0999 V2000
    7.6996  -16.7361   21.6603 N   0  0  0  0  0  0  0  0  0  0  0  0
    9.0919  -16.4744   21.9597 C   0  0  1  0  0  0  0  0  0  0  0  0
    9.6218  -15.6142   20.8198 C   0  0  0  0  0  0  0  0  0  0  0  0
    9.3838  -16.2922   19.5412 C   0  0  0  0  0  0  0  0  0  0  0  0
    8.8794  -15.6627   18.5801 O   0  0  0  0  0  0  0  0  0  0  0  0
    9.2451  -15.7342   23.2416 C   0  0  0  0  0  0  0  0  0  0  0  0
   10.3748  -15.3057   23.6295 O   0  0  0  0  0  0  0  0  0  0  0  0
    9.7020  -17.6217   19.3592 O   0  0  0  0  0  0  0  0  0  0  0  0
    5.9250  -12.1203   26.6104 C   0  0  0  0  0  0  0  0  0  0  0  0
    7.1168  -12.7511   25.9372 C   0  0  2  0  0  0  0  0  0  0  0  0
    7.2768  -12.0757   24.5839 C   0  0  0  0  0  0  0  0  0  0  0  0
    6.9078  -14.2051   25.6953 C   0  0  0  0  0  0  0  0  0  0  0  0
    8.2096  -14.9298   25.3967 C   0  0  2  0  0  0  0  0  0  0  0  0
    8.1392  -15.4786   24.0775 N   0  0  0  0  0  0  0  0  0  0  0  0
    8.4832  -15.9517   26.4371 C   0  0  0  0  0  0  0  0  0  0  0  0
    8.6652  -15.6177   27.6316 O   0  0  0  0  0  0  0  0  0  0  0  0
    6.9527  -21.1819   28.4116 N   0  0  0  0  0  0  0  0  0  0  0  0
    8.0756  -20.7027   27.6671 C   0  0  0  0  0  0  0  0  0  0  0  0
    9.1727  -21.2590   27.8840 O   0  0  0  0  0  0  0  0  0  0  0  0
    7.9572  -19.6117   26.6939 C   0  0  0  0  0  0  0  0  0  0  0  0
    8.6709  -18.3908   27.1303 C   0  0  2  0  0  0  0  0  0  0  0  0
    8.5427  -17.3258   26.0931 N   0  0  0  0  0  0  0  0  0  0  0  0
   10.1396  -18.5725   27.3510 C   0  0  0  0  0  0  0  0  0  0  0  0
   10.9396  -18.5220   26.4282 O   0  0  0  0  0  0  0  0  0  0  0  0
   10.6572  -18.8094   28.6300 O   0  0  0  0  0  0  0  0  0  0  0  0
  2  1  1  6
  2  3  1  0
  4  3  1  0
  5  4  2  0
  6  2  1  0
  7  6  2  0
  8  4  1  0
 10  9  1  6
 10 12  1  0
 11 10  1  0
 13 12  1  1
 13 14  1  0
 14  6  1  0
 15 22  1  0
 15 13  1  0
 16 15  2  0
 18 19  2  0
 18 17  1  0
 20 18  1  0
 21 20  1  6
 21 22  1  0
 23 25  1  0
 23 21  1  0
 24 23  2  0
M  END
$$$$
