DLN.pdb
     RDKit          3D

 25 24  0  0  1  0  0  0  0  0999 V2000
   10.2412  -17.1984   17.3452 N   0  0  0  0  0  0  0  0  0  0  0  0
   11.4293  -16.3862   17.5041 C   0  0  1  0  0  0  0  0  0  0  0  0
   11.5336  -15.5280   16.2501 C   0  0  0  0  0  0  0  0  0  0  0  0
   11.8247  -16.3816   15.0935 C   0  0  0  0  0  0  0  0  0  0  0  0
   10.9005  -17.0210   14.5356 O   0  0  0  0  0  0  0  0  0  0  0  0
   11.3295  -15.4998   18.6953 C   0  0  0  0  0  0  0  0  0  0  0  0
   12.2841  -14.7362   19.0359 O   0  0  0  0  0  0  0  0  0  0  0  0
   13.1034  -16.5057   14.5918 O   0  0  0  0  0  0  0  0  0  0  0  0
    8.5613  -12.1763   19.5292 C   0  0  0  0  0  0  0  0  0  0  0  0
    8.0144  -13.5791   19.5964 C   0  0  2  0  0  0  0  0  0  0  0  0
    6.5035  -13.4654   19.7273 C   0  0  0  0  0  0  0  0  0  0  0  0
    8.5183  -14.3106   20.7911 C   0  0  0  0  0  0  0  0  0  0  0  0
    9.9891  -14.6707   20.6650 C   0  0  2  0  0  0  0  0  0  0  0  0
   10.1684  -15.4726   19.4940 N   0  0  0  0  0  0  0  0  0  0  0  0
   10.4671  -15.3350   21.9026 C   0  0  0  0  0  0  0  0  0  0  0  0
   10.2981  -14.7999   23.0236 O   0  0  0  0  0  0  0  0  0  0  0  0
    9.6069  -19.6045   21.7117 N   0  0  0  0  0  0  0  0  0  0  0  0
   10.1919  -19.0931   22.9121 C   0  0  0  0  0  0  0  0  0  0  0  0
    9.4451  -19.0086   23.9097 O   0  0  0  0  0  0  0  0  0  0  0  0
   11.5989  -18.6844   22.9807 C   0  0  0  0  0  0  0  0  0  0  0  0
   11.7537  -17.2134   23.0344 C   0  0  2  0  0  0  0  0  0  0  0  0
   11.1243  -16.5894   21.8341 N   0  0  0  0  0  0  0  0  0  0  0  0
   13.1716  -16.7359   23.0480 C   0  0  0  0  0  0  0  0  0  0  0  0
   13.6563  -16.1335   22.1013 O   0  0  0  0  0  0  0  0  0  0  0  0
   14.0029  -16.9622   24.1515 O   0  0  0  0  0  0  0  0  0  0  0  0
  2  1  1  6
  2  3  1  0
  4  3  1  0
  5  4  2  0
  6  2  1  0
  7  6  2  0
  8  4  1  0
 10  9  1  1
 10 12  1  0
 11 10  1  0
 13 12  1  1
 13 14  1  0
 14  6  1  0
 15 22  1  0
 15 13  1  0
 16 15  2  0
 18 19  2  0
 18 17  1  0
 20 18  1  0
 21 20  1  6
 21 22  1  0
 23 25  1  0
 23 21  1  0
 24 23  2  0
M  END
$$$$
