DLN.pdb
     RDKit          3D

 25 24  0  0  1  0  0  0  0  0999 V2000
    9.1107  -15.1361   21.0087 N   0  0  0  0  0  0  0  0  0  0  0  0
    8.5583  -15.8631   22.1324 C   0  0  1  0  0  0  0  0  0  0  0  0
    9.1023  -17.2825   22.0348 C   0  0  0  0  0  0  0  0  0  0  0  0
    8.6178  -17.9105   20.8011 C   0  0  0  0  0  0  0  0  0  0  0  0
    7.4349  -17.7272   20.4250 O   0  0  0  0  0  0  0  0  0  0  0  0
    8.9800  -15.2670   23.4291 C   0  0  0  0  0  0  0  0  0  0  0  0
   10.1778  -14.9011   23.6328 O   0  0  0  0  0  0  0  0  0  0  0  0
    9.4349  -18.7093   20.0288 O   0  0  0  0  0  0  0  0  0  0  0  0
    7.4387  -11.8364   25.5418 C   0  0  0  0  0  0  0  0  0  0  0  0
    6.5553  -13.0515   25.6618 C   0  0  2  0  0  0  0  0  0  0  0  0
    5.2796  -12.6110   26.3630 C   0  0  0  0  0  0  0  0  0  0  0  0
    7.1864  -14.1119   26.4947 C   0  0  0  0  0  0  0  0  0  0  0  0
    8.4080  -14.7171   25.8238 C   0  0  2  0  0  0  0  0  0  0  0  0
    8.0638  -15.0842   24.4847 N   0  0  0  0  0  0  0  0  0  0  0  0
    8.9267  -15.8548   26.6227 C   0  0  0  0  0  0  0  0  0  0  0  0
    9.3484  -15.6788   27.7900 O   0  0  0  0  0  0  0  0  0  0  0  0
    6.2659  -19.3074   25.9488 N   0  0  0  0  0  0  0  0  0  0  0  0
    7.3062  -19.3728   26.9277 C   0  0  0  0  0  0  0  0  0  0  0  0
    6.9589  -19.2830   28.1241 O   0  0  0  0  0  0  0  0  0  0  0  0
    8.7159  -19.5369   26.5570 C   0  0  0  0  0  0  0  0  0  0  0  0
    9.5130  -18.3202   26.8302 C   0  0  2  0  0  0  0  0  0  0  0  0
    8.9525  -17.1620   26.0745 N   0  0  0  0  0  0  0  0  0  0  0  0
   10.9512  -18.4138   26.4282 C   0  0  0  0  0  0  0  0  0  0  0  0
   11.3380  -19.2355   25.6101 O   0  0  0  0  0  0  0  0  0  0  0  0
   11.9150  -17.5595   26.9769 O   0  0  0  0  0  0  0  0  0  0  0  0
  2  1  1  6
  2  3  1  0
  4  3  1  0
  5  4  2  0
  6  2  1  0
  7  6  2  0
  8  4  1  0
 10  9  1  1
 10 12  1  0
 11 10  1  0
 13 12  1  1
 13 14  1  0
 14  6  1  0
 15 22  1  0
 15 13  1  0
 16 15  2  0
 18 19  2  0
 18 17  1  0
 20 18  1  0
 21 20  1  6
 21 22  1  0
 23 25  1  0
 23 21  1  0
 24 23  2  0
M  END
$$$$
