DLN.pdb
     RDKit          3D

 25 24  0  0  1  0  0  0  0  0999 V2000
    7.8954  -14.7861   20.7816 N   0  0  0  0  0  0  0  0  0  0  0  0
    7.6937  -15.6598   21.9185 C   0  0  1  0  0  0  0  0  0  0  0  0
    8.2483  -17.0207   21.5178 C   0  0  0  0  0  0  0  0  0  0  0  0
    7.5197  -17.5231   20.3482 C   0  0  0  0  0  0  0  0  0  0  0  0
    8.1480  -17.8889   19.3256 O   0  0  0  0  0  0  0  0  0  0  0  0
    8.4228  -15.1701   23.1198 C   0  0  0  0  0  0  0  0  0  0  0  0
    9.6878  -15.0702   23.1332 O   0  0  0  0  0  0  0  0  0  0  0  0
    6.1431  -17.6072   20.3368 O   0  0  0  0  0  0  0  0  0  0  0  0
    7.6887  -11.4480   25.2629 C   0  0  0  0  0  0  0  0  0  0  0  0
    6.6892  -12.5204   25.6127 C   0  0  2  0  0  0  0  0  0  0  0  0
    5.6536  -11.8867   26.5286 C   0  0  0  0  0  0  0  0  0  0  0  0
    7.3234  -13.6438   26.3558 C   0  0  0  0  0  0  0  0  0  0  0  0
    8.3527  -14.3795   25.5143 C   0  0  2  0  0  0  0  0  0  0  0  0
    7.7361  -14.7966   24.2928 N   0  0  0  0  0  0  0  0  0  0  0  0
    8.9399  -15.5050   26.2823 C   0  0  0  0  0  0  0  0  0  0  0  0
    9.4712  -15.3097   27.4008 O   0  0  0  0  0  0  0  0  0  0  0  0
    8.9290  -20.9791   27.8198 N   0  0  0  0  0  0  0  0  0  0  0  0
    9.4974  -20.4266   26.6296 C   0  0  0  0  0  0  0  0  0  0  0  0
   10.5109  -20.9966   26.1737 O   0  0  0  0  0  0  0  0  0  0  0  0
    8.9270  -19.2485   25.9677 C   0  0  0  0  0  0  0  0  0  0  0  0
    9.4610  -17.9825   26.5179 C   0  0  2  0  0  0  0  0  0  0  0  0
    8.9081  -16.8225   25.7595 N   0  0  0  0  0  0  0  0  0  0  0  0
   10.9494  -17.8488   26.4425 C   0  0  0  0  0  0  0  0  0  0  0  0
   11.5070  -17.4257   25.4405 O   0  0  0  0  0  0  0  0  0  0  0  0
   11.7654  -18.2056   27.5226 O   0  0  0  0  0  0  0  0  0  0  0  0
  2  1  1  6
  2  3  1  0
  4  3  1  0
  5  4  2  0
  6  2  1  0
  7  6  2  0
  8  4  1  0
 10  9  1  1
 10 12  1  0
 11 10  1  0
 13 12  1  1
 13 14  1  0
 14  6  1  0
 15 22  1  0
 15 13  1  0
 16 15  2  0
 18 19  2  0
 18 17  1  0
 20 18  1  0
 21 20  1  6
 21 22  1  0
 23 25  1  0
 23 21  1  0
 24 23  2  0
M  END
$$$$
