DLN.pdb
     RDKit          3D

 25 24  0  0  1  0  0  0  0  0999 V2000
   10.1613  -17.1880   17.8515 N   0  0  0  0  0  0  0  0  0  0  0  0
   11.3898  -16.6748   18.4206 C   0  0  1  0  0  0  0  0  0  0  0  0
   12.0951  -15.9146   17.3050 C   0  0  0  0  0  0  0  0  0  0  0  0
   12.3616  -16.8225   16.1842 C   0  0  0  0  0  0  0  0  0  0  0  0
   11.9423  -18.0046   16.2195 O   0  0  0  0  0  0  0  0  0  0  0  0
   11.1213  -15.7447   19.5509 C   0  0  0  0  0  0  0  0  0  0  0  0
   12.0614  -15.2809   20.2661 O   0  0  0  0  0  0  0  0  0  0  0  0
   13.0701  -16.4110   15.0749 O   0  0  0  0  0  0  0  0  0  0  0  0
    9.1799  -11.9066   19.4529 C   0  0  0  0  0  0  0  0  0  0  0  0
    8.2437  -13.0860   19.3872 C   0  0  2  0  0  0  0  0  0  0  0  0
    6.8589  -12.5421   19.0721 C   0  0  0  0  0  0  0  0  0  0  0  0
    8.1636  -13.7995   20.6913 C   0  0  0  0  0  0  0  0  0  0  0  0
    9.4421  -14.5560   21.0107 C   0  0  2  0  0  0  0  0  0  0  0  0
    9.8097  -15.3407   19.8725 N   0  0  0  0  0  0  0  0  0  0  0  0
    9.2706  -15.3648   22.2428 C   0  0  0  0  0  0  0  0  0  0  0  0
    8.9663  -14.8200   23.3300 O   0  0  0  0  0  0  0  0  0  0  0  0
    6.8526  -19.8233   24.9780 N   0  0  0  0  0  0  0  0  0  0  0  0
    8.1214  -19.5195   24.3928 C   0  0  0  0  0  0  0  0  0  0  0  0
    9.1229  -20.0553   24.9124 O   0  0  0  0  0  0  0  0  0  0  0  0
    8.2530  -18.6237   23.2387 C   0  0  0  0  0  0  0  0  0  0  0  0
    9.3151  -17.6114   23.4327 C   0  0  2  0  0  0  0  0  0  0  0  0
    9.4494  -16.7708   22.2072 N   0  0  0  0  0  0  0  0  0  0  0  0
   10.6757  -18.1771   23.6922 C   0  0  0  0  0  0  0  0  0  0  0  0
   11.4005  -18.5519   22.7821 O   0  0  0  0  0  0  0  0  0  0  0  0
   11.1738  -18.3004   24.9947 O   0  0  0  0  0  0  0  0  0  0  0  0
  2  1  1  6
  2  3  1  0
  4  3  1  0
  5  4  2  0
  6  2  1  0
  7  6  2  0
  8  4  1  0
 10  9  1  1
 10 12  1  0
 11 10  1  0
 13 12  1  6
 13 14  1  0
 14  6  1  0
 15 22  1  0
 15 13  1  0
 16 15  2  0
 18 19  2  0
 18 17  1  0
 20 18  1  0
 21 20  1  6
 21 22  1  0
 23 25  1  0
 23 21  1  0
 24 23  2  0
M  END
$$$$
