DLN.pdb
     RDKit          3D

 25 24  0  0  1  0  0  0  0  0999 V2000
    6.8737  -15.9533   21.3185 N   0  0  0  0  0  0  0  0  0  0  0  0
    8.3194  -15.8866   21.2730 C   0  0  1  0  0  0  0  0  0  0  0  0
    8.6678  -14.8282   20.2345 C   0  0  0  0  0  0  0  0  0  0  0  0
    8.5782  -15.4100   18.8911 C   0  0  0  0  0  0  0  0  0  0  0  0
    8.2189  -16.6033   18.7455 O   0  0  0  0  0  0  0  0  0  0  0  0
    8.8894  -15.4863   22.5881 C   0  0  0  0  0  0  0  0  0  0  0  0
   10.1363  -15.3112   22.7451 O   0  0  0  0  0  0  0  0  0  0  0  0
    8.8814  -14.6745   17.7645 O   0  0  0  0  0  0  0  0  0  0  0  0
    8.3051  -12.1307   25.7152 C   0  0  0  0  0  0  0  0  0  0  0  0
    7.1559  -13.0571   25.4106 C   0  0  2  0  0  0  0  0  0  0  0  0
    5.9502  -12.5450   26.1832 C   0  0  0  0  0  0  0  0  0  0  0  0
    7.4310  -14.4462   25.8701 C   0  0  0  0  0  0  0  0  0  0  0  0
    8.5276  -15.1129   25.0565 C   0  0  2  0  0  0  0  0  0  0  0  0
    8.0653  -15.2850   23.7138 N   0  0  0  0  0  0  0  0  0  0  0  0
    8.9442  -16.3858   25.6950 C   0  0  0  0  0  0  0  0  0  0  0  0
    8.1364  -17.3368   25.8159 O   0  0  0  0  0  0  0  0  0  0  0  0
   12.7883  -20.5124   26.1851 N   0  0  0  0  0  0  0  0  0  0  0  0
   12.7878  -19.2414   26.8404 C   0  0  0  0  0  0  0  0  0  0  0  0
   13.3341  -19.1872   27.9624 O   0  0  0  0  0  0  0  0  0  0  0  0
   12.1785  -18.0525   26.2348 C   0  0  0  0  0  0  0  0  0  0  0  0
   10.7743  -17.8624   26.6622 C   0  0  2  0  0  0  0  0  0  0  0  0
   10.2673  -16.5448   26.1791 N   0  0  0  0  0  0  0  0  0  0  0  0
   10.5685  -17.8616   28.1443 C   0  0  0  0  0  0  0  0  0  0  0  0
   10.2499  -18.8746   28.7496 O   0  0  0  0  0  0  0  0  0  0  0  0
   10.7332  -16.6942   28.8990 O   0  0  0  0  0  0  0  0  0  0  0  0
  2  1  1  1
  2  3  1  0
  4  3  1  0
  5  4  2  0
  6  2  1  0
  7  6  2  0
  8  4  1  0
 10  9  1  1
 10 12  1  0
 11 10  1  0
 13 12  1  1
 13 14  1  0
 14  6  1  0
 15 22  1  0
 15 13  1  0
 16 15  2  0
 18 19  2  0
 18 17  1  0
 20 18  1  0
 21 20  1  1
 21 22  1  0
 23 25  1  0
 23 21  1  0
 24 23  2  0
M  END
$$$$
