DLN.pdb
     RDKit          3D

 25 24  0  0  1  0  0  0  0  0999 V2000
    7.7572  -16.3102   22.1091 N   0  0  0  0  0  0  0  0  0  0  0  0
    9.1608  -16.0049   22.2911 C   0  0  1  0  0  0  0  0  0  0  0  0
    9.5041  -14.9344   21.2635 C   0  0  0  0  0  0  0  0  0  0  0  0
    9.4693  -15.5163   19.9176 C   0  0  0  0  0  0  0  0  0  0  0  0
    9.1189  -16.7105   19.7579 O   0  0  0  0  0  0  0  0  0  0  0  0
    9.4323  -15.4765   23.6556 C   0  0  0  0  0  0  0  0  0  0  0  0
   10.5998  -15.1311   24.0132 O   0  0  0  0  0  0  0  0  0  0  0  0
    9.8153  -14.7802   18.8038 O   0  0  0  0  0  0  0  0  0  0  0  0
    8.1401  -11.9796   25.9122 C   0  0  0  0  0  0  0  0  0  0  0  0
    7.0799  -13.0276   25.6901 C   0  0  2  0  0  0  0  0  0  0  0  0
    5.7641  -12.4457   26.1830 C   0  0  0  0  0  0  0  0  0  0  0  0
    7.3517  -14.2621   26.4766 C   0  0  0  0  0  0  0  0  0  0  0  0
    8.5874  -14.9960   25.9834 C   0  0  2  0  0  0  0  0  0  0  0  0
    8.4014  -15.3379   24.6069 N   0  0  0  0  0  0  0  0  0  0  0  0
    8.8666  -16.1737   26.8418 C   0  0  0  0  0  0  0  0  0  0  0  0
    8.9997  -16.0461   28.0817 O   0  0  0  0  0  0  0  0  0  0  0  0
    6.4212  -19.5906   25.2831 N   0  0  0  0  0  0  0  0  0  0  0  0
    7.1368  -19.6337   26.5203 C   0  0  0  0  0  0  0  0  0  0  0  0
    6.4666  -19.4800   27.5630 O   0  0  0  0  0  0  0  0  0  0  0  0
    8.5870  -19.8472   26.5749 C   0  0  0  0  0  0  0  0  0  0  0  0
    9.3087  -18.6646   27.0958 C   0  0  2  0  0  0  0  0  0  0  0  0
    8.9873  -17.4649   26.2689 N   0  0  0  0  0  0  0  0  0  0  0  0
   10.7999  -18.7866   27.0778 C   0  0  0  0  0  0  0  0  0  0  0  0
   11.3951  -19.5124   27.8608 O   0  0  0  0  0  0  0  0  0  0  0  0
   11.5754  -18.0698   26.1589 O   0  0  0  0  0  0  0  0  0  0  0  0
  2  1  1  1
  2  3  1  0
  4  3  1  0
  5  4  2  0
  6  2  1  0
  7  6  2  0
  8  4  1  0
 10  9  1  1
 10 12  1  0
 11 10  1  0
 13 12  1  1
 13 14  1  0
 14  6  1  0
 15 22  1  0
 15 13  1  0
 16 15  2  0
 18 19  2  0
 18 17  1  0
 20 18  1  0
 21 20  1  6
 21 22  1  0
 23 25  1  0
 23 21  1  0
 24 23  2  0
M  END
$$$$
