DLN.pdb
     RDKit          3D

 25 24  0  0  1  0  0  0  0  0999 V2000
    6.8928  -16.1552   21.7645 N   0  0  0  0  0  0  0  0  0  0  0  0
    8.3186  -15.9181   21.6781 C   0  0  1  0  0  0  0  0  0  0  0  0
    8.5206  -14.9260   20.5402 C   0  0  0  0  0  0  0  0  0  0  0  0
    8.2106  -15.5749   19.2619 C   0  0  0  0  0  0  0  0  0  0  0  0
    7.7324  -16.7348   19.2454 O   0  0  0  0  0  0  0  0  0  0  0  0
    8.8520  -15.3315   22.9375 C   0  0  0  0  0  0  0  0  0  0  0  0
   10.0755  -15.0168   23.0567 O   0  0  0  0  0  0  0  0  0  0  0  0
    8.4318  -14.9399   18.0578 O   0  0  0  0  0  0  0  0  0  0  0  0
    8.0529  -11.7297   25.3852 C   0  0  0  0  0  0  0  0  0  0  0  0
    6.9514  -12.7583   25.3651 C   0  0  2  0  0  0  0  0  0  0  0  0
    5.7660  -12.1604   26.1069 C   0  0  0  0  0  0  0  0  0  0  0  0
    7.3481  -14.0047   26.0761 C   0  0  0  0  0  0  0  0  0  0  0  0
    8.4671  -14.7422   25.3599 C   0  0  2  0  0  0  0  0  0  0  0  0
    8.0178  -15.1013   24.0502 N   0  0  0  0  0  0  0  0  0  0  0  0
    8.9135  -15.9086   26.1610 C   0  0  0  0  0  0  0  0  0  0  0  0
    9.2215  -15.7767   27.3690 O   0  0  0  0  0  0  0  0  0  0  0  0
    8.2943  -19.3261   28.8310 N   0  0  0  0  0  0  0  0  0  0  0  0
    7.6476  -19.7510   27.6285 C   0  0  0  0  0  0  0  0  0  0  0  0
    6.6494  -20.4905   27.7582 O   0  0  0  0  0  0  0  0  0  0  0  0
    8.1239  -19.3449   26.3020 C   0  0  0  0  0  0  0  0  0  0  0  0
    9.2738  -18.4162   26.3791 C   0  0  2  0  0  0  0  0  0  0  0  0
    8.9984  -17.1939   25.5686 N   0  0  0  0  0  0  0  0  0  0  0  0
   10.5606  -18.9725   25.8563 C   0  0  0  0  0  0  0  0  0  0  0  0
   11.0687  -19.9760   26.3348 O   0  0  0  0  0  0  0  0  0  0  0  0
   11.2366  -18.3615   24.7936 O   0  0  0  0  0  0  0  0  0  0  0  0
  2  1  1  1
  2  3  1  0
  4  3  1  0
  5  4  2  0
  6  2  1  0
  7  6  2  0
  8  4  1  0
 10  9  1  1
 10 12  1  0
 11 10  1  0
 13 12  1  1
 13 14  1  0
 14  6  1  0
 15 22  1  0
 15 13  1  0
 16 15  2  0
 18 19  2  0
 18 17  1  0
 20 18  1  0
 21 20  1  6
 21 22  1  0
 23 25  1  0
 23 21  1  0
 24 23  2  0
M  END
$$$$
