DLN.pdb
     RDKit          3D

 25 24  0  0  1  0  0  0  0  0999 V2000
   10.1288  -18.0047   19.8705 N   0  0  0  0  0  0  0  0  0  0  0  0
   11.2011  -17.4418   20.6641 C   0  0  1  0  0  0  0  0  0  0  0  0
   12.1829  -16.8199   19.6797 C   0  0  0  0  0  0  0  0  0  0  0  0
   12.8961  -17.8810   18.9607 C   0  0  0  0  0  0  0  0  0  0  0  0
   12.6979  -18.0517   17.7336 O   0  0  0  0  0  0  0  0  0  0  0  0
   10.7015  -16.3869   21.5873 C   0  0  0  0  0  0  0  0  0  0  0  0
   11.4545  -15.8601   22.4624 O   0  0  0  0  0  0  0  0  0  0  0  0
   13.7922  -18.7105   19.6017 O   0  0  0  0  0  0  0  0  0  0  0  0
    8.8245  -12.8249   20.1542 C   0  0  0  0  0  0  0  0  0  0  0  0
    7.8735  -13.9885   20.2696 C   0  0  2  0  0  0  0  0  0  0  0  0
    6.5632  -13.5621   19.6260 C   0  0  0  0  0  0  0  0  0  0  0  0
    7.5896  -14.3295   21.6907 C   0  0  0  0  0  0  0  0  0  0  0  0
    8.7947  -14.9410   22.3856 C   0  0  2  0  0  0  0  0  0  0  0  0
    9.3695  -15.9296   21.5262 N   0  0  0  0  0  0  0  0  0  0  0  0
    8.4085  -15.4792   23.7132 C   0  0  0  0  0  0  0  0  0  0  0  0
    7.8674  -14.7423   24.5709 O   0  0  0  0  0  0  0  0  0  0  0  0
    6.1877  -18.9873   27.2756 N   0  0  0  0  0  0  0  0  0  0  0  0
    7.3430  -19.3402   26.5103 C   0  0  0  0  0  0  0  0  0  0  0  0
    8.0932  -20.2133   26.9950 O   0  0  0  0  0  0  0  0  0  0  0  0
    7.6430  -18.7141   25.2182 C   0  0  0  0  0  0  0  0  0  0  0  0
    8.3138  -17.4038   25.3720 C   0  0  2  0  0  0  0  0  0  0  0  0
    8.6471  -16.8401   24.0313 N   0  0  0  0  0  0  0  0  0  0  0  0
    9.6035  -17.4488   26.1293 C   0  0  0  0  0  0  0  0  0  0  0  0
    9.6326  -17.4309   27.3511 O   0  0  0  0  0  0  0  0  0  0  0  0
   10.8335  -17.5130   25.4640 O   0  0  0  0  0  0  0  0  0  0  0  0
  2  1  1  6
  2  3  1  0
  4  3  1  0
  5  4  2  0
  6  2  1  0
  7  6  2  0
  8  4  1  0
 10  9  1  1
 10 12  1  0
 11 10  1  0
 13 12  1  6
 13 14  1  0
 14  6  1  0
 15 22  1  0
 15 13  1  0
 16 15  2  0
 18 19  2  0
 18 17  1  0
 20 18  1  0
 21 20  1  6
 21 22  1  0
 23 25  1  0
 23 21  1  0
 24 23  2  0
M  END
$$$$
