DLN.pdb
     RDKit          3D

 25 24  0  0  1  0  0  0  0  0999 V2000
    7.9149  -16.0669   22.0847 N   0  0  0  0  0  0  0  0  0  0  0  0
    9.3410  -16.2114   22.2896 C   0  0  1  0  0  0  0  0  0  0  0  0
   10.0164  -15.4913   21.1297 C   0  0  0  0  0  0  0  0  0  0  0  0
   10.3395  -16.4564   20.0736 C   0  0  0  0  0  0  0  0  0  0  0  0
    9.6629  -17.5062   19.9529 O   0  0  0  0  0  0  0  0  0  0  0  0
    9.7748  -15.5887   23.5697 C   0  0  0  0  0  0  0  0  0  0  0  0
   10.9848  -15.6276   23.9499 O   0  0  0  0  0  0  0  0  0  0  0  0
   11.3807  -16.2429   19.1948 O   0  0  0  0  0  0  0  0  0  0  0  0
    6.9298  -12.6599   24.0456 C   0  0  0  0  0  0  0  0  0  0  0  0
    6.9392  -13.3422   25.3894 C   0  0  2  0  0  0  0  0  0  0  0  0
    5.9510  -12.6002   26.2759 C   0  0  0  0  0  0  0  0  0  0  0  0
    8.2768  -13.2634   26.0383 C   0  0  0  0  0  0  0  0  0  0  0  0
    9.1294  -14.4865   25.7451 C   0  0  2  0  0  0  0  0  0  0  0  0
    8.8571  -14.9292   24.4124 N   0  0  0  0  0  0  0  0  0  0  0  0
    8.8945  -15.5376   26.7657 C   0  0  0  0  0  0  0  0  0  0  0  0
    8.9657  -15.2712   27.9885 O   0  0  0  0  0  0  0  0  0  0  0  0
    6.1269  -20.2241   28.6398 N   0  0  0  0  0  0  0  0  0  0  0  0
    7.1962  -20.0821   27.7010 C   0  0  0  0  0  0  0  0  0  0  0  0
    8.0172  -21.0213   27.6377 O   0  0  0  0  0  0  0  0  0  0  0  0
    7.3327  -18.8962   26.8487 C   0  0  0  0  0  0  0  0  0  0  0  0
    8.3400  -17.9446   27.3688 C   0  0  2  0  0  0  0  0  0  0  0  0
    8.5849  -16.8634   26.3701 N   0  0  0  0  0  0  0  0  0  0  0  0
    9.6787  -18.5485   27.6549 C   0  0  0  0  0  0  0  0  0  0  0  0
   10.5604  -18.5878   26.8092 O   0  0  0  0  0  0  0  0  0  0  0  0
    9.9749  -19.0954   28.9091 O   0  0  0  0  0  0  0  0  0  0  0  0
  2  1  1  6
  2  3  1  0
  4  3  1  0
  5  4  2  0
  6  2  1  0
  7  6  2  0
  8  4  1  0
 10  9  1  6
 10 12  1  0
 11 10  1  0
 13 12  1  1
 13 14  1  0
 14  6  1  0
 15 22  1  0
 15 13  1  0
 16 15  2  0
 18 19  2  0
 18 17  1  0
 20 18  1  0
 21 20  1  6
 21 22  1  0
 23 25  1  0
 23 21  1  0
 24 23  2  0
M  END
$$$$
