DLN.pdb
     RDKit          3D

 25 24  0  0  1  0  0  0  0  0999 V2000
    9.2270  -18.1540   18.4305 N   0  0  0  0  0  0  0  0  0  0  0  0
   10.5004  -17.4762   18.3064 C   0  0  1  0  0  0  0  0  0  0  0  0
   10.4846  -16.7770   16.9533 C   0  0  0  0  0  0  0  0  0  0  0  0
   10.4474  -17.7792   15.8829 C   0  0  0  0  0  0  0  0  0  0  0  0
   10.0735  -18.9508   16.1315 O   0  0  0  0  0  0  0  0  0  0  0  0
   10.6853  -16.4606   19.3783 C   0  0  0  0  0  0  0  0  0  0  0  0
   11.8361  -16.0248   19.6881 O   0  0  0  0  0  0  0  0  0  0  0  0
   10.8167  -17.4691   14.5908 O   0  0  0  0  0  0  0  0  0  0  0  0
    8.4511  -12.7260   19.4119 C   0  0  0  0  0  0  0  0  0  0  0  0
    7.7108  -13.8964   20.0065 C   0  0  2  0  0  0  0  0  0  0  0  0
    6.2859  -13.4368   20.2736 C   0  0  0  0  0  0  0  0  0  0  0  0
    8.3010  -14.3193   21.3062 C   0  0  0  0  0  0  0  0  0  0  0  0
    9.6669  -14.9624   21.1338 C   0  0  2  0  0  0  0  0  0  0  0  0
    9.5873  -15.9409   20.0934 N   0  0  0  0  0  0  0  0  0  0  0  0
   10.1413  -15.5227   22.4232 C   0  0  0  0  0  0  0  0  0  0  0  0
   10.2518  -14.7938   23.4370 O   0  0  0  0  0  0  0  0  0  0  0  0
   10.4350  -20.3081   25.9554 N   0  0  0  0  0  0  0  0  0  0  0  0
   11.2516  -19.5804   25.0343 C   0  0  0  0  0  0  0  0  0  0  0  0
   12.4720  -19.5182   25.2927 O   0  0  0  0  0  0  0  0  0  0  0  0
   10.6946  -18.9342   23.8411 C   0  0  0  0  0  0  0  0  0  0  0  0
   10.9935  -17.4853   23.7968 C   0  0  2  0  0  0  0  0  0  0  0  0
   10.4779  -16.8961   22.5266 N   0  0  0  0  0  0  0  0  0  0  0  0
   12.4504  -17.1476   23.8430 C   0  0  0  0  0  0  0  0  0  0  0  0
   12.9664  -16.6612   24.8386 O   0  0  0  0  0  0  0  0  0  0  0  0
   13.2834  -17.3763   22.7414 O   0  0  0  0  0  0  0  0  0  0  0  0
  2  1  1  1
  2  3  1  0
  4  3  1  0
  5  4  2  0
  6  2  1  0
  7  6  2  0
  8  4  1  0
 10  9  1  1
 10 12  1  0
 11 10  1  0
 13 12  1  1
 13 14  1  0
 14  6  1  0
 15 22  1  0
 15 13  1  0
 16 15  2  0
 18 19  2  0
 18 17  1  0
 20 18  1  0
 21 20  1  6
 21 22  1  0
 23 25  1  0
 23 21  1  0
 24 23  2  0
M  END
$$$$
