DLN.pdb
     RDKit          3D

 25 24  0  0  1  0  0  0  0  0999 V2000
    7.5328  -16.4308   21.9003 N   0  0  0  0  0  0  0  0  0  0  0  0
    8.9457  -16.1172   21.9434 C   0  0  1  0  0  0  0  0  0  0  0  0
    9.2061  -15.1502   20.7958 C   0  0  0  0  0  0  0  0  0  0  0  0
    9.0528  -15.8525   19.5173 C   0  0  0  0  0  0  0  0  0  0  0  0
    8.0174  -15.6855   18.8285 O   0  0  0  0  0  0  0  0  0  0  0  0
    9.3212  -15.4639   23.2268 C   0  0  0  0  0  0  0  0  0  0  0  0
   10.4955  -15.0286   23.4310 O   0  0  0  0  0  0  0  0  0  0  0  0
   10.0268  -16.7047   19.0408 O   0  0  0  0  0  0  0  0  0  0  0  0
    7.9886  -11.8644   25.4931 C   0  0  0  0  0  0  0  0  0  0  0  0
    6.9944  -12.9927   25.3934 C   0  0  2  0  0  0  0  0  0  0  0  0
    5.6929  -12.4990   26.0062 C   0  0  0  0  0  0  0  0  0  0  0  0
    7.4350  -14.1857   26.1674 C   0  0  0  0  0  0  0  0  0  0  0  0
    8.6854  -14.8197   25.5814 C   0  0  2  0  0  0  0  0  0  0  0  0
    8.3855  -15.3020   24.2685 N   0  0  0  0  0  0  0  0  0  0  0  0
    9.2011  -15.8777   26.4850 C   0  0  0  0  0  0  0  0  0  0  0  0
    9.3845  -15.6467   27.7034 O   0  0  0  0  0  0  0  0  0  0  0  0
   11.0610  -20.5101   28.1375 N   0  0  0  0  0  0  0  0  0  0  0  0
    9.8295  -20.6192   27.4189 C   0  0  0  0  0  0  0  0  0  0  0  0
    9.2641  -21.7328   27.4381 O   0  0  0  0  0  0  0  0  0  0  0  0
    9.2488  -19.4858   26.6910 C   0  0  0  0  0  0  0  0  0  0  0  0
   10.0438  -18.2481   26.8537 C   0  0  2  0  0  0  0  0  0  0  0  0
    9.4947  -17.1698   25.9807 N   0  0  0  0  0  0  0  0  0  0  0  0
   11.4870  -18.3807   26.4817 C   0  0  0  0  0  0  0  0  0  0  0  0
   12.2580  -19.0706   27.1327 O   0  0  0  0  0  0  0  0  0  0  0  0
   12.0132  -17.7156   25.3680 O   0  0  0  0  0  0  0  0  0  0  0  0
  2  1  1  1
  2  3  1  0
  4  3  1  0
  5  4  2  0
  6  2  1  0
  7  6  2  0
  8  4  1  0
 10  9  1  1
 10 12  1  0
 11 10  1  0
 13 12  1  1
 13 14  1  0
 14  6  1  0
 15 22  1  0
 15 13  1  0
 16 15  2  0
 18 19  2  0
 18 17  1  0
 20 18  1  0
 21 20  1  6
 21 22  1  0
 23 25  1  0
 23 21  1  0
 24 23  2  0
M  END
$$$$
