PIP.pdb
     RDKit          3D

 23 24  0  0  1  0  0  0  0  0999 V2000
   21.8059  -21.8186  -12.7542 N   0  0  0  0  0  0  0  0  0  0  0  0
   20.4947  -21.9591  -13.3784 C   0  0  0  0  0  0  0  0  0  0  0  0
   20.1905  -20.6061  -13.9969 C   0  0  0  0  0  0  0  0  0  0  0  0
   21.4611  -19.7981  -13.7907 C   0  0  0  0  0  0  0  0  0  0  0  0
   22.4876  -20.9307  -13.6566 C   0  0  1  0  0  0  0  0  0  0  0  0
   23.7741  -20.4470  -13.1403 C   0  0  0  0  0  0  0  0  0  0  0  0
   24.4316  -19.5938  -13.7766 O   0  0  0  0  0  0  0  0  0  0  0  0
   26.2596  -19.6451   -7.6590 C   0  0  0  0  0  0  0  0  0  0  0  0
   26.4949  -19.6906   -9.1352 C   0  0  0  0  0  0  0  0  0  0  0  0
   25.3620  -20.2907   -9.8800 C   0  0  2  0  0  0  0  0  0  0  0  0
   25.0763  -21.6568   -9.2790 C   0  0  0  0  0  0  0  0  0  0  0  0
   25.5580  -20.3845  -11.3800 C   0  0  2  0  0  0  0  0  0  0  0  0
   24.3356  -20.9131  -11.9093 N   0  0  0  0  0  0  0  0  0  0  0  0
   26.7305  -21.0987  -11.7863 C   0  0  0  0  0  0  0  0  0  0  0  0
   26.7559  -22.3590  -11.4904 O   0  0  0  0  0  0  0  0  0  0  0  0
   27.8370  -20.6125  -12.4527 N   0  0  0  0  0  0  0  0  0  0  0  0
   28.0909  -19.2708  -12.8885 C   0  0  0  0  0  0  0  0  0  0  0  0
   29.5995  -19.2266  -13.1777 C   0  0  0  0  0  0  0  0  0  0  0  0
   29.7739  -20.6095  -13.7803 C   0  0  0  0  0  0  0  0  0  0  0  0
   28.9916  -21.4476  -12.8215 C   0  0  1  0  0  0  0  0  0  0  0  0
   29.8159  -21.6878  -11.6314 C   0  0  0  0  0  0  0  0  0  0  0  0
   30.8905  -22.5638  -11.6424 O   0  0  0  0  0  0  0  0  0  0  0  0
   29.5588  -21.0919  -10.5563 O   0  0  0  0  0  0  0  0  0  0  0  0
  2  3  1  0
  2  1  1  0
  3  4  1  0
  5  1  1  0
  5  4  1  0
  5  6  1  1
  6  7  2  0
  8  9  1  0
  9 10  1  0
 10 11  1  1
 10 12  1  0
 12 14  1  0
 13  6  1  0
 12 13  1  6
 14 16  1  0
 14 15  2  0
 16 17  1  0
 17 18  1  0
 19 18  1  0
 20 16  1  0
 20 19  1  0
 20 21  1  1
 22 21  1  0
 23 21  2  0
M  END
$$$$
