PIP.pdb
     RDKit          3D

 23 24  0  0  1  0  0  0  0  0999 V2000
   22.8046  -18.8326  -19.0446 N   0  0  0  0  0  0  0  0  0  0  0  0
   22.7844  -20.2101  -19.5248 C   0  0  0  0  0  0  0  0  0  0  0  0
   22.0597  -21.0049  -18.4529 C   0  0  0  0  0  0  0  0  0  0  0  0
   21.5788  -19.9581  -17.4615 C   0  0  0  0  0  0  0  0  0  0  0  0
   21.5416  -18.7197  -18.3668 C   0  0  1  0  0  0  0  0  0  0  0  0
   21.4017  -17.4791  -17.5941 C   0  0  0  0  0  0  0  0  0  0  0  0
   20.3473  -17.2405  -16.9646 O   0  0  0  0  0  0  0  0  0  0  0  0
   22.7758  -13.9910  -13.8883 C   0  0  0  0  0  0  0  0  0  0  0  0
   23.6832  -13.9788  -15.0770 C   0  0  0  0  0  0  0  0  0  0  0  0
   23.5687  -15.2063  -15.9007 C   0  0  2  0  0  0  0  0  0  0  0  0
   24.8084  -15.3028  -16.7740 C   0  0  0  0  0  0  0  0  0  0  0  0
   22.3057  -15.3053  -16.7327 C   0  0  2  0  0  0  0  0  0  0  0  0
   22.4389  -16.4960  -17.5190 N   0  0  0  0  0  0  0  0  0  0  0  0
   21.9970  -14.1319  -17.4928 C   0  0  0  0  0  0  0  0  0  0  0  0
   22.9003  -13.7525  -18.3394 O   0  0  0  0  0  0  0  0  0  0  0  0
   20.8582  -13.3542  -17.4357 N   0  0  0  0  0  0  0  0  0  0  0  0
   19.7234  -13.5056  -16.5735 C   0  0  0  0  0  0  0  0  0  0  0  0
   18.9840  -12.1607  -16.6512 C   0  0  0  0  0  0  0  0  0  0  0  0
   19.1882  -11.8539  -18.1243 C   0  0  0  0  0  0  0  0  0  0  0  0
   20.6374  -12.1781  -18.2930 C   0  0  1  0  0  0  0  0  0  0  0  0
   21.4298  -11.0524  -17.7849 C   0  0  0  0  0  0  0  0  0  0  0  0
   21.5534   -9.8616  -18.4844 O   0  0  0  0  0  0  0  0  0  0  0  0
   22.0244  -11.1471  -16.6829 O   0  0  0  0  0  0  0  0  0  0  0  0
  2  3  1  0
  2  1  1  0
  3  4  1  0
  5  1  1  0
  5  4  1  0
  5  6  1  1
  6  7  2  0
  8  9  1  0
  9 10  1  0
 10 11  1  6
 10 12  1  0
 12 14  1  0
 13  6  1  0
 12 13  1  6
 14 16  1  0
 14 15  2  0
 16 17  1  0
 17 18  1  0
 19 18  1  0
 20 16  1  0
 20 19  1  0
 20 21  1  1
 22 21  1  0
 23 21  2  0
M  END
$$$$
