PIP.pdb
     RDKit          3D

 23 24  0  0  1  0  0  0  0  0999 V2000
   21.0537  -12.4824  -20.1153 N   0  0  0  0  0  0  0  0  0  0  0  0
   21.4366  -12.7663  -21.4942 C   0  0  0  0  0  0  0  0  0  0  0  0
   21.3642  -11.4344  -22.2198 C   0  0  0  0  0  0  0  0  0  0  0  0
   21.0653  -10.4207  -21.1275 C   0  0  0  0  0  0  0  0  0  0  0  0
   21.6037  -11.1712  -19.9022 C   0  0  1  0  0  0  0  0  0  0  0  0
   21.1681  -10.5519  -18.6443 C   0  0  0  0  0  0  0  0  0  0  0  0
   19.9863  -10.6761  -18.2531 O   0  0  0  0  0  0  0  0  0  0  0  0
   23.9993  -11.5720  -14.8822 C   0  0  0  0  0  0  0  0  0  0  0  0
   22.6661  -11.1336  -15.3989 C   0  0  0  0  0  0  0  0  0  0  0  0
   22.5501   -9.6599  -15.5139 C   0  0  2  0  0  0  0  0  0  0  0  0
   22.1483   -9.1133  -14.1542 C   0  0  0  0  0  0  0  0  0  0  0  0
   21.6091   -9.1729  -16.5977 C   0  0  2  0  0  0  0  0  0  0  0  0
   22.0496   -9.7892  -17.8142 N   0  0  0  0  0  0  0  0  0  0  0  0
   21.4736   -7.7497  -16.6767 C   0  0  0  0  0  0  0  0  0  0  0  0
   22.5709   -7.0863  -16.8563 O   0  0  0  0  0  0  0  0  0  0  0  0
   20.3207   -6.9966  -16.5845 N   0  0  0  0  0  0  0  0  0  0  0  0
   18.9761   -7.4537  -16.3912 C   0  0  0  0  0  0  0  0  0  0  0  0
   18.1922   -6.2064  -15.9540 C   0  0  0  0  0  0  0  0  0  0  0  0
   18.8649   -5.1719  -16.8390 C   0  0  0  0  0  0  0  0  0  0  0  0
   20.3058   -5.5267  -16.6613 C   0  0  1  0  0  0  0  0  0  0  0  0
   20.7697   -4.9699  -15.3853 C   0  0  0  0  0  0  0  0  0  0  0  0
   21.0794   -3.6269  -15.2352 O   0  0  0  0  0  0  0  0  0  0  0  0
   20.8981   -5.7148  -14.3825 O   0  0  0  0  0  0  0  0  0  0  0  0
  2  3  1  0
  2  1  1  0
  3  4  1  0
  5  1  1  0
  5  4  1  0
  5  6  1  1
  6  7  2  0
  8  9  1  0
  9 10  1  0
 10 11  1  1
 10 12  1  0
 12 14  1  0
 13  6  1  0
 12 13  1  6
 14 16  1  0
 14 15  2  0
 16 17  1  0
 17 18  1  0
 19 18  1  0
 20 16  1  0
 20 19  1  0
 20 21  1  1
 22 21  1  0
 23 21  2  0
M  END
$$$$
