PIP.pdb
     RDKit          3D

 23 24  0  0  1  0  0  0  0  0999 V2000
   26.1652  -11.9958  -17.6575 N   0  0  0  0  0  0  0  0  0  0  0  0
   27.2722  -12.7758  -17.1144 C   0  0  0  0  0  0  0  0  0  0  0  0
   27.7409  -12.0172  -15.8854 C   0  0  0  0  0  0  0  0  0  0  0  0
   26.7390  -10.8849  -15.7308 C   0  0  0  0  0  0  0  0  0  0  0  0
   25.5350  -11.4810  -16.4721 C   0  0  1  0  0  0  0  0  0  0  0  0
   24.5060  -10.4710  -16.7487 C   0  0  0  0  0  0  0  0  0  0  0  0
   24.5545   -9.7875  -17.7954 O   0  0  0  0  0  0  0  0  0  0  0  0
   19.4352   -9.2992  -17.7346 C   0  0  0  0  0  0  0  0  0  0  0  0
   19.8818   -9.1402  -16.3162 C   0  0  0  0  0  0  0  0  0  0  0  0
   21.0756   -9.9584  -15.9939 C   0  0  2  0  0  0  0  0  0  0  0  0
   20.9064  -10.5005  -14.5845 C   0  0  0  0  0  0  0  0  0  0  0  0
   22.4036   -9.2445  -16.1485 C   0  0  2  0  0  0  0  0  0  0  0  0
   23.4151  -10.2172  -15.8580 N   0  0  0  0  0  0  0  0  0  0  0  0
   22.5220   -8.0323  -15.3956 C   0  0  0  0  0  0  0  0  0  0  0  0
   22.5383   -8.1658  -14.1078 O   0  0  0  0  0  0  0  0  0  0  0  0
   22.6198   -6.7400  -15.8701 N   0  0  0  0  0  0  0  0  0  0  0  0
   22.5654   -6.2879  -17.2292 C   0  0  0  0  0  0  0  0  0  0  0  0
   22.3072   -4.7761  -17.1342 C   0  0  0  0  0  0  0  0  0  0  0  0
   23.1656   -4.4567  -15.9230 C   0  0  0  0  0  0  0  0  0  0  0  0
   22.7899   -5.5676  -14.9965 C   0  0  1  0  0  0  0  0  0  0  0  0
   21.5039   -5.2388  -14.3709 C   0  0  0  0  0  0  0  0  0  0  0  0
   20.3175   -5.8400  -14.7625 O   0  0  0  0  0  0  0  0  0  0  0  0
   21.4512   -4.3882  -13.4486 O   0  0  0  0  0  0  0  0  0  0  0  0
  2  3  1  0
  2  1  1  0
  3  4  1  0
  5  1  1  0
  5  4  1  0
  5  6  1  6
  6  7  2  0
  8  9  1  0
  9 10  1  0
 10 11  1  1
 10 12  1  0
 12 14  1  0
 13  6  1  0
 12 13  1  1
 14 16  1  0
 14 15  2  0
 16 17  1  0
 17 18  1  0
 19 18  1  0
 20 16  1  0
 20 19  1  0
 20 21  1  6
 22 21  1  0
 23 21  2  0
M  END
$$$$
