PIP.pdb
     RDKit          3D

 23 24  0  0  1  0  0  0  0  0999 V2000
   27.1189  -17.7325  -14.6142 N   0  0  0  0  0  0  0  0  0  0  0  0
   28.0052  -16.9567  -15.4751 C   0  0  0  0  0  0  0  0  0  0  0  0
   29.2982  -17.7494  -15.5491 C   0  0  0  0  0  0  0  0  0  0  0  0
   28.9972  -19.0404  -14.8057 C   0  0  0  0  0  0  0  0  0  0  0  0
   27.4698  -19.0871  -14.9446 C   0  0  1  0  0  0  0  0  0  0  0  0
   26.8675  -20.0822  -14.0487 C   0  0  0  0  0  0  0  0  0  0  0  0
   27.0404  -21.3044  -14.2520 O   0  0  0  0  0  0  0  0  0  0  0  0
   26.9190  -19.9641   -8.8217 C   0  0  0  0  0  0  0  0  0  0  0  0
   26.7784  -20.5018  -10.2102 C   0  0  0  0  0  0  0  0  0  0  0  0
   25.4044  -20.3546  -10.7476 C   0  0  2  0  0  0  0  0  0  0  0  0
   24.4767  -21.2146   -9.9060 C   0  0  0  0  0  0  0  0  0  0  0  0
   25.2548  -20.6716  -12.2221 C   0  0  2  0  0  0  0  0  0  0  0  0
   26.0676  -19.7191  -12.9191 N   0  0  0  0  0  0  0  0  0  0  0  0
   23.9015  -20.7381  -12.6851 C   0  0  0  0  0  0  0  0  0  0  0  0
   23.1758  -19.6889  -12.4635 O   0  0  0  0  0  0  0  0  0  0  0  0
   23.2734  -21.7801  -13.3367 N   0  0  0  0  0  0  0  0  0  0  0  0
   23.7837  -23.0914  -13.6097 C   0  0  0  0  0  0  0  0  0  0  0  0
   22.5472  -23.9324  -13.9635 C   0  0  0  0  0  0  0  0  0  0  0  0
   21.7609  -22.8948  -14.7451 C   0  0  0  0  0  0  0  0  0  0  0  0
   21.9019  -21.6956  -13.8643 C   0  0  1  0  0  0  0  0  0  0  0  0
   20.9479  -21.8160  -12.7558 C   0  0  0  0  0  0  0  0  0  0  0  0
   19.6053  -21.5014  -12.9001 O   0  0  0  0  0  0  0  0  0  0  0  0
   21.3369  -22.2149  -11.6304 O   0  0  0  0  0  0  0  0  0  0  0  0
  2  3  1  0
  2  1  1  0
  3  4  1  0
  5  1  1  0
  5  4  1  0
  5  6  1  1
  6  7  2  0
  8  9  1  0
  9 10  1  0
 10 11  1  1
 10 12  1  0
 12 14  1  0
 13  6  1  0
 12 13  1  6
 14 16  1  0
 14 15  2  0
 16 17  1  0
 17 18  1  0
 19 18  1  0
 20 16  1  0
 20 19  1  0
 20 21  1  1
 22 21  1  0
 23 21  2  0
M  END
$$$$
