PIP.pdb
     RDKit          3D

 23 24  0  0  1  0  0  0  0  0999 V2000
   27.9427  -18.5163  -15.9657 N   0  0  0  0  0  0  0  0  0  0  0  0
   28.9258  -17.9553  -16.8861 C   0  0  0  0  0  0  0  0  0  0  0  0
   29.9669  -19.0430  -17.0831 C   0  0  0  0  0  0  0  0  0  0  0  0
   29.4090  -20.2445  -16.3381 C   0  0  0  0  0  0  0  0  0  0  0  0
   27.9132  -19.9023  -16.3470 C   0  0  1  0  0  0  0  0  0  0  0  0
   27.1513  -20.7478  -15.4196 C   0  0  0  0  0  0  0  0  0  0  0  0
   27.0134  -21.9706  -15.6449 O   0  0  0  0  0  0  0  0  0  0  0  0
   25.8505  -21.1469   -9.5375 C   0  0  0  0  0  0  0  0  0  0  0  0
   25.3329  -21.4063  -10.9164 C   0  0  0  0  0  0  0  0  0  0  0  0
   26.1710  -20.7873  -11.9713 C   0  0  2  0  0  0  0  0  0  0  0  0
   26.2615  -19.2978  -11.6848 C   0  0  0  0  0  0  0  0  0  0  0  0
   25.7075  -21.0429  -13.3915 C   0  0  2  0  0  0  0  0  0  0  0  0
   26.5379  -20.2333  -14.2334 N   0  0  0  0  0  0  0  0  0  0  0  0
   24.3032  -20.8616  -13.6039 C   0  0  0  0  0  0  0  0  0  0  0  0
   23.8598  -19.6543  -13.4549 O   0  0  0  0  0  0  0  0  0  0  0  0
   23.3630  -21.8122  -13.9464 N   0  0  0  0  0  0  0  0  0  0  0  0
   23.5340  -23.2315  -14.0497 C   0  0  0  0  0  0  0  0  0  0  0  0
   22.1079  -23.8041  -14.0452 C   0  0  0  0  0  0  0  0  0  0  0  0
   21.4129  -22.7367  -14.8719 C   0  0  0  0  0  0  0  0  0  0  0  0
   21.9616  -21.4885  -14.2598 C   0  0  1  0  0  0  0  0  0  0  0  0
   21.2353  -21.2217  -13.0130 C   0  0  0  0  0  0  0  0  0  0  0  0
   19.9787  -20.6359  -13.0018 O   0  0  0  0  0  0  0  0  0  0  0  0
   21.7483  -21.5252  -11.9078 O   0  0  0  0  0  0  0  0  0  0  0  0
  2  3  1  0
  2  1  1  0
  3  4  1  0
  5  1  1  0
  5  4  1  0
  5  6  1  1
  6  7  2  0
  8  9  1  0
  9 10  1  0
 10 11  1  1
 10 12  1  0
 12 14  1  0
 13  6  1  0
 12 13  1  6
 14 16  1  0
 14 15  2  0
 16 17  1  0
 17 18  1  0
 19 18  1  0
 20 16  1  0
 20 19  1  0
 20 21  1  1
 22 21  1  0
 23 21  2  0
M  END
$$$$
