PIP.pdb
     RDKit          3D

 23 24  0  0  1  0  0  0  0  0999 V2000
   20.4816  -11.2475  -20.0911 N   0  0  0  0  0  0  0  0  0  0  0  0
   20.5995  -11.3215  -21.5435 C   0  0  0  0  0  0  0  0  0  0  0  0
   20.3556   -9.9091  -22.0447 C   0  0  0  0  0  0  0  0  0  0  0  0
   20.2468   -9.0697  -20.7823 C   0  0  0  0  0  0  0  0  0  0  0  0
   21.0292   -9.9505  -19.7992 C   0  0  1  0  0  0  0  0  0  0  0  0
   20.8280   -9.5310  -18.4067 C   0  0  0  0  0  0  0  0  0  0  0  0
   19.7161   -9.6826  -17.8538 O   0  0  0  0  0  0  0  0  0  0  0  0
   23.6392  -11.5625  -14.9084 C   0  0  0  0  0  0  0  0  0  0  0  0
   22.5975  -10.8168  -15.6801 C   0  0  0  0  0  0  0  0  0  0  0  0
   22.6330   -9.3557  -15.4308 C   0  0  2  0  0  0  0  0  0  0  0  0
   22.4094   -9.1275  -13.9453 C   0  0  0  0  0  0  0  0  0  0  0  0
   21.6624   -8.5394  -16.2607 C   0  0  2  0  0  0  0  0  0  0  0  0
   21.8677   -8.9389  -17.6215 N   0  0  0  0  0  0  0  0  0  0  0  0
   21.7352   -7.1255  -16.0470 C   0  0  0  0  0  0  0  0  0  0  0  0
   22.8981   -6.5855  -16.2272 O   0  0  0  0  0  0  0  0  0  0  0  0
   20.7220   -6.2664  -15.6724 N   0  0  0  0  0  0  0  0  0  0  0  0
   19.3582   -6.5839  -15.3661 C   0  0  0  0  0  0  0  0  0  0  0  0
   18.8197   -5.3486  -14.6276 C   0  0  0  0  0  0  0  0  0  0  0  0
   19.5241   -4.2625  -15.4214 C   0  0  0  0  0  0  0  0  0  0  0  0
   20.9097   -4.8156  -15.5092 C   0  0  1  0  0  0  0  0  0  0  0  0
   21.5975   -4.5556  -14.2394 C   0  0  0  0  0  0  0  0  0  0  0  0
   22.1618   -3.3240  -13.9443 O   0  0  0  0  0  0  0  0  0  0  0  0
   21.6907   -5.4629  -13.3762 O   0  0  0  0  0  0  0  0  0  0  0  0
  2  3  1  0
  2  1  1  0
  3  4  1  0
  5  1  1  0
  5  4  1  0
  5  6  1  1
  6  7  2  0
  8  9  1  0
  9 10  1  0
 10 11  1  1
 10 12  1  0
 12 14  1  0
 13  6  1  0
 12 13  1  6
 14 16  1  0
 14 15  2  0
 16 17  1  0
 17 18  1  0
 19 18  1  0
 20 16  1  0
 20 19  1  0
 20 21  1  1
 22 21  1  0
 23 21  2  0
M  END
$$$$
