PIP.pdb
     RDKit          3D

 23 24  0  0  1  0  0  0  0  0999 V2000
   26.5239  -20.4466  -11.3856 N   0  0  0  0  0  0  0  0  0  0  0  0
   25.3145  -20.2341  -12.1736 C   0  0  0  0  0  0  0  0  0  0  0  0
   24.1591  -20.5422  -11.2378 C   0  0  0  0  0  0  0  0  0  0  0  0
   24.8153  -20.7859   -9.8887 C   0  0  0  0  0  0  0  0  0  0  0  0
   26.1244  -20.0077  -10.0760 C   0  0  1  0  0  0  0  0  0  0  0  0
   27.1047  -20.3230   -9.0295 C   0  0  0  0  0  0  0  0  0  0  0  0
   27.7705  -21.3808   -9.0832 O   0  0  0  0  0  0  0  0  0  0  0  0
   30.7242  -17.4549   -5.0936 C   0  0  0  0  0  0  0  0  0  0  0  0
   30.0428  -18.7369   -5.4524 C   0  0  0  0  0  0  0  0  0  0  0  0
   28.9882  -18.5599   -6.4793 C   0  0  2  0  0  0  0  0  0  0  0  0
   28.0395  -17.4759   -5.9958 C   0  0  0  0  0  0  0  0  0  0  0  0
   28.2332  -19.8215   -6.8478 C   0  0  2  0  0  0  0  0  0  0  0  0
   27.3483  -19.4589   -7.9152 N   0  0  0  0  0  0  0  0  0  0  0  0
   27.5895  -20.4756   -5.7488 C   0  0  0  0  0  0  0  0  0  0  0  0
   26.3221  -20.2457   -5.6175 O   0  0  0  0  0  0  0  0  0  0  0  0
   28.1505  -21.3193   -4.8117 N   0  0  0  0  0  0  0  0  0  0  0  0
   29.5250  -21.7006   -4.6719 C   0  0  0  0  0  0  0  0  0  0  0  0
   29.6309  -22.2911   -3.2571 C   0  0  0  0  0  0  0  0  0  0  0  0
   28.2973  -23.0145   -3.1934 C   0  0  0  0  0  0  0  0  0  0  0  0
   27.3748  -21.9776   -3.7478 C   0  0  1  0  0  0  0  0  0  0  0  0
   27.0780  -21.0038   -2.6911 C   0  0  0  0  0  0  0  0  0  0  0  0
   27.8461  -19.8656   -2.4994 O   0  0  0  0  0  0  0  0  0  0  0  0
   26.1014  -21.1858   -1.9228 O   0  0  0  0  0  0  0  0  0  0  0  0
  2  3  1  0
  2  1  1  0
  3  4  1  0
  5  1  1  0
  5  4  1  0
  5  6  1  1
  6  7  2  0
  8  9  1  0
  9 10  1  0
 10 11  1  1
 10 12  1  0
 12 14  1  0
 13  6  1  0
 12 13  1  6
 14 16  1  0
 14 15  2  0
 16 17  1  0
 17 18  1  0
 19 18  1  0
 20 16  1  0
 20 19  1  0
 20 21  1  1
 22 21  1  0
 23 21  2  0
M  END
$$$$
