PIP.pdb
     RDKit          3D

 23 24  0  0  1  0  0  0  0  0999 V2000
   24.4777  -20.7054   -9.6142 N   0  0  0  0  0  0  0  0  0  0  0  0
   23.5044  -20.7038  -10.7012 C   0  0  0  0  0  0  0  0  0  0  0  0
   24.2353  -20.1294  -11.9018 C   0  0  0  0  0  0  0  0  0  0  0  0
   25.6712  -19.9648  -11.4315 C   0  0  0  0  0  0  0  0  0  0  0  0
   25.7084  -20.9980  -10.2977 C   0  0  1  0  0  0  0  0  0  0  0  0
   26.8983  -20.8417   -9.4518 C   0  0  0  0  0  0  0  0  0  0  0  0
   28.0410  -21.0285   -9.9254 O   0  0  0  0  0  0  0  0  0  0  0  0
   27.9306  -17.0113   -4.9199 C   0  0  0  0  0  0  0  0  0  0  0  0
   28.5225  -17.9961   -5.8772 C   0  0  0  0  0  0  0  0  0  0  0  0
   27.5005  -18.6740   -6.7105 C   0  0  2  0  0  0  0  0  0  0  0  0
   26.2630  -18.8866   -5.8547 C   0  0  0  0  0  0  0  0  0  0  0  0
   27.9517  -19.9720   -7.3498 C   0  0  2  0  0  0  0  0  0  0  0  0
   26.8201  -20.4756   -8.0706 N   0  0  0  0  0  0  0  0  0  0  0  0
   28.5361  -20.9136   -6.4431 C   0  0  0  0  0  0  0  0  0  0  0  0
   27.7072  -21.6943   -5.8267 O   0  0  0  0  0  0  0  0  0  0  0  0
   29.8713  -21.0927   -6.1432 N   0  0  0  0  0  0  0  0  0  0  0  0
   31.0022  -20.3959   -6.6816 C   0  0  0  0  0  0  0  0  0  0  0  0
   32.1540  -20.6994   -5.7107 C   0  0  0  0  0  0  0  0  0  0  0  0
   31.8295  -22.1480   -5.3911 C   0  0  0  0  0  0  0  0  0  0  0  0
   30.3551  -22.0734   -5.1579 C   0  0  1  0  0  0  0  0  0  0  0  0
   30.1222  -21.5561   -3.8046 C   0  0  0  0  0  0  0  0  0  0  0  0
   30.3383  -22.3269   -2.6725 O   0  0  0  0  0  0  0  0  0  0  0  0
   29.7137  -20.3800   -3.6414 O   0  0  0  0  0  0  0  0  0  0  0  0
  2  3  1  0
  2  1  1  0
  3  4  1  0
  5  1  1  0
  5  4  1  0
  5  6  1  1
  6  7  2  0
  8  9  1  0
  9 10  1  0
 10 11  1  1
 10 12  1  0
 12 14  1  0
 13  6  1  0
 12 13  1  1
 14 16  1  0
 14 15  2  0
 16 17  1  0
 17 18  1  0
 19 18  1  0
 20 16  1  0
 20 19  1  0
 20 21  1  1
 22 21  1  0
 23 21  2  0
M  END
$$$$
