PIP.pdb
     RDKit          3D

 23 24  0  0  1  0  0  0  0  0999 V2000
   28.1908  -19.4753  -17.0116 N   0  0  0  0  0  0  0  0  0  0  0  0
   28.4696  -18.2896  -17.8146 C   0  0  0  0  0  0  0  0  0  0  0  0
   27.2028  -17.4541  -17.7613 C   0  0  0  0  0  0  0  0  0  0  0  0
   26.3033  -18.1873  -16.7799 C   0  0  0  0  0  0  0  0  0  0  0  0
   27.3536  -18.9540  -15.9654 C   0  0  1  0  0  0  0  0  0  0  0  0
   26.7457  -19.9964  -15.1290 C   0  0  0  0  0  0  0  0  0  0  0  0
   26.5519  -21.1439  -15.5881 O   0  0  0  0  0  0  0  0  0  0  0  0
   25.7958  -21.3646   -9.2450 C   0  0  0  0  0  0  0  0  0  0  0  0
   25.3705  -21.5607  -10.6654 C   0  0  0  0  0  0  0  0  0  0  0  0
   25.9953  -20.5868  -11.5925 C   0  0  2  0  0  0  0  0  0  0  0  0
   25.7319  -19.1906  -11.0538 C   0  0  0  0  0  0  0  0  0  0  0  0
   25.5574  -20.7055  -13.0386 C   0  0  2  0  0  0  0  0  0  0  0  0
   26.3499  -19.7645  -13.7735 N   0  0  0  0  0  0  0  0  0  0  0  0
   24.1471  -20.5754  -13.2489 C   0  0  0  0  0  0  0  0  0  0  0  0
   23.6513  -19.3968  -13.0450 O   0  0  0  0  0  0  0  0  0  0  0  0
   23.2501  -21.5485  -13.6405 N   0  0  0  0  0  0  0  0  0  0  0  0
   23.4871  -22.9497  -13.8266 C   0  0  0  0  0  0  0  0  0  0  0  0
   22.0898  -23.5890  -13.8473 C   0  0  0  0  0  0  0  0  0  0  0  0
   21.3383  -22.5102  -14.6071 C   0  0  0  0  0  0  0  0  0  0  0  0
   21.8324  -21.2745  -13.9270 C   0  0  1  0  0  0  0  0  0  0  0  0
   21.1047  -21.1146  -12.6629 C   0  0  0  0  0  0  0  0  0  0  0  0
   19.8313  -20.5688  -12.6083 O   0  0  0  0  0  0  0  0  0  0  0  0
   21.6319  -21.4767  -11.5822 O   0  0  0  0  0  0  0  0  0  0  0  0
  2  3  1  0
  2  1  1  0
  3  4  1  0
  5  1  1  0
  5  4  1  0
  5  6  1  6
  6  7  2  0
  8  9  1  0
  9 10  1  0
 10 11  1  1
 10 12  1  0
 12 14  1  0
 13  6  1  0
 12 13  1  6
 14 16  1  0
 14 15  2  0
 16 17  1  0
 17 18  1  0
 19 18  1  0
 20 16  1  0
 20 19  1  0
 20 21  1  1
 22 21  1  0
 23 21  2  0
M  END
$$$$
