PIP.pdb
     RDKit          3D

 23 24  0  0  1  0  0  0  0  0999 V2000
   27.4406  -18.3153  -15.1702 N   0  0  0  0  0  0  0  0  0  0  0  0
   28.4409  -17.7089  -16.0422 C   0  0  0  0  0  0  0  0  0  0  0  0
   29.6707  -18.5922  -15.9276 C   0  0  0  0  0  0  0  0  0  0  0  0
   29.2208  -19.7632  -15.0695 C   0  0  0  0  0  0  0  0  0  0  0  0
   27.7074  -19.7203  -15.3189 C   0  0  1  0  0  0  0  0  0  0  0  0
   26.9703  -20.5594  -14.3659 C   0  0  0  0  0  0  0  0  0  0  0  0
   27.0113  -21.8065  -14.4564 O   0  0  0  0  0  0  0  0  0  0  0  0
   26.7393  -20.3337   -9.1266 C   0  0  0  0  0  0  0  0  0  0  0  0
   26.6316  -20.7617  -10.5556 C   0  0  0  0  0  0  0  0  0  0  0  0
   25.3142  -20.4394  -11.1548 C   0  0  2  0  0  0  0  0  0  0  0  0
   24.2420  -21.1346  -10.3326 C   0  0  0  0  0  0  0  0  0  0  0  0
   25.1786  -20.7772  -12.6261 C   0  0  2  0  0  0  0  0  0  0  0  0
   26.1819  -20.0114  -13.3048 N   0  0  0  0  0  0  0  0  0  0  0  0
   23.8587  -20.6164  -13.1572 C   0  0  0  0  0  0  0  0  0  0  0  0
   23.2882  -19.4786  -12.9197 O   0  0  0  0  0  0  0  0  0  0  0  0
   23.1181  -21.5221  -13.8895 N   0  0  0  0  0  0  0  0  0  0  0  0
   23.4266  -22.8916  -14.1789 C   0  0  0  0  0  0  0  0  0  0  0  0
   22.0985  -23.5068  -14.6470 C   0  0  0  0  0  0  0  0  0  0  0  0
   21.5501  -22.3325  -15.4382 C   0  0  0  0  0  0  0  0  0  0  0  0
   21.8203  -21.1978  -14.5038 C   0  0  1  0  0  0  0  0  0  0  0  0
   20.7820  -21.1895  -13.4670 C   0  0  0  0  0  0  0  0  0  0  0  0
   20.9884  -21.7399  -12.2113 O   0  0  0  0  0  0  0  0  0  0  0  0
   19.6618  -20.6727  -13.7014 O   0  0  0  0  0  0  0  0  0  0  0  0
  2  3  1  0
  2  1  1  0
  3  4  1  0
  5  1  1  0
  5  4  1  0
  5  6  1  1
  6  7  2  0
  8  9  1  0
  9 10  1  0
 10 11  1  1
 10 12  1  0
 12 14  1  0
 13  6  1  0
 12 13  1  6
 14 16  1  0
 14 15  2  0
 16 17  1  0
 17 18  1  0
 19 18  1  0
 20 16  1  0
 20 19  1  0
 20 21  1  1
 22 21  1  0
 23 21  2  0
M  END
$$$$
