KSY.pdb
     RDKit          3D

 28 28  0  0  1  0  0  0  0  0999 V2000
    9.1516  -17.1712   17.1438 N   0  0  0  0  0  0  0  0  0  0  0  0
    9.8081  -17.4142   18.3916 C   0  0  1  0  0  0  0  0  0  0  0  0
   11.2917  -17.5016   18.2749 C   0  0  0  0  0  0  0  0  0  0  0  0
   11.8201  -18.8652   18.0008 C   0  0  0  0  0  0  0  0  0  0  0  0
   13.2874  -18.9633   17.7709 C   0  0  0  0  0  0  0  0  0  0  0  0
   13.7212  -20.3467   17.3261 C   0  0  0  0  0  0  0  0  0  0  0  0
   15.1554  -20.4055   17.1411 N   0  0  0  0  0  0  0  0  0  0  0  0
    9.3699  -16.4749   19.4609 C   0  0  0  0  0  0  0  0  0  0  0  0
   10.1116  -15.5315   19.8550 O   0  0  0  0  0  0  0  0  0  0  0  0
    5.7044  -16.9550   21.3739 O   0  0  0  0  0  0  0  0  0  0  0  0
    6.1349  -15.6546   21.1968 C   0  0  0  0  0  0  0  0  0  0  0  0
    7.6428  -15.6444   21.1228 C   0  0  2  0  0  0  0  0  0  0  0  0
    8.1048  -16.5799   20.0975 N   0  0  0  0  0  0  0  0  0  0  0  0
    8.2248  -15.9415   22.4309 C   0  0  0  0  0  0  0  0  0  0  0  0
    8.6697  -17.1145   22.7007 O   0  0  0  0  0  0  0  0  0  0  0  0
   10.8545  -15.1679   30.8798 O   0  0  0  0  0  0  0  0  0  0  0  0
   10.3897  -14.9312   29.5926 C   0  0  0  0  0  0  0  0  0  0  0  0
   11.0255  -15.4882   28.4979 C   0  0  0  0  0  0  0  0  0  0  0  0
   10.5588  -15.2490   27.2250 C   0  0  0  0  0  0  0  0  0  0  0  0
    9.4583  -14.4605   26.9682 C   0  0  0  0  0  0  0  0  0  0  0  0
    8.9173  -14.1619   25.6293 C   0  0  0  0  0  0  0  0  0  0  0  0
    8.8254  -15.4109   24.8187 C   0  0  2  0  0  0  0  0  0  0  0  0
    8.3511  -15.0077   23.4797 N   0  0  0  0  0  0  0  0  0  0  0  0
    7.8682  -16.3460   25.4384 C   0  0  0  0  0  0  0  0  0  0  0  0
    8.2371  -17.4215   26.2166 O   0  0  0  0  0  0  0  0  0  0  0  0
    8.8335  -13.9102   28.0820 C   0  0  0  0  0  0  0  0  0  0  0  0
    9.2889  -14.1410   29.3574 C   0  0  0  0  0  0  0  0  0  0  0  0
    6.6391  -16.1619   25.2502 O   0  0  0  0  0  0  0  0  0  0  0  0
  2  1  1  6
  3  2  1  0
  3  4  1  0
  4  5  1  0
  5  6  1  0
  7  6  1  0
  8  9  2  0
  8  2  1  0
 10 11  1  0
 12 11  1  1
 12 14  1  0
 12 13  1  0
 13  8  1  0
 14 23  1  0
 15 14  2  0
 16 17  1  0
 17 18  2  0
 17 27  1  0
 18 19  1  0
 19 20  2  0
 20 21  1  0
 22 21  1  1
 22 24  1  0
 23 22  1  0
 24 28  2  0
 24 25  1  0
 26 20  1  0
 27 26  2  0
M  END
$$$$
