KSY.pdb
     RDKit          3D

 28 28  0  0  1  0  0  0  0  0999 V2000
    6.9737  -17.6405   18.2866 N   0  0  0  0  0  0  0  0  0  0  0  0
    7.8702  -16.6360   18.7705 C   0  0  1  0  0  0  0  0  0  0  0  0
    7.3206  -15.2535   18.6748 C   0  0  0  0  0  0  0  0  0  0  0  0
    7.1323  -14.7481   17.2882 C   0  0  0  0  0  0  0  0  0  0  0  0
    8.3212  -14.1124   16.6575 C   0  0  0  0  0  0  0  0  0  0  0  0
    8.0685  -13.6863   15.2241 C   0  0  0  0  0  0  0  0  0  0  0  0
    9.2632  -13.1222   14.6330 N   0  0  0  0  0  0  0  0  0  0  0  0
    8.4037  -16.9499   20.1250 C   0  0  0  0  0  0  0  0  0  0  0  0
    7.6366  -17.1104   21.1155 O   0  0  0  0  0  0  0  0  0  0  0  0
   12.5108  -16.7655   21.1380 O   0  0  0  0  0  0  0  0  0  0  0  0
   11.7819  -17.8576   21.5665 C   0  0  0  0  0  0  0  0  0  0  0  0
   10.3314  -17.4583   21.6934 C   0  0  2  0  0  0  0  0  0  0  0  0
    9.7931  -17.0871   20.3850 N   0  0  0  0  0  0  0  0  0  0  0  0
   10.1773  -16.3807   22.6697 C   0  0  0  0  0  0  0  0  0  0  0  0
   10.1015  -15.1570   22.2907 O   0  0  0  0  0  0  0  0  0  0  0  0
    5.7692  -11.0712   27.5048 O   0  0  0  0  0  0  0  0  0  0  0  0
    6.3705  -12.0701   26.7501 C   0  0  0  0  0  0  0  0  0  0  0  0
    7.3898  -11.7703   25.8646 C   0  0  0  0  0  0  0  0  0  0  0  0
    7.9810  -12.7660   25.1199 C   0  0  0  0  0  0  0  0  0  0  0  0
    7.6043  -14.0885   25.2073 C   0  0  0  0  0  0  0  0  0  0  0  0
    8.1932  -15.1956   24.4314 C   0  0  0  0  0  0  0  0  0  0  0  0
    9.5493  -15.5301   24.9558 C   0  0  2  0  0  0  0  0  0  0  0  0
   10.0982  -16.5716   24.0644 N   0  0  0  0  0  0  0  0  0  0  0  0
    9.4456  -16.0421   26.3348 C   0  0  0  0  0  0  0  0  0  0  0  0
    9.8990  -15.3623   27.4442 O   0  0  0  0  0  0  0  0  0  0  0  0
    6.5783  -14.3689   26.1030 C   0  0  0  0  0  0  0  0  0  0  0  0
    5.9800  -13.3848   26.8521 C   0  0  0  0  0  0  0  0  0  0  0  0
    8.9155  -17.1664   26.5212 O   0  0  0  0  0  0  0  0  0  0  0  0
  2  1  1  1
  3  2  1  0
  3  4  1  0
  4  5  1  0
  5  6  1  0
  7  6  1  0
  8  9  2  0
  8  2  1  0
 10 11  1  0
 12 11  1  6
 12 14  1  0
 12 13  1  0
 13  8  1  0
 14 23  1  0
 15 14  2  0
 16 17  1  0
 17 18  2  0
 17 27  1  0
 18 19  1  0
 19 20  2  0
 20 21  1  0
 22 21  1  6
 22 24  1  0
 23 22  1  0
 24 28  2  0
 24 25  1  0
 26 20  1  0
 27 26  2  0
M  END
$$$$
