KSY.pdb
     RDKit          3D

 28 28  0  0  1  0  0  0  0  0999 V2000
    4.5798  -20.3428   21.7246 N   0  0  0  0  0  0  0  0  0  0  0  0
    5.2018  -19.5029   22.7017 C   0  0  1  0  0  0  0  0  0  0  0  0
    5.7251  -20.2504   23.8806 C   0  0  0  0  0  0  0  0  0  0  0  0
    5.4886  -21.7190   23.8475 C   0  0  0  0  0  0  0  0  0  0  0  0
    6.1060  -22.5051   24.9504 C   0  0  0  0  0  0  0  0  0  0  0  0
    5.1114  -22.8816   26.0316 C   0  0  0  0  0  0  0  0  0  0  0  0
    5.7415  -23.6832   27.0588 N   0  0  0  0  0  0  0  0  0  0  0  0
    6.2135  -18.5861   22.1070 C   0  0  0  0  0  0  0  0  0  0  0  0
    7.3785  -18.9835   21.8239 O   0  0  0  0  0  0  0  0  0  0  0  0
    7.2654  -14.4908   19.8279 O   0  0  0  0  0  0  0  0  0  0  0  0
    6.2827  -15.2603   20.4193 C   0  0  0  0  0  0  0  0  0  0  0  0
    6.9368  -16.2892   21.3097 C   0  0  2  0  0  0  0  0  0  0  0  0
    5.9349  -17.2225   21.8242 N   0  0  0  0  0  0  0  0  0  0  0  0
    7.6787  -15.6393   22.3892 C   0  0  0  0  0  0  0  0  0  0  0  0
    7.1118  -14.7716   23.1460 O   0  0  0  0  0  0  0  0  0  0  0  0
    5.3331  -11.8855   27.0894 O   0  0  0  0  0  0  0  0  0  0  0  0
    6.2531  -12.7936   26.5815 C   0  0  0  0  0  0  0  0  0  0  0  0
    6.6171  -12.7600   25.2476 C   0  0  0  0  0  0  0  0  0  0  0  0
    7.5297  -13.6635   24.7516 C   0  0  0  0  0  0  0  0  0  0  0  0
    8.1221  -14.6325   25.5318 C   0  0  0  0  0  0  0  0  0  0  0  0
    9.0979  -15.6307   25.0567 C   0  0  0  0  0  0  0  0  0  0  0  0
    9.7250  -15.1745   23.7823 C   0  0  2  0  0  0  0  0  0  0  0  0
    9.0319  -15.8923   22.6937 N   0  0  0  0  0  0  0  0  0  0  0  0
   11.1616  -15.5073   23.7786 C   0  0  0  0  0  0  0  0  0  0  0  0
   12.1196  -14.7894   24.4607 O   0  0  0  0  0  0  0  0  0  0  0  0
    7.7429  -14.6493   26.8697 C   0  0  0  0  0  0  0  0  0  0  0  0
    6.8334  -13.7534   27.3773 C   0  0  0  0  0  0  0  0  0  0  0  0
   11.5472  -16.5026   23.1148 O   0  0  0  0  0  0  0  0  0  0  0  0
  2  1  1  6
  3  2  1  0
  3  4  1  0
  4  5  1  0
  5  6  1  0
  7  6  1  0
  8  9  2  0
  8  2  1  0
 10 11  1  0
 12 11  1  1
 12 14  1  0
 12 13  1  0
 13  8  1  0
 14 23  1  0
 15 14  2  0
 16 17  1  0
 17 18  2  0
 17 27  1  0
 18 19  1  0
 19 20  2  0
 20 21  1  0
 22 21  1  1
 22 24  1  0
 23 22  1  0
 24 28  2  0
 24 25  1  0
 26 20  1  0
 27 26  2  0
M  END
$$$$
