KSY.pdb
     RDKit          3D

 28 28  0  0  1  0  0  0  0  0999 V2000
    4.2063  -20.0886   20.4884 N   0  0  0  0  0  0  0  0  0  0  0  0
    4.6007  -19.3002   21.6153 C   0  0  1  0  0  0  0  0  0  0  0  0
    4.4542  -20.0107   22.9177 C   0  0  0  0  0  0  0  0  0  0  0  0
    3.8759  -21.3784   22.8244 C   0  0  0  0  0  0  0  0  0  0  0  0
    3.6301  -22.0733   24.1175 C   0  0  0  0  0  0  0  0  0  0  0  0
    3.1104  -23.4864   23.9356 C   0  0  0  0  0  0  0  0  0  0  0  0
    2.8878  -24.1253   25.2150 N   0  0  0  0  0  0  0  0  0  0  0  0
    5.9477  -18.6889   21.4424 C   0  0  0  0  0  0  0  0  0  0  0  0
    7.0036  -19.3447   21.6666 O   0  0  0  0  0  0  0  0  0  0  0  0
    6.3109  -14.9873   19.7131 O   0  0  0  0  0  0  0  0  0  0  0  0
    7.4010  -15.8277   19.5981 C   0  0  0  0  0  0  0  0  0  0  0  0
    7.4418  -16.7429   20.7982 C   0  0  2  0  0  0  0  0  0  0  0  0
    6.1273  -17.3452   21.0193 N   0  0  0  0  0  0  0  0  0  0  0  0
    7.9148  -16.0226   21.9795 C   0  0  0  0  0  0  0  0  0  0  0  0
    7.1234  -15.2643   22.6470 O   0  0  0  0  0  0  0  0  0  0  0  0
    6.0005  -11.1532   26.7288 O   0  0  0  0  0  0  0  0  0  0  0  0
    6.7081  -12.2562   26.2687 C   0  0  0  0  0  0  0  0  0  0  0  0
    7.3245  -13.1206   27.1553 C   0  0  0  0  0  0  0  0  0  0  0  0
    8.0241  -14.2119   26.6917 C   0  0  0  0  0  0  0  0  0  0  0  0
    8.1513  -14.5039   25.3511 C   0  0  0  0  0  0  0  0  0  0  0  0
    8.8929  -15.6507   24.7950 C   0  0  0  0  0  0  0  0  0  0  0  0
    9.6749  -15.2285   23.5967 C   0  0  2  0  0  0  0  0  0  0  0  0
    9.2306  -16.0887   22.4818 N   0  0  0  0  0  0  0  0  0  0  0  0
   11.1167  -15.4165   23.8425 C   0  0  0  0  0  0  0  0  0  0  0  0
   11.9466  -14.4362   24.3409 O   0  0  0  0  0  0  0  0  0  0  0  0
    7.5244  -13.6229   24.4765 C   0  0  0  0  0  0  0  0  0  0  0  0
    6.8231  -12.5304   24.9260 C   0  0  0  0  0  0  0  0  0  0  0  0
   11.6309  -16.5337   23.5830 O   0  0  0  0  0  0  0  0  0  0  0  0
  2  1  1  6
  3  2  1  0
  3  4  1  0
  4  5  1  0
  5  6  1  0
  7  6  1  0
  8  9  2  0
  8  2  1  0
 10 11  1  0
 12 11  1  6
 12 14  1  0
 12 13  1  0
 13  8  1  0
 14 23  1  0
 15 14  2  0
 16 17  1  0
 17 18  2  0
 17 27  1  0
 18 19  1  0
 19 20  2  0
 20 21  1  0
 22 21  1  1
 22 24  1  0
 23 22  1  0
 24 28  2  0
 24 25  1  0
 26 20  1  0
 27 26  2  0
M  END
$$$$
