KSY.pdb
     RDKit          3D

 28 28  0  0  1  0  0  0  0  0999 V2000
    9.5883  -18.4907   21.1369 N   0  0  0  0  0  0  0  0  0  0  0  0
   10.6160  -17.5933   21.5676 C   0  0  1  0  0  0  0  0  0  0  0  0
   11.7261  -17.4454   20.5835 C   0  0  0  0  0  0  0  0  0  0  0  0
   12.7242  -18.5487   20.5934 C   0  0  0  0  0  0  0  0  0  0  0  0
   13.4879  -18.7274   21.8585 C   0  0  0  0  0  0  0  0  0  0  0  0
   14.5178  -19.8372   21.7712 C   0  0  0  0  0  0  0  0  0  0  0  0
   15.1635  -20.0465   23.0495 N   0  0  0  0  0  0  0  0  0  0  0  0
   10.0763  -16.2834   22.0263 C   0  0  0  0  0  0  0  0  0  0  0  0
   10.8344  -15.3769   22.4721 O   0  0  0  0  0  0  0  0  0  0  0  0
    6.0063  -15.4400   21.7809 O   0  0  0  0  0  0  0  0  0  0  0  0
    6.8814  -14.3851   21.6108 C   0  0  0  0  0  0  0  0  0  0  0  0
    8.1489  -14.6723   22.3790 C   0  0  2  0  0  0  0  0  0  0  0  0
    8.6904  -15.9748   21.9917 N   0  0  0  0  0  0  0  0  0  0  0  0
    7.9083  -14.5906   23.8190 C   0  0  0  0  0  0  0  0  0  0  0  0
    7.6515  -15.6457   24.5028 O   0  0  0  0  0  0  0  0  0  0  0  0
   11.3261  -17.1254   29.3414 O   0  0  0  0  0  0  0  0  0  0  0  0
   10.6663  -16.0707   28.7240 C   0  0  0  0  0  0  0  0  0  0  0  0
    9.8261  -15.2427   29.4461 C   0  0  0  0  0  0  0  0  0  0  0  0
    9.1755  -14.1992   28.8270 C   0  0  0  0  0  0  0  0  0  0  0  0
    9.3165  -13.9215   27.4847 C   0  0  0  0  0  0  0  0  0  0  0  0
    8.6411  -12.8257   26.7655 C   0  0  0  0  0  0  0  0  0  0  0  0
    7.4927  -13.3568   25.9751 C   0  0  2  0  0  0  0  0  0  0  0  0
    7.9353  -13.3957   24.5669 N   0  0  0  0  0  0  0  0  0  0  0  0
    6.3260  -12.4663   26.1184 C   0  0  0  0  0  0  0  0  0  0  0  0
    5.9023  -11.5901   25.1431 O   0  0  0  0  0  0  0  0  0  0  0  0
   10.1654  -14.7653   26.7768 C   0  0  0  0  0  0  0  0  0  0  0  0
   10.8206  -15.8099   27.3825 C   0  0  0  0  0  0  0  0  0  0  0  0
    5.6725  -12.4985   27.1916 O   0  0  0  0  0  0  0  0  0  0  0  0
  2  1  1  6
  3  2  1  0
  3  4  1  0
  4  5  1  0
  5  6  1  0
  7  6  1  0
  8  9  2  0
  8  2  1  0
 10 11  1  0
 12 11  1  6
 12 14  1  0
 12 13  1  0
 13  8  1  0
 14 23  1  0
 15 14  2  0
 16 17  1  0
 17 18  2  0
 17 27  1  0
 18 19  1  0
 19 20  2  0
 20 21  1  0
 22 21  1  1
 22 24  1  0
 23 22  1  0
 24 28  2  0
 24 25  1  0
 26 20  1  0
 27 26  2  0
M  END
$$$$
