KSY.pdb
     RDKit          3D

 28 28  0  0  1  0  0  0  0  0999 V2000
    9.2184  -15.4012   20.1372 N   0  0  0  0  0  0  0  0  0  0  0  0
    8.5625  -14.6573   21.1685 C   0  0  1  0  0  0  0  0  0  0  0  0
    7.2085  -14.1697   20.7795 C   0  0  0  0  0  0  0  0  0  0  0  0
    6.9977  -14.0052   19.3158 C   0  0  0  0  0  0  0  0  0  0  0  0
    8.1867  -13.5794   18.5284 C   0  0  0  0  0  0  0  0  0  0  0  0
    7.8864  -13.4204   17.0503 C   0  0  0  0  0  0  0  0  0  0  0  0
    9.0996  -13.1830   16.2977 N   0  0  0  0  0  0  0  0  0  0  0  0
    8.5631  -15.3698   22.4762 C   0  0  0  0  0  0  0  0  0  0  0  0
    7.8373  -14.9870   23.4364 O   0  0  0  0  0  0  0  0  0  0  0  0
   11.3767  -18.2808   23.3463 O   0  0  0  0  0  0  0  0  0  0  0  0
   10.1179  -18.5388   23.8529 C   0  0  0  0  0  0  0  0  0  0  0  0
    9.3708  -17.2345   23.9944 C   0  0  2  0  0  0  0  0  0  0  0  0
    9.3709  -16.5115   22.7228 N   0  0  0  0  0  0  0  0  0  0  0  0
    9.9379  -16.4307   25.0762 C   0  0  0  0  0  0  0  0  0  0  0  0
   10.9389  -15.6562   24.8637 O   0  0  0  0  0  0  0  0  0  0  0  0
    6.0659  -11.3937   25.0432 O   0  0  0  0  0  0  0  0  0  0  0  0
    6.8083  -12.2648   25.8299 C   0  0  0  0  0  0  0  0  0  0  0  0
    8.1347  -12.0002   26.1191 C   0  0  0  0  0  0  0  0  0  0  0  0
    8.8642  -12.8685   26.8997 C   0  0  0  0  0  0  0  0  0  0  0  0
    8.3332  -14.0252   27.4276 C   0  0  0  0  0  0  0  0  0  0  0  0
    9.0652  -14.9959   28.2619 C   0  0  0  0  0  0  0  0  0  0  0  0
   10.1393  -15.6563   27.4644 C   0  0  2  0  0  0  0  0  0  0  0  0
    9.4602  -16.4258   26.4028 N   0  0  0  0  0  0  0  0  0  0  0  0
   10.9251  -16.5595   28.3255 C   0  0  0  0  0  0  0  0  0  0  0  0
   10.9856  -17.9254   28.1556 O   0  0  0  0  0  0  0  0  0  0  0  0
    6.9986  -14.2728   27.1253 C   0  0  0  0  0  0  0  0  0  0  0  0
    6.2594  -13.4145   26.3479 C   0  0  0  0  0  0  0  0  0  0  0  0
   11.5815  -16.0645   29.2764 O   0  0  0  0  0  0  0  0  0  0  0  0
  2  1  1  6
  3  2  1  0
  3  4  1  0
  4  5  1  0
  5  6  1  0
  7  6  1  0
  8  9  2  0
  8  2  1  0
 10 11  1  0
 12 11  1  6
 12 14  1  0
 12 13  1  0
 13  8  1  0
 14 23  1  0
 15 14  2  0
 16 17  1  0
 17 18  2  0
 17 27  1  0
 18 19  1  0
 19 20  2  0
 20 21  1  0
 22 21  1  1
 22 24  1  0
 23 22  1  0
 24 28  2  0
 24 25  1  0
 26 20  1  0
 27 26  2  0
M  END
$$$$
