KSY.pdb
     RDKit          3D

 28 28  0  0  1  0  0  0  0  0999 V2000
    8.6810  -18.6871   18.3767 N   0  0  0  0  0  0  0  0  0  0  0  0
    9.8380  -18.1512   19.0256 C   0  0  1  0  0  0  0  0  0  0  0  0
   10.9148  -17.7439   18.0785 C   0  0  0  0  0  0  0  0  0  0  0  0
   11.2005  -18.7229   16.9951 C   0  0  0  0  0  0  0  0  0  0  0  0
   10.5012  -18.4889   15.7021 C   0  0  0  0  0  0  0  0  0  0  0  0
   10.9419  -19.4488   14.6138 C   0  0  0  0  0  0  0  0  0  0  0  0
   10.2817  -19.1500   13.3610 N   0  0  0  0  0  0  0  0  0  0  0  0
    9.5003  -17.0823   20.0060 C   0  0  0  0  0  0  0  0  0  0  0  0
   10.3996  -16.4192   20.5950 O   0  0  0  0  0  0  0  0  0  0  0  0
    5.6850  -16.6471   21.6222 O   0  0  0  0  0  0  0  0  0  0  0  0
    6.3181  -15.4652   21.2905 C   0  0  0  0  0  0  0  0  0  0  0  0
    7.8105  -15.6932   21.2902 C   0  0  2  0  0  0  0  0  0  0  0  0
    8.1609  -16.7454   20.3365 N   0  0  0  0  0  0  0  0  0  0  0  0
    8.2847  -16.0023   22.6385 C   0  0  0  0  0  0  0  0  0  0  0  0
    8.3544  -17.2165   23.0479 O   0  0  0  0  0  0  0  0  0  0  0  0
   11.2903  -14.9367   30.9437 O   0  0  0  0  0  0  0  0  0  0  0  0
   10.7774  -14.7521   29.6662 C   0  0  0  0  0  0  0  0  0  0  0  0
   11.0970  -15.6261   28.6431 C   0  0  0  0  0  0  0  0  0  0  0  0
   10.5847  -15.4365   27.3794 C   0  0  0  0  0  0  0  0  0  0  0  0
    9.7438  -14.3919   27.0626 C   0  0  0  0  0  0  0  0  0  0  0  0
    9.1712  -14.1328   25.7287 C   0  0  0  0  0  0  0  0  0  0  0  0
    9.0265  -15.4100   24.9715 C   0  0  2  0  0  0  0  0  0  0  0  0
    8.6964  -15.0380   23.5811 N   0  0  0  0  0  0  0  0  0  0  0  0
    7.9417  -16.2222   25.5532 C   0  0  0  0  0  0  0  0  0  0  0  0
    6.6044  -15.9068   25.4504 O   0  0  0  0  0  0  0  0  0  0  0  0
    9.4347  -13.5248   28.1050 C   0  0  0  0  0  0  0  0  0  0  0  0
    9.9391  -13.7027   29.3705 C   0  0  0  0  0  0  0  0  0  0  0  0
    8.2437  -17.2660   26.1850 O   0  0  0  0  0  0  0  0  0  0  0  0
  2  1  1  6
  3  2  1  0
  3  4  1  0
  4  5  1  0
  5  6  1  0
  7  6  1  0
  8  9  2  0
  8  2  1  0
 10 11  1  0
 12 11  1  1
 12 14  1  0
 12 13  1  0
 13  8  1  0
 14 23  1  0
 15 14  2  0
 16 17  1  0
 17 18  2  0
 17 27  1  0
 18 19  1  0
 19 20  2  0
 20 21  1  0
 22 21  1  1
 22 24  1  0
 23 22  1  0
 24 28  2  0
 24 25  1  0
 26 20  1  0
 27 26  2  0
M  END
$$$$
