KSY.pdb
     RDKit          3D

 28 28  0  0  1  0  0  0  0  0999 V2000
    7.1098  -18.0617   18.4401 N   0  0  0  0  0  0  0  0  0  0  0  0
    6.7912  -17.5680   19.7445 C   0  0  1  0  0  0  0  0  0  0  0  0
    5.5380  -18.1460   20.3085 C   0  0  0  0  0  0  0  0  0  0  0  0
    4.9395  -19.2477   19.5074 C   0  0  0  0  0  0  0  0  0  0  0  0
    3.7165  -19.8782   20.0749 C   0  0  0  0  0  0  0  0  0  0  0  0
    3.2051  -21.0312   19.2328 C   0  0  0  0  0  0  0  0  0  0  0  0
    2.0739  -21.6740   19.8667 N   0  0  0  0  0  0  0  0  0  0  0  0
    7.9408  -17.6584   20.6869 C   0  0  0  0  0  0  0  0  0  0  0  0
    8.0724  -18.6364   21.4753 O   0  0  0  0  0  0  0  0  0  0  0  0
   10.8450  -14.7347   20.6995 O   0  0  0  0  0  0  0  0  0  0  0  0
   11.2536  -15.9713   21.1593 C   0  0  0  0  0  0  0  0  0  0  0  0
   10.0570  -16.7074   21.7123 C   0  0  2  0  0  0  0  0  0  0  0  0
    8.9499  -16.6616   20.7574 N   0  0  0  0  0  0  0  0  0  0  0  0
    9.6740  -16.1632   23.0144 C   0  0  0  0  0  0  0  0  0  0  0  0
    9.1019  -15.0181   23.1051 O   0  0  0  0  0  0  0  0  0  0  0  0
    5.9711  -10.9189   26.4712 O   0  0  0  0  0  0  0  0  0  0  0  0
    6.4633  -12.1925   26.2167 C   0  0  0  0  0  0  0  0  0  0  0  0
    7.7103  -12.3671   25.6444 C   0  0  0  0  0  0  0  0  0  0  0  0
    8.1914  -13.6327   25.3951 C   0  0  0  0  0  0  0  0  0  0  0  0
    7.4798  -14.7748   25.6918 C   0  0  0  0  0  0  0  0  0  0  0  0
    7.9379  -16.1538   25.4414 C   0  0  0  0  0  0  0  0  0  0  0  0
    9.4259  -16.2264   25.5201 C   0  0  2  0  0  0  0  0  0  0  0  0
    9.8848  -16.8158   24.2463 N   0  0  0  0  0  0  0  0  0  0  0  0
    9.8309  -17.0802   26.6521 C   0  0  0  0  0  0  0  0  0  0  0  0
   10.3201  -18.3608   26.5137 O   0  0  0  0  0  0  0  0  0  0  0  0
    6.2289  -14.5776   26.2666 C   0  0  0  0  0  0  0  0  0  0  0  0
    5.7372  -13.3202   26.5207 C   0  0  0  0  0  0  0  0  0  0  0  0
    9.7257  -16.6234   27.8184 O   0  0  0  0  0  0  0  0  0  0  0  0
  2  1  1  6
  3  2  1  0
  3  4  1  0
  4  5  1  0
  5  6  1  0
  7  6  1  0
  8  9  2  0
  8  2  1  0
 10 11  1  0
 12 11  1  6
 12 14  1  0
 12 13  1  0
 13  8  1  0
 14 23  1  0
 15 14  2  0
 16 17  1  0
 17 18  2  0
 17 27  1  0
 18 19  1  0
 19 20  2  0
 20 21  1  0
 22 21  1  6
 22 24  1  0
 23 22  1  0
 24 28  2  0
 24 25  1  0
 26 20  1  0
 27 26  2  0
M  END
$$$$
