KSY.pdb
     RDKit          3D

 28 28  0  0  1  0  0  0  0  0999 V2000
    8.6596  -22.9934   14.1399 N   0  0  0  0  0  0  0  0  0  0  0  0
    9.1263  -23.4209   15.4230 C   0  0  1  0  0  0  0  0  0  0  0  0
    8.9408  -24.8799   15.6665 C   0  0  0  0  0  0  0  0  0  0  0  0
    9.5928  -25.7702   14.6685 C   0  0  0  0  0  0  0  0  0  0  0  0
    9.3774  -27.2309   14.8568 C   0  0  0  0  0  0  0  0  0  0  0  0
    9.7708  -27.7090   16.2412 C   0  0  0  0  0  0  0  0  0  0  0  0
    9.6644  -29.1489   16.3417 N   0  0  0  0  0  0  0  0  0  0  0  0
   10.5141  -22.9623   15.7088 C   0  0  0  0  0  0  0  0  0  0  0  0
   11.4091  -22.9729   14.8177 O   0  0  0  0  0  0  0  0  0  0  0  0
   11.3083  -20.6430   18.9635 O   0  0  0  0  0  0  0  0  0  0  0  0
   12.1646  -20.5973   17.8808 C   0  0  0  0  0  0  0  0  0  0  0  0
   12.2533  -21.9747   17.2689 C   0  0  2  0  0  0  0  0  0  0  0  0
   10.9136  -22.4897   16.9870 N   0  0  0  0  0  0  0  0  0  0  0  0
   13.0102  -22.8760   18.1365 C   0  0  0  0  0  0  0  0  0  0  0  0
   12.4088  -23.7393   18.8713 O   0  0  0  0  0  0  0  0  0  0  0  0
   19.9600  -20.8125   16.3471 O   0  0  0  0  0  0  0  0  0  0  0  0
   19.0212  -21.7162   16.8277 C   0  0  0  0  0  0  0  0  0  0  0  0
   17.8409  -21.9407   16.1425 C   0  0  0  0  0  0  0  0  0  0  0  0
   16.9151  -22.8381   16.6252 C   0  0  0  0  0  0  0  0  0  0  0  0
   17.1009  -23.5499   17.7903 C   0  0  0  0  0  0  0  0  0  0  0  0
   16.1443  -24.5164   18.3605 C   0  0  0  0  0  0  0  0  0  0  0  0
   15.1112  -23.8057   19.1687 C   0  0  2  0  0  0  0  0  0  0  0  0
   14.4159  -22.8867   18.2455 N   0  0  0  0  0  0  0  0  0  0  0  0
   15.7551  -23.0456   20.2560 C   0  0  0  0  0  0  0  0  0  0  0  0
   16.3456  -23.6272   21.3566 O   0  0  0  0  0  0  0  0  0  0  0  0
   18.2936  -23.3098   18.4639 C   0  0  0  0  0  0  0  0  0  0  0  0
   19.2258  -22.4172   17.9930 C   0  0  0  0  0  0  0  0  0  0  0  0
   15.7701  -21.7907   20.1861 O   0  0  0  0  0  0  0  0  0  0  0  0
  2  1  1  6
  3  2  1  0
  3  4  1  0
  4  5  1  0
  5  6  1  0
  7  6  1  0
  8  9  2  0
  8  2  1  0
 10 11  1  0
 12 11  1  1
 12 14  1  0
 12 13  1  0
 13  8  1  0
 14 23  1  0
 15 14  2  0
 16 17  1  0
 17 18  2  0
 17 27  1  0
 18 19  1  0
 19 20  2  0
 20 21  1  0
 22 21  1  6
 22 24  1  0
 23 22  1  0
 24 28  2  0
 24 25  1  0
 26 20  1  0
 27 26  2  0
M  END
$$$$
