NTV.pdb
     RDKit          3D

 23 22  0  0  1  0  0  0  0  0999 V2000
    7.2128  -12.9585   17.0387 N   0  0  0  0  0  0  0  0  0  0  0  0
    8.1634  -13.5151   17.9342 C   0  0  0  0  0  0  0  0  0  0  0  0
    9.2035  -14.0717   17.5064 O   0  0  0  0  0  0  0  0  0  0  0  0
    7.9293  -13.4412   19.4131 C   0  0  0  0  0  0  0  0  0  0  0  0
    9.1168  -14.0247   20.1454 C   0  0  2  0  0  0  0  0  0  0  0  0
    9.6241  -15.1685   19.3993 N   0  0  0  0  0  0  0  0  0  0  0  0
    8.6425  -14.4474   21.4838 C   0  0  0  0  0  0  0  0  0  0  0  0
    7.9778  -13.5955   22.1468 O   0  0  0  0  0  0  0  0  0  0  0  0
    6.8603  -17.7696   22.4866 C   0  0  0  0  0  0  0  0  0  0  0  0
    8.0283  -17.5012   23.3815 C   0  0  1  0  0  0  0  0  0  0  0  0
    9.1226  -18.3075   23.1177 O   0  0  0  0  0  0  0  0  0  0  0  0
    8.4226  -16.0327   23.3493 C   0  0  2  0  0  0  0  0  0  0  0  0
    8.8962  -15.7324   22.0368 N   0  0  0  0  0  0  0  0  0  0  0  0
    9.3922  -15.7067   24.4181 C   0  0  0  0  0  0  0  0  0  0  0  0
   10.5966  -15.6279   24.1265 O   0  0  0  0  0  0  0  0  0  0  0  0
   10.5648  -13.5026   28.6438 C   0  0  0  0  0  0  0  0  0  0  0  0
    9.6051  -13.8155   27.5359 C   0  0  2  0  0  0  0  0  0  0  0  0
    8.1537  -13.7371   27.9908 C   0  0  0  0  0  0  0  0  0  0  0  0
    9.9128  -15.0835   26.8141 C   0  0  2  0  0  0  0  0  0  0  0  0
    9.0547  -15.4732   25.7681 N   0  0  0  0  0  0  0  0  0  0  0  0
    9.9400  -16.1795   27.8329 C   0  0  0  0  0  0  0  0  0  0  0  0
   10.9096  -16.2429   28.8216 O   0  0  0  0  0  0  0  0  0  0  0  0
    9.0752  -17.1003   27.8362 O   0  0  0  0  0  0  0  0  0  0  0  0
  2  1  1  0
  3  2  2  0
  4  2  1  0
  4  5  1  0
  5  6  1  6
  7  5  1  0
  7  8  2  0
 10  9  1  6
 10 12  1  0
 11 10  1  0
 12 14  1  0
 12 13  1  6
 13  7  1  0
 14 20  1  0
 15 14  2  0
 17 16  1  1
 17 18  1  0
 19 17  1  0
 19 20  1  6
 21 22  1  0
 21 19  1  0
 23 21  2  0
M  END
$$$$
