NTV.pdb
     RDKit          3D

 23 22  0  0  1  0  0  0  0  0999 V2000
   12.8105  -18.9194   20.4806 N   0  0  0  0  0  0  0  0  0  0  0  0
   13.0795  -17.5276   20.4054 C   0  0  0  0  0  0  0  0  0  0  0  0
   14.2060  -17.1069   20.0471 O   0  0  0  0  0  0  0  0  0  0  0  0
   12.0082  -16.5395   20.7572 C   0  0  0  0  0  0  0  0  0  0  0  0
   10.6514  -17.1252   20.4361 C   0  0  2  0  0  0  0  0  0  0  0  0
   10.4298  -17.0583   18.9979 N   0  0  0  0  0  0  0  0  0  0  0  0
    9.6418  -16.3133   21.1549 C   0  0  0  0  0  0  0  0  0  0  0  0
    9.1970  -15.2923   20.5493 O   0  0  0  0  0  0  0  0  0  0  0  0
    6.3165  -17.2088   22.0175 C   0  0  0  0  0  0  0  0  0  0  0  0
    6.9362  -16.7392   23.2953 C   0  0  1  0  0  0  0  0  0  0  0  0
    7.2869  -17.7701   24.1504 O   0  0  0  0  0  0  0  0  0  0  0  0
    8.1276  -15.8319   23.0303 C   0  0  2  0  0  0  0  0  0  0  0  0
    9.1670  -16.6254   22.4582 N   0  0  0  0  0  0  0  0  0  0  0  0
    8.5404  -15.1062   24.2516 C   0  0  0  0  0  0  0  0  0  0  0  0
    9.6488  -15.3607   24.7503 O   0  0  0  0  0  0  0  0  0  0  0  0
    5.7700  -12.7476   26.8102 C   0  0  0  0  0  0  0  0  0  0  0  0
    7.1780  -12.3261   26.5163 C   0  0  2  0  0  0  0  0  0  0  0  0
    7.2380  -11.1467   25.5546 C   0  0  0  0  0  0  0  0  0  0  0  0
    8.0682  -13.4491   26.1040 C   0  0  2  0  0  0  0  0  0  0  0  0
    7.7633  -14.1294   24.9096 N   0  0  0  0  0  0  0  0  0  0  0  0
    8.0763  -14.4434   27.2225 C   0  0  0  0  0  0  0  0  0  0  0  0
    7.6300  -15.7451   27.0549 O   0  0  0  0  0  0  0  0  0  0  0  0
    8.4929  -14.1378   28.3753 O   0  0  0  0  0  0  0  0  0  0  0  0
  2  1  1  0
  3  2  2  0
  4  2  1  0
  4  5  1  0
  5  6  1  6
  7  5  1  0
  7  8  2  0
 10  9  1  6
 10 12  1  0
 11 10  1  0
 12 14  1  0
 12 13  1  1
 13  7  1  0
 14 20  1  0
 15 14  2  0
 17 16  1  6
 17 18  1  0
 19 17  1  0
 19 20  1  6
 21 22  1  0
 21 19  1  0
 23 21  2  0
M  END
$$$$
