NTV.pdb
     RDKit          3D

 23 22  0  0  1  0  0  0  0  0999 V2000
   13.9047  -14.2057   18.6136 N   0  0  0  0  0  0  0  0  0  0  0  0
   13.4635  -14.7527   19.8471 C   0  0  0  0  0  0  0  0  0  0  0  0
   14.1958  -15.5291   20.5069 O   0  0  0  0  0  0  0  0  0  0  0  0
   12.1050  -14.4032   20.3761 C   0  0  0  0  0  0  0  0  0  0  0  0
   11.1157  -15.4784   19.9859 C   0  0  2  0  0  0  0  0  0  0  0  0
   10.7157  -15.2801   18.5993 N   0  0  0  0  0  0  0  0  0  0  0  0
    9.9469  -15.3470   20.8869 C   0  0  0  0  0  0  0  0  0  0  0  0
    9.1432  -14.3979   20.6412 O   0  0  0  0  0  0  0  0  0  0  0  0
    6.6876  -17.1246   23.9705 C   0  0  0  0  0  0  0  0  0  0  0  0
    7.8652  -17.2942   23.0639 C   0  0  1  0  0  0  0  0  0  0  0  0
    7.5516  -17.9004   21.8593 O   0  0  0  0  0  0  0  0  0  0  0  0
    8.5772  -15.9708   22.8303 C   0  0  2  0  0  0  0  0  0  0  0  0
    9.6992  -16.2177   21.9832 N   0  0  0  0  0  0  0  0  0  0  0  0
    8.9321  -15.3117   24.1063 C   0  0  0  0  0  0  0  0  0  0  0  0
   10.0180  -15.5912   24.6398 O   0  0  0  0  0  0  0  0  0  0  0  0
    6.1246  -12.6994   26.3879 C   0  0  0  0  0  0  0  0  0  0  0  0
    7.6139  -12.5313   26.3694 C   0  0  2  0  0  0  0  0  0  0  0  0
    8.0499  -11.3460   25.5183 C   0  0  0  0  0  0  0  0  0  0  0  0
    8.3559  -13.7811   26.0364 C   0  0  2  0  0  0  0  0  0  0  0  0
    8.1224  -14.3733   24.7806 N   0  0  0  0  0  0  0  0  0  0  0  0
    8.0328  -14.7859   27.0975 C   0  0  0  0  0  0  0  0  0  0  0  0
    8.4997  -14.6618   28.3969 O   0  0  0  0  0  0  0  0  0  0  0  0
    7.3160  -15.7971   26.8537 O   0  0  0  0  0  0  0  0  0  0  0  0
  2  1  1  0
  3  2  2  0
  4  2  1  0
  4  5  1  0
  5  6  1  6
  7  5  1  0
  7  8  2  0
 10  9  1  6
 10 12  1  0
 11 10  1  0
 12 14  1  0
 12 13  1  6
 13  7  1  0
 14 20  1  0
 15 14  2  0
 17 16  1  6
 17 18  1  0
 19 17  1  0
 19 20  1  6
 21 22  1  0
 21 19  1  0
 23 21  2  0
M  END
$$$$
