NTV.pdb
     RDKit          3D

 23 22  0  0  1  0  0  0  0  0999 V2000
    8.0278  -19.0520   16.7535 N   0  0  0  0  0  0  0  0  0  0  0  0
    8.1254  -17.7257   17.2500 C   0  0  0  0  0  0  0  0  0  0  0  0
    8.8088  -16.8611   16.6499 O   0  0  0  0  0  0  0  0  0  0  0  0
    7.4051  -17.3440   18.5081 C   0  0  0  0  0  0  0  0  0  0  0  0
    8.3991  -16.8365   19.5287 C   0  0  2  0  0  0  0  0  0  0  0  0
    9.3289  -17.9065   19.8641 N   0  0  0  0  0  0  0  0  0  0  0  0
    7.6280  -16.4251   20.7251 C   0  0  0  0  0  0  0  0  0  0  0  0
    6.7339  -15.5436   20.5502 O   0  0  0  0  0  0  0  0  0  0  0  0
    5.6839  -18.4982   23.2270 C   0  0  0  0  0  0  0  0  0  0  0  0
    6.6450  -17.6289   23.9739 C   0  0  1  0  0  0  0  0  0  0  0  0
    7.7355  -18.3175   24.4776 O   0  0  0  0  0  0  0  0  0  0  0  0
    7.0985  -16.4511   23.1253 C   0  0  2  0  0  0  0  0  0  0  0  0
    7.8455  -16.9642   22.0226 N   0  0  0  0  0  0  0  0  0  0  0  0
    7.8388  -15.4545   23.9298 C   0  0  0  0  0  0  0  0  0  0  0  0
    9.0610  -15.3311   23.7485 O   0  0  0  0  0  0  0  0  0  0  0  0
    7.9149  -11.5176   27.0028 C   0  0  0  0  0  0  0  0  0  0  0  0
    7.1136  -12.5066   26.2114 C   0  0  2  0  0  0  0  0  0  0  0  0
    5.8416  -12.9288   26.9347 C   0  0  0  0  0  0  0  0  0  0  0  0
    7.9081  -13.6692   25.7210 C   0  0  2  0  0  0  0  0  0  0  0  0
    7.2593  -14.6159   24.9055 N   0  0  0  0  0  0  0  0  0  0  0  0
    8.4492  -14.3767   26.9237 C   0  0  0  0  0  0  0  0  0  0  0  0
    9.3845  -13.7926   27.7638 O   0  0  0  0  0  0  0  0  0  0  0  0
    8.0747  -15.5443   27.2277 O   0  0  0  0  0  0  0  0  0  0  0  0
  2  1  1  0
  3  2  2  0
  4  2  1  0
  4  5  1  0
  5  6  1  1
  7  5  1  0
  7  8  2  0
 10  9  1  6
 10 12  1  0
 11 10  1  0
 12 14  1  0
 12 13  1  6
 13  7  1  0
 14 20  1  0
 15 14  2  0
 17 16  1  1
 17 18  1  0
 19 17  1  0
 19 20  1  1
 21 22  1  0
 21 19  1  0
 23 21  2  0
M  END
$$$$
