NTV.pdb
     RDKit          3D

 23 22  0  0  1  0  0  0  0  0999 V2000
   14.4749  -15.4049   20.5665 N   0  0  0  0  0  0  0  0  0  0  0  0
   13.7955  -14.6656   19.5629 C   0  0  0  0  0  0  0  0  0  0  0  0
   14.3351  -14.4376   18.4533 O   0  0  0  0  0  0  0  0  0  0  0  0
   12.4136  -14.1463   19.8242 C   0  0  0  0  0  0  0  0  0  0  0  0
   11.4264  -15.2916   19.7954 C   0  0  2  0  0  0  0  0  0  0  0  0
   11.1549  -15.6544   18.4110 N   0  0  0  0  0  0  0  0  0  0  0  0
   10.1890  -14.8211   20.4608 C   0  0  0  0  0  0  0  0  0  0  0  0
    9.6696  -13.7567   20.0086 O   0  0  0  0  0  0  0  0  0  0  0  0
    6.8845  -16.0136   20.4450 C   0  0  0  0  0  0  0  0  0  0  0  0
    7.2639  -15.9570   21.8907 C   0  0  1  0  0  0  0  0  0  0  0  0
    7.5845  -17.1930   22.4261 O   0  0  0  0  0  0  0  0  0  0  0  0
    8.3882  -14.9607   22.1279 C   0  0  2  0  0  0  0  0  0  0  0  0
    9.5800  -15.4965   21.5536 N   0  0  0  0  0  0  0  0  0  0  0  0
    8.5216  -14.6229   23.5620 C   0  0  0  0  0  0  0  0  0  0  0  0
    9.5206  -15.0268   24.1791 O   0  0  0  0  0  0  0  0  0  0  0  0
    6.4466  -11.3403   25.4556 C   0  0  0  0  0  0  0  0  0  0  0  0
    6.5861  -12.6283   26.2093 C   0  0  2  0  0  0  0  0  0  0  0  0
    6.7170  -12.4068   27.7104 C   0  0  0  0  0  0  0  0  0  0  0  0
    7.6426  -13.5305   25.6677 C   0  0  2  0  0  0  0  0  0  0  0  0
    7.5890  -13.8647   24.3011 N   0  0  0  0  0  0  0  0  0  0  0  0
    7.5962  -14.7971   26.4637 C   0  0  0  0  0  0  0  0  0  0  0  0
    8.4354  -15.0198   27.5443 O   0  0  0  0  0  0  0  0  0  0  0  0
    6.7851  -15.7242   26.1836 O   0  0  0  0  0  0  0  0  0  0  0  0
  2  1  1  0
  3  2  2  0
  4  2  1  0
  4  5  1  0
  5  6  1  6
  7  5  1  0
  7  8  2  0
 10  9  1  6
 10 12  1  0
 11 10  1  0
 12 14  1  0
 12 13  1  1
 13  7  1  0
 14 20  1  0
 15 14  2  0
 17 16  1  6
 17 18  1  0
 19 17  1  0
 19 20  1  6
 21 22  1  0
 21 19  1  0
 23 21  2  0
M  END
$$$$
