NTV.pdb
     RDKit          3D

 23 22  0  0  1  0  0  0  0  0999 V2000
   13.9886  -18.2789   20.0275 N   0  0  0  0  0  0  0  0  0  0  0  0
   13.1664  -17.1874   19.6426 C   0  0  0  0  0  0  0  0  0  0  0  0
   13.1934  -16.7418   18.4699 O   0  0  0  0  0  0  0  0  0  0  0  0
   12.2502  -16.5524   20.6450 C   0  0  0  0  0  0  0  0  0  0  0  0
   10.9134  -17.2595   20.6310 C   0  0  2  0  0  0  0  0  0  0  0  0
   10.2123  -16.9329   19.3967 N   0  0  0  0  0  0  0  0  0  0  0  0
   10.1495  -16.7767   21.8051 C   0  0  0  0  0  0  0  0  0  0  0  0
    9.4823  -15.7100   21.6500 O   0  0  0  0  0  0  0  0  0  0  0  0
    7.3545  -18.3492   23.3488 C   0  0  0  0  0  0  0  0  0  0  0  0
    8.3129  -18.0743   24.4638 C   0  0  1  0  0  0  0  0  0  0  0  0
    8.9989  -19.1983   24.8917 O   0  0  0  0  0  0  0  0  0  0  0  0
    9.2815  -16.9606   24.0974 C   0  0  2  0  0  0  0  0  0  0  0  0
   10.1360  -17.4431   23.0609 N   0  0  0  0  0  0  0  0  0  0  0  0
   10.0120  -16.4633   25.2838 C   0  0  0  0  0  0  0  0  0  0  0  0
   11.2437  -16.6134   25.3317 O   0  0  0  0  0  0  0  0  0  0  0  0
    8.6674  -13.1560   27.4114 C   0  0  0  0  0  0  0  0  0  0  0  0
    9.3154  -14.2001   28.2696 C   0  0  2  0  0  0  0  0  0  0  0  0
   10.1539  -13.5904   29.3853 C   0  0  0  0  0  0  0  0  0  0  0  0
   10.0556  -15.2388   27.4972 C   0  0  2  0  0  0  0  0  0  0  0  0
    9.4129  -15.8197   26.3874 N   0  0  0  0  0  0  0  0  0  0  0  0
   10.4187  -16.3301   28.4547 C   0  0  0  0  0  0  0  0  0  0  0  0
    9.9026  -17.6118   28.3418 O   0  0  0  0  0  0  0  0  0  0  0  0
   11.2163  -16.1296   29.4136 O   0  0  0  0  0  0  0  0  0  0  0  0
  2  1  1  0
  3  2  2  0
  4  2  1  0
  4  5  1  0
  5  6  1  6
  7  5  1  0
  7  8  2  0
 10  9  1  6
 10 12  1  0
 11 10  1  0
 12 14  1  0
 12 13  1  6
 13  7  1  0
 14 20  1  0
 15 14  2  0
 17 16  1  6
 17 18  1  0
 19 17  1  0
 19 20  1  6
 21 22  1  0
 21 19  1  0
 23 21  2  0
M  END
$$$$
