NTV.pdb
     RDKit          3D

 23 22  0  0  1  0  0  0  0  0999 V2000
   13.3764  -15.3935   18.5600 N   0  0  0  0  0  0  0  0  0  0  0  0
   13.4462  -14.4669   19.6332 C   0  0  0  0  0  0  0  0  0  0  0  0
   14.5431  -13.9699   19.9857 O   0  0  0  0  0  0  0  0  0  0  0  0
   12.1968  -14.0712   20.3612 C   0  0  0  0  0  0  0  0  0  0  0  0
   11.0232  -14.8571   19.8206 C   0  0  2  0  0  0  0  0  0  0  0  0
   10.6498  -14.3236   18.5175 N   0  0  0  0  0  0  0  0  0  0  0  0
    9.9089  -14.7000   20.7843 C   0  0  0  0  0  0  0  0  0  0  0  0
    9.5090  -13.5172   21.0036 O   0  0  0  0  0  0  0  0  0  0  0  0
    6.0484  -16.5768   23.1011 C   0  0  0  0  0  0  0  0  0  0  0  0
    7.2824  -16.7798   22.2806 C   0  0  1  0  0  0  0  0  0  0  0  0
    7.0213  -17.1728   20.9788 O   0  0  0  0  0  0  0  0  0  0  0  0
    8.1689  -15.5442   22.3014 C   0  0  2  0  0  0  0  0  0  0  0  0
    9.2893  -15.7915   21.4524 N   0  0  0  0  0  0  0  0  0  0  0  0
    8.5436  -15.1673   23.6820 C   0  0  0  0  0  0  0  0  0  0  0  0
    9.6431  -15.5388   24.1238 O   0  0  0  0  0  0  0  0  0  0  0  0
    5.7413  -13.6328   26.7734 C   0  0  0  0  0  0  0  0  0  0  0  0
    7.1032  -13.0520   26.5404 C   0  0  2  0  0  0  0  0  0  0  0  0
    7.0409  -11.6892   25.8634 C   0  0  0  0  0  0  0  0  0  0  0  0
    8.0478  -13.9866   25.8638 C   0  0  2  0  0  0  0  0  0  0  0  0
    7.7391  -14.4054   24.5555 N   0  0  0  0  0  0  0  0  0  0  0  0
    8.1683  -15.2010   26.7302 C   0  0  0  0  0  0  0  0  0  0  0  0
    8.8637  -15.1850   27.9292 O   0  0  0  0  0  0  0  0  0  0  0  0
    7.6382  -16.3004   26.4044 O   0  0  0  0  0  0  0  0  0  0  0  0
  2  1  1  0
  3  2  2  0
  4  2  1  0
  4  5  1  0
  5  6  1  6
  7  5  1  0
  7  8  2  0
 10  9  1  6
 10 12  1  0
 11 10  1  0
 12 14  1  0
 12 13  1  6
 13  7  1  0
 14 20  1  0
 15 14  2  0
 17 16  1  6
 17 18  1  0
 19 17  1  0
 19 20  1  6
 21 22  1  0
 21 19  1  0
 23 21  2  0
M  END
$$$$
