PPT.pdb
     RDKit          3D

 22 23  0  0  1  0  0  0  0  0999 V2000
    8.3152  -14.0875   20.9535 N   0  0  0  0  0  0  0  0  0  0  0  0
    7.4564  -14.8522   20.0638 C   0  0  0  0  0  0  0  0  0  0  0  0
    6.8280  -15.8087   21.0532 C   0  0  0  0  0  0  0  0  0  0  0  0
    6.4083  -14.8656   22.1560 C   0  0  0  0  0  0  0  0  0  0  0  0
    7.5233  -13.8462   22.1467 C   0  0  1  0  0  0  0  0  0  0  0  0
    8.3784  -14.1137   23.3315 C   0  0  0  0  0  0  0  0  0  0  0  0
    9.6139  -14.4124   23.1956 O   0  0  0  0  0  0  0  0  0  0  0  0
    7.8646  -14.0469   24.6359 N   0  0  0  0  0  0  0  0  0  0  0  0
    6.4970  -13.9478   25.0298 C   0  0  0  0  0  0  0  0  0  0  0  0
    6.4793  -13.2793   26.3903 C   0  0  0  0  0  0  0  0  0  0  0  0
    7.9266  -12.9550   26.6339 C   0  0  0  0  0  0  0  0  0  0  0  0
    8.6506  -14.0508   25.8688 C   0  0  1  0  0  0  0  0  0  0  0  0
    8.4762  -15.3589   26.5296 C   0  0  0  0  0  0  0  0  0  0  0  0
    7.3493  -15.9075   26.6455 O   0  0  0  0  0  0  0  0  0  0  0  0
    9.9921  -17.9653   24.8771 C   0  0  0  0  0  0  0  0  0  0  0  0
   10.4751  -18.1221   26.2867 C   0  0  1  0  0  0  0  0  0  0  0  0
   11.7958  -17.6935   26.4287 O   0  0  0  0  0  0  0  0  0  0  0  0
    9.5736  -17.4429   27.2955 C   0  0  2  0  0  0  0  0  0  0  0  0
    9.6311  -16.0321   27.0601 N   0  0  0  0  0  0  0  0  0  0  0  0
    9.9533  -17.7455   28.6757 C   0  0  0  0  0  0  0  0  0  0  0  0
    9.6968  -19.0048   29.1937 O   0  0  0  0  0  0  0  0  0  0  0  0
   10.5120  -16.9007   29.4284 O   0  0  0  0  0  0  0  0  0  0  0  0
  1  5  1  0
  2  1  1  0
  3  2  1  0
  3  4  1  0
  4  5  1  0
  5  6  1  1
  6  7  2  0
  8  6  1  0
  8 12  1  0
  9 10  1  0
  9  8  1  0
 11 10  1  0
 11 12  1  0
 12 13  1  1
 13 19  1  0
 13 14  2  0
 16 15  1  6
 16 17  1  0
 18 20  1  0
 18 16  1  0
 18 19  1  1
 20 21  1  0
 22 20  2  0
M  END
$$$$
