PPT.pdb
     RDKit          3D

 22 23  0  0  1  0  0  0  0  0999 V2000
    8.0806  -14.0988   21.0457 N   0  0  0  0  0  0  0  0  0  0  0  0
    7.2194  -14.9272   20.2176 C   0  0  0  0  0  0  0  0  0  0  0  0
    6.7412  -15.9293   21.2452 C   0  0  0  0  0  0  0  0  0  0  0  0
    6.3335  -15.0213   22.3815 C   0  0  0  0  0  0  0  0  0  0  0  0
    7.3633  -13.9192   22.2957 C   0  0  1  0  0  0  0  0  0  0  0  0
    8.3220  -14.1202   23.4123 C   0  0  0  0  0  0  0  0  0  0  0  0
    9.5405  -14.4318   23.1836 O   0  0  0  0  0  0  0  0  0  0  0  0
    7.9278  -13.9744   24.7514 N   0  0  0  0  0  0  0  0  0  0  0  0
    6.6059  -13.7917   25.2557 C   0  0  0  0  0  0  0  0  0  0  0  0
    6.7377  -13.0677   26.5811 C   0  0  0  0  0  0  0  0  0  0  0  0
    8.2141  -12.8056   26.6854 C   0  0  0  0  0  0  0  0  0  0  0  0
    8.8175  -13.9664   25.9116 C   0  0  1  0  0  0  0  0  0  0  0  0
    8.6420  -15.2360   26.6435 C   0  0  0  0  0  0  0  0  0  0  0  0
    7.5152  -15.7790   26.7850 O   0  0  0  0  0  0  0  0  0  0  0  0
   11.4000  -19.1589   26.4707 C   0  0  0  0  0  0  0  0  0  0  0  0
   11.0661  -17.7024   26.3602 C   0  0  1  0  0  0  0  0  0  0  0  0
   10.8811  -17.3164   25.0318 O   0  0  0  0  0  0  0  0  0  0  0  0
    9.8780  -17.3060   27.2103 C   0  0  2  0  0  0  0  0  0  0  0  0
    9.7955  -15.8770   27.2155 N   0  0  0  0  0  0  0  0  0  0  0  0
    9.9758  -17.8161   28.5782 C   0  0  0  0  0  0  0  0  0  0  0  0
    9.6171  -19.1276   28.8449 O   0  0  0  0  0  0  0  0  0  0  0  0
   10.3778  -17.1070   29.5415 O   0  0  0  0  0  0  0  0  0  0  0  0
  1  5  1  0
  2  1  1  0
  3  2  1  0
  3  4  1  0
  4  5  1  0
  5  6  1  1
  6  7  2  0
  8  6  1  0
  8 12  1  0
  9 10  1  0
  9  8  1  0
 11 10  1  0
 11 12  1  0
 12 13  1  1
 13 19  1  0
 13 14  2  0
 16 15  1  6
 16 17  1  0
 18 20  1  0
 18 16  1  0
 18 19  1  1
 20 21  1  0
 22 20  2  0
M  END
$$$$
