PPT.pdb
     RDKit          3D

 22 23  0  0  1  0  0  0  0  0999 V2000
    8.4388  -14.3442   20.5512 N   0  0  0  0  0  0  0  0  0  0  0  0
    7.5542  -15.0793   19.6618 C   0  0  0  0  0  0  0  0  0  0  0  0
    6.8455  -15.9671   20.6610 C   0  0  0  0  0  0  0  0  0  0  0  0
    6.4608  -14.9693   21.7278 C   0  0  0  0  0  0  0  0  0  0  0  0
    7.6370  -14.0212   21.7182 C   0  0  1  0  0  0  0  0  0  0  0  0
    8.4472  -14.3073   22.9299 C   0  0  0  0  0  0  0  0  0  0  0  0
    9.6895  -14.5938   22.8365 O   0  0  0  0  0  0  0  0  0  0  0  0
    7.8820  -14.2722   24.2141 N   0  0  0  0  0  0  0  0  0  0  0  0
    6.5044  -14.1295   24.5563 C   0  0  0  0  0  0  0  0  0  0  0  0
    6.4575  -13.5180   25.9427 C   0  0  0  0  0  0  0  0  0  0  0  0
    7.9056  -13.2680   26.2584 C   0  0  0  0  0  0  0  0  0  0  0  0
    8.6143  -14.3619   25.4764 C   0  0  1  0  0  0  0  0  0  0  0  0
    8.3571  -15.6874   26.0724 C   0  0  0  0  0  0  0  0  0  0  0  0
    7.2027  -16.1861   26.1273 O   0  0  0  0  0  0  0  0  0  0  0  0
    9.8133  -18.3545   24.4135 C   0  0  0  0  0  0  0  0  0  0  0  0
   10.2218  -18.5602   25.8403 C   0  0  1  0  0  0  0  0  0  0  0  0
   11.5569  -18.2107   26.0487 O   0  0  0  0  0  0  0  0  0  0  0  0
    9.3153  -17.8455   26.8196 C   0  0  2  0  0  0  0  0  0  0  0  0
    9.4608  -16.4370   26.6094 N   0  0  0  0  0  0  0  0  0  0  0  0
    9.6163  -18.1873   28.2100 C   0  0  0  0  0  0  0  0  0  0  0  0
    9.3630  -19.4704   28.6676 O   0  0  0  0  0  0  0  0  0  0  0  0
   10.1033  -17.3560   29.0249 O   0  0  0  0  0  0  0  0  0  0  0  0
  1  5  1  0
  2  1  1  0
  3  2  1  0
  3  4  1  0
  4  5  1  0
  5  6  1  1
  6  7  2  0
  8  6  1  0
  8 12  1  0
  9 10  1  0
  9  8  1  0
 11 10  1  0
 11 12  1  0
 12 13  1  1
 13 19  1  0
 13 14  2  0
 16 15  1  6
 16 17  1  0
 18 20  1  0
 18 16  1  0
 18 19  1  1
 20 21  1  0
 22 20  2  0
M  END
$$$$
