PPT.pdb
     RDKit          3D

 22 23  0  0  1  0  0  0  0  0999 V2000
    8.3095  -14.1093   21.0004 N   0  0  0  0  0  0  0  0  0  0  0  0
    7.3799  -14.8209   20.1382 C   0  0  0  0  0  0  0  0  0  0  0  0
    6.6858  -15.6978   21.1570 C   0  0  0  0  0  0  0  0  0  0  0  0
    6.3588  -14.6970   22.2402 C   0  0  0  0  0  0  0  0  0  0  0  0
    7.5544  -13.7745   22.1949 C   0  0  1  0  0  0  0  0  0  0  0  0
    8.3982  -14.0838   23.3776 C   0  0  0  0  0  0  0  0  0  0  0  0
    9.6225  -14.4246   23.2396 O   0  0  0  0  0  0  0  0  0  0  0  0
    7.8855  -14.0119   24.6821 N   0  0  0  0  0  0  0  0  0  0  0  0
    6.5224  -13.8631   25.0759 C   0  0  0  0  0  0  0  0  0  0  0  0
    6.5294  -13.2104   26.4442 C   0  0  0  0  0  0  0  0  0  0  0  0
    7.9881  -12.9469   26.6930 C   0  0  0  0  0  0  0  0  0  0  0  0
    8.6690  -14.0617   25.9157 C   0  0  1  0  0  0  0  0  0  0  0  0
    8.4417  -15.3694   26.5608 C   0  0  0  0  0  0  0  0  0  0  0  0
    7.2875  -15.8405   26.7348 O   0  0  0  0  0  0  0  0  0  0  0  0
    9.6454  -18.2653   24.9949 C   0  0  0  0  0  0  0  0  0  0  0  0
   10.1743  -18.3573   26.3937 C   0  0  1  0  0  0  0  0  0  0  0  0
   11.5373  -18.0621   26.4488 O   0  0  0  0  0  0  0  0  0  0  0  0
    9.3953  -17.5059   27.3734 C   0  0  2  0  0  0  0  0  0  0  0  0
    9.5753  -16.1339   27.0069 N   0  0  0  0  0  0  0  0  0  0  0  0
    9.8152  -17.7231   28.7580 C   0  0  0  0  0  0  0  0  0  0  0  0
    9.5732  -18.9471   29.3606 O   0  0  0  0  0  0  0  0  0  0  0  0
   10.3964  -16.8346   29.4400 O   0  0  0  0  0  0  0  0  0  0  0  0
  1  5  1  0
  2  1  1  0
  3  2  1  0
  3  4  1  0
  4  5  1  0
  5  6  1  1
  6  7  2  0
  8  6  1  0
  8 12  1  0
  9 10  1  0
  9  8  1  0
 11 10  1  0
 11 12  1  0
 12 13  1  1
 13 19  1  0
 13 14  2  0
 16 15  1  6
 16 17  1  0
 18 20  1  0
 18 16  1  0
 18 19  1  6
 20 21  1  0
 22 20  2  0
M  END
$$$$
