PPT.pdb
     RDKit          3D

 22 23  0  0  1  0  0  0  0  0999 V2000
    8.7638  -17.9070   18.6144 N   0  0  0  0  0  0  0  0  0  0  0  0
    8.1563  -19.2122   18.8174 C   0  0  0  0  0  0  0  0  0  0  0  0
    7.7552  -19.0989   20.2716 C   0  0  0  0  0  0  0  0  0  0  0  0
    7.0740  -17.7508   20.2900 C   0  0  0  0  0  0  0  0  0  0  0  0
    7.8961  -16.9633   19.2968 C   0  0  1  0  0  0  0  0  0  0  0  0
    8.7498  -16.0266   20.0716 C   0  0  0  0  0  0  0  0  0  0  0  0
   10.0154  -16.1939   20.1384 O   0  0  0  0  0  0  0  0  0  0  0  0
    8.2014  -14.9292   20.7533 N   0  0  0  0  0  0  0  0  0  0  0  0
    6.8213  -14.6293   20.9547 C   0  0  0  0  0  0  0  0  0  0  0  0
    6.7204  -13.1279   21.1385 C   0  0  0  0  0  0  0  0  0  0  0  0
    8.1327  -12.6590   20.9266 C   0  0  0  0  0  0  0  0  0  0  0  0
    8.9558  -13.8501   21.3893 C   0  0  1  0  0  0  0  0  0  0  0  0
    8.8656  -14.0169   22.8529 C   0  0  0  0  0  0  0  0  0  0  0  0
    9.2568  -13.1292   23.6550 O   0  0  0  0  0  0  0  0  0  0  0  0
    6.3464  -14.1533   25.3749 C   0  0  0  0  0  0  0  0  0  0  0  0
    6.9819  -15.5099   25.3412 C   0  0  1  0  0  0  0  0  0  0  0  0
    6.1925  -16.4307   24.6507 O   0  0  0  0  0  0  0  0  0  0  0  0
    8.3919  -15.4844   24.7910 C   0  0  2  0  0  0  0  0  0  0  0  0
    8.3126  -15.2337   23.3838 N   0  0  0  0  0  0  0  0  0  0  0  0
    9.1132  -16.7313   25.0470 C   0  0  0  0  0  0  0  0  0  0  0  0
    9.4471  -17.0720   26.3479 O   0  0  0  0  0  0  0  0  0  0  0  0
    9.4508  -17.5236   24.1247 O   0  0  0  0  0  0  0  0  0  0  0  0
  1  5  1  0
  2  1  1  0
  3  2  1  0
  3  4  1  0
  4  5  1  0
  5  6  1  1
  6  7  2  0
  8  6  1  0
  8 12  1  0
  9 10  1  0
  9  8  1  0
 11 10  1  0
 11 12  1  0
 12 13  1  1
 13 19  1  0
 13 14  2  0
 16 15  1  6
 16 17  1  0
 18 20  1  0
 18 16  1  0
 18 19  1  6
 20 21  1  0
 22 20  2  0
M  END
$$$$
