PPT.pdb
     RDKit          3D

 22 23  0  0  1  0  0  0  0  0999 V2000
    8.1460  -14.3320   20.6991 N   0  0  0  0  0  0  0  0  0  0  0  0
    7.3103  -15.2467   19.9385 C   0  0  0  0  0  0  0  0  0  0  0  0
    6.8876  -16.1995   21.0348 C   0  0  0  0  0  0  0  0  0  0  0  0
    6.4561  -15.2381   22.1171 C   0  0  0  0  0  0  0  0  0  0  0  0
    7.4374  -14.1022   21.9458 C   0  0  1  0  0  0  0  0  0  0  0  0
    8.4174  -14.1914   23.0584 C   0  0  0  0  0  0  0  0  0  0  0  0
    9.6636  -14.3543   22.8243 O   0  0  0  0  0  0  0  0  0  0  0  0
    8.0137  -14.0988   24.3994 N   0  0  0  0  0  0  0  0  0  0  0  0
    6.6837  -13.9874   24.9034 C   0  0  0  0  0  0  0  0  0  0  0  0
    6.7804  -13.2940   26.2481 C   0  0  0  0  0  0  0  0  0  0  0  0
    8.2436  -12.9707   26.3648 C   0  0  0  0  0  0  0  0  0  0  0  0
    8.8992  -14.0831   25.5628 C   0  0  1  0  0  0  0  0  0  0  0  0
    8.7773  -15.3782   26.2599 C   0  0  0  0  0  0  0  0  0  0  0  0
    7.6712  -15.9614   26.4042 O   0  0  0  0  0  0  0  0  0  0  0  0
   11.5468  -19.3208   26.1877 C   0  0  0  0  0  0  0  0  0  0  0  0
   11.2583  -17.8561   26.0589 C   0  0  1  0  0  0  0  0  0  0  0  0
   11.1501  -17.4687   24.7225 O   0  0  0  0  0  0  0  0  0  0  0  0
   10.0405  -17.4257   26.8483 C   0  0  2  0  0  0  0  0  0  0  0  0
    9.9606  -15.9975   26.7936 N   0  0  0  0  0  0  0  0  0  0  0  0
   10.0871  -17.8809   28.2381 C   0  0  0  0  0  0  0  0  0  0  0  0
    9.8298  -19.2108   28.5296 O   0  0  0  0  0  0  0  0  0  0  0  0
   10.3548  -17.1076   29.1986 O   0  0  0  0  0  0  0  0  0  0  0  0
  1  5  1  0
  2  1  1  0
  3  2  1  0
  3  4  1  0
  4  5  1  0
  5  6  1  1
  6  7  2  0
  8  6  1  0
  8 12  1  0
  9 10  1  0
  9  8  1  0
 11 10  1  0
 11 12  1  0
 12 13  1  1
 13 19  1  0
 13 14  2  0
 16 15  1  6
 16 17  1  0
 18 20  1  0
 18 16  1  0
 18 19  1  1
 20 21  1  0
 22 20  2  0
M  END
$$$$
