PPT.pdb
     RDKit          3D

 22 23  0  0  1  0  0  0  0  0999 V2000
    8.5818  -16.6441   15.9374 N   0  0  0  0  0  0  0  0  0  0  0  0
    7.7664  -17.7968   15.5906 C   0  0  0  0  0  0  0  0  0  0  0  0
    7.3353  -18.2457   16.9695 C   0  0  0  0  0  0  0  0  0  0  0  0
    6.8782  -16.9416   17.5795 C   0  0  0  0  0  0  0  0  0  0  0  0
    7.8517  -15.9514   16.9843 C   0  0  1  0  0  0  0  0  0  0  0  0
    8.8150  -15.5800   18.0523 C   0  0  0  0  0  0  0  0  0  0  0  0
   10.0515  -15.8906   17.9583 O   0  0  0  0  0  0  0  0  0  0  0  0
    8.4055  -14.8771   19.1960 N   0  0  0  0  0  0  0  0  0  0  0  0
    7.0753  -14.5262   19.5735 C   0  0  0  0  0  0  0  0  0  0  0  0
    7.1786  -13.2955   20.4528 C   0  0  0  0  0  0  0  0  0  0  0  0
    8.6475  -12.9779   20.4300 C   0  0  0  0  0  0  0  0  0  0  0  0
    9.2844  -14.3443   20.2359 C   0  0  1  0  0  0  0  0  0  0  0  0
    9.1316  -15.1741   21.4468 C   0  0  0  0  0  0  0  0  0  0  0  0
    8.0065  -15.5603   21.8583 O   0  0  0  0  0  0  0  0  0  0  0  0
   10.5642  -18.3876   21.5095 C   0  0  0  0  0  0  0  0  0  0  0  0
   11.0533  -17.7417   22.7699 C   0  0  1  0  0  0  0  0  0  0  0  0
   12.3973  -17.3780   22.6735 O   0  0  0  0  0  0  0  0  0  0  0  0
   10.2023  -16.5641   23.1949 C   0  0  2  0  0  0  0  0  0  0  0  0
   10.3061  -15.5562   22.1837 N   0  0  0  0  0  0  0  0  0  0  0  0
   10.6041  -16.0257   24.4947 C   0  0  0  0  0  0  0  0  0  0  0  0
   10.3054  -16.7328   25.6482 O   0  0  0  0  0  0  0  0  0  0  0  0
   11.2194  -14.9308   24.6167 O   0  0  0  0  0  0  0  0  0  0  0  0
  1  5  1  0
  2  1  1  0
  3  2  1  0
  3  4  1  0
  4  5  1  0
  5  6  1  1
  6  7  2  0
  8  6  1  0
  8 12  1  0
  9 10  1  0
  9  8  1  0
 11 10  1  0
 11 12  1  0
 12 13  1  1
 13 19  1  0
 13 14  2  0
 16 15  1  6
 16 17  1  0
 18 20  1  0
 18 16  1  0
 18 19  1  6
 20 21  1  0
 22 20  2  0
M  END
$$$$
