LVP.pdb
     RDKit          3D

 23 23  0  0  1  0  0  0  0  0999 V2000
    9.8726  -13.1008   19.2871 C   0  0  0  0  0  0  0  0  0  0  0  0
    8.3811  -13.4510   19.1930 C   0  0  2  0  0  0  0  0  0  0  0  0
    7.7346  -12.2598   18.5240 C   0  0  0  0  0  0  0  0  0  0  0  0
    7.8020  -13.7831   20.5273 C   0  0  0  0  0  0  0  0  0  0  0  0
    8.4542  -14.9619   21.1635 C   0  0  2  0  0  0  0  0  0  0  0  0
    8.3844  -16.0935   20.2932 N   0  0  0  0  0  0  0  0  0  0  0  0
    7.9854  -15.2356   22.5312 C   0  0  0  0  0  0  0  0  0  0  0  0
    6.9029  -14.7591   22.9544 O   0  0  0  0  0  0  0  0  0  0  0  0
    6.6533  -18.0292   24.0464 C   0  0  0  0  0  0  0  0  0  0  0  0
    7.7801  -17.6975   25.0187 C   0  0  2  0  0  0  0  0  0  0  0  0
    7.2525  -17.9271   26.4137 C   0  0  0  0  0  0  0  0  0  0  0  0
    8.2609  -16.2698   24.8084 C   0  0  2  0  0  0  0  0  0  0  0  0
    8.7159  -16.0547   23.4757 N   0  0  0  0  0  0  0  0  0  0  0  0
    9.2737  -15.9749   25.8219 C   0  0  0  0  0  0  0  0  0  0  0  0
   10.2569  -16.8081   25.8569 O   0  0  0  0  0  0  0  0  0  0  0  0
    9.3166  -14.9287   26.7413 N   0  0  0  0  0  0  0  0  0  0  0  0
    8.3681  -13.8634   26.9255 C   0  0  0  0  0  0  0  0  0  0  0  0
    8.6249  -13.2712   28.3056 C   0  0  0  0  0  0  0  0  0  0  0  0
   10.0891  -13.4870   28.4825 C   0  0  0  0  0  0  0  0  0  0  0  0
   10.3846  -14.7376   27.7166 C   0  0  1  0  0  0  0  0  0  0  0  0
   10.4092  -15.8772   28.6609 C   0  0  0  0  0  0  0  0  0  0  0  0
    9.3756  -16.7903   28.7704 O   0  0  0  0  0  0  0  0  0  0  0  0
   11.4331  -16.0081   29.3974 O   0  0  0  0  0  0  0  0  0  0  0  0
  2  1  1  1
  2  3  1  0
  4  2  1  0
  4  5  1  0
  5  6  1  6
  7  5  1  0
  7  8  2  0
 10 12  1  0
 10 11  1  1
 10  9  1  0
 12 13  1  6
 13  7  1  0
 14 12  1  0
 15 14  2  0
 16 14  1  0
 17 16  1  0
 18 17  1  0
 19 18  1  0
 19 20  1  0
 20 21  1  1
 20 16  1  0
 21 22  1  0
 23 21  2  0
M  END
$$$$
