LVP.pdb
     RDKit          3D

 23 23  0  0  1  0  0  0  0  0999 V2000
    5.6968  -11.2334   26.0804 C   0  0  0  0  0  0  0  0  0  0  0  0
    6.3837  -12.1034   27.1422 C   0  0  2  0  0  0  0  0  0  0  0  0
    7.2625  -11.1550   27.9251 C   0  0  0  0  0  0  0  0  0  0  0  0
    7.1219  -13.2473   26.5321 C   0  0  0  0  0  0  0  0  0  0  0  0
    6.2415  -14.1406   25.7278 C   0  0  2  0  0  0  0  0  0  0  0  0
    5.3074  -14.8085   26.5788 N   0  0  0  0  0  0  0  0  0  0  0  0
    6.9739  -15.0440   24.8264 C   0  0  0  0  0  0  0  0  0  0  0  0
    7.1309  -16.2577   25.1099 O   0  0  0  0  0  0  0  0  0  0  0  0
    7.1223  -14.3859   20.7862 C   0  0  0  0  0  0  0  0  0  0  0  0
    8.4422  -14.9324   21.3194 C   0  0  2  0  0  0  0  0  0  0  0  0
    8.9375  -15.9574   20.3289 C   0  0  0  0  0  0  0  0  0  0  0  0
    8.2528  -15.5155   22.7114 C   0  0  2  0  0  0  0  0  0  0  0  0
    7.5588  -14.6175   23.5723 N   0  0  0  0  0  0  0  0  0  0  0  0
    9.5647  -15.9122   23.2229 C   0  0  0  0  0  0  0  0  0  0  0  0
   10.4052  -14.9436   23.3540 O   0  0  0  0  0  0  0  0  0  0  0  0
   10.0202  -17.1793   23.5818 N   0  0  0  0  0  0  0  0  0  0  0  0
    9.2935  -18.4204   23.5864 C   0  0  0  0  0  0  0  0  0  0  0  0
   10.3253  -19.5412   23.6127 C   0  0  0  0  0  0  0  0  0  0  0  0
   11.4557  -18.9224   24.3614 C   0  0  0  0  0  0  0  0  0  0  0  0
   11.3782  -17.4653   24.0316 C   0  0  1  0  0  0  0  0  0  0  0  0
   12.3374  -17.1741   22.9425 C   0  0  0  0  0  0  0  0  0  0  0  0
   13.6854  -16.9534   23.1617 O   0  0  0  0  0  0  0  0  0  0  0  0
   11.8858  -17.1280   21.7585 O   0  0  0  0  0  0  0  0  0  0  0  0
  2  1  1  6
  2  3  1  0
  4  2  1  0
  4  5  1  0
  5  6  1  1
  7  5  1  0
  7  8  2  0
 10 12  1  0
 10 11  1  6
 10  9  1  0
 12 13  1  1
 13  7  1  0
 14 12  1  0
 15 14  2  0
 16 14  1  0
 17 16  1  0
 18 17  1  0
 19 18  1  0
 19 20  1  0
 20 21  1  6
 20 16  1  0
 21 22  1  0
 23 21  2  0
M  END
$$$$
