LVP.pdb
     RDKit          3D

 23 23  0  0  1  0  0  0  0  0999 V2000
    9.8474  -13.1789   19.5619 C   0  0  0  0  0  0  0  0  0  0  0  0
    8.5085  -13.4917   18.8797 C   0  0  2  0  0  0  0  0  0  0  0  0
    8.0695  -12.1897   18.2499 C   0  0  0  0  0  0  0  0  0  0  0  0
    7.5172  -14.0653   19.8358 C   0  0  0  0  0  0  0  0  0  0  0  0
    8.0385  -15.2558   20.5644 C   0  0  2  0  0  0  0  0  0  0  0  0
    7.9490  -16.4181   19.7376 N   0  0  0  0  0  0  0  0  0  0  0  0
    7.4579  -15.4350   21.9046 C   0  0  0  0  0  0  0  0  0  0  0  0
    6.2212  -15.3271   22.0964 O   0  0  0  0  0  0  0  0  0  0  0  0
    6.8428  -18.1721   23.8899 C   0  0  0  0  0  0  0  0  0  0  0  0
    7.6406  -17.3028   24.8557 C   0  0  2  0  0  0  0  0  0  0  0  0
    7.0068  -17.4455   26.2178 C   0  0  0  0  0  0  0  0  0  0  0  0
    7.6650  -15.8595   24.3760 C   0  0  2  0  0  0  0  0  0  0  0  0
    8.2454  -15.7414   23.0804 N   0  0  0  0  0  0  0  0  0  0  0  0
    8.3420  -15.0522   25.3908 C   0  0  0  0  0  0  0  0  0  0  0  0
    9.5375  -15.4410   25.6765 O   0  0  0  0  0  0  0  0  0  0  0  0
    7.8736  -13.9352   26.0798 N   0  0  0  0  0  0  0  0  0  0  0  0
    6.6127  -13.2596   25.9315 C   0  0  0  0  0  0  0  0  0  0  0  0
    6.4073  -12.4185   27.1853 C   0  0  0  0  0  0  0  0  0  0  0  0
    7.8039  -12.0739   27.5757 C   0  0  0  0  0  0  0  0  0  0  0  0
    8.6251  -13.2374   27.1174 C   0  0  1  0  0  0  0  0  0  0  0  0
    8.8483  -14.1422   28.2673 C   0  0  0  0  0  0  0  0  0  0  0  0
    9.7710  -13.8828   29.2650 O   0  0  0  0  0  0  0  0  0  0  0  0
    8.1531  -15.2012   28.3255 O   0  0  0  0  0  0  0  0  0  0  0  0
  2  1  1  1
  2  3  1  0
  4  2  1  0
  4  5  1  0
  5  6  1  6
  7  5  1  0
  7  8  2  0
 10 12  1  0
 10 11  1  1
 10  9  1  0
 12 13  1  6
 13  7  1  0
 14 12  1  0
 15 14  2  0
 16 14  1  0
 17 16  1  0
 18 17  1  0
 19 18  1  0
 19 20  1  0
 20 21  1  1
 20 16  1  0
 21 22  1  0
 23 21  2  0
M  END
$$$$
