LVP.pdb
     RDKit          3D

 23 23  0  0  1  0  0  0  0  0999 V2000
    9.4551  -18.4831   28.9291 C   0  0  0  0  0  0  0  0  0  0  0  0
    9.0808  -19.5709   27.9129 C   0  0  2  0  0  0  0  0  0  0  0  0
   10.3910  -20.2107   27.5149 C   0  0  0  0  0  0  0  0  0  0  0  0
    8.3051  -19.0171   26.7650 C   0  0  0  0  0  0  0  0  0  0  0  0
    7.0688  -18.3041   27.1929 C   0  0  2  0  0  0  0  0  0  0  0  0
    5.9985  -19.2349   27.3684 N   0  0  0  0  0  0  0  0  0  0  0  0
    6.7211  -17.1535   26.3441 C   0  0  0  0  0  0  0  0  0  0  0  0
    5.9166  -17.2722   25.3867 O   0  0  0  0  0  0  0  0  0  0  0  0
    6.3775  -13.0036   27.0744 C   0  0  0  0  0  0  0  0  0  0  0  0
    7.4753  -13.4330   26.1073 C   0  0  2  0  0  0  0  0  0  0  0  0
    7.5660  -12.3776   25.0326 C   0  0  0  0  0  0  0  0  0  0  0  0
    7.1755  -14.8126   25.5411 C   0  0  2  0  0  0  0  0  0  0  0  0
    7.2652  -15.8258   26.5385 N   0  0  0  0  0  0  0  0  0  0  0  0
    8.0628  -15.0411   24.4007 C   0  0  0  0  0  0  0  0  0  0  0  0
    9.2418  -15.4589   24.7129 O   0  0  0  0  0  0  0  0  0  0  0  0
    7.8071  -14.8696   23.0417 N   0  0  0  0  0  0  0  0  0  0  0  0
    6.6437  -14.2991   22.4178 C   0  0  0  0  0  0  0  0  0  0  0  0
    7.0371  -13.9312   20.9925 C   0  0  0  0  0  0  0  0  0  0  0  0
    8.0725  -14.9534   20.6690 C   0  0  0  0  0  0  0  0  0  0  0  0
    8.7273  -15.2594   21.9788 C   0  0  1  0  0  0  0  0  0  0  0  0
    9.9741  -14.4682   22.0818 C   0  0  0  0  0  0  0  0  0  0  0  0
   11.1006  -14.7308   21.3229 O   0  0  0  0  0  0  0  0  0  0  0  0
    9.9941  -13.5079   22.9098 O   0  0  0  0  0  0  0  0  0  0  0  0
  2  1  1  1
  2  3  1  0
  4  2  1  0
  4  5  1  0
  5  6  1  6
  7  5  1  0
  7  8  2  0
 10 12  1  0
 10 11  1  6
 10  9  1  0
 12 13  1  1
 13  7  1  0
 14 12  1  0
 15 14  2  0
 16 14  1  0
 17 16  1  0
 18 17  1  0
 19 18  1  0
 19 20  1  0
 20 21  1  1
 20 16  1  0
 21 22  1  0
 23 21  2  0
M  END
$$$$
