LVP.pdb
     RDKit          3D

 23 23  0  0  1  0  0  0  0  0999 V2000
    8.8935  -19.0077   20.7689 C   0  0  0  0  0  0  0  0  0  0  0  0
   10.3802  -18.7107   21.0089 C   0  0  2  0  0  0  0  0  0  0  0  0
   10.9941  -20.0382   21.3905 C   0  0  0  0  0  0  0  0  0  0  0  0
   10.5763  -17.6388   22.0279 C   0  0  0  0  0  0  0  0  0  0  0  0
    9.7906  -16.4081   21.7311 C   0  0  2  0  0  0  0  0  0  0  0  0
   10.2783  -15.7871   20.5397 N   0  0  0  0  0  0  0  0  0  0  0  0
    9.6708  -15.4883   22.8733 C   0  0  0  0  0  0  0  0  0  0  0  0
   10.5737  -14.6544   23.1332 O   0  0  0  0  0  0  0  0  0  0  0  0
    6.5619  -13.2610   24.3688 C   0  0  0  0  0  0  0  0  0  0  0  0
    7.1066  -14.2876   25.3559 C   0  0  2  0  0  0  0  0  0  0  0  0
    7.0482  -13.6658   26.7296 C   0  0  0  0  0  0  0  0  0  0  0  0
    8.5174  -14.7028   24.9670 C   0  0  2  0  0  0  0  0  0  0  0  0
    8.5321  -15.4711   23.7675 N   0  0  0  0  0  0  0  0  0  0  0  0
    9.1205  -15.3943   26.1063 C   0  0  0  0  0  0  0  0  0  0  0  0
    8.9302  -16.6692   26.1227 O   0  0  0  0  0  0  0  0  0  0  0  0
    9.8624  -14.8660   27.1610 N   0  0  0  0  0  0  0  0  0  0  0  0
    9.9758  -13.4925   27.5720 C   0  0  0  0  0  0  0  0  0  0  0  0
   10.5113  -13.4966   28.9984 C   0  0  0  0  0  0  0  0  0  0  0  0
   11.3497  -14.7286   29.0254 C   0  0  0  0  0  0  0  0  0  0  0  0
   10.6837  -15.6631   28.0657 C   0  0  1  0  0  0  0  0  0  0  0  0
    9.8249  -16.5952   28.8303 C   0  0  0  0  0  0  0  0  0  0  0  0
   10.3303  -17.5931   29.6445 O   0  0  0  0  0  0  0  0  0  0  0  0
    8.5687  -16.4593   28.7228 O   0  0  0  0  0  0  0  0  0  0  0  0
  2  1  1  1
  2  3  1  0
  4  2  1  0
  4  5  1  0
  5  6  1  6
  7  5  1  0
  7  8  2  0
 10 12  1  0
 10 11  1  1
 10  9  1  0
 12 13  1  6
 13  7  1  0
 14 12  1  0
 15 14  2  0
 16 14  1  0
 17 16  1  0
 18 17  1  0
 19 18  1  0
 19 20  1  0
 20 21  1  1
 20 16  1  0
 21 22  1  0
 23 21  2  0
M  END
$$$$
