LVP.pdb
     RDKit          3D

 23 23  0  0  1  0  0  0  0  0999 V2000
    5.5057  -12.5846   26.2836 C   0  0  0  0  0  0  0  0  0  0  0  0
    6.5822  -13.0384   27.2792 C   0  0  2  0  0  0  0  0  0  0  0  0
    7.4481  -11.8213   27.5104 C   0  0  0  0  0  0  0  0  0  0  0  0
    7.3326  -14.2288   26.7836 C   0  0  0  0  0  0  0  0  0  0  0  0
    6.4941  -15.1344   25.9488 C   0  0  2  0  0  0  0  0  0  0  0  0
    5.7990  -16.0674   26.7790 N   0  0  0  0  0  0  0  0  0  0  0  0
    7.2223  -15.7604   24.8339 C   0  0  0  0  0  0  0  0  0  0  0  0
    7.6212  -16.9494   24.9046 O   0  0  0  0  0  0  0  0  0  0  0  0
    8.8147  -13.5335   21.4378 C   0  0  0  0  0  0  0  0  0  0  0  0
    8.1514  -14.8926   21.2439 C   0  0  2  0  0  0  0  0  0  0  0  0
    6.7306  -14.6408   20.8020 C   0  0  0  0  0  0  0  0  0  0  0  0
    8.2239  -15.7075   22.5263 C   0  0  2  0  0  0  0  0  0  0  0  0
    7.5307  -15.0734   23.5971 N   0  0  0  0  0  0  0  0  0  0  0  0
    9.6324  -15.9698   22.8217 C   0  0  0  0  0  0  0  0  0  0  0  0
   10.2715  -14.9686   23.3227 O   0  0  0  0  0  0  0  0  0  0  0  0
   10.3647  -17.1408   22.6363 N   0  0  0  0  0  0  0  0  0  0  0  0
    9.9116  -18.4039   22.1190 C   0  0  0  0  0  0  0  0  0  0  0  0
   11.1510  -19.1846   21.6997 C   0  0  0  0  0  0  0  0  0  0  0  0
   12.1829  -18.6903   22.6550 C   0  0  0  0  0  0  0  0  0  0  0  0
   11.7824  -17.2797   22.9512 C   0  0  1  0  0  0  0  0  0  0  0  0
   12.5764  -16.3715   22.0935 C   0  0  0  0  0  0  0  0  0  0  0  0
   13.8721  -15.9898   22.3929 O   0  0  0  0  0  0  0  0  0  0  0  0
   12.0283  -15.9310   21.0383 O   0  0  0  0  0  0  0  0  0  0  0  0
  2  1  1  6
  2  3  1  0
  4  2  1  0
  4  5  1  0
  5  6  1  1
  7  5  1  0
  7  8  2  0
 10 12  1  0
 10 11  1  1
 10  9  1  0
 12 13  1  1
 13  7  1  0
 14 12  1  0
 15 14  2  0
 16 14  1  0
 17 16  1  0
 18 17  1  0
 19 18  1  0
 19 20  1  0
 20 21  1  6
 20 16  1  0
 21 22  1  0
 23 21  2  0
M  END
$$$$
