LVP.pdb
     RDKit          3D

 23 23  0  0  1  0  0  0  0  0999 V2000
    6.2553  -20.5006   19.1095 C   0  0  0  0  0  0  0  0  0  0  0  0
    6.5798  -20.1256   20.5621 C   0  0  2  0  0  0  0  0  0  0  0  0
    7.7340  -21.0189   20.9548 C   0  0  0  0  0  0  0  0  0  0  0  0
    5.3874  -20.2532   21.4497 C   0  0  0  0  0  0  0  0  0  0  0  0
    5.6323  -19.7353   22.8251 C   0  0  2  0  0  0  0  0  0  0  0  0
    4.5891  -20.1600   23.7049 N   0  0  0  0  0  0  0  0  0  0  0  0
    5.9008  -18.2895   22.8778 C   0  0  0  0  0  0  0  0  0  0  0  0
    5.0356  -17.4544   22.5144 O   0  0  0  0  0  0  0  0  0  0  0  0
    7.0530  -16.0428   25.8011 C   0  0  0  0  0  0  0  0  0  0  0  0
    8.0314  -15.8620   24.6456 C   0  0  2  0  0  0  0  0  0  0  0  0
    8.4223  -14.4049   24.6111 C   0  0  0  0  0  0  0  0  0  0  0  0
    7.4034  -16.3249   23.3398 C   0  0  2  0  0  0  0  0  0  0  0  0
    7.1525  -17.7271   23.3401 N   0  0  0  0  0  0  0  0  0  0  0  0
    8.2639  -15.8898   22.2397 C   0  0  0  0  0  0  0  0  0  0  0  0
    9.3155  -16.6141   22.0617 O   0  0  0  0  0  0  0  0  0  0  0  0
    8.1007  -14.8124   21.3712 N   0  0  0  0  0  0  0  0  0  0  0  0
    7.0549  -13.8252   21.3609 C   0  0  0  0  0  0  0  0  0  0  0  0
    7.5635  -12.6452   20.5421 C   0  0  0  0  0  0  0  0  0  0  0  0
    8.4701  -13.3016   19.5578 C   0  0  0  0  0  0  0  0  0  0  0  0
    9.0131  -14.4952   20.2779 C   0  0  1  0  0  0  0  0  0  0  0  0
   10.3465  -14.1541   20.8224 C   0  0  0  0  0  0  0  0  0  0  0  0
   11.4861  -14.0821   20.0412 O   0  0  0  0  0  0  0  0  0  0  0  0
   10.4312  -13.9200   22.0658 O   0  0  0  0  0  0  0  0  0  0  0  0
  2  1  1  6
  2  3  1  0
  4  2  1  0
  4  5  1  0
  5  6  1  1
  7  5  1  0
  7  8  2  0
 10 12  1  0
 10 11  1  6
 10  9  1  0
 12 13  1  1
 13  7  1  0
 14 12  1  0
 15 14  2  0
 16 14  1  0
 17 16  1  0
 18 17  1  0
 19 18  1  0
 19 20  1  0
 20 21  1  1
 20 16  1  0
 21 22  1  0
 23 21  2  0
M  END
$$$$
