LVP.pdb
     RDKit          3D

 23 23  0  0  1  0  0  0  0  0999 V2000
    7.3485  -18.1443   20.3556 C   0  0  0  0  0  0  0  0  0  0  0  0
    8.8314  -18.2521   20.7369 C   0  0  2  0  0  0  0  0  0  0  0  0
    9.0855  -19.7295   20.9305 C   0  0  0  0  0  0  0  0  0  0  0  0
    9.1613  -17.4203   21.9306 C   0  0  0  0  0  0  0  0  0  0  0  0
    8.8073  -15.9843   21.7504 C   0  0  2  0  0  0  0  0  0  0  0  0
    9.4868  -15.4480   20.6130 N   0  0  0  0  0  0  0  0  0  0  0  0
    8.9622  -15.1754   22.9698 C   0  0  0  0  0  0  0  0  0  0  0  0
   10.0248  -14.5469   23.2018 O   0  0  0  0  0  0  0  0  0  0  0  0
    6.2330  -12.7355   24.8391 C   0  0  0  0  0  0  0  0  0  0  0  0
    6.8281  -13.7947   25.7604 C   0  0  2  0  0  0  0  0  0  0  0  0
    7.0103  -13.1597   27.1172 C   0  0  0  0  0  0  0  0  0  0  0  0
    8.1343  -14.3241   25.1880 C   0  0  2  0  0  0  0  0  0  0  0  0
    7.9288  -15.0427   23.9753 N   0  0  0  0  0  0  0  0  0  0  0  0
    8.8005  -15.1131   26.2242 C   0  0  0  0  0  0  0  0  0  0  0  0
    8.4277  -16.3458   26.2832 O   0  0  0  0  0  0  0  0  0  0  0  0
    9.7701  -14.7155   27.1426 N   0  0  0  0  0  0  0  0  0  0  0  0
   10.1127  -13.3816   27.5569 C   0  0  0  0  0  0  0  0  0  0  0  0
   10.8825  -13.5051   28.8660 C   0  0  0  0  0  0  0  0  0  0  0  0
   11.5631  -14.8229   28.7176 C   0  0  0  0  0  0  0  0  0  0  0  0
   10.6365  -15.6363   27.8704 C   0  0  1  0  0  0  0  0  0  0  0  0
    9.8199  -16.4983   28.7542 C   0  0  0  0  0  0  0  0  0  0  0  0
    8.4641  -16.3076   28.9530 O   0  0  0  0  0  0  0  0  0  0  0  0
   10.4060  -17.4519   29.3501 O   0  0  0  0  0  0  0  0  0  0  0  0
  2  1  1  1
  2  3  1  0
  4  2  1  0
  4  5  1  0
  5  6  1  6
  7  5  1  0
  7  8  2  0
 10 12  1  0
 10 11  1  1
 10  9  1  0
 12 13  1  6
 13  7  1  0
 14 12  1  0
 15 14  2  0
 16 14  1  0
 17 16  1  0
 18 17  1  0
 19 18  1  0
 19 20  1  0
 20 21  1  1
 20 16  1  0
 21 22  1  0
 23 21  2  0
M  END
$$$$
