LVP.pdb
     RDKit          3D

 23 23  0  0  1  0  0  0  0  0999 V2000
    9.8168  -13.3834   19.6101 C   0  0  0  0  0  0  0  0  0  0  0  0
    8.4500  -13.6190   18.9526 C   0  0  2  0  0  0  0  0  0  0  0  0
    8.0852  -12.3002   18.3106 C   0  0  0  0  0  0  0  0  0  0  0  0
    7.4393  -14.1148   19.9316 C   0  0  0  0  0  0  0  0  0  0  0  0
    7.8151  -15.4228   20.5382 C   0  0  2  0  0  0  0  0  0  0  0  0
    7.5158  -16.4893   19.6351 N   0  0  0  0  0  0  0  0  0  0  0  0
    7.2803  -15.6258   21.8940 C   0  0  0  0  0  0  0  0  0  0  0  0
    6.0435  -15.6112   22.1133 O   0  0  0  0  0  0  0  0  0  0  0  0
    6.6806  -18.2462   23.8783 C   0  0  0  0  0  0  0  0  0  0  0  0
    7.5197  -17.4090   24.8374 C   0  0  2  0  0  0  0  0  0  0  0  0
    6.9056  -17.5456   26.2090 C   0  0  0  0  0  0  0  0  0  0  0  0
    7.5779  -15.9628   24.3696 C   0  0  2  0  0  0  0  0  0  0  0  0
    8.1154  -15.8522   23.0550 N   0  0  0  0  0  0  0  0  0  0  0  0
    8.3189  -15.1898   25.3663 C   0  0  0  0  0  0  0  0  0  0  0  0
    9.5093  -15.6229   25.6053 O   0  0  0  0  0  0  0  0  0  0  0  0
    7.9151  -14.0639   26.0814 N   0  0  0  0  0  0  0  0  0  0  0  0
    6.6511  -13.3800   26.0293 C   0  0  0  0  0  0  0  0  0  0  0  0
    6.5530  -12.5276   27.2884 C   0  0  0  0  0  0  0  0  0  0  0  0
    7.9789  -12.1906   27.5624 C   0  0  0  0  0  0  0  0  0  0  0  0
    8.7524  -13.3638   27.0493 C   0  0  1  0  0  0  0  0  0  0  0  0
    9.0612  -14.2613   28.1851 C   0  0  0  0  0  0  0  0  0  0  0  0
   10.0629  -14.0012   29.1032 O   0  0  0  0  0  0  0  0  0  0  0  0
    8.3657  -15.3145   28.3078 O   0  0  0  0  0  0  0  0  0  0  0  0
  2  1  1  1
  2  3  1  0
  4  2  1  0
  4  5  1  0
  5  6  1  6
  7  5  1  0
  7  8  2  0
 10 12  1  0
 10 11  1  1
 10  9  1  0
 12 13  1  6
 13  7  1  0
 14 12  1  0
 15 14  2  0
 16 14  1  0
 17 16  1  0
 18 17  1  0
 19 18  1  0
 19 20  1  0
 20 21  1  1
 20 16  1  0
 21 22  1  0
 23 21  2  0
M  END
$$$$
