LVP.pdb
     RDKit          3D

 23 23  0  0  1  0  0  0  0  0999 V2000
    8.3646  -20.6635   25.3690 C   0  0  0  0  0  0  0  0  0  0  0  0
    7.9055  -21.0555   23.9578 C   0  0  2  0  0  0  0  0  0  0  0  0
    9.0989  -21.7342   23.3257 C   0  0  0  0  0  0  0  0  0  0  0  0
    7.4015  -19.8800   23.1896 C   0  0  0  0  0  0  0  0  0  0  0  0
    6.3251  -19.1396   23.9059 C   0  0  2  0  0  0  0  0  0  0  0  0
    5.0614  -19.7691   23.6832 N   0  0  0  0  0  0  0  0  0  0  0  0
    6.3213  -17.6920   23.6423 C   0  0  0  0  0  0  0  0  0  0  0  0
    5.5605  -17.1912   22.7772 O   0  0  0  0  0  0  0  0  0  0  0  0
    6.8229  -14.4557   26.1668 C   0  0  0  0  0  0  0  0  0  0  0  0
    7.8369  -14.5069   25.0292 C   0  0  2  0  0  0  0  0  0  0  0  0
    8.0695  -13.0884   24.5699 C   0  0  0  0  0  0  0  0  0  0  0  0
    7.3340  -15.4041   23.9085 C   0  0  2  0  0  0  0  0  0  0  0  0
    7.1732  -16.7520   24.3404 N   0  0  0  0  0  0  0  0  0  0  0  0
    8.2412  -15.2642   22.7695 C   0  0  0  0  0  0  0  0  0  0  0  0
    9.3180  -15.9684   22.8509 O   0  0  0  0  0  0  0  0  0  0  0  0
    8.0986  -14.4823   21.6248 N   0  0  0  0  0  0  0  0  0  0  0  0
    7.0325  -13.5770   21.2900 C   0  0  0  0  0  0  0  0  0  0  0  0
    7.5556  -12.6583   20.1928 C   0  0  0  0  0  0  0  0  0  0  0  0
    8.5266  -13.5323   19.4751 C   0  0  0  0  0  0  0  0  0  0  0  0
    9.0588  -14.4534   20.5269 C   0  0  1  0  0  0  0  0  0  0  0  0
   10.3542  -13.9241   21.0092 C   0  0  0  0  0  0  0  0  0  0  0  0
   11.5295  -14.0288   20.2869 O   0  0  0  0  0  0  0  0  0  0  0  0
   10.3702  -13.3506   22.1401 O   0  0  0  0  0  0  0  0  0  0  0  0
  2  1  1  1
  2  3  1  0
  4  2  1  0
  4  5  1  0
  5  6  1  6
  7  5  1  0
  7  8  2  0
 10 12  1  0
 10 11  1  6
 10  9  1  0
 12 13  1  1
 13  7  1  0
 14 12  1  0
 15 14  2  0
 16 14  1  0
 17 16  1  0
 18 17  1  0
 19 18  1  0
 19 20  1  0
 20 21  1  1
 20 16  1  0
 21 22  1  0
 23 21  2  0
M  END
$$$$
