LVP.pdb
     RDKit          3D

 23 23  0  0  1  0  0  0  0  0999 V2000
    9.5340  -12.7724   18.7327 C   0  0  0  0  0  0  0  0  0  0  0  0
    8.2403  -13.5902   18.6161 C   0  0  2  0  0  0  0  0  0  0  0  0
    7.3863  -12.8430   17.6176 C   0  0  0  0  0  0  0  0  0  0  0  0
    7.5860  -13.7891   19.9421 C   0  0  0  0  0  0  0  0  0  0  0  0
    8.4834  -14.4396   20.9378 C   0  0  2  0  0  0  0  0  0  0  0  0
    9.0698  -15.6168   20.3781 N   0  0  0  0  0  0  0  0  0  0  0  0
    7.8571  -14.6560   22.2517 C   0  0  0  0  0  0  0  0  0  0  0  0
    7.0904  -13.7977   22.7551 O   0  0  0  0  0  0  0  0  0  0  0  0
    6.3542  -18.0830   23.6566 C   0  0  0  0  0  0  0  0  0  0  0  0
    7.2600  -17.4460   24.7047 C   0  0  2  0  0  0  0  0  0  0  0  0
    6.5805  -17.6047   26.0427 C   0  0  0  0  0  0  0  0  0  0  0  0
    7.5290  -15.9890   24.3603 C   0  0  2  0  0  0  0  0  0  0  0  0
    8.0695  -15.8451   23.0502 N   0  0  0  0  0  0  0  0  0  0  0  0
    8.3819  -15.4226   25.4052 C   0  0  0  0  0  0  0  0  0  0  0  0
    9.5253  -16.0031   25.5383 O   0  0  0  0  0  0  0  0  0  0  0  0
    8.1267  -14.3548   26.2634 N   0  0  0  0  0  0  0  0  0  0  0  0
    6.9072  -13.6093   26.4217 C   0  0  0  0  0  0  0  0  0  0  0  0
    6.9995  -12.8816   27.7572 C   0  0  0  0  0  0  0  0  0  0  0  0
    8.4642  -12.6419   27.8941 C   0  0  0  0  0  0  0  0  0  0  0  0
    9.1058  -13.7945   27.1884 C   0  0  1  0  0  0  0  0  0  0  0  0
    9.4852  -14.8135   28.1928 C   0  0  0  0  0  0  0  0  0  0  0  0
   10.5847  -14.6842   29.0225 O   0  0  0  0  0  0  0  0  0  0  0  0
    8.7577  -15.8481   28.2839 O   0  0  0  0  0  0  0  0  0  0  0  0
  2  1  1  1
  2  3  1  0
  4  2  1  0
  4  5  1  0
  5  6  1  6
  7  5  1  0
  7  8  2  0
 10 12  1  0
 10 11  1  1
 10  9  1  0
 12 13  1  6
 13  7  1  0
 14 12  1  0
 15 14  2  0
 16 14  1  0
 17 16  1  0
 18 17  1  0
 19 18  1  0
 19 20  1  0
 20 21  1  1
 20 16  1  0
 21 22  1  0
 23 21  2  0
M  END
$$$$
