LSE.pdb
     RDKit          3D

 24 23  0  0  1  0  0  0  0  0999 V2000
   20.7016  -12.2409  -16.4878 C   0  0  0  0  0  0  0  0  0  0  0  0
   19.2252  -12.1703  -16.8768 C   0  0  2  0  0  0  0  0  0  0  0  0
   19.1073  -12.8197  -18.2314 C   0  0  0  0  0  0  0  0  0  0  0  0
   18.8533  -10.7145  -16.9379 C   0  0  0  0  0  0  0  0  0  0  0  0
   18.9110  -10.0078  -15.6183 C   0  0  2  0  0  0  0  0  0  0  0  0
   18.1188  -10.7128  -14.6529 N   0  0  0  0  0  0  0  0  0  0  0  0
   18.4064   -8.6213  -15.8065 C   0  0  0  0  0  0  0  0  0  0  0  0
   18.8918   -7.9159  -16.7460 O   0  0  0  0  0  0  0  0  0  0  0  0
   15.8129   -6.6955  -13.1956 O   0  0  0  0  0  0  0  0  0  0  0  0
   15.6996   -6.3226  -14.5343 C   0  0  0  0  0  0  0  0  0  0  0  0
   16.9932   -6.6749  -15.2472 C   0  0  2  0  0  0  0  0  0  0  0  0
   17.4069   -8.0193  -15.0004 N   0  0  0  0  0  0  0  0  0  0  0  0
   18.0540   -5.6797  -14.9473 C   0  0  0  0  0  0  0  0  0  0  0  0
   18.8554   -5.9602  -14.0257 O   0  0  0  0  0  0  0  0  0  0  0  0
   18.1651   -4.4698  -15.6604 N   0  0  0  0  0  0  0  0  0  0  0  0
   19.2654   -3.5115  -15.4533 C   0  0  1  0  0  0  0  0  0  0  0  0
   20.3175   -3.8140  -16.4855 C   0  0  0  0  0  0  0  0  0  0  0  0
   20.5574   -2.7293  -17.4887 C   0  0  0  0  0  0  0  0  0  0  0  0
   21.6164   -3.0369  -18.4500 C   0  0  0  0  0  0  0  0  0  0  0  0
   22.2596   -4.0916  -18.3789 O   0  0  0  0  0  0  0  0  0  0  0  0
   18.7243   -2.1448  -15.6299 C   0  0  0  0  0  0  0  0  0  0  0  0
   19.5152   -1.0572  -15.3126 O   0  0  0  0  0  0  0  0  0  0  0  0
   21.9459   -2.1543  -19.4874 O   0  0  0  0  0  0  0  0  0  0  0  0
   17.5773   -1.9483  -16.0559 O   0  0  0  0  0  0  0  0  0  0  0  0
  2  1  1  6
  3  2  1  0
  4  2  1  0
  5  6  1  1
  5  4  1  0
  7  5  1  0
  8  7  2  0
  9 10  1  0
 11 10  1  1
 11 13  1  0
 11 12  1  0
 12  7  1  0
 13 14  2  0
 15 16  1  0
 15 13  1  0
 16 17  1  6
 18 19  1  0
 18 17  1  0
 19 20  2  0
 21 22  1  0
 21 16  1  0
 23 19  1  0
 24 21  2  0
M  END
$$$$
