LSE.pdb
     RDKit          3D

 24 23  0  0  1  0  0  0  0  0999 V2000
   18.7936  -13.9557  -19.5871 C   0  0  0  0  0  0  0  0  0  0  0  0
   17.5709  -13.7523  -18.6928 C   0  0  2  0  0  0  0  0  0  0  0  0
   16.4286  -13.3873  -19.6051 C   0  0  0  0  0  0  0  0  0  0  0  0
   17.8950  -12.6260  -17.7505 C   0  0  0  0  0  0  0  0  0  0  0  0
   19.0612  -12.8931  -16.8490 C   0  0  2  0  0  0  0  0  0  0  0  0
   18.7270  -13.9269  -15.9131 N   0  0  0  0  0  0  0  0  0  0  0  0
   19.4064  -11.6305  -16.1423 C   0  0  0  0  0  0  0  0  0  0  0  0
   18.5397  -11.1006  -15.3781 O   0  0  0  0  0  0  0  0  0  0  0  0
   22.4880   -8.2813  -14.6186 O   0  0  0  0  0  0  0  0  0  0  0  0
   22.3588   -9.4280  -15.4014 C   0  0  0  0  0  0  0  0  0  0  0  0
   20.8814   -9.7331  -15.5748 C   0  0  2  0  0  0  0  0  0  0  0  0
   20.6525  -10.9640  -16.2615 N   0  0  0  0  0  0  0  0  0  0  0  0
   20.1700   -8.5854  -16.1933 C   0  0  0  0  0  0  0  0  0  0  0  0
   20.0969   -8.5667  -17.4441 O   0  0  0  0  0  0  0  0  0  0  0  0
   19.5984   -7.5568  -15.4189 N   0  0  0  0  0  0  0  0  0  0  0  0
   18.9118   -6.3930  -16.0072 C   0  0  1  0  0  0  0  0  0  0  0  0
   17.4503   -6.5254  -15.6750 C   0  0  0  0  0  0  0  0  0  0  0  0
   16.5967   -5.3639  -16.0781 C   0  0  0  0  0  0  0  0  0  0  0  0
   15.1864   -5.7040  -16.2666 C   0  0  0  0  0  0  0  0  0  0  0  0
   14.7693   -6.8491  -16.0520 O   0  0  0  0  0  0  0  0  0  0  0  0
   19.4852   -5.1680  -15.4053 C   0  0  0  0  0  0  0  0  0  0  0  0
   20.3990   -5.2834  -14.3754 O   0  0  0  0  0  0  0  0  0  0  0  0
   14.2521   -4.7519  -16.6959 O   0  0  0  0  0  0  0  0  0  0  0  0
   19.1672   -4.0375  -15.8009 O   0  0  0  0  0  0  0  0  0  0  0  0
  2  1  1  6
  3  2  1  0
  4  2  1  0
  5  6  1  1
  5  4  1  0
  7  5  1  0
  8  7  2  0
  9 10  1  0
 11 10  1  6
 11 13  1  0
 11 12  1  0
 12  7  1  0
 13 14  2  0
 15 16  1  0
 15 13  1  0
 16 17  1  1
 18 19  1  0
 18 17  1  0
 19 20  2  0
 21 22  1  0
 21 16  1  0
 23 19  1  0
 24 21  2  0
M  END
$$$$
