LSE.pdb
     RDKit          3D

 24 23  0  0  1  0  0  0  0  0999 V2000
   24.9900  -23.9388  -17.0708 C   0  0  0  0  0  0  0  0  0  0  0  0
   25.5426  -22.6681  -16.4259 C   0  0  2  0  0  0  0  0  0  0  0  0
   27.0056  -22.9198  -16.1676 C   0  0  0  0  0  0  0  0  0  0  0  0
   24.7912  -22.4625  -15.1397 C   0  0  0  0  0  0  0  0  0  0  0  0
   23.3194  -22.2440  -15.3139 C   0  0  2  0  0  0  0  0  0  0  0  0
   23.0922  -21.1202  -16.1752 N   0  0  0  0  0  0  0  0  0  0  0  0
   22.7176  -22.0140  -13.9732 C   0  0  0  0  0  0  0  0  0  0  0  0
   23.0455  -22.7827  -13.0154 O   0  0  0  0  0  0  0  0  0  0  0  0
   20.1222  -18.9971  -13.3178 O   0  0  0  0  0  0  0  0  0  0  0  0
   20.6404  -19.4833  -12.1181 C   0  0  0  0  0  0  0  0  0  0  0  0
   21.2396  -20.8558  -12.3694 C   0  0  2  0  0  0  0  0  0  0  0  0
   21.7891  -20.9825  -13.6814 N   0  0  0  0  0  0  0  0  0  0  0  0
   20.2657  -21.9291  -12.0447 C   0  0  0  0  0  0  0  0  0  0  0  0
   19.6537  -22.4533  -13.0042 O   0  0  0  0  0  0  0  0  0  0  0  0
   20.0313  -22.3483  -10.7204 N   0  0  0  0  0  0  0  0  0  0  0  0
   19.0487  -23.3882  -10.3672 C   0  0  1  0  0  0  0  0  0  0  0  0
   19.2345  -23.6965   -8.9063 C   0  0  0  0  0  0  0  0  0  0  0  0
   18.3559  -24.7814   -8.3664 C   0  0  0  0  0  0  0  0  0  0  0  0
   18.5593  -25.0537   -6.9436 C   0  0  0  0  0  0  0  0  0  0  0  0
   19.3533  -24.3847   -6.2704 O   0  0  0  0  0  0  0  0  0  0  0  0
   17.6948  -22.8496  -10.6292 C   0  0  0  0  0  0  0  0  0  0  0  0
   17.4328  -21.5188  -10.3660 O   0  0  0  0  0  0  0  0  0  0  0  0
   17.8667  -26.0788   -6.2854 O   0  0  0  0  0  0  0  0  0  0  0  0
   16.7863  -23.5620  -11.0796 O   0  0  0  0  0  0  0  0  0  0  0  0
  2  1  1  1
  3  2  1  0
  4  2  1  0
  5  6  1  6
  5  4  1  0
  7  5  1  0
  8  7  2  0
  9 10  1  0
 11 10  1  6
 11 13  1  0
 11 12  1  0
 12  7  1  0
 13 14  2  0
 15 16  1  0
 15 13  1  0
 16 17  1  1
 18 19  1  0
 18 17  1  0
 19 20  2  0
 21 22  1  0
 21 16  1  0
 23 19  1  0
 24 21  2  0
M  END
$$$$
