LSE.pdb
     RDKit          3D

 24 23  0  0  1  0  0  0  0  0999 V2000
   16.3138   -9.5768  -19.4976 C   0  0  0  0  0  0  0  0  0  0  0  0
   17.6426  -10.2396  -19.1356 C   0  0  2  0  0  0  0  0  0  0  0  0
   17.5707  -11.6536  -19.6511 C   0  0  0  0  0  0  0  0  0  0  0  0
   17.7557  -10.2130  -17.6363 C   0  0  0  0  0  0  0  0  0  0  0  0
   19.0095  -10.8346  -17.1018 C   0  0  2  0  0  0  0  0  0  0  0  0
   18.7186  -12.1304  -16.5607 N   0  0  0  0  0  0  0  0  0  0  0  0
   19.5687   -9.9372  -16.0556 C   0  0  0  0  0  0  0  0  0  0  0  0
   18.9144   -9.7713  -14.9785 O   0  0  0  0  0  0  0  0  0  0  0  0
   22.0653   -9.5674  -13.2884 O   0  0  0  0  0  0  0  0  0  0  0  0
   22.4673   -8.8585  -14.4197 C   0  0  0  0  0  0  0  0  0  0  0  0
   21.2299   -8.3551  -15.1417 C   0  0  2  0  0  0  0  0  0  0  0  0
   20.7989   -9.2419  -16.1747 N   0  0  0  0  0  0  0  0  0  0  0  0
   21.4222   -6.9620  -15.6191 C   0  0  0  0  0  0  0  0  0  0  0  0
   22.0426   -6.8089  -16.6970 O   0  0  0  0  0  0  0  0  0  0  0  0
   20.9337   -5.8529  -14.9008 N   0  0  0  0  0  0  0  0  0  0  0  0
   21.1209   -4.4603  -15.3450 C   0  0  1  0  0  0  0  0  0  0  0  0
   19.8701   -3.7068  -14.9823 C   0  0  0  0  0  0  0  0  0  0  0  0
   19.8792   -2.2508  -15.3289 C   0  0  0  0  0  0  0  0  0  0  0  0
   18.6701   -1.5375  -14.9173 C   0  0  0  0  0  0  0  0  0  0  0  0
   17.5522   -1.8899  -15.3138 O   0  0  0  0  0  0  0  0  0  0  0  0
   22.2988   -3.9068  -14.6393 C   0  0  0  0  0  0  0  0  0  0  0  0
   22.6641   -4.4336  -13.4153 O   0  0  0  0  0  0  0  0  0  0  0  0
   18.7262   -0.4301  -14.0605 O   0  0  0  0  0  0  0  0  0  0  0  0
   22.9688   -2.9805  -15.1175 O   0  0  0  0  0  0  0  0  0  0  0  0
  2  1  1  1
  3  2  1  0
  4  2  1  0
  5  6  1  1
  5  4  1  0
  7  5  1  0
  8  7  2  0
  9 10  1  0
 11 10  1  6
 11 13  1  0
 11 12  1  0
 12  7  1  0
 13 14  2  0
 15 16  1  0
 15 13  1  0
 16 17  1  1
 18 19  1  0
 18 17  1  0
 19 20  2  0
 21 22  1  0
 21 16  1  0
 23 19  1  0
 24 21  2  0
M  END
$$$$
