LSE.pdb
     RDKit          3D

 24 23  0  0  1  0  0  0  0  0999 V2000
   24.9005  -24.7858  -18.2756 C   0  0  0  0  0  0  0  0  0  0  0  0
   25.4679  -25.4074  -16.9997 C   0  0  2  0  0  0  0  0  0  0  0  0
   25.2937  -26.8980  -17.1350 C   0  0  0  0  0  0  0  0  0  0  0  0
   24.6629  -24.8684  -15.8496 C   0  0  0  0  0  0  0  0  0  0  0  0
   24.8138  -23.3944  -15.6291 C   0  0  2  0  0  0  0  0  0  0  0  0
   26.1544  -23.0984  -15.2147 N   0  0  0  0  0  0  0  0  0  0  0  0
   23.8338  -22.9725  -14.5927 C   0  0  0  0  0  0  0  0  0  0  0  0
   24.0039  -23.3631  -13.3949 O   0  0  0  0  0  0  0  0  0  0  0  0
   22.3964  -19.4058  -13.8021 O   0  0  0  0  0  0  0  0  0  0  0  0
   21.3463  -20.3054  -13.9814 C   0  0  0  0  0  0  0  0  0  0  0  0
   21.8735  -21.7141  -13.7731 C   0  0  2  0  0  0  0  0  0  0  0  0
   22.7049  -22.1531  -14.8480 N   0  0  0  0  0  0  0  0  0  0  0  0
   20.7661  -22.6582  -13.4764 C   0  0  0  0  0  0  0  0  0  0  0  0
   20.2466  -23.2521  -14.4499 O   0  0  0  0  0  0  0  0  0  0  0  0
   20.3107  -22.8850  -12.1628 N   0  0  0  0  0  0  0  0  0  0  0  0
   19.1909  -23.7884  -11.8437 C   0  0  1  0  0  0  0  0  0  0  0  0
   19.3147  -24.1519  -10.3889 C   0  0  0  0  0  0  0  0  0  0  0  0
   18.2424  -25.0542   -9.8633 C   0  0  0  0  0  0  0  0  0  0  0  0
   18.4007  -25.4002   -8.4508 C   0  0  0  0  0  0  0  0  0  0  0  0
   17.5845  -26.1304   -7.8747 O   0  0  0  0  0  0  0  0  0  0  0  0
   17.9266  -23.0640  -12.1053 C   0  0  0  0  0  0  0  0  0  0  0  0
   16.8292  -23.7632  -12.5700 O   0  0  0  0  0  0  0  0  0  0  0  0
   19.4784  -24.9219   -7.6935 O   0  0  0  0  0  0  0  0  0  0  0  0
   17.8246  -21.8432  -11.9185 O   0  0  0  0  0  0  0  0  0  0  0  0
  2  1  1  6
  3  2  1  0
  4  2  1  0
  5  6  1  1
  5  4  1  0
  7  5  1  0
  8  7  2  0
  9 10  1  0
 11 10  1  6
 11 13  1  0
 11 12  1  0
 12  7  1  0
 13 14  2  0
 15 16  1  0
 15 13  1  0
 16 17  1  1
 18 19  1  0
 18 17  1  0
 19 20  2  0
 21 22  1  0
 21 16  1  0
 23 19  1  0
 24 21  2  0
M  END
$$$$
