LSE.pdb
     RDKit          3D

 24 23  0  0  1  0  0  0  0  0999 V2000
   13.4695  -11.8795  -17.9992 C   0  0  0  0  0  0  0  0  0  0  0  0
   13.0890  -11.5684  -16.5520 C   0  0  2  0  0  0  0  0  0  0  0  0
   12.1081  -10.4256  -16.6029 C   0  0  0  0  0  0  0  0  0  0  0  0
   14.3515  -11.1695  -15.8390 C   0  0  0  0  0  0  0  0  0  0  0  0
   15.3829  -12.2530  -15.7596 C   0  0  2  0  0  0  0  0  0  0  0  0
   14.9603  -13.2611  -14.8315 N   0  0  0  0  0  0  0  0  0  0  0  0
   16.6704  -11.6442  -15.3303 C   0  0  0  0  0  0  0  0  0  0  0  0
   16.8211  -11.3307  -14.1076 O   0  0  0  0  0  0  0  0  0  0  0  0
   20.1308  -11.7045  -17.5540 O   0  0  0  0  0  0  0  0  0  0  0  0
   20.2051  -11.5557  -16.1696 C   0  0  0  0  0  0  0  0  0  0  0  0
   18.9678  -10.8149  -15.6942 C   0  0  2  0  0  0  0  0  0  0  0  0
   17.7596  -11.3838  -16.2003 N   0  0  0  0  0  0  0  0  0  0  0  0
   19.0806   -9.3597  -15.9688 C   0  0  0  0  0  0  0  0  0  0  0  0
   18.4705   -8.9193  -16.9708 O   0  0  0  0  0  0  0  0  0  0  0  0
   19.8371   -8.5017  -15.1467 N   0  0  0  0  0  0  0  0  0  0  0  0
   20.0578   -7.0779  -15.4564 C   0  0  1  0  0  0  0  0  0  0  0  0
   20.8146   -6.4842  -14.2994 C   0  0  0  0  0  0  0  0  0  0  0  0
   21.2723   -5.0724  -14.4936 C   0  0  0  0  0  0  0  0  0  0  0  0
   22.0604   -4.5477  -13.3783 C   0  0  0  0  0  0  0  0  0  0  0  0
   22.6737   -5.3046  -12.6154 O   0  0  0  0  0  0  0  0  0  0  0  0
   20.8470   -6.9960  -16.7063 C   0  0  0  0  0  0  0  0  0  0  0  0
   21.8470   -7.9210  -16.9375 O   0  0  0  0  0  0  0  0  0  0  0  0
   22.1540   -3.1722  -13.1279 O   0  0  0  0  0  0  0  0  0  0  0  0
   20.6349   -6.1176  -17.5542 O   0  0  0  0  0  0  0  0  0  0  0  0
  2  1  1  6
  3  2  1  0
  4  2  1  0
  5  6  1  1
  5  4  1  0
  7  5  1  0
  8  7  2  0
  9 10  1  0
 11 10  1  6
 11 13  1  0
 11 12  1  0
 12  7  1  0
 13 14  2  0
 15 16  1  0
 15 13  1  0
 16 17  1  1
 18 19  1  0
 18 17  1  0
 19 20  2  0
 21 22  1  0
 21 16  1  0
 23 19  1  0
 24 21  2  0
M  END
$$$$
