LSE.pdb
     RDKit          3D

 24 23  0  0  1  0  0  0  0  0999 V2000
   16.1817  -11.6370  -18.0851 C   0  0  0  0  0  0  0  0  0  0  0  0
   16.6315  -12.3969  -16.8375 C   0  0  2  0  0  0  0  0  0  0  0  0
   15.3891  -12.9926  -16.2275 C   0  0  0  0  0  0  0  0  0  0  0  0
   17.2635  -11.3935  -15.9128 C   0  0  0  0  0  0  0  0  0  0  0  0
   18.4094  -10.6383  -16.5133 C   0  0  2  0  0  0  0  0  0  0  0  0
   19.4745  -11.5432  -16.8344 N   0  0  0  0  0  0  0  0  0  0  0  0
   18.8615   -9.6148  -15.5333 C   0  0  0  0  0  0  0  0  0  0  0  0
   17.9950   -8.8498  -15.0041 O   0  0  0  0  0  0  0  0  0  0  0  0
   22.7408   -9.2663  -14.0545 O   0  0  0  0  0  0  0  0  0  0  0  0
   21.6893   -8.7281  -13.3135 C   0  0  0  0  0  0  0  0  0  0  0  0
   20.5659   -8.3561  -14.2650 C   0  0  2  0  0  0  0  0  0  0  0  0
   20.2111   -9.4273  -15.1402 N   0  0  0  0  0  0  0  0  0  0  0  0
   20.8769   -7.0972  -14.9890 C   0  0  0  0  0  0  0  0  0  0  0  0
   21.4267   -7.2047  -16.1099 O   0  0  0  0  0  0  0  0  0  0  0  0
   20.5722   -5.8317  -14.4502 N   0  0  0  0  0  0  0  0  0  0  0  0
   20.8773   -4.5672  -15.1428 C   0  0  1  0  0  0  0  0  0  0  0  0
   19.8389   -3.5656  -14.7159 C   0  0  0  0  0  0  0  0  0  0  0  0
   18.5989   -3.5358  -15.5537 C   0  0  0  0  0  0  0  0  0  0  0  0
   17.3636   -3.4272  -14.7776 C   0  0  0  0  0  0  0  0  0  0  0  0
   17.1666   -4.1380  -13.7841 O   0  0  0  0  0  0  0  0  0  0  0  0
   22.2331   -4.1347  -14.7345 C   0  0  0  0  0  0  0  0  0  0  0  0
   22.9557   -3.2988  -15.5640 O   0  0  0  0  0  0  0  0  0  0  0  0
   16.3555   -2.5177  -15.1246 O   0  0  0  0  0  0  0  0  0  0  0  0
   22.7399   -4.5031  -13.6653 O   0  0  0  0  0  0  0  0  0  0  0  0
  2  1  1  6
  3  2  1  0
  4  2  1  0
  5  6  1  1
  5  4  1  0
  7  5  1  0
  8  7  2  0
  9 10  1  0
 11 10  1  6
 11 13  1  0
 11 12  1  0
 12  7  1  0
 13 14  2  0
 15 16  1  0
 15 13  1  0
 16 17  1  1
 18 19  1  0
 18 17  1  0
 19 20  2  0
 21 22  1  0
 21 16  1  0
 23 19  1  0
 24 21  2  0
M  END
$$$$
