EGR.pdb
     RDKit          3D

 25 24  0  0  1  0  0  0  0  0999 V2000
    8.5851  -13.2331   18.0296 N   0  0  0  0  0  0  0  0  0  0  0  0
    7.4283  -14.0818   17.6834 C   0  0  1  0  0  0  0  0  0  0  0  0
    7.7385  -14.9305   16.5040 C   0  0  0  0  0  0  0  0  0  0  0  0
    9.1375  -14.7087   16.0148 C   0  0  0  0  0  0  0  0  0  0  0  0
    9.3987  -15.5749   14.8400 C   0  0  0  0  0  0  0  0  0  0  0  0
   10.3834  -15.4414   14.0809 O   0  0  0  0  0  0  0  0  0  0  0  0
    7.1429  -14.9201   18.8757 C   0  0  0  0  0  0  0  0  0  0  0  0
    6.1802  -15.7076   18.9975 O   0  0  0  0  0  0  0  0  0  0  0  0
    8.5012  -16.5994   14.5573 O   0  0  0  0  0  0  0  0  0  0  0  0
    8.0093  -14.8738   20.0334 N   0  0  0  0  0  0  0  0  0  0  0  0
    7.7465  -15.6606   21.2071 C   0  0  0  0  0  0  0  0  0  0  0  0
    8.7841  -15.3435   22.2249 C   0  0  0  0  0  0  0  0  0  0  0  0
    9.8169  -14.6543   21.9151 O   0  0  0  0  0  0  0  0  0  0  0  0
   11.1898  -16.3706   29.9276 N   0  0  0  0  0  0  0  0  0  0  0  0
   10.4830  -15.1439   29.9897 C   0  0  0  0  0  0  0  0  0  0  0  0
   10.8605  -14.2548   30.8515 N   0  0  0  0  0  0  0  0  0  0  0  0
    9.4002  -14.9408   29.1133 N   0  0  0  0  0  0  0  0  0  0  0  0
    9.4175  -13.8801   28.1166 C   0  0  0  0  0  0  0  0  0  0  0  0
   10.0275  -14.4552   26.8745 C   0  0  0  0  0  0  0  0  0  0  0  0
    9.0705  -14.8962   25.8237 C   0  0  0  0  0  0  0  0  0  0  0  0
    9.6771  -15.4431   24.5815 C   0  0  2  0  0  0  0  0  0  0  0  0
    8.6935  -15.7755   23.5691 N   0  0  0  0  0  0  0  0  0  0  0  0
   10.6263  -16.5495   24.8049 C   0  0  0  0  0  0  0  0  0  0  0  0
   10.3372  -17.7198   24.4963 O   0  0  0  0  0  0  0  0  0  0  0  0
   11.8547  -16.2831   25.3676 O   0  0  0  0  0  0  0  0  0  0  0  0
  2  1  1  1
  3  2  1  0
  4  3  1  0
  5  4  1  0
  6  5  2  0
  7 10  1  0
  7  2  1  0
  8  7  2  0
  9  5  1  0
 11 12  1  0
 11 10  1  0
 12 22  1  0
 13 12  2  0
 15 14  1  0
 16 15  2  0
 17 15  1  0
 18 19  1  0
 18 17  1  0
 20 19  1  0
 21 20  1  1
 22 21  1  0
 23 25  1  0
 23 21  1  0
 24 23  2  0
M  END
$$$$
