EGR.pdb
     RDKit          3D

 25 24  0  0  1  0  0  0  0  0999 V2000
    8.4737  -20.0251   21.3890 N   0  0  0  0  0  0  0  0  0  0  0  0
    9.6398  -20.0373   20.4844 C   0  0  1  0  0  0  0  0  0  0  0  0
    9.2322  -20.4397   19.1134 C   0  0  0  0  0  0  0  0  0  0  0  0
    7.9200  -21.1636   19.1160 C   0  0  0  0  0  0  0  0  0  0  0  0
    8.0667  -22.4649   18.4204 C   0  0  0  0  0  0  0  0  0  0  0  0
    9.1498  -22.8939   17.9657 O   0  0  0  0  0  0  0  0  0  0  0  0
   10.1951  -18.6600   20.4864 C   0  0  0  0  0  0  0  0  0  0  0  0
   11.2269  -18.2909   19.8857 O   0  0  0  0  0  0  0  0  0  0  0  0
    6.9388  -23.2629   18.2590 O   0  0  0  0  0  0  0  0  0  0  0  0
    9.5399  -17.6025   21.2250 N   0  0  0  0  0  0  0  0  0  0  0  0
   10.1482  -16.3120   21.3992 C   0  0  0  0  0  0  0  0  0  0  0  0
   10.7998  -16.2787   22.7362 C   0  0  0  0  0  0  0  0  0  0  0  0
   10.6097  -17.2205   23.5815 O   0  0  0  0  0  0  0  0  0  0  0  0
   11.1119  -16.9864   30.6204 N   0  0  0  0  0  0  0  0  0  0  0  0
   11.2243  -17.9466   29.5843 C   0  0  0  0  0  0  0  0  0  0  0  0
   11.6205  -19.1411   29.8875 N   0  0  0  0  0  0  0  0  0  0  0  0
   10.9011  -17.5645   28.2685 N   0  0  0  0  0  0  0  0  0  0  0  0
   11.4557  -16.3597   27.6688 C   0  0  0  0  0  0  0  0  0  0  0  0
   10.8822  -16.2528   26.2885 C   0  0  0  0  0  0  0  0  0  0  0  0
   11.2067  -15.0060   25.5437 C   0  0  0  0  0  0  0  0  0  0  0  0
   12.2291  -15.1371   24.4726 C   0  0  2  0  0  0  0  0  0  0  0  0
   11.6516  -15.2257   23.1454 N   0  0  0  0  0  0  0  0  0  0  0  0
   13.2228  -16.2011   24.7079 C   0  0  0  0  0  0  0  0  0  0  0  0
   13.1863  -17.2702   24.0721 O   0  0  0  0  0  0  0  0  0  0  0  0
   14.2083  -16.0092   25.6506 O   0  0  0  0  0  0  0  0  0  0  0  0
  2  1  1  1
  3  2  1  0
  4  3  1  0
  5  4  1  0
  6  5  2  0
  7 10  1  0
  7  2  1  0
  8  7  2  0
  9  5  1  0
 11 12  1  0
 11 10  1  0
 12 22  1  0
 13 12  2  0
 15 14  1  0
 16 15  2  0
 17 15  1  0
 18 19  1  0
 18 17  1  0
 20 19  1  0
 21 20  1  1
 22 21  1  0
 23 25  1  0
 23 21  1  0
 24 23  2  0
M  END
$$$$
