EGR.pdb
     RDKit          3D

 25 24  0  0  1  0  0  0  0  0999 V2000
   11.2030  -16.0959   19.7188 N   0  0  0  0  0  0  0  0  0  0  0  0
   11.6294  -17.3068   18.9905 C   0  0  1  0  0  0  0  0  0  0  0  0
   12.8741  -17.0429   18.2234 C   0  0  0  0  0  0  0  0  0  0  0  0
   13.1536  -15.5749   18.1096 C   0  0  0  0  0  0  0  0  0  0  0  0
   14.3901  -15.3622   17.3193 C   0  0  0  0  0  0  0  0  0  0  0  0
   14.7997  -16.1516   16.4401 O   0  0  0  0  0  0  0  0  0  0  0  0
   11.8531  -18.3616   20.0117 C   0  0  0  0  0  0  0  0  0  0  0  0
   12.1321  -19.5564   19.7742 O   0  0  0  0  0  0  0  0  0  0  0  0
   15.1460  -14.2201   17.5627 O   0  0  0  0  0  0  0  0  0  0  0  0
   11.7561  -18.0541   21.4220 N   0  0  0  0  0  0  0  0  0  0  0  0
   10.5086  -18.1383   22.1308 C   0  0  0  0  0  0  0  0  0  0  0  0
   10.4296  -16.9927   23.0766 C   0  0  0  0  0  0  0  0  0  0  0  0
   11.1315  -15.9391   22.8897 O   0  0  0  0  0  0  0  0  0  0  0  0
    7.9176  -11.7446   19.7854 N   0  0  0  0  0  0  0  0  0  0  0  0
    8.7049  -12.8455   19.3654 C   0  0  0  0  0  0  0  0  0  0  0  0
    9.4176  -12.7231   18.2919 N   0  0  0  0  0  0  0  0  0  0  0  0
    8.6811  -14.0267   20.1310 N   0  0  0  0  0  0  0  0  0  0  0  0
    7.8401  -14.1500   21.3127 C   0  0  0  0  0  0  0  0  0  0  0  0
    8.7002  -14.7051   22.4072 C   0  0  0  0  0  0  0  0  0  0  0  0
    7.9780  -15.2688   23.5797 C   0  0  0  0  0  0  0  0  0  0  0  0
    8.8313  -15.8432   24.6530 C   0  0  2  0  0  0  0  0  0  0  0  0
    9.5909  -16.9985   24.2160 N   0  0  0  0  0  0  0  0  0  0  0  0
    8.1220  -16.1030   25.9196 C   0  0  0  0  0  0  0  0  0  0  0  0
    7.4722  -15.2084   26.4905 O   0  0  0  0  0  0  0  0  0  0  0  0
    8.1818  -17.3584   26.4826 O   0  0  0  0  0  0  0  0  0  0  0  0
  2  1  1  1
  3  2  1  0
  4  3  1  0
  5  4  1  0
  6  5  2  0
  7 10  1  0
  7  2  1  0
  8  7  2  0
  9  5  1  0
 11 12  1  0
 11 10  1  0
 12 22  1  0
 13 12  2  0
 15 14  1  0
 16 15  2  0
 17 15  1  0
 18 19  1  0
 18 17  1  0
 20 19  1  0
 21 20  1  6
 22 21  1  0
 23 25  1  0
 23 21  1  0
 24 23  2  0
M  END
$$$$
