EGR.pdb
     RDKit          3D

 25 24  0  0  1  0  0  0  0  0999 V2000
    8.9878  -18.3826   18.8301 N   0  0  0  0  0  0  0  0  0  0  0  0
    9.4055  -17.0095   18.4857 C   0  0  1  0  0  0  0  0  0  0  0  0
    9.5048  -16.8488   17.0120 C   0  0  0  0  0  0  0  0  0  0  0  0
    8.5614  -17.7628   16.2905 C   0  0  0  0  0  0  0  0  0  0  0  0
    8.7633  -17.6342   14.8271 C   0  0  0  0  0  0  0  0  0  0  0  0
    9.5811  -16.8466   14.3030 O   0  0  0  0  0  0  0  0  0  0  0  0
    8.3766  -16.0977   19.0473 C   0  0  0  0  0  0  0  0  0  0  0  0
    8.4074  -14.8492   19.0000 O   0  0  0  0  0  0  0  0  0  0  0  0
    8.0028  -18.4323   13.9788 O   0  0  0  0  0  0  0  0  0  0  0  0
    7.2114  -16.6276   19.7214 N   0  0  0  0  0  0  0  0  0  0  0  0
    6.2704  -15.7723   20.3913 C   0  0  0  0  0  0  0  0  0  0  0  0
    6.4009  -15.9908   21.8571 C   0  0  0  0  0  0  0  0  0  0  0  0
    6.0671  -17.1076   22.3854 O   0  0  0  0  0  0  0  0  0  0  0  0
   10.9843  -20.8498   23.2670 N   0  0  0  0  0  0  0  0  0  0  0  0
   11.6294  -20.0272   24.2237 C   0  0  0  0  0  0  0  0  0  0  0  0
   12.6300  -20.5143   24.8849 N   0  0  0  0  0  0  0  0  0  0  0  0
   11.1577  -18.7150   24.4170 N   0  0  0  0  0  0  0  0  0  0  0  0
   10.2349  -18.0929   23.4788 C   0  0  0  0  0  0  0  0  0  0  0  0
    9.9953  -16.6945   23.9611 C   0  0  0  0  0  0  0  0  0  0  0  0
    9.1698  -15.8321   23.0726 C   0  0  0  0  0  0  0  0  0  0  0  0
    7.9576  -15.2344   23.6916 C   0  0  2  0  0  0  0  0  0  0  0  0
    6.8918  -14.9978   22.7372 N   0  0  0  0  0  0  0  0  0  0  0  0
    8.2227  -14.0440   24.5206 C   0  0  0  0  0  0  0  0  0  0  0  0
    7.9985  -12.8970   24.0931 O   0  0  0  0  0  0  0  0  0  0  0  0
    8.7301  -14.2040   25.7909 O   0  0  0  0  0  0  0  0  0  0  0  0
  2  1  1  6
  3  2  1  0
  4  3  1  0
  5  4  1  0
  6  5  2  0
  7 10  1  0
  7  2  1  0
  8  7  2  0
  9  5  1  0
 11 12  1  0
 11 10  1  0
 12 22  1  0
 13 12  2  0
 15 14  1  0
 16 15  2  0
 17 15  1  0
 18 19  1  0
 18 17  1  0
 20 19  1  0
 21 20  1  6
 22 21  1  0
 23 25  1  0
 23 21  1  0
 24 23  2  0
M  END
$$$$
