EGR.pdb
     RDKit          3D

 25 24  0  0  1  0  0  0  0  0999 V2000
    9.3590  -18.1981   17.8030 N   0  0  0  0  0  0  0  0  0  0  0  0
    8.1747  -17.4028   18.1816 C   0  0  1  0  0  0  0  0  0  0  0  0
    6.9472  -17.9694   17.5653 C   0  0  0  0  0  0  0  0  0  0  0  0
    7.2705  -18.8529   16.3989 C   0  0  0  0  0  0  0  0  0  0  0  0
    6.0778  -19.6553   16.0350 C   0  0  0  0  0  0  0  0  0  0  0  0
    5.0833  -19.1925   15.4345 O   0  0  0  0  0  0  0  0  0  0  0  0
    8.0886  -17.4455   19.6635 C   0  0  0  0  0  0  0  0  0  0  0  0
    7.3428  -16.7336   20.3696 O   0  0  0  0  0  0  0  0  0  0  0  0
    6.0540  -21.0033   16.3775 O   0  0  0  0  0  0  0  0  0  0  0  0
    8.9083  -18.3645   20.4229 N   0  0  0  0  0  0  0  0  0  0  0  0
    8.6865  -18.5958   21.8240 C   0  0  0  0  0  0  0  0  0  0  0  0
    9.5895  -17.6994   22.5949 C   0  0  0  0  0  0  0  0  0  0  0  0
   10.4359  -16.9494   21.9960 O   0  0  0  0  0  0  0  0  0  0  0  0
    5.0222  -12.3140   26.9110 N   0  0  0  0  0  0  0  0  0  0  0  0
    6.4170  -12.3981   26.6754 C   0  0  0  0  0  0  0  0  0  0  0  0
    7.1834  -11.4738   27.1590 N   0  0  0  0  0  0  0  0  0  0  0  0
    6.9135  -13.4815   25.9260 N   0  0  0  0  0  0  0  0  0  0  0  0
    8.3366  -13.6339   25.6609 C   0  0  0  0  0  0  0  0  0  0  0  0
    8.5031  -14.8971   24.8721 C   0  0  0  0  0  0  0  0  0  0  0  0
    9.8977  -15.2442   24.4861 C   0  0  0  0  0  0  0  0  0  0  0  0
   10.3197  -16.6421   24.7651 C   0  0  2  0  0  0  0  0  0  0  0  0
    9.5674  -17.6233   24.0075 N   0  0  0  0  0  0  0  0  0  0  0  0
   10.3766  -16.9851   26.1983 C   0  0  0  0  0  0  0  0  0  0  0  0
   11.1169  -16.3632   26.9817 O   0  0  0  0  0  0  0  0  0  0  0  0
    9.5978  -18.0144   26.6785 O   0  0  0  0  0  0  0  0  0  0  0  0
  2  1  1  6
  3  2  1  0
  4  3  1  0
  5  4  1  0
  6  5  2  0
  7 10  1  0
  7  2  1  0
  8  7  2  0
  9  5  1  0
 11 12  1  0
 11 10  1  0
 12 22  1  0
 13 12  2  0
 15 14  1  0
 16 15  2  0
 17 15  1  0
 18 19  1  0
 18 17  1  0
 20 19  1  0
 21 20  1  1
 22 21  1  0
 23 25  1  0
 23 21  1  0
 24 23  2  0
M  END
$$$$
