EGR.pdb
     RDKit          3D

 25 24  0  0  1  0  0  0  0  0999 V2000
    7.9154  -17.7766   20.4090 N   0  0  0  0  0  0  0  0  0  0  0  0
    8.9347  -18.6795   19.8398 C   0  0  1  0  0  0  0  0  0  0  0  0
    8.8035  -18.7481   18.3614 C   0  0  0  0  0  0  0  0  0  0  0  0
    8.8965  -17.3904   17.7337 C   0  0  0  0  0  0  0  0  0  0  0  0
    8.7166  -17.5057   16.2664 C   0  0  0  0  0  0  0  0  0  0  0  0
    9.3003  -18.3543   15.5572 O   0  0  0  0  0  0  0  0  0  0  0  0
   10.2576  -18.1265   20.2266 C   0  0  0  0  0  0  0  0  0  0  0  0
   11.3666  -18.6278   19.9428 O   0  0  0  0  0  0  0  0  0  0  0  0
    7.8495  -16.6222   15.6318 O   0  0  0  0  0  0  0  0  0  0  0  0
   10.3489  -16.9063   20.9986 N   0  0  0  0  0  0  0  0  0  0  0  0
   11.5350  -16.5633   21.7342 C   0  0  0  0  0  0  0  0  0  0  0  0
   11.1755  -16.4456   23.1730 C   0  0  0  0  0  0  0  0  0  0  0  0
   11.9914  -15.9279   24.0121 O   0  0  0  0  0  0  0  0  0  0  0  0
    6.0249  -11.0949   24.9840 N   0  0  0  0  0  0  0  0  0  0  0  0
    6.4109  -11.8850   26.0953 C   0  0  0  0  0  0  0  0  0  0  0  0
    6.2857  -11.3859   27.2831 N   0  0  0  0  0  0  0  0  0  0  0  0
    6.9143  -13.1792   25.8643 N   0  0  0  0  0  0  0  0  0  0  0  0
    7.0818  -13.7003   24.5155 C   0  0  0  0  0  0  0  0  0  0  0  0
    8.3518  -14.4957   24.5071 C   0  0  0  0  0  0  0  0  0  0  0  0
    8.2876  -15.8312   25.1603 C   0  0  0  0  0  0  0  0  0  0  0  0
    9.5154  -16.6631   25.0591 C   0  0  2  0  0  0  0  0  0  0  0  0
    9.9355  -16.8894   23.6898 N   0  0  0  0  0  0  0  0  0  0  0  0
    9.4632  -17.9196   25.8293 C   0  0  0  0  0  0  0  0  0  0  0  0
    9.3039  -17.9139   27.0634 O   0  0  0  0  0  0  0  0  0  0  0  0
    9.5957  -19.1220   25.1710 O   0  0  0  0  0  0  0  0  0  0  0  0
  2  1  1  6
  3  2  1  0
  4  3  1  0
  5  4  1  0
  6  5  2  0
  7 10  1  0
  7  2  1  0
  8  7  2  0
  9  5  1  0
 11 12  1  0
 11 10  1  0
 12 22  1  0
 13 12  2  0
 15 14  1  0
 16 15  2  0
 17 15  1  0
 18 19  1  0
 18 17  1  0
 20 19  1  0
 21 20  1  6
 22 21  1  0
 23 25  1  0
 23 21  1  0
 24 23  2  0
M  END
$$$$
