EGR.pdb
     RDKit          3D

 25 24  0  0  1  0  0  0  0  0999 V2000
   13.3911  -18.5936   20.7605 N   0  0  0  0  0  0  0  0  0  0  0  0
   12.3267  -18.7972   21.7625 C   0  0  1  0  0  0  0  0  0  0  0  0
   11.4472  -19.9274   21.3669 C   0  0  0  0  0  0  0  0  0  0  0  0
   10.0080  -19.5140   21.3060 C   0  0  0  0  0  0  0  0  0  0  0  0
    9.1605  -20.6970   21.0216 C   0  0  0  0  0  0  0  0  0  0  0  0
    9.6120  -21.8465   20.8247 O   0  0  0  0  0  0  0  0  0  0  0  0
   13.0048  -19.0832   23.0524 C   0  0  0  0  0  0  0  0  0  0  0  0
   13.8806  -19.9557   23.2358 O   0  0  0  0  0  0  0  0  0  0  0  0
    7.7807  -20.5287   20.9684 O   0  0  0  0  0  0  0  0  0  0  0  0
   12.6750  -18.3282   24.2415 N   0  0  0  0  0  0  0  0  0  0  0  0
   13.3244  -18.5759   25.4996 C   0  0  0  0  0  0  0  0  0  0  0  0
   12.4801  -19.5160   26.2847 C   0  0  0  0  0  0  0  0  0  0  0  0
   11.3410  -19.8979   25.8442 O   0  0  0  0  0  0  0  0  0  0  0  0
   16.1058  -20.8942   32.7063 N   0  0  0  0  0  0  0  0  0  0  0  0
   15.1821  -21.9677   32.6568 C   0  0  0  0  0  0  0  0  0  0  0  0
   14.4246  -22.1804   33.6847 N   0  0  0  0  0  0  0  0  0  0  0  0
   15.1246  -22.7590   31.4939 N   0  0  0  0  0  0  0  0  0  0  0  0
   13.8755  -22.9649   30.7754 C   0  0  0  0  0  0  0  0  0  0  0  0
   13.9392  -22.1258   29.5355 C   0  0  0  0  0  0  0  0  0  0  0  0
   12.7721  -22.2305   28.6182 C   0  0  0  0  0  0  0  0  0  0  0  0
   12.0692  -20.9564   28.3139 C   0  0  2  0  0  0  0  0  0  0  0  0
   12.8774  -20.0340   27.5400 N   0  0  0  0  0  0  0  0  0  0  0  0
   11.4648  -20.3003   29.4881 C   0  0  0  0  0  0  0  0  0  0  0  0
   11.8279  -19.1670   29.8521 O   0  0  0  0  0  0  0  0  0  0  0  0
   10.4819  -20.9546   30.1969 O   0  0  0  0  0  0  0  0  0  0  0  0
  2  1  1  6
  3  2  1  0
  4  3  1  0
  5  4  1  0
  6  5  2  0
  7 10  1  0
  7  2  1  0
  8  7  2  0
  9  5  1  0
 11 12  1  0
 11 10  1  0
 12 22  1  0
 13 12  2  0
 15 14  1  0
 16 15  2  0
 17 15  1  0
 18 19  1  0
 18 17  1  0
 20 19  1  0
 21 20  1  1
 22 21  1  0
 23 25  1  0
 23 21  1  0
 24 23  2  0
M  END
$$$$
