EGR.pdb
     RDKit          3D

 25 24  0  0  1  0  0  0  0  0999 V2000
    8.6254  -18.7764   18.1593 N   0  0  0  0  0  0  0  0  0  0  0  0
    9.4544  -19.2805   17.0471 C   0  0  1  0  0  0  0  0  0  0  0  0
    8.8790  -18.8706   15.7401 C   0  0  0  0  0  0  0  0  0  0  0  0
    8.5528  -17.4081   15.7130 C   0  0  0  0  0  0  0  0  0  0  0  0
    8.1169  -17.0192   14.3502 C   0  0  0  0  0  0  0  0  0  0  0  0
    8.3818  -17.6763   13.3197 O   0  0  0  0  0  0  0  0  0  0  0  0
   10.8103  -18.7031   17.2306 C   0  0  0  0  0  0  0  0  0  0  0  0
   11.6513  -18.5193   16.3247 O   0  0  0  0  0  0  0  0  0  0  0  0
    7.3686  -15.8565   14.1984 O   0  0  0  0  0  0  0  0  0  0  0  0
   11.2663  -18.2956   18.5417 N   0  0  0  0  0  0  0  0  0  0  0  0
   12.5344  -17.6469   18.7340 C   0  0  0  0  0  0  0  0  0  0  0  0
   12.6555  -17.2725   20.1687 C   0  0  0  0  0  0  0  0  0  0  0  0
   11.7986  -16.4969   20.7182 O   0  0  0  0  0  0  0  0  0  0  0  0
   14.9193  -23.2167   23.6346 N   0  0  0  0  0  0  0  0  0  0  0  0
   13.6403  -23.1903   23.0249 C   0  0  0  0  0  0  0  0  0  0  0  0
   12.9255  -24.2694   23.0388 N   0  0  0  0  0  0  0  0  0  0  0  0
   13.1982  -21.9938   22.4292 N   0  0  0  0  0  0  0  0  0  0  0  0
   14.0907  -20.8575   22.2526 C   0  0  0  0  0  0  0  0  0  0  0  0
   13.6756  -19.8151   23.2459 C   0  0  0  0  0  0  0  0  0  0  0  0
   14.4290  -18.5328   23.1967 C   0  0  0  0  0  0  0  0  0  0  0  0
   13.7993  -17.4396   22.4104 C   0  0  2  0  0  0  0  0  0  0  0  0
   13.7035  -17.7417   20.9953 N   0  0  0  0  0  0  0  0  0  0  0  0
   14.3845  -16.1066   22.6459 C   0  0  0  0  0  0  0  0  0  0  0  0
   14.4500  -15.6239   23.7910 O   0  0  0  0  0  0  0  0  0  0  0  0
   14.8654  -15.3812   21.5786 O   0  0  0  0  0  0  0  0  0  0  0  0
  2  1  1  1
  3  2  1  0
  4  3  1  0
  5  4  1  0
  6  5  2  0
  7 10  1  0
  7  2  1  0
  8  7  2  0
  9  5  1  0
 11 12  1  0
 11 10  1  0
 12 22  1  0
 13 12  2  0
 15 14  1  0
 16 15  2  0
 17 15  1  0
 18 19  1  0
 18 17  1  0
 20 19  1  0
 21 20  1  1
 22 21  1  0
 23 25  1  0
 23 21  1  0
 24 23  2  0
M  END
$$$$
