AHS.pdb
     RDKit          3D

 22 22  0  0  1  0  0  0  0  0999 V2000
   10.6514  -20.1932   18.9989 C   0  0  0  0  0  0  0  0  0  0  0  0
   10.3121  -18.8910   18.2947 C   0  0  2  0  0  0  0  0  0  0  0  0
   11.0789  -18.8021   17.0928 N   0  0  0  0  0  0  0  0  0  0  0  0
   10.6495  -17.7603   19.1975 C   0  0  0  0  0  0  0  0  0  0  0  0
   11.7885  -17.2265   19.0951 O   0  0  0  0  0  0  0  0  0  0  0  0
    9.6853  -17.2914   20.1678 N   0  0  0  0  0  0  0  0  0  0  0  0
    9.9991  -16.1990   21.0276 C   0  0  1  0  0  0  0  0  0  0  0  0
    8.8998  -15.2850   21.3918 C   0  0  0  0  0  0  0  0  0  0  0  0
    8.3609  -14.5375   20.2334 C   0  0  0  0  0  0  0  0  0  0  0  0
    8.8391  -14.4257   18.9476 C   0  0  0  0  0  0  0  0  0  0  0  0
    8.0215  -13.6132   18.2315 N   0  0  0  0  0  0  0  0  0  0  0  0
    7.0347  -13.2080   19.0400 C   0  0  0  0  0  0  0  0  0  0  0  0
    7.2302  -13.7573   20.2423 N   0  0  0  0  0  0  0  0  0  0  0  0
   10.7786  -16.6660   22.2250 C   0  0  0  0  0  0  0  0  0  0  0  0
   10.1900  -17.4202   23.0309 O   0  0  0  0  0  0  0  0  0  0  0  0
   13.9407  -18.7319   22.1358 O   0  0  0  0  0  0  0  0  0  0  0  0
   13.0805  -18.4509   23.1783 C   0  0  0  0  0  0  0  0  0  0  0  0
   12.9568  -16.9752   23.4549 C   0  0  2  0  0  0  0  0  0  0  0  0
   12.1147  -16.3063   22.4845 N   0  0  0  0  0  0  0  0  0  0  0  0
   14.3096  -16.3641   23.4969 C   0  0  0  0  0  0  0  0  0  0  0  0
   14.6599  -15.4482   22.7146 O   0  0  0  0  0  0  0  0  0  0  0  0
   15.2381  -16.8055   24.4269 O   0  0  0  0  0  0  0  0  0  0  0  0
  2  1  1  1
  2  4  1  0
  3  2  1  0
  4  5  2  0
  4  6  1  0
  6  7  1  0
  7  8  1  1
  7 14  1  0
  9 10  2  0
  9  8  1  0
 11 10  1  0
 12 13  2  0
 12 11  1  0
 13  9  1  0
 14 19  1  0
 15 14  2  0
 17 16  1  0
 18 20  1  0
 18 17  1  6
 19 18  1  0
 20 22  1  0
 21 20  2  0
M  END
$$$$
