AHS.pdb
     RDKit          3D

 22 22  0  0  1  0  0  0  0  0999 V2000
    8.9848  -19.8960   18.6943 C   0  0  0  0  0  0  0  0  0  0  0  0
    8.7826  -18.5061   18.1161 C   0  0  2  0  0  0  0  0  0  0  0  0
    9.5479  -18.3890   16.9158 N   0  0  0  0  0  0  0  0  0  0  0  0
    9.2435  -17.5050   19.1123 C   0  0  0  0  0  0  0  0  0  0  0  0
   10.4250  -17.0696   19.0270 O   0  0  0  0  0  0  0  0  0  0  0  0
    8.3483  -17.0477   20.1519 N   0  0  0  0  0  0  0  0  0  0  0  0
    8.7687  -16.0506   21.0795 C   0  0  1  0  0  0  0  0  0  0  0  0
    7.8841  -14.8853   21.2698 C   0  0  0  0  0  0  0  0  0  0  0  0
    7.7110  -14.0829   20.0381 C   0  0  0  0  0  0  0  0  0  0  0  0
    6.5662  -13.7353   19.3576 C   0  0  0  0  0  0  0  0  0  0  0  0
    6.8966  -13.0043   18.2631 N   0  0  0  0  0  0  0  0  0  0  0  0
    8.2293  -12.8828   18.2376 C   0  0  0  0  0  0  0  0  0  0  0  0
    8.7259  -13.5264   19.2981 N   0  0  0  0  0  0  0  0  0  0  0  0
    9.1877  -16.6728   22.3820 C   0  0  0  0  0  0  0  0  0  0  0  0
    8.4007  -17.4945   22.9018 O   0  0  0  0  0  0  0  0  0  0  0  0
   13.1216  -17.0170   23.4926 O   0  0  0  0  0  0  0  0  0  0  0  0
   12.2843  -16.7648   24.5607 C   0  0  0  0  0  0  0  0  0  0  0  0
   10.8372  -17.0468   24.2508 C   0  0  2  0  0  0  0  0  0  0  0  0
   10.3994  -16.3854   23.0386 N   0  0  0  0  0  0  0  0  0  0  0  0
    9.9962  -16.6485   25.4081 C   0  0  0  0  0  0  0  0  0  0  0  0
    9.1075  -15.7671   25.3236 O   0  0  0  0  0  0  0  0  0  0  0  0
   10.1812  -17.2592   26.6388 O   0  0  0  0  0  0  0  0  0  0  0  0
  2  1  1  1
  2  4  1  0
  3  2  1  0
  4  5  2  0
  4  6  1  0
  6  7  1  0
  7  8  1  1
  7 14  1  0
  9 10  2  0
  9  8  1  0
 11 10  1  0
 12 13  2  0
 12 11  1  0
 13  9  1  0
 14 19  1  0
 15 14  2  0
 17 16  1  0
 18 20  1  0
 18 17  1  1
 19 18  1  0
 20 22  1  0
 21 20  2  0
M  END
$$$$
