AHS.pdb
     RDKit          3D

 22 22  0  0  1  0  0  0  0  0999 V2000
    7.9548  -12.8533   20.0988 C   0  0  0  0  0  0  0  0  0  0  0  0
    8.6291  -13.3089   18.8164 C   0  0  2  0  0  0  0  0  0  0  0  0
    7.6416  -13.8661   17.9477 N   0  0  0  0  0  0  0  0  0  0  0  0
    9.6473  -14.3369   19.1539 C   0  0  0  0  0  0  0  0  0  0  0  0
    9.3300  -15.5544   19.0558 O   0  0  0  0  0  0  0  0  0  0  0  0
   10.9691  -13.9380   19.5840 N   0  0  0  0  0  0  0  0  0  0  0  0
   11.9568  -14.9199   19.8862 C   0  0  1  0  0  0  0  0  0  0  0  0
   13.3713  -14.5187   19.7644 C   0  0  0  0  0  0  0  0  0  0  0  0
   13.9061  -14.6918   18.3950 C   0  0  0  0  0  0  0  0  0  0  0  0
   13.3981  -15.3924   17.3247 C   0  0  0  0  0  0  0  0  0  0  0  0
   14.2472  -15.2849   16.2716 N   0  0  0  0  0  0  0  0  0  0  0  0
   15.2835  -14.5296   16.6552 C   0  0  0  0  0  0  0  0  0  0  0  0
   15.0874  -14.1696   17.9269 N   0  0  0  0  0  0  0  0  0  0  0  0
   11.6610  -15.5918   21.1979 C   0  0  0  0  0  0  0  0  0  0  0  0
   11.3395  -14.8558   22.1569 O   0  0  0  0  0  0  0  0  0  0  0  0
    9.5760  -18.9212   21.7157 O   0  0  0  0  0  0  0  0  0  0  0  0
   10.7532  -18.9843   22.4339 C   0  0  0  0  0  0  0  0  0  0  0  0
   11.3810  -17.6321   22.6509 C   0  0  2  0  0  0  0  0  0  0  0  0
   11.7251  -16.9831   21.4024 N   0  0  0  0  0  0  0  0  0  0  0  0
   12.5740  -17.7744   23.5236 C   0  0  0  0  0  0  0  0  0  0  0  0
   13.7223  -17.4271   23.1570 O   0  0  0  0  0  0  0  0  0  0  0  0
   12.4393  -18.3084   24.7958 O   0  0  0  0  0  0  0  0  0  0  0  0
  2  1  1  1
  2  4  1  0
  3  2  1  0
  4  5  2  0
  4  6  1  0
  6  7  1  0
  7  8  1  1
  7 14  1  0
  9 10  2  0
  9  8  1  0
 11 10  1  0
 12 13  2  0
 12 11  1  0
 13  9  1  0
 14 19  1  0
 15 14  2  0
 17 16  1  0
 18 20  1  0
 18 17  1  6
 19 18  1  0
 20 22  1  0
 21 20  2  0
M  END
$$$$
