AHS.pdb
     RDKit          3D

 22 22  0  0  1  0  0  0  0  0999 V2000
   13.3449  -14.8233   17.3620 C   0  0  0  0  0  0  0  0  0  0  0  0
   13.0854  -15.6664   18.5984 C   0  0  2  0  0  0  0  0  0  0  0  0
   12.4463  -16.8814   18.2037 N   0  0  0  0  0  0  0  0  0  0  0  0
   12.2024  -14.9032   19.5176 C   0  0  0  0  0  0  0  0  0  0  0  0
   12.6226  -13.8100   19.9878 O   0  0  0  0  0  0  0  0  0  0  0  0
   10.8925  -15.4126   19.8580 N   0  0  0  0  0  0  0  0  0  0  0  0
   10.0892  -14.7473   20.8293 C   0  0  1  0  0  0  0  0  0  0  0  0
    8.6797  -14.4869   20.4803 C   0  0  0  0  0  0  0  0  0  0  0  0
    8.5083  -13.9909   19.0963 C   0  0  0  0  0  0  0  0  0  0  0  0
    8.3929  -12.7042   18.6213 C   0  0  0  0  0  0  0  0  0  0  0  0
    8.2301  -12.7336   17.2745 N   0  0  0  0  0  0  0  0  0  0  0  0
    8.2397  -14.0150   16.8877 C   0  0  0  0  0  0  0  0  0  0  0  0
    8.4060  -14.7759   17.9735 N   0  0  0  0  0  0  0  0  0  0  0  0
   10.2374  -15.3912   22.1795 C   0  0  0  0  0  0  0  0  0  0  0  0
    9.2102  -15.8901   22.6901 O   0  0  0  0  0  0  0  0  0  0  0  0
   12.1381  -18.9681   23.7681 O   0  0  0  0  0  0  0  0  0  0  0  0
   11.7386  -17.8952   22.9968 C   0  0  0  0  0  0  0  0  0  0  0  0
   11.8317  -16.5809   23.7273 C   0  0  2  0  0  0  0  0  0  0  0  0
   11.4509  -15.4622   22.8895 N   0  0  0  0  0  0  0  0  0  0  0  0
   13.2078  -16.4052   24.2571 C   0  0  0  0  0  0  0  0  0  0  0  0
   14.0215  -15.5890   23.7617 O   0  0  0  0  0  0  0  0  0  0  0  0
   13.6327  -17.1601   25.3395 O   0  0  0  0  0  0  0  0  0  0  0  0
  2  1  1  6
  2  4  1  0
  3  2  1  0
  4  5  2  0
  4  6  1  0
  6  7  1  0
  7  8  1  6
  7 14  1  0
  9 10  2  0
  9  8  1  0
 11 10  1  0
 12 13  2  0
 12 11  1  0
 13  9  1  0
 14 19  1  0
 15 14  2  0
 17 16  1  0
 18 20  1  0
 18 17  1  6
 19 18  1  0
 20 22  1  0
 21 20  2  0
M  END
$$$$
