AHS.pdb
     RDKit          3D

 22 22  0  0  1  0  0  0  0  0999 V2000
    5.5195  -19.7488   24.1638 C   0  0  0  0  0  0  0  0  0  0  0  0
    5.0147  -19.3475   22.7887 C   0  0  2  0  0  0  0  0  0  0  0  0
    4.8414  -20.5246   21.9982 N   0  0  0  0  0  0  0  0  0  0  0  0
    6.0186  -18.4538   22.1558 C   0  0  0  0  0  0  0  0  0  0  0  0
    7.0596  -18.9700   21.6633 O   0  0  0  0  0  0  0  0  0  0  0  0
    5.7960  -17.0256   22.1115 N   0  0  0  0  0  0  0  0  0  0  0  0
    6.7840  -16.1577   21.5623 C   0  0  1  0  0  0  0  0  0  0  0  0
    6.3163  -14.9006   20.9477 C   0  0  0  0  0  0  0  0  0  0  0  0
    7.3926  -14.1622   20.2497 C   0  0  0  0  0  0  0  0  0  0  0  0
    7.9082  -12.9083   20.4871 C   0  0  0  0  0  0  0  0  0  0  0  0
    8.8756  -12.6384   19.5745 N   0  0  0  0  0  0  0  0  0  0  0  0
    8.9819  -13.6979   18.7634 C   0  0  0  0  0  0  0  0  0  0  0  0
    8.0964  -14.6163   19.1608 N   0  0  0  0  0  0  0  0  0  0  0  0
    7.9062  -15.9376   22.5377 C   0  0  0  0  0  0  0  0  0  0  0  0
    7.5992  -15.5245   23.6778 O   0  0  0  0  0  0  0  0  0  0  0  0
   10.6469  -18.2298   23.6787 O   0  0  0  0  0  0  0  0  0  0  0  0
   10.4797  -16.9690   24.2152 C   0  0  0  0  0  0  0  0  0  0  0  0
   10.3472  -15.8975   23.1646 C   0  0  2  0  0  0  0  0  0  0  0  0
    9.2633  -16.1679   22.2424 N   0  0  0  0  0  0  0  0  0  0  0  0
   11.6363  -15.7500   22.4423 C   0  0  0  0  0  0  0  0  0  0  0  0
   11.7521  -15.9849   21.2155 O   0  0  0  0  0  0  0  0  0  0  0  0
   12.7689  -15.3386   23.1279 O   0  0  0  0  0  0  0  0  0  0  0  0
  2  1  1  1
  2  4  1  0
  3  2  1  0
  4  5  2  0
  4  6  1  0
  6  7  1  0
  7  8  1  1
  7 14  1  0
  9 10  2  0
  9  8  1  0
 11 10  1  0
 12 13  2  0
 12 11  1  0
 13  9  1  0
 14 19  1  0
 15 14  2  0
 17 16  1  0
 18 20  1  0
 18 17  1  1
 19 18  1  0
 20 22  1  0
 21 20  2  0
M  END
$$$$
