AHS.pdb
     RDKit          3D

 22 22  0  0  1  0  0  0  0  0999 V2000
   21.0337  -17.5174   14.9317 C   0  0  0  0  0  0  0  0  0  0  0  0
   20.0046  -18.1783   14.0312 C   0  0  2  0  0  0  0  0  0  0  0  0
   19.5121  -17.2101   13.1037 N   0  0  0  0  0  0  0  0  0  0  0  0
   18.8917  -18.6865   14.8741 C   0  0  0  0  0  0  0  0  0  0  0  0
   17.8924  -17.9402   15.0669 O   0  0  0  0  0  0  0  0  0  0  0  0
   18.9641  -20.0088   15.4549 N   0  0  0  0  0  0  0  0  0  0  0  0
   17.8946  -20.5053   16.2554 C   0  0  1  0  0  0  0  0  0  0  0  0
   17.4109  -21.8696   15.9704 C   0  0  0  0  0  0  0  0  0  0  0  0
   16.7640  -21.9891   14.6444 C   0  0  0  0  0  0  0  0  0  0  0  0
   15.6265  -21.3895   14.1534 C   0  0  0  0  0  0  0  0  0  0  0  0
   15.4035  -21.8163   12.8847 N   0  0  0  0  0  0  0  0  0  0  0  0
   16.3784  -22.6753   12.5633 C   0  0  0  0  0  0  0  0  0  0  0  0
   17.1986  -22.7850   13.6124 N   0  0  0  0  0  0  0  0  0  0  0  0
   18.1727  -20.2877   17.7164 C   0  0  0  0  0  0  0  0  0  0  0  0
   19.3705  -20.2961   18.0772 O   0  0  0  0  0  0  0  0  0  0  0  0
   15.0912  -20.0688   20.5704 O   0  0  0  0  0  0  0  0  0  0  0  0
   16.2458  -19.3618   20.8398 C   0  0  0  0  0  0  0  0  0  0  0  0
   17.4445  -19.8913   20.0966 C   0  0  2  0  0  0  0  0  0  0  0  0
   17.1738  -20.0782   18.6859 N   0  0  0  0  0  0  0  0  0  0  0  0
   17.8961  -21.1590   20.7246 C   0  0  0  0  0  0  0  0  0  0  0  0
   18.3053  -21.2159   21.9091 O   0  0  0  0  0  0  0  0  0  0  0  0
   17.8742  -22.3373   19.9945 O   0  0  0  0  0  0  0  0  0  0  0  0
  2  1  1  1
  2  4  1  0
  3  2  1  0
  4  5  2  0
  4  6  1  0
  6  7  1  0
  7  8  1  1
  7 14  1  0
  9 10  2  0
  9  8  1  0
 11 10  1  0
 12 13  2  0
 12 11  1  0
 13  9  1  0
 14 19  1  0
 15 14  2  0
 17 16  1  0
 18 20  1  0
 18 17  1  1
 19 18  1  0
 20 22  1  0
 21 20  2  0
M  END
$$$$
