AHS.pdb
     RDKit          3D

 22 22  0  0  1  0  0  0  0  0999 V2000
    3.8670  -18.6301   22.6147 C   0  0  0  0  0  0  0  0  0  0  0  0
    4.2428  -17.9701   21.2994 C   0  0  2  0  0  0  0  0  0  0  0  0
    4.1818  -18.9462   20.2583 N   0  0  0  0  0  0  0  0  0  0  0  0
    5.6240  -17.4347   21.4135 C   0  0  0  0  0  0  0  0  0  0  0  0
    6.5918  -18.2392   21.3206 O   0  0  0  0  0  0  0  0  0  0  0  0
    5.8409  -16.0209   21.6264 N   0  0  0  0  0  0  0  0  0  0  0  0
    7.1634  -15.5036   21.7469 C   0  0  1  0  0  0  0  0  0  0  0  0
    7.3915  -14.1152   21.3032 C   0  0  0  0  0  0  0  0  0  0  0  0
    7.5439  -13.9942   19.8358 C   0  0  0  0  0  0  0  0  0  0  0  0
    7.5990  -14.9681   18.8648 C   0  0  0  0  0  0  0  0  0  0  0  0
    7.7678  -14.3856   17.6509 N   0  0  0  0  0  0  0  0  0  0  0  0
    7.8211  -13.0609   17.8351 C   0  0  0  0  0  0  0  0  0  0  0  0
    7.6878  -12.8171   19.1421 N   0  0  0  0  0  0  0  0  0  0  0  0
    7.7194  -15.7673   23.1183 C   0  0  0  0  0  0  0  0  0  0  0  0
    6.9076  -15.7856   24.0698 O   0  0  0  0  0  0  0  0  0  0  0  0
    9.5181  -18.7830   25.7424 O   0  0  0  0  0  0  0  0  0  0  0  0
    9.0378  -18.0941   24.6469 C   0  0  0  0  0  0  0  0  0  0  0  0
    9.5720  -16.6883   24.5579 C   0  0  2  0  0  0  0  0  0  0  0  0
    9.0832  -15.9915   23.3857 N   0  0  0  0  0  0  0  0  0  0  0  0
   11.0565  -16.7205   24.5776 C   0  0  0  0  0  0  0  0  0  0  0  0
   11.7069  -17.2341   25.5193 O   0  0  0  0  0  0  0  0  0  0  0  0
   11.7732  -16.1686   23.5271 O   0  0  0  0  0  0  0  0  0  0  0  0
  2  1  1  1
  2  4  1  0
  3  2  1  0
  4  5  2  0
  4  6  1  0
  6  7  1  0
  7  8  1  1
  7 14  1  0
  9 10  2  0
  9  8  1  0
 11 10  1  0
 12 13  2  0
 12 11  1  0
 13  9  1  0
 14 19  1  0
 15 14  2  0
 17 16  1  0
 18 20  1  0
 18 17  1  6
 19 18  1  0
 20 22  1  0
 21 20  2  0
M  END
$$$$
