AMR.pdb
     RDKit          3D

 25 24  0  0  1  0  0  0  0  0999 V2000
    8.9675  -17.7093   17.0089 C   0  0  0  0  0  0  0  0  0  0  0  0
    8.8633  -18.4919   18.3242 C   0  0  2  0  0  0  0  0  0  0  0  0
    7.5039  -18.7912   18.6465 N   0  0  0  0  0  0  0  0  0  0  0  0
    9.4206  -17.6024   19.3839 C   0  0  0  0  0  0  0  0  0  0  0  0
   10.6425  -17.5819   19.5664 O   0  0  0  0  0  0  0  0  0  0  0  0
    6.8625  -11.4173   18.7631 C   0  0  0  0  0  0  0  0  0  0  0  0
    7.0648  -12.3472   20.2607 S   0  0  0  0  0  0  0  0  0  0  0  0
    8.0329  -13.8494   20.1503 C   0  0  0  0  0  0  0  0  0  0  0  0
    8.1910  -14.6378   21.3914 C   0  0  0  0  0  0  0  0  0  0  0  0
    8.9886  -15.8765   21.2051 C   0  0  2  0  0  0  0  0  0  0  0  0
    8.5951  -16.7815   20.1869 N   0  0  0  0  0  0  0  0  0  0  0  0
    9.4180  -16.5381   22.4608 C   0  0  0  0  0  0  0  0  0  0  0  0
    8.6204  -17.1874   23.1940 O   0  0  0  0  0  0  0  0  0  0  0  0
   14.7554  -21.4849   24.1458 N   0  0  0  0  0  0  0  0  0  0  0  0
   14.4058  -21.2708   22.7981 C   0  0  0  0  0  0  0  0  0  0  0  0
   15.3287  -21.2970   21.8683 N   0  0  0  0  0  0  0  0  0  0  0  0
   13.0385  -21.0273   22.4682 N   0  0  0  0  0  0  0  0  0  0  0  0
   12.0430  -21.0776   23.5008 C   0  0  0  0  0  0  0  0  0  0  0  0
   12.0215  -19.7131   24.2092 C   0  0  0  0  0  0  0  0  0  0  0  0
   11.4477  -18.7452   23.2367 C   0  0  0  0  0  0  0  0  0  0  0  0
   11.4077  -17.3536   23.8036 C   0  0  2  0  0  0  0  0  0  0  0  0
   10.7772  -16.4327   22.8450 N   0  0  0  0  0  0  0  0  0  0  0  0
   12.7396  -16.8383   24.1831 C   0  0  0  0  0  0  0  0  0  0  0  0
   13.3221  -16.0293   23.3964 O   0  0  0  0  0  0  0  0  0  0  0  0
   13.4316  -17.1524   25.3330 O   0  0  0  0  0  0  0  0  0  0  0  0
  2  1  1  6
  2  3  1  0
  4  2  1  0
  4  5  2  0
  6  7  1  0
  7  8  1  0
  8  9  1  0
 10  9  1  1
 10 11  1  0
 11  4  1  0
 12 13  2  0
 12 10  1  0
 15 14  1  0
 16 15  2  0
 17 15  1  0
 18 17  1  0
 19 18  1  0
 20 19  1  0
 21 22  1  0
 21 20  1  6
 22 12  1  0
 23 21  1  0
 24 23  2  0
 25 23  1  0
M  END
$$$$
