AMR.pdb
     RDKit          3D

 25 24  0  0  1  0  0  0  0  0999 V2000
    8.5515  -19.9129   18.5134 C   0  0  0  0  0  0  0  0  0  0  0  0
    8.8095  -18.4641   18.0800 C   0  0  2  0  0  0  0  0  0  0  0  0
    9.7343  -18.4021   16.9926 N   0  0  0  0  0  0  0  0  0  0  0  0
    9.4118  -17.7772   19.2589 C   0  0  0  0  0  0  0  0  0  0  0  0
   10.6245  -17.8940   19.4646 O   0  0  0  0  0  0  0  0  0  0  0  0
    7.3525  -11.3144   19.8732 C   0  0  0  0  0  0  0  0  0  0  0  0
    7.3334  -12.6058   21.0900 S   0  0  0  0  0  0  0  0  0  0  0  0
    8.2947  -14.0711   20.7231 C   0  0  0  0  0  0  0  0  0  0  0  0
    8.3399  -15.1212   21.7634 C   0  0  0  0  0  0  0  0  0  0  0  0
    9.0644  -16.3445   21.3348 C   0  0  2  0  0  0  0  0  0  0  0  0
    8.6390  -16.9961   20.1494 N   0  0  0  0  0  0  0  0  0  0  0  0
    9.4249  -17.2742   22.4324 C   0  0  0  0  0  0  0  0  0  0  0  0
    8.6624  -18.2076   22.8103 O   0  0  0  0  0  0  0  0  0  0  0  0
   15.2626  -17.1140   20.5471 N   0  0  0  0  0  0  0  0  0  0  0  0
   15.3114  -18.5152   20.4100 C   0  0  0  0  0  0  0  0  0  0  0  0
   15.6266  -19.0514   19.2568 N   0  0  0  0  0  0  0  0  0  0  0  0
   15.0136  -19.3320   21.5423 N   0  0  0  0  0  0  0  0  0  0  0  0
   14.5761  -18.7157   22.7623 C   0  0  0  0  0  0  0  0  0  0  0  0
   13.0385  -18.7021   22.7648 C   0  0  0  0  0  0  0  0  0  0  0  0
   12.6266  -18.1592   24.0867 C   0  0  0  0  0  0  0  0  0  0  0  0
   11.1368  -17.9749   24.1660 C   0  0  2  0  0  0  0  0  0  0  0  0
   10.6746  -17.1014   23.0761 N   0  0  0  0  0  0  0  0  0  0  0  0
   10.6831  -17.4313   25.4630 C   0  0  0  0  0  0  0  0  0  0  0  0
   10.2446  -16.2401   25.4998 O   0  0  0  0  0  0  0  0  0  0  0  0
   10.6857  -18.1020   26.6672 O   0  0  0  0  0  0  0  0  0  0  0  0
  2  1  1  1
  2  3  1  0
  4  2  1  0
  4  5  2  0
  6  7  1  0
  7  8  1  0
  8  9  1  0
 10  9  1  1
 10 11  1  0
 11  4  1  0
 12 13  2  0
 12 10  1  0
 15 14  1  0
 16 15  2  0
 17 15  1  0
 18 17  1  0
 19 18  1  0
 20 19  1  0
 21 22  1  0
 21 20  1  1
 22 12  1  0
 23 21  1  0
 24 23  2  0
 25 23  1  0
M  END
$$$$
