AMR.pdb
     RDKit          3D

 25 24  0  0  1  0  0  0  0  0999 V2000
    6.9659  -17.3510   20.0600 C   0  0  0  0  0  0  0  0  0  0  0  0
    7.5760  -15.9484   19.9427 C   0  0  2  0  0  0  0  0  0  0  0  0
    8.6539  -15.9255   19.0051 N   0  0  0  0  0  0  0  0  0  0  0  0
    8.1109  -15.6120   21.2937 C   0  0  0  0  0  0  0  0  0  0  0  0
    9.2621  -15.9547   21.5840 O   0  0  0  0  0  0  0  0  0  0  0  0
    7.1117  -11.5934   28.1829 C   0  0  0  0  0  0  0  0  0  0  0  0
    6.4341  -12.0742   26.6150 S   0  0  0  0  0  0  0  0  0  0  0  0
    7.4217  -13.1872   25.6190 C   0  0  0  0  0  0  0  0  0  0  0  0
    6.8946  -13.5374   24.2825 C   0  0  0  0  0  0  0  0  0  0  0  0
    7.7097  -14.5584   23.5766 C   0  0  2  0  0  0  0  0  0  0  0  0
    7.3426  -14.9131   22.2536 N   0  0  0  0  0  0  0  0  0  0  0  0
    8.1278  -15.7107   24.4110 C   0  0  0  0  0  0  0  0  0  0  0  0
    7.3327  -16.6352   24.7403 O   0  0  0  0  0  0  0  0  0  0  0  0
   14.6517  -20.2609   23.7899 N   0  0  0  0  0  0  0  0  0  0  0  0
   13.9621  -21.1093   24.6782 C   0  0  0  0  0  0  0  0  0  0  0  0
   14.5630  -22.1580   25.1841 N   0  0  0  0  0  0  0  0  0  0  0  0
   12.6079  -20.8065   25.0134 N   0  0  0  0  0  0  0  0  0  0  0  0
   11.9640  -19.6792   24.4017 C   0  0  0  0  0  0  0  0  0  0  0  0
   11.9842  -18.5155   25.4065 C   0  0  0  0  0  0  0  0  0  0  0  0
   11.3069  -17.3728   24.7377 C   0  0  0  0  0  0  0  0  0  0  0  0
   10.0576  -16.9686   25.4696 C   0  0  2  0  0  0  0  0  0  0  0  0
    9.4728  -15.7685   24.8513 N   0  0  0  0  0  0  0  0  0  0  0  0
   10.2767  -16.7268   26.9108 C   0  0  0  0  0  0  0  0  0  0  0  0
   10.7150  -17.6811   27.6248 O   0  0  0  0  0  0  0  0  0  0  0  0
   10.0496  -15.5413   27.5764 O   0  0  0  0  0  0  0  0  0  0  0  0
  2  1  1  1
  2  3  1  0
  4  2  1  0
  4  5  2  0
  6  7  1  0
  7  8  1  0
  8  9  1  0
 10  9  1  1
 10 11  1  0
 11  4  1  0
 12 13  2  0
 12 10  1  0
 15 14  1  0
 16 15  2  0
 17 15  1  0
 18 17  1  0
 19 18  1  0
 20 19  1  0
 21 22  1  0
 21 20  1  6
 22 12  1  0
 23 21  1  0
 24 23  2  0
 25 23  1  0
M  END
$$$$
