AMR.pdb
     RDKit          3D

 25 24  0  0  1  0  0  0  0  0999 V2000
    9.8351  -17.1545   20.0828 C   0  0  0  0  0  0  0  0  0  0  0  0
    8.4672  -16.9082   20.7320 C   0  0  2  0  0  0  0  0  0  0  0  0
    7.6546  -16.0520   19.9270 N   0  0  0  0  0  0  0  0  0  0  0  0
    8.7387  -16.2265   22.0306 C   0  0  0  0  0  0  0  0  0  0  0  0
    9.8662  -16.3144   22.5284 O   0  0  0  0  0  0  0  0  0  0  0  0
    7.0011  -10.5632   27.3430 C   0  0  0  0  0  0  0  0  0  0  0  0
    6.6654  -11.3148   25.7710 S   0  0  0  0  0  0  0  0  0  0  0  0
    7.4089  -12.9155   25.4695 C   0  0  0  0  0  0  0  0  0  0  0  0
    7.1853  -13.5185   24.1379 C   0  0  0  0  0  0  0  0  0  0  0  0
    7.8480  -14.8366   23.9689 C   0  0  2  0  0  0  0  0  0  0  0  0
    7.7466  -15.4826   22.7107 N   0  0  0  0  0  0  0  0  0  0  0  0
    7.7166  -15.7551   25.1257 C   0  0  0  0  0  0  0  0  0  0  0  0
    6.5970  -16.0800   25.6116 O   0  0  0  0  0  0  0  0  0  0  0  0
    5.9416  -23.1330   25.6792 N   0  0  0  0  0  0  0  0  0  0  0  0
    6.8721  -23.1751   26.7360 C   0  0  0  0  0  0  0  0  0  0  0  0
    7.1074  -24.3036   27.3589 N   0  0  0  0  0  0  0  0  0  0  0  0
    7.5476  -21.9749   27.1114 N   0  0  0  0  0  0  0  0  0  0  0  0
    7.7619  -20.9488   26.1311 C   0  0  0  0  0  0  0  0  0  0  0  0
    8.7022  -19.8959   26.7408 C   0  0  0  0  0  0  0  0  0  0  0  0
    8.6249  -18.7029   25.8561 C   0  0  0  0  0  0  0  0  0  0  0  0
    8.8911  -17.4347   26.6179 C   0  0  2  0  0  0  0  0  0  0  0  0
    8.8978  -16.2838   25.7014 N   0  0  0  0  0  0  0  0  0  0  0  0
   10.1550  -17.4664   27.3827 C   0  0  0  0  0  0  0  0  0  0  0  0
   11.1587  -16.8417   26.9191 O   0  0  0  0  0  0  0  0  0  0  0  0
   10.3612  -18.1198   28.5787 O   0  0  0  0  0  0  0  0  0  0  0  0
  2  1  1  6
  2  3  1  0
  4  2  1  0
  4  5  2  0
  6  7  1  0
  7  8  1  0
  8  9  1  0
 10  9  1  1
 10 11  1  0
 11  4  1  0
 12 13  2  0
 12 10  1  0
 15 14  1  0
 16 15  2  0
 17 15  1  0
 18 17  1  0
 19 18  1  0
 20 19  1  0
 21 22  1  0
 21 20  1  6
 22 12  1  0
 23 21  1  0
 24 23  2  0
 25 23  1  0
M  END
$$$$
