AMR.pdb
     RDKit          3D

 25 24  0  0  1  0  0  0  0  0999 V2000
    7.3849  -17.7938   20.7279 C   0  0  0  0  0  0  0  0  0  0  0  0
    8.0549  -16.4274   20.5344 C   0  0  2  0  0  0  0  0  0  0  0  0
    9.2124  -16.5274   19.7027 N   0  0  0  0  0  0  0  0  0  0  0  0
    8.4791  -15.9751   21.8909 C   0  0  0  0  0  0  0  0  0  0  0  0
    9.5742  -16.3433   22.3292 O   0  0  0  0  0  0  0  0  0  0  0  0
    7.2366  -10.9796   28.0545 C   0  0  0  0  0  0  0  0  0  0  0  0
    6.7399  -11.5380   26.4451 S   0  0  0  0  0  0  0  0  0  0  0  0
    7.5791  -12.9822   25.8002 C   0  0  0  0  0  0  0  0  0  0  0  0
    7.1915  -13.4342   24.4466 C   0  0  0  0  0  0  0  0  0  0  0  0
    7.9502  -14.6234   23.9826 C   0  0  2  0  0  0  0  0  0  0  0  0
    7.6679  -15.1381   22.6918 N   0  0  0  0  0  0  0  0  0  0  0  0
    8.1618  -15.6703   25.0113 C   0  0  0  0  0  0  0  0  0  0  0  0
    7.2462  -16.4607   25.3748 O   0  0  0  0  0  0  0  0  0  0  0  0
   14.5788  -18.7192   22.2739 N   0  0  0  0  0  0  0  0  0  0  0  0
   13.1748  -18.6240   22.2097 C   0  0  0  0  0  0  0  0  0  0  0  0
   12.6063  -17.9449   21.2440 N   0  0  0  0  0  0  0  0  0  0  0  0
   12.3906  -19.2764   23.2083 N   0  0  0  0  0  0  0  0  0  0  0  0
   12.3870  -18.7650   24.5492 C   0  0  0  0  0  0  0  0  0  0  0  0
   11.1015  -17.9437   24.7428 C   0  0  0  0  0  0  0  0  0  0  0  0
   11.1149  -17.4707   26.1528 C   0  0  0  0  0  0  0  0  0  0  0  0
    9.7979  -16.8586   26.5405 C   0  0  2  0  0  0  0  0  0  0  0  0
    9.4436  -15.7809   25.6037 N   0  0  0  0  0  0  0  0  0  0  0  0
    9.7792  -16.3390   27.9237 C   0  0  0  0  0  0  0  0  0  0  0  0
    9.7233  -15.0823   28.0972 O   0  0  0  0  0  0  0  0  0  0  0  0
    9.8158  -17.0976   29.0739 O   0  0  0  0  0  0  0  0  0  0  0  0
  2  1  1  1
  2  3  1  0
  4  2  1  0
  4  5  2  0
  6  7  1  0
  7  8  1  0
  8  9  1  0
 10  9  1  1
 10 11  1  0
 11  4  1  0
 12 13  2  0
 12 10  1  0
 15 14  1  0
 16 15  2  0
 17 15  1  0
 18 17  1  0
 19 18  1  0
 20 19  1  0
 21 22  1  0
 21 20  1  6
 22 12  1  0
 23 21  1  0
 24 23  2  0
 25 23  1  0
M  END
$$$$
