AMR.pdb
     RDKit          3D

 25 24  0  0  1  0  0  0  0  0999 V2000
    6.1046  -11.0700   26.7004 C   0  0  0  0  0  0  0  0  0  0  0  0
    5.9504  -12.4868   26.1329 C   0  0  2  0  0  0  0  0  0  0  0  0
    5.3752  -13.3737   27.0941 N   0  0  0  0  0  0  0  0  0  0  0  0
    7.3280  -12.9594   25.8113 C   0  0  0  0  0  0  0  0  0  0  0  0
    8.0289  -12.2859   25.0485 O   0  0  0  0  0  0  0  0  0  0  0  0
   11.8064  -16.2327   29.7082 C   0  0  0  0  0  0  0  0  0  0  0  0
   11.1948  -14.5685   29.6379 S   0  0  0  0  0  0  0  0  0  0  0  0
   10.1402  -14.1569   28.2507 C   0  0  0  0  0  0  0  0  0  0  0  0
    9.9425  -15.2037   27.2250 C   0  0  0  0  0  0  0  0  0  0  0  0
    9.1126  -14.7556   26.0780 C   0  0  2  0  0  0  0  0  0  0  0  0
    7.8580  -14.1541   26.3516 N   0  0  0  0  0  0  0  0  0  0  0  0
    9.0920  -15.6833   24.9213 C   0  0  0  0  0  0  0  0  0  0  0  0
    8.2966  -16.6618   24.8491 O   0  0  0  0  0  0  0  0  0  0  0  0
    8.7603  -12.8649   17.3516 N   0  0  0  0  0  0  0  0  0  0  0  0
    7.8952  -13.9760   17.3902 C   0  0  0  0  0  0  0  0  0  0  0  0
    7.7369  -14.7221   16.3247 N   0  0  0  0  0  0  0  0  0  0  0  0
    7.2008  -14.2706   18.6021 N   0  0  0  0  0  0  0  0  0  0  0  0
    7.7630  -13.8582   19.8565 C   0  0  0  0  0  0  0  0  0  0  0  0
    8.6525  -14.9987   20.3782 C   0  0  0  0  0  0  0  0  0  0  0  0
    8.8796  -14.7257   21.8225 C   0  0  0  0  0  0  0  0  0  0  0  0
    9.7035  -15.8070   22.4641 C   0  0  2  0  0  0  0  0  0  0  0  0
   10.0030  -15.4555   23.8610 N   0  0  0  0  0  0  0  0  0  0  0  0
   10.9622  -16.0886   21.7431 C   0  0  0  0  0  0  0  0  0  0  0  0
   12.0557  -15.7039   22.2617 O   0  0  0  0  0  0  0  0  0  0  0  0
   11.0743  -16.7437   20.5356 O   0  0  0  0  0  0  0  0  0  0  0  0
  2  1  1  1
  2  3  1  0
  4  2  1  0
  4  5  2  0
  6  7  1  0
  7  8  1  0
  8  9  1  0
 10  9  1  1
 10 11  1  0
 11  4  1  0
 12 13  2  0
 12 10  1  0
 15 14  1  0
 16 15  2  0
 17 15  1  0
 18 17  1  0
 19 18  1  0
 20 19  1  0
 21 22  1  0
 21 20  1  6
 22 12  1  0
 23 21  1  0
 24 23  2  0
 25 23  1  0
M  END
$$$$
