ATT.pdb
     RDKit          3D

 20 19  0  0  1  0  0  0  0  0999 V2000
    6.6795  -18.6531   18.5735 C   0  0  0  0  0  0  0  0  0  0  0  0
    7.0559  -17.4317   17.7762 C   0  0  2  0  0  0  0  0  0  0  0  0
    7.5576  -17.8238   16.4913 N   0  0  0  0  0  0  0  0  0  0  0  0
    8.0490  -16.6385   18.5498 C   0  0  0  0  0  0  0  0  0  0  0  0
    9.2726  -16.8948   18.4307 O   0  0  0  0  0  0  0  0  0  0  0  0
    8.1769  -12.7772   18.7560 C   0  0  0  0  0  0  0  0  0  0  0  0
    8.2628  -13.3299   20.1547 C   0  0  1  0  0  0  0  0  0  0  0  0
    7.0294  -13.2272   20.7952 O   0  0  0  0  0  0  0  0  0  0  0  0
    8.6563  -14.7912   20.1144 C   0  0  2  0  0  0  0  0  0  0  0  0
    7.6745  -15.5977   19.4228 N   0  0  0  0  0  0  0  0  0  0  0  0
    8.8812  -15.3269   21.4662 C   0  0  0  0  0  0  0  0  0  0  0  0
    7.9927  -15.2176   22.3402 O   0  0  0  0  0  0  0  0  0  0  0  0
    8.9730  -18.6182   22.7044 C   0  0  0  0  0  0  0  0  0  0  0  0
   10.3342  -18.0842   23.0152 C   0  0  1  0  0  0  0  0  0  0  0  0
   11.2297  -18.4564   22.0072 O   0  0  0  0  0  0  0  0  0  0  0  0
   10.3412  -16.5639   23.0976 C   0  0  2  0  0  0  0  0  0  0  0  0
   10.1194  -15.9785   21.7939 N   0  0  0  0  0  0  0  0  0  0  0  0
   11.6407  -16.0818   23.6568 C   0  0  0  0  0  0  0  0  0  0  0  0
   12.4677  -15.2782   22.8856 O   0  0  0  0  0  0  0  0  0  0  0  0
   12.0107  -16.3858   24.8169 O   0  0  0  0  0  0  0  0  0  0  0  0
  2  3  1  0
  2  4  1  0
  2  1  1  1
  4  5  2  0
  7  6  1  6
  7  9  1  0
  8  7  1  0
  9 11  1  0
 10  4  1  0
  9 10  1  1
 11 17  1  0
 11 12  2  0
 14 13  1  6
 14 16  1  0
 15 14  1  0
 16 18  1  0
 16 17  1  6
 18 20  2  0
 18 19  1  0
M  END
$$$$
