ATT.pdb
     RDKit          3D

 20 19  0  0  1  0  0  0  0  0999 V2000
    7.9975  -17.0589   15.1287 C   0  0  0  0  0  0  0  0  0  0  0  0
    7.9894  -15.5529   15.1613 C   0  0  2  0  0  0  0  0  0  0  0  0
    8.2990  -15.0355   13.8601 N   0  0  0  0  0  0  0  0  0  0  0  0
    8.9529  -15.0881   16.1954 C   0  0  0  0  0  0  0  0  0  0  0  0
   10.1354  -14.8250   15.8647 O   0  0  0  0  0  0  0  0  0  0  0  0
    7.8080  -12.4252   18.8519 C   0  0  0  0  0  0  0  0  0  0  0  0
    8.6591  -13.4710   19.5235 C   0  0  1  0  0  0  0  0  0  0  0  0
    7.8597  -14.3745   20.2212 O   0  0  0  0  0  0  0  0  0  0  0  0
    9.4528  -14.2402   18.4890 C   0  0  2  0  0  0  0  0  0  0  0  0
    8.5945  -14.9271   17.5486 N   0  0  0  0  0  0  0  0  0  0  0  0
   10.3736  -15.1995   19.1189 C   0  0  0  0  0  0  0  0  0  0  0  0
   10.0187  -16.3862   19.2958 O   0  0  0  0  0  0  0  0  0  0  0  0
   14.0681  -15.6973   18.0563 C   0  0  0  0  0  0  0  0  0  0  0  0
   14.0242  -15.4889   19.5358 C   0  0  1  0  0  0  0  0  0  0  0  0
   14.3875  -14.1726   19.8390 O   0  0  0  0  0  0  0  0  0  0  0  0
   12.6293  -15.7220   20.0997 C   0  0  2  0  0  0  0  0  0  0  0  0
   11.6845  -14.7836   19.5354 N   0  0  0  0  0  0  0  0  0  0  0  0
   12.6449  -15.5942   21.5887 C   0  0  0  0  0  0  0  0  0  0  0  0
   13.3797  -16.4913   22.3504 O   0  0  0  0  0  0  0  0  0  0  0  0
   12.0057  -14.6890   22.1779 O   0  0  0  0  0  0  0  0  0  0  0  0
  2  3  1  0
  2  4  1  0
  2  1  1  6
  4  5  2  0
  7  6  1  6
  7  9  1  0
  8  7  1  0
  9 11  1  0
 10  4  1  0
  9 10  1  6
 11 17  1  0
 11 12  2  0
 14 13  1  6
 14 16  1  0
 15 14  1  0
 16 18  1  0
 16 17  1  6
 18 20  2  0
 18 19  1  0
M  END
$$$$
