ATT.pdb
     RDKit          3D

 20 19  0  0  1  0  0  0  0  0999 V2000
    8.3425  -12.3725   19.2111 C   0  0  0  0  0  0  0  0  0  0  0  0
    8.5845  -13.8593   19.2148 C   0  0  2  0  0  0  0  0  0  0  0  0
    8.0623  -14.4412   18.0126 N   0  0  0  0  0  0  0  0  0  0  0  0
    7.9692  -14.4446   20.4365 C   0  0  0  0  0  0  0  0  0  0  0  0
    6.7515  -14.7512   20.4291 O   0  0  0  0  0  0  0  0  0  0  0  0
    7.9304  -17.4673   21.6109 C   0  0  0  0  0  0  0  0  0  0  0  0
    8.4067  -16.7717   22.8592 C   0  0  1  0  0  0  0  0  0  0  0  0
    9.7841  -16.9244   23.0061 O   0  0  0  0  0  0  0  0  0  0  0  0
    8.0991  -15.2914   22.7807 C   0  0  2  0  0  0  0  0  0  0  0  0
    8.7006  -14.6742   21.6189 N   0  0  0  0  0  0  0  0  0  0  0  0
    8.5261  -14.5861   23.9994 C   0  0  0  0  0  0  0  0  0  0  0  0
    9.6795  -14.1075   24.0757 O   0  0  0  0  0  0  0  0  0  0  0  0
    6.5168  -11.7464   26.0577 C   0  0  0  0  0  0  0  0  0  0  0  0
    6.8377  -12.9525   26.8803 C   0  0  1  0  0  0  0  0  0  0  0  0
    5.7352  -13.8128   26.9085 O   0  0  0  0  0  0  0  0  0  0  0  0
    8.0141  -13.7318   26.3083 C   0  0  2  0  0  0  0  0  0  0  0  0
    7.6251  -14.4411   25.1095 N   0  0  0  0  0  0  0  0  0  0  0  0
    8.5379  -14.6967   27.3224 C   0  0  0  0  0  0  0  0  0  0  0  0
    9.0117  -14.2287   28.5395 O   0  0  0  0  0  0  0  0  0  0  0  0
    8.5623  -15.9322   27.1036 O   0  0  0  0  0  0  0  0  0  0  0  0
  2  3  1  0
  2  4  1  0
  2  1  1  6
  4  5  2  0
  7  6  1  6
  7  9  1  0
  8  7  1  0
  9 11  1  0
 10  4  1  0
  9 10  1  6
 11 17  1  0
 11 12  2  0
 14 13  1  6
 14 16  1  0
 15 14  1  0
 16 18  1  0
 16 17  1  6
 18 20  2  0
 18 19  1  0
M  END
$$$$
