ATT.pdb
     RDKit          3D

 20 19  0  0  1  0  0  0  0  0999 V2000
    7.7830  -18.2820   17.4235 C   0  0  0  0  0  0  0  0  0  0  0  0
    8.0859  -16.8228   17.2041 C   0  0  2  0  0  0  0  0  0  0  0  0
    8.8776  -16.6621   16.0193 N   0  0  0  0  0  0  0  0  0  0  0  0
    8.7666  -16.2850   18.4129 C   0  0  0  0  0  0  0  0  0  0  0  0
   10.0192  -16.3320   18.4892 O   0  0  0  0  0  0  0  0  0  0  0  0
    7.7274  -12.8749   20.0873 C   0  0  0  0  0  0  0  0  0  0  0  0
    7.9451  -13.9153   21.1547 C   0  0  1  0  0  0  0  0  0  0  0  0
    6.7236  -14.4034   21.6149 O   0  0  0  0  0  0  0  0  0  0  0  0
    8.7401  -15.0764   20.5964 C   0  0  2  0  0  0  0  0  0  0  0  0
    8.0603  -15.7169   19.4918 N   0  0  0  0  0  0  0  0  0  0  0  0
    9.0487  -16.0693   21.6375 C   0  0  0  0  0  0  0  0  0  0  0  0
    8.2409  -16.9927   21.8828 O   0  0  0  0  0  0  0  0  0  0  0  0
   11.7995  -18.5190   21.9538 C   0  0  0  0  0  0  0  0  0  0  0  0
   11.8903  -17.6467   23.1643 C   0  0  1  0  0  0  0  0  0  0  0  0
   12.8774  -16.6742   22.9735 O   0  0  0  0  0  0  0  0  0  0  0  0
   10.5796  -16.9227   23.4405 C   0  0  2  0  0  0  0  0  0  0  0  0
   10.2765  -15.9878   22.3796 N   0  0  0  0  0  0  0  0  0  0  0  0
   10.6519  -16.2020   24.7478 C   0  0  0  0  0  0  0  0  0  0  0  0
   10.7974  -16.9216   25.9251 O   0  0  0  0  0  0  0  0  0  0  0  0
   10.5841  -14.9506   24.8136 O   0  0  0  0  0  0  0  0  0  0  0  0
  2  3  1  0
  2  4  1  0
  2  1  1  1
  4  5  2  0
  7  6  1  6
  7  9  1  0
  8  7  1  0
  9 11  1  0
 10  4  1  0
  9 10  1  6
 11 17  1  0
 11 12  2  0
 14 13  1  6
 14 16  1  0
 15 14  1  0
 16 18  1  0
 16 17  1  6
 18 20  2  0
 18 19  1  0
M  END
$$$$
