ATT.pdb
     RDKit          3D

 20 19  0  0  1  0  0  0  0  0999 V2000
    8.4657  -12.2965   19.2384 C   0  0  0  0  0  0  0  0  0  0  0  0
    8.5788  -13.7973   19.1773 C   0  0  2  0  0  0  0  0  0  0  0  0
    7.9266  -14.2877   17.9979 N   0  0  0  0  0  0  0  0  0  0  0  0
    8.0014  -14.3751   20.4209 C   0  0  0  0  0  0  0  0  0  0  0  0
    6.7721  -14.6265   20.4729 O   0  0  0  0  0  0  0  0  0  0  0  0
    8.1316  -17.5007   21.5413 C   0  0  0  0  0  0  0  0  0  0  0  0
    8.6214  -16.7851   22.7730 C   0  0  1  0  0  0  0  0  0  0  0  0
   10.0102  -16.8607   22.8600 O   0  0  0  0  0  0  0  0  0  0  0  0
    8.2282  -15.3242   22.7181 C   0  0  2  0  0  0  0  0  0  0  0  0
    8.7818  -14.6575   21.5597 N   0  0  0  0  0  0  0  0  0  0  0  0
    8.6256  -14.6119   23.9427 C   0  0  0  0  0  0  0  0  0  0  0  0
    9.7548  -14.0788   24.0199 O   0  0  0  0  0  0  0  0  0  0  0  0
    6.4498  -11.8973   26.0422 C   0  0  0  0  0  0  0  0  0  0  0  0
    6.8481  -13.0974   26.8394 C   0  0  1  0  0  0  0  0  0  0  0  0
    5.8036  -14.0277   26.8477 O   0  0  0  0  0  0  0  0  0  0  0  0
    8.0725  -13.7866   26.2526 C   0  0  2  0  0  0  0  0  0  0  0  0
    7.7234  -14.5224   25.0576 N   0  0  0  0  0  0  0  0  0  0  0  0
    8.6787  -14.7100   27.2593 C   0  0  0  0  0  0  0  0  0  0  0  0
    9.1514  -14.2051   28.4619 O   0  0  0  0  0  0  0  0  0  0  0  0
    8.7743  -15.9433   27.0469 O   0  0  0  0  0  0  0  0  0  0  0  0
  2  3  1  0
  2  4  1  0
  2  1  1  1
  4  5  2  0
  7  6  1  6
  7  9  1  0
  8  7  1  0
  9 11  1  0
 10  4  1  0
  9 10  1  6
 11 17  1  0
 11 12  2  0
 14 13  1  6
 14 16  1  0
 15 14  1  0
 16 18  1  0
 16 17  1  6
 18 20  2  0
 18 19  1  0
M  END
$$$$
