ATT.pdb
     RDKit          3D

 20 19  0  0  1  0  0  0  0  0999 V2000
    8.0599  -16.4505   16.6124 C   0  0  0  0  0  0  0  0  0  0  0  0
    7.8781  -14.9956   16.9581 C   0  0  2  0  0  0  0  0  0  0  0  0
    8.3075  -14.1768   15.8619 N   0  0  0  0  0  0  0  0  0  0  0  0
    8.6281  -14.7001   18.2086 C   0  0  0  0  0  0  0  0  0  0  0  0
    9.8150  -14.2962   18.1367 O   0  0  0  0  0  0  0  0  0  0  0  0
    7.7349  -12.4747   21.1917 C   0  0  0  0  0  0  0  0  0  0  0  0
    8.0541  -13.8463   21.7265 C   0  0  1  0  0  0  0  0  0  0  0  0
    6.8813  -14.5388   22.0213 O   0  0  0  0  0  0  0  0  0  0  0  0
    8.8279  -14.6405   20.6958 C   0  0  2  0  0  0  0  0  0  0  0  0
    8.0598  -14.8547   19.4888 N   0  0  0  0  0  0  0  0  0  0  0  0
    9.2794  -15.9320   21.2373 C   0  0  0  0  0  0  0  0  0  0  0  0
    8.6608  -16.9819   20.9537 O   0  0  0  0  0  0  0  0  0  0  0  0
   12.8036  -18.7160   23.1799 C   0  0  0  0  0  0  0  0  0  0  0  0
   12.3039  -17.5371   22.4086 C   0  0  1  0  0  0  0  0  0  0  0  0
   12.4093  -17.7901   21.0369 O   0  0  0  0  0  0  0  0  0  0  0  0
   10.8410  -17.2415   22.7102 C   0  0  2  0  0  0  0  0  0  0  0  0
   10.4312  -15.9990   22.0939 N   0  0  0  0  0  0  0  0  0  0  0  0
   10.6204  -17.1734   24.1868 C   0  0  0  0  0  0  0  0  0  0  0  0
   10.5251  -15.9396   24.8139 O   0  0  0  0  0  0  0  0  0  0  0  0
   10.5176  -18.2112   24.8850 O   0  0  0  0  0  0  0  0  0  0  0  0
  2  3  1  0
  2  4  1  0
  2  1  1  6
  4  5  2  0
  7  6  1  6
  7  9  1  0
  8  7  1  0
  9 11  1  0
 10  4  1  0
  9 10  1  6
 11 17  1  0
 11 12  2  0
 14 13  1  1
 14 16  1  0
 15 14  1  0
 16 18  1  0
 16 17  1  6
 18 20  2  0
 18 19  1  0
M  END
$$$$
