LGH.pdb
     RDKit          3D

 23 23  0  0  1  0  0  0  0  0999 V2000
   29.5359  -18.2742  -19.3118 C   0  0  0  0  0  0  0  0  0  0  0  0
   28.3185  -17.3250  -19.4743 C   0  0  2  0  0  0  0  0  0  0  0  0
   28.8384  -15.9772  -19.9308 C   0  0  0  0  0  0  0  0  0  0  0  0
   27.6275  -17.2105  -18.1741 C   0  0  0  0  0  0  0  0  0  0  0  0
   27.3401  -18.4893  -17.4602 C   0  0  2  0  0  0  0  0  0  0  0  0
   26.4779  -19.3776  -18.1683 N   0  0  0  0  0  0  0  0  0  0  0  0
   26.7584  -18.1584  -16.1096 C   0  0  0  0  0  0  0  0  0  0  0  0
   25.6053  -17.6171  -16.1326 O   0  0  0  0  0  0  0  0  0  0  0  0
   27.4222  -18.4212  -14.9104 N   0  0  0  0  0  0  0  0  0  0  0  0
   26.7896  -18.0746  -13.6251 C   0  0  0  0  0  0  0  0  0  0  0  0
   26.0229  -19.2654  -13.1433 C   0  0  0  0  0  0  0  0  0  0  0  0
   26.0930  -20.3902  -13.7019 O   0  0  0  0  0  0  0  0  0  0  0  0
   25.1890  -19.0975  -12.0092 N   0  0  0  0  0  0  0  0  0  0  0  0
   24.5378  -20.3037  -11.4514 C   0  0  1  0  0  0  0  0  0  0  0  0
   24.3057  -19.9803  -10.0089 C   0  0  0  0  0  0  0  0  0  0  0  0
   23.5339  -20.9446   -9.2301 C   0  0  0  0  0  0  0  0  0  0  0  0
   22.9580  -22.1493   -9.4747 C   0  0  0  0  0  0  0  0  0  0  0  0
   22.4084  -22.6212   -8.3269 N   0  0  0  0  0  0  0  0  0  0  0  0
   22.6461  -21.7086   -7.3735 C   0  0  0  0  0  0  0  0  0  0  0  0
   23.3171  -20.6988   -7.8895 N   0  0  0  0  0  0  0  0  0  0  0  0
   23.2010  -20.4144  -12.1153 C   0  0  0  0  0  0  0  0  0  0  0  0
   22.5067  -21.6207  -12.1558 O   0  0  0  0  0  0  0  0  0  0  0  0
   22.6639  -19.4450  -12.6507 O   0  0  0  0  0  0  0  0  0  0  0  0
  2  1  1  1
  2  3  1  0
  4  2  1  0
  5  7  1  0
  5  4  1  0
  5  6  1  6
  7  8  2  0
  9 10  1  0
  9  7  1  0
 10 11  1  0
 11 13  1  0
 11 12  2  0
 13 14  1  0
 14 15  1  1
 14 21  1  0
 16 17  2  0
 16 15  1  0
 18 17  1  0
 19 20  2  0
 19 18  1  0
 20 16  1  0
 21 22  1  0
 23 21  2  0
M  END
$$$$
