LGH.pdb
     RDKit          3D

 23 23  0  0  1  0  0  0  0  0999 V2000
   29.0666  -21.0769   -6.8045 C   0  0  0  0  0  0  0  0  0  0  0  0
   28.2896  -19.7459   -6.9897 C   0  0  2  0  0  0  0  0  0  0  0  0
   28.3373  -18.9938   -5.6754 C   0  0  0  0  0  0  0  0  0  0  0  0
   26.8965  -20.0570   -7.3686 C   0  0  0  0  0  0  0  0  0  0  0  0
   26.7134  -20.9364   -8.5605 C   0  0  2  0  0  0  0  0  0  0  0  0
   27.4980  -20.5650   -9.6920 N   0  0  0  0  0  0  0  0  0  0  0  0
   25.2495  -20.9511   -8.9189 C   0  0  0  0  0  0  0  0  0  0  0  0
   24.4482  -20.9888   -7.9290 O   0  0  0  0  0  0  0  0  0  0  0  0
   24.7884  -20.9244  -10.2359 N   0  0  0  0  0  0  0  0  0  0  0  0
   23.6798  -20.0290  -10.6120 C   0  0  0  0  0  0  0  0  0  0  0  0
   23.5547  -20.0377  -12.1027 C   0  0  0  0  0  0  0  0  0  0  0  0
   22.7351  -19.3101  -12.7200 O   0  0  0  0  0  0  0  0  0  0  0  0
   24.4039  -20.9089  -12.8302 N   0  0  0  0  0  0  0  0  0  0  0  0
   24.4375  -20.7637  -14.3027 C   0  0  1  0  0  0  0  0  0  0  0  0
   25.8091  -21.2113  -14.6997 C   0  0  0  0  0  0  0  0  0  0  0  0
   26.9348  -20.4535  -14.1604 C   0  0  0  0  0  0  0  0  0  0  0  0
   27.3097  -19.1489  -14.1511 C   0  0  0  0  0  0  0  0  0  0  0  0
   28.4514  -19.0190  -13.4287 N   0  0  0  0  0  0  0  0  0  0  0  0
   28.7805  -20.2431  -12.9910 C   0  0  0  0  0  0  0  0  0  0  0  0
   27.8891  -21.1158  -13.4153 N   0  0  0  0  0  0  0  0  0  0  0  0
   23.4575  -21.7520  -14.8529 C   0  0  0  0  0  0  0  0  0  0  0  0
   22.7374  -22.6035  -14.0191 O   0  0  0  0  0  0  0  0  0  0  0  0
   23.2501  -21.8507  -16.0621 O   0  0  0  0  0  0  0  0  0  0  0  0
  2  1  1  1
  2  3  1  0
  4  2  1  0
  5  7  1  0
  5  4  1  0
  5  6  1  6
  7  8  2  0
  9 10  1  0
  9  7  1  0
 10 11  1  0
 11 13  1  0
 11 12  2  0
 13 14  1  0
 14 15  1  6
 14 21  1  0
 16 17  2  0
 16 15  1  0
 18 17  1  0
 19 20  2  0
 19 18  1  0
 20 16  1  0
 21 22  1  0
 23 21  2  0
M  END
$$$$
