LGH.pdb
     RDKit          3D

 23 23  0  0  1  0  0  0  0  0999 V2000
   24.0173  -14.2522  -15.4888 C   0  0  0  0  0  0  0  0  0  0  0  0
   25.5275  -14.1983  -15.1339 C   0  0  2  0  0  0  0  0  0  0  0  0
   26.2547  -13.5531  -16.2959 C   0  0  0  0  0  0  0  0  0  0  0  0
   26.0125  -15.5747  -14.9074 C   0  0  0  0  0  0  0  0  0  0  0  0
   26.2514  -16.4032  -16.1257 C   0  0  2  0  0  0  0  0  0  0  0  0
   25.0837  -16.6539  -16.9050 N   0  0  0  0  0  0  0  0  0  0  0  0
   26.8868  -17.7018  -15.6993 C   0  0  0  0  0  0  0  0  0  0  0  0
   27.8915  -17.5863  -14.9244 O   0  0  0  0  0  0  0  0  0  0  0  0
   26.4191  -18.9496  -16.1139 N   0  0  0  0  0  0  0  0  0  0  0  0
   27.0458  -20.1808  -15.6003 C   0  0  0  0  0  0  0  0  0  0  0  0
   26.0421  -20.9017  -14.7573 C   0  0  0  0  0  0  0  0  0  0  0  0
   26.2942  -21.9929  -14.1845 O   0  0  0  0  0  0  0  0  0  0  0  0
   24.7605  -20.3138  -14.6110 N   0  0  0  0  0  0  0  0  0  0  0  0
   23.7748  -21.0186  -13.7612 C   0  0  1  0  0  0  0  0  0  0  0  0
   23.8247  -20.3057  -12.4465 C   0  0  0  0  0  0  0  0  0  0  0  0
   24.8161  -20.7687  -11.4796 C   0  0  0  0  0  0  0  0  0  0  0  0
   25.7650  -21.7391  -11.4530 C   0  0  0  0  0  0  0  0  0  0  0  0
   26.4459  -21.6638  -10.2814 N   0  0  0  0  0  0  0  0  0  0  0  0
   25.9184  -20.6463   -9.5853 C   0  0  0  0  0  0  0  0  0  0  0  0
   24.9438  -20.0966  -10.2810 N   0  0  0  0  0  0  0  0  0  0  0  0
   22.4296  -20.7663  -14.3667 C   0  0  0  0  0  0  0  0  0  0  0  0
   21.2864  -21.4023  -13.8896 O   0  0  0  0  0  0  0  0  0  0  0  0
   22.2811  -19.9881  -15.3086 O   0  0  0  0  0  0  0  0  0  0  0  0
  2  1  1  6
  2  3  1  0
  4  2  1  0
  5  7  1  0
  5  4  1  0
  5  6  1  1
  7  8  2  0
  9 10  1  0
  9  7  1  0
 10 11  1  0
 11 13  1  0
 11 12  2  0
 13 14  1  0
 14 15  1  1
 14 21  1  0
 16 17  2  0
 16 15  1  0
 18 17  1  0
 19 20  2  0
 19 18  1  0
 20 16  1  0
 21 22  1  0
 23 21  2  0
M  END
$$$$
