LGH.pdb
     RDKit          3D

 23 23  0  0  1  0  0  0  0  0999 V2000
   28.0648  -21.4945   -6.2389 C   0  0  0  0  0  0  0  0  0  0  0  0
   28.5682  -20.2155   -6.9604 C   0  0  2  0  0  0  0  0  0  0  0  0
   28.1111  -19.0172   -6.1538 C   0  0  0  0  0  0  0  0  0  0  0  0
   27.9985  -20.1822   -8.3225 C   0  0  0  0  0  0  0  0  0  0  0  0
   28.3341  -21.3337   -9.2108 C   0  0  2  0  0  0  0  0  0  0  0  0
   29.7299  -21.5092   -9.4446 N   0  0  0  0  0  0  0  0  0  0  0  0
   27.6015  -21.1556  -10.5159 C   0  0  0  0  0  0  0  0  0  0  0  0
   28.1437  -20.3465  -11.3372 O   0  0  0  0  0  0  0  0  0  0  0  0
   26.4138  -21.8230  -10.8187 N   0  0  0  0  0  0  0  0  0  0  0  0
   25.8254  -21.7088  -12.1652 C   0  0  0  0  0  0  0  0  0  0  0  0
   24.6070  -20.8456  -12.0732 C   0  0  0  0  0  0  0  0  0  0  0  0
   24.3026  -20.2087  -11.0321 O   0  0  0  0  0  0  0  0  0  0  0  0
   23.7752  -20.7557  -13.2176 N   0  0  0  0  0  0  0  0  0  0  0  0
   22.5960  -19.8647  -13.1408 C   0  0  1  0  0  0  0  0  0  0  0  0
   22.1800  -19.6579  -14.5633 C   0  0  0  0  0  0  0  0  0  0  0  0
   20.9484  -18.9069  -14.7903 C   0  0  0  0  0  0  0  0  0  0  0  0
   20.3540  -17.8256  -14.2246 C   0  0  0  0  0  0  0  0  0  0  0  0
   19.2178  -17.5342  -14.9074 N   0  0  0  0  0  0  0  0  0  0  0  0
   19.1115  -18.4348  -15.8954 C   0  0  0  0  0  0  0  0  0  0  0  0
   20.1338  -19.2645  -15.8454 N   0  0  0  0  0  0  0  0  0  0  0  0
   21.5153  -20.6427  -12.4575 C   0  0  0  0  0  0  0  0  0  0  0  0
   20.5275  -20.0105  -11.7070 O   0  0  0  0  0  0  0  0  0  0  0  0
   21.4574  -21.8698  -12.5321 O   0  0  0  0  0  0  0  0  0  0  0  0
  2  1  1  1
  2  3  1  0
  4  2  1  0
  5  7  1  0
  5  4  1  0
  5  6  1  6
  7  8  2  0
  9 10  1  0
  9  7  1  0
 10 11  1  0
 11 13  1  0
 11 12  2  0
 13 14  1  0
 14 15  1  6
 14 21  1  0
 16 17  2  0
 16 15  1  0
 18 17  1  0
 19 20  2  0
 19 18  1  0
 20 16  1  0
 21 22  1  0
 23 21  2  0
M  END
$$$$
