LGH.pdb
     RDKit          3D

 23 23  0  0  1  0  0  0  0  0999 V2000
   23.8407  -19.9806  -13.9218 C   0  0  0  0  0  0  0  0  0  0  0  0
   22.6468  -20.7981  -13.3597 C   0  0  2  0  0  0  0  0  0  0  0  0
   21.5135  -20.7134  -14.3617 C   0  0  0  0  0  0  0  0  0  0  0  0
   22.2456  -20.2221  -12.0603 C   0  0  0  0  0  0  0  0  0  0  0  0
   23.2326  -20.3432  -10.9474 C   0  0  2  0  0  0  0  0  0  0  0  0
   24.0755  -21.4905  -11.0306 N   0  0  0  0  0  0  0  0  0  0  0  0
   22.4790  -20.3389   -9.6421 C   0  0  0  0  0  0  0  0  0  0  0  0
   21.6801  -19.3598   -9.4793 O   0  0  0  0  0  0  0  0  0  0  0  0
   22.6330  -21.3299   -8.6716 N   0  0  0  0  0  0  0  0  0  0  0  0
   21.7891  -21.3173   -7.4633 C   0  0  0  0  0  0  0  0  0  0  0  0
   20.4480  -21.8749   -7.8218 C   0  0  0  0  0  0  0  0  0  0  0  0
   19.5227  -21.1673   -8.2964 O   0  0  0  0  0  0  0  0  0  0  0  0
   20.2320  -23.2599   -7.6100 N   0  0  0  0  0  0  0  0  0  0  0  0
   18.9443  -23.8312   -8.0634 C   0  0  1  0  0  0  0  0  0  0  0  0
   19.1599  -25.3120   -8.0575 C   0  0  0  0  0  0  0  0  0  0  0  0
   18.0250  -26.1477   -8.4393 C   0  0  0  0  0  0  0  0  0  0  0  0
   16.7984  -25.9296   -8.9783 C   0  0  0  0  0  0  0  0  0  0  0  0
   16.1786  -27.1216   -9.1709 N   0  0  0  0  0  0  0  0  0  0  0  0
   17.0229  -28.0755   -8.7520 C   0  0  0  0  0  0  0  0  0  0  0  0
   18.1322  -27.5176   -8.3112 N   0  0  0  0  0  0  0  0  0  0  0  0
   17.9373  -23.5121   -7.0032 C   0  0  0  0  0  0  0  0  0  0  0  0
   16.5879  -23.3512   -7.3065 O   0  0  0  0  0  0  0  0  0  0  0  0
   18.2620  -23.3796   -5.8233 O   0  0  0  0  0  0  0  0  0  0  0  0
  2  1  1  6
  2  3  1  0
  4  2  1  0
  5  7  1  0
  5  4  1  0
  5  6  1  6
  7  8  2  0
  9 10  1  0
  9  7  1  0
 10 11  1  0
 11 13  1  0
 11 12  2  0
 13 14  1  0
 14 15  1  1
 14 21  1  0
 16 17  2  0
 16 15  1  0
 18 17  1  0
 19 20  2  0
 19 18  1  0
 20 16  1  0
 21 22  1  0
 23 21  2  0
M  END
$$$$
