CIA.pdb
     RDKit          3D

 20 19  0  0  1  0  0  0  0  0999 V2000
    6.7335  -17.3810   21.6740 N   0  0  0  0  0  0  0  0  0  0  0  0
    6.4006  -17.1843   23.0515 C   0  0  1  0  0  0  0  0  0  0  0  0
    6.2449  -18.5258   23.7293 C   0  0  0  0  0  0  0  0  0  0  0  0
    4.8143  -19.3473   22.9637 S   0  0  0  0  0  0  0  0  0  0  0  0
    7.3877  -16.3216   23.7572 C   0  0  0  0  0  0  0  0  0  0  0  0
    8.5729  -16.3374   23.3402 O   0  0  0  0  0  0  0  0  0  0  0  0
    5.4620  -11.8902   26.3066 C   0  0  0  0  0  0  0  0  0  0  0  0
    6.4426  -12.6750   25.4256 C   0  0  0  0  0  0  0  0  0  0  0  0
    7.2519  -13.5720   26.2884 C   0  0  2  0  0  0  0  0  0  0  0  0
    8.1633  -12.7217   27.1487 C   0  0  0  0  0  0  0  0  0  0  0  0
    8.0065  -14.6478   25.5586 C   0  0  2  0  0  0  0  0  0  0  0  0
    7.0373  -15.5019   24.8605 N   0  0  0  0  0  0  0  0  0  0  0  0
    8.9369  -15.4255   26.3704 C   0  0  0  0  0  0  0  0  0  0  0  0
    9.9874  -14.9160   26.8308 O   0  0  0  0  0  0  0  0  0  0  0  0
    8.9053  -18.4012   28.5684 C   0  0  0  0  0  0  0  0  0  0  0  0
    9.6402  -17.5515   27.5227 C   0  0  2  0  0  0  0  0  0  0  0  0
    8.7318  -16.8138   26.7044 N   0  0  0  0  0  0  0  0  0  0  0  0
   10.5094  -18.4736   26.7668 C   0  0  0  0  0  0  0  0  0  0  0  0
   11.3412  -19.1525   27.4117 O   0  0  0  0  0  0  0  0  0  0  0  0
   10.4710  -18.6413   25.3980 O   0  0  0  0  0  0  0  0  0  0  0  0
  2  1  1  6
  2  3  1  0
  4  3  1  0
  5  2  1  0
  5  6  2  0
  7  8  1  0
  8  9  1  0
  9 11  1  0
  9 10  1  6
 11 12  1  1
 11 13  1  0
 12  5  1  0
 13 14  2  0
 16 15  1  1
 17 13  1  0
 17 16  1  0
 18 20  1  0
 18 16  1  0
 19 18  2  0
M  END
$$$$
