CIA.pdb
     RDKit          3D

 20 19  0  0  1  0  0  0  0  0999 V2000
    6.7551  -16.1668   21.7565 N   0  0  0  0  0  0  0  0  0  0  0  0
    8.0632  -15.6209   21.5617 C   0  0  1  0  0  0  0  0  0  0  0  0
    8.0028  -14.5244   20.5239 C   0  0  0  0  0  0  0  0  0  0  0  0
    7.5554  -15.3085   18.9450 S   0  0  0  0  0  0  0  0  0  0  0  0
    8.6751  -15.1438   22.8324 C   0  0  0  0  0  0  0  0  0  0  0  0
    9.8885  -14.8187   22.8043 O   0  0  0  0  0  0  0  0  0  0  0  0
    5.9316  -12.0288   26.0673 C   0  0  0  0  0  0  0  0  0  0  0  0
    7.0895  -12.6636   25.2864 C   0  0  0  0  0  0  0  0  0  0  0  0
    7.6429  -13.7906   26.0788 C   0  0  2  0  0  0  0  0  0  0  0  0
    8.2851  -13.2309   27.3311 C   0  0  0  0  0  0  0  0  0  0  0  0
    8.5718  -14.7024   25.3272 C   0  0  2  0  0  0  0  0  0  0  0  0
    7.9453  -15.0480   24.0449 N   0  0  0  0  0  0  0  0  0  0  0  0
    9.0180  -15.8857   26.0553 C   0  0  0  0  0  0  0  0  0  0  0  0
    8.2034  -16.7495   26.4622 O   0  0  0  0  0  0  0  0  0  0  0  0
   12.2141  -17.7940   26.5975 C   0  0  0  0  0  0  0  0  0  0  0  0
   10.8220  -17.3335   27.0511 C   0  0  2  0  0  0  0  0  0  0  0  0
   10.4015  -16.1559   26.3617 N   0  0  0  0  0  0  0  0  0  0  0  0
   10.8882  -17.1748   28.5166 C   0  0  0  0  0  0  0  0  0  0  0  0
   10.8187  -16.0141   28.9820 O   0  0  0  0  0  0  0  0  0  0  0  0
   11.0215  -18.2158   29.4121 O   0  0  0  0  0  0  0  0  0  0  0  0
  2  1  1  1
  2  3  1  0
  4  3  1  0
  5  2  1  0
  5  6  2  0
  7  8  1  0
  8  9  1  0
  9 11  1  0
  9 10  1  1
 11 12  1  6
 11 13  1  0
 12  5  1  0
 13 14  2  0
 16 15  1  6
 17 13  1  0
 17 16  1  0
 18 20  1  0
 18 16  1  0
 19 18  2  0
M  END
$$$$
