CIA.pdb
     RDKit          3D

 20 19  0  0  1  0  0  0  0  0999 V2000
    7.4092  -14.7560   20.2133 N   0  0  0  0  0  0  0  0  0  0  0  0
    6.8891  -15.3017   21.4294 C   0  0  1  0  0  0  0  0  0  0  0  0
    6.6877  -16.7906   21.2686 C   0  0  0  0  0  0  0  0  0  0  0  0
    5.9213  -17.3939   22.8037 S   0  0  0  0  0  0  0  0  0  0  0  0
    7.7447  -14.9852   22.6060 C   0  0  0  0  0  0  0  0  0  0  0  0
    8.9889  -14.9769   22.4315 O   0  0  0  0  0  0  0  0  0  0  0  0
    5.9215  -11.5708   26.3818 C   0  0  0  0  0  0  0  0  0  0  0  0
    6.8633  -12.2792   25.3995 C   0  0  0  0  0  0  0  0  0  0  0  0
    7.3192  -13.5552   26.0061 C   0  0  2  0  0  0  0  0  0  0  0  0
    8.1334  -13.2381   27.2432 C   0  0  0  0  0  0  0  0  0  0  0  0
    8.0483  -14.4801   25.0722 C   0  0  2  0  0  0  0  0  0  0  0  0
    7.2085  -14.6997   23.8878 N   0  0  0  0  0  0  0  0  0  0  0  0
    8.5060  -15.7352   25.6594 C   0  0  0  0  0  0  0  0  0  0  0  0
    7.7028  -16.5411   26.1890 O   0  0  0  0  0  0  0  0  0  0  0  0
   11.6579  -17.8449   25.5963 C   0  0  0  0  0  0  0  0  0  0  0  0
   10.3088  -17.4127   26.1868 C   0  0  2  0  0  0  0  0  0  0  0  0
    9.8888  -16.1455   25.6799 N   0  0  0  0  0  0  0  0  0  0  0  0
   10.4614  -17.4471   27.6540 C   0  0  0  0  0  0  0  0  0  0  0  0
   10.3719  -16.3636   28.2759 O   0  0  0  0  0  0  0  0  0  0  0  0
   10.6960  -18.5896   28.3907 O   0  0  0  0  0  0  0  0  0  0  0  0
  2  1  1  6
  2  3  1  0
  4  3  1  0
  5  2  1  0
  5  6  2  0
  7  8  1  0
  8  9  1  0
  9 11  1  0
  9 10  1  1
 11 12  1  6
 11 13  1  0
 12  5  1  0
 13 14  2  0
 16 15  1  6
 17 13  1  0
 17 16  1  0
 18 20  1  0
 18 16  1  0
 19 18  2  0
M  END
$$$$
