CIA.pdb
     RDKit          3D

 20 19  0  0  1  0  0  0  0  0999 V2000
   10.8297  -18.0434   17.5451 N   0  0  0  0  0  0  0  0  0  0  0  0
    9.6040  -17.8479   18.2569 C   0  0  1  0  0  0  0  0  0  0  0  0
    8.9771  -19.1889   18.5598 C   0  0  0  0  0  0  0  0  0  0  0  0
    8.4364  -19.8954   16.9735 S   0  0  0  0  0  0  0  0  0  0  0  0
    9.7864  -17.0337   19.4900 C   0  0  0  0  0  0  0  0  0  0  0  0
   10.9491  -16.9442   19.9579 O   0  0  0  0  0  0  0  0  0  0  0  0
    7.0741  -12.4561   19.8755 C   0  0  0  0  0  0  0  0  0  0  0  0
    8.2094  -13.4823   19.9845 C   0  0  0  0  0  0  0  0  0  0  0  0
    7.9798  -14.3277   21.1831 C   0  0  2  0  0  0  0  0  0  0  0  0
    8.0164  -13.4433   22.4121 C   0  0  0  0  0  0  0  0  0  0  0  0
    8.8960  -15.5121   21.3125 C   0  0  2  0  0  0  0  0  0  0  0  0
    8.7112  -16.3719   20.1365 N   0  0  0  0  0  0  0  0  0  0  0  0
    8.7854  -16.2601   22.5606 C   0  0  0  0  0  0  0  0  0  0  0  0
    7.7555  -16.9215   22.8380 O   0  0  0  0  0  0  0  0  0  0  0  0
    9.9918  -18.7089   24.0052 C   0  0  0  0  0  0  0  0  0  0  0  0
    9.8720  -17.2926   24.5844 C   0  0  2  0  0  0  0  0  0  0  0  0
    9.8271  -16.3012   23.5577 N   0  0  0  0  0  0  0  0  0  0  0  0
   10.9965  -17.1262   25.5251 C   0  0  0  0  0  0  0  0  0  0  0  0
   11.8716  -16.2753   25.2444 O   0  0  0  0  0  0  0  0  0  0  0  0
   11.1528  -17.8425   26.6937 O   0  0  0  0  0  0  0  0  0  0  0  0
  2  1  1  1
  2  3  1  0
  4  3  1  0
  5  2  1  0
  5  6  2  0
  7  8  1  0
  8  9  1  0
  9 11  1  0
  9 10  1  1
 11 12  1  6
 11 13  1  0
 12  5  1  0
 13 14  2  0
 16 15  1  6
 17 13  1  0
 17 16  1  0
 18 20  1  0
 18 16  1  0
 19 18  2  0
M  END
$$$$
