CIA.pdb
     RDKit          3D

 20 19  0  0  1  0  0  0  0  0999 V2000
    7.9169  -14.5396   20.1542 N   0  0  0  0  0  0  0  0  0  0  0  0
    7.3044  -15.1037   21.3177 C   0  0  1  0  0  0  0  0  0  0  0  0
    7.0855  -16.5836   21.1051 C   0  0  0  0  0  0  0  0  0  0  0  0
    5.5964  -16.7601   20.0759 S   0  0  0  0  0  0  0  0  0  0  0  0
    8.0837  -14.8345   22.5575 C   0  0  0  0  0  0  0  0  0  0  0  0
    9.3355  -14.7948   22.4572 O   0  0  0  0  0  0  0  0  0  0  0  0
    5.8803  -11.7596   26.4403 C   0  0  0  0  0  0  0  0  0  0  0  0
    6.9053  -12.3490   25.4628 C   0  0  0  0  0  0  0  0  0  0  0  0
    7.4120  -13.6315   26.0130 C   0  0  2  0  0  0  0  0  0  0  0  0
    8.1540  -13.3444   27.3018 C   0  0  0  0  0  0  0  0  0  0  0  0
    8.2334  -14.4536   25.0598 C   0  0  2  0  0  0  0  0  0  0  0  0
    7.4684  -14.6263   23.8184 N   0  0  0  0  0  0  0  0  0  0  0  0
    8.7209  -15.7252   25.5841 C   0  0  0  0  0  0  0  0  0  0  0  0
    7.9414  -16.5614   26.1022 O   0  0  0  0  0  0  0  0  0  0  0  0
   11.9318  -17.7595   25.4635 C   0  0  0  0  0  0  0  0  0  0  0  0
   10.5630  -17.3797   26.0445 C   0  0  2  0  0  0  0  0  0  0  0  0
   10.1083  -16.1189   25.5517 N   0  0  0  0  0  0  0  0  0  0  0  0
   10.7000  -17.4316   27.5127 C   0  0  0  0  0  0  0  0  0  0  0  0
   11.0613  -18.5147   28.0275 O   0  0  0  0  0  0  0  0  0  0  0  0
   10.4581  -16.3702   28.3602 O   0  0  0  0  0  0  0  0  0  0  0  0
  2  1  1  6
  2  3  1  0
  4  3  1  0
  5  2  1  0
  5  6  2  0
  7  8  1  0
  8  9  1  0
  9 11  1  0
  9 10  1  1
 11 12  1  6
 11 13  1  0
 12  5  1  0
 13 14  2  0
 16 15  1  6
 17 13  1  0
 17 16  1  0
 18 20  1  0
 18 16  1  0
 19 18  2  0
M  END
$$$$
