CIA.pdb
     RDKit          3D

 20 19  0  0  1  0  0  0  0  0999 V2000
    9.6540  -16.5370   20.8840 N   0  0  0  0  0  0  0  0  0  0  0  0
    8.9877  -16.7959   22.1234 C   0  0  1  0  0  0  0  0  0  0  0  0
    9.3711  -18.1688   22.6250 C   0  0  0  0  0  0  0  0  0  0  0  0
    8.1918  -19.3494   21.9015 S   0  0  0  0  0  0  0  0  0  0  0  0
    9.2532  -15.7431   23.1422 C   0  0  0  0  0  0  0  0  0  0  0  0
   10.4009  -15.2322   23.1612 O   0  0  0  0  0  0  0  0  0  0  0  0
    6.1399  -11.5362   26.2654 C   0  0  0  0  0  0  0  0  0  0  0  0
    7.4865  -12.2615   26.1450 C   0  0  0  0  0  0  0  0  0  0  0  0
    7.3289  -13.4186   25.2283 C   0  0  2  0  0  0  0  0  0  0  0  0
    6.0979  -14.1981   25.6416 C   0  0  0  0  0  0  0  0  0  0  0  0
    8.5394  -14.3006   25.1015 C   0  0  2  0  0  0  0  0  0  0  0  0
    8.2712  -15.3106   24.0699 N   0  0  0  0  0  0  0  0  0  0  0  0
    9.0144  -14.8999   26.3444 C   0  0  0  0  0  0  0  0  0  0  0  0
    8.3180  -15.7289   26.9791 O   0  0  0  0  0  0  0  0  0  0  0  0
    9.9354  -14.1226   29.3155 C   0  0  0  0  0  0  0  0  0  0  0  0
   10.6433  -14.9869   28.2631 C   0  0  2  0  0  0  0  0  0  0  0  0
   10.2954  -14.5967   26.9343 N   0  0  0  0  0  0  0  0  0  0  0  0
   10.3116  -16.3897   28.5786 C   0  0  0  0  0  0  0  0  0  0  0  0
    9.6428  -17.0347   27.7388 O   0  0  0  0  0  0  0  0  0  0  0  0
   10.6865  -17.0423   29.7348 O   0  0  0  0  0  0  0  0  0  0  0  0
  2  1  1  6
  2  3  1  0
  4  3  1  0
  5  2  1  0
  5  6  2  0
  7  8  1  0
  8  9  1  0
  9 11  1  0
  9 10  1  1
 11 12  1  6
 11 13  1  0
 12  5  1  0
 13 14  2  0
 16 15  1  1
 17 13  1  0
 17 16  1  0
 18 20  1  0
 18 16  1  0
 19 18  2  0
M  END
$$$$
