CIA.pdb
     RDKit          3D

 20 19  0  0  1  0  0  0  0  0999 V2000
    4.6683  -18.5575   22.9227 N   0  0  0  0  0  0  0  0  0  0  0  0
    5.4249  -18.3540   24.1199 C   0  0  1  0  0  0  0  0  0  0  0  0
    6.0967  -19.6475   24.5181 C   0  0  0  0  0  0  0  0  0  0  0  0
    6.8579  -19.3737   26.1470 S   0  0  0  0  0  0  0  0  0  0  0  0
    6.4054  -17.2410   23.9903 C   0  0  0  0  0  0  0  0  0  0  0  0
    7.0147  -17.1307   22.8970 O   0  0  0  0  0  0  0  0  0  0  0  0
    5.9447  -12.5630   26.8864 C   0  0  0  0  0  0  0  0  0  0  0  0
    6.2468  -13.4725   25.6885 C   0  0  0  0  0  0  0  0  0  0  0  0
    7.4748  -14.2555   25.9771 C   0  0  2  0  0  0  0  0  0  0  0  0
    8.6371  -13.2953   26.1211 C   0  0  0  0  0  0  0  0  0  0  0  0
    7.7714  -15.3586   25.0001 C   0  0  2  0  0  0  0  0  0  0  0  0
    6.6653  -16.3235   25.0403 N   0  0  0  0  0  0  0  0  0  0  0  0
    9.0695  -16.0065   25.1574 C   0  0  0  0  0  0  0  0  0  0  0  0
    9.3389  -16.6941   26.1722 O   0  0  0  0  0  0  0  0  0  0  0  0
   12.0844  -16.6940   22.9221 C   0  0  0  0  0  0  0  0  0  0  0  0
   11.3071  -16.7161   24.2453 C   0  0  2  0  0  0  0  0  0  0  0  0
   10.1280  -15.9131   24.1818 N   0  0  0  0  0  0  0  0  0  0  0  0
   12.2550  -16.3012   25.2971 C   0  0  0  0  0  0  0  0  0  0  0  0
   11.9931  -15.2597   25.9415 O   0  0  0  0  0  0  0  0  0  0  0  0
   13.4113  -16.9801   25.6218 O   0  0  0  0  0  0  0  0  0  0  0  0
  2  1  1  6
  2  3  1  0
  4  3  1  0
  5  2  1  0
  5  6  2  0
  7  8  1  0
  8  9  1  0
  9 11  1  0
  9 10  1  6
 11 12  1  1
 11 13  1  0
 12  5  1  0
 13 14  2  0
 16 15  1  6
 17 13  1  0
 17 16  1  0
 18 20  1  0
 18 16  1  0
 19 18  2  0
M  END
$$$$
