CIA.pdb
     RDKit          3D

 20 19  0  0  1  0  0  0  0  0999 V2000
    7.8254  -15.5330   20.5909 N   0  0  0  0  0  0  0  0  0  0  0  0
    7.1915  -15.8852   21.8242 C   0  0  1  0  0  0  0  0  0  0  0  0
    6.9189  -17.3713   21.8448 C   0  0  0  0  0  0  0  0  0  0  0  0
    6.0245  -17.7281   23.3877 S   0  0  0  0  0  0  0  0  0  0  0  0
    7.9789  -15.4530   23.0117 C   0  0  0  0  0  0  0  0  0  0  0  0
    9.2304  -15.5372   22.9384 O   0  0  0  0  0  0  0  0  0  0  0  0
    5.8185  -11.6916   26.2859 C   0  0  0  0  0  0  0  0  0  0  0  0
    6.8481  -12.4440   25.4329 C   0  0  0  0  0  0  0  0  0  0  0  0
    7.3390  -13.6185   26.1969 C   0  0  2  0  0  0  0  0  0  0  0  0
    8.0981  -13.1226   27.4101 C   0  0  0  0  0  0  0  0  0  0  0  0
    8.1375  -14.6100   25.3978 C   0  0  2  0  0  0  0  0  0  0  0  0
    7.3715  -14.9606   24.1952 N   0  0  0  0  0  0  0  0  0  0  0  0
    8.5838  -15.7926   26.1271 C   0  0  0  0  0  0  0  0  0  0  0  0
    7.7721  -16.6697   26.5107 O   0  0  0  0  0  0  0  0  0  0  0  0
   11.4653  -17.9708   26.1970 C   0  0  0  0  0  0  0  0  0  0  0  0
   10.4003  -17.2712   27.0525 C   0  0  2  0  0  0  0  0  0  0  0  0
    9.9639  -16.0471   26.4606 N   0  0  0  0  0  0  0  0  0  0  0  0
   10.9823  -17.1083   28.3986 C   0  0  0  0  0  0  0  0  0  0  0  0
   11.3611  -18.1398   28.9997 O   0  0  0  0  0  0  0  0  0  0  0  0
   11.1391  -15.8988   29.0432 O   0  0  0  0  0  0  0  0  0  0  0  0
  2  1  1  6
  2  3  1  0
  4  3  1  0
  5  2  1  0
  5  6  2  0
  7  8  1  0
  8  9  1  0
  9 11  1  0
  9 10  1  1
 11 12  1  6
 11 13  1  0
 12  5  1  0
 13 14  2  0
 16 15  1  6
 17 13  1  0
 17 16  1  0
 18 20  1  0
 18 16  1  0
 19 18  2  0
M  END
$$$$
