CIA.pdb
     RDKit          3D

 20 19  0  0  1  0  0  0  0  0999 V2000
    7.4275  -14.8827   20.2872 N   0  0  0  0  0  0  0  0  0  0  0  0
    6.9135  -15.4052   21.5160 C   0  0  1  0  0  0  0  0  0  0  0  0
    6.7069  -16.8961   21.3830 C   0  0  0  0  0  0  0  0  0  0  0  0
    5.2078  -17.1396   20.3824 S   0  0  0  0  0  0  0  0  0  0  0  0
    7.7774  -15.0704   22.6815 C   0  0  0  0  0  0  0  0  0  0  0  0
    9.0214  -15.0955   22.5062 O   0  0  0  0  0  0  0  0  0  0  0  0
    6.0052  -11.5770   26.4041 C   0  0  0  0  0  0  0  0  0  0  0  0
    6.9538  -12.3017   25.4405 C   0  0  0  0  0  0  0  0  0  0  0  0
    7.3908  -13.5762   26.0640 C   0  0  2  0  0  0  0  0  0  0  0  0
    8.2232  -13.2546   27.2878 C   0  0  0  0  0  0  0  0  0  0  0  0
    8.0927  -14.5305   25.1388 C   0  0  2  0  0  0  0  0  0  0  0  0
    7.2494  -14.7321   23.9538 N   0  0  0  0  0  0  0  0  0  0  0  0
    8.5090  -15.7951   25.7363 C   0  0  0  0  0  0  0  0  0  0  0  0
    7.6735  -16.5953   26.2229 O   0  0  0  0  0  0  0  0  0  0  0  0
   11.5451  -18.0227   25.6620 C   0  0  0  0  0  0  0  0  0  0  0  0
   10.2666  -17.4983   26.3298 C   0  0  2  0  0  0  0  0  0  0  0  0
    9.8846  -16.2218   25.8161 N   0  0  0  0  0  0  0  0  0  0  0  0
   10.5182  -17.5049   27.7837 C   0  0  0  0  0  0  0  0  0  0  0  0
   10.6003  -16.3996   28.3671 O   0  0  0  0  0  0  0  0  0  0  0  0
   10.6696  -18.6437   28.5474 O   0  0  0  0  0  0  0  0  0  0  0  0
  2  1  1  6
  2  3  1  0
  4  3  1  0
  5  2  1  0
  5  6  2  0
  7  8  1  0
  8  9  1  0
  9 11  1  0
  9 10  1  1
 11 12  1  6
 11 13  1  0
 12  5  1  0
 13 14  2  0
 16 15  1  6
 17 13  1  0
 17 16  1  0
 18 20  1  0
 18 16  1  0
 19 18  2  0
M  END
$$$$
