CIA.pdb
     RDKit          3D

 20 19  0  0  1  0  0  0  0  0999 V2000
    7.7667  -14.4162   20.0469 N   0  0  0  0  0  0  0  0  0  0  0  0
    7.1611  -15.0111   21.1986 C   0  0  1  0  0  0  0  0  0  0  0  0
    6.9519  -16.4872   20.9528 C   0  0  0  0  0  0  0  0  0  0  0  0
    5.3922  -16.6588   20.0331 S   0  0  0  0  0  0  0  0  0  0  0  0
    7.9418  -14.7648   22.4423 C   0  0  0  0  0  0  0  0  0  0  0  0
    9.1935  -14.7233   22.3414 O   0  0  0  0  0  0  0  0  0  0  0  0
    5.8836  -11.6201   26.2955 C   0  0  0  0  0  0  0  0  0  0  0  0
    6.9250  -12.2500   25.3614 C   0  0  0  0  0  0  0  0  0  0  0  0
    7.3126  -13.5782   25.8997 C   0  0  2  0  0  0  0  0  0  0  0  0
    8.0372  -13.3739   27.2139 C   0  0  0  0  0  0  0  0  0  0  0  0
    8.0938  -14.4460   24.9532 C   0  0  2  0  0  0  0  0  0  0  0  0
    7.3279  -14.5801   23.7076 N   0  0  0  0  0  0  0  0  0  0  0  0
    8.5086  -15.7409   25.4832 C   0  0  0  0  0  0  0  0  0  0  0  0
    7.6679  -16.6090   25.8218 O   0  0  0  0  0  0  0  0  0  0  0  0
   11.5310  -17.9310   25.4187 C   0  0  0  0  0  0  0  0  0  0  0  0
   10.2763  -17.4122   26.1344 C   0  0  2  0  0  0  0  0  0  0  0  0
    9.8885  -16.1229   25.6585 N   0  0  0  0  0  0  0  0  0  0  0  0
   10.5702  -17.4507   27.5798 C   0  0  0  0  0  0  0  0  0  0  0  0
   10.5873  -16.3634   28.2013 O   0  0  0  0  0  0  0  0  0  0  0  0
   10.8279  -18.6009   28.2966 O   0  0  0  0  0  0  0  0  0  0  0  0
  2  1  1  6
  2  3  1  0
  4  3  1  0
  5  2  1  0
  5  6  2  0
  7  8  1  0
  8  9  1  0
  9 11  1  0
  9 10  1  1
 11 12  1  6
 11 13  1  0
 12  5  1  0
 13 14  2  0
 16 15  1  6
 17 13  1  0
 17 16  1  0
 18 20  1  0
 18 16  1  0
 19 18  2  0
M  END
$$$$
