DNF.pdb
     RDKit          3D

 28 28  0  0  1  0  0  0  0  0999 V2000
   19.3667  -21.0639  -13.3280 N   0  0  0  0  0  0  0  0  0  0  0  0
   19.7467  -22.4581  -13.3611 C   0  0  1  0  0  0  0  0  0  0  0  0
   18.8798  -23.2434  -14.3235 C   0  0  0  0  0  0  0  0  0  0  0  0
   17.4681  -22.8690  -14.1091 C   0  0  0  0  0  0  0  0  0  0  0  0
   17.0989  -21.6728  -14.1533 O   0  0  0  0  0  0  0  0  0  0  0  0
   21.1776  -22.5566  -13.7054 C   0  0  0  0  0  0  0  0  0  0  0  0
   21.7102  -23.6877  -13.9729 O   0  0  0  0  0  0  0  0  0  0  0  0
   16.5258  -23.8556  -13.8531 O   0  0  0  0  0  0  0  0  0  0  0  0
   24.3132  -18.4085  -15.6256 N   0  0  0  0  0  0  0  0  0  0  0  0
   23.3621  -19.4327  -15.4479 C   0  0  0  0  0  0  0  0  0  0  0  0
   22.1484  -19.1648  -15.3495 O   0  0  0  0  0  0  0  0  0  0  0  0
   23.8046  -20.8364  -15.3775 C   0  0  0  0  0  0  0  0  0  0  0  0
   23.4493  -21.5281  -14.1042 C   0  0  2  0  0  0  0  0  0  0  0  0
   22.0448  -21.4307  -13.7631 N   0  0  0  0  0  0  0  0  0  0  0  0
   24.2847  -20.9573  -13.0279 C   0  0  0  0  0  0  0  0  0  0  0  0
   23.8939  -19.9549  -12.3995 O   0  0  0  0  0  0  0  0  0  0  0  0
   25.5260  -21.5436  -12.7073 N   0  0  0  0  0  0  0  0  0  0  0  0
   26.3990  -20.9278  -11.7045 C   0  0  1  0  0  0  0  0  0  0  0  0
   26.4366  -21.8916  -10.5454 C   0  0  0  0  0  0  0  0  0  0  0  0
   27.2658  -21.3204   -9.4728 C   0  0  0  0  0  0  0  0  0  0  0  0
   28.6102  -21.5609   -9.4257 C   0  0  0  0  0  0  0  0  0  0  0  0
   29.3797  -21.0103   -8.4046 C   0  0  0  0  0  0  0  0  0  0  0  0
   28.7760  -20.2158   -7.4339 C   0  0  0  0  0  0  0  0  0  0  0  0
   27.4293  -19.9716   -7.4761 C   0  0  0  0  0  0  0  0  0  0  0  0
   26.6866  -20.5226   -8.4901 C   0  0  0  0  0  0  0  0  0  0  0  0
   27.6888  -20.6400  -12.3153 C   0  0  0  0  0  0  0  0  0  0  0  0
   28.3134  -21.5517  -13.1404 O   0  0  0  0  0  0  0  0  0  0  0  0
   28.2757  -19.5571  -12.1123 O   0  0  0  0  0  0  0  0  0  0  0  0
  2  1  1  6
  2  3  1  0
  3  4  1  0
  4  8  1  0
  5  4  2  0
  6  2  1  0
  7  6  2  0
  9 10  1  0
 10 11  2  0
 10 12  1  0
 13 12  1  6
 13 15  1  0
 13 14  1  0
 14  6  1  0
 15 16  2  0
 17 18  1  0
 17 15  1  0
 18 19  1  1
 19 20  1  0
 20 25  2  0
 21 20  1  0
 21 22  2  0
 22 23  1  0
 23 24  2  0
 25 24  1  0
 26 27  1  0
 26 18  1  0
 28 26  2  0
M  END
$$$$
