DNF.pdb
     RDKit          3D

 28 28  0  0  1  0  0  0  0  0999 V2000
   16.3699  -10.9563  -12.4607 N   0  0  0  0  0  0  0  0  0  0  0  0
   16.3491   -9.9993  -13.5438 C   0  0  1  0  0  0  0  0  0  0  0  0
   15.0377  -10.0507  -14.3001 C   0  0  0  0  0  0  0  0  0  0  0  0
   14.8594  -11.4067  -14.8554 C   0  0  0  0  0  0  0  0  0  0  0  0
   15.8190  -12.0334  -15.3611 O   0  0  0  0  0  0  0  0  0  0  0  0
   16.6172   -8.6546  -13.0001 C   0  0  0  0  0  0  0  0  0  0  0  0
   16.7076   -7.6415  -13.7746 O   0  0  0  0  0  0  0  0  0  0  0  0
   13.6076  -12.0056  -14.8203 O   0  0  0  0  0  0  0  0  0  0  0  0
   16.1146   -4.4031   -9.5335 N   0  0  0  0  0  0  0  0  0  0  0  0
   16.7896   -5.5641   -9.1073 C   0  0  0  0  0  0  0  0  0  0  0  0
   17.6657   -5.5029   -8.2222 O   0  0  0  0  0  0  0  0  0  0  0  0
   16.4580   -6.8658   -9.7130 C   0  0  0  0  0  0  0  0  0  0  0  0
   17.0271   -7.0701  -11.0769 C   0  0  2  0  0  0  0  0  0  0  0  0
   16.7898   -8.3950  -11.6124 N   0  0  0  0  0  0  0  0  0  0  0  0
   18.4760   -6.7893  -11.0122 C   0  0  0  0  0  0  0  0  0  0  0  0
   19.1782   -7.3303  -10.1366 O   0  0  0  0  0  0  0  0  0  0  0  0
   19.0697   -5.9091  -11.9398 N   0  0  0  0  0  0  0  0  0  0  0  0
   20.5252   -5.7435  -11.9766 C   0  0  1  0  0  0  0  0  0  0  0  0
   21.0946   -7.1366  -12.0711 C   0  0  0  0  0  0  0  0  0  0  0  0
   21.3731   -7.4466  -13.4821 C   0  0  0  0  0  0  0  0  0  0  0  0
   22.0443   -6.5574  -14.2734 C   0  0  0  0  0  0  0  0  0  0  0  0
   22.3010   -6.8685  -15.6059 C   0  0  0  0  0  0  0  0  0  0  0  0
   21.8725   -8.0858  -16.1279 C   0  0  0  0  0  0  0  0  0  0  0  0
   21.1995   -8.9805  -15.3395 C   0  0  0  0  0  0  0  0  0  0  0  0
   20.9554   -8.6568  -14.0283 C   0  0  0  0  0  0  0  0  0  0  0  0
   20.8707   -4.8550  -13.0769 C   0  0  0  0  0  0  0  0  0  0  0  0
   22.0829   -4.1986  -13.1180 O   0  0  0  0  0  0  0  0  0  0  0  0
   20.0802   -4.6551  -14.0221 O   0  0  0  0  0  0  0  0  0  0  0  0
  2  1  1  1
  2  3  1  0
  3  4  1  0
  4  8  1  0
  5  4  2  0
  6  2  1  0
  7  6  2  0
  9 10  1  0
 10 11  2  0
 10 12  1  0
 13 12  1  1
 13 15  1  0
 13 14  1  0
 14  6  1  0
 15 16  2  0
 17 18  1  0
 17 15  1  0
 18 19  1  6
 19 20  1  0
 20 25  2  0
 21 20  1  0
 21 22  2  0
 22 23  1  0
 23 24  2  0
 25 24  1  0
 26 27  1  0
 26 18  1  0
 28 26  2  0
M  END
$$$$
