DNF.pdb
     RDKit          3D

 28 28  0  0  1  0  0  0  0  0999 V2000
   13.0782  -11.8865  -12.9328 N   0  0  0  0  0  0  0  0  0  0  0  0
   14.1691  -11.8469  -11.9853 C   0  0  1  0  0  0  0  0  0  0  0  0
   15.4604  -12.3335  -12.6101 C   0  0  0  0  0  0  0  0  0  0  0  0
   15.3496  -13.7826  -12.8686 C   0  0  0  0  0  0  0  0  0  0  0  0
   14.9795  -14.5763  -11.9727 O   0  0  0  0  0  0  0  0  0  0  0  0
   14.2966  -10.4750  -11.4587 C   0  0  0  0  0  0  0  0  0  0  0  0
   14.2131   -9.4646  -12.2376 O   0  0  0  0  0  0  0  0  0  0  0  0
   15.6595  -14.2830  -14.1256 O   0  0  0  0  0  0  0  0  0  0  0  0
   11.7721   -8.7624   -9.3498 N   0  0  0  0  0  0  0  0  0  0  0  0
   12.5021   -8.6818   -8.1474 C   0  0  0  0  0  0  0  0  0  0  0  0
   11.9157   -8.5797   -7.0518 O   0  0  0  0  0  0  0  0  0  0  0  0
   13.9747   -8.7185   -8.1829 C   0  0  0  0  0  0  0  0  0  0  0  0
   14.5522   -8.8374   -9.5535 C   0  0  2  0  0  0  0  0  0  0  0  0
   14.5159  -10.1849  -10.0838 N   0  0  0  0  0  0  0  0  0  0  0  0
   15.9409   -8.3359   -9.5072 C   0  0  0  0  0  0  0  0  0  0  0  0
   16.8078   -8.9573   -8.8630 O   0  0  0  0  0  0  0  0  0  0  0  0
   16.2910   -7.1538  -10.1908 N   0  0  0  0  0  0  0  0  0  0  0  0
   17.6782   -6.6814  -10.1908 C   0  0  1  0  0  0  0  0  0  0  0  0
   18.3654   -7.4258  -11.3076 C   0  0  0  0  0  0  0  0  0  0  0  0
   19.7197   -6.8796  -11.4864 C   0  0  0  0  0  0  0  0  0  0  0  0
   20.7836   -7.4171  -10.8182 C   0  0  0  0  0  0  0  0  0  0  0  0
   22.0586   -6.8888  -11.0013 C   0  0  0  0  0  0  0  0  0  0  0  0
   22.2452   -5.8135  -11.8655 C   0  0  0  0  0  0  0  0  0  0  0  0
   21.1826   -5.2709  -12.5376 C   0  0  0  0  0  0  0  0  0  0  0  0
   19.9331   -5.8047  -12.3447 C   0  0  0  0  0  0  0  0  0  0  0  0
   17.6820   -5.2309  -10.3162 C   0  0  0  0  0  0  0  0  0  0  0  0
   18.6099   -4.4542   -9.6546 O   0  0  0  0  0  0  0  0  0  0  0  0
   16.8436   -4.6390  -11.0268 O   0  0  0  0  0  0  0  0  0  0  0  0
  2  1  1  6
  2  3  1  0
  3  4  1  0
  4  8  1  0
  5  4  2  0
  6  2  1  0
  7  6  2  0
  9 10  1  0
 10 11  2  0
 10 12  1  0
 13 12  1  1
 13 15  1  0
 13 14  1  0
 14  6  1  0
 15 16  2  0
 17 18  1  0
 17 15  1  0
 18 19  1  6
 19 20  1  0
 20 25  2  0
 21 20  1  0
 21 22  2  0
 22 23  1  0
 23 24  2  0
 25 24  1  0
 26 27  1  0
 26 18  1  0
 28 26  2  0
M  END
$$$$
