DNF.pdb
     RDKit          3D

 28 28  0  0  1  0  0  0  0  0999 V2000
   16.9105   -6.7239  -17.4080 N   0  0  0  0  0  0  0  0  0  0  0  0
   17.5880   -6.1678  -16.2586 C   0  0  1  0  0  0  0  0  0  0  0  0
   19.0226   -6.6472  -16.1787 C   0  0  0  0  0  0  0  0  0  0  0  0
   19.0269   -8.1072  -15.9609 C   0  0  0  0  0  0  0  0  0  0  0  0
   18.2188   -8.6491  -15.1718 O   0  0  0  0  0  0  0  0  0  0  0  0
   17.5032   -4.6964  -16.3182 C   0  0  0  0  0  0  0  0  0  0  0  0
   17.9284   -4.0571  -17.3405 O   0  0  0  0  0  0  0  0  0  0  0  0
   19.9407   -8.9015  -16.6398 O   0  0  0  0  0  0  0  0  0  0  0  0
   16.2520    0.2544  -15.6454 N   0  0  0  0  0  0  0  0  0  0  0  0
   15.2460   -0.5407  -15.0616 C   0  0  0  0  0  0  0  0  0  0  0  0
   14.1542   -0.0411  -14.7252 O   0  0  0  0  0  0  0  0  0  0  0  0
   15.4846   -1.9786  -14.8455 C   0  0  0  0  0  0  0  0  0  0  0  0
   16.7947   -2.4676  -15.3655 C   0  0  2  0  0  0  0  0  0  0  0  0
   16.9571   -3.9040  -15.2710 N   0  0  0  0  0  0  0  0  0  0  0  0
   17.8667   -1.7749  -14.6216 C   0  0  0  0  0  0  0  0  0  0  0  0
   17.9783   -1.9377  -13.3914 O   0  0  0  0  0  0  0  0  0  0  0  0
   18.7668   -0.9278  -15.2995 N   0  0  0  0  0  0  0  0  0  0  0  0
   19.7122   -0.0982  -14.5477 C   0  0  1  0  0  0  0  0  0  0  0  0
   21.0856   -0.5524  -14.9735 C   0  0  0  0  0  0  0  0  0  0  0  0
   22.0840    0.4072  -14.4765 C   0  0  0  0  0  0  0  0  0  0  0  0
   22.5144    0.3593  -13.1805 C   0  0  0  0  0  0  0  0  0  0  0  0
   23.4615    1.2740  -12.7281 C   0  0  0  0  0  0  0  0  0  0  0  0
   23.9671    2.2353  -13.5989 C   0  0  0  0  0  0  0  0  0  0  0  0
   23.5392    2.2879  -14.8986 C   0  0  0  0  0  0  0  0  0  0  0  0
   22.6052    1.3782  -15.3269 C   0  0  0  0  0  0  0  0  0  0  0  0
   19.4147    1.3040  -14.8024 C   0  0  0  0  0  0  0  0  0  0  0  0
   18.9911    1.7359  -16.0418 O   0  0  0  0  0  0  0  0  0  0  0  0
   19.5341    2.1655  -13.9070 O   0  0  0  0  0  0  0  0  0  0  0  0
  2  1  1  6
  2  3  1  0
  3  4  1  0
  4  8  1  0
  5  4  2  0
  6  2  1  0
  7  6  2  0
  9 10  1  0
 10 11  2  0
 10 12  1  0
 13 12  1  1
 13 15  1  0
 13 14  1  0
 14  6  1  0
 15 16  2  0
 17 18  1  0
 17 15  1  0
 18 19  1  6
 19 20  1  0
 20 25  2  0
 21 20  1  0
 21 22  2  0
 22 23  1  0
 23 24  2  0
 25 24  1  0
 26 27  1  0
 26 18  1  0
 28 26  2  0
M  END
$$$$
