DNF.pdb
     RDKit          3D

 28 28  0  0  1  0  0  0  0  0999 V2000
   17.2768  -12.2721  -19.2320 N   0  0  0  0  0  0  0  0  0  0  0  0
   18.0434  -12.0852  -18.0208 C   0  0  1  0  0  0  0  0  0  0  0  0
   18.8479  -13.3228  -17.6807 C   0  0  0  0  0  0  0  0  0  0  0  0
   17.9181  -14.4263  -17.3693 C   0  0  0  0  0  0  0  0  0  0  0  0
   18.0290  -15.5452  -17.9218 O   0  0  0  0  0  0  0  0  0  0  0  0
   18.9032  -10.8970  -18.1767 C   0  0  0  0  0  0  0  0  0  0  0  0
   19.5769  -10.7125  -19.2476 O   0  0  0  0  0  0  0  0  0  0  0  0
   16.8990  -14.2282  -16.4480 O   0  0  0  0  0  0  0  0  0  0  0  0
   20.3146   -5.4798  -17.8968 N   0  0  0  0  0  0  0  0  0  0  0  0
   20.3031   -6.3546  -16.7925 C   0  0  0  0  0  0  0  0  0  0  0  0
   21.0776   -6.1776  -15.8314 O   0  0  0  0  0  0  0  0  0  0  0  0
   19.3663   -7.4918  -16.7709 C   0  0  0  0  0  0  0  0  0  0  0  0
   19.9353   -8.7650  -17.3013 C   0  0  2  0  0  0  0  0  0  0  0  0
   19.0413   -9.8977  -17.1742 N   0  0  0  0  0  0  0  0  0  0  0  0
   21.2055   -9.0254  -16.5933 C   0  0  0  0  0  0  0  0  0  0  0  0
   21.2045   -9.6660  -15.5247 O   0  0  0  0  0  0  0  0  0  0  0  0
   22.4227   -8.5510  -17.1232 N   0  0  0  0  0  0  0  0  0  0  0  0
   23.6876   -8.8311  -16.4386 C   0  0  1  0  0  0  0  0  0  0  0  0
   24.3437   -9.9378  -17.2250 C   0  0  0  0  0  0  0  0  0  0  0  0
   25.6754  -10.2044  -16.6593 C   0  0  0  0  0  0  0  0  0  0  0  0
   25.8314  -11.0806  -15.6223 C   0  0  0  0  0  0  0  0  0  0  0  0
   27.0994  -11.3223  -15.1010 C   0  0  0  0  0  0  0  0  0  0  0  0
   28.2052  -10.6696  -15.6386 C   0  0  0  0  0  0  0  0  0  0  0  0
   28.0548   -9.7905  -16.6777 C   0  0  0  0  0  0  0  0  0  0  0  0
   26.7973   -9.5647  -17.1788 C   0  0  0  0  0  0  0  0  0  0  0  0
   24.4550   -7.5975  -16.3430 C   0  0  0  0  0  0  0  0  0  0  0  0
   25.1973   -7.2973  -15.2201 O   0  0  0  0  0  0  0  0  0  0  0  0
   24.4666   -6.7669  -17.2747 O   0  0  0  0  0  0  0  0  0  0  0  0
  2  1  1  6
  2  3  1  0
  3  4  1  0
  4  8  1  0
  5  4  2  0
  6  2  1  0
  7  6  2  0
  9 10  1  0
 10 11  2  0
 10 12  1  0
 13 12  1  1
 13 15  1  0
 13 14  1  0
 14  6  1  0
 15 16  2  0
 17 18  1  0
 17 15  1  0
 18 19  1  6
 19 20  1  0
 20 25  2  0
 21 20  1  0
 21 22  2  0
 22 23  1  0
 23 24  2  0
 25 24  1  0
 26 27  1  0
 26 18  1  0
 28 26  2  0
M  END
$$$$
