DNF.pdb
     RDKit          3D

 28 28  0  0  1  0  0  0  0  0999 V2000
   17.7813  -12.2239  -15.9490 N   0  0  0  0  0  0  0  0  0  0  0  0
   16.7927  -11.4291  -15.2558 C   0  0  1  0  0  0  0  0  0  0  0  0
   15.6417  -12.2839  -14.7669 C   0  0  0  0  0  0  0  0  0  0  0  0
   14.4695  -11.4178  -14.5326 C   0  0  0  0  0  0  0  0  0  0  0  0
   14.5151  -10.1867  -14.7597 O   0  0  0  0  0  0  0  0  0  0  0  0
   17.4488  -10.7067  -14.1497 C   0  0  0  0  0  0  0  0  0  0  0  0
   17.9057  -11.3376  -13.1359 O   0  0  0  0  0  0  0  0  0  0  0  0
   13.2907  -11.9707  -14.0515 O   0  0  0  0  0  0  0  0  0  0  0  0
   19.6751   -7.1931  -11.0844 N   0  0  0  0  0  0  0  0  0  0  0  0
   20.0542   -6.9641  -12.4219 C   0  0  0  0  0  0  0  0  0  0  0  0
   20.9943   -6.1915  -12.6942 O   0  0  0  0  0  0  0  0  0  0  0  0
   19.3332   -7.6440  -13.5123 C   0  0  0  0  0  0  0  0  0  0  0  0
   18.2731   -8.5874  -13.0515 C   0  0  2  0  0  0  0  0  0  0  0  0
   17.6159   -9.2945  -14.1316 N   0  0  0  0  0  0  0  0  0  0  0  0
   17.2900   -7.8170  -12.2627 C   0  0  0  0  0  0  0  0  0  0  0  0
   16.3938   -7.1722  -12.8403 O   0  0  0  0  0  0  0  0  0  0  0  0
   17.3613   -7.8081  -10.8548 N   0  0  0  0  0  0  0  0  0  0  0  0
   16.3904   -7.0419  -10.0689 C   0  0  1  0  0  0  0  0  0  0  0  0
   15.5613   -8.0633   -9.3319 C   0  0  0  0  0  0  0  0  0  0  0  0
   14.5367   -7.3674   -8.5380 C   0  0  0  0  0  0  0  0  0  0  0  0
   14.7625   -7.0529   -7.2275 C   0  0  0  0  0  0  0  0  0  0  0  0
   13.7823   -6.3922   -6.4921 C   0  0  0  0  0  0  0  0  0  0  0  0
   12.5741   -6.0539   -7.0953 C   0  0  0  0  0  0  0  0  0  0  0  0
   12.3424   -6.3666   -8.4082 C   0  0  0  0  0  0  0  0  0  0  0  0
   13.3202   -7.0180   -9.1175 C   0  0  0  0  0  0  0  0  0  0  0  0
   17.1079   -6.0976   -9.2243 C   0  0  0  0  0  0  0  0  0  0  0  0
   16.6609   -4.8046   -9.0502 O   0  0  0  0  0  0  0  0  0  0  0  0
   18.1548   -6.4255   -8.6288 O   0  0  0  0  0  0  0  0  0  0  0  0
  2  1  1  1
  2  3  1  0
  3  4  1  0
  4  8  1  0
  5  4  2  0
  6  2  1  0
  7  6  2  0
  9 10  1  0
 10 11  2  0
 10 12  1  0
 13 12  1  6
 13 15  1  0
 13 14  1  0
 14  6  1  0
 15 16  2  0
 17 18  1  0
 17 15  1  0
 18 19  1  1
 19 20  1  0
 20 25  2  0
 21 20  1  0
 21 22  2  0
 22 23  1  0
 23 24  2  0
 25 24  1  0
 26 27  1  0
 26 18  1  0
 28 26  2  0
M  END
$$$$
