DNF.pdb
     RDKit          3D

 28 28  0  0  1  0  0  0  0  0999 V2000
   18.6943  -12.2088  -17.8607 N   0  0  0  0  0  0  0  0  0  0  0  0
   19.0000  -11.4582  -16.6639 C   0  0  1  0  0  0  0  0  0  0  0  0
   20.3003  -11.9208  -16.0397 C   0  0  0  0  0  0  0  0  0  0  0  0
   20.1023  -13.2660  -15.4650 C   0  0  0  0  0  0  0  0  0  0  0  0
   19.0064  -13.6020  -14.9595 O   0  0  0  0  0  0  0  0  0  0  0  0
   19.0303  -10.0210  -16.9945 C   0  0  0  0  0  0  0  0  0  0  0  0
   19.4375   -9.6210  -18.1385 O   0  0  0  0  0  0  0  0  0  0  0  0
   21.1454  -14.1816  -15.4813 O   0  0  0  0  0  0  0  0  0  0  0  0
   18.5134   -4.9559  -17.3157 N   0  0  0  0  0  0  0  0  0  0  0  0
   17.2868   -5.6148  -17.1004 C   0  0  0  0  0  0  0  0  0  0  0  0
   16.2049   -5.0266  -17.2958 O   0  0  0  0  0  0  0  0  0  0  0  0
   17.2802   -7.0142  -16.6393 C   0  0  0  0  0  0  0  0  0  0  0  0
   18.6374   -7.5936  -16.4194 C   0  0  2  0  0  0  0  0  0  0  0  0
   18.6199   -9.0039  -16.0890 N   0  0  0  0  0  0  0  0  0  0  0  0
   19.2949   -6.8184  -15.3475 C   0  0  0  0  0  0  0  0  0  0  0  0
   18.8182   -6.8163  -14.1964 O   0  0  0  0  0  0  0  0  0  0  0  0
   20.4632   -6.0786  -15.6220 N   0  0  0  0  0  0  0  0  0  0  0  0
   21.1837   -5.4034  -14.5394 C   0  0  1  0  0  0  0  0  0  0  0  0
   22.6186   -5.8508  -14.6596 C   0  0  0  0  0  0  0  0  0  0  0  0
   22.6988   -7.2903  -14.3662 C   0  0  0  0  0  0  0  0  0  0  0  0
   23.2698   -8.1543  -15.2577 C   0  0  0  0  0  0  0  0  0  0  0  0
   23.3390   -9.5130  -14.9623 C   0  0  0  0  0  0  0  0  0  0  0  0
   22.8255   -9.9870  -13.7583 C   0  0  0  0  0  0  0  0  0  0  0  0
   22.2521   -9.1257  -12.8614 C   0  0  0  0  0  0  0  0  0  0  0  0
   22.1928   -7.7897  -13.1695 C   0  0  0  0  0  0  0  0  0  0  0  0
   20.9687   -3.9680  -14.6537 C   0  0  0  0  0  0  0  0  0  0  0  0
   21.4189   -3.0939  -13.6866 O   0  0  0  0  0  0  0  0  0  0  0  0
   20.3673   -3.4780  -15.6317 O   0  0  0  0  0  0  0  0  0  0  0  0
  2  1  1  6
  2  3  1  0
  3  4  1  0
  4  8  1  0
  5  4  2  0
  6  2  1  0
  7  6  2  0
  9 10  1  0
 10 11  2  0
 10 12  1  0
 13 12  1  1
 13 15  1  0
 13 14  1  0
 14  6  1  0
 15 16  2  0
 17 18  1  0
 17 15  1  0
 18 19  1  6
 19 20  1  0
 20 25  2  0
 21 20  1  0
 21 22  2  0
 22 23  1  0
 23 24  2  0
 25 24  1  0
 26 27  1  0
 26 18  1  0
 28 26  2  0
M  END
$$$$
