DNF.pdb
     RDKit          3D

 28 28  0  0  1  0  0  0  0  0999 V2000
   26.0096  -19.1942  -16.3695 N   0  0  0  0  0  0  0  0  0  0  0  0
   26.8918  -18.9079  -15.2608 C   0  0  1  0  0  0  0  0  0  0  0  0
   27.5942  -17.5785  -15.4440 C   0  0  0  0  0  0  0  0  0  0  0  0
   28.5932  -17.7107  -16.5227 C   0  0  0  0  0  0  0  0  0  0  0  0
   28.7116  -18.7755  -17.1720 O   0  0  0  0  0  0  0  0  0  0  0  0
   26.1153  -18.9506  -14.0074 C   0  0  0  0  0  0  0  0  0  0  0  0
   25.4228  -17.9436  -13.6318 O   0  0  0  0  0  0  0  0  0  0  0  0
   29.4207  -16.6393  -16.8294 O   0  0  0  0  0  0  0  0  0  0  0  0
   23.1551  -20.4041  -10.1095 N   0  0  0  0  0  0  0  0  0  0  0  0
   23.0144  -21.2152  -11.2529 C   0  0  0  0  0  0  0  0  0  0  0  0
   22.0305  -21.9704  -11.3810 O   0  0  0  0  0  0  0  0  0  0  0  0
   24.0399  -21.1720  -12.3100 C   0  0  0  0  0  0  0  0  0  0  0  0
   25.1540  -20.2157  -12.0447 C   0  0  2  0  0  0  0  0  0  0  0  0
   26.0817  -20.0844  -13.1494 N   0  0  0  0  0  0  0  0  0  0  0  0
   25.8589  -20.6650  -10.8267 C   0  0  0  0  0  0  0  0  0  0  0  0
   26.2501  -21.8441  -10.7310 O   0  0  0  0  0  0  0  0  0  0  0  0
   26.0919  -19.7628   -9.7688 N   0  0  0  0  0  0  0  0  0  0  0  0
   26.6915  -20.2295   -8.5159 C   0  0  1  0  0  0  0  0  0  0  0  0
   27.3439  -19.0190   -7.8971 C   0  0  0  0  0  0  0  0  0  0  0  0
   27.9594  -19.4066   -6.6182 C   0  0  0  0  0  0  0  0  0  0  0  0
   27.6476  -18.7450   -5.4639 C   0  0  0  0  0  0  0  0  0  0  0  0
   28.2381  -19.1269   -4.2624 C   0  0  0  0  0  0  0  0  0  0  0  0
   29.1453  -20.1826   -4.2413 C   0  0  0  0  0  0  0  0  0  0  0  0
   29.4615  -20.8490   -5.3950 C   0  0  0  0  0  0  0  0  0  0  0  0
   28.8696  -20.4587   -6.5701 C   0  0  0  0  0  0  0  0  0  0  0  0
   25.6596  -20.8613   -7.7062 C   0  0  0  0  0  0  0  0  0  0  0  0
   25.9486  -21.9192   -6.8699 O   0  0  0  0  0  0  0  0  0  0  0  0
   24.4755  -20.4678   -7.7418 O   0  0  0  0  0  0  0  0  0  0  0  0
  2  1  1  6
  2  3  1  0
  3  4  1  0
  4  8  1  0
  5  4  2  0
  6  2  1  0
  7  6  2  0
  9 10  1  0
 10 11  2  0
 10 12  1  0
 13 12  1  6
 13 15  1  0
 13 14  1  0
 14  6  1  0
 15 16  2  0
 17 18  1  0
 17 15  1  0
 18 19  1  1
 19 20  1  0
 20 25  2  0
 21 20  1  0
 21 22  2  0
 22 23  1  0
 23 24  2  0
 25 24  1  0
 26 27  1  0
 26 18  1  0
 28 26  2  0
M  END
$$$$
