DNF.pdb
     RDKit          3D

 28 28  0  0  1  0  0  0  0  0999 V2000
   25.5981  -20.7998  -17.4743 N   0  0  0  0  0  0  0  0  0  0  0  0
   25.4244  -19.8810  -16.3720 C   0  0  1  0  0  0  0  0  0  0  0  0
   23.9873  -19.4145  -16.2639 C   0  0  0  0  0  0  0  0  0  0  0  0
   23.6416  -18.6476  -17.4769 C   0  0  0  0  0  0  0  0  0  0  0  0
   24.3206  -17.6579  -17.8358 O   0  0  0  0  0  0  0  0  0  0  0  0
   25.8860  -20.5299  -15.1303 C   0  0  0  0  0  0  0  0  0  0  0  0
   25.2552  -21.5279  -14.6398 O   0  0  0  0  0  0  0  0  0  0  0  0
   22.5448  -19.0242  -18.2398 O   0  0  0  0  0  0  0  0  0  0  0  0
   29.7594  -20.2103  -10.4209 N   0  0  0  0  0  0  0  0  0  0  0  0
   29.2427  -20.9928  -11.4725 C   0  0  0  0  0  0  0  0  0  0  0  0
   29.1455  -22.2305  -11.3571 O   0  0  0  0  0  0  0  0  0  0  0  0
   28.8120  -20.3434  -12.7230 C   0  0  0  0  0  0  0  0  0  0  0  0
   27.4035  -20.6413  -13.1149 C   0  0  2  0  0  0  0  0  0  0  0  0
   27.0349  -20.1036  -14.4086 N   0  0  0  0  0  0  0  0  0  0  0  0
   26.5157  -20.1096  -12.0607 C   0  0  0  0  0  0  0  0  0  0  0  0
   26.3630  -18.8795  -11.9350 O   0  0  0  0  0  0  0  0  0  0  0  0
   25.8382  -20.9907  -11.1936 N   0  0  0  0  0  0  0  0  0  0  0  0
   25.0773  -20.4697  -10.0547 C   0  0  1  0  0  0  0  0  0  0  0  0
   23.7451  -21.1750  -10.0939 C   0  0  0  0  0  0  0  0  0  0  0  0
   22.7952  -20.3638  -10.8711 C   0  0  0  0  0  0  0  0  0  0  0  0
   22.6580  -20.5478  -12.2182 C   0  0  0  0  0  0  0  0  0  0  0  0
   21.7525  -19.7724  -12.9372 C   0  0  0  0  0  0  0  0  0  0  0  0
   20.9891  -18.8113  -12.2804 C   0  0  0  0  0  0  0  0  0  0  0  0
   21.1225  -18.6226  -10.9307 C   0  0  0  0  0  0  0  0  0  0  0  0
   22.0201  -19.3961  -10.2382 C   0  0  0  0  0  0  0  0  0  0  0  0
   25.8518  -20.6717   -8.8385 C   0  0  0  0  0  0  0  0  0  0  0  0
   25.7297  -19.8225   -7.7587 O   0  0  0  0  0  0  0  0  0  0  0  0
   26.6553  -21.6209   -8.7313 O   0  0  0  0  0  0  0  0  0  0  0  0
  2  1  1  6
  2  3  1  0
  3  4  1  0
  4  8  1  0
  5  4  2  0
  6  2  1  0
  7  6  2  0
  9 10  1  0
 10 11  2  0
 10 12  1  0
 13 12  1  1
 13 15  1  0
 13 14  1  0
 14  6  1  0
 15 16  2  0
 17 18  1  0
 17 15  1  0
 18 19  1  1
 19 20  1  0
 20 25  2  0
 21 20  1  0
 21 22  2  0
 22 23  1  0
 23 24  2  0
 25 24  1  0
 26 27  1  0
 26 18  1  0
 28 26  2  0
M  END
$$$$
