EHT.pdb
     RDKit          3D

 27 27  0  0  1  0  0  0  0  0999 V2000
   28.5954  -22.4332  -16.4382 N   0  0  0  0  0  0  0  0  0  0  0  0
   27.7562  -21.2547  -16.2489 C   0  0  1  0  0  0  0  0  0  0  0  0
   27.1172  -20.9821  -17.5828 C   0  0  0  0  0  0  0  0  0  0  0  0
   28.0132  -20.3463  -18.5934 C   0  0  0  0  0  0  0  0  0  0  0  0
   28.4937  -19.0003  -18.2434 C   0  0  0  0  0  0  0  0  0  0  0  0
   27.7029  -18.1363  -17.7881 O   0  0  0  0  0  0  0  0  0  0  0  0
   26.7359  -21.4970  -15.1989 C   0  0  0  0  0  0  0  0  0  0  0  0
   26.1040  -22.5745  -15.0972 O   0  0  0  0  0  0  0  0  0  0  0  0
   29.8119  -18.6252  -18.3950 O   0  0  0  0  0  0  0  0  0  0  0  0
   26.4054  -20.4996  -14.2225 N   0  0  0  0  0  0  0  0  0  0  0  0
   25.5410  -20.7248  -13.1039 C   0  0  1  0  0  0  0  0  0  0  0  0
   26.0003  -20.0651  -11.8302 C   0  0  0  0  0  0  0  0  0  0  0  0
   27.3306  -20.5613  -11.3911 C   0  0  0  0  0  0  0  0  0  0  0  0
   28.0669  -21.5402  -12.0300 C   0  0  0  0  0  0  0  0  0  0  0  0
   29.2218  -21.7510  -11.3737 N   0  0  0  0  0  0  0  0  0  0  0  0
   29.2304  -20.9176  -10.3234 C   0  0  0  0  0  0  0  0  0  0  0  0
   28.0809  -20.1966  -10.3364 N   0  0  0  0  0  0  0  0  0  0  0  0
   24.1454  -20.2613  -13.4397 C   0  0  0  0  0  0  0  0  0  0  0  0
   23.9397  -19.0783  -13.8168 O   0  0  0  0  0  0  0  0  0  0  0  0
   21.8473  -22.1314  -15.8098 C   0  0  0  0  0  0  0  0  0  0  0  0
   21.0482  -21.8610  -14.5431 C   0  0  1  0  0  0  0  0  0  0  0  0
   21.1251  -23.0289  -13.7746 O   0  0  0  0  0  0  0  0  0  0  0  0
   21.7413  -20.7701  -13.7615 C   0  0  2  0  0  0  0  0  0  0  0  0
   23.0591  -21.1750  -13.3265 N   0  0  0  0  0  0  0  0  0  0  0  0
   20.9371  -20.4748  -12.5284 C   0  0  0  0  0  0  0  0  0  0  0  0
   21.3991  -20.6829  -11.3789 O   0  0  0  0  0  0  0  0  0  0  0  0
   19.6603  -19.9619  -12.6823 O   0  0  0  0  0  0  0  0  0  0  0  0
  2  7  1  0
  2  1  1  6
  3  2  1  0
  4  3  1  0
  5  6  2  0
  5  4  1  0
  7  8  2  0
  9  5  1  0
 10 11  1  0
 10  7  1  0
 11 12  1  1
 12 13  1  0
 13 14  2  0
 14 15  1  0
 16 15  1  0
 17 13  1  0
 17 16  2  0
 18 19  2  0
 18 11  1  0
 21 20  1  6
 21 23  1  0
 22 21  1  0
 23 25  1  0
 23 24  1  1
 24 18  1  0
 25 27  1  0
 26 25  2  0
M  END
$$$$
