EHT.pdb
     RDKit          3D

 27 27  0  0  1  0  0  0  0  0999 V2000
   18.1986  -11.7466  -15.5200 N   0  0  0  0  0  0  0  0  0  0  0  0
   18.6548  -10.5808  -16.2695 C   0  0  1  0  0  0  0  0  0  0  0  0
   17.4593   -9.6776  -16.3995 C   0  0  0  0  0  0  0  0  0  0  0  0
   16.4234  -10.1380  -17.3708 C   0  0  0  0  0  0  0  0  0  0  0  0
   16.8857  -10.2699  -18.7615 C   0  0  0  0  0  0  0  0  0  0  0  0
   17.1067  -11.4030  -19.2580 O   0  0  0  0  0  0  0  0  0  0  0  0
   19.7709   -9.9038  -15.5636 C   0  0  0  0  0  0  0  0  0  0  0  0
   19.7866   -9.7276  -14.3229 O   0  0  0  0  0  0  0  0  0  0  0  0
   17.0966   -9.1771  -19.5754 O   0  0  0  0  0  0  0  0  0  0  0  0
   20.9160   -9.4026  -16.2672 N   0  0  0  0  0  0  0  0  0  0  0  0
   22.0449   -8.7916  -15.6337 C   0  0  1  0  0  0  0  0  0  0  0  0
   23.3722   -9.2032  -16.2143 C   0  0  0  0  0  0  0  0  0  0  0  0
   23.7129  -10.6126  -15.8884 C   0  0  0  0  0  0  0  0  0  0  0  0
   23.0281  -11.4117  -14.9933 C   0  0  0  0  0  0  0  0  0  0  0  0
   23.5962  -12.6293  -14.9336 N   0  0  0  0  0  0  0  0  0  0  0  0
   24.6356  -12.6159  -15.7805 C   0  0  0  0  0  0  0  0  0  0  0  0
   24.7041  -11.3901  -16.3586 N   0  0  0  0  0  0  0  0  0  0  0  0
   21.9094   -7.2905  -15.6933 C   0  0  0  0  0  0  0  0  0  0  0  0
   22.0588   -6.6796  -16.7835 O   0  0  0  0  0  0  0  0  0  0  0  0
   19.0648   -5.2785  -15.2282 C   0  0  0  0  0  0  0  0  0  0  0  0
   20.0286   -4.7257  -14.1881 C   0  0  1  0  0  0  0  0  0  0  0  0
   19.7229   -5.3756  -12.9861 O   0  0  0  0  0  0  0  0  0  0  0  0
   21.4320   -5.1345  -14.5682 C   0  0  2  0  0  0  0  0  0  0  0  0
   21.6103   -6.5676  -14.5035 N   0  0  0  0  0  0  0  0  0  0  0  0
   22.3941   -4.5221  -13.5916 C   0  0  0  0  0  0  0  0  0  0  0  0
   23.0634   -5.2304  -12.7988 O   0  0  0  0  0  0  0  0  0  0  0  0
   22.5327   -3.1446  -13.5798 O   0  0  0  0  0  0  0  0  0  0  0  0
  2  7  1  0
  2  1  1  1
  3  2  1  0
  4  3  1  0
  5  6  2  0
  5  4  1  0
  7  8  2  0
  9  5  1  0
 10 11  1  0
 10  7  1  0
 11 12  1  6
 12 13  1  0
 13 14  2  0
 14 15  1  0
 16 15  1  0
 17 13  1  0
 17 16  2  0
 18 19  2  0
 18 11  1  0
 21 20  1  6
 21 23  1  0
 22 21  1  0
 23 25  1  0
 23 24  1  1
 24 18  1  0
 25 27  1  0
 26 25  2  0
M  END
$$$$
