EHT.pdb
     RDKit          3D

 27 27  0  0  1  0  0  0  0  0999 V2000
   18.5491  -12.3153  -16.4110 N   0  0  0  0  0  0  0  0  0  0  0  0
   18.8453  -11.0160  -17.0052 C   0  0  1  0  0  0  0  0  0  0  0  0
   17.5348  -10.2809  -17.0692 C   0  0  0  0  0  0  0  0  0  0  0  0
   17.0201   -9.7931  -15.7556 C   0  0  0  0  0  0  0  0  0  0  0  0
   16.4805   -8.4243  -15.7654 C   0  0  0  0  0  0  0  0  0  0  0  0
   15.2785   -8.2119  -16.0645 O   0  0  0  0  0  0  0  0  0  0  0  0
   19.8412  -10.2778  -16.1895 C   0  0  0  0  0  0  0  0  0  0  0  0
   19.9442  -10.4166  -14.9483 O   0  0  0  0  0  0  0  0  0  0  0  0
   17.2521   -7.3250  -15.4533 O   0  0  0  0  0  0  0  0  0  0  0  0
   20.7598   -9.3472  -16.7792 N   0  0  0  0  0  0  0  0  0  0  0  0
   21.8096   -8.6896  -16.0620 C   0  0  1  0  0  0  0  0  0  0  0  0
   23.1876   -8.9575  -16.6076 C   0  0  0  0  0  0  0  0  0  0  0  0
   23.6383  -10.3467  -16.3323 C   0  0  0  0  0  0  0  0  0  0  0  0
   24.1456  -10.7963  -15.1284 C   0  0  0  0  0  0  0  0  0  0  0  0
   24.4561  -12.1019  -15.2175 N   0  0  0  0  0  0  0  0  0  0  0  0
   24.1526  -12.4901  -16.4645 C   0  0  0  0  0  0  0  0  0  0  0  0
   23.6565  -11.4223  -17.1390 N   0  0  0  0  0  0  0  0  0  0  0  0
   21.5543   -7.2032  -16.0383 C   0  0  0  0  0  0  0  0  0  0  0  0
   21.5407   -6.5413  -17.1087 O   0  0  0  0  0  0  0  0  0  0  0  0
   18.5440   -5.6087  -14.8329 C   0  0  0  0  0  0  0  0  0  0  0  0
   19.6569   -4.9227  -14.0535 C   0  0  1  0  0  0  0  0  0  0  0  0
   19.7438   -5.5898  -12.8255 O   0  0  0  0  0  0  0  0  0  0  0  0
   20.9627   -5.1538  -14.7764 C   0  0  2  0  0  0  0  0  0  0  0  0
   21.3281   -6.5524  -14.7921 N   0  0  0  0  0  0  0  0  0  0  0  0
   22.0522   -4.4176  -14.0516 C   0  0  0  0  0  0  0  0  0  0  0  0
   22.0926   -3.1622  -14.0293 O   0  0  0  0  0  0  0  0  0  0  0  0
   23.0247   -5.1563  -13.3993 O   0  0  0  0  0  0  0  0  0  0  0  0
  2  7  1  0
  2  1  1  1
  3  2  1  0
  4  3  1  0
  5  6  2  0
  5  4  1  0
  7  8  2  0
  9  5  1  0
 10 11  1  0
 10  7  1  0
 11 12  1  6
 12 13  1  0
 13 14  2  0
 14 15  1  0
 16 15  1  0
 17 13  1  0
 17 16  2  0
 18 19  2  0
 18 11  1  0
 21 20  1  6
 21 23  1  0
 22 21  1  0
 23 25  1  0
 23 24  1  1
 24 18  1  0
 25 27  1  0
 26 25  2  0
M  END
$$$$
