EHT.pdb
     RDKit          3D

 27 27  0  0  1  0  0  0  0  0999 V2000
   26.6718  -21.5036  -17.9366 N   0  0  0  0  0  0  0  0  0  0  0  0
   26.2864  -20.3493  -17.1316 C   0  0  1  0  0  0  0  0  0  0  0  0
   25.5280  -19.4351  -18.0541 C   0  0  0  0  0  0  0  0  0  0  0  0
   25.0662  -20.0642  -19.3266 C   0  0  0  0  0  0  0  0  0  0  0  0
   25.8772  -19.7442  -20.5119 C   0  0  0  0  0  0  0  0  0  0  0  0
   25.7392  -18.6446  -21.1044 O   0  0  0  0  0  0  0  0  0  0  0  0
   25.4531  -20.7664  -15.9767 C   0  0  0  0  0  0  0  0  0  0  0  0
   24.5068  -21.5819  -16.0772 O   0  0  0  0  0  0  0  0  0  0  0  0
   26.8120  -20.6188  -21.0240 O   0  0  0  0  0  0  0  0  0  0  0  0
   25.6823  -20.2551  -14.6563 N   0  0  0  0  0  0  0  0  0  0  0  0
   24.8957  -20.6024  -13.5118 C   0  0  1  0  0  0  0  0  0  0  0  0
   25.4762  -20.1352  -12.2029 C   0  0  0  0  0  0  0  0  0  0  0  0
   24.7034  -20.6374  -11.0369 C   0  0  0  0  0  0  0  0  0  0  0  0
   23.6469  -21.5251  -11.1034 C   0  0  0  0  0  0  0  0  0  0  0  0
   23.1726  -21.7710   -9.8691 N   0  0  0  0  0  0  0  0  0  0  0  0
   23.9147  -21.0501   -9.0162 C   0  0  0  0  0  0  0  0  0  0  0  0
   24.8432  -20.3628   -9.7281 N   0  0  0  0  0  0  0  0  0  0  0  0
   23.4992  -20.0549  -13.6709 C   0  0  0  0  0  0  0  0  0  0  0  0
   23.3152  -18.8272  -13.8777 O   0  0  0  0  0  0  0  0  0  0  0  0
   21.2512  -20.7046  -16.1847 C   0  0  0  0  0  0  0  0  0  0  0  0
   20.3717  -20.9833  -14.9743 C   0  0  1  0  0  0  0  0  0  0  0  0
   20.3428  -22.3750  -14.8231 O   0  0  0  0  0  0  0  0  0  0  0  0
   21.0489  -20.4185  -13.7481 C   0  0  2  0  0  0  0  0  0  0  0  0
   22.3872  -20.9402  -13.5849 N   0  0  0  0  0  0  0  0  0  0  0  0
   20.2631  -20.8223  -12.5340 C   0  0  0  0  0  0  0  0  0  0  0  0
   20.7302  -21.6245  -11.6876 O   0  0  0  0  0  0  0  0  0  0  0  0
   18.9976  -20.2877  -12.3610 O   0  0  0  0  0  0  0  0  0  0  0  0
  2  7  1  0
  2  1  1  6
  3  2  1  0
  4  3  1  0
  5  6  2  0
  5  4  1  0
  7  8  2  0
  9  5  1  0
 10 11  1  0
 10  7  1  0
 11 12  1  1
 12 13  1  0
 13 14  2  0
 14 15  1  0
 16 15  1  0
 17 13  1  0
 17 16  2  0
 18 19  2  0
 18 11  1  0
 21 20  1  6
 21 23  1  0
 22 21  1  0
 23 25  1  0
 23 24  1  1
 24 18  1  0
 25 27  1  0
 26 25  2  0
M  END
$$$$
