EHT.pdb
     RDKit          3D

 27 27  0  0  1  0  0  0  0  0999 V2000
   16.3487  -10.2058  -18.0742 N   0  0  0  0  0  0  0  0  0  0  0  0
   16.5011   -9.5554  -16.7770 C   0  0  1  0  0  0  0  0  0  0  0  0
   16.8618  -10.6460  -15.8062 C   0  0  0  0  0  0  0  0  0  0  0  0
   15.7669  -11.6175  -15.5132 C   0  0  0  0  0  0  0  0  0  0  0  0
   16.1165  -12.6848  -14.5627 C   0  0  0  0  0  0  0  0  0  0  0  0
   15.8395  -12.5715  -13.3422 O   0  0  0  0  0  0  0  0  0  0  0  0
   17.5523   -8.5093  -16.8317 C   0  0  0  0  0  0  0  0  0  0  0  0
   18.6216   -8.6494  -17.4700 O   0  0  0  0  0  0  0  0  0  0  0  0
   16.7549  -13.8422  -14.9554 O   0  0  0  0  0  0  0  0  0  0  0  0
   17.4074   -7.2566  -16.1482 N   0  0  0  0  0  0  0  0  0  0  0  0
   18.3752   -6.2026  -16.1877 C   0  0  1  0  0  0  0  0  0  0  0  0
   17.7801   -4.8280  -16.3446 C   0  0  0  0  0  0  0  0  0  0  0  0
   17.2031   -4.6190  -17.6982 C   0  0  0  0  0  0  0  0  0  0  0  0
   17.4164   -5.4373  -18.7907 C   0  0  0  0  0  0  0  0  0  0  0  0
   16.7491   -4.9646  -19.8585 N   0  0  0  0  0  0  0  0  0  0  0  0
   16.1126   -3.8540  -19.4593 C   0  0  0  0  0  0  0  0  0  0  0  0
   16.3902   -3.6466  -18.1474 N   0  0  0  0  0  0  0  0  0  0  0  0
   19.2254   -6.2475  -14.9426 C   0  0  0  0  0  0  0  0  0  0  0  0
   18.6901   -6.2263  -13.8037 O   0  0  0  0  0  0  0  0  0  0  0  0
   21.8669   -8.8672  -14.1907 C   0  0  0  0  0  0  0  0  0  0  0  0
   22.5304   -7.5039  -14.0583 C   0  0  1  0  0  0  0  0  0  0  0  0
   23.1479   -7.2476  -15.2886 O   0  0  0  0  0  0  0  0  0  0  0  0
   21.4531   -6.4608  -13.8777 C   0  0  2  0  0  0  0  0  0  0  0  0
   20.6425   -6.3141  -15.0656 N   0  0  0  0  0  0  0  0  0  0  0  0
   22.1054   -5.1336  -13.6177 C   0  0  0  0  0  0  0  0  0  0  0  0
   22.0544   -4.2020  -14.4590 O   0  0  0  0  0  0  0  0  0  0  0  0
   22.7732   -4.9519  -12.4185 O   0  0  0  0  0  0  0  0  0  0  0  0
  2  7  1  0
  2  1  1  6
  3  2  1  0
  4  3  1  0
  5  6  2  0
  5  4  1  0
  7  8  2  0
  9  5  1  0
 10 11  1  0
 10  7  1  0
 11 12  1  1
 12 13  1  0
 13 14  2  0
 14 15  1  0
 16 15  1  0
 17 13  1  0
 17 16  2  0
 18 19  2  0
 18 11  1  0
 21 20  1  6
 21 23  1  0
 22 21  1  0
 23 25  1  0
 23 24  1  6
 24 18  1  0
 25 27  1  0
 26 25  2  0
M  END
$$$$
