EHT.pdb
     RDKit          3D

 27 27  0  0  1  0  0  0  0  0999 V2000
   45.8611  -11.2961   -5.8830 N   0  0  0  0  0  0  0  0  0  0  0  0
   44.6929  -10.6518   -5.2920 C   0  0  1  0  0  0  0  0  0  0  0  0
   45.2050   -9.4177   -4.6016 C   0  0  0  0  0  0  0  0  0  0  0  0
   45.7084   -9.6345   -3.2130 C   0  0  0  0  0  0  0  0  0  0  0  0
   44.6848   -9.5607   -2.1587 C   0  0  0  0  0  0  0  0  0  0  0  0
   44.1206   -8.4705   -1.8892 O   0  0  0  0  0  0  0  0  0  0  0  0
   43.6931  -10.3136   -6.3351 C   0  0  0  0  0  0  0  0  0  0  0  0
   44.0089   -9.9979   -7.5061 O   0  0  0  0  0  0  0  0  0  0  0  0
   44.2999  -10.6633   -1.4257 O   0  0  0  0  0  0  0  0  0  0  0  0
   42.2846  -10.3270   -6.0639 N   0  0  0  0  0  0  0  0  0  0  0  0
   41.2792   -9.9618   -7.0151 C   0  0  1  0  0  0  0  0  0  0  0  0
   39.9547  -10.6465   -6.8021 C   0  0  0  0  0  0  0  0  0  0  0  0
   38.9237  -10.1836   -7.7673 C   0  0  0  0  0  0  0  0  0  0  0  0
   38.8435  -10.5662   -9.0924 C   0  0  0  0  0  0  0  0  0  0  0  0
   37.7953   -9.9654   -9.6834 N   0  0  0  0  0  0  0  0  0  0  0  0
   37.2062   -9.2039   -8.7502 C   0  0  0  0  0  0  0  0  0  0  0  0
   37.8935   -9.3383   -7.5880 N   0  0  0  0  0  0  0  0  0  0  0  0
   41.0846   -8.4661   -6.9988 C   0  0  0  0  0  0  0  0  0  0  0  0
   40.8513   -7.8651   -5.9179 O   0  0  0  0  0  0  0  0  0  0  0  0
   43.4343   -5.8202   -8.2932 C   0  0  0  0  0  0  0  0  0  0  0  0
   42.1029   -5.6139   -9.0010 C   0  0  1  0  0  0  0  0  0  0  0  0
   42.1996   -6.2909  -10.2228 O   0  0  0  0  0  0  0  0  0  0  0  0
   41.0215   -6.2989   -8.1994 C   0  0  2  0  0  0  0  0  0  0  0  0
   41.1672   -7.7370   -8.2192 N   0  0  0  0  0  0  0  0  0  0  0  0
   39.6894   -5.9784   -8.8137 C   0  0  0  0  0  0  0  0  0  0  0  0
   38.9848   -6.8680   -9.3526 O   0  0  0  0  0  0  0  0  0  0  0  0
   39.2449   -4.6677   -8.7753 O   0  0  0  0  0  0  0  0  0  0  0  0
  2  7  1  0
  2  1  1  6
  3  2  1  0
  4  3  1  0
  5  6  2  0
  5  4  1  0
  7  8  2  0
  9  5  1  0
 10 11  1  0
 10  7  1  0
 11 12  1  1
 12 13  1  0
 13 14  2  0
 14 15  1  0
 16 15  1  0
 17 13  1  0
 17 16  2  0
 18 19  2  0
 18 11  1  0
 21 20  1  1
 21 23  1  0
 22 21  1  0
 23 25  1  0
 23 24  1  6
 24 18  1  0
 25 27  1  0
 26 25  2  0
M  END
$$$$
