EHT.pdb
     RDKit          3D

 27 27  0  0  1  0  0  0  0  0999 V2000
   18.1315  -12.5333  -17.4772 N   0  0  0  0  0  0  0  0  0  0  0  0
   19.1587  -11.9185  -16.6431 C   0  0  1  0  0  0  0  0  0  0  0  0
   20.4633  -12.1480  -17.3554 C   0  0  0  0  0  0  0  0  0  0  0  0
   20.9237  -13.5676  -17.3870 C   0  0  0  0  0  0  0  0  0  0  0  0
   22.2528  -13.7803  -17.9815 C   0  0  0  0  0  0  0  0  0  0  0  0
   22.3678  -14.1504  -19.1769 O   0  0  0  0  0  0  0  0  0  0  0  0
   18.8904  -10.4708  -16.4572 C   0  0  0  0  0  0  0  0  0  0  0  0
   18.4017   -9.7466  -17.3557 O   0  0  0  0  0  0  0  0  0  0  0  0
   23.4183  -13.5885  -17.2701 O   0  0  0  0  0  0  0  0  0  0  0  0
   19.1776   -9.8022  -15.2211 N   0  0  0  0  0  0  0  0  0  0  0  0
   18.9319   -8.4122  -14.9830 C   0  0  1  0  0  0  0  0  0  0  0  0
   17.7233   -8.1401  -14.1264 C   0  0  0  0  0  0  0  0  0  0  0  0
   16.4563   -8.4955  -14.8172 C   0  0  0  0  0  0  0  0  0  0  0  0
   15.8121   -7.7108  -15.7543 C   0  0  0  0  0  0  0  0  0  0  0  0
   14.6946   -8.3257  -16.1810 N   0  0  0  0  0  0  0  0  0  0  0  0
   14.6187   -9.4936  -15.5267 C   0  0  0  0  0  0  0  0  0  0  0  0
   15.6896   -9.5938  -14.6993 N   0  0  0  0  0  0  0  0  0  0  0  0
   20.1500   -7.7819  -14.3552 C   0  0  0  0  0  0  0  0  0  0  0  0
   20.5797   -8.1915  -13.2454 O   0  0  0  0  0  0  0  0  0  0  0  0
   23.4769   -7.2401  -16.2742 C   0  0  0  0  0  0  0  0  0  0  0  0
   23.0491   -5.9268  -15.6350 C   0  0  1  0  0  0  0  0  0  0  0  0
   22.3428   -5.2241  -16.6188 O   0  0  0  0  0  0  0  0  0  0  0  0
   22.0748   -6.2295  -14.5213 C   0  0  2  0  0  0  0  0  0  0  0  0
   20.8122   -6.7167  -15.0295 N   0  0  0  0  0  0  0  0  0  0  0  0
   21.7919   -4.9608  -13.7698 C   0  0  0  0  0  0  0  0  0  0  0  0
   20.6530   -4.4308  -13.7834 O   0  0  0  0  0  0  0  0  0  0  0  0
   22.8219   -4.3772  -13.0519 O   0  0  0  0  0  0  0  0  0  0  0  0
  2  7  1  0
  2  1  1  6
  3  2  1  0
  4  3  1  0
  5  6  2  0
  5  4  1  0
  7  8  2  0
  9  5  1  0
 10 11  1  0
 10  7  1  0
 11 12  1  1
 12 13  1  0
 13 14  2  0
 14 15  1  0
 16 15  1  0
 17 13  1  0
 17 16  2  0
 18 19  2  0
 18 11  1  0
 21 20  1  6
 21 23  1  0
 22 21  1  0
 23 25  1  0
 23 24  1  6
 24 18  1  0
 25 27  1  0
 26 25  2  0
M  END
$$$$
