EHT.pdb
     RDKit          3D

 27 27  0  0  1  0  0  0  0  0999 V2000
   16.1709  -13.2303  -14.6432 N   0  0  0  0  0  0  0  0  0  0  0  0
   15.1755  -12.2686  -14.1813 C   0  0  1  0  0  0  0  0  0  0  0  0
   14.4108  -12.9577  -13.0849 C   0  0  0  0  0  0  0  0  0  0  0  0
   13.5906  -14.1248  -13.5249 C   0  0  0  0  0  0  0  0  0  0  0  0
   12.8138  -14.7793  -12.4605 C   0  0  0  0  0  0  0  0  0  0  0  0
   12.8520  -14.3466  -11.2813 O   0  0  0  0  0  0  0  0  0  0  0  0
   15.8277  -11.0292  -13.6906 C   0  0  0  0  0  0  0  0  0  0  0  0
   16.9142  -11.0313  -13.0661 O   0  0  0  0  0  0  0  0  0  0  0  0
   12.0194  -15.8810  -12.6981 O   0  0  0  0  0  0  0  0  0  0  0  0
   15.2470   -9.7350  -13.9035 N   0  0  0  0  0  0  0  0  0  0  0  0
   15.9066   -8.4994  -13.6083 C   0  0  1  0  0  0  0  0  0  0  0  0
   16.0656   -7.5888  -14.7974 C   0  0  0  0  0  0  0  0  0  0  0  0
   16.7230   -6.3058  -14.4360 C   0  0  0  0  0  0  0  0  0  0  0  0
   18.0867   -6.0852  -14.4216 C   0  0  0  0  0  0  0  0  0  0  0  0
   18.3453   -4.8187  -14.0502 N   0  0  0  0  0  0  0  0  0  0  0  0
   17.1618   -4.2290  -13.8276 C   0  0  0  0  0  0  0  0  0  0  0  0
   16.1787   -5.1343  -14.0624 N   0  0  0  0  0  0  0  0  0  0  0  0
   15.1635   -7.7766  -12.5126 C   0  0  0  0  0  0  0  0  0  0  0  0
   13.9065   -7.7157  -12.5273 O   0  0  0  0  0  0  0  0  0  0  0  0
   14.8908   -8.2674   -8.8205 C   0  0  0  0  0  0  0  0  0  0  0  0
   15.5495   -6.9142   -9.0473 C   0  0  1  0  0  0  0  0  0  0  0  0
   16.9306   -7.1447   -9.0398 O   0  0  0  0  0  0  0  0  0  0  0  0
   15.1888   -6.4304  -10.4319 C   0  0  2  0  0  0  0  0  0  0  0  0
   15.8970   -7.1618  -11.4582 N   0  0  0  0  0  0  0  0  0  0  0  0
   15.5875   -4.9883  -10.5580 C   0  0  0  0  0  0  0  0  0  0  0  0
   16.4578   -4.6186  -11.3851 O   0  0  0  0  0  0  0  0  0  0  0  0
   14.9710   -4.0604   -9.7359 O   0  0  0  0  0  0  0  0  0  0  0  0
  2  7  1  0
  2  1  1  1
  3  2  1  0
  4  3  1  0
  5  6  2  0
  5  4  1  0
  7  8  2  0
  9  5  1  0
 10 11  1  0
 10  7  1  0
 11 12  1  6
 12 13  1  0
 13 14  2  0
 14 15  1  0
 16 15  1  0
 17 13  1  0
 17 16  2  0
 18 19  2  0
 18 11  1  0
 21 20  1  6
 21 23  1  0
 22 21  1  0
 23 25  1  0
 23 24  1  6
 24 18  1  0
 25 27  1  0
 26 25  2  0
M  END
$$$$
