EHT.pdb
     RDKit          3D

 27 27  0  0  1  0  0  0  0  0999 V2000
   18.6513  -13.4867  -15.6831 N   0  0  0  0  0  0  0  0  0  0  0  0
   18.9099  -12.4320  -16.6577 C   0  0  1  0  0  0  0  0  0  0  0  0
   17.7128  -12.4058  -17.5677 C   0  0  0  0  0  0  0  0  0  0  0  0
   16.4015  -12.6342  -16.8921 C   0  0  0  0  0  0  0  0  0  0  0  0
   15.2296  -12.6207  -17.7817 C   0  0  0  0  0  0  0  0  0  0  0  0
   15.0714  -13.5191  -18.6461 O   0  0  0  0  0  0  0  0  0  0  0  0
   19.1052  -11.1255  -15.9815 C   0  0  0  0  0  0  0  0  0  0  0  0
   18.4648  -10.7835  -14.9600 O   0  0  0  0  0  0  0  0  0  0  0  0
   14.2635  -11.6392  -17.7141 O   0  0  0  0  0  0  0  0  0  0  0  0
   20.0514  -10.1604  -16.4619 N   0  0  0  0  0  0  0  0  0  0  0  0
   20.3168   -8.9074  -15.8227 C   0  0  1  0  0  0  0  0  0  0  0  0
   21.7695   -8.6795  -15.4973 C   0  0  0  0  0  0  0  0  0  0  0  0
   22.0037   -7.3448  -14.8870 C   0  0  0  0  0  0  0  0  0  0  0  0
   21.7039   -7.0009  -13.5829 C   0  0  0  0  0  0  0  0  0  0  0  0
   22.0415   -5.7192  -13.3546 N   0  0  0  0  0  0  0  0  0  0  0  0
   22.5532   -5.2417  -14.4983 C   0  0  0  0  0  0  0  0  0  0  0  0
   22.5289   -6.2309  -15.4269 N   0  0  0  0  0  0  0  0  0  0  0  0
   19.8079   -7.7798  -16.6857 C   0  0  0  0  0  0  0  0  0  0  0  0
   20.0962   -7.7335  -17.9099 O   0  0  0  0  0  0  0  0  0  0  0  0
   16.3728   -6.5135  -17.5900 C   0  0  0  0  0  0  0  0  0  0  0  0
   17.0831   -5.4133  -16.8145 C   0  0  1  0  0  0  0  0  0  0  0  0
   16.7262   -5.5873  -15.4718 O   0  0  0  0  0  0  0  0  0  0  0  0
   18.5728   -5.6429  -16.9103 C   0  0  2  0  0  0  0  0  0  0  0  0
   18.9966   -6.7648  -16.1031 N   0  0  0  0  0  0  0  0  0  0  0  0
   19.2828   -4.4268  -16.3891 C   0  0  0  0  0  0  0  0  0  0  0  0
   19.9256   -4.4549  -15.3101 O   0  0  0  0  0  0  0  0  0  0  0  0
   19.2160   -3.2581  -17.1285 O   0  0  0  0  0  0  0  0  0  0  0  0
  2  7  1  0
  2  1  1  1
  3  2  1  0
  4  3  1  0
  5  6  2  0
  5  4  1  0
  7  8  2  0
  9  5  1  0
 10 11  1  0
 10  7  1  0
 11 12  1  6
 12 13  1  0
 13 14  2  0
 14 15  1  0
 16 15  1  0
 17 13  1  0
 17 16  2  0
 18 19  2  0
 18 11  1  0
 21 20  1  6
 21 23  1  0
 22 21  1  0
 23 25  1  0
 23 24  1  1
 24 18  1  0
 25 27  1  0
 26 25  2  0
M  END
$$$$
