EHT.pdb
     RDKit          3D

 27 27  0  0  1  0  0  0  0  0999 V2000
   22.4158  -12.6877  -19.6885 N   0  0  0  0  0  0  0  0  0  0  0  0
   21.8572  -11.4062  -20.1064 C   0  0  1  0  0  0  0  0  0  0  0  0
   20.6774  -11.7333  -20.9799 C   0  0  0  0  0  0  0  0  0  0  0  0
   19.9211  -12.9586  -20.5860 C   0  0  0  0  0  0  0  0  0  0  0  0
   18.4842  -12.7549  -20.3435 C   0  0  0  0  0  0  0  0  0  0  0  0
   17.9287  -11.6726  -20.6586 O   0  0  0  0  0  0  0  0  0  0  0  0
   21.4523  -10.5983  -18.9293 C   0  0  0  0  0  0  0  0  0  0  0  0
   21.0704  -11.1086  -17.8503 O   0  0  0  0  0  0  0  0  0  0  0  0
   17.6888  -13.7231  -19.7681 O   0  0  0  0  0  0  0  0  0  0  0  0
   21.4732   -9.1643  -18.9542 N   0  0  0  0  0  0  0  0  0  0  0  0
   21.2298   -8.3367  -17.8119 C   0  0  1  0  0  0  0  0  0  0  0  0
   22.1930   -8.5594  -16.6757 C   0  0  0  0  0  0  0  0  0  0  0  0
   21.9157   -7.6631  -15.5230 C   0  0  0  0  0  0  0  0  0  0  0  0
   20.9654   -7.8913  -14.5465 C   0  0  0  0  0  0  0  0  0  0  0  0
   20.9736   -6.8874  -13.6513 N   0  0  0  0  0  0  0  0  0  0  0  0
   21.9184   -6.0217  -14.0460 C   0  0  0  0  0  0  0  0  0  0  0  0
   22.4885   -6.4952  -15.1826 N   0  0  0  0  0  0  0  0  0  0  0  0
   21.2567   -6.8853  -18.2218 C   0  0  0  0  0  0  0  0  0  0  0  0
   22.2344   -6.4224  -18.8651 O   0  0  0  0  0  0  0  0  0  0  0  0
   18.3998   -4.8271  -19.9474 C   0  0  0  0  0  0  0  0  0  0  0  0
   18.8167   -4.1492  -18.6501 C   0  0  1  0  0  0  0  0  0  0  0  0
   17.9261   -4.6006  -17.6684 O   0  0  0  0  0  0  0  0  0  0  0  0
   20.1893   -4.6490  -18.2664 C   0  0  2  0  0  0  0  0  0  0  0  0
   20.1644   -6.0403  -17.8745 N   0  0  0  0  0  0  0  0  0  0  0  0
   20.6759   -3.8625  -17.0836 C   0  0  0  0  0  0  0  0  0  0  0  0
   20.9650   -2.6438  -17.1807 O   0  0  0  0  0  0  0  0  0  0  0  0
   20.8020   -4.5123  -15.8676 O   0  0  0  0  0  0  0  0  0  0  0  0
  2  7  1  0
  2  1  1  1
  3  2  1  0
  4  3  1  0
  5  6  2  0
  5  4  1  0
  7  8  2  0
  9  5  1  0
 10 11  1  0
 10  7  1  0
 11 12  1  1
 12 13  1  0
 13 14  2  0
 14 15  1  0
 16 15  1  0
 17 13  1  0
 17 16  2  0
 18 19  2  0
 18 11  1  0
 21 20  1  6
 21 23  1  0
 22 21  1  0
 23 25  1  0
 23 24  1  1
 24 18  1  0
 25 27  1  0
 26 25  2  0
M  END
$$$$
