EHT.pdb
     RDKit          3D

 27 27  0  0  1  0  0  0  0  0999 V2000
   15.2488  -10.6817  -15.4043 N   0  0  0  0  0  0  0  0  0  0  0  0
   16.1135  -10.7357  -14.2303 C   0  0  1  0  0  0  0  0  0  0  0  0
   17.2757  -11.6111  -14.6113 C   0  0  0  0  0  0  0  0  0  0  0  0
   17.3778  -11.9260  -16.0669 C   0  0  0  0  0  0  0  0  0  0  0  0
   18.5580  -12.7147  -16.4541 C   0  0  0  0  0  0  0  0  0  0  0  0
   19.4319  -13.0191  -15.6038 O   0  0  0  0  0  0  0  0  0  0  0  0
   16.5636   -9.3755  -13.8437 C   0  0  0  0  0  0  0  0  0  0  0  0
   16.4703   -8.3841  -14.6045 O   0  0  0  0  0  0  0  0  0  0  0  0
   18.7619  -13.1514  -17.7460 O   0  0  0  0  0  0  0  0  0  0  0  0
   17.1412   -9.1080  -12.5583 N   0  0  0  0  0  0  0  0  0  0  0  0
   17.5488   -7.8095  -12.1145 C   0  0  1  0  0  0  0  0  0  0  0  0
   17.2422   -7.5312  -10.6665 C   0  0  0  0  0  0  0  0  0  0  0  0
   17.7276   -6.1931  -10.2387 C   0  0  0  0  0  0  0  0  0  0  0  0
   18.9102   -5.9516   -9.5666 C   0  0  0  0  0  0  0  0  0  0  0  0
   19.0464   -4.6344   -9.3314 N   0  0  0  0  0  0  0  0  0  0  0  0
   17.9641   -4.0331   -9.8460 C   0  0  0  0  0  0  0  0  0  0  0  0
   17.1651   -4.9820  -10.3961 N   0  0  0  0  0  0  0  0  0  0  0  0
   19.0254   -7.6286  -12.3636 C   0  0  0  0  0  0  0  0  0  0  0  0
   19.8530   -8.4734  -11.9331 O   0  0  0  0  0  0  0  0  0  0  0  0
   20.9287   -7.7243  -15.4318 C   0  0  0  0  0  0  0  0  0  0  0  0
   21.1445   -6.3237  -14.8768 C   0  0  1  0  0  0  0  0  0  0  0  0
   20.1540   -5.5177  -15.4514 O   0  0  0  0  0  0  0  0  0  0  0  0
   20.8852   -6.3511  -13.3892 C   0  0  2  0  0  0  0  0  0  0  0  0
   19.4775   -6.4912  -13.0915 N   0  0  0  0  0  0  0  0  0  0  0  0
   21.3374   -5.0478  -12.7965 C   0  0  0  0  0  0  0  0  0  0  0  0
   20.5181   -4.2299  -12.3088 O   0  0  0  0  0  0  0  0  0  0  0  0
   22.6916   -4.7592  -12.7968 O   0  0  0  0  0  0  0  0  0  0  0  0
  2  7  1  0
  2  1  1  6
  3  2  1  0
  4  3  1  0
  5  6  2  0
  5  4  1  0
  7  8  2  0
  9  5  1  0
 10 11  1  0
 10  7  1  0
 11 12  1  1
 12 13  1  0
 13 14  2  0
 14 15  1  0
 16 15  1  0
 17 13  1  0
 17 16  2  0
 18 19  2  0
 18 11  1  0
 21 20  1  6
 21 23  1  0
 22 21  1  0
 23 25  1  0
 23 24  1  6
 24 18  1  0
 25 27  1  0
 26 25  2  0
M  END
$$$$
