PGF.pdb
     RDKit          3D

 23 24  0  0  1  0  0  0  0  0999 V2000
    8.7522  -14.6976   18.8316 N   0  0  0  0  0  0  0  0  0  0  0  0
    7.4262  -14.4448   18.3438 C   0  0  0  0  0  0  0  0  0  0  0  0
    6.9361  -13.1713   18.9512 C   0  0  0  0  0  0  0  0  0  0  0  0
    8.2289  -12.5609   19.4982 C   0  0  0  0  0  0  0  0  0  0  0  0
    8.9369  -13.8331   19.9822 C   0  0  1  0  0  0  0  0  0  0  0  0
    8.1801  -14.4074   21.1136 C   0  0  0  0  0  0  0  0  0  0  0  0
    7.7016  -13.6854   22.0260 O   0  0  0  0  0  0  0  0  0  0  0  0
    7.9522  -15.8187   21.2293 N   0  0  0  0  0  0  0  0  0  0  0  0
    7.3035  -16.3556   22.4038 C   0  0  0  0  0  0  0  0  0  0  0  0
    8.1413  -16.1852   23.6192 C   0  0  0  0  0  0  0  0  0  0  0  0
    9.3668  -15.9438   23.4859 O   0  0  0  0  0  0  0  0  0  0  0  0
    7.6137  -16.2841   24.9204 N   0  0  0  0  0  0  0  0  0  0  0  0
    8.4659  -16.1466   26.1020 C   0  0  1  0  0  0  0  0  0  0  0  0
    7.6417  -15.4235   27.1344 C   0  0  0  0  0  0  0  0  0  0  0  0
    7.2303  -14.0739   26.7522 C   0  0  0  0  0  0  0  0  0  0  0  0
    8.1524  -13.0515   26.8473 C   0  0  0  0  0  0  0  0  0  0  0  0
    7.7996  -11.7509   26.4915 C   0  0  0  0  0  0  0  0  0  0  0  0
    6.5219  -11.4757   26.0404 C   0  0  0  0  0  0  0  0  0  0  0  0
    5.6195  -12.5246   25.9565 C   0  0  0  0  0  0  0  0  0  0  0  0
    5.9546  -13.8138   26.3046 C   0  0  0  0  0  0  0  0  0  0  0  0
    8.9845  -17.4314   26.5608 C   0  0  0  0  0  0  0  0  0  0  0  0
    9.8538  -17.4728   27.4609 O   0  0  0  0  0  0  0  0  0  0  0  0
    8.5432  -18.6259   26.0284 O   0  0  0  0  0  0  0  0  0  0  0  0
  1  2  1  0
  2  3  1  0
  4  3  1  0
  5  4  1  0
  5  1  1  0
  5  6  1  1
  6  7  2  0
  8  6  1  0
  9  8  1  0
  9 10  1  0
 10 12  1  0
 11 10  2  0
 12 13  1  0
 13 14  1  1
 14 15  1  0
 15 20  1  0
 16 15  2  0
 16 17  1  0
 17 18  2  0
 18 19  1  0
 20 19  2  0
 21 13  1  0
 21 23  1  0
 22 21  2  0
M  END
$$$$
