PGF.pdb
     RDKit          3D

 23 24  0  0  1  0  0  0  0  0999 V2000
    8.5282  -14.9529   18.2589 N   0  0  0  0  0  0  0  0  0  0  0  0
    7.1888  -14.5243   17.9714 C   0  0  0  0  0  0  0  0  0  0  0  0
    6.9572  -13.2154   18.6527 C   0  0  0  0  0  0  0  0  0  0  0  0
    8.3822  -12.7852   19.0096 C   0  0  0  0  0  0  0  0  0  0  0  0
    8.9848  -14.1477   19.3763 C   0  0  1  0  0  0  0  0  0  0  0  0
    8.3317  -14.6515   20.6019 C   0  0  0  0  0  0  0  0  0  0  0  0
    8.3201  -13.9854   21.6690 O   0  0  0  0  0  0  0  0  0  0  0  0
    7.6769  -15.9271   20.6375 N   0  0  0  0  0  0  0  0  0  0  0  0
    7.0244  -16.3750   21.8466 C   0  0  0  0  0  0  0  0  0  0  0  0
    7.9684  -16.4242   22.9932 C   0  0  0  0  0  0  0  0  0  0  0  0
    9.0890  -16.9700   22.8372 O   0  0  0  0  0  0  0  0  0  0  0  0
    7.6554  -15.8809   24.2534 N   0  0  0  0  0  0  0  0  0  0  0  0
    8.5830  -15.9831   25.3804 C   0  0  1  0  0  0  0  0  0  0  0  0
    9.0166  -14.5764   25.6985 C   0  0  0  0  0  0  0  0  0  0  0  0
    7.9211  -13.6351   25.9233 C   0  0  0  0  0  0  0  0  0  0  0  0
    7.7228  -13.1460   27.1983 C   0  0  0  0  0  0  0  0  0  0  0  0
    6.6898  -12.2459   27.4537 C   0  0  0  0  0  0  0  0  0  0  0  0
    5.8554  -11.8364   26.4300 C   0  0  0  0  0  0  0  0  0  0  0  0
    6.0812  -12.3462   25.1608 C   0  0  0  0  0  0  0  0  0  0  0  0
    7.0977  -13.2357   24.8947 C   0  0  0  0  0  0  0  0  0  0  0  0
    7.9958  -16.6865   26.5164 C   0  0  0  0  0  0  0  0  0  0  0  0
    8.6938  -16.9490   27.5220 O   0  0  0  0  0  0  0  0  0  0  0  0
    6.6730  -17.0807   26.5230 O   0  0  0  0  0  0  0  0  0  0  0  0
  1  2  1  0
  2  3  1  0
  4  3  1  0
  5  4  1  0
  5  1  1  0
  5  6  1  1
  6  7  2  0
  8  6  1  0
  9  8  1  0
  9 10  1  0
 10 12  1  0
 11 10  2  0
 12 13  1  0
 13 14  1  1
 14 15  1  0
 15 20  1  0
 16 15  2  0
 16 17  1  0
 17 18  2  0
 18 19  1  0
 20 19  2  0
 21 13  1  0
 21 23  1  0
 22 21  2  0
M  END
$$$$
