PGF.pdb
     RDKit          3D

 23 24  0  0  1  0  0  0  0  0999 V2000
    8.0359  -14.9661   18.8995 N   0  0  0  0  0  0  0  0  0  0  0  0
    6.8219  -14.2962   19.2705 C   0  0  0  0  0  0  0  0  0  0  0  0
    7.1786  -13.0731   20.0499 C   0  0  0  0  0  0  0  0  0  0  0  0
    8.6719  -12.9262   19.7468 C   0  0  0  0  0  0  0  0  0  0  0  0
    9.0841  -14.4040   19.7305 C   0  0  1  0  0  0  0  0  0  0  0  0
    8.9396  -14.9616   21.0909 C   0  0  0  0  0  0  0  0  0  0  0  0
    9.6958  -14.6136   22.0342 O   0  0  0  0  0  0  0  0  0  0  0  0
    7.9287  -15.9292   21.4058 N   0  0  0  0  0  0  0  0  0  0  0  0
    8.2987  -17.2132   21.9559 C   0  0  0  0  0  0  0  0  0  0  0  0
    8.7544  -17.0952   23.3654 C   0  0  0  0  0  0  0  0  0  0  0  0
    9.2791  -18.0917   23.9219 O   0  0  0  0  0  0  0  0  0  0  0  0
    8.6210  -15.9053   24.1054 N   0  0  0  0  0  0  0  0  0  0  0  0
    9.2805  -15.7338   25.4003 C   0  0  1  0  0  0  0  0  0  0  0  0
    9.5083  -14.2543   25.5648 C   0  0  0  0  0  0  0  0  0  0  0  0
    8.2982  -13.4737   25.8155 C   0  0  0  0  0  0  0  0  0  0  0  0
    8.1025  -12.9464   27.0757 C   0  0  0  0  0  0  0  0  0  0  0  0
    6.9620  -12.1954   27.3547 C   0  0  0  0  0  0  0  0  0  0  0  0
    6.0176  -11.9733   26.3695 C   0  0  0  0  0  0  0  0  0  0  0  0
    6.2438  -12.5166   25.1144 C   0  0  0  0  0  0  0  0  0  0  0  0
    7.3658  -13.2602   24.8252 C   0  0  0  0  0  0  0  0  0  0  0  0
    8.5193  -16.3346   26.4911 C   0  0  0  0  0  0  0  0  0  0  0  0
    7.3262  -16.6703   26.3144 O   0  0  0  0  0  0  0  0  0  0  0  0
    9.0775  -16.5506   27.7349 O   0  0  0  0  0  0  0  0  0  0  0  0
  1  2  1  0
  2  3  1  0
  4  3  1  0
  5  4  1  0
  5  1  1  0
  5  6  1  1
  6  7  2  0
  8  6  1  0
  9  8  1  0
  9 10  1  0
 10 12  1  0
 11 10  2  0
 12 13  1  0
 13 14  1  1
 14 15  1  0
 15 20  1  0
 16 15  2  0
 16 17  1  0
 17 18  2  0
 18 19  1  0
 20 19  2  0
 21 13  1  0
 21 23  1  0
 22 21  2  0
M  END
$$$$
