PGF.pdb
     RDKit          3D

 23 24  0  0  1  0  0  0  0  0999 V2000
    8.8783  -14.5557   19.0981 N   0  0  0  0  0  0  0  0  0  0  0  0
    7.5254  -14.9770   19.3275 C   0  0  0  0  0  0  0  0  0  0  0  0
    6.8428  -13.9377   20.1551 C   0  0  0  0  0  0  0  0  0  0  0  0
    7.8035  -12.7521   20.0339 C   0  0  0  0  0  0  0  0  0  0  0  0
    9.1449  -13.4967   20.0535 C   0  0  1  0  0  0  0  0  0  0  0  0
    9.3359  -14.1145   21.3817 C   0  0  0  0  0  0  0  0  0  0  0  0
    9.4467  -13.4215   22.4258 O   0  0  0  0  0  0  0  0  0  0  0  0
    9.4049  -15.5374   21.5486 N   0  0  0  0  0  0  0  0  0  0  0  0
   10.3604  -16.1155   22.4657 C   0  0  0  0  0  0  0  0  0  0  0  0
    9.7820  -16.2878   23.8237 C   0  0  0  0  0  0  0  0  0  0  0  0
   10.5425  -16.5922   24.7760 O   0  0  0  0  0  0  0  0  0  0  0  0
    8.4091  -16.1227   24.0867 N   0  0  0  0  0  0  0  0  0  0  0  0
    7.8598  -16.3210   25.4283 C   0  0  1  0  0  0  0  0  0  0  0  0
    6.5720  -15.5416   25.4761 C   0  0  0  0  0  0  0  0  0  0  0  0
    6.7306  -14.1158   25.7565 C   0  0  0  0  0  0  0  0  0  0  0  0
    7.2945  -13.3117   24.7871 C   0  0  0  0  0  0  0  0  0  0  0  0
    7.4620  -11.9469   25.0154 C   0  0  0  0  0  0  0  0  0  0  0  0
    7.0638  -11.3888   26.2161 C   0  0  0  0  0  0  0  0  0  0  0  0
    6.5010  -12.2236   27.1689 C   0  0  0  0  0  0  0  0  0  0  0  0
    6.3297  -13.5731   26.9566 C   0  0  0  0  0  0  0  0  0  0  0  0
    7.7021  -17.7343   25.7567 C   0  0  0  0  0  0  0  0  0  0  0  0
    7.5683  -18.5805   24.8437 O   0  0  0  0  0  0  0  0  0  0  0  0
    7.6951  -18.1812   27.0627 O   0  0  0  0  0  0  0  0  0  0  0  0
  1  2  1  0
  2  3  1  0
  4  3  1  0
  5  4  1  0
  5  1  1  0
  5  6  1  1
  6  7  2  0
  8  6  1  0
  9  8  1  0
  9 10  1  0
 10 12  1  0
 11 10  2  0
 12 13  1  0
 13 14  1  6
 14 15  1  0
 15 20  1  0
 16 15  2  0
 16 17  1  0
 17 18  2  0
 18 19  1  0
 20 19  2  0
 21 13  1  0
 21 23  1  0
 22 21  2  0
M  END
$$$$
