PGF.pdb
     RDKit          3D

 23 24  0  0  1  0  0  0  0  0999 V2000
    8.5145  -14.6102   18.6206 N   0  0  0  0  0  0  0  0  0  0  0  0
    7.3411  -13.7996   18.4579 C   0  0  0  0  0  0  0  0  0  0  0  0
    7.3893  -12.6949   19.4619 C   0  0  0  0  0  0  0  0  0  0  0  0
    8.8493  -12.7434   19.9194 C   0  0  0  0  0  0  0  0  0  0  0  0
    9.0778  -14.2605   19.9113 C   0  0  1  0  0  0  0  0  0  0  0  0
    8.2424  -14.8812   20.9598 C   0  0  0  0  0  0  0  0  0  0  0  0
    7.2580  -14.2821   21.4646 O   0  0  0  0  0  0  0  0  0  0  0  0
    8.5114  -16.1997   21.4560 N   0  0  0  0  0  0  0  0  0  0  0  0
    7.8135  -16.6936   22.6211 C   0  0  0  0  0  0  0  0  0  0  0  0
    8.5308  -16.3500   23.8765 C   0  0  0  0  0  0  0  0  0  0  0  0
    9.7018  -15.9009   23.8061 O   0  0  0  0  0  0  0  0  0  0  0  0
    7.9473  -16.5086   25.1475 N   0  0  0  0  0  0  0  0  0  0  0  0
    8.6921  -16.2120   26.3716 C   0  0  1  0  0  0  0  0  0  0  0  0
    7.7336  -15.4941   27.2848 C   0  0  0  0  0  0  0  0  0  0  0  0
    7.3683  -14.1471   26.8505 C   0  0  0  0  0  0  0  0  0  0  0  0
    8.3023  -13.1386   26.9725 C   0  0  0  0  0  0  0  0  0  0  0  0
    7.9932  -11.8409   26.5688 C   0  0  0  0  0  0  0  0  0  0  0  0
    6.7470  -11.5547   26.0425 C   0  0  0  0  0  0  0  0  0  0  0  0
    5.8315  -12.5898   25.9333 C   0  0  0  0  0  0  0  0  0  0  0  0
    6.1236  -13.8759   26.3281 C   0  0  0  0  0  0  0  0  0  0  0  0
    9.2803  -17.4094   26.9636 C   0  0  0  0  0  0  0  0  0  0  0  0
   10.0421  -17.3123   27.9524 O   0  0  0  0  0  0  0  0  0  0  0  0
    9.0225  -18.6698   26.4634 O   0  0  0  0  0  0  0  0  0  0  0  0
  1  2  1  0
  2  3  1  0
  4  3  1  0
  5  4  1  0
  5  1  1  0
  5  6  1  1
  6  7  2  0
  8  6  1  0
  9  8  1  0
  9 10  1  0
 10 12  1  0
 11 10  2  0
 12 13  1  0
 13 14  1  1
 14 15  1  0
 15 20  1  0
 16 15  2  0
 16 17  1  0
 17 18  2  0
 18 19  1  0
 20 19  2  0
 21 13  1  0
 21 23  1  0
 22 21  2  0
M  END
$$$$
