PGF.pdb
     RDKit          3D

 23 24  0  0  1  0  0  0  0  0999 V2000
    7.7604  -16.6336   20.6215 N   0  0  0  0  0  0  0  0  0  0  0  0
    6.7441  -16.4575   21.6198 C   0  0  0  0  0  0  0  0  0  0  0  0
    6.4900  -14.9943   21.7796 C   0  0  0  0  0  0  0  0  0  0  0  0
    7.1626  -14.4159   20.5322 C   0  0  0  0  0  0  0  0  0  0  0  0
    8.3862  -15.3370   20.4413 C   0  0  1  0  0  0  0  0  0  0  0  0
    9.2668  -15.0875   21.6009 C   0  0  0  0  0  0  0  0  0  0  0  0
    9.5467  -13.9218   21.9825 O   0  0  0  0  0  0  0  0  0  0  0  0
    9.8481  -16.1627   22.3514 N   0  0  0  0  0  0  0  0  0  0  0  0
   10.9757  -15.9150   23.2206 C   0  0  0  0  0  0  0  0  0  0  0  0
   10.5985  -16.0271   24.6536 C   0  0  0  0  0  0  0  0  0  0  0  0
   11.4811  -15.8581   25.5313 O   0  0  0  0  0  0  0  0  0  0  0  0
    9.2851  -16.3166   25.0687 N   0  0  0  0  0  0  0  0  0  0  0  0
    8.9467  -16.4621   26.4849 C   0  0  1  0  0  0  0  0  0  0  0  0
    7.5348  -15.9601   26.6347 C   0  0  0  0  0  0  0  0  0  0  0  0
    7.3719  -14.5225   26.4268 C   0  0  0  0  0  0  0  0  0  0  0  0
    6.4176  -14.0898   25.5288 C   0  0  0  0  0  0  0  0  0  0  0  0
    6.2307  -12.7271   25.3031 C   0  0  0  0  0  0  0  0  0  0  0  0
    7.0010  -11.7984   25.9783 C   0  0  0  0  0  0  0  0  0  0  0  0
    7.9508  -12.2656   26.8735 C   0  0  0  0  0  0  0  0  0  0  0  0
    8.1459  -13.6084   27.1059 C   0  0  0  0  0  0  0  0  0  0  0  0
    9.1364  -17.8290   26.9599 C   0  0  0  0  0  0  0  0  0  0  0  0
    8.9877  -18.0989   28.1734 O   0  0  0  0  0  0  0  0  0  0  0  0
    9.4805  -18.8555   26.1036 O   0  0  0  0  0  0  0  0  0  0  0  0
  1  2  1  0
  2  3  1  0
  4  3  1  0
  5  4  1  0
  5  1  1  0
  5  6  1  1
  6  7  2  0
  8  6  1  0
  9  8  1  0
  9 10  1  0
 10 12  1  0
 11 10  2  0
 12 13  1  0
 13 14  1  6
 14 15  1  0
 15 20  1  0
 16 15  2  0
 16 17  1  0
 17 18  2  0
 18 19  1  0
 20 19  2  0
 21 13  1  0
 21 23  1  0
 22 21  2  0
M  END
$$$$
