PGF.pdb
     RDKit          3D

 23 24  0  0  1  0  0  0  0  0999 V2000
    8.4392  -14.3746   18.3821 N   0  0  0  0  0  0  0  0  0  0  0  0
    7.1667  -13.7106   18.3641 C   0  0  0  0  0  0  0  0  0  0  0  0
    7.1470  -12.7015   19.4652 C   0  0  0  0  0  0  0  0  0  0  0  0
    8.6295  -12.6019   19.8329 C   0  0  0  0  0  0  0  0  0  0  0  0
    9.0416  -14.0704   19.6665 C   0  0  1  0  0  0  0  0  0  0  0  0
    8.3619  -14.8833   20.6960 C   0  0  0  0  0  0  0  0  0  0  0  0
    7.1808  -14.6439   21.0570 O   0  0  0  0  0  0  0  0  0  0  0  0
    9.0148  -15.9879   21.3369 N   0  0  0  0  0  0  0  0  0  0  0  0
    8.3940  -16.6428   22.4656 C   0  0  0  0  0  0  0  0  0  0  0  0
    8.9846  -16.1936   23.7532 C   0  0  0  0  0  0  0  0  0  0  0  0
   10.1609  -15.7531   23.7635 O   0  0  0  0  0  0  0  0  0  0  0  0
    8.2748  -16.2423   24.9677 N   0  0  0  0  0  0  0  0  0  0  0  0
    8.9121  -15.8963   26.2386 C   0  0  1  0  0  0  0  0  0  0  0  0
    7.8191  -15.3635   27.1271 C   0  0  0  0  0  0  0  0  0  0  0  0
    7.3805  -14.0058   26.8094 C   0  0  0  0  0  0  0  0  0  0  0  0
    6.0454  -13.7914   26.5340 C   0  0  0  0  0  0  0  0  0  0  0  0
    5.5871  -12.5112   26.2276 C   0  0  0  0  0  0  0  0  0  0  0  0
    6.4682  -11.4460   26.1974 C   0  0  0  0  0  0  0  0  0  0  0  0
    7.8026  -11.6948   26.4787 C   0  0  0  0  0  0  0  0  0  0  0  0
    8.2686  -12.9541   26.7829 C   0  0  0  0  0  0  0  0  0  0  0  0
    9.6399  -17.0222   26.8155 C   0  0  0  0  0  0  0  0  0  0  0  0
   10.3827  -16.8480   27.8081 O   0  0  0  0  0  0  0  0  0  0  0  0
    9.5373  -18.2972   26.2966 O   0  0  0  0  0  0  0  0  0  0  0  0
  1  2  1  0
  2  3  1  0
  4  3  1  0
  5  4  1  0
  5  1  1  0
  5  6  1  1
  6  7  2  0
  8  6  1  0
  9  8  1  0
  9 10  1  0
 10 12  1  0
 11 10  2  0
 12 13  1  0
 13 14  1  1
 14 15  1  0
 15 20  1  0
 16 15  2  0
 16 17  1  0
 17 18  2  0
 18 19  1  0
 20 19  2  0
 21 13  1  0
 21 23  1  0
 22 21  2  0
M  END
$$$$
