QQC.pdb
     RDKit          3D

 25 24  0  0  1  0  0  0  0  0999 V2000
   11.5279  -18.6740   15.6677 N   0  0  0  0  0  0  0  0  0  0  0  0
   10.8778  -19.8706   16.0518 C   0  0  0  0  0  0  0  0  0  0  0  0
   10.8685  -20.8738   15.3291 O   0  0  0  0  0  0  0  0  0  0  0  0
   10.1857  -19.8891   17.3880 C   0  0  0  0  0  0  0  0  0  0  0  0
   10.3464  -18.5367   18.0060 C   0  0  0  0  0  0  0  0  0  0  0  0
   10.1535  -18.4906   19.4821 C   0  0  2  0  0  0  0  0  0  0  0  0
    8.7542  -18.9435   19.6925 N   0  0  0  0  0  0  0  0  0  0  0  0
   10.2595  -17.1731   20.1123 C   0  0  0  0  0  0  0  0  0  0  0  0
   11.4156  -16.6479   20.2948 O   0  0  0  0  0  0  0  0  0  0  0  0
    6.4157  -12.5932   19.3681 N   0  0  0  0  0  0  0  0  0  0  0  0
    7.3185  -13.2592   18.5044 C   0  0  0  0  0  0  0  0  0  0  0  0
    7.1908  -13.1106   17.2723 O   0  0  0  0  0  0  0  0  0  0  0  0
    8.3828  -14.1104   19.0444 C   0  0  0  0  0  0  0  0  0  0  0  0
    8.3199  -14.1792   20.5177 C   0  0  0  0  0  0  0  0  0  0  0  0
    9.4191  -15.0443   21.1635 C   0  0  2  0  0  0  0  0  0  0  0  0
    9.1974  -16.3540   20.5686 N   0  0  0  0  0  0  0  0  0  0  0  0
    9.3286  -15.0032   22.6193 C   0  0  0  0  0  0  0  0  0  0  0  0
    8.5024  -14.2403   23.1896 O   0  0  0  0  0  0  0  0  0  0  0  0
   10.1340  -15.7920   23.4806 N   0  0  0  0  0  0  0  0  0  0  0  0
   10.0431  -15.6622   24.9378 C   0  0  1  0  0  0  0  0  0  0  0  0
    8.6170  -16.0073   25.3354 C   0  0  0  0  0  0  0  0  0  0  0  0
    8.4083  -17.7866   25.1008 S   0  0  0  0  0  0  0  0  0  0  0  0
   11.0159  -16.5346   25.6143 C   0  0  0  0  0  0  0  0  0  0  0  0
   11.1532  -16.4973   26.8589 O   0  0  0  0  0  0  0  0  0  0  0  0
   11.8011  -17.4153   24.8960 O   0  0  0  0  0  0  0  0  0  0  0  0
  1  2  1  0
  2  4  1  0
  3  2  2  0
  4  5  1  0
  6  5  1  0
  6  8  1  0
  6  7  1  6
  8  9  2  0
 10 11  1  0
 11 12  2  0
 11 13  1  0
 13 14  1  0
 15 14  1  6
 15 17  1  0
 16 15  1  0
 16  8  1  0
 17 19  1  0
 17 18  2  0
 19 20  1  0
 20 23  1  0
 20 21  1  1
 22 21  1  0
 23 24  2  0
 23 25  1  0
M  END
$$$$
