QQC.pdb
     RDKit          3D

 25 24  0  0  1  0  0  0  0  0999 V2000
    7.8389  -17.8412   17.9461 N   0  0  0  0  0  0  0  0  0  0  0  0
    9.2460  -17.9301   18.0655 C   0  0  0  0  0  0  0  0  0  0  0  0
    9.9201  -18.6762   17.3459 O   0  0  0  0  0  0  0  0  0  0  0  0
    9.9115  -17.0762   19.1109 C   0  0  0  0  0  0  0  0  0  0  0  0
    8.8460  -16.2918   19.8080 C   0  0  0  0  0  0  0  0  0  0  0  0
    8.5860  -16.6950   21.2180 C   0  0  2  0  0  0  0  0  0  0  0  0
    7.1051  -16.7381   21.3296 N   0  0  0  0  0  0  0  0  0  0  0  0
    9.0509  -15.7725   22.2558 C   0  0  0  0  0  0  0  0  0  0  0  0
   10.1517  -15.1346   22.0913 O   0  0  0  0  0  0  0  0  0  0  0  0
    6.9973  -11.4085   26.1175 N   0  0  0  0  0  0  0  0  0  0  0  0
    6.3464  -12.6604   26.2339 C   0  0  0  0  0  0  0  0  0  0  0  0
    5.3154  -12.7384   26.9321 O   0  0  0  0  0  0  0  0  0  0  0  0
    6.8728  -13.8454   25.5503 C   0  0  0  0  0  0  0  0  0  0  0  0
    8.0410  -13.5079   24.7132 C   0  0  0  0  0  0  0  0  0  0  0  0
    9.0408  -14.6636   24.5171 C   0  0  2  0  0  0  0  0  0  0  0  0
    8.4103  -15.4706   23.4829 N   0  0  0  0  0  0  0  0  0  0  0  0
    9.2909  -15.3575   25.7761 C   0  0  0  0  0  0  0  0  0  0  0  0
    8.4772  -16.2193   26.2064 O   0  0  0  0  0  0  0  0  0  0  0  0
   10.4307  -15.1277   26.5887 N   0  0  0  0  0  0  0  0  0  0  0  0
   10.6699  -15.9120   27.8036 C   0  0  1  0  0  0  0  0  0  0  0  0
   12.1471  -16.2701   27.8283 C   0  0  0  0  0  0  0  0  0  0  0  0
   12.4685  -17.3282   26.3994 S   0  0  0  0  0  0  0  0  0  0  0  0
   10.2778  -15.1646   29.0089 C   0  0  0  0  0  0  0  0  0  0  0  0
    9.9119  -13.9691   28.9310 O   0  0  0  0  0  0  0  0  0  0  0  0
   10.3029  -15.7609   30.2547 O   0  0  0  0  0  0  0  0  0  0  0  0
  1  2  1  0
  2  4  1  0
  3  2  2  0
  4  5  1  0
  6  5  1  0
  6  8  1  0
  6  7  1  6
  8  9  2  0
 10 11  1  0
 11 12  2  0
 11 13  1  0
 13 14  1  0
 15 14  1  1
 15 17  1  0
 16 15  1  0
 16  8  1  0
 17 19  1  0
 17 18  2  0
 19 20  1  0
 20 23  1  0
 20 21  1  1
 22 21  1  0
 23 24  2  0
 23 25  1  0
M  END
$$$$
