QQC.pdb
     RDKit          3D

 25 24  0  0  1  0  0  0  0  0999 V2000
    8.6223  -13.8031   16.9859 N   0  0  0  0  0  0  0  0  0  0  0  0
    8.7519  -13.3428   18.3175 C   0  0  0  0  0  0  0  0  0  0  0  0
    9.8539  -13.2120   18.8627 O   0  0  0  0  0  0  0  0  0  0  0  0
    7.4889  -13.0107   19.0655 C   0  0  0  0  0  0  0  0  0  0  0  0
    7.6682  -13.4482   20.4844 C   0  0  0  0  0  0  0  0  0  0  0  0
    7.7643  -14.9211   20.6831 C   0  0  2  0  0  0  0  0  0  0  0  0
    6.4302  -15.4415   20.2872 N   0  0  0  0  0  0  0  0  0  0  0  0
    7.9956  -15.3799   22.0542 C   0  0  0  0  0  0  0  0  0  0  0  0
    7.0192  -15.4136   22.8855 O   0  0  0  0  0  0  0  0  0  0  0  0
   12.5029  -19.1884   23.6510 N   0  0  0  0  0  0  0  0  0  0  0  0
   11.8721  -19.0504   24.9110 C   0  0  0  0  0  0  0  0  0  0  0  0
   12.2869  -19.7346   25.8683 O   0  0  0  0  0  0  0  0  0  0  0  0
   10.7505  -18.1239   25.0902 C   0  0  0  0  0  0  0  0  0  0  0  0
   10.4472  -17.3995   23.8402 C   0  0  0  0  0  0  0  0  0  0  0  0
    9.3131  -16.3637   23.9620 C   0  0  2  0  0  0  0  0  0  0  0  0
    9.2200  -15.8198   22.6152 N   0  0  0  0  0  0  0  0  0  0  0  0
    9.6078  -15.3863   25.0045 C   0  0  0  0  0  0  0  0  0  0  0  0
   10.5278  -14.5383   24.8476 O   0  0  0  0  0  0  0  0  0  0  0  0
    8.9066  -15.3127   26.2355 N   0  0  0  0  0  0  0  0  0  0  0  0
    9.2217  -14.2836   27.2305 C   0  0  1  0  0  0  0  0  0  0  0  0
    7.9054  -13.6710   27.6812 C   0  0  0  0  0  0  0  0  0  0  0  0
    7.3996  -12.4883   26.4124 S   0  0  0  0  0  0  0  0  0  0  0  0
    9.9687  -14.8478   28.3657 C   0  0  0  0  0  0  0  0  0  0  0  0
   10.2235  -16.0731   28.4199 O   0  0  0  0  0  0  0  0  0  0  0  0
   10.4074  -14.0424   29.3987 O   0  0  0  0  0  0  0  0  0  0  0  0
  1  2  1  0
  2  4  1  0
  3  2  2  0
  4  5  1  0
  6  5  1  0
  6  8  1  0
  6  7  1  1
  8  9  2  0
 10 11  1  0
 11 12  2  0
 11 13  1  0
 13 14  1  0
 15 14  1  6
 15 17  1  0
 16 15  1  0
 16  8  1  0
 17 19  1  0
 17 18  2  0
 19 20  1  0
 20 23  1  0
 20 21  1  1
 22 21  1  0
 23 24  2  0
 23 25  1  0
M  END
$$$$
