QQC.pdb
     RDKit          3D

 25 24  0  0  1  0  0  0  0  0999 V2000
    4.3100  -19.4906   23.5459 N   0  0  0  0  0  0  0  0  0  0  0  0
    5.1114  -20.6563   23.5127 C   0  0  0  0  0  0  0  0  0  0  0  0
    4.6199  -21.7907   23.5008 O   0  0  0  0  0  0  0  0  0  0  0  0
    6.6051  -20.4739   23.4919 C   0  0  0  0  0  0  0  0  0  0  0  0
    6.8888  -19.0075   23.5671 C   0  0  0  0  0  0  0  0  0  0  0  0
    7.4829  -18.4159   22.3362 C   0  0  2  0  0  0  0  0  0  0  0  0
    8.5011  -19.4051   21.8976 N   0  0  0  0  0  0  0  0  0  0  0  0
    8.1883  -17.1432   22.4999 C   0  0  0  0  0  0  0  0  0  0  0  0
    9.3813  -17.1347   22.9715 O   0  0  0  0  0  0  0  0  0  0  0  0
    7.3743  -12.0743   19.1886 N   0  0  0  0  0  0  0  0  0  0  0  0
    7.7202  -13.4106   18.8733 C   0  0  0  0  0  0  0  0  0  0  0  0
    7.6473  -13.7853   17.6856 O   0  0  0  0  0  0  0  0  0  0  0  0
    8.1536  -14.3398   19.9209 C   0  0  0  0  0  0  0  0  0  0  0  0
    8.0572  -13.7235   21.2589 C   0  0  0  0  0  0  0  0  0  0  0  0
    8.4864  -14.6437   22.4177 C   0  0  2  0  0  0  0  0  0  0  0  0
    7.7045  -15.8492   22.1858 N   0  0  0  0  0  0  0  0  0  0  0  0
    8.2613  -13.9994   23.7075 C   0  0  0  0  0  0  0  0  0  0  0  0
    7.7874  -12.8325   23.7679 O   0  0  0  0  0  0  0  0  0  0  0  0
    8.5464  -14.6131   24.9543 N   0  0  0  0  0  0  0  0  0  0  0  0
    8.2923  -13.9190   26.2200 C   0  0  1  0  0  0  0  0  0  0  0  0
    6.8457  -13.4522   26.1982 C   0  0  0  0  0  0  0  0  0  0  0  0
    6.8350  -11.7097   26.6759 S   0  0  0  0  0  0  0  0  0  0  0  0
    8.5576  -14.7939   27.3728 C   0  0  0  0  0  0  0  0  0  0  0  0
    8.7876  -16.0147   27.2114 O   0  0  0  0  0  0  0  0  0  0  0  0
    8.5598  -14.2928   28.6601 O   0  0  0  0  0  0  0  0  0  0  0  0
  1  2  1  0
  2  4  1  0
  3  2  2  0
  4  5  1  0
  6  5  1  0
  6  8  1  0
  6  7  1  1
  8  9  2  0
 10 11  1  0
 11 12  2  0
 11 13  1  0
 13 14  1  0
 15 14  1  6
 15 17  1  0
 16 15  1  0
 16  8  1  0
 17 19  1  0
 17 18  2  0
 19 20  1  0
 20 23  1  0
 20 21  1  6
 22 21  1  0
 23 24  2  0
 23 25  1  0
M  END
$$$$
