QQC.pdb
     RDKit          3D

 25 24  0  0  1  0  0  0  0  0999 V2000
    9.7513  -14.3319   19.8264 N   0  0  0  0  0  0  0  0  0  0  0  0
    8.8393  -13.7323   18.9259 C   0  0  0  0  0  0  0  0  0  0  0  0
    9.0339  -13.7209   17.7050 O   0  0  0  0  0  0  0  0  0  0  0  0
    7.6039  -13.0977   19.5055 C   0  0  0  0  0  0  0  0  0  0  0  0
    7.5177  -13.4937   20.9451 C   0  0  0  0  0  0  0  0  0  0  0  0
    7.0830  -14.8973   21.1884 C   0  0  2  0  0  0  0  0  0  0  0  0
    5.7001  -14.9611   20.6489 N   0  0  0  0  0  0  0  0  0  0  0  0
    6.9996  -15.3203   22.5877 C   0  0  0  0  0  0  0  0  0  0  0  0
    6.3058  -14.6320   23.4187 O   0  0  0  0  0  0  0  0  0  0  0  0
    7.4012  -20.8694   25.1088 N   0  0  0  0  0  0  0  0  0  0  0  0
    7.2822  -20.0685   26.2702 C   0  0  0  0  0  0  0  0  0  0  0  0
    7.0861  -20.6281   27.3679 O   0  0  0  0  0  0  0  0  0  0  0  0
    7.3844  -18.6085   26.1876 C   0  0  0  0  0  0  0  0  0  0  0  0
    7.4880  -18.1558   24.7864 C   0  0  0  0  0  0  0  0  0  0  0  0
    7.6916  -16.6377   24.6197 C   0  0  2  0  0  0  0  0  0  0  0  0
    7.6129  -16.4528   23.1782 N   0  0  0  0  0  0  0  0  0  0  0  0
    8.9452  -16.2084   25.2305 C   0  0  0  0  0  0  0  0  0  0  0  0
    9.7521  -15.4778   24.5940 O   0  0  0  0  0  0  0  0  0  0  0  0
    9.3431  -16.5648   26.5448 N   0  0  0  0  0  0  0  0  0  0  0  0
    9.9648  -15.5875   27.4431 C   0  0  1  0  0  0  0  0  0  0  0  0
    8.9685  -14.4566   27.6416 C   0  0  0  0  0  0  0  0  0  0  0  0
    9.8217  -13.1383   28.5352 S   0  0  0  0  0  0  0  0  0  0  0  0
   10.3417  -16.2033   28.7252 C   0  0  0  0  0  0  0  0  0  0  0  0
    9.5714  -17.0052   29.3021 O   0  0  0  0  0  0  0  0  0  0  0  0
   11.5521  -15.9134   29.3245 O   0  0  0  0  0  0  0  0  0  0  0  0
  1  2  1  0
  2  4  1  0
  3  2  2  0
  4  5  1  0
  6  5  1  0
  6  8  1  0
  6  7  1  1
  8  9  2  0
 10 11  1  0
 11 12  2  0
 11 13  1  0
 13 14  1  0
 15 14  1  6
 15 17  1  0
 16 15  1  0
 16  8  1  0
 17 19  1  0
 17 18  2  0
 19 20  1  0
 20 23  1  0
 20 21  1  1
 22 21  1  0
 23 24  2  0
 23 25  1  0
M  END
$$$$
