QQC.pdb
     RDKit          3D

 25 24  0  0  1  0  0  0  0  0999 V2000
    8.9317  -13.5188   17.8315 N   0  0  0  0  0  0  0  0  0  0  0  0
    7.9942  -13.2626   18.8599 C   0  0  0  0  0  0  0  0  0  0  0  0
    7.2255  -12.2949   18.8213 O   0  0  0  0  0  0  0  0  0  0  0  0
    7.9577  -14.2173   20.0227 C   0  0  0  0  0  0  0  0  0  0  0  0
    9.0633  -15.2072   19.8375 C   0  0  0  0  0  0  0  0  0  0  0  0
    8.7939  -16.5644   20.3886 C   0  0  2  0  0  0  0  0  0  0  0  0
    7.3867  -16.8518   20.0080 N   0  0  0  0  0  0  0  0  0  0  0  0
    8.8633  -16.7019   21.8448 C   0  0  0  0  0  0  0  0  0  0  0  0
    7.8263  -16.4497   22.5564 O   0  0  0  0  0  0  0  0  0  0  0  0
   13.3479  -19.6136   24.9762 N   0  0  0  0  0  0  0  0  0  0  0  0
   12.4845  -19.2721   26.0451 C   0  0  0  0  0  0  0  0  0  0  0  0
   12.7585  -19.6798   27.1919 O   0  0  0  0  0  0  0  0  0  0  0  0
   11.2887  -18.4571   25.8116 C   0  0  0  0  0  0  0  0  0  0  0  0
   11.1636  -18.0822   24.3893 C   0  0  0  0  0  0  0  0  0  0  0  0
    9.9387  -17.2053   24.0659 C   0  0  2  0  0  0  0  0  0  0  0  0
    9.9832  -17.1024   22.6148 N   0  0  0  0  0  0  0  0  0  0  0  0
   10.0038  -15.9335   24.7782 C   0  0  0  0  0  0  0  0  0  0  0  0
   10.1468  -14.8512   24.1472 O   0  0  0  0  0  0  0  0  0  0  0  0
    9.9133  -15.8158   26.1890 N   0  0  0  0  0  0  0  0  0  0  0  0
    9.6651  -14.5215   26.8304 C   0  0  1  0  0  0  0  0  0  0  0  0
    8.3685  -13.9728   26.2570 C   0  0  0  0  0  0  0  0  0  0  0  0
    8.0332  -12.4043   27.0888 S   0  0  0  0  0  0  0  0  0  0  0  0
    9.5918  -14.6548   28.2939 C   0  0  0  0  0  0  0  0  0  0  0  0
    9.4278  -15.7760   28.8280 O   0  0  0  0  0  0  0  0  0  0  0  0
    9.7016  -13.5493   29.1149 O   0  0  0  0  0  0  0  0  0  0  0  0
  1  2  1  0
  2  4  1  0
  3  2  2  0
  4  5  1  0
  6  5  1  0
  6  8  1  0
  6  7  1  1
  8  9  2  0
 10 11  1  0
 11 12  2  0
 11 13  1  0
 13 14  1  0
 15 14  1  1
 15 17  1  0
 16 15  1  0
 16  8  1  0
 17 19  1  0
 17 18  2  0
 19 20  1  0
 20 23  1  0
 20 21  1  6
 22 21  1  0
 23 24  2  0
 23 25  1  0
M  END
$$$$
