QQC.pdb
     RDKit          3D

 25 24  0  0  1  0  0  0  0  0999 V2000
   10.1354  -21.1232   15.1016 N   0  0  0  0  0  0  0  0  0  0  0  0
    9.4437  -19.8918   15.0166 C   0  0  0  0  0  0  0  0  0  0  0  0
    9.0604  -19.4272   13.9368 O   0  0  0  0  0  0  0  0  0  0  0  0
    9.1826  -19.1498   16.2997 C   0  0  0  0  0  0  0  0  0  0  0  0
    9.8779  -19.8827   17.4024 C   0  0  0  0  0  0  0  0  0  0  0  0
    9.3541  -19.6098   18.7697 C   0  0  2  0  0  0  0  0  0  0  0  0
    7.8788  -19.5538   18.6026 N   0  0  0  0  0  0  0  0  0  0  0  0
    9.7488  -18.3371   19.3767 C   0  0  0  0  0  0  0  0  0  0  0  0
   10.9917  -18.0832   19.5673 O   0  0  0  0  0  0  0  0  0  0  0  0
    6.5125  -13.1347   19.3492 N   0  0  0  0  0  0  0  0  0  0  0  0
    7.5163  -13.4898   18.4160 C   0  0  0  0  0  0  0  0  0  0  0  0
    7.4376  -13.0472   17.2521 O   0  0  0  0  0  0  0  0  0  0  0  0
    8.6272  -14.3630   18.8059 C   0  0  0  0  0  0  0  0  0  0  0  0
    8.3622  -15.0244   20.0988 C   0  0  0  0  0  0  0  0  0  0  0  0
    9.3906  -16.1044   20.4857 C   0  0  2  0  0  0  0  0  0  0  0  0
    8.8949  -17.2893   19.8011 N   0  0  0  0  0  0  0  0  0  0  0  0
    9.4984  -16.2279   21.9356 C   0  0  0  0  0  0  0  0  0  0  0  0
    8.4915  -16.5340   22.6303 O   0  0  0  0  0  0  0  0  0  0  0  0
   10.7031  -16.0220   22.6558 N   0  0  0  0  0  0  0  0  0  0  0  0
   10.8364  -16.4447   24.0529 C   0  0  1  0  0  0  0  0  0  0  0  0
   10.4709  -17.9189   24.1172 C   0  0  0  0  0  0  0  0  0  0  0  0
   11.8980  -18.8538   23.5224 S   0  0  0  0  0  0  0  0  0  0  0  0
   12.1981  -16.2060   24.5567 C   0  0  0  0  0  0  0  0  0  0  0  0
   13.1212  -15.8756   23.7770 O   0  0  0  0  0  0  0  0  0  0  0  0
   12.4930  -16.3398   25.8996 O   0  0  0  0  0  0  0  0  0  0  0  0
  1  2  1  0
  2  4  1  0
  3  2  2  0
  4  5  1  0
  6  5  1  0
  6  8  1  0
  6  7  1  6
  8  9  2  0
 10 11  1  0
 11 12  2  0
 11 13  1  0
 13 14  1  0
 15 14  1  1
 15 17  1  0
 16 15  1  0
 16  8  1  0
 17 19  1  0
 17 18  2  0
 19 20  1  0
 20 23  1  0
 20 21  1  6
 22 21  1  0
 23 24  2  0
 23 25  1  0
M  END
$$$$
