QQC.pdb
     RDKit          3D

 25 24  0  0  1  0  0  0  0  0999 V2000
    7.5085  -13.4133   16.1541 N   0  0  0  0  0  0  0  0  0  0  0  0
    7.3448  -13.3014   17.5551 C   0  0  0  0  0  0  0  0  0  0  0  0
    6.2392  -13.1077   18.0735 O   0  0  0  0  0  0  0  0  0  0  0  0
    8.5755  -13.4270   18.4122 C   0  0  0  0  0  0  0  0  0  0  0  0
    8.1559  -13.9751   19.7389 C   0  0  0  0  0  0  0  0  0  0  0  0
    9.2636  -14.1933   20.7103 C   0  0  2  0  0  0  0  0  0  0  0  0
   10.0999  -15.2556   20.0941 N   0  0  0  0  0  0  0  0  0  0  0  0
    8.8810  -14.6863   22.0349 C   0  0  0  0  0  0  0  0  0  0  0  0
    8.2107  -13.9296   22.8246 O   0  0  0  0  0  0  0  0  0  0  0  0
    5.1193  -17.8175   22.6133 N   0  0  0  0  0  0  0  0  0  0  0  0
    6.2395  -17.8498   23.4786 C   0  0  0  0  0  0  0  0  0  0  0  0
    6.0902  -17.5012   24.6672 O   0  0  0  0  0  0  0  0  0  0  0  0
    7.5521  -18.2817   22.9896 C   0  0  0  0  0  0  0  0  0  0  0  0
    8.6337  -17.8373   23.8907 C   0  0  0  0  0  0  0  0  0  0  0  0
    8.8194  -16.3094   23.9598 C   0  0  2  0  0  0  0  0  0  0  0  0
    9.1640  -15.9588   22.5899 N   0  0  0  0  0  0  0  0  0  0  0  0
    9.8187  -15.9490   24.9602 C   0  0  0  0  0  0  0  0  0  0  0  0
   11.0335  -15.8360   24.6420 O   0  0  0  0  0  0  0  0  0  0  0  0
    9.5144  -15.7039   26.3239 N   0  0  0  0  0  0  0  0  0  0  0  0
   10.5498  -15.2784   27.2701 C   0  0  1  0  0  0  0  0  0  0  0  0
   10.3762  -13.7842   27.4900 C   0  0  0  0  0  0  0  0  0  0  0  0
    8.6492  -13.5036   27.9411 S   0  0  0  0  0  0  0  0  0  0  0  0
   10.4564  -16.0225   28.5360 C   0  0  0  0  0  0  0  0  0  0  0  0
    9.5638  -16.8844   28.7085 O   0  0  0  0  0  0  0  0  0  0  0  0
   11.3487  -15.7904   29.5647 O   0  0  0  0  0  0  0  0  0  0  0  0
  1  2  1  0
  2  4  1  0
  3  2  2  0
  4  5  1  0
  6  5  1  0
  6  8  1  0
  6  7  1  6
  8  9  2  0
 10 11  1  0
 11 12  2  0
 11 13  1  0
 13 14  1  0
 15 14  1  6
 15 17  1  0
 16 15  1  0
 16  8  1  0
 17 19  1  0
 17 18  2  0
 19 20  1  0
 20 23  1  0
 20 21  1  1
 22 21  1  0
 23 24  2  0
 23 25  1  0
M  END
$$$$
