ISH.pdb
     RDKit          3D

 25 25  0  0  1  0  0  0  0  0999 V2000
   28.7929  -17.7832  -17.1795 C   0  0  0  0  0  0  0  0  0  0  0  0
   29.1241  -18.9302  -16.2463 C   0  0  0  0  0  0  0  0  0  0  0  0
   27.8602  -19.4030  -15.6117 C   0  0  2  0  0  0  0  0  0  0  0  0
   27.1484  -18.2744  -14.8978 C   0  0  0  0  0  0  0  0  0  0  0  0
   28.0837  -20.5901  -14.7471 C   0  0  2  0  0  0  0  0  0  0  0  0
   28.7490  -21.6591  -15.5105 N   0  0  0  0  0  0  0  0  0  0  0  0
   26.9037  -21.1419  -14.0755 C   0  0  0  0  0  0  0  0  0  0  0  0
   26.0408  -21.8096  -14.6881 O   0  0  0  0  0  0  0  0  0  0  0  0
   25.9889  -20.0241  -10.2004 O   0  0  0  0  0  0  0  0  0  0  0  0
   25.6338  -21.3092  -10.5682 C   0  0  0  0  0  0  0  0  0  0  0  0
   25.4945  -21.4455  -12.0835 C   0  0  2  0  0  0  0  0  0  0  0  0
   26.7053  -20.9287  -12.6849 N   0  0  0  0  0  0  0  0  0  0  0  0
   24.3487  -20.6049  -12.4731 C   0  0  0  0  0  0  0  0  0  0  0  0
   24.4975  -19.3768  -12.6039 O   0  0  0  0  0  0  0  0  0  0  0  0
   23.1046  -21.2088  -12.6904 N   0  0  0  0  0  0  0  0  0  0  0  0
   22.0111  -20.4470  -13.2422 C   0  0  1  0  0  0  0  0  0  0  0  0
   22.1590  -20.5126  -14.7411 C   0  0  0  0  0  0  0  0  0  0  0  0
   21.0647  -19.8056  -15.4170 C   0  0  0  0  0  0  0  0  0  0  0  0
   20.2694  -18.7844  -14.9843 C   0  0  0  0  0  0  0  0  0  0  0  0
   19.4171  -18.4965  -15.9783 N   0  0  0  0  0  0  0  0  0  0  0  0
   19.6469  -19.3014  -17.0248 C   0  0  0  0  0  0  0  0  0  0  0  0
   20.6620  -20.1102  -16.6831 N   0  0  0  0  0  0  0  0  0  0  0  0
   20.7244  -20.9471  -12.7432 C   0  0  0  0  0  0  0  0  0  0  0  0
   19.6934  -20.0828  -12.4243 O   0  0  0  0  0  0  0  0  0  0  0  0
   20.5484  -22.1715  -12.6006 O   0  0  0  0  0  0  0  0  0  0  0  0
  2  1  1  0
  2  3  1  0
  3  5  1  0
  3  4  1  1
  5  7  1  0
  5  6  1  6
  7  8  2  0
 10  9  1  0
 11 10  1  1
 12 11  1  0
 12  7  1  0
 13 11  1  0
 14 13  2  0
 15 13  1  0
 16 15  1  0
 16 17  1  6
 18 17  1  0
 19 18  2  0
 20 19  1  0
 21 20  1  0
 21 22  2  0
 22 18  1  0
 23 16  1  0
 23 24  1  0
 25 23  2  0
M  END
$$$$
