ISH.pdb
     RDKit          3D

 25 25  0  0  1  0  0  0  0  0999 V2000
   16.4030  -11.5899  -18.0636 C   0  0  0  0  0  0  0  0  0  0  0  0
   17.7163  -11.4313  -17.3246 C   0  0  0  0  0  0  0  0  0  0  0  0
   17.7493  -10.0750  -16.7056 C   0  0  2  0  0  0  0  0  0  0  0  0
   17.5429   -8.9928  -17.7430 C   0  0  0  0  0  0  0  0  0  0  0  0
   18.9700   -9.8696  -15.8844 C   0  0  2  0  0  0  0  0  0  0  0  0
   19.1474  -10.9898  -14.9453 N   0  0  0  0  0  0  0  0  0  0  0  0
   19.0575   -8.6059  -15.1471 C   0  0  0  0  0  0  0  0  0  0  0  0
   18.2970   -8.3400  -14.1897 O   0  0  0  0  0  0  0  0  0  0  0  0
   21.7834   -6.8536  -13.1664 O   0  0  0  0  0  0  0  0  0  0  0  0
   21.4822   -6.1398  -14.3121 C   0  0  0  0  0  0  0  0  0  0  0  0
   20.0458   -6.3861  -14.7705 C   0  0  2  0  0  0  0  0  0  0  0  0
   20.0267   -7.6315  -15.5076 N   0  0  0  0  0  0  0  0  0  0  0  0
   19.6992   -5.2715  -15.6698 C   0  0  0  0  0  0  0  0  0  0  0  0
   20.1214   -5.2654  -16.8399 O   0  0  0  0  0  0  0  0  0  0  0  0
   18.8952   -4.2323  -15.1868 N   0  0  0  0  0  0  0  0  0  0  0  0
   18.4526   -3.1820  -16.0708 C   0  0  1  0  0  0  0  0  0  0  0  0
   16.9475   -3.1604  -15.9877 C   0  0  0  0  0  0  0  0  0  0  0  0
   16.3599   -4.3375  -16.6385 C   0  0  0  0  0  0  0  0  0  0  0  0
   16.5904   -4.8751  -17.8715 C   0  0  0  0  0  0  0  0  0  0  0  0
   15.7964   -5.9487  -17.9912 N   0  0  0  0  0  0  0  0  0  0  0  0
   15.0717   -6.1077  -16.8752 C   0  0  0  0  0  0  0  0  0  0  0  0
   15.4159   -5.1165  -16.0384 N   0  0  0  0  0  0  0  0  0  0  0  0
   19.0917   -1.9066  -15.7246 C   0  0  0  0  0  0  0  0  0  0  0  0
   19.9860   -1.8138  -14.6743 O   0  0  0  0  0  0  0  0  0  0  0  0
   18.8294   -0.8830  -16.3833 O   0  0  0  0  0  0  0  0  0  0  0  0
  2  1  1  0
  2  3  1  0
  3  5  1  0
  3  4  1  6
  5  7  1  0
  5  6  1  1
  7  8  2  0
 10  9  1  0
 11 10  1  6
 12 11  1  0
 12  7  1  0
 13 11  1  0
 14 13  2  0
 15 13  1  0
 16 15  1  0
 16 17  1  1
 18 17  1  0
 19 18  2  0
 20 19  1  0
 21 20  1  0
 21 22  2  0
 22 18  1  0
 23 16  1  0
 23 24  1  0
 25 23  2  0
M  END
$$$$
