ISH.pdb
     RDKit          3D

 25 25  0  0  1  0  0  0  0  0999 V2000
   27.5257  -22.6032  -22.7801 C   0  0  0  0  0  0  0  0  0  0  0  0
   28.0325  -22.8721  -21.3777 C   0  0  0  0  0  0  0  0  0  0  0  0
   27.6792  -24.2729  -21.0081 C   0  0  2  0  0  0  0  0  0  0  0  0
   26.2023  -24.5372  -21.2060 C   0  0  0  0  0  0  0  0  0  0  0  0
   28.1565  -24.6245  -19.6460 C   0  0  2  0  0  0  0  0  0  0  0  0
   29.6055  -24.3865  -19.5362 N   0  0  0  0  0  0  0  0  0  0  0  0
   27.8550  -25.9799  -19.1767 C   0  0  0  0  0  0  0  0  0  0  0  0
   28.1140  -26.9943  -19.8620 O   0  0  0  0  0  0  0  0  0  0  0  0
   27.7612  -26.7879  -15.3876 O   0  0  0  0  0  0  0  0  0  0  0  0
   27.7121  -27.8633  -16.2559 C   0  0  0  0  0  0  0  0  0  0  0  0
   26.9174  -27.5346  -17.5186 C   0  0  2  0  0  0  0  0  0  0  0  0
   27.2493  -26.1806  -17.9073 N   0  0  0  0  0  0  0  0  0  0  0  0
   25.4938  -27.6092  -17.1454 C   0  0  0  0  0  0  0  0  0  0  0  0
   24.8452  -26.5632  -16.9646 O   0  0  0  0  0  0  0  0  0  0  0  0
   24.8935  -28.8654  -17.0002 N   0  0  0  0  0  0  0  0  0  0  0  0
   23.5015  -28.9704  -16.6371 C   0  0  1  0  0  0  0  0  0  0  0  0
   22.7209  -28.3050  -17.7419 C   0  0  0  0  0  0  0  0  0  0  0  0
   22.1095  -27.0519  -17.2837 C   0  0  0  0  0  0  0  0  0  0  0  0
   22.1939  -26.4133  -16.0805 C   0  0  0  0  0  0  0  0  0  0  0  0
   21.4465  -25.3037  -16.1668 N   0  0  0  0  0  0  0  0  0  0  0  0
   20.8925  -25.2194  -17.3841 C   0  0  0  0  0  0  0  0  0  0  0  0
   21.2985  -26.2952  -18.0761 N   0  0  0  0  0  0  0  0  0  0  0  0
   23.1301  -30.3704  -16.3982 C   0  0  0  0  0  0  0  0  0  0  0  0
   22.0063  -30.6993  -15.6631 O   0  0  0  0  0  0  0  0  0  0  0  0
   23.8345  -31.2864  -16.8622 O   0  0  0  0  0  0  0  0  0  0  0  0
  2  1  1  0
  2  3  1  0
  3  5  1  0
  3  4  1  1
  5  7  1  0
  5  6  1  6
  7  8  2  0
 10  9  1  0
 11 10  1  1
 12 11  1  0
 12  7  1  0
 13 11  1  0
 14 13  2  0
 15 13  1  0
 16 15  1  0
 16 17  1  6
 18 17  1  0
 19 18  2  0
 20 19  1  0
 21 20  1  0
 21 22  2  0
 22 18  1  0
 23 16  1  0
 23 24  1  0
 25 23  2  0
M  END
$$$$
