ISH.pdb
     RDKit          3D

 25 25  0  0  1  0  0  0  0  0999 V2000
   17.2856  -14.9078  -20.0302 C   0  0  0  0  0  0  0  0  0  0  0  0
   18.6399  -15.0965  -19.3771 C   0  0  0  0  0  0  0  0  0  0  0  0
   18.8873  -13.9459  -18.4613 C   0  0  2  0  0  0  0  0  0  0  0  0
   18.7204  -12.6253  -19.1812 C   0  0  0  0  0  0  0  0  0  0  0  0
   20.1908  -14.0660  -17.7591 C   0  0  2  0  0  0  0  0  0  0  0  0
   20.3207  -15.4001  -17.1495 N   0  0  0  0  0  0  0  0  0  0  0  0
   20.4867  -13.0453  -16.7498 C   0  0  0  0  0  0  0  0  0  0  0  0
   19.8101  -12.9281  -15.7038 O   0  0  0  0  0  0  0  0  0  0  0  0
   23.9055  -10.7912  -17.0466 O   0  0  0  0  0  0  0  0  0  0  0  0
   23.3120  -10.9369  -15.8059 C   0  0  0  0  0  0  0  0  0  0  0  0
   21.8022  -11.1402  -15.9217 C   0  0  2  0  0  0  0  0  0  0  0  0
   21.5703  -12.1455  -16.9367 N   0  0  0  0  0  0  0  0  0  0  0  0
   21.2416   -9.8508  -16.3628 C   0  0  0  0  0  0  0  0  0  0  0  0
   21.0821   -9.6272  -17.5761 O   0  0  0  0  0  0  0  0  0  0  0  0
   20.8964   -8.8943  -15.4007 N   0  0  0  0  0  0  0  0  0  0  0  0
   20.3511   -7.6207  -15.8021 C   0  0  1  0  0  0  0  0  0  0  0  0
   19.0547   -7.4557  -15.0505 C   0  0  0  0  0  0  0  0  0  0  0  0
   17.9980   -8.3029  -15.6163 C   0  0  0  0  0  0  0  0  0  0  0  0
   17.7977   -9.6497  -15.5233 C   0  0  0  0  0  0  0  0  0  0  0  0
   16.6903   -9.9355  -16.2227 N   0  0  0  0  0  0  0  0  0  0  0  0
   16.1839   -8.8147  -16.7547 C   0  0  0  0  0  0  0  0  0  0  0  0
   16.9869   -7.8055  -16.3834 N   0  0  0  0  0  0  0  0  0  0  0  0
   21.3207   -6.5432  -15.5707 C   0  0  0  0  0  0  0  0  0  0  0  0
   21.0312   -5.2332  -15.9049 O   0  0  0  0  0  0  0  0  0  0  0  0
   22.4281   -6.8039  -15.0646 O   0  0  0  0  0  0  0  0  0  0  0  0
  2  1  1  0
  2  3  1  0
  3  5  1  0
  3  4  1  6
  5  7  1  0
  5  6  1  1
  7  8  2  0
 10  9  1  0
 11 10  1  6
 12 11  1  0
 12  7  1  0
 13 11  1  0
 14 13  2  0
 15 13  1  0
 16 15  1  0
 16 17  1  1
 18 17  1  0
 19 18  2  0
 20 19  1  0
 21 20  1  0
 21 22  2  0
 22 18  1  0
 23 16  1  0
 23 24  1  0
 25 23  2  0
M  END
$$$$
