SYC.pdb
     RDKit          3D

 25 25  0  0  1  0  0  0  0  0999 V2000
    5.6378  -16.3080   20.0219 O   0  0  0  0  0  0  0  0  0  0  0  0
    6.6820  -17.1910   20.1673 C   0  0  0  0  0  0  0  0  0  0  0  0
    6.3556  -18.3184   21.1232 C   0  0  2  0  0  0  0  0  0  0  0  0
    5.0642  -18.8788   20.8393 N   0  0  0  0  0  0  0  0  0  0  0  0
    6.4250  -17.8886   22.5337 C   0  0  0  0  0  0  0  0  0  0  0  0
    5.3634  -17.6627   23.1528 O   0  0  0  0  0  0  0  0  0  0  0  0
    9.6492  -16.5248   30.5277 O   0  0  0  0  0  0  0  0  0  0  0  0
    9.5126  -16.8467   29.1920 C   0  0  0  0  0  0  0  0  0  0  0  0
   10.2384  -16.1665   28.2458 C   0  0  0  0  0  0  0  0  0  0  0  0
   10.0497  -16.5442   26.9230 C   0  0  0  0  0  0  0  0  0  0  0  0
    9.1842  -17.5465   26.5594 C   0  0  0  0  0  0  0  0  0  0  0  0
    9.0219  -17.9056   25.1547 C   0  0  0  0  0  0  0  0  0  0  0  0
    7.7849  -17.2697   24.5221 C   0  0  2  0  0  0  0  0  0  0  0  0
    7.6797  -17.7391   23.1620 N   0  0  0  0  0  0  0  0  0  0  0  0
    8.0477  -15.8151   24.4974 C   0  0  0  0  0  0  0  0  0  0  0  0
    8.9765  -15.4059   23.7661 O   0  0  0  0  0  0  0  0  0  0  0  0
    8.4677  -18.2141   27.5239 C   0  0  0  0  0  0  0  0  0  0  0  0
    8.6388  -17.8543   28.8579 C   0  0  0  0  0  0  0  0  0  0  0  0
    7.2913  -14.8802   25.2654 N   0  0  0  0  0  0  0  0  0  0  0  0
    7.5962  -13.4573   25.2606 C   0  0  1  0  0  0  0  0  0  0  0  0
    6.3498  -12.6079   25.2450 C   0  0  0  0  0  0  0  0  0  0  0  0
    5.3763  -13.0569   26.7133 S   0  0  0  0  0  0  0  0  0  0  0  0
    8.3525  -13.1173   26.4874 C   0  0  0  0  0  0  0  0  0  0  0  0
    8.5705  -14.0098   27.5219 O   0  0  0  0  0  0  0  0  0  0  0  0
    8.8230  -11.9510   26.5945 O   0  0  0  0  0  0  0  0  0  0  0  0
  1  2  1  0
  2  3  1  0
  3  4  1  6
  5  3  1  0
  5  6  2  0
  7  8  1  0
  8  9  2  0
  8 18  1  0
  9 10  1  0
 10 11  2  0
 11 12  1  0
 13 12  1  6
 13 14  1  0
 13 15  1  0
 14  5  1  0
 15 19  1  0
 16 15  2  0
 17 11  1  0
 18 17  2  0
 19 20  1  0
 20 23  1  0
 21 22  1  0
 20 21  1  1
 23 25  2  0
 23 24  1  0
M  END
$$$$
