SYC.pdb
     RDKit          3D

 25 25  0  0  1  0  0  0  0  0999 V2000
    8.1498  -13.9695   20.4348 O   0  0  0  0  0  0  0  0  0  0  0  0
    7.2697  -14.7609   19.7346 C   0  0  0  0  0  0  0  0  0  0  0  0
    7.3462  -16.2149   20.1487 C   0  0  2  0  0  0  0  0  0  0  0  0
    6.4302  -17.0176   19.3877 N   0  0  0  0  0  0  0  0  0  0  0  0
    7.1018  -16.3950   21.5933 C   0  0  0  0  0  0  0  0  0  0  0  0
    5.9245  -16.4619   22.0064 O   0  0  0  0  0  0  0  0  0  0  0  0
    8.2331  -19.0022   29.7822 O   0  0  0  0  0  0  0  0  0  0  0  0
    8.3851  -18.7038   28.4427 C   0  0  0  0  0  0  0  0  0  0  0  0
    7.3764  -18.9934   27.5576 C   0  0  0  0  0  0  0  0  0  0  0  0
    7.5994  -18.6654   26.2268 C   0  0  0  0  0  0  0  0  0  0  0  0
    8.7651  -18.0795   25.7980 C   0  0  0  0  0  0  0  0  0  0  0  0
    8.9502  -17.7543   24.3879 C   0  0  0  0  0  0  0  0  0  0  0  0
    7.9880  -16.6719   23.9006 C   0  0  2  0  0  0  0  0  0  0  0  0
    8.1920  -16.4888   22.4843 N   0  0  0  0  0  0  0  0  0  0  0  0
    8.3908  -15.4316   24.5969 C   0  0  0  0  0  0  0  0  0  0  0  0
    9.4398  -14.8669   24.2154 O   0  0  0  0  0  0  0  0  0  0  0  0
    9.7616  -17.7985   26.7020 C   0  0  0  0  0  0  0  0  0  0  0  0
    9.5628  -18.1177   28.0425 C   0  0  0  0  0  0  0  0  0  0  0  0
    7.6370  -14.8679   25.6693 N   0  0  0  0  0  0  0  0  0  0  0  0
    8.0598  -13.6533   26.3501 C   0  0  1  0  0  0  0  0  0  0  0  0
    6.8896  -12.8488   26.8586 C   0  0  0  0  0  0  0  0  0  0  0  0
    5.7737  -12.5756   25.4497 S   0  0  0  0  0  0  0  0  0  0  0  0
    8.8938  -14.0154   27.5188 C   0  0  0  0  0  0  0  0  0  0  0  0
    9.5702  -13.0877   28.2910 O   0  0  0  0  0  0  0  0  0  0  0  0
    8.9927  -15.2355   27.8265 O   0  0  0  0  0  0  0  0  0  0  0  0
  1  2  1  0
  2  3  1  0
  3  4  1  6
  5  3  1  0
  5  6  2  0
  7  8  1  0
  8  9  2  0
  8 18  1  0
  9 10  1  0
 10 11  2  0
 11 12  1  0
 13 12  1  1
 13 14  1  0
 13 15  1  0
 14  5  1  0
 15 19  1  0
 16 15  2  0
 17 11  1  0
 18 17  2  0
 19 20  1  0
 20 23  1  0
 21 22  1  0
 20 21  1  1
 23 25  2  0
 23 24  1  0
M  END
$$$$
