SYC.pdb
     RDKit          3D

 25 25  0  0  1  0  0  0  0  0999 V2000
    8.0232  -20.9041   19.8671 O   0  0  0  0  0  0  0  0  0  0  0  0
    8.7184  -19.9991   20.6345 C   0  0  0  0  0  0  0  0  0  0  0  0
    8.7544  -18.6206   20.0102 C   0  0  2  0  0  0  0  0  0  0  0  0
    9.4865  -18.6319   18.7748 N   0  0  0  0  0  0  0  0  0  0  0  0
    9.3181  -17.6100   20.9267 C   0  0  0  0  0  0  0  0  0  0  0  0
   10.5286  -17.3142   20.8343 O   0  0  0  0  0  0  0  0  0  0  0  0
    7.7123  -12.3431   17.7326 O   0  0  0  0  0  0  0  0  0  0  0  0
    7.8124  -12.9359   18.9755 C   0  0  0  0  0  0  0  0  0  0  0  0
    8.9028  -12.6817   19.7699 C   0  0  0  0  0  0  0  0  0  0  0  0
    8.9358  -13.3125   21.0065 C   0  0  0  0  0  0  0  0  0  0  0  0
    7.9362  -14.1528   21.4316 C   0  0  0  0  0  0  0  0  0  0  0  0
    8.0184  -14.7914   22.7407 C   0  0  0  0  0  0  0  0  0  0  0  0
    8.9964  -15.9652   22.7644 C   0  0  2  0  0  0  0  0  0  0  0  0
    8.4901  -16.9944   21.8894 N   0  0  0  0  0  0  0  0  0  0  0  0
    8.9776  -16.4773   24.1511 C   0  0  0  0  0  0  0  0  0  0  0  0
    7.9191  -17.0035   24.5606 O   0  0  0  0  0  0  0  0  0  0  0  0
    6.8536  -14.3928   20.6194 C   0  0  0  0  0  0  0  0  0  0  0  0
    6.7966  -13.7724   19.3744 C   0  0  0  0  0  0  0  0  0  0  0  0
   10.1052  -16.3929   25.0213 N   0  0  0  0  0  0  0  0  0  0  0  0
   10.5850  -17.5443   25.7708 C   0  0  1  0  0  0  0  0  0  0  0  0
   11.0027  -18.6778   24.8675 C   0  0  0  0  0  0  0  0  0  0  0  0
   11.2991  -20.1258   25.9261 S   0  0  0  0  0  0  0  0  0  0  0  0
   11.7693  -17.1482   26.5664 C   0  0  0  0  0  0  0  0  0  0  0  0
   11.9289  -17.4598   27.9051 O   0  0  0  0  0  0  0  0  0  0  0  0
   12.6816  -16.4914   25.9925 O   0  0  0  0  0  0  0  0  0  0  0  0
  1  2  1  0
  2  3  1  0
  3  4  1  6
  5  3  1  0
  5  6  2  0
  7  8  1  0
  8  9  2  0
  8 18  1  0
  9 10  1  0
 10 11  2  0
 11 12  1  0
 13 12  1  1
 13 14  1  0
 13 15  1  0
 14  5  1  0
 15 19  1  0
 16 15  2  0
 17 11  1  0
 18 17  2  0
 19 20  1  0
 20 23  1  0
 21 22  1  0
 20 21  1  6
 23 25  2  0
 23 24  1  0
M  END
$$$$
