SYC.pdb
     RDKit          3D

 25 25  0  0  1  0  0  0  0  0999 V2000
    8.5468  -20.0700   22.3541 O   0  0  0  0  0  0  0  0  0  0  0  0
    8.7224  -20.2892   21.0078 C   0  0  0  0  0  0  0  0  0  0  0  0
    8.5635  -19.0244   20.1916 C   0  0  2  0  0  0  0  0  0  0  0  0
    8.9058  -19.2511   18.8155 N   0  0  0  0  0  0  0  0  0  0  0  0
    9.3600  -17.9075   20.7368 C   0  0  0  0  0  0  0  0  0  0  0  0
   10.5661  -17.8125   20.4247 O   0  0  0  0  0  0  0  0  0  0  0  0
    6.7957  -12.3695   17.6180 O   0  0  0  0  0  0  0  0  0  0  0  0
    7.2537  -12.9350   18.7915 C   0  0  0  0  0  0  0  0  0  0  0  0
    8.5588  -12.7525   19.1761 C   0  0  0  0  0  0  0  0  0  0  0  0
    8.9487  -13.3503   20.3672 C   0  0  0  0  0  0  0  0  0  0  0  0
    8.0856  -14.0914   21.1364 C   0  0  0  0  0  0  0  0  0  0  0  0
    8.5449  -14.6993   22.3806 C   0  0  0  0  0  0  0  0  0  0  0  0
    9.5051  -15.8650   22.1486 C   0  0  2  0  0  0  0  0  0  0  0  0
    8.7549  -16.9671   21.5976 N   0  0  0  0  0  0  0  0  0  0  0  0
    9.9964  -16.2548   23.4874 C   0  0  0  0  0  0  0  0  0  0  0  0
    9.1493  -16.6200   24.3323 O   0  0  0  0  0  0  0  0  0  0  0  0
    6.7830  -14.2609   20.7317 C   0  0  0  0  0  0  0  0  0  0  0  0
    6.3670  -13.6717   19.5410 C   0  0  0  0  0  0  0  0  0  0  0  0
   11.3786  -16.2287   23.8410 N   0  0  0  0  0  0  0  0  0  0  0  0
   11.8862  -16.9337   25.0084 C   0  0  1  0  0  0  0  0  0  0  0  0
   11.5955  -18.4128   24.9513 C   0  0  0  0  0  0  0  0  0  0  0  0
   12.0742  -19.1159   26.5580 S   0  0  0  0  0  0  0  0  0  0  0  0
   13.3564  -16.7702   25.0748 C   0  0  0  0  0  0  0  0  0  0  0  0
   14.0713  -16.7642   26.2594 O   0  0  0  0  0  0  0  0  0  0  0  0
   13.9908  -16.6289   23.9928 O   0  0  0  0  0  0  0  0  0  0  0  0
  1  2  1  0
  2  3  1  0
  3  4  1  6
  5  3  1  0
  5  6  2  0
  7  8  1  0
  8  9  2  0
  8 18  1  0
  9 10  1  0
 10 11  2  0
 11 12  1  0
 13 12  1  1
 13 14  1  0
 13 15  1  0
 14  5  1  0
 15 19  1  0
 16 15  2  0
 17 11  1  0
 18 17  2  0
 19 20  1  0
 20 23  1  0
 21 22  1  0
 20 21  1  6
 23 25  2  0
 23 24  1  0
M  END
$$$$
