SYC.pdb
     RDKit          3D

 25 25  0  0  1  0  0  0  0  0999 V2000
    8.5690  -20.2959   21.2742 O   0  0  0  0  0  0  0  0  0  0  0  0
    8.8267  -20.1982   19.9269 C   0  0  0  0  0  0  0  0  0  0  0  0
    8.7111  -18.7769   19.4189 C   0  0  2  0  0  0  0  0  0  0  0  0
    9.0641  -18.6947   18.0293 N   0  0  0  0  0  0  0  0  0  0  0  0
    9.5299  -17.8362   20.2086 C   0  0  0  0  0  0  0  0  0  0  0  0
   10.7284  -17.6664   19.8991 O   0  0  0  0  0  0  0  0  0  0  0  0
    7.3131  -12.2460   17.7125 O   0  0  0  0  0  0  0  0  0  0  0  0
    7.6575  -12.9325   18.8599 C   0  0  0  0  0  0  0  0  0  0  0  0
    6.7202  -13.6986   19.5073 C   0  0  0  0  0  0  0  0  0  0  0  0
    7.1379  -14.3603   20.6543 C   0  0  0  0  0  0  0  0  0  0  0  0
    8.4214  -14.2654   21.1333 C   0  0  0  0  0  0  0  0  0  0  0  0
    8.8104  -14.9810   22.3436 C   0  0  0  0  0  0  0  0  0  0  0  0
    9.7119  -16.1808   22.0559 C   0  0  2  0  0  0  0  0  0  0  0  0
    8.9542  -17.1447   21.2957 N   0  0  0  0  0  0  0  0  0  0  0  0
   10.0318  -16.7696   23.3737 C   0  0  0  0  0  0  0  0  0  0  0  0
    9.1242  -17.3955   23.9650 O   0  0  0  0  0  0  0  0  0  0  0  0
    9.3435  -13.4924   20.4688 C   0  0  0  0  0  0  0  0  0  0  0  0
    8.9497  -12.8186   19.3159 C   0  0  0  0  0  0  0  0  0  0  0  0
   11.3169  -16.6498   23.9820 N   0  0  0  0  0  0  0  0  0  0  0  0
   11.6846  -17.4226   25.1590 C   0  0  1  0  0  0  0  0  0  0  0  0
   11.8310  -18.8922   24.8524 C   0  0  0  0  0  0  0  0  0  0  0  0
   12.7734  -19.0257   23.3034 S   0  0  0  0  0  0  0  0  0  0  0  0
   12.9886  -16.9413   25.6696 C   0  0  0  0  0  0  0  0  0  0  0  0
   13.5548  -17.3815   26.8528 O   0  0  0  0  0  0  0  0  0  0  0  0
   13.6165  -16.0838   24.9888 O   0  0  0  0  0  0  0  0  0  0  0  0
  1  2  1  0
  2  3  1  0
  3  4  1  6
  5  3  1  0
  5  6  2  0
  7  8  1  0
  8  9  2  0
  8 18  1  0
  9 10  1  0
 10 11  2  0
 11 12  1  0
 13 12  1  1
 13 14  1  0
 13 15  1  0
 14  5  1  0
 15 19  1  0
 16 15  2  0
 17 11  1  0
 18 17  2  0
 19 20  1  0
 20 23  1  0
 21 22  1  0
 20 21  1  6
 23 25  2  0
 23 24  1  0
M  END
$$$$
