SYC.pdb
     RDKit          3D

 25 25  0  0  1  0  0  0  0  0999 V2000
    8.5144  -17.1761   19.5641 O   0  0  0  0  0  0  0  0  0  0  0  0
    8.6406  -15.9248   19.0076 C   0  0  0  0  0  0  0  0  0  0  0  0
    7.9934  -14.8492   19.8534 C   0  0  2  0  0  0  0  0  0  0  0  0
    8.0909  -13.5646   19.2188 N   0  0  0  0  0  0  0  0  0  0  0  0
    8.5671  -14.7905   21.2122 C   0  0  0  0  0  0  0  0  0  0  0  0
    9.5897  -14.1003   21.4105 O   0  0  0  0  0  0  0  0  0  0  0  0
    6.7113  -10.5800   27.3780 O   0  0  0  0  0  0  0  0  0  0  0  0
    6.8431  -11.7762   26.7011 C   0  0  0  0  0  0  0  0  0  0  0  0
    7.3025  -12.8893   27.3602 C   0  0  0  0  0  0  0  0  0  0  0  0
    7.4093  -14.0567   26.6159 C   0  0  0  0  0  0  0  0  0  0  0  0
    7.0765  -14.1145   25.2848 C   0  0  0  0  0  0  0  0  0  0  0  0
    7.2068  -15.3664   24.5471 C   0  0  0  0  0  0  0  0  0  0  0  0
    8.4240  -15.3833   23.6235 C   0  0  2  0  0  0  0  0  0  0  0  0
    7.9590  -15.5089   22.2636 N   0  0  0  0  0  0  0  0  0  0  0  0
    9.1799  -16.6040   23.9754 C   0  0  0  0  0  0  0  0  0  0  0  0
    8.6621  -17.7077   23.6953 O   0  0  0  0  0  0  0  0  0  0  0  0
    6.6186  -12.9874   24.6452 C   0  0  0  0  0  0  0  0  0  0  0  0
    6.5023  -11.8040   25.3692 C   0  0  0  0  0  0  0  0  0  0  0  0
   10.4564  -16.5656   24.6120 N   0  0  0  0  0  0  0  0  0  0  0  0
   11.1724  -17.7805   24.9711 C   0  0  1  0  0  0  0  0  0  0  0  0
   12.6626  -17.6390   24.7857 C   0  0  0  0  0  0  0  0  0  0  0  0
   12.9355  -16.9923   23.1087 S   0  0  0  0  0  0  0  0  0  0  0  0
   10.9275  -18.0860   26.3991 C   0  0  0  0  0  0  0  0  0  0  0  0
   11.4392  -19.2003   27.0403 O   0  0  0  0  0  0  0  0  0  0  0  0
   10.2139  -17.2870   27.0666 O   0  0  0  0  0  0  0  0  0  0  0  0
  1  2  1  0
  2  3  1  0
  3  4  1  6
  5  3  1  0
  5  6  2  0
  7  8  1  0
  8  9  2  0
  8 18  1  0
  9 10  1  0
 10 11  2  0
 11 12  1  0
 13 12  1  1
 13 14  1  0
 13 15  1  0
 14  5  1  0
 15 19  1  0
 16 15  2  0
 17 11  1  0
 18 17  2  0
 19 20  1  0
 20 23  1  0
 21 22  1  0
 20 21  1  1
 23 25  2  0
 23 24  1  0
M  END
$$$$
