SYC.pdb
     RDKit          3D

 25 25  0  0  1  0  0  0  0  0999 V2000
   11.4576  -19.1534   22.4988 O   0  0  0  0  0  0  0  0  0  0  0  0
   12.1890  -18.5441   21.5063 C   0  0  0  0  0  0  0  0  0  0  0  0
   11.5075  -17.3057   20.9647 C   0  0  2  0  0  0  0  0  0  0  0  0
   12.3200  -16.6616   19.9712 N   0  0  0  0  0  0  0  0  0  0  0  0
   11.1588  -16.3504   22.0347 C   0  0  0  0  0  0  0  0  0  0  0  0
   12.0076  -15.5081   22.3971 O   0  0  0  0  0  0  0  0  0  0  0  0
    6.2140  -11.3335   27.1540 O   0  0  0  0  0  0  0  0  0  0  0  0
    6.6432  -12.3202   26.2888 C   0  0  0  0  0  0  0  0  0  0  0  0
    6.3409  -13.6347   26.5447 C   0  0  0  0  0  0  0  0  0  0  0  0
    6.8053  -14.5719   25.6315 C   0  0  0  0  0  0  0  0  0  0  0  0
    7.5329  -14.2206   24.5210 C   0  0  0  0  0  0  0  0  0  0  0  0
    7.9980  -15.2443   23.5914 C   0  0  0  0  0  0  0  0  0  0  0  0
    9.5061  -15.4757   23.6746 C   0  0  2  0  0  0  0  0  0  0  0  0
    9.8809  -16.3989   22.6314 N   0  0  0  0  0  0  0  0  0  0  0  0
    9.7427  -16.1240   24.9820 C   0  0  0  0  0  0  0  0  0  0  0  0
    9.6890  -17.3730   25.0281 O   0  0  0  0  0  0  0  0  0  0  0  0
    7.8239  -12.8982   24.2848 C   0  0  0  0  0  0  0  0  0  0  0  0
    7.3697  -11.9387   25.1854 C   0  0  0  0  0  0  0  0  0  0  0  0
   10.0249  -15.3864   26.1704 N   0  0  0  0  0  0  0  0  0  0  0  0
   10.5371  -16.0303   27.3706 C   0  0  1  0  0  0  0  0  0  0  0  0
   10.6965  -15.0593   28.5139 C   0  0  0  0  0  0  0  0  0  0  0  0
   10.9727  -13.4159   27.7872 S   0  0  0  0  0  0  0  0  0  0  0  0
    9.5855  -17.0783   27.8049 C   0  0  0  0  0  0  0  0  0  0  0  0
    9.8380  -17.9555   28.8447 O   0  0  0  0  0  0  0  0  0  0  0  0
    8.4856  -17.1763   27.1936 O   0  0  0  0  0  0  0  0  0  0  0  0
  1  2  1  0
  2  3  1  0
  3  4  1  6
  5  3  1  0
  5  6  2  0
  7  8  1  0
  8  9  2  0
  8 18  1  0
  9 10  1  0
 10 11  2  0
 11 12  1  0
 13 12  1  6
 13 14  1  0
 13 15  1  0
 14  5  1  0
 15 19  1  0
 16 15  2  0
 17 11  1  0
 18 17  2  0
 19 20  1  0
 20 23  1  0
 21 22  1  0
 20 21  1  1
 23 25  2  0
 23 24  1  0
M  END
$$$$
