LVL.pdb
     RDKit          3D

 24 23  0  0  1  0  0  0  0  0999 V2000
    9.7641  -13.1822   19.2229 C   0  0  0  0  0  0  0  0  0  0  0  0
    8.2888  -13.2418   18.9308 C   0  0  2  0  0  0  0  0  0  0  0  0
    7.7333  -11.8560   18.9201 C   0  0  0  0  0  0  0  0  0  0  0  0
    7.6045  -14.1201   19.9837 C   0  0  0  0  0  0  0  0  0  0  0  0
    8.3702  -15.4185   20.0141 C   0  0  2  0  0  0  0  0  0  0  0  0
    7.7321  -16.3297   19.0862 N   0  0  0  0  0  0  0  0  0  0  0  0
    8.3596  -16.0494   21.3528 C   0  0  0  0  0  0  0  0  0  0  0  0
    7.3106  -16.5396   21.8712 O   0  0  0  0  0  0  0  0  0  0  0  0
   10.3861  -18.9951   22.3301 C   0  0  0  0  0  0  0  0  0  0  0  0
   10.6166  -17.9432   23.3709 C   0  0  2  0  0  0  0  0  0  0  0  0
   10.6089  -18.6887   24.7195 C   0  0  0  0  0  0  0  0  0  0  0  0
    9.5663  -16.8922   23.4200 C   0  0  2  0  0  0  0  0  0  0  0  0
    9.5311  -16.1468   22.1479 N   0  0  0  0  0  0  0  0  0  0  0  0
    9.7384  -15.9238   24.5365 C   0  0  0  0  0  0  0  0  0  0  0  0
   10.7180  -15.1158   24.5461 O   0  0  0  0  0  0  0  0  0  0  0  0
    5.5638  -13.3569   26.7707 C   0  0  0  0  0  0  0  0  0  0  0  0
    6.9863  -13.6022   26.3884 C   0  0  1  0  0  0  0  0  0  0  0  0
    7.7055  -12.2690   26.1407 C   0  0  0  0  0  0  0  0  0  0  0  0
    7.7852  -14.5110   27.2185 C   0  0  0  0  0  0  0  0  0  0  0  0
    9.1490  -14.9474   26.7885 C   0  0  2  0  0  0  0  0  0  0  0  0
    8.8556  -15.8345   25.6214 N   0  0  0  0  0  0  0  0  0  0  0  0
    9.9466  -15.6653   27.7578 C   0  0  0  0  0  0  0  0  0  0  0  0
   10.0684  -17.0290   27.7717 O   0  0  0  0  0  0  0  0  0  0  0  0
   10.5718  -15.0222   28.6587 O   0  0  0  0  0  0  0  0  0  0  0  0
  2  1  1  1
  2  3  1  0
  4  2  1  0
  4  5  1  0
  5  7  1  0
  5  6  1  6
  7  8  2  0
 10  9  1  6
 10 12  1  0
 10 11  1  0
 13  7  1  0
 12 13  1  6
 14 15  2  0
 14 12  1  0
 17 16  1  1
 17 19  1  0
 18 17  1  0
 20 19  1  1
 20 21  1  0
 21 14  1  0
 22 20  1  0
 22 23  1  0
 24 22  2  0
M  END
$$$$
