LVL.pdb
     RDKit          3D

 24 23  0  0  1  0  0  0  0  0999 V2000
    5.9226  -19.4623   26.8792 C   0  0  0  0  0  0  0  0  0  0  0  0
    6.9808  -20.4512   26.4695 C   0  0  2  0  0  0  0  0  0  0  0  0
    7.7366  -20.8921   27.6793 C   0  0  0  0  0  0  0  0  0  0  0  0
    7.9004  -19.7998   25.4312 C   0  0  0  0  0  0  0  0  0  0  0  0
    7.0126  -19.3665   24.2922 C   0  0  2  0  0  0  0  0  0  0  0  0
    6.8072  -20.5132   23.4311 N   0  0  0  0  0  0  0  0  0  0  0  0
    7.6210  -18.2895   23.4799 C   0  0  0  0  0  0  0  0  0  0  0  0
    8.5971  -18.4910   22.6950 O   0  0  0  0  0  0  0  0  0  0  0  0
    5.8874  -15.3730   21.2374 C   0  0  0  0  0  0  0  0  0  0  0  0
    6.7804  -14.8711   22.3298 C   0  0  2  0  0  0  0  0  0  0  0  0
    7.5229  -13.6603   21.7322 C   0  0  0  0  0  0  0  0  0  0  0  0
    7.7972  -15.8544   22.7875 C   0  0  2  0  0  0  0  0  0  0  0  0
    7.1476  -16.9524   23.5276 N   0  0  0  0  0  0  0  0  0  0  0  0
    8.8599  -15.2634   23.6452 C   0  0  0  0  0  0  0  0  0  0  0  0
    9.2032  -14.0491   23.5044 O   0  0  0  0  0  0  0  0  0  0  0  0
    9.2368  -12.2442   27.7259 C   0  0  0  0  0  0  0  0  0  0  0  0
   10.0993  -13.3704   27.2593 C   0  0  1  0  0  0  0  0  0  0  0  0
   10.5571  -14.2173   28.4549 C   0  0  0  0  0  0  0  0  0  0  0  0
    9.6212  -14.2017   26.1486 C   0  0  0  0  0  0  0  0  0  0  0  0
   10.4661  -15.3024   25.5921 C   0  0  2  0  0  0  0  0  0  0  0  0
    9.5334  -15.9824   24.6421 N   0  0  0  0  0  0  0  0  0  0  0  0
   10.9933  -16.2670   26.5317 C   0  0  0  0  0  0  0  0  0  0  0  0
   10.2280  -17.2316   27.1305 O   0  0  0  0  0  0  0  0  0  0  0  0
   12.2261  -16.2360   26.8407 O   0  0  0  0  0  0  0  0  0  0  0  0
  2  1  1  1
  2  3  1  0
  4  2  1  0
  4  5  1  0
  5  7  1  0
  5  6  1  6
  7  8  2  0
 10  9  1  6
 10 12  1  0
 10 11  1  0
 13  7  1  0
 12 13  1  1
 14 15  2  0
 14 12  1  0
 17 16  1  1
 17 19  1  0
 18 17  1  0
 20 19  1  1
 20 21  1  0
 21 14  1  0
 22 20  1  0
 22 23  1  0
 24 22  2  0
M  END
$$$$
