LVL.pdb
     RDKit          3D

 24 23  0  0  1  0  0  0  0  0999 V2000
    5.5655  -20.7593   25.4648 C   0  0  0  0  0  0  0  0  0  0  0  0
    7.0523  -20.8471   25.6817 C   0  0  2  0  0  0  0  0  0  0  0  0
    7.3219  -21.1774   27.1126 C   0  0  0  0  0  0  0  0  0  0  0  0
    7.6975  -19.5183   25.2740 C   0  0  0  0  0  0  0  0  0  0  0  0
    7.3416  -19.3020   23.8249 C   0  0  2  0  0  0  0  0  0  0  0  0
    7.8062  -20.4538   23.0792 N   0  0  0  0  0  0  0  0  0  0  0  0
    7.9905  -18.0993   23.2573 C   0  0  0  0  0  0  0  0  0  0  0  0
    9.2315  -18.0472   22.9992 O   0  0  0  0  0  0  0  0  0  0  0  0
    6.4862  -15.3878   20.4638 C   0  0  0  0  0  0  0  0  0  0  0  0
    6.9361  -14.8239   21.7762 C   0  0  2  0  0  0  0  0  0  0  0  0
    7.6293  -13.4903   21.4363 C   0  0  0  0  0  0  0  0  0  0  0  0
    7.9114  -15.6768   22.5052 C   0  0  2  0  0  0  0  0  0  0  0  0
    7.2603  -16.9184   22.9633 N   0  0  0  0  0  0  0  0  0  0  0  0
    8.5374  -15.0056   23.6764 C   0  0  0  0  0  0  0  0  0  0  0  0
    9.2443  -13.9622   23.5218 O   0  0  0  0  0  0  0  0  0  0  0  0
    5.9931  -11.8947   26.2780 C   0  0  0  0  0  0  0  0  0  0  0  0
    7.2810  -12.5630   25.9255 C   0  0  1  0  0  0  0  0  0  0  0  0
    8.4528  -11.5908   26.1198 C   0  0  0  0  0  0  0  0  0  0  0  0
    7.5622  -13.8835   26.5005 C   0  0  0  0  0  0  0  0  0  0  0  0
    8.8157  -14.6218   26.1558 C   0  0  2  0  0  0  0  0  0  0  0  0
    8.3918  -15.4614   24.9937 N   0  0  0  0  0  0  0  0  0  0  0  0
    9.3872  -15.4643   27.1829 C   0  0  0  0  0  0  0  0  0  0  0  0
   10.1897  -14.9904   28.1858 O   0  0  0  0  0  0  0  0  0  0  0  0
    9.1541  -16.7140   27.1738 O   0  0  0  0  0  0  0  0  0  0  0  0
  2  1  1  1
  2  3  1  0
  4  2  1  0
  4  5  1  0
  5  7  1  0
  5  6  1  6
  7  8  2  0
 10  9  1  6
 10 12  1  0
 10 11  1  0
 13  7  1  0
 12 13  1  1
 14 15  2  0
 14 12  1  0
 17 16  1  1
 17 19  1  0
 18 17  1  0
 20 19  1  1
 20 21  1  0
 21 14  1  0
 22 20  1  0
 22 23  1  0
 24 22  2  0
M  END
$$$$
