LVL.pdb
     RDKit          3D

 24 23  0  0  1  0  0  0  0  0999 V2000
    5.8567  -19.8059   24.9304 C   0  0  0  0  0  0  0  0  0  0  0  0
    7.0026  -20.7443   24.6625 C   0  0  2  0  0  0  0  0  0  0  0  0
    7.4681  -21.3331   25.9532 C   0  0  0  0  0  0  0  0  0  0  0  0
    8.1225  -19.9774   23.9512 C   0  0  0  0  0  0  0  0  0  0  0  0
    7.4681  -19.2250   22.8204 C   0  0  2  0  0  0  0  0  0  0  0  0
    7.4988  -20.0751   21.6478 N   0  0  0  0  0  0  0  0  0  0  0  0
    8.1785  -17.9690   22.4919 C   0  0  0  0  0  0  0  0  0  0  0  0
    9.3617  -17.9502   22.0347 O   0  0  0  0  0  0  0  0  0  0  0  0
    6.0578  -14.3096   21.9640 C   0  0  0  0  0  0  0  0  0  0  0  0
    7.4187  -14.6179   21.4204 C   0  0  2  0  0  0  0  0  0  0  0  0
    7.1747  -15.4270   20.1319 C   0  0  0  0  0  0  0  0  0  0  0  0
    8.2663  -15.4383   22.3254 C   0  0  2  0  0  0  0  0  0  0  0  0
    7.5766  -16.6959   22.6686 N   0  0  0  0  0  0  0  0  0  0  0  0
    8.6469  -14.7432   23.5847 C   0  0  0  0  0  0  0  0  0  0  0  0
    8.7940  -13.4821   23.6079 O   0  0  0  0  0  0  0  0  0  0  0  0
    6.0531  -12.0489   26.1602 C   0  0  0  0  0  0  0  0  0  0  0  0
    7.4101  -12.6245   25.9214 C   0  0  1  0  0  0  0  0  0  0  0  0
    8.4850  -11.7220   26.5428 C   0  0  0  0  0  0  0  0  0  0  0  0
    7.6328  -14.0404   26.2364 C   0  0  0  0  0  0  0  0  0  0  0  0
    8.9855  -14.6588   26.0848 C   0  0  2  0  0  0  0  0  0  0  0  0
    8.8592  -15.4106   24.7987 N   0  0  0  0  0  0  0  0  0  0  0  0
    9.4206  -15.5555   27.1326 C   0  0  0  0  0  0  0  0  0  0  0  0
   10.0064  -15.1289   28.2942 O   0  0  0  0  0  0  0  0  0  0  0  0
    9.2696  -16.8098   26.9907 O   0  0  0  0  0  0  0  0  0  0  0  0
  2  1  1  1
  2  3  1  0
  4  2  1  0
  4  5  1  0
  5  7  1  0
  5  6  1  6
  7  8  2  0
 10  9  1  1
 10 12  1  0
 10 11  1  0
 13  7  1  0
 12 13  1  1
 14 15  2  0
 14 12  1  0
 17 16  1  1
 17 19  1  0
 18 17  1  0
 20 19  1  1
 20 21  1  0
 21 14  1  0
 22 20  1  0
 22 23  1  0
 24 22  2  0
M  END
$$$$
