LVL.pdb
     RDKit          3D

 24 23  0  0  1  0  0  0  0  0999 V2000
    7.8915  -12.5393   19.4877 C   0  0  0  0  0  0  0  0  0  0  0  0
    8.1964  -13.9038   20.0450 C   0  0  2  0  0  0  0  0  0  0  0  0
    9.6219  -14.2443   19.7596 C   0  0  0  0  0  0  0  0  0  0  0  0
    7.2340  -14.9238   19.4273 C   0  0  0  0  0  0  0  0  0  0  0  0
    7.5349  -16.2445   20.0894 C   0  0  2  0  0  0  0  0  0  0  0  0
    6.8126  -17.2741   19.3704 N   0  0  0  0  0  0  0  0  0  0  0  0
    7.0956  -16.2813   21.5021 C   0  0  0  0  0  0  0  0  0  0  0  0
    5.8942  -16.0729   21.8520 O   0  0  0  0  0  0  0  0  0  0  0  0
    6.5477  -19.0142   23.4922 C   0  0  0  0  0  0  0  0  0  0  0  0
    7.5392  -18.2129   24.2781 C   0  0  2  0  0  0  0  0  0  0  0  0
    7.1192  -18.3684   25.7526 C   0  0  0  0  0  0  0  0  0  0  0  0
    7.5473  -16.7623   23.9525 C   0  0  2  0  0  0  0  0  0  0  0  0
    7.9974  -16.5542   22.5635 N   0  0  0  0  0  0  0  0  0  0  0  0
    8.4025  -15.9488   24.8586 C   0  0  0  0  0  0  0  0  0  0  0  0
    9.6538  -15.8619   24.6611 O   0  0  0  0  0  0  0  0  0  0  0  0
    5.7825  -12.1240   27.7566 C   0  0  0  0  0  0  0  0  0  0  0  0
    6.8537  -12.7668   26.9388 C   0  0  1  0  0  0  0  0  0  0  0  0
    7.5126  -11.7293   26.0192 C   0  0  0  0  0  0  0  0  0  0  0  0
    7.8467  -13.6033   27.6227 C   0  0  0  0  0  0  0  0  0  0  0  0
    8.8064  -14.4478   26.8476 C   0  0  2  0  0  0  0  0  0  0  0  0
    7.9017  -15.2389   25.9584 N   0  0  0  0  0  0  0  0  0  0  0  0
    9.6532  -15.3443   27.6029 C   0  0  0  0  0  0  0  0  0  0  0  0
   10.8199  -14.9523   28.2026 O   0  0  0  0  0  0  0  0  0  0  0  0
    9.3246  -16.5661   27.7263 O   0  0  0  0  0  0  0  0  0  0  0  0
  2  1  1  6
  2  3  1  0
  4  2  1  0
  4  5  1  0
  5  7  1  0
  5  6  1  6
  7  8  2  0
 10  9  1  6
 10 12  1  0
 10 11  1  0
 13  7  1  0
 12 13  1  6
 14 15  2  0
 14 12  1  0
 17 16  1  1
 17 19  1  0
 18 17  1  0
 20 19  1  1
 20 21  1  0
 21 14  1  0
 22 20  1  0
 22 23  1  0
 24 22  2  0
M  END
$$$$
