LVL.pdb
     RDKit          3D

 24 23  0  0  1  0  0  0  0  0999 V2000
    7.2319  -12.4657   27.3946 C   0  0  0  0  0  0  0  0  0  0  0  0
    7.0284  -13.2706   26.1392 C   0  0  2  0  0  0  0  0  0  0  0  0
    6.4704  -12.3865   25.0732 C   0  0  0  0  0  0  0  0  0  0  0  0
    6.0978  -14.4491   26.4448 C   0  0  0  0  0  0  0  0  0  0  0  0
    5.9734  -15.2335   25.1633 C   0  0  2  0  0  0  0  0  0  0  0  0
    5.0012  -16.2851   25.3815 N   0  0  0  0  0  0  0  0  0  0  0  0
    7.2491  -15.8677   24.7630 C   0  0  0  0  0  0  0  0  0  0  0  0
    7.7986  -16.7892   25.4400 O   0  0  0  0  0  0  0  0  0  0  0  0
    8.5307  -16.2575   20.8011 C   0  0  0  0  0  0  0  0  0  0  0  0
    9.5459  -15.7560   21.7812 C   0  0  2  0  0  0  0  0  0  0  0  0
   10.8636  -16.4623   21.4080 C   0  0  0  0  0  0  0  0  0  0  0  0
    9.2367  -16.0781   23.1993 C   0  0  2  0  0  0  0  0  0  0  0  0
    7.9444  -15.4826   23.5872 N   0  0  0  0  0  0  0  0  0  0  0  0
   10.2793  -15.6236   24.1587 C   0  0  0  0  0  0  0  0  0  0  0  0
   10.7814  -14.4611   24.0649 O   0  0  0  0  0  0  0  0  0  0  0  0
    9.9356  -14.7002   29.1662 C   0  0  0  0  0  0  0  0  0  0  0  0
   10.4538  -14.7707   27.7676 C   0  0  1  0  0  0  0  0  0  0  0  0
   11.0451  -13.4161   27.3530 C   0  0  0  0  0  0  0  0  0  0  0  0
   11.3335  -15.8878   27.4047 C   0  0  0  0  0  0  0  0  0  0  0  0
   11.9272  -15.9865   26.0362 C   0  0  2  0  0  0  0  0  0  0  0  0
   10.7629  -16.4208   25.2051 N   0  0  0  0  0  0  0  0  0  0  0  0
   13.0242  -16.9121   25.8596 C   0  0  0  0  0  0  0  0  0  0  0  0
   14.3389  -16.5592   26.0065 O   0  0  0  0  0  0  0  0  0  0  0  0
   12.7840  -18.1202   25.5449 O   0  0  0  0  0  0  0  0  0  0  0  0
  2  1  1  1
  2  3  1  0
  4  2  1  0
  4  5  1  0
  5  7  1  0
  5  6  1  1
  7  8  2  0
 10  9  1  6
 10 12  1  0
 10 11  1  0
 13  7  1  0
 12 13  1  1
 14 15  2  0
 14 12  1  0
 17 16  1  1
 17 19  1  0
 18 17  1  0
 20 19  1  1
 20 21  1  0
 21 14  1  0
 22 20  1  0
 22 23  1  0
 24 22  2  0
M  END
$$$$
