LVL.pdb
     RDKit          3D

 24 23  0  0  1  0  0  0  0  0999 V2000
    9.7637  -13.3430   18.7606 C   0  0  0  0  0  0  0  0  0  0  0  0
    8.2818  -13.3121   18.4992 C   0  0  2  0  0  0  0  0  0  0  0  0
    7.8109  -11.8952   18.5049 C   0  0  0  0  0  0  0  0  0  0  0  0
    7.5676  -14.1524   19.5631 C   0  0  0  0  0  0  0  0  0  0  0  0
    8.1715  -15.5319   19.4885 C   0  0  2  0  0  0  0  0  0  0  0  0
    7.4041  -16.2989   18.5286 N   0  0  0  0  0  0  0  0  0  0  0  0
    8.1197  -16.2421   20.7857 C   0  0  0  0  0  0  0  0  0  0  0  0
    7.0346  -16.6502   21.3009 O   0  0  0  0  0  0  0  0  0  0  0  0
   10.1643  -19.3432   21.8061 C   0  0  0  0  0  0  0  0  0  0  0  0
   10.3137  -18.2835   22.8538 C   0  0  2  0  0  0  0  0  0  0  0  0
   10.2198  -19.0214   24.2033 C   0  0  0  0  0  0  0  0  0  0  0  0
    9.2535  -17.2417   22.8242 C   0  0  2  0  0  0  0  0  0  0  0  0
    9.2895  -16.5141   21.5418 N   0  0  0  0  0  0  0  0  0  0  0  0
    9.3492  -16.2566   23.9352 C   0  0  0  0  0  0  0  0  0  0  0  0
   10.3701  -15.5105   24.0513 O   0  0  0  0  0  0  0  0  0  0  0  0
    8.0846  -12.0642   26.0875 C   0  0  0  0  0  0  0  0  0  0  0  0
    7.1779  -13.0909   26.6822 C   0  0  1  0  0  0  0  0  0  0  0  0
    5.7365  -12.5646   26.7230 C   0  0  0  0  0  0  0  0  0  0  0  0
    7.2466  -14.4639   26.1689 C   0  0  0  0  0  0  0  0  0  0  0  0
    8.5519  -15.1871   26.0782 C   0  0  2  0  0  0  0  0  0  0  0  0
    8.3475  -16.0846   24.9002 N   0  0  0  0  0  0  0  0  0  0  0  0
    8.9508  -15.9720   27.2254 C   0  0  0  0  0  0  0  0  0  0  0  0
    9.8868  -15.5564   28.1341 O   0  0  0  0  0  0  0  0  0  0  0  0
    8.4262  -17.1135   27.4203 O   0  0  0  0  0  0  0  0  0  0  0  0
  2  1  1  1
  2  3  1  0
  4  2  1  0
  4  5  1  0
  5  7  1  0
  5  6  1  6
  7  8  2  0
 10  9  1  6
 10 12  1  0
 10 11  1  0
 13  7  1  0
 12 13  1  6
 14 15  2  0
 14 12  1  0
 17 16  1  6
 17 19  1  0
 18 17  1  0
 20 19  1  1
 20 21  1  0
 21 14  1  0
 22 20  1  0
 22 23  1  0
 24 22  2  0
M  END
$$$$
