LVL.pdb
     RDKit          3D

 24 23  0  0  1  0  0  0  0  0999 V2000
    9.6540  -13.3121   19.8019 C   0  0  0  0  0  0  0  0  0  0  0  0
    8.4583  -13.3887   18.8909 C   0  0  2  0  0  0  0  0  0  0  0  0
    7.9361  -12.0111   18.6480 C   0  0  0  0  0  0  0  0  0  0  0  0
    7.3990  -14.2934   19.5294 C   0  0  0  0  0  0  0  0  0  0  0  0
    8.1090  -15.5639   19.9229 C   0  0  2  0  0  0  0  0  0  0  0  0
    7.8829  -16.5390   18.8758 N   0  0  0  0  0  0  0  0  0  0  0  0
    7.5953  -16.1287   21.1906 C   0  0  0  0  0  0  0  0  0  0  0  0
    6.3654  -16.3723   21.3839 O   0  0  0  0  0  0  0  0  0  0  0  0
    7.4979  -19.2076   22.7849 C   0  0  0  0  0  0  0  0  0  0  0  0
    8.1928  -18.3293   23.7791 C   0  0  2  0  0  0  0  0  0  0  0  0
    7.6294  -18.7367   25.1542 C   0  0  0  0  0  0  0  0  0  0  0  0
    7.9415  -16.8761   23.5909 C   0  0  2  0  0  0  0  0  0  0  0  0
    8.4524  -16.4361   22.2792 N   0  0  0  0  0  0  0  0  0  0  0  0
    8.5438  -16.0212   24.6494 C   0  0  0  0  0  0  0  0  0  0  0  0
    9.8047  -15.9402   24.7752 O   0  0  0  0  0  0  0  0  0  0  0  0
    6.1604  -11.3911   26.3251 C   0  0  0  0  0  0  0  0  0  0  0  0
    7.2260  -12.3952   26.0316 C   0  0  1  0  0  0  0  0  0  0  0  0
    8.5269  -11.6853   25.6316 C   0  0  0  0  0  0  0  0  0  0  0  0
    7.4626  -13.4666   27.0060 C   0  0  0  0  0  0  0  0  0  0  0  0
    8.4239  -14.5738   26.7141 C   0  0  2  0  0  0  0  0  0  0  0  0
    7.7848  -15.2641   25.5522 N   0  0  0  0  0  0  0  0  0  0  0  0
    8.6704  -15.5279   27.7724 C   0  0  0  0  0  0  0  0  0  0  0  0
    7.9619  -16.6903   27.9189 O   0  0  0  0  0  0  0  0  0  0  0  0
    9.5812  -15.2970   28.6286 O   0  0  0  0  0  0  0  0  0  0  0  0
  2  1  1  1
  2  3  1  0
  4  2  1  0
  4  5  1  0
  5  7  1  0
  5  6  1  6
  7  8  2  0
 10  9  1  6
 10 12  1  0
 10 11  1  0
 13  7  1  0
 12 13  1  6
 14 15  2  0
 14 12  1  0
 17 16  1  1
 17 19  1  0
 18 17  1  0
 20 19  1  1
 20 21  1  0
 21 14  1  0
 22 20  1  0
 22 23  1  0
 24 22  2  0
M  END
$$$$
