LRA.pdb
     RDKit          3D

 25 24  0  0  1  0  0  0  0  0999 V2000
    6.0133  -12.6117   26.2918 C   0  0  0  0  0  0  0  0  0  0  0  0
    7.0375  -13.4377   27.0103 C   0  0  2  0  0  0  0  0  0  0  0  0
    8.1592  -12.5027   27.5273 C   0  0  0  0  0  0  0  0  0  0  0  0
    7.6793  -14.4405   26.1279 C   0  0  0  0  0  0  0  0  0  0  0  0
    6.8621  -15.4757   25.4438 C   0  0  2  0  0  0  0  0  0  0  0  0
    6.6504  -16.5029   26.5323 N   0  0  0  0  0  0  0  0  0  0  0  0
    7.5669  -16.2460   24.3628 C   0  0  0  0  0  0  0  0  0  0  0  0
    7.8339  -17.4366   24.5744 O   0  0  0  0  0  0  0  0  0  0  0  0
    8.7073  -13.8604   15.8444 N   0  0  0  0  0  0  0  0  0  0  0  0
    7.9179  -13.4923   17.0109 C   0  0  0  0  0  0  0  0  0  0  0  0
    6.7991  -12.9729   16.8411 N   0  0  0  0  0  0  0  0  0  0  0  0
    8.4193  -13.7031   18.3168 N   0  0  0  0  0  0  0  0  0  0  0  0
    9.3801  -14.6750   18.6834 C   0  0  0  0  0  0  0  0  0  0  0  0
    8.9595  -15.8381   19.5007 C   0  0  0  0  0  0  0  0  0  0  0  0
    8.2877  -15.3552   20.7837 C   0  0  0  0  0  0  0  0  0  0  0  0
    8.5501  -16.2334   21.9812 C   0  0  2  0  0  0  0  0  0  0  0  0
    7.8856  -15.5990   23.1630 N   0  0  0  0  0  0  0  0  0  0  0  0
    9.9241  -16.4603   22.3516 C   0  0  0  0  0  0  0  0  0  0  0  0
   10.6358  -17.2154   21.5583 O   0  0  0  0  0  0  0  0  0  0  0  0
    6.0199  -12.5732   17.2768 C   0  0  0  0  0  0  0  0  0  0  0  0
   12.7243  -15.1043   24.2822 C   0  0  2  0  0  0  0  0  0  0  0  0
   12.0195  -16.2667   23.6402 N   0  0  0  0  0  0  0  0  0  0  0  0
   10.6138  -15.9644   23.4881 C   0  0  0  0  0  0  0  0  0  0  0  0
   12.1841  -17.5350   24.4332 O   0  0  0  0  0  0  0  0  0  0  0  0
   13.4677  -17.9976   24.6473 O   0  0  0  0  0  0  0  0  0  0  0  0
  2  1  1  6
  3  2  1  0
  4  2  1  0
  4  5  1  0
  5  7  1  0
  5  6  1  1
  7  8  2  0
 10 12  1  0
 10  9  1  0
 11 10  2  0
 13 14  1  0
 13 12  1  0
 14 15  1  0
 16 15  1  6
 17 16  1  0
 17  7  1  0
 18 16  1  0
 19 18  2  0
 21 20  1  6
 21 23  1  0
 21 22  1  0
 22 18  1  0
 23 24  1  0
 25 23  2  0
M  END
$$$$
