LRA.pdb
     RDKit          3D

 25 24  0  0  1  0  0  0  0  0999 V2000
    7.3655  -11.8441   20.3788 C   0  0  0  0  0  0  0  0  0  0  0  0
    8.1927  -13.0590   20.6736 C   0  0  2  0  0  0  0  0  0  0  0  0
    9.5999  -12.8666   20.0550 C   0  0  0  0  0  0  0  0  0  0  0  0
    7.6223  -14.2920   20.0816 C   0  0  0  0  0  0  0  0  0  0  0  0
    8.1937  -15.6224   20.4147 C   0  0  2  0  0  0  0  0  0  0  0  0
    7.3344  -16.5644   19.6027 N   0  0  0  0  0  0  0  0  0  0  0  0
    7.9818  -16.0816   21.8299 C   0  0  0  0  0  0  0  0  0  0  0  0
    6.8183  -16.2331   22.2260 O   0  0  0  0  0  0  0  0  0  0  0  0
   12.6805  -18.6714   27.5819 N   0  0  0  0  0  0  0  0  0  0  0  0
   12.0815  -19.9920   27.7116 C   0  0  0  0  0  0  0  0  0  0  0  0
   12.3240  -20.6655   28.7303 N   0  0  0  0  0  0  0  0  0  0  0  0
   11.2522  -20.5112   26.6899 N   0  0  0  0  0  0  0  0  0  0  0  0
   10.9249  -19.8533   25.4806 C   0  0  0  0  0  0  0  0  0  0  0  0
   10.0980  -18.6237   25.5251 C   0  0  0  0  0  0  0  0  0  0  0  0
    9.9008  -18.0792   24.1126 C   0  0  0  0  0  0  0  0  0  0  0  0
    9.0555  -16.8319   24.0487 C   0  0  2  0  0  0  0  0  0  0  0  0
    9.0968  -16.3280   22.6399 N   0  0  0  0  0  0  0  0  0  0  0  0
    9.4335  -15.7280   24.8942 C   0  0  0  0  0  0  0  0  0  0  0  0
   10.5095  -15.0666   24.5614 O   0  0  0  0  0  0  0  0  0  0  0  0
   12.1799  -21.5180   29.1879 C   0  0  0  0  0  0  0  0  0  0  0  0
    8.2929  -13.0850   26.9855 C   0  0  1  0  0  0  0  0  0  0  0  0
    9.3435  -14.1408   26.7814 N   0  0  0  0  0  0  0  0  0  0  0  0
    8.7790  -15.2618   26.0637 C   0  0  0  0  0  0  0  0  0  0  0  0
    9.9294  -14.6139   28.0843 O   0  0  0  0  0  0  0  0  0  0  0  0
   10.6255  -13.6967   28.8471 O   0  0  0  0  0  0  0  0  0  0  0  0
  2  1  1  6
  3  2  1  0
  4  2  1  0
  4  5  1  0
  5  7  1  0
  5  6  1  6
  7  8  2  0
 10 12  1  0
 10  9  1  0
 11 10  2  0
 13 14  1  0
 13 12  1  0
 14 15  1  0
 16 15  1  6
 17 16  1  0
 17  7  1  0
 18 16  1  0
 19 18  2  0
 21 20  1  6
 21 23  1  0
 21 22  1  0
 22 18  1  0
 23 24  1  0
 25 23  2  0
M  END
$$$$
