LRA.pdb
     RDKit          3D

 25 24  0  0  1  0  0  0  0  0999 V2000
    6.1073  -11.9751   25.7783 C   0  0  0  0  0  0  0  0  0  0  0  0
    6.5460  -12.9820   26.7986 C   0  0  2  0  0  0  0  0  0  0  0  0
    7.4406  -12.2735   27.8463 C   0  0  0  0  0  0  0  0  0  0  0  0
    7.3518  -14.0760   26.2071 C   0  0  0  0  0  0  0  0  0  0  0  0
    6.8328  -14.8562   25.0542 C   0  0  2  0  0  0  0  0  0  0  0  0
    5.7387  -15.6882   25.6832 N   0  0  0  0  0  0  0  0  0  0  0  0
    7.7759  -15.8810   24.4894 C   0  0  0  0  0  0  0  0  0  0  0  0
    7.8970  -16.9566   25.0911 O   0  0  0  0  0  0  0  0  0  0  0  0
    7.1740  -13.5901   17.3095 N   0  0  0  0  0  0  0  0  0  0  0  0
    8.2788  -13.3905   18.2363 C   0  0  0  0  0  0  0  0  0  0  0  0
    8.5127  -12.2417   18.6556 N   0  0  0  0  0  0  0  0  0  0  0  0
    9.0863  -14.4793   18.6408 N   0  0  0  0  0  0  0  0  0  0  0  0
    8.6165  -15.7651   18.9989 C   0  0  0  0  0  0  0  0  0  0  0  0
    8.3385  -16.0644   20.4240 C   0  0  0  0  0  0  0  0  0  0  0  0
    9.6363  -16.0198   21.2266 C   0  0  0  0  0  0  0  0  0  0  0  0
    9.4883  -16.4728   22.6574 C   0  0  2  0  0  0  0  0  0  0  0  0
    8.4709  -15.5896   23.3097 N   0  0  0  0  0  0  0  0  0  0  0  0
   10.6628  -16.4370   23.4915 C   0  0  0  0  0  0  0  0  0  0  0  0
   10.9985  -15.2794   23.9948 O   0  0  0  0  0  0  0  0  0  0  0  0
    9.1245  -11.6796   19.1717 C   0  0  0  0  0  0  0  0  0  0  0  0
   13.2751  -18.4970   25.1703 C   0  0  1  0  0  0  0  0  0  0  0  0
   12.7420  -17.2328   24.5557 N   0  0  0  0  0  0  0  0  0  0  0  0
   11.5184  -17.5144   23.8387 C   0  0  0  0  0  0  0  0  0  0  0  0
   13.7388  -16.5916   23.6285 O   0  0  0  0  0  0  0  0  0  0  0  0
   14.8442  -15.9853   24.1925 O   0  0  0  0  0  0  0  0  0  0  0  0
  2  1  1  6
  3  2  1  0
  4  2  1  0
  4  5  1  0
  5  7  1  0
  5  6  1  1
  7  8  2  0
 10 12  1  0
 10  9  1  0
 11 10  2  0
 13 14  1  0
 13 12  1  0
 14 15  1  0
 16 15  1  6
 17 16  1  0
 17  7  1  0
 18 16  1  0
 19 18  2  0
 21 20  1  1
 21 23  1  0
 21 22  1  0
 22 18  1  0
 23 24  1  0
 25 23  2  0
M  END
$$$$
