LRA.pdb
     RDKit          3D

 25 24  0  0  1  0  0  0  0  0999 V2000
    7.5227  -11.9797   27.6421 C   0  0  0  0  0  0  0  0  0  0  0  0
    6.7425  -12.2185   26.3845 C   0  0  2  0  0  0  0  0  0  0  0  0
    5.4444  -11.3745   26.4348 C   0  0  0  0  0  0  0  0  0  0  0  0
    6.3349  -13.6347   26.2291 C   0  0  0  0  0  0  0  0  0  0  0  0
    7.3579  -14.7088   26.1441 C   0  0  2  0  0  0  0  0  0  0  0  0
    8.6187  -13.9401   25.8209 N   0  0  0  0  0  0  0  0  0  0  0  0
    7.2111  -15.6515   24.9829 C   0  0  0  0  0  0  0  0  0  0  0  0
    6.2248  -16.4000   24.9604 O   0  0  0  0  0  0  0  0  0  0  0  0
    7.9581  -13.8890   16.8227 N   0  0  0  0  0  0  0  0  0  0  0  0
    8.1660  -13.4659   18.2001 C   0  0  0  0  0  0  0  0  0  0  0  0
    8.3372  -12.2560   18.4389 N   0  0  0  0  0  0  0  0  0  0  0  0
    8.1920  -14.4141   19.2496 N   0  0  0  0  0  0  0  0  0  0  0  0
    8.4162  -15.8032   19.0995 C   0  0  0  0  0  0  0  0  0  0  0  0
    8.3847  -16.6762   20.2972 C   0  0  0  0  0  0  0  0  0  0  0  0
    8.3796  -15.8219   21.5624 C   0  0  0  0  0  0  0  0  0  0  0  0
    8.2641  -16.6169   22.8386 C   0  0  2  0  0  0  0  0  0  0  0  0
    8.1805  -15.6439   23.9730 N   0  0  0  0  0  0  0  0  0  0  0  0
    9.3346  -17.5287   23.1536 C   0  0  0  0  0  0  0  0  0  0  0  0
    9.4170  -18.6177   22.4371 O   0  0  0  0  0  0  0  0  0  0  0  0
    8.5577  -11.5910   19.1214 C   0  0  0  0  0  0  0  0  0  0  0  0
   12.6813  -17.9034   24.2745 C   0  0  2  0  0  0  0  0  0  0  0  0
   11.2864  -18.4602   24.3417 N   0  0  0  0  0  0  0  0  0  0  0  0
   10.3246  -17.3958   24.1614 C   0  0  0  0  0  0  0  0  0  0  0  0
   11.0232  -19.1686   25.6430 O   0  0  0  0  0  0  0  0  0  0  0  0
   11.9250  -20.1352   26.0429 O   0  0  0  0  0  0  0  0  0  0  0  0
  2  1  1  1
  3  2  1  0
  4  2  1  0
  4  5  1  0
  5  7  1  0
  5  6  1  6
  7  8  2  0
 10 12  1  0
 10  9  1  0
 11 10  2  0
 13 14  1  0
 13 12  1  0
 14 15  1  0
 16 15  1  6
 17 16  1  0
 17  7  1  0
 18 16  1  0
 19 18  2  0
 21 20  1  6
 21 23  1  0
 21 22  1  0
 22 18  1  0
 23 24  1  0
 25 23  2  0
M  END
$$$$
