LRA.pdb
     RDKit          3D

 25 24  0  0  1  0  0  0  0  0999 V2000
    6.7396  -11.3247   25.0226 C   0  0  0  0  0  0  0  0  0  0  0  0
    6.3850  -12.0478   26.2870 C   0  0  2  0  0  0  0  0  0  0  0  0
    7.0299  -11.3052   27.4840 C   0  0  0  0  0  0  0  0  0  0  0  0
    6.8983  -13.4377   26.3097 C   0  0  0  0  0  0  0  0  0  0  0  0
    6.4240  -14.4329   25.3137 C   0  0  2  0  0  0  0  0  0  0  0  0
    5.1490  -14.9477   25.9415 N   0  0  0  0  0  0  0  0  0  0  0  0
    7.2730  -15.6653   25.1758 C   0  0  0  0  0  0  0  0  0  0  0  0
    7.2042  -16.5235   26.0659 O   0  0  0  0  0  0  0  0  0  0  0  0
   12.3022  -20.5501   21.2532 N   0  0  0  0  0  0  0  0  0  0  0  0
   12.2632  -19.7784   20.0193 C   0  0  0  0  0  0  0  0  0  0  0  0
   12.5904  -20.3314   18.9528 N   0  0  0  0  0  0  0  0  0  0  0  0
   11.8781  -18.4173   20.0320 N   0  0  0  0  0  0  0  0  0  0  0  0
   11.3941  -17.7085   21.1570 C   0  0  0  0  0  0  0  0  0  0  0  0
   10.1078  -18.1151   21.7716 C   0  0  0  0  0  0  0  0  0  0  0  0
    9.3708  -16.8849   22.2953 C   0  0  0  0  0  0  0  0  0  0  0  0
    8.9552  -16.9885   23.7412 C   0  0  2  0  0  0  0  0  0  0  0  0
    8.0970  -15.8023   24.0524 N   0  0  0  0  0  0  0  0  0  0  0  0
    9.9998  -17.0151   24.7334 C   0  0  0  0  0  0  0  0  0  0  0  0
   10.9331  -16.1064   24.6374 O   0  0  0  0  0  0  0  0  0  0  0  0
   12.7216  -20.2158   17.9905 C   0  0  0  0  0  0  0  0  0  0  0  0
   11.0710  -17.9735   28.0470 C   0  0  1  0  0  0  0  0  0  0  0  0
   11.3797  -17.9009   26.5774 N   0  0  0  0  0  0  0  0  0  0  0  0
   10.1502  -17.9190   25.8169 C   0  0  0  0  0  0  0  0  0  0  0  0
   12.2706  -19.0285   26.1311 O   0  0  0  0  0  0  0  0  0  0  0  0
   11.8162  -19.8422   25.1117 O   0  0  0  0  0  0  0  0  0  0  0  0
  2  1  1  6
  3  2  1  0
  4  2  1  0
  4  5  1  0
  5  7  1  0
  5  6  1  1
  7  8  2  0
 10 12  1  0
 10  9  1  0
 11 10  2  0
 13 14  1  0
 13 12  1  0
 14 15  1  0
 16 15  1  6
 17 16  1  0
 17  7  1  0
 18 16  1  0
 19 18  2  0
 21 20  1  1
 21 23  1  0
 21 22  1  0
 22 18  1  0
 23 24  1  0
 25 23  2  0
M  END
$$$$
