LRA.pdb
     RDKit          3D

 25 24  0  0  1  0  0  0  0  0999 V2000
    7.5905  -12.5118   27.1356 C   0  0  0  0  0  0  0  0  0  0  0  0
    6.5606  -12.4636   26.0473 C   0  0  2  0  0  0  0  0  0  0  0  0
    5.3441  -11.6452   26.5475 C   0  0  0  0  0  0  0  0  0  0  0  0
    6.0587  -13.8088   25.6803 C   0  0  0  0  0  0  0  0  0  0  0  0
    7.0079  -14.9133   25.3863 C   0  0  2  0  0  0  0  0  0  0  0  0
    8.3306  -14.3443   25.8462 N   0  0  0  0  0  0  0  0  0  0  0  0
    7.2343  -15.2008   23.9286 C   0  0  0  0  0  0  0  0  0  0  0  0
    6.4801  -16.0082   23.3693 O   0  0  0  0  0  0  0  0  0  0  0  0
    9.0683  -13.5641   16.9469 N   0  0  0  0  0  0  0  0  0  0  0  0
    7.9068  -14.4381   16.8684 C   0  0  0  0  0  0  0  0  0  0  0  0
    7.4200  -14.6937   15.7513 N   0  0  0  0  0  0  0  0  0  0  0  0
    7.3274  -14.9747   18.0422 N   0  0  0  0  0  0  0  0  0  0  0  0
    7.7962  -14.7674   19.3612 C   0  0  0  0  0  0  0  0  0  0  0  0
    8.2651  -13.4189   19.7603 C   0  0  0  0  0  0  0  0  0  0  0  0
    8.8606  -13.4711   21.1650 C   0  0  0  0  0  0  0  0  0  0  0  0
    8.7029  -14.8060   21.8487 C   0  0  2  0  0  0  0  0  0  0  0  0
    8.2743  -14.5453   23.2590 N   0  0  0  0  0  0  0  0  0  0  0  0
    9.8626  -15.6583   21.9196 C   0  0  0  0  0  0  0  0  0  0  0  0
   10.4015  -16.0229   20.7870 O   0  0  0  0  0  0  0  0  0  0  0  0
    6.7393  -15.1991   15.2636 C   0  0  0  0  0  0  0  0  0  0  0  0
   12.8055  -16.5786   23.6725 C   0  0  2  0  0  0  0  0  0  0  0  0
   11.6044  -17.0879   22.9252 N   0  0  0  0  0  0  0  0  0  0  0  0
   10.5028  -16.1644   23.0804 C   0  0  0  0  0  0  0  0  0  0  0  0
   11.1893  -18.4577   23.3897 O   0  0  0  0  0  0  0  0  0  0  0  0
   12.1302  -19.4674   23.3365 O   0  0  0  0  0  0  0  0  0  0  0  0
  2  1  1  1
  3  2  1  0
  4  2  1  0
  4  5  1  0
  5  7  1  0
  5  6  1  6
  7  8  2  0
 10 12  1  0
 10  9  1  0
 11 10  2  0
 13 14  1  0
 13 12  1  0
 14 15  1  0
 16 15  1  1
 17 16  1  0
 17  7  1  0
 18 16  1  0
 19 18  2  0
 21 20  1  6
 21 23  1  0
 21 22  1  0
 22 18  1  0
 23 24  1  0
 25 23  2  0
M  END
$$$$
