LRA.pdb
     RDKit          3D

 25 24  0  0  1  0  0  0  0  0999 V2000
    6.4419  -11.5270   25.2496 C   0  0  0  0  0  0  0  0  0  0  0  0
    6.6351  -12.2673   26.5387 C   0  0  2  0  0  0  0  0  0  0  0  0
    7.6128  -11.4648   27.4332 C   0  0  0  0  0  0  0  0  0  0  0  0
    7.2301  -13.6097   26.3393 C   0  0  0  0  0  0  0  0  0  0  0  0
    6.6398  -14.5581   25.3597 C   0  0  2  0  0  0  0  0  0  0  0  0
    5.3537  -14.9746   26.0359 N   0  0  0  0  0  0  0  0  0  0  0  0
    7.3826  -15.8528   25.1845 C   0  0  0  0  0  0  0  0  0  0  0  0
    7.2240  -16.7363   26.0376 O   0  0  0  0  0  0  0  0  0  0  0  0
   11.9478  -18.0328   17.6496 N   0  0  0  0  0  0  0  0  0  0  0  0
   11.8111  -19.1705   18.5476 C   0  0  0  0  0  0  0  0  0  0  0  0
   12.6886  -20.0538   18.5381 N   0  0  0  0  0  0  0  0  0  0  0  0
   10.6912  -19.2822   19.4048 N   0  0  0  0  0  0  0  0  0  0  0  0
   10.1187  -18.2270   20.1538 C   0  0  0  0  0  0  0  0  0  0  0  0
    9.9254  -18.3961   21.6138 C   0  0  0  0  0  0  0  0  0  0  0  0
    9.2279  -17.1669   22.1911 C   0  0  0  0  0  0  0  0  0  0  0  0
    8.8663  -17.2955   23.6495 C   0  0  2  0  0  0  0  0  0  0  0  0
    8.2126  -16.0160   24.0690 N   0  0  0  0  0  0  0  0  0  0  0  0
    9.9380  -17.5377   24.5818 C   0  0  0  0  0  0  0  0  0  0  0  0
   10.7357  -16.5369   24.8424 O   0  0  0  0  0  0  0  0  0  0  0  0
   12.9854  -20.9013   18.9259 C   0  0  0  0  0  0  0  0  0  0  0  0
   11.0331  -19.6044   27.3746 C   0  0  1  0  0  0  0  0  0  0  0  0
   11.3692  -18.7678   26.1715 N   0  0  0  0  0  0  0  0  0  0  0  0
   10.2460  -18.7446   25.2614 C   0  0  0  0  0  0  0  0  0  0  0  0
   12.5931  -19.2730   25.4564 O   0  0  0  0  0  0  0  0  0  0  0  0
   13.7850  -19.2888   26.1542 O   0  0  0  0  0  0  0  0  0  0  0  0
  2  1  1  6
  3  2  1  0
  4  2  1  0
  4  5  1  0
  5  7  1  0
  5  6  1  1
  7  8  2  0
 10 12  1  0
 10  9  1  0
 11 10  2  0
 13 14  1  0
 13 12  1  0
 14 15  1  0
 16 15  1  6
 17 16  1  0
 17  7  1  0
 18 16  1  0
 19 18  2  0
 21 20  1  1
 21 23  1  0
 21 22  1  0
 22 18  1  0
 23 24  1  0
 25 23  2  0
M  END
$$$$
