RGL.pdb
     RDKit          3D

 24 23  0  0  1  0  0  0  0  0999 V2000
    8.9448  -12.6517   17.7824 N   0  0  0  0  0  0  0  0  0  0  0  0
    7.8899  -13.5133   17.3829 C   0  0  0  0  0  0  0  0  0  0  0  0
    7.7758  -13.7810   16.1271 N   0  0  0  0  0  0  0  0  0  0  0  0
    6.9568  -14.0879   18.3180 N   0  0  0  0  0  0  0  0  0  0  0  0
    7.2184  -15.3149   18.9754 C   0  0  0  0  0  0  0  0  0  0  0  0
    8.0912  -16.3250   18.3628 C   0  0  0  0  0  0  0  0  0  0  0  0
    8.2932  -17.6361   18.9933 C   0  0  0  0  0  0  0  0  0  0  0  0
    9.0624  -17.7428   20.2544 C   0  0  2  0  0  0  0  0  0  0  0  0
    9.7240  -18.9916   20.4961 N   0  0  0  0  0  0  0  0  0  0  0  0
    8.1659  -17.5286   21.4433 C   0  0  0  0  0  0  0  0  0  0  0  0
    6.9657  -17.9055   21.4319 O   0  0  0  0  0  0  0  0  0  0  0  0
    6.9863  -14.3686   15.7945 N   0  0  0  0  0  0  0  0  0  0  0  0
    8.6591  -16.8952   22.6037 C   0  0  0  0  0  0  0  0  0  0  0  0
    8.3251  -15.4913   22.8972 C   0  0  0  0  0  0  0  0  0  0  0  0
    9.0334  -15.0230   24.1092 O   0  0  0  0  0  0  0  0  0  0  0  0
   10.1836  -14.4969   24.0615 C   0  0  0  0  0  0  0  0  0  0  0  0
    8.0591  -11.7031   25.6884 C   0  0  2  0  0  0  0  0  0  0  0  0
    7.1425  -12.8173   26.2379 C   0  0  0  0  0  0  0  0  0  0  0  0
    5.9955  -12.0660   26.9172 C   0  0  0  0  0  0  0  0  0  0  0  0
    7.9721  -13.6039   27.1868 C   0  0  2  0  0  0  0  0  0  0  0  0
    8.8892  -14.6174   26.5979 N   0  0  0  0  0  0  0  0  0  0  0  0
    8.3879  -15.1760   25.3566 C   0  0  0  0  0  0  0  0  0  0  0  0
    9.2760  -15.7230   27.4954 O   0  0  0  0  0  0  0  0  0  0  0  0
    9.0620  -17.0550   27.1778 O   0  0  0  0  0  0  0  0  0  0  0  0
  1  2  1  0
  2  3  2  0
  4  2  1  0
  5  4  1  0
  6  5  1  0
  7  6  1  0
  8  7  1  0
  8 10  1  0
  8  9  1  1
 10 11  2  0
 10 12  1  0
 12 13  1  0
 14 21  1  0
 14 13  1  0
 15 14  2  0
 17 18  1  1
 17 16  1  0
 19 17  1  0
 20 22  1  0
 20 19  1  6
 20 21  1  0
 22 23  1  0
 24 22  2  0
M  END
$$$$
