RGL.pdb
     RDKit          3D

 24 23  0  0  1  0  0  0  0  0999 V2000
    8.2788  -12.4423   15.0330 N   0  0  0  0  0  0  0  0  0  0  0  0
    8.3523  -13.7948   14.6087 C   0  0  0  0  0  0  0  0  0  0  0  0
    7.8004  -14.1028   13.4852 N   0  0  0  0  0  0  0  0  0  0  0  0
    9.0106  -14.8184   15.3796 N   0  0  0  0  0  0  0  0  0  0  0  0
    8.7793  -14.9719   16.7685 C   0  0  0  0  0  0  0  0  0  0  0  0
    7.5836  -14.3980   17.3996 C   0  0  0  0  0  0  0  0  0  0  0  0
    7.3148  -14.5901   18.8308 C   0  0  0  0  0  0  0  0  0  0  0  0
    8.3044  -15.2859   19.6851 C   0  0  2  0  0  0  0  0  0  0  0  0
    8.5842  -16.6530   19.3559 N   0  0  0  0  0  0  0  0  0  0  0  0
    7.8484  -15.3052   21.1187 C   0  0  0  0  0  0  0  0  0  0  0  0
    7.4669  -14.2548   21.6963 O   0  0  0  0  0  0  0  0  0  0  0  0
    7.8602  -15.0777   13.1312 N   0  0  0  0  0  0  0  0  0  0  0  0
    7.8403  -16.5128   21.8484 C   0  0  0  0  0  0  0  0  0  0  0  0
    7.3629  -16.5500   23.2411 C   0  0  0  0  0  0  0  0  0  0  0  0
    8.3388  -15.9088   24.1502 O   0  0  0  0  0  0  0  0  0  0  0  0
    9.5849  -15.9278   23.9297 C   0  0  0  0  0  0  0  0  0  0  0  0
    7.2526  -11.1986   26.9002 C   0  0  2  0  0  0  0  0  0  0  0  0
    7.3901  -12.4999   26.0809 C   0  0  0  0  0  0  0  0  0  0  0  0
    5.9500  -12.8887   25.7396 C   0  0  0  0  0  0  0  0  0  0  0  0
    8.0669  -13.4784   26.9706 C   0  0  2  0  0  0  0  0  0  0  0  0
    8.6916  -14.6611   26.3178 N   0  0  0  0  0  0  0  0  0  0  0  0
    7.8443  -15.2557   25.3015 C   0  0  0  0  0  0  0  0  0  0  0  0
    9.1538  -15.7226   27.2327 O   0  0  0  0  0  0  0  0  0  0  0  0
   10.3099  -15.6084   27.9884 O   0  0  0  0  0  0  0  0  0  0  0  0
  1  2  1  0
  2  3  2  0
  4  2  1  0
  5  4  1  0
  6  5  1  0
  7  6  1  0
  8  7  1  0
  8 10  1  0
  8  9  1  6
 10 11  2  0
 10 12  1  0
 12 13  1  0
 14 21  1  0
 14 13  1  0
 15 14  2  0
 17 18  1  1
 17 16  1  0
 19 17  1  0
 20 22  1  0
 20 19  1  6
 20 21  1  0
 22 23  1  0
 24 22  2  0
M  END
$$$$
