RGL.pdb
     RDKit          3D

 24 23  0  0  1  0  0  0  0  0999 V2000
    9.0093  -15.0461   14.2754 N   0  0  0  0  0  0  0  0  0  0  0  0
    8.4863  -13.8446   14.8211 C   0  0  0  0  0  0  0  0  0  0  0  0
    8.3086  -12.8491   14.0218 N   0  0  0  0  0  0  0  0  0  0  0  0
    8.1545  -13.7022   16.2158 N   0  0  0  0  0  0  0  0  0  0  0  0
    8.3866  -14.7426   17.1485 C   0  0  0  0  0  0  0  0  0  0  0  0
    7.6018  -15.9832   17.1018 C   0  0  0  0  0  0  0  0  0  0  0  0
    7.8507  -17.0748   18.0527 C   0  0  0  0  0  0  0  0  0  0  0  0
    8.7560  -16.8630   19.2054 C   0  0  2  0  0  0  0  0  0  0  0  0
    9.7188  -17.8944   19.4603 N   0  0  0  0  0  0  0  0  0  0  0  0
    7.9695  -16.7264   20.4806 C   0  0  0  0  0  0  0  0  0  0  0  0
    6.9610  -17.4441   20.7053 O   0  0  0  0  0  0  0  0  0  0  0  0
    7.9028  -11.9635   14.3830 N   0  0  0  0  0  0  0  0  0  0  0  0
    8.3518  -15.7822   21.4568 C   0  0  0  0  0  0  0  0  0  0  0  0
    7.5823  -15.6315   22.7034 C   0  0  0  0  0  0  0  0  0  0  0  0
    8.4434  -15.1288   23.7970 O   0  0  0  0  0  0  0  0  0  0  0  0
    9.6337  -14.7459   23.6013 C   0  0  0  0  0  0  0  0  0  0  0  0
    7.3747  -11.7164   25.3316 C   0  0  1  0  0  0  0  0  0  0  0  0
    6.5910  -12.7732   26.1394 C   0  0  0  0  0  0  0  0  0  0  0  0
    5.6124  -11.9563   26.9860 C   0  0  0  0  0  0  0  0  0  0  0  0
    7.5989  -13.5046   26.9496 C   0  0  2  0  0  0  0  0  0  0  0  0
    8.5340  -14.3980   26.2130 N   0  0  0  0  0  0  0  0  0  0  0  0
    7.9010  -15.0810   25.1008 C   0  0  0  0  0  0  0  0  0  0  0  0
    9.2471  -15.3919   27.0383 O   0  0  0  0  0  0  0  0  0  0  0  0
   10.2016  -15.0376   27.9787 O   0  0  0  0  0  0  0  0  0  0  0  0
  1  2  1  0
  2  3  2  0
  4  2  1  0
  5  4  1  0
  6  5  1  0
  7  6  1  0
  8  7  1  0
  8 10  1  0
  8  9  1  1
 10 11  2  0
 10 12  1  0
 12 13  1  0
 14 21  1  0
 14 13  1  0
 15 14  2  0
 17 18  1  1
 17 16  1  0
 19 17  1  0
 20 22  1  0
 20 19  1  6
 20 21  1  0
 22 23  1  0
 24 22  2  0
M  END
$$$$
