RGL.pdb
     RDKit          3D

 24 23  0  0  1  0  0  0  0  0999 V2000
    3.0997  -21.2029   20.1923 N   0  0  0  0  0  0  0  0  0  0  0  0
    1.9627  -20.4454   19.8071 C   0  0  0  0  0  0  0  0  0  0  0  0
    1.0793  -21.0222   19.0665 N   0  0  0  0  0  0  0  0  0  0  0  0
    1.7670  -19.0756   20.2079 N   0  0  0  0  0  0  0  0  0  0  0  0
    2.8488  -18.2520   20.6051 C   0  0  0  0  0  0  0  0  0  0  0  0
    4.0660  -18.1636   19.7879 C   0  0  0  0  0  0  0  0  0  0  0  0
    5.1818  -17.2927   20.1804 C   0  0  0  0  0  0  0  0  0  0  0  0
    6.0409  -17.6594   21.3296 C   0  0  2  0  0  0  0  0  0  0  0  0
    5.4881  -17.4456   22.6351 N   0  0  0  0  0  0  0  0  0  0  0  0
    7.3242  -16.8745   21.3055 C   0  0  0  0  0  0  0  0  0  0  0  0
    7.9433  -16.6691   20.2298 O   0  0  0  0  0  0  0  0  0  0  0  0
    0.2164  -20.5094   18.7986 N   0  0  0  0  0  0  0  0  0  0  0  0
    7.8619  -16.3497   22.4997 C   0  0  0  0  0  0  0  0  0  0  0  0
    9.0940  -15.5432   22.4824 C   0  0  0  0  0  0  0  0  0  0  0  0
    9.4501  -15.0952   23.8471 O   0  0  0  0  0  0  0  0  0  0  0  0
   10.5108  -14.4502   24.0937 C   0  0  0  0  0  0  0  0  0  0  0  0
    8.0039  -11.9466   26.1150 C   0  0  2  0  0  0  0  0  0  0  0  0
    7.1109  -13.2000   25.9921 C   0  0  0  0  0  0  0  0  0  0  0  0
    5.7332  -12.7338   26.4675 C   0  0  0  0  0  0  0  0  0  0  0  0
    7.7192  -14.2286   26.8748 C   0  0  2  0  0  0  0  0  0  0  0  0
    8.8053  -15.0606   26.2889 N   0  0  0  0  0  0  0  0  0  0  0  0
    8.5625  -15.4068   24.9013 C   0  0  0  0  0  0  0  0  0  0  0  0
    9.1382  -16.2894   27.0349 O   0  0  0  0  0  0  0  0  0  0  0  0
    9.1244  -17.5464   26.4513 O   0  0  0  0  0  0  0  0  0  0  0  0
  1  2  1  0
  2  3  2  0
  4  2  1  0
  5  4  1  0
  6  5  1  0
  7  6  1  0
  8  7  1  0
  8 10  1  0
  8  9  1  1
 10 11  2  0
 10 12  1  0
 12 13  1  0
 14 21  1  0
 14 13  1  0
 15 14  2  0
 17 18  1  1
 17 16  1  0
 19 17  1  0
 20 22  1  0
 20 19  1  6
 20 21  1  0
 22 23  1  0
 24 22  2  0
M  END
$$$$
