GDV.pdb
     RDKit          3D

 20 19  0  0  1  0  0  0  0  0999 V2000
    7.2746  -13.2756   19.0254 N   0  0  0  0  0  0  0  0  0  0  0  0
    8.4673  -13.4204   19.8028 C   0  0  0  0  0  0  0  0  0  0  0  0
    8.2141  -14.2481   21.0219 C   0  0  0  0  0  0  0  0  0  0  0  0
    7.0974  -14.2995   21.5567 O   0  0  0  0  0  0  0  0  0  0  0  0
    9.2803  -14.9985   21.5868 N   0  0  0  0  0  0  0  0  0  0  0  0
    9.1469  -15.8281   22.7677 C   0  0  1  0  0  0  0  0  0  0  0  0
   10.2543  -16.8424   22.8043 C   0  0  0  0  0  0  0  0  0  0  0  0
   10.1224  -17.8705   21.7563 C   0  0  0  0  0  0  0  0  0  0  0  0
    8.9741  -18.3067   21.4884 O   0  0  0  0  0  0  0  0  0  0  0  0
    9.3288  -14.9046   23.9463 C   0  0  0  0  0  0  0  0  0  0  0  0
   10.3681  -14.1867   24.0034 O   0  0  0  0  0  0  0  0  0  0  0  0
   11.1874  -18.3880   21.0456 O   0  0  0  0  0  0  0  0  0  0  0  0
    7.2187  -12.1582   24.9926 C   0  0  0  0  0  0  0  0  0  0  0  0
    7.3928  -13.0080   26.2465 C   0  0  1  0  0  0  0  0  0  0  0  0
    6.1403  -13.8074   26.5241 C   0  0  0  0  0  0  0  0  0  0  0  0
    8.6079  -13.9037   26.1109 C   0  0  2  0  0  0  0  0  0  0  0  0
    8.3976  -14.8001   24.9902 N   0  0  0  0  0  0  0  0  0  0  0  0
    8.8881  -14.6627   27.3310 C   0  0  0  0  0  0  0  0  0  0  0  0
    9.2413  -14.0649   28.3703 O   0  0  0  0  0  0  0  0  0  0  0  0
    8.7622  -16.0355   27.3320 O   0  0  0  0  0  0  0  0  0  0  0  0
  2  1  1  0
  2  3  1  0
  3  4  2  0
  3  5  1  0
  5  6  1  0
  6  7  1  6
  7  8  1  0
  8 12  1  0
  9  8  2  0
 10 11  2  0
 10  6  1  0
 14 13  1  6
 15 14  1  0
 16 14  1  0
 16 17  1  6
 17 10  1  0
 18 16  1  0
 19 18  2  0
 20 18  1  0
M  END
$$$$
