GDV.pdb
     RDKit          3D

 20 19  0  0  1  0  0  0  0  0999 V2000
    5.9263  -14.3926   19.4530 N   0  0  0  0  0  0  0  0  0  0  0  0
    7.2465  -14.4847   19.9974 C   0  0  0  0  0  0  0  0  0  0  0  0
    7.2154  -15.0396   21.3854 C   0  0  0  0  0  0  0  0  0  0  0  0
    6.1522  -15.1990   22.0019 O   0  0  0  0  0  0  0  0  0  0  0  0
    8.4360  -15.3956   22.0196 N   0  0  0  0  0  0  0  0  0  0  0  0
    8.5144  -16.0529   23.3090 C   0  0  1  0  0  0  0  0  0  0  0  0
    9.6256  -17.0637   23.2976 C   0  0  0  0  0  0  0  0  0  0  0  0
    9.6796  -17.8676   24.5319 C   0  0  0  0  0  0  0  0  0  0  0  0
    8.7191  -17.7880   25.3392 O   0  0  0  0  0  0  0  0  0  0  0  0
    8.8797  -14.9776   24.3015 C   0  0  0  0  0  0  0  0  0  0  0  0
    9.9611  -14.3423   24.1414 O   0  0  0  0  0  0  0  0  0  0  0  0
   10.7254  -18.7079   24.8595 O   0  0  0  0  0  0  0  0  0  0  0  0
    7.0862  -11.8704   25.1946 C   0  0  0  0  0  0  0  0  0  0  0  0
    7.3076  -12.6387   26.4928 C   0  0  1  0  0  0  0  0  0  0  0  0
    6.0397  -13.3458   26.9139 C   0  0  0  0  0  0  0  0  0  0  0  0
    8.4627  -13.6080   26.3405 C   0  0  2  0  0  0  0  0  0  0  0  0
    8.0756  -14.6433   25.4014 N   0  0  0  0  0  0  0  0  0  0  0  0
    8.8757  -14.1981   27.6150 C   0  0  0  0  0  0  0  0  0  0  0  0
    8.6269  -15.3990   27.8562 O   0  0  0  0  0  0  0  0  0  0  0  0
    9.5384  -13.4287   28.5474 O   0  0  0  0  0  0  0  0  0  0  0  0
  2  1  1  0
  2  3  1  0
  3  4  2  0
  3  5  1  0
  5  6  1  0
  6  7  1  6
  7  8  1  0
  8 12  1  0
  9  8  2  0
 10 11  2  0
 10  6  1  0
 14 13  1  6
 15 14  1  0
 16 14  1  0
 16 17  1  6
 17 10  1  0
 18 16  1  0
 19 18  2  0
 20 18  1  0
M  END
$$$$
