GDV.pdb
     RDKit          3D

 20 19  0  0  1  0  0  0  0  0999 V2000
    7.0698  -12.9289   18.4755 N   0  0  0  0  0  0  0  0  0  0  0  0
    8.2571  -13.0951   19.2568 C   0  0  0  0  0  0  0  0  0  0  0  0
    8.0007  -13.9726   20.4398 C   0  0  0  0  0  0  0  0  0  0  0  0
    6.8600  -14.3587   20.7322 O   0  0  0  0  0  0  0  0  0  0  0  0
    9.0919  -14.3778   21.2547 N   0  0  0  0  0  0  0  0  0  0  0  0
    8.9788  -15.3323   22.3395 C   0  0  1  0  0  0  0  0  0  0  0  0
   10.2030  -16.2019   22.3813 C   0  0  0  0  0  0  0  0  0  0  0  0
   10.2495  -17.1767   21.2766 C   0  0  0  0  0  0  0  0  0  0  0  0
    9.2010  -17.8106   20.9947 O   0  0  0  0  0  0  0  0  0  0  0  0
    8.9492  -14.5171   23.6081 C   0  0  0  0  0  0  0  0  0  0  0  0
    9.1829  -13.2763   23.5409 O   0  0  0  0  0  0  0  0  0  0  0  0
   11.3794  -17.4393   20.5272 O   0  0  0  0  0  0  0  0  0  0  0  0
    6.8698  -12.4916   26.9305 C   0  0  0  0  0  0  0  0  0  0  0  0
    7.2242  -13.3419   25.7155 C   0  0  1  0  0  0  0  0  0  0  0  0
    7.4840  -12.4654   24.5118 C   0  0  0  0  0  0  0  0  0  0  0  0
    8.4113  -14.2323   26.0241 C   0  0  2  0  0  0  0  0  0  0  0  0
    8.6737  -15.0684   24.8683 N   0  0  0  0  0  0  0  0  0  0  0  0
    8.2046  -15.0546   27.2175 C   0  0  0  0  0  0  0  0  0  0  0  0
    7.5654  -16.1254   27.1342 O   0  0  0  0  0  0  0  0  0  0  0  0
    8.7152  -14.6469   28.4314 O   0  0  0  0  0  0  0  0  0  0  0  0
  2  1  1  0
  2  3  1  0
  3  4  2  0
  3  5  1  0
  5  6  1  0
  6  7  1  1
  7  8  1  0
  8 12  1  0
  9  8  2  0
 10 11  2  0
 10  6  1  0
 14 13  1  1
 15 14  1  0
 16 14  1  0
 16 17  1  6
 17 10  1  0
 18 16  1  0
 19 18  2  0
 20 18  1  0
M  END
$$$$
