GDV.pdb
     RDKit          3D

 20 19  0  0  1  0  0  0  0  0999 V2000
   11.1893  -13.9804   19.4070 N   0  0  0  0  0  0  0  0  0  0  0  0
   11.0420  -15.1906   20.1564 C   0  0  0  0  0  0  0  0  0  0  0  0
    9.8018  -15.1558   20.9907 C   0  0  0  0  0  0  0  0  0  0  0  0
    8.7671  -14.5964   20.6004 O   0  0  0  0  0  0  0  0  0  0  0  0
    9.8046  -15.7798   22.2672 N   0  0  0  0  0  0  0  0  0  0  0  0
    8.6230  -15.9372   23.0916 C   0  0  1  0  0  0  0  0  0  0  0  0
    8.4232  -17.3889   23.4220 C   0  0  0  0  0  0  0  0  0  0  0  0
    7.2367  -17.6254   24.2640 C   0  0  0  0  0  0  0  0  0  0  0  0
    7.4079  -18.0808   25.4232 O   0  0  0  0  0  0  0  0  0  0  0  0
    8.9150  -15.2075   24.3789 C   0  0  0  0  0  0  0  0  0  0  0  0
   10.0578  -15.3333   24.9050 O   0  0  0  0  0  0  0  0  0  0  0  0
    5.9406  -17.3766   23.8571 O   0  0  0  0  0  0  0  0  0  0  0  0
    7.2315  -11.6541   25.3740 C   0  0  0  0  0  0  0  0  0  0  0  0
    7.2416  -12.6538   26.5251 C   0  0  1  0  0  0  0  0  0  0  0  0
    5.8660  -13.2479   26.7244 C   0  0  0  0  0  0  0  0  0  0  0  0
    8.2831  -13.7275   26.2809 C   0  0  2  0  0  0  0  0  0  0  0  0
    7.9772  -14.3905   25.0277 N   0  0  0  0  0  0  0  0  0  0  0  0
    8.3572  -14.7002   27.3725 C   0  0  0  0  0  0  0  0  0  0  0  0
    7.8559  -15.8363   27.2309 O   0  0  0  0  0  0  0  0  0  0  0  0
    8.9799  -14.3619   28.5550 O   0  0  0  0  0  0  0  0  0  0  0  0
  2  1  1  0
  2  3  1  0
  3  4  2  0
  3  5  1  0
  5  6  1  0
  6  7  1  1
  7  8  1  0
  8 12  1  0
  9  8  2  0
 10 11  2  0
 10  6  1  0
 14 13  1  6
 15 14  1  0
 16 14  1  0
 16 17  1  6
 17 10  1  0
 18 16  1  0
 19 18  2  0
 20 18  1  0
M  END
$$$$
