ICT.pdb
     RDKit          3D

 22 21  0  0  1  0  0  0  0  0999 V2000
    5.8741  -11.4677   27.3297 C   0  0  0  0  0  0  0  0  0  0  0  0
    5.5002  -12.6381   26.4364 C   0  0  0  0  0  0  0  0  0  0  0  0
    6.7235  -13.3676   25.9571 C   0  0  2  0  0  0  0  0  0  0  0  0
    7.7100  -12.4201   25.3145 C   0  0  0  0  0  0  0  0  0  0  0  0
    6.4122  -14.5574   25.1209 C   0  0  2  0  0  0  0  0  0  0  0  0
    5.5336  -15.4456   25.9339 N   0  0  0  0  0  0  0  0  0  0  0  0
    7.5345  -15.3813   24.6875 C   0  0  0  0  0  0  0  0  0  0  0  0
    8.0189  -16.2418   25.4921 O   0  0  0  0  0  0  0  0  0  0  0  0
    8.1902  -15.3530   23.4220 N   0  0  0  0  0  0  0  0  0  0  0  0
    9.3496  -16.1263   23.1050 C   0  0  1  0  0  0  0  0  0  0  0  0
    9.6774  -15.7747   21.6371 C   0  0  0  0  0  0  0  0  0  0  0  0
    8.1655  -15.6957   20.6534 S   0  0  0  0  0  0  0  0  0  0  0  0
   10.5117  -15.9561   23.9654 C   0  0  0  0  0  0  0  0  0  0  0  0
   11.5200  -15.3199   23.4949 O   0  0  0  0  0  0  0  0  0  0  0  0
   10.8988  -14.3319   27.5397 C   0  0  0  0  0  0  0  0  0  0  0  0
   11.5114  -15.7129   27.4919 C   0  0  1  0  0  0  0  0  0  0  0  0
   10.6833  -16.5820   28.1532 O   0  0  0  0  0  0  0  0  0  0  0  0
   11.8501  -16.1359   26.0904 C   0  0  2  0  0  0  0  0  0  0  0  0
   10.6670  -16.4218   25.2992 N   0  0  0  0  0  0  0  0  0  0  0  0
   12.7838  -17.2716   26.1235 C   0  0  0  0  0  0  0  0  0  0  0  0
   12.4689  -18.5095   25.6415 O   0  0  0  0  0  0  0  0  0  0  0  0
   13.9253  -17.0884   26.6206 O   0  0  0  0  0  0  0  0  0  0  0  0
  2  1  1  0
  2  3  1  0
  3  5  1  0
  3  4  1  6
  5  7  1  0
  5  6  1  1
  7  9  1  0
  7  8  2  0
  9 10  1  0
 10 11  1  6
 10 13  1  0
 12 11  1  0
 13 14  2  0
 16 15  1  6
 16 18  1  0
 17 16  1  0
 18 20  1  0
 18 19  1  1
 19 13  1  0
 20 21  1  0
 22 20  2  0
M  END
$$$$
