ICT.pdb
     RDKit          3D

 22 21  0  0  1  0  0  0  0  0999 V2000
    6.7114  -13.4851   18.8875 C   0  0  0  0  0  0  0  0  0  0  0  0
    8.0019  -13.5050   19.6887 C   0  0  0  0  0  0  0  0  0  0  0  0
    7.7877  -14.1097   21.0477 C   0  0  2  0  0  0  0  0  0  0  0  0
    6.6429  -13.4395   21.7716 C   0  0  0  0  0  0  0  0  0  0  0  0
    9.0318  -14.1982   21.8578 C   0  0  2  0  0  0  0  0  0  0  0  0
    9.9840  -15.0626   21.1040 N   0  0  0  0  0  0  0  0  0  0  0  0
    8.9212  -14.7800   23.1902 C   0  0  0  0  0  0  0  0  0  0  0  0
    9.4055  -15.9388   23.4028 O   0  0  0  0  0  0  0  0  0  0  0  0
    8.3182  -14.1952   24.3420 N   0  0  0  0  0  0  0  0  0  0  0  0
    8.3721  -14.7678   25.6504 C   0  0  1  0  0  0  0  0  0  0  0  0
    7.7165  -13.7185   26.5750 C   0  0  0  0  0  0  0  0  0  0  0  0
    8.5727  -12.1346   26.4402 S   0  0  0  0  0  0  0  0  0  0  0  0
    7.7664  -16.0807   25.8216 C   0  0  0  0  0  0  0  0  0  0  0  0
    6.5135  -16.2007   25.5795 O   0  0  0  0  0  0  0  0  0  0  0  0
    7.3328  -18.6457   23.7955 C   0  0  0  0  0  0  0  0  0  0  0  0
    7.9342  -19.3402   24.9957 C   0  0  1  0  0  0  0  0  0  0  0  0
    9.2447  -19.6328   24.7208 O   0  0  0  0  0  0  0  0  0  0  0  0
    7.7338  -18.5591   26.2637 C   0  0  2  0  0  0  0  0  0  0  0  0
    8.4136  -17.2766   26.2348 N   0  0  0  0  0  0  0  0  0  0  0  0
    8.1342  -19.3739   27.4206 C   0  0  0  0  0  0  0  0  0  0  0  0
    7.5658  -20.5797   27.7153 O   0  0  0  0  0  0  0  0  0  0  0  0
    9.0439  -18.9343   28.1710 O   0  0  0  0  0  0  0  0  0  0  0  0
  2  1  1  0
  2  3  1  0
  3  5  1  0
  3  4  1  1
  5  7  1  0
  5  6  1  6
  7  9  1  0
  7  8  2  0
  9 10  1  0
 10 11  1  1
 10 13  1  0
 12 11  1  0
 13 14  2  0
 16 15  1  6
 16 18  1  0
 17 16  1  0
 18 20  1  0
 18 19  1  6
 19 13  1  0
 20 21  1  0
 22 20  2  0
M  END
$$$$
