ICT.pdb
     RDKit          3D

 22 21  0  0  1  0  0  0  0  0999 V2000
    7.6024  -11.7951   19.8804 C   0  0  0  0  0  0  0  0  0  0  0  0
    7.3337  -13.0693   20.6627 C   0  0  0  0  0  0  0  0  0  0  0  0
    8.2964  -14.1567   20.2761 C   0  0  2  0  0  0  0  0  0  0  0  0
    8.2123  -14.4635   18.7988 C   0  0  0  0  0  0  0  0  0  0  0  0
    8.2018  -15.3639   21.1396 C   0  0  2  0  0  0  0  0  0  0  0  0
    6.7755  -15.7970   21.1311 N   0  0  0  0  0  0  0  0  0  0  0  0
    8.5730  -15.2130   22.5416 C   0  0  0  0  0  0  0  0  0  0  0  0
    9.7784  -14.9253   22.8362 O   0  0  0  0  0  0  0  0  0  0  0  0
    7.7253  -15.3470   23.6799 N   0  0  0  0  0  0  0  0  0  0  0  0
    8.1937  -15.3429   25.0302 C   0  0  1  0  0  0  0  0  0  0  0  0
    7.0500  -14.7054   25.8496 C   0  0  0  0  0  0  0  0  0  0  0  0
    6.8122  -12.9817   25.3680 S   0  0  0  0  0  0  0  0  0  0  0  0
    8.6008  -16.6233   25.5912 C   0  0  0  0  0  0  0  0  0  0  0  0
    7.7205  -17.5513   25.6720 O   0  0  0  0  0  0  0  0  0  0  0  0
   10.5661  -19.2863   24.2966 C   0  0  0  0  0  0  0  0  0  0  0  0
   11.1476  -19.0472   25.6712 C   0  0  1  0  0  0  0  0  0  0  0  0
   12.3693  -18.4422   25.5303 O   0  0  0  0  0  0  0  0  0  0  0  0
   10.1971  -18.3069   26.5692 C   0  0  2  0  0  0  0  0  0  0  0  0
    9.8904  -16.9778   26.0720 N   0  0  0  0  0  0  0  0  0  0  0  0
   10.7262  -18.2782   27.9410 C   0  0  0  0  0  0  0  0  0  0  0  0
   10.9181  -19.4038   28.6894 O   0  0  0  0  0  0  0  0  0  0  0  0
   11.0140  -17.1611   28.4439 O   0  0  0  0  0  0  0  0  0  0  0  0
  2  1  1  0
  2  3  1  0
  3  5  1  0
  3  4  1  6
  5  7  1  0
  5  6  1  1
  7  9  1  0
  7  8  2  0
  9 10  1  0
 10 11  1  1
 10 13  1  0
 12 11  1  0
 13 14  2  0
 16 15  1  6
 16 18  1  0
 17 16  1  0
 18 20  1  0
 18 19  1  6
 19 13  1  0
 20 21  1  0
 22 20  2  0
M  END
$$$$
