ICT.pdb
     RDKit          3D

 22 21  0  0  1  0  0  0  0  0999 V2000
    6.7610  -11.1270   27.0257 C   0  0  0  0  0  0  0  0  0  0  0  0
    7.2119  -12.5756   26.9483 C   0  0  0  0  0  0  0  0  0  0  0  0
    6.7336  -13.2260   25.6808 C   0  0  2  0  0  0  0  0  0  0  0  0
    5.2259  -13.1929   25.5829 C   0  0  0  0  0  0  0  0  0  0  0  0
    7.3137  -14.5766   25.4545 C   0  0  2  0  0  0  0  0  0  0  0  0
    6.7530  -15.4749   26.5036 N   0  0  0  0  0  0  0  0  0  0  0  0
    8.7636  -14.7040   25.5420 C   0  0  0  0  0  0  0  0  0  0  0  0
    9.4798  -14.3235   24.5598 O   0  0  0  0  0  0  0  0  0  0  0  0
    9.5221  -15.2183   26.6339 N   0  0  0  0  0  0  0  0  0  0  0  0
   10.9495  -15.2895   26.6524 C   0  0  1  0  0  0  0  0  0  0  0  0
   11.3214  -15.5044   28.1361 C   0  0  0  0  0  0  0  0  0  0  0  0
   10.4737  -14.3002   29.1808 S   0  0  0  0  0  0  0  0  0  0  0  0
   11.5713  -16.2907   25.7974 C   0  0  0  0  0  0  0  0  0  0  0  0
   11.4726  -17.5210   26.1428 O   0  0  0  0  0  0  0  0  0  0  0  0
   10.6706  -17.2960   22.4170 C   0  0  0  0  0  0  0  0  0  0  0  0
   12.1718  -17.1230   22.3843 C   0  0  1  0  0  0  0  0  0  0  0  0
   12.4667  -15.9948   21.6641 O   0  0  0  0  0  0  0  0  0  0  0  0
   12.7765  -17.1474   23.7597 C   0  0  2  0  0  0  0  0  0  0  0  0
   12.2928  -16.0626   24.5944 N   0  0  0  0  0  0  0  0  0  0  0  0
   14.2437  -17.1594   23.6598 C   0  0  0  0  0  0  0  0  0  0  0  0
   15.0350  -16.1829   24.1930 O   0  0  0  0  0  0  0  0  0  0  0  0
   14.7904  -18.1170   23.0533 O   0  0  0  0  0  0  0  0  0  0  0  0
  2  1  1  0
  2  3  1  0
  3  5  1  0
  3  4  1  1
  5  7  1  0
  5  6  1  1
  7  9  1  0
  7  8  2  0
  9 10  1  0
 10 11  1  1
 10 13  1  0
 12 11  1  0
 13 14  2  0
 16 15  1  1
 16 18  1  0
 17 16  1  0
 18 20  1  0
 18 19  1  1
 19 13  1  0
 20 21  1  0
 22 20  2  0
M  END
$$$$
