ICT.pdb
     RDKit          3D

 22 21  0  0  1  0  0  0  0  0999 V2000
    6.9199  -11.9589   19.0692 C   0  0  0  0  0  0  0  0  0  0  0  0
    7.4523  -13.3710   18.8955 C   0  0  0  0  0  0  0  0  0  0  0  0
    7.8658  -13.9611   20.2143 C   0  0  2  0  0  0  0  0  0  0  0  0
    8.7904  -13.0310   20.9652 C   0  0  0  0  0  0  0  0  0  0  0  0
    8.3837  -15.3509   20.1033 C   0  0  2  0  0  0  0  0  0  0  0  0
    7.3278  -16.1585   19.4289 N   0  0  0  0  0  0  0  0  0  0  0  0
    8.6980  -16.0476   21.3451 C   0  0  0  0  0  0  0  0  0  0  0  0
    7.7482  -16.5337   22.0407 O   0  0  0  0  0  0  0  0  0  0  0  0
    9.9883  -16.2710   21.9086 N   0  0  0  0  0  0  0  0  0  0  0  0
   10.2110  -16.9103   23.1673 C   0  0  1  0  0  0  0  0  0  0  0  0
   11.4687  -17.7821   22.9576 C   0  0  0  0  0  0  0  0  0  0  0  0
   11.0903  -19.1923   21.8957 S   0  0  0  0  0  0  0  0  0  0  0  0
   10.3503  -16.0461   24.3308 C   0  0  0  0  0  0  0  0  0  0  0  0
   11.3046  -15.1906   24.3332 O   0  0  0  0  0  0  0  0  0  0  0  0
    8.3090  -13.2127   25.7399 C   0  0  0  0  0  0  0  0  0  0  0  0
    8.5205  -14.2414   26.8269 C   0  0  1  0  0  0  0  0  0  0  0  0
    7.3617  -14.9563   26.9842 O   0  0  0  0  0  0  0  0  0  0  0  0
    9.7350  -15.0903   26.5773 C   0  0  2  0  0  0  0  0  0  0  0  0
    9.5341  -16.0359   25.4942 N   0  0  0  0  0  0  0  0  0  0  0  0
   10.1457  -15.7531   27.8241 C   0  0  0  0  0  0  0  0  0  0  0  0
   10.4703  -15.0688   28.9600 O   0  0  0  0  0  0  0  0  0  0  0  0
   10.1987  -17.0104   27.8394 O   0  0  0  0  0  0  0  0  0  0  0  0
  2  1  1  0
  2  3  1  0
  3  5  1  0
  3  4  1  6
  5  7  1  0
  5  6  1  1
  7  9  1  0
  7  8  2  0
  9 10  1  0
 10 11  1  6
 10 13  1  0
 12 11  1  0
 13 14  2  0
 16 15  1  6
 16 18  1  0
 17 16  1  0
 18 20  1  0
 18 19  1  6
 19 13  1  0
 20 21  1  0
 22 20  2  0
M  END
$$$$
