ICT.pdb
     RDKit          3D

 22 21  0  0  1  0  0  0  0  0999 V2000
   10.0116  -13.5581   29.8443 C   0  0  0  0  0  0  0  0  0  0  0  0
    9.4696  -14.9435   29.5364 C   0  0  0  0  0  0  0  0  0  0  0  0
    9.5531  -15.2446   28.0664 C   0  0  2  0  0  0  0  0  0  0  0  0
    9.0439  -14.0864   27.2399 C   0  0  0  0  0  0  0  0  0  0  0  0
    8.9461  -16.5507   27.6955 C   0  0  2  0  0  0  0  0  0  0  0  0
    9.5640  -17.5850   28.5732 N   0  0  0  0  0  0  0  0  0  0  0  0
    9.1387  -17.0116   26.3256 C   0  0  0  0  0  0  0  0  0  0  0  0
   10.1115  -17.7915   26.0649 O   0  0  0  0  0  0  0  0  0  0  0  0
    8.3432  -16.6935   25.1862 N   0  0  0  0  0  0  0  0  0  0  0  0
    8.5958  -17.1915   23.8706 C   0  0  1  0  0  0  0  0  0  0  0  0
    7.3131  -16.8775   23.0695 C   0  0  0  0  0  0  0  0  0  0  0  0
    5.9335  -17.8764   23.6683 S   0  0  0  0  0  0  0  0  0  0  0  0
    9.7830  -16.6910   23.1923 C   0  0  0  0  0  0  0  0  0  0  0  0
    9.8599  -15.4318   22.9659 O   0  0  0  0  0  0  0  0  0  0  0  0
   13.4234  -16.3154   24.1692 C   0  0  0  0  0  0  0  0  0  0  0  0
   13.3240  -17.1264   22.8976 C   0  0  1  0  0  0  0  0  0  0  0  0
   13.4947  -18.4503   23.2084 O   0  0  0  0  0  0  0  0  0  0  0  0
   12.0632  -16.8339   22.1343 C   0  0  2  0  0  0  0  0  0  0  0  0
   10.8962  -17.4498   22.7398 N   0  0  0  0  0  0  0  0  0  0  0  0
   12.2298  -17.2247   20.7264 C   0  0  0  0  0  0  0  0  0  0  0  0
   13.1859  -16.6889   19.9124 O   0  0  0  0  0  0  0  0  0  0  0  0
   11.4519  -18.0944   20.2548 O   0  0  0  0  0  0  0  0  0  0  0  0
  2  1  1  0
  2  3  1  0
  3  5  1  0
  3  4  1  6
  5  7  1  0
  5  6  1  1
  7  9  1  0
  7  8  2  0
  9 10  1  0
 10 11  1  6
 10 13  1  0
 12 11  1  0
 13 14  2  0
 16 15  1  1
 16 18  1  0
 17 16  1  0
 18 20  1  0
 18 19  1  1
 19 13  1  0
 20 21  1  0
 22 20  2  0
M  END
$$$$
