DIG.pdb
     RDKit          3D

 21 20  0  0  1  0  0  0  0  0999 V2000
   18.6457  -11.7327  -18.3592 N   0  0  0  0  0  0  0  0  0  0  0  0
   19.1983  -10.4010  -18.4981 C   0  0  1  0  0  0  0  0  0  0  0  0
   18.1987   -9.5177  -19.2075 C   0  0  0  0  0  0  0  0  0  0  0  0
   18.1886   -9.8092  -20.6623 C   0  0  0  0  0  0  0  0  0  0  0  0
   19.2375  -10.0753  -21.3018 O   0  0  0  0  0  0  0  0  0  0  0  0
   19.5652   -9.8775  -17.1659 C   0  0  0  0  0  0  0  0  0  0  0  0
   18.8137  -10.1164  -16.1567 O   0  0  0  0  0  0  0  0  0  0  0  0
   16.9903   -9.7956  -21.3748 O   0  0  0  0  0  0  0  0  0  0  0  0
   23.6813  -11.1593  -14.6617 C   0  0  0  0  0  0  0  0  0  0  0  0
   22.2577  -10.7070  -15.0440 C   0  0  0  0  0  0  0  0  0  0  0  0
   22.2670   -9.2099  -15.0813 C   0  0  2  0  0  0  0  0  0  0  0  0
   22.6975   -8.7110  -13.7139 C   0  0  0  0  0  0  0  0  0  0  0  0
   20.9991   -8.5633  -15.5485 C   0  0  2  0  0  0  0  0  0  0  0  0
   20.7168   -9.1084  -16.9062 N   0  0  0  0  0  0  0  0  0  0  0  0
   21.0278   -7.0908  -15.6094 C   0  0  0  0  0  0  0  0  0  0  0  0
   21.9066   -6.5387  -16.3572 O   0  0  0  0  0  0  0  0  0  0  0  0
   20.1723   -6.2077  -14.9221 N   0  0  0  0  0  0  0  0  0  0  0  0
   20.3466   -4.7625  -14.9494 C   0  0  0  0  0  0  0  0  0  0  0  0
   21.3656   -4.3776  -13.9484 C   0  0  0  0  0  0  0  0  0  0  0  0
   21.6935   -3.1616  -13.7880 O   0  0  0  0  0  0  0  0  0  0  0  0
   22.0134   -5.2992  -13.1397 O   0  0  0  0  0  0  0  0  0  0  0  0
  2  1  1  1
  3  2  1  0
  4  3  1  0
  5  4  2  0
  6  7  2  0
  6  2  1  0
  8  4  1  0
  9 10  1  0
 10 11  1  0
 11 13  1  0
 11 12  1  1
 13 14  1  6
 14  6  1  0
 15 13  1  0
 16 15  2  0
 17 15  1  0
 18 17  1  0
 19 21  1  0
 19 18  1  0
 20 19  2  0
M  END
$$$$
