DIG.pdb
     RDKit          3D

 21 20  0  0  1  0  0  0  0  0999 V2000
   23.0576  -15.0268  -18.8109 N   0  0  0  0  0  0  0  0  0  0  0  0
   22.8124  -13.6198  -19.0527 C   0  0  1  0  0  0  0  0  0  0  0  0
   21.4496  -13.4522  -19.6830 C   0  0  0  0  0  0  0  0  0  0  0  0
   21.2301  -12.0388  -20.0775 C   0  0  0  0  0  0  0  0  0  0  0  0
   21.0460  -11.1260  -19.2330 O   0  0  0  0  0  0  0  0  0  0  0  0
   22.9413  -12.8714  -17.7852 C   0  0  0  0  0  0  0  0  0  0  0  0
   22.4313  -13.3442  -16.7097 O   0  0  0  0  0  0  0  0  0  0  0  0
   21.2217  -11.6766  -21.4238 O   0  0  0  0  0  0  0  0  0  0  0  0
   27.3783  -11.9043  -15.7017 C   0  0  0  0  0  0  0  0  0  0  0  0
   25.8707  -12.1954  -15.8424 C   0  0  0  0  0  0  0  0  0  0  0  0
   25.1833  -10.8772  -16.0231 C   0  0  2  0  0  0  0  0  0  0  0  0
   25.4647  -10.0310  -14.7948 C   0  0  0  0  0  0  0  0  0  0  0  0
   23.7215  -10.9448  -16.3435 C   0  0  2  0  0  0  0  0  0  0  0  0
   23.6040  -11.6344  -17.6590 N   0  0  0  0  0  0  0  0  0  0  0  0
   23.0300   -9.6447  -16.4098 C   0  0  0  0  0  0  0  0  0  0  0  0
   23.4950   -8.7583  -17.2062 O   0  0  0  0  0  0  0  0  0  0  0  0
   21.8869   -9.2662  -15.6789 N   0  0  0  0  0  0  0  0  0  0  0  0
   21.2874   -7.9437  -15.7848 C   0  0  0  0  0  0  0  0  0  0  0  0
   21.5912   -7.1735  -14.5588 C   0  0  0  0  0  0  0  0  0  0  0  0
   22.2188   -7.7081  -13.5933 O   0  0  0  0  0  0  0  0  0  0  0  0
   21.2184   -5.8487  -14.3893 O   0  0  0  0  0  0  0  0  0  0  0  0
  2  1  1  1
  3  2  1  0
  4  3  1  0
  5  4  2  0
  6  7  2  0
  6  2  1  0
  8  4  1  0
  9 10  1  0
 10 11  1  0
 11 13  1  0
 11 12  1  1
 13 14  1  6
 14  6  1  0
 15 13  1  0
 16 15  2  0
 17 15  1  0
 18 17  1  0
 19 21  1  0
 19 18  1  0
 20 19  2  0
M  END
$$$$
