DIG.pdb
     RDKit          3D

 21 20  0  0  1  0  0  0  0  0999 V2000
   19.2220  -10.0110  -14.2695 N   0  0  0  0  0  0  0  0  0  0  0  0
   19.7945   -9.3113  -15.4012 C   0  0  1  0  0  0  0  0  0  0  0  0
   18.8491   -8.2184  -15.8420 C   0  0  0  0  0  0  0  0  0  0  0  0
   17.5731   -8.7998  -16.3271 C   0  0  0  0  0  0  0  0  0  0  0  0
   17.5253   -9.8905  -16.9503 O   0  0  0  0  0  0  0  0  0  0  0  0
   21.1270   -8.7882  -15.0353 C   0  0  0  0  0  0  0  0  0  0  0  0
   21.3178   -8.2823  -13.8743 O   0  0  0  0  0  0  0  0  0  0  0  0
   16.3668   -8.1385  -16.1005 O   0  0  0  0  0  0  0  0  0  0  0  0
   25.4035  -11.6038  -15.3164 C   0  0  0  0  0  0  0  0  0  0  0  0
   24.3415  -10.5807  -14.8659 C   0  0  0  0  0  0  0  0  0  0  0  0
   24.5717   -9.3305  -15.6575 C   0  0  2  0  0  0  0  0  0  0  0  0
   25.9866   -8.8558  -15.3807 C   0  0  0  0  0  0  0  0  0  0  0  0
   23.5597   -8.2430  -15.4640 C   0  0  2  0  0  0  0  0  0  0  0  0
   22.2460   -8.8010  -15.8915 N   0  0  0  0  0  0  0  0  0  0  0  0
   23.8252   -6.9961  -16.2042 C   0  0  0  0  0  0  0  0  0  0  0  0
   24.1641   -7.0896  -17.4341 O   0  0  0  0  0  0  0  0  0  0  0  0
   23.7405   -5.6858  -15.6944 N   0  0  0  0  0  0  0  0  0  0  0  0
   24.0037   -4.5067  -16.5070 C   0  0  0  0  0  0  0  0  0  0  0  0
   22.7983   -4.1868  -17.3028 C   0  0  0  0  0  0  0  0  0  0  0  0
   22.8483   -4.1433  -18.5707 O   0  0  0  0  0  0  0  0  0  0  0  0
   21.5649   -3.9199  -16.7282 O   0  0  0  0  0  0  0  0  0  0  0  0
  2  1  1  1
  3  2  1  0
  4  3  1  0
  5  4  2  0
  6  7  2  0
  6  2  1  0
  8  4  1  0
  9 10  1  0
 10 11  1  0
 11 13  1  0
 11 12  1  1
 13 14  1  6
 14  6  1  0
 15 13  1  0
 16 15  2  0
 17 15  1  0
 18 17  1  0
 19 21  1  0
 19 18  1  0
 20 19  2  0
M  END
$$$$
