DIG.pdb
     RDKit          3D

 21 20  0  0  1  0  0  0  0  0999 V2000
   28.1442  -21.6734  -15.7661 N   0  0  0  0  0  0  0  0  0  0  0  0
   27.3908  -20.6072  -15.1386 C   0  0  1  0  0  0  0  0  0  0  0  0
   26.7081  -19.7840  -16.2058 C   0  0  0  0  0  0  0  0  0  0  0  0
   27.7106  -19.0464  -17.0135 C   0  0  0  0  0  0  0  0  0  0  0  0
   27.3961  -18.0879  -17.7634 O   0  0  0  0  0  0  0  0  0  0  0  0
   26.4316  -21.1828  -14.1732 C   0  0  0  0  0  0  0  0  0  0  0  0
   25.9529  -22.3543  -14.3697 O   0  0  0  0  0  0  0  0  0  0  0  0
   29.0573  -19.4037  -16.9617 O   0  0  0  0  0  0  0  0  0  0  0  0
   26.6911  -20.4956   -8.8556 C   0  0  0  0  0  0  0  0  0  0  0  0
   26.4834  -21.1812  -10.2211 C   0  0  0  0  0  0  0  0  0  0  0  0
   25.1742  -20.6955  -10.7623 C   0  0  2  0  0  0  0  0  0  0  0  0
   24.0806  -21.1378   -9.8072 C   0  0  0  0  0  0  0  0  0  0  0  0
   24.8766  -21.0740  -12.1809 C   0  0  2  0  0  0  0  0  0  0  0  0
   25.9843  -20.5230  -13.0113 N   0  0  0  0  0  0  0  0  0  0  0  0
   23.5863  -20.5907  -12.7047 C   0  0  0  0  0  0  0  0  0  0  0  0
   23.3982  -19.3268  -12.7624 O   0  0  0  0  0  0  0  0  0  0  0  0
   22.5174  -21.3863  -13.1615 N   0  0  0  0  0  0  0  0  0  0  0  0
   21.2979  -20.8202  -13.7202 C   0  0  0  0  0  0  0  0  0  0  0  0
   20.2413  -20.8264  -12.6848 C   0  0  0  0  0  0  0  0  0  0  0  0
   19.0885  -20.3538  -12.9287 O   0  0  0  0  0  0  0  0  0  0  0  0
   20.4377  -21.3370  -11.4106 O   0  0  0  0  0  0  0  0  0  0  0  0
  2  1  1  6
  3  2  1  0
  4  3  1  0
  5  4  2  0
  6  7  2  0
  6  2  1  0
  8  4  1  0
  9 10  1  0
 10 11  1  0
 11 13  1  0
 11 12  1  1
 13 14  1  6
 14  6  1  0
 15 13  1  0
 16 15  2  0
 17 15  1  0
 18 17  1  0
 19 21  1  0
 19 18  1  0
 20 19  2  0
M  END
$$$$
