DIG.pdb
     RDKit          3D

 21 20  0  0  1  0  0  0  0  0999 V2000
   19.4386   -5.3637  -14.9794 N   0  0  0  0  0  0  0  0  0  0  0  0
   20.6573   -5.0855  -15.7112 C   0  0  1  0  0  0  0  0  0  0  0  0
   21.4665   -4.0550  -14.9591 C   0  0  0  0  0  0  0  0  0  0  0  0
   20.7587   -2.7511  -14.9409 C   0  0  0  0  0  0  0  0  0  0  0  0
   19.7439   -2.5469  -14.2277 O   0  0  0  0  0  0  0  0  0  0  0  0
   21.4045   -6.3428  -15.9216 C   0  0  0  0  0  0  0  0  0  0  0  0
   22.5585   -6.3147  -16.4763 O   0  0  0  0  0  0  0  0  0  0  0  0
   21.2091   -1.6942  -15.7309 O   0  0  0  0  0  0  0  0  0  0  0  0
   22.3146   -9.1950  -12.0269 C   0  0  0  0  0  0  0  0  0  0  0  0
   22.7015   -8.6696  -13.4240 C   0  0  0  0  0  0  0  0  0  0  0  0
   21.9386   -9.4806  -14.4255 C   0  0  2  0  0  0  0  0  0  0  0  0
   22.5983  -10.8441  -14.5230 C   0  0  0  0  0  0  0  0  0  0  0  0
   21.7487   -8.8442  -15.7683 C   0  0  2  0  0  0  0  0  0  0  0  0
   20.9331   -7.6170  -15.5479 N   0  0  0  0  0  0  0  0  0  0  0  0
   21.0927   -9.6918  -16.7803 C   0  0  0  0  0  0  0  0  0  0  0  0
   19.9204  -10.1342  -16.5231 O   0  0  0  0  0  0  0  0  0  0  0  0
   21.6263  -10.0718  -18.0273 N   0  0  0  0  0  0  0  0  0  0  0  0
   20.9433  -10.9885  -18.9291 C   0  0  0  0  0  0  0  0  0  0  0  0
   19.9115  -10.2460  -19.6858 C   0  0  0  0  0  0  0  0  0  0  0  0
   19.7754   -8.9920  -19.5420 O   0  0  0  0  0  0  0  0  0  0  0  0
   19.0465  -10.8582  -20.5802 O   0  0  0  0  0  0  0  0  0  0  0  0
  2  1  1  1
  3  2  1  0
  4  3  1  0
  5  4  2  0
  6  7  2  0
  6  2  1  0
  8  4  1  0
  9 10  1  0
 10 11  1  0
 11 13  1  0
 11 12  1  6
 13 14  1  1
 14  6  1  0
 15 13  1  0
 16 15  2  0
 17 15  1  0
 18 17  1  0
 19 21  1  0
 19 18  1  0
 20 19  2  0
M  END
$$$$
