DIG.pdb
     RDKit          3D

 21 20  0  0  1  0  0  0  0  0999 V2000
   14.1093  -10.9256    8.8585 N   0  0  0  0  0  0  0  0  0  0  0  0
   14.8772  -12.1534    8.8912 C   0  0  1  0  0  0  0  0  0  0  0  0
   14.0787  -13.2224    9.5998 C   0  0  0  0  0  0  0  0  0  0  0  0
   14.0003  -12.9344   11.0532 C   0  0  0  0  0  0  0  0  0  0  0  0
   13.0033  -12.3738   11.5746 O   0  0  0  0  0  0  0  0  0  0  0  0
   15.2417  -12.5443    7.5136 C   0  0  0  0  0  0  0  0  0  0  0  0
   14.5814  -12.0762    6.5210 O   0  0  0  0  0  0  0  0  0  0  0  0
   15.0523  -13.2851   11.8983 O   0  0  0  0  0  0  0  0  0  0  0  0
   19.6898  -11.3015    5.6236 C   0  0  0  0  0  0  0  0  0  0  0  0
   18.1858  -11.6412    5.6160 C   0  0  0  0  0  0  0  0  0  0  0  0
   18.0723  -13.1344    5.6092 C   0  0  2  0  0  0  0  0  0  0  0  0
   18.7450  -13.6487    4.3496 C   0  0  0  0  0  0  0  0  0  0  0  0
   16.6880  -13.6819    5.7778 C   0  0  2  0  0  0  0  0  0  0  0  0
   16.2954  -13.4226    7.1915 N   0  0  0  0  0  0  0  0  0  0  0  0
   16.5386  -15.1188    5.4848 C   0  0  0  0  0  0  0  0  0  0  0  0
   16.5714  -15.4876    4.2604 O   0  0  0  0  0  0  0  0  0  0  0  0
   16.3639  -16.1515    6.4267 N   0  0  0  0  0  0  0  0  0  0  0  0
   16.2390  -17.5511    6.0458 C   0  0  0  0  0  0  0  0  0  0  0  0
   17.3919  -18.3055    6.5845 C   0  0  0  0  0  0  0  0  0  0  0  0
   18.2833  -17.7246    7.2772 O   0  0  0  0  0  0  0  0  0  0  0  0
   17.5690  -19.6643    6.3722 O   0  0  0  0  0  0  0  0  0  0  0  0
  2  1  1  6
  3  2  1  0
  4  3  1  0
  5  4  2  0
  6  7  2  0
  6  2  1  0
  8  4  1  0
  9 10  1  0
 10 11  1  0
 11 13  1  0
 11 12  1  6
 13 14  1  1
 14  6  1  0
 15 13  1  0
 16 15  2  0
 17 15  1  0
 18 17  1  0
 19 21  1  0
 19 18  1  0
 20 19  2  0
M  END
$$$$
