DIG.pdb
     RDKit          3D

 21 20  0  0  1  0  0  0  0  0999 V2000
   17.6039  -11.9271  -16.4040 N   0  0  0  0  0  0  0  0  0  0  0  0
   18.1783  -10.6484  -16.7688 C   0  0  1  0  0  0  0  0  0  0  0  0
   17.0700   -9.6385  -16.9539 C   0  0  0  0  0  0  0  0  0  0  0  0
   16.1392  -10.0787  -18.0221 C   0  0  0  0  0  0  0  0  0  0  0  0
   16.5415  -10.6165  -19.0848 O   0  0  0  0  0  0  0  0  0  0  0  0
   19.1516  -10.2325  -15.7378 C   0  0  0  0  0  0  0  0  0  0  0  0
   18.9196  -10.4816  -14.5031 O   0  0  0  0  0  0  0  0  0  0  0  0
   14.7639   -9.9044  -17.8736 O   0  0  0  0  0  0  0  0  0  0  0  0
   23.9965  -11.8532  -15.6319 C   0  0  0  0  0  0  0  0  0  0  0  0
   22.6237  -11.3647  -15.1274 C   0  0  0  0  0  0  0  0  0  0  0  0
   22.6119   -9.8731  -15.2597 C   0  0  2  0  0  0  0  0  0  0  0  0
   23.7696   -9.3225  -14.4471 C   0  0  0  0  0  0  0  0  0  0  0  0
   21.3148   -9.2012  -14.9277 C   0  0  2  0  0  0  0  0  0  0  0  0
   20.3584   -9.5591  -16.0127 N   0  0  0  0  0  0  0  0  0  0  0  0
   21.3799   -7.7343  -14.7980 C   0  0  0  0  0  0  0  0  0  0  0  0
   22.0454   -7.2480  -13.8198 O   0  0  0  0  0  0  0  0  0  0  0  0
   20.7796   -6.7907  -15.6543 N   0  0  0  0  0  0  0  0  0  0  0  0
   20.9144   -5.3541  -15.4601 C   0  0  0  0  0  0  0  0  0  0  0  0
   20.1632   -4.6483  -16.5213 C   0  0  0  0  0  0  0  0  0  0  0  0
   19.5847   -5.2943  -17.4486 O   0  0  0  0  0  0  0  0  0  0  0  0
   20.0456   -3.2675  -16.5703 O   0  0  0  0  0  0  0  0  0  0  0  0
  2  1  1  1
  3  2  1  0
  4  3  1  0
  5  4  2  0
  6  7  2  0
  6  2  1  0
  8  4  1  0
  9 10  1  0
 10 11  1  0
 11 13  1  0
 11 12  1  1
 13 14  1  6
 14  6  1  0
 15 13  1  0
 16 15  2  0
 17 15  1  0
 18 17  1  0
 19 21  1  0
 19 18  1  0
 20 19  2  0
M  END
$$$$
