RSS.pdb
     RDKit          3D

 24 23  0  0  1  0  0  0  0  0999 V2000
    9.9368  -14.4023   17.2012 N   0  0  0  0  0  0  0  0  0  0  0  0
    8.6995  -14.4105   16.5179 C   0  0  0  0  0  0  0  0  0  0  0  0
    8.5558  -13.9271   15.3275 N   0  0  0  0  0  0  0  0  0  0  0  0
    7.5578  -14.9785   17.1641 N   0  0  0  0  0  0  0  0  0  0  0  0
    7.4119  -15.0540   18.6088 C   0  0  0  0  0  0  0  0  0  0  0  0
    7.5158  -13.7300   19.2663 C   0  0  0  0  0  0  0  0  0  0  0  0
    7.3471  -13.8002   20.7430 C   0  0  0  0  0  0  0  0  0  0  0  0
    8.1995  -14.8236   21.4116 C   0  0  2  0  0  0  0  0  0  0  0  0
    7.8992  -16.1723   21.0371 N   0  0  0  0  0  0  0  0  0  0  0  0
    8.1237  -14.7306   22.8992 C   0  0  0  0  0  0  0  0  0  0  0  0
    8.3193  -13.6405   23.4973 O   0  0  0  0  0  0  0  0  0  0  0  0
    7.5913  -13.9327   14.9314 O   0  0  0  0  0  0  0  0  0  0  0  0
    7.3720  -18.1811   25.1487 C   0  0  0  0  0  0  0  0  0  0  0  0
    6.7131  -16.9978   25.4840 C   0  0  1  0  0  0  0  0  0  0  0  0
    7.5803  -15.8151   25.1043 N   0  0  0  0  0  0  0  0  0  0  0  0
    7.8272  -15.8800   23.6729 C   0  0  0  0  0  0  0  0  0  0  0  0
    8.9287  -15.9125   25.7715 O   0  0  0  0  0  0  0  0  0  0  0  0
    9.9185  -16.4429   25.2125 O   0  0  0  0  0  0  0  0  0  0  0  0
    9.9862  -13.3354   28.5089 C   0  0  0  0  0  0  0  0  0  0  0  0
   10.4146  -14.5752   28.9496 C   0  0  2  0  0  0  0  0  0  0  0  0
   10.3597  -15.5886   27.8216 N   0  0  0  0  0  0  0  0  0  0  0  0
    9.1255  -15.3914   27.0901 C   0  0  0  0  0  0  0  0  0  0  0  0
   10.3834  -16.9668   28.3369 O   0  0  0  0  0  0  0  0  0  0  0  0
   11.4184  -17.4190   29.1099 O   0  0  0  0  0  0  0  0  0  0  0  0
  1  2  1  0
  2  3  2  0
  2  4  1  0
  4  5  1  0
  5  6  1  0
  6  7  1  0
  7  8  1  0
  8  9  1  1
  8 10  1  0
 10 11  2  0
 10 15  1  0
 13 12  1  0
 14 13  1  6
 14 16  1  0
 15 14  1  0
 16 17  2  0
 16 21  1  0
 18 19  1  0
 20 19  1  6
 20 22  1  0
 21 20  1  0
 22 23  1  0
 24 22  2  0
M  END
$$$$
