RSS.pdb
     RDKit          3D

 24 23  0  0  1  0  0  0  0  0999 V2000
    8.1701  -11.9649   18.0353 N   0  0  0  0  0  0  0  0  0  0  0  0
    8.0446  -12.5637   19.3094 C   0  0  0  0  0  0  0  0  0  0  0  0
    8.4219  -11.9763   20.3974 N   0  0  0  0  0  0  0  0  0  0  0  0
    7.4746  -13.8713   19.4046 N   0  0  0  0  0  0  0  0  0  0  0  0
    8.0772  -15.0517   18.8064 C   0  0  0  0  0  0  0  0  0  0  0  0
    8.2508  -16.1606   19.7740 C   0  0  0  0  0  0  0  0  0  0  0  0
    9.6184  -16.2132   20.3577 C   0  0  0  0  0  0  0  0  0  0  0  0
    9.8289  -17.3205   21.3327 C   0  0  2  0  0  0  0  0  0  0  0  0
    8.7970  -18.3128   21.3249 N   0  0  0  0  0  0  0  0  0  0  0  0
    9.9730  -16.8166   22.7301 C   0  0  0  0  0  0  0  0  0  0  0  0
   10.8966  -16.0224   23.0471 O   0  0  0  0  0  0  0  0  0  0  0  0
    8.4114  -12.5491   21.2686 O   0  0  0  0  0  0  0  0  0  0  0  0
    6.8806  -17.2491   25.3276 C   0  0  0  0  0  0  0  0  0  0  0  0
    7.8768  -16.3152   25.6145 C   0  0  1  0  0  0  0  0  0  0  0  0
    9.2123  -16.8404   25.1290 N   0  0  0  0  0  0  0  0  0  0  0  0
    9.0632  -17.2277   23.7355 C   0  0  0  0  0  0  0  0  0  0  0  0
    9.5921  -18.0923   25.8782 O   0  0  0  0  0  0  0  0  0  0  0  0
    9.0532  -19.2018   25.6498 O   0  0  0  0  0  0  0  0  0  0  0  0
   13.2704  -18.5753   27.3847 C   0  0  0  0  0  0  0  0  0  0  0  0
   12.3908  -19.6285   27.2064 C   0  0  1  0  0  0  0  0  0  0  0  0
   10.9915  -19.2315   27.6387 N   0  0  0  0  0  0  0  0  0  0  0  0
   10.6003  -18.0530   26.8935 C   0  0  0  0  0  0  0  0  0  0  0  0
   10.9433  -18.9146   29.0749 O   0  0  0  0  0  0  0  0  0  0  0  0
   11.2392  -19.8580   30.0213 O   0  0  0  0  0  0  0  0  0  0  0  0
  1  2  1  0
  2  3  2  0
  2  4  1  0
  4  5  1  0
  5  6  1  0
  6  7  1  0
  7  8  1  0
  8  9  1  1
  8 10  1  0
 10 11  2  0
 10 15  1  0
 13 12  1  0
 14 13  1  6
 14 16  1  0
 15 14  1  0
 16 17  2  0
 16 21  1  0
 18 19  1  0
 20 19  1  6
 20 22  1  0
 21 20  1  0
 22 23  1  0
 24 22  2  0
M  END
$$$$
