RSS.pdb
     RDKit          3D

 24 23  0  0  1  0  0  0  0  0999 V2000
    7.2306  -13.7121   14.7985 N   0  0  0  0  0  0  0  0  0  0  0  0
    8.4771  -13.9373   15.4257 C   0  0  0  0  0  0  0  0  0  0  0  0
    9.5779  -13.4081   15.0021 N   0  0  0  0  0  0  0  0  0  0  0  0
    8.5274  -14.7818   16.5781 N   0  0  0  0  0  0  0  0  0  0  0  0
    7.3853  -15.0187   17.4462 C   0  0  0  0  0  0  0  0  0  0  0  0
    7.3055  -14.0520   18.5666 C   0  0  0  0  0  0  0  0  0  0  0  0
    8.4483  -14.1642   19.5129 C   0  0  0  0  0  0  0  0  0  0  0  0
    8.3069  -15.2519   20.5219 C   0  0  2  0  0  0  0  0  0  0  0  0
    6.9512  -15.5823   20.8418 N   0  0  0  0  0  0  0  0  0  0  0  0
    9.0156  -14.9302   21.7954 C   0  0  0  0  0  0  0  0  0  0  0  0
   10.1917  -14.4818   21.7941 O   0  0  0  0  0  0  0  0  0  0  0  0
   10.4513  -13.6737   15.5059 O   0  0  0  0  0  0  0  0  0  0  0  0
    6.9196  -14.9792   25.3296 C   0  0  0  0  0  0  0  0  0  0  0  0
    8.1332  -14.2924   25.2819 C   0  0  1  0  0  0  0  0  0  0  0  0
    9.0656  -14.9872   24.3109 N   0  0  0  0  0  0  0  0  0  0  0  0
    8.3704  -15.1260   23.0415 C   0  0  0  0  0  0  0  0  0  0  0  0
    9.3719  -16.3864   24.7813 O   0  0  0  0  0  0  0  0  0  0  0  0
    8.5967  -17.3503   24.5730 O   0  0  0  0  0  0  0  0  0  0  0  0
   12.4638  -18.1991   24.1207 C   0  0  0  0  0  0  0  0  0  0  0  0
   12.3512  -18.2934   25.4967 C   0  0  2  0  0  0  0  0  0  0  0  0
   10.9286  -17.9991   25.9351 N   0  0  0  0  0  0  0  0  0  0  0  0
   10.5817  -16.6641   25.4942 C   0  0  0  0  0  0  0  0  0  0  0  0
   10.7955  -18.0579   27.3994 O   0  0  0  0  0  0  0  0  0  0  0  0
   11.0139  -19.2210   28.0870 O   0  0  0  0  0  0  0  0  0  0  0  0
  1  2  1  0
  2  3  2  0
  2  4  1  0
  4  5  1  0
  5  6  1  0
  6  7  1  0
  7  8  1  0
  8  9  1  1
  8 10  1  0
 10 11  2  0
 10 15  1  0
 13 12  1  0
 14 13  1  6
 14 16  1  0
 15 14  1  0
 16 17  2  0
 16 21  1  0
 18 19  1  0
 20 19  1  6
 20 22  1  0
 21 20  1  0
 22 23  1  0
 24 22  2  0
M  END
$$$$
