RSS.pdb
     RDKit          3D

 24 23  0  0  1  0  0  0  0  0999 V2000
    7.3610  -13.1752   16.4312 N   0  0  0  0  0  0  0  0  0  0  0  0
    8.2588  -14.1663   15.9736 C   0  0  0  0  0  0  0  0  0  0  0  0
    8.5326  -14.3363   14.7217 N   0  0  0  0  0  0  0  0  0  0  0  0
    8.8954  -15.0161   16.9308 N   0  0  0  0  0  0  0  0  0  0  0  0
    8.1668  -15.7838   17.9278 C   0  0  0  0  0  0  0  0  0  0  0  0
    8.1417  -15.1241   19.2547 C   0  0  0  0  0  0  0  0  0  0  0  0
    9.4906  -15.0101   19.8722 C   0  0  0  0  0  0  0  0  0  0  0  0
    9.7021  -15.8916   21.0551 C   0  0  2  0  0  0  0  0  0  0  0  0
    8.8441  -17.0371   21.0937 N   0  0  0  0  0  0  0  0  0  0  0  0
    9.5409  -15.1516   22.3411 C   0  0  0  0  0  0  0  0  0  0  0  0
   10.1267  -14.0561   22.5432 O   0  0  0  0  0  0  0  0  0  0  0  0
    9.2364  -15.0699   14.4900 O   0  0  0  0  0  0  0  0  0  0  0  0
    7.1558  -16.8005   25.3477 C   0  0  0  0  0  0  0  0  0  0  0  0
    7.1843  -15.4133   25.1995 C   0  0  1  0  0  0  0  0  0  0  0  0
    8.5288  -14.9957   24.6400 N   0  0  0  0  0  0  0  0  0  0  0  0
    8.7169  -15.6747   23.3682 C   0  0  0  0  0  0  0  0  0  0  0  0
    9.6443  -15.4641   25.5394 O   0  0  0  0  0  0  0  0  0  0  0  0
   10.3900  -16.4271   25.2395 O   0  0  0  0  0  0  0  0  0  0  0  0
    9.7131  -14.2502   29.4892 C   0  0  0  0  0  0  0  0  0  0  0  0
   10.9573  -14.3096   28.8864 C   0  0  1  0  0  0  0  0  0  0  0  0
   10.9282  -15.2536   27.6987 N   0  0  0  0  0  0  0  0  0  0  0  0
    9.8926  -14.8107   26.7886 C   0  0  0  0  0  0  0  0  0  0  0  0
   10.6264  -16.6320   28.1163 O   0  0  0  0  0  0  0  0  0  0  0  0
    9.4155  -17.2085   27.8429 O   0  0  0  0  0  0  0  0  0  0  0  0
  1  2  1  0
  2  3  2  0
  2  4  1  0
  4  5  1  0
  5  6  1  0
  6  7  1  0
  7  8  1  0
  8  9  1  1
  8 10  1  0
 10 11  2  0
 10 15  1  0
 13 12  1  0
 14 13  1  6
 14 16  1  0
 15 14  1  0
 16 17  2  0
 16 21  1  0
 18 19  1  0
 20 19  1  6
 20 22  1  0
 21 20  1  0
 22 23  1  0
 24 22  2  0
M  END
$$$$
