RSS.pdb
     RDKit          3D

 24 23  0  0  1  0  0  0  0  0999 V2000
    7.4751  -12.9994   21.4443 N   0  0  0  0  0  0  0  0  0  0  0  0
    7.8660  -13.1633   20.0960 C   0  0  0  0  0  0  0  0  0  0  0  0
    7.7780  -12.2139   19.2229 N   0  0  0  0  0  0  0  0  0  0  0  0
    8.3838  -14.4280   19.6761 N   0  0  0  0  0  0  0  0  0  0  0  0
    8.7842  -15.4752   20.6020 C   0  0  0  0  0  0  0  0  0  0  0  0
   10.2088  -15.3772   20.9983 C   0  0  0  0  0  0  0  0  0  0  0  0
   10.6047  -16.4035   22.0002 C   0  0  0  0  0  0  0  0  0  0  0  0
   11.1578  -17.6561   21.4120 C   0  0  2  0  0  0  0  0  0  0  0  0
   10.4150  -18.1575   20.2955 N   0  0  0  0  0  0  0  0  0  0  0  0
   11.2655  -18.7495   22.4222 C   0  0  0  0  0  0  0  0  0  0  0  0
   10.3797  -19.6382   22.5211 O   0  0  0  0  0  0  0  0  0  0  0  0
    8.0871  -12.4378   18.2526 O   0  0  0  0  0  0  0  0  0  0  0  0
   14.7191  -18.9792   24.6682 C   0  0  0  0  0  0  0  0  0  0  0  0
   14.0433  -20.1638   24.3732 C   0  0  1  0  0  0  0  0  0  0  0  0
   12.5593  -19.8807   24.2606 N   0  0  0  0  0  0  0  0  0  0  0  0
   12.3785  -18.8070   23.2971 C   0  0  0  0  0  0  0  0  0  0  0  0
   12.0176  -19.3694   25.5713 O   0  0  0  0  0  0  0  0  0  0  0  0
   12.0429  -18.1540   25.8807 O   0  0  0  0  0  0  0  0  0  0  0  0
   10.4888  -22.1345   28.2118 C   0  0  0  0  0  0  0  0  0  0  0  0
    9.9771  -20.8549   28.3367 C   0  0  1  0  0  0  0  0  0  0  0  0
   10.9704  -19.8320   27.8174 N   0  0  0  0  0  0  0  0  0  0  0  0
   11.4454  -20.2732   26.5224 C   0  0  0  0  0  0  0  0  0  0  0  0
   12.1254  -19.6998   28.7195 O   0  0  0  0  0  0  0  0  0  0  0  0
   11.9797  -19.2296   29.9966 O   0  0  0  0  0  0  0  0  0  0  0  0
  1  2  1  0
  2  3  2  0
  2  4  1  0
  4  5  1  0
  5  6  1  0
  6  7  1  0
  7  8  1  0
  8  9  1  6
  8 10  1  0
 10 11  2  0
 10 15  1  0
 13 12  1  0
 14 13  1  6
 14 16  1  0
 15 14  1  0
 16 17  2  0
 16 21  1  0
 18 19  1  0
 20 19  1  6
 20 22  1  0
 21 20  1  0
 22 23  1  0
 24 22  2  0
M  END
$$$$
