RSS.pdb
     RDKit          3D

 24 23  0  0  1  0  0  0  0  0999 V2000
    7.3038  -14.1819   13.1175 N   0  0  0  0  0  0  0  0  0  0  0  0
    8.2971  -13.3600   13.6969 C   0  0  0  0  0  0  0  0  0  0  0  0
    9.1069  -12.6402   12.9916 N   0  0  0  0  0  0  0  0  0  0  0  0
    8.4129  -13.3168   15.1212 N   0  0  0  0  0  0  0  0  0  0  0  0
    7.5896  -14.1153   16.0148 C   0  0  0  0  0  0  0  0  0  0  0  0
    7.9069  -13.8879   17.4444 C   0  0  0  0  0  0  0  0  0  0  0  0
    9.2804  -14.3271   17.8113 C   0  0  0  0  0  0  0  0  0  0  0  0
    9.3271  -15.4165   18.8271 C   0  0  2  0  0  0  0  0  0  0  0  0
    8.1638  -16.2509   18.8461 N   0  0  0  0  0  0  0  0  0  0  0  0
    9.5372  -14.8875   20.2068 C   0  0  0  0  0  0  0  0  0  0  0  0
   10.5275  -14.1622   20.4854 O   0  0  0  0  0  0  0  0  0  0  0  0
    9.8062  -12.0705   13.5146 O   0  0  0  0  0  0  0  0  0  0  0  0
    6.7623  -15.8093   23.2065 C   0  0  0  0  0  0  0  0  0  0  0  0
    7.4961  -14.6252   23.2855 C   0  0  1  0  0  0  0  0  0  0  0  0
    8.8450  -14.8252   22.6256 N   0  0  0  0  0  0  0  0  0  0  0  0
    8.6161  -15.1956   21.2383 C   0  0  0  0  0  0  0  0  0  0  0  0
    9.5764  -15.9820   23.2577 O   0  0  0  0  0  0  0  0  0  0  0  0
    9.7284  -17.0813   22.6729 O   0  0  0  0  0  0  0  0  0  0  0  0
   12.7960  -17.3714   26.5188 C   0  0  0  0  0  0  0  0  0  0  0  0
   12.0792  -16.3700   25.8876 C   0  0  1  0  0  0  0  0  0  0  0  0
   10.8480  -16.9432   25.2108 N   0  0  0  0  0  0  0  0  0  0  0  0
   10.1321  -15.8591   24.5711 C   0  0  0  0  0  0  0  0  0  0  0  0
    9.9512  -17.5865   26.1841 O   0  0  0  0  0  0  0  0  0  0  0  0
   10.2427  -18.8132   26.7166 O   0  0  0  0  0  0  0  0  0  0  0  0
  1  2  1  0
  2  3  2  0
  2  4  1  0
  4  5  1  0
  5  6  1  0
  6  7  1  0
  7  8  1  0
  8  9  1  1
  8 10  1  0
 10 11  2  0
 10 15  1  0
 13 12  1  0
 14 13  1  6
 14 16  1  0
 15 14  1  0
 16 17  2  0
 16 21  1  0
 18 19  1  0
 20 19  1  6
 20 22  1  0
 21 20  1  0
 22 23  1  0
 24 22  2  0
M  END
$$$$
