RSS.pdb
     RDKit          3D

 24 23  0  0  1  0  0  0  0  0999 V2000
    8.7195  -12.6988   17.8095 N   0  0  0  0  0  0  0  0  0  0  0  0
    8.0963  -13.8663   17.3134 C   0  0  0  0  0  0  0  0  0  0  0  0
    8.2916  -14.3064   16.1137 N   0  0  0  0  0  0  0  0  0  0  0  0
    7.2152  -14.5961   18.1708 N   0  0  0  0  0  0  0  0  0  0  0  0
    7.0747  -14.3229   19.5920 C   0  0  0  0  0  0  0  0  0  0  0  0
    8.1161  -14.9878   20.4102 C   0  0  0  0  0  0  0  0  0  0  0  0
    8.9075  -14.0322   21.2313 C   0  0  0  0  0  0  0  0  0  0  0  0
   10.0124  -14.6590   22.0106 C   0  0  2  0  0  0  0  0  0  0  0  0
   10.6733  -15.7323   21.3317 N   0  0  0  0  0  0  0  0  0  0  0  0
    9.5459  -15.1685   23.3336 C   0  0  0  0  0  0  0  0  0  0  0  0
    8.7102  -14.5281   24.0234 O   0  0  0  0  0  0  0  0  0  0  0  0
    7.7116  -15.1182   15.8106 O   0  0  0  0  0  0  0  0  0  0  0  0
   11.5082  -18.3940   25.1614 C   0  0  0  0  0  0  0  0  0  0  0  0
   10.1150  -18.3552   25.2285 C   0  0  1  0  0  0  0  0  0  0  0  0
    9.6479  -16.9168   25.1409 N   0  0  0  0  0  0  0  0  0  0  0  0
   10.0406  -16.3950   23.8419 C   0  0  0  0  0  0  0  0  0  0  0  0
   10.3526  -16.0685   26.1689 O   0  0  0  0  0  0  0  0  0  0  0  0
   11.4630  -15.5286   25.9477 O   0  0  0  0  0  0  0  0  0  0  0  0
    9.1318  -13.2124   27.7176 C   0  0  0  0  0  0  0  0  0  0  0  0
    9.5203  -13.9044   28.8512 C   0  0  2  0  0  0  0  0  0  0  0  0
   10.4227  -15.0669   28.4813 N   0  0  0  0  0  0  0  0  0  0  0  0
    9.7641  -15.8478   27.4549 C   0  0  0  0  0  0  0  0  0  0  0  0
   10.6785  -15.9373   29.6399 O   0  0  0  0  0  0  0  0  0  0  0  0
   11.2356  -15.4455   30.7893 O   0  0  0  0  0  0  0  0  0  0  0  0
  1  2  1  0
  2  3  2  0
  2  4  1  0
  4  5  1  0
  5  6  1  0
  6  7  1  0
  7  8  1  0
  8  9  1  6
  8 10  1  0
 10 11  2  0
 10 15  1  0
 13 12  1  0
 14 13  1  6
 14 16  1  0
 15 14  1  0
 16 17  2  0
 16 21  1  0
 18 19  1  0
 20 19  1  6
 20 22  1  0
 21 20  1  0
 22 23  1  0
 24 22  2  0
M  END
$$$$
