RSS.pdb
     RDKit          3D

 24 23  0  0  1  0  0  0  0  0999 V2000
    5.4858  -18.9731   15.5629 N   0  0  0  0  0  0  0  0  0  0  0  0
    5.5782  -20.3060   16.0238 C   0  0  0  0  0  0  0  0  0  0  0  0
    6.3589  -21.1808   15.4793 N   0  0  0  0  0  0  0  0  0  0  0  0
    4.7799  -20.7075   17.1397 N   0  0  0  0  0  0  0  0  0  0  0  0
    5.0838  -20.3405   18.5134 C   0  0  0  0  0  0  0  0  0  0  0  0
    6.5100  -20.5454   18.8603 C   0  0  0  0  0  0  0  0  0  0  0  0
    6.8152  -20.2185   20.2793 C   0  0  0  0  0  0  0  0  0  0  0  0
    6.9020  -18.7592   20.5694 C   0  0  2  0  0  0  0  0  0  0  0  0
    7.3349  -17.9654   19.4594 N   0  0  0  0  0  0  0  0  0  0  0  0
    7.8043  -18.4700   21.7225 C   0  0  0  0  0  0  0  0  0  0  0  0
    9.0542  -18.4282   21.5806 O   0  0  0  0  0  0  0  0  0  0  0  0
    6.3477  -22.1398   15.8884 O   0  0  0  0  0  0  0  0  0  0  0  0
    6.0192  -17.9178   25.3095 C   0  0  0  0  0  0  0  0  0  0  0  0
    7.2011  -17.1890   25.1728 C   0  0  1  0  0  0  0  0  0  0  0  0
    8.0906  -17.8622   24.1479 N   0  0  0  0  0  0  0  0  0  0  0  0
    7.2641  -18.2348   23.0111 C   0  0  0  0  0  0  0  0  0  0  0  0
    8.6553  -19.1464   24.7000 O   0  0  0  0  0  0  0  0  0  0  0  0
    8.0559  -20.2435   24.5966 O   0  0  0  0  0  0  0  0  0  0  0  0
   12.0565  -20.5535   24.1994 C   0  0  0  0  0  0  0  0  0  0  0  0
   11.9307  -20.4570   25.5741 C   0  0  2  0  0  0  0  0  0  0  0  0
   10.4690  -20.3537   25.9683 N   0  0  0  0  0  0  0  0  0  0  0  0
    9.9190  -19.1539   25.3724 C   0  0  0  0  0  0  0  0  0  0  0  0
   10.3122  -20.2652   27.4287 O   0  0  0  0  0  0  0  0  0  0  0  0
    9.8339  -19.1298   28.0248 O   0  0  0  0  0  0  0  0  0  0  0  0
  1  2  1  0
  2  3  2  0
  2  4  1  0
  4  5  1  0
  5  6  1  0
  6  7  1  0
  7  8  1  0
  8  9  1  6
  8 10  1  0
 10 11  2  0
 10 15  1  0
 13 12  1  0
 14 13  1  6
 14 16  1  0
 15 14  1  0
 16 17  2  0
 16 21  1  0
 18 19  1  0
 20 19  1  6
 20 22  1  0
 21 20  1  0
 22 23  1  0
 24 22  2  0
M  END
$$$$
