RSS.pdb
     RDKit          3D

 24 23  0  0  1  0  0  0  0  0999 V2000
    6.7498  -16.1272   14.4356 N   0  0  0  0  0  0  0  0  0  0  0  0
    8.0617  -15.6082   14.5215 C   0  0  0  0  0  0  0  0  0  0  0  0
    8.4234  -14.5212   13.9224 N   0  0  0  0  0  0  0  0  0  0  0  0
    9.0314  -16.3087   15.3043 N   0  0  0  0  0  0  0  0  0  0  0  0
    8.9568  -16.4262   16.7516 C   0  0  0  0  0  0  0  0  0  0  0  0
    8.6112  -15.1466   17.4145 C   0  0  0  0  0  0  0  0  0  0  0  0
    8.4450  -15.2816   18.8868 C   0  0  0  0  0  0  0  0  0  0  0  0
    8.0247  -14.0288   19.5759 C   0  0  2  0  0  0  0  0  0  0  0  0
    8.3493  -12.8304   18.8633 N   0  0  0  0  0  0  0  0  0  0  0  0
    8.6054  -13.9215   20.9466 C   0  0  0  0  0  0  0  0  0  0  0  0
    9.7462  -13.4248   21.1366 O   0  0  0  0  0  0  0  0  0  0  0  0
    9.4081  -14.2105   14.0668 O   0  0  0  0  0  0  0  0  0  0  0  0
    6.2648  -15.0238   24.1479 C   0  0  0  0  0  0  0  0  0  0  0  0
    7.3104  -14.1326   24.3917 C   0  0  1  0  0  0  0  0  0  0  0  0
    8.4350  -14.3977   23.4119 N   0  0  0  0  0  0  0  0  0  0  0  0
    7.8751  -14.3818   22.0702 C   0  0  0  0  0  0  0  0  0  0  0  0
    9.0012  -15.7796   23.6182 O   0  0  0  0  0  0  0  0  0  0  0  0
    8.5815  -16.7790   22.9870 O   0  0  0  0  0  0  0  0  0  0  0  0
   12.7184  -18.4662   24.6259 C   0  0  0  0  0  0  0  0  0  0  0  0
   12.1117  -17.2408   24.4134 C   0  0  1  0  0  0  0  0  0  0  0  0
   10.6396  -17.3065   24.7757 N   0  0  0  0  0  0  0  0  0  0  0  0
   10.0572  -15.9984   24.5595 C   0  0  0  0  0  0  0  0  0  0  0  0
   10.4506  -17.6755   26.1876 O   0  0  0  0  0  0  0  0  0  0  0  0
   10.8194  -18.9076   26.6559 O   0  0  0  0  0  0  0  0  0  0  0  0
  1  2  1  0
  2  3  2  0
  2  4  1  0
  4  5  1  0
  5  6  1  0
  6  7  1  0
  7  8  1  0
  8  9  1  6
  8 10  1  0
 10 11  2  0
 10 15  1  0
 13 12  1  0
 14 13  1  6
 14 16  1  0
 15 14  1  0
 16 17  2  0
 16 21  1  0
 18 19  1  0
 20 19  1  6
 20 22  1  0
 21 20  1  0
 22 23  1  0
 24 22  2  0
M  END
$$$$
