RSS.pdb
     RDKit          3D

 24 23  0  0  1  0  0  0  0  0999 V2000
   10.3803  -14.7099   17.0808 N   0  0  0  0  0  0  0  0  0  0  0  0
    9.1360  -14.5899   16.4212 C   0  0  0  0  0  0  0  0  0  0  0  0
    9.0318  -14.5137   15.1349 N   0  0  0  0  0  0  0  0  0  0  0  0
    7.9403  -14.5540   17.2041 N   0  0  0  0  0  0  0  0  0  0  0  0
    7.9287  -14.6824   18.6523 C   0  0  0  0  0  0  0  0  0  0  0  0
    8.1891  -13.3983   19.3446 C   0  0  0  0  0  0  0  0  0  0  0  0
    7.2794  -13.1659   20.4989 C   0  0  0  0  0  0  0  0  0  0  0  0
    7.1424  -14.3307   21.4183 C   0  0  2  0  0  0  0  0  0  0  0  0
    5.9745  -14.2908   22.2453 N   0  0  0  0  0  0  0  0  0  0  0  0
    8.3313  -14.4857   22.3071 C   0  0  0  0  0  0  0  0  0  0  0  0
    8.4594  -13.7986   23.3539 O   0  0  0  0  0  0  0  0  0  0  0  0
    8.0695  -14.5690   14.7374 O   0  0  0  0  0  0  0  0  0  0  0  0
   11.3705  -16.8452   24.6398 C   0  0  0  0  0  0  0  0  0  0  0  0
   10.2395  -16.6463   23.8473 C   0  0  1  0  0  0  0  0  0  0  0  0
   10.5376  -15.5904   22.8027 N   0  0  0  0  0  0  0  0  0  0  0  0
    9.3477  -15.4188   21.9849 C   0  0  0  0  0  0  0  0  0  0  0  0
   11.6269  -16.0599   21.8723 O   0  0  0  0  0  0  0  0  0  0  0  0
   11.4562  -16.9972   21.0563 O   0  0  0  0  0  0  0  0  0  0  0  0
   15.5057  -14.2676   21.9414 C   0  0  0  0  0  0  0  0  0  0  0  0
   14.9024  -14.6799   20.7662 C   0  0  1  0  0  0  0  0  0  0  0  0
   13.9929  -15.8669   21.0235 N   0  0  0  0  0  0  0  0  0  0  0  0
   12.9158  -15.4375   21.8910 C   0  0  0  0  0  0  0  0  0  0  0  0
   14.7170  -16.9644   21.6843 O   0  0  0  0  0  0  0  0  0  0  0  0
   15.6623  -17.6955   21.0172 O   0  0  0  0  0  0  0  0  0  0  0  0
  1  2  1  0
  2  3  2  0
  2  4  1  0
  4  5  1  0
  5  6  1  0
  6  7  1  0
  7  8  1  0
  8  9  1  1
  8 10  1  0
 10 11  2  0
 10 15  1  0
 13 12  1  0
 14 13  1  1
 14 16  1  0
 15 14  1  0
 16 17  2  0
 16 21  1  0
 18 19  1  0
 20 19  1  6
 20 22  1  0
 21 20  1  0
 22 23  1  0
 24 22  2  0
M  END
$$$$
