RSS.pdb
     RDKit          3D

 24 23  0  0  1  0  0  0  0  0999 V2000
    9.1608  -17.9275   14.7215 N   0  0  0  0  0  0  0  0  0  0  0  0
   10.3739  -17.2029   14.7535 C   0  0  0  0  0  0  0  0  0  0  0  0
   11.2291  -17.2294   13.7844 N   0  0  0  0  0  0  0  0  0  0  0  0
   10.6706  -16.4037   15.9011 N   0  0  0  0  0  0  0  0  0  0  0  0
    9.7862  -16.2951   17.0501 C   0  0  0  0  0  0  0  0  0  0  0  0
    8.6236  -15.4113   16.7981 C   0  0  0  0  0  0  0  0  0  0  0  0
    7.6990  -15.3225   17.9605 C   0  0  0  0  0  0  0  0  0  0  0  0
    7.5559  -13.9525   18.5294 C   0  0  2  0  0  0  0  0  0  0  0  0
    7.9598  -12.9040   17.6423 N   0  0  0  0  0  0  0  0  0  0  0  0
    8.3135  -13.7939   19.8055 C   0  0  0  0  0  0  0  0  0  0  0  0
    9.4085  -13.1744   19.8434 O   0  0  0  0  0  0  0  0  0  0  0  0
   12.1178  -16.7032   13.9274 O   0  0  0  0  0  0  0  0  0  0  0  0
    6.6309  -15.2812   23.2714 C   0  0  0  0  0  0  0  0  0  0  0  0
    7.4884  -14.1864   23.3852 C   0  0  1  0  0  0  0  0  0  0  0  0
    8.5173  -14.2367   22.2745 N   0  0  0  0  0  0  0  0  0  0  0  0
    7.8083  -14.3437   21.0096 C   0  0  0  0  0  0  0  0  0  0  0  0
    9.3626  -15.4795   22.3927 O   0  0  0  0  0  0  0  0  0  0  0  0
    9.1037  -16.5311   21.7598 O   0  0  0  0  0  0  0  0  0  0  0  0
   13.6798  -17.2630   23.3512 C   0  0  0  0  0  0  0  0  0  0  0  0
   12.8147  -16.1831   23.3314 C   0  0  2  0  0  0  0  0  0  0  0  0
   11.3731  -16.6561   23.3563 N   0  0  0  0  0  0  0  0  0  0  0  0
   10.5104  -15.4981   23.2477 C   0  0  0  0  0  0  0  0  0  0  0  0
   11.0600  -17.3569   24.6118 O   0  0  0  0  0  0  0  0  0  0  0  0
   11.5818  -18.5922   24.8856 O   0  0  0  0  0  0  0  0  0  0  0  0
  1  2  1  0
  2  3  2  0
  2  4  1  0
  4  5  1  0
  5  6  1  0
  6  7  1  0
  7  8  1  0
  8  9  1  6
  8 10  1  0
 10 11  2  0
 10 15  1  0
 13 12  1  0
 14 13  1  6
 14 16  1  0
 15 14  1  0
 16 17  2  0
 16 21  1  0
 18 19  1  0
 20 19  1  6
 20 22  1  0
 21 20  1  0
 22 23  1  0
 24 22  2  0
M  END
$$$$
