PQK.pdb
     RDKit          3D

 26 26  0  0  1  0  0  0  0  0999 V2000
   29.3686  -22.3870  -17.5590 N   0  0  0  0  0  0  0  0  0  0  0  0
   28.0729  -21.9826  -16.9956 C   0  0  0  0  0  0  0  0  0  0  0  0
   27.3359  -23.3234  -17.0429 C   0  0  0  0  0  0  0  0  0  0  0  0
   28.3952  -24.2572  -16.4756 C   0  0  0  0  0  0  0  0  0  0  0  0
   29.6741  -23.5369  -16.7323 C   0  0  1  0  0  0  0  0  0  0  0  0
   30.7455  -24.3715  -17.2985 C   0  0  0  0  0  0  0  0  0  0  0  0
   31.8568  -23.8230  -17.5173 O   0  0  0  0  0  0  0  0  0  0  0  0
   33.1640  -31.1891  -17.9797 N   0  0  0  0  0  0  0  0  0  0  0  0
   32.2403  -30.1509  -17.6793 C   0  0  0  0  0  0  0  0  0  0  0  0
   31.0360  -30.4113  -17.5577 O   0  0  0  0  0  0  0  0  0  0  0  0
   32.7577  -28.7781  -17.5207 C   0  0  0  0  0  0  0  0  0  0  0  0
   31.7256  -27.7562  -17.2368 C   0  0  0  0  0  0  0  0  0  0  0  0
   31.6521  -26.5795  -18.1779 C   0  0  2  0  0  0  0  0  0  0  0  0
   30.5939  -25.7271  -17.6023 N   0  0  0  0  0  0  0  0  0  0  0  0
   31.2321  -27.0156  -19.5271 C   0  0  0  0  0  0  0  0  0  0  0  0
   30.0039  -27.2359  -19.7966 O   0  0  0  0  0  0  0  0  0  0  0  0
   32.1517  -27.2014  -20.5684 N   0  0  0  0  0  0  0  0  0  0  0  0
   31.6718  -27.6115  -21.9250 C   0  0  1  0  0  0  0  0  0  0  0  0
   31.8413  -26.4318  -22.8480 C   0  0  0  0  0  0  0  0  0  0  0  0
   31.3486  -26.7481  -24.2197 C   0  0  0  0  0  0  0  0  0  0  0  0
   31.3984  -25.5440  -25.1529 C   0  0  0  0  0  0  0  0  0  0  0  0
   30.8508  -25.9634  -26.4898 C   0  0  0  0  0  0  0  0  0  0  0  0
   30.7230  -24.7647  -27.3287 N   0  0  0  0  0  0  0  0  0  0  0  0
   32.4787  -28.7423  -22.3968 C   0  0  0  0  0  0  0  0  0  0  0  0
   32.0123  -29.6893  -23.2722 O   0  0  0  0  0  0  0  0  0  0  0  0
   33.6588  -28.8704  -21.9871 O   0  0  0  0  0  0  0  0  0  0  0  0
  1  2  1  0
  3  2  1  0
  4  3  1  0
  5  4  1  0
  5  1  1  0
  6 14  1  0
  5  6  1  6
  7  6  2  0
  8  9  1  0
  9 10  2  0
 11  9  1  0
 11 12  1  0
 13 12  1  1
 13 14  1  0
 15 17  1  0
 15 13  1  0
 16 15  2  0
 18 17  1  0
 18 24  1  0
 18 19  1  6
 20 19  1  0
 21 20  1  0
 22 21  1  0
 23 22  1  0
 24 25  1  0
 26 24  2  0
M  END
$$$$
