PQK.pdb
     RDKit          3D

 26 26  0  0  1  0  0  0  0  0999 V2000
   27.1583  -20.0810  -16.3461 N   0  0  0  0  0  0  0  0  0  0  0  0
   28.5047  -20.0633  -16.9349 C   0  0  0  0  0  0  0  0  0  0  0  0
   29.2537  -20.9107  -15.9034 C   0  0  0  0  0  0  0  0  0  0  0  0
   28.2855  -22.0708  -15.7226 C   0  0  0  0  0  0  0  0  0  0  0  0
   26.9730  -21.5033  -16.1415 C   0  0  1  0  0  0  0  0  0  0  0  0
   25.8564  -21.8027  -15.2314 C   0  0  0  0  0  0  0  0  0  0  0  0
   25.0783  -22.7382  -15.5524 O   0  0  0  0  0  0  0  0  0  0  0  0
   26.1918  -20.3298   -9.2887 N   0  0  0  0  0  0  0  0  0  0  0  0
   24.8992  -20.9214   -9.2672 C   0  0  0  0  0  0  0  0  0  0  0  0
   24.3256  -21.1139   -8.1870 O   0  0  0  0  0  0  0  0  0  0  0  0
   24.2772  -21.2912  -10.5532 C   0  0  0  0  0  0  0  0  0  0  0  0
   25.1349  -21.0781  -11.7402 C   0  0  0  0  0  0  0  0  0  0  0  0
   24.5461  -21.4365  -13.0819 C   0  0  2  0  0  0  0  0  0  0  0  0
   25.6182  -21.1091  -14.0417 N   0  0  0  0  0  0  0  0  0  0  0  0
   23.3678  -20.5930  -13.3771 C   0  0  0  0  0  0  0  0  0  0  0  0
   23.4912  -19.3420  -13.5995 O   0  0  0  0  0  0  0  0  0  0  0  0
   22.0706  -21.1208  -13.4323 N   0  0  0  0  0  0  0  0  0  0  0  0
   20.9627  -20.3189  -14.0394 C   0  0  1  0  0  0  0  0  0  0  0  0
   21.0026  -20.5356  -15.5305 C   0  0  0  0  0  0  0  0  0  0  0  0
   19.8889  -19.8115  -16.2085 C   0  0  0  0  0  0  0  0  0  0  0  0
   20.3862  -18.7927  -17.2273 C   0  0  0  0  0  0  0  0  0  0  0  0
   19.2025  -18.0058  -17.7201 C   0  0  0  0  0  0  0  0  0  0  0  0
   19.6563  -17.1294  -18.8079 N   0  0  0  0  0  0  0  0  0  0  0  0
   19.6817  -20.7833  -13.4954 C   0  0  0  0  0  0  0  0  0  0  0  0
   18.5655  -19.9910  -13.4117 O   0  0  0  0  0  0  0  0  0  0  0  0
   19.5819  -21.9626  -13.0756 O   0  0  0  0  0  0  0  0  0  0  0  0
  1  2  1  0
  3  2  1  0
  4  3  1  0
  5  4  1  0
  5  1  1  0
  6 14  1  0
  5  6  1  1
  7  6  2  0
  8  9  1  0
  9 10  2  0
 11  9  1  0
 11 12  1  0
 13 12  1  1
 13 14  1  0
 15 17  1  0
 15 13  1  0
 16 15  2  0
 18 17  1  0
 18 24  1  0
 18 19  1  6
 20 19  1  0
 21 20  1  0
 22 21  1  0
 23 22  1  0
 24 25  1  0
 26 24  2  0
M  END
$$$$
