PQK.pdb
     RDKit          3D

 26 26  0  0  1  0  0  0  0  0999 V2000
   29.9758  -22.0642  -11.5118 N   0  0  0  0  0  0  0  0  0  0  0  0
   31.2852  -22.0815  -10.8447 C   0  0  0  0  0  0  0  0  0  0  0  0
   32.1249  -21.3506  -11.8953 C   0  0  0  0  0  0  0  0  0  0  0  0
   31.2167  -20.1753  -12.2267 C   0  0  0  0  0  0  0  0  0  0  0  0
   29.8606  -20.6582  -11.8417 C   0  0  1  0  0  0  0  0  0  0  0  0
   28.8100  -20.3955  -12.8377 C   0  0  0  0  0  0  0  0  0  0  0  0
   28.5445  -19.1938  -13.1010 O   0  0  0  0  0  0  0  0  0  0  0  0
   27.0040  -24.6890  -16.8417 N   0  0  0  0  0  0  0  0  0  0  0  0
   26.1473  -23.6429  -17.2809 C   0  0  0  0  0  0  0  0  0  0  0  0
   25.3444  -23.8468  -18.2011 O   0  0  0  0  0  0  0  0  0  0  0  0
   26.2469  -22.3302  -16.6141 C   0  0  0  0  0  0  0  0  0  0  0  0
   27.2118  -22.2764  -15.4934 C   0  0  0  0  0  0  0  0  0  0  0  0
   27.0376  -21.1593  -14.4948 C   0  0  2  0  0  0  0  0  0  0  0  0
   28.0996  -21.4009  -13.4992 N   0  0  0  0  0  0  0  0  0  0  0  0
   25.7234  -21.2589  -13.8240 C   0  0  0  0  0  0  0  0  0  0  0  0
   24.6376  -21.0737  -14.4694 O   0  0  0  0  0  0  0  0  0  0  0  0
   25.6053  -21.5642  -12.4612 N   0  0  0  0  0  0  0  0  0  0  0  0
   24.2512  -21.6660  -11.8326 C   0  0  1  0  0  0  0  0  0  0  0  0
   24.4385  -21.6715  -10.3370 C   0  0  0  0  0  0  0  0  0  0  0  0
   25.0110  -20.3785   -9.8627 C   0  0  0  0  0  0  0  0  0  0  0  0
   25.2052  -20.3424   -8.3514 C   0  0  0  0  0  0  0  0  0  0  0  0
   25.8101  -19.0138   -7.9876 C   0  0  0  0  0  0  0  0  0  0  0  0
   26.0807  -19.0139   -6.5441 N   0  0  0  0  0  0  0  0  0  0  0  0
   23.4473  -20.5073  -12.2370 C   0  0  0  0  0  0  0  0  0  0  0  0
   22.0761  -20.4962  -12.2177 O   0  0  0  0  0  0  0  0  0  0  0  0
   24.0248  -19.4630  -12.6279 O   0  0  0  0  0  0  0  0  0  0  0  0
  1  2  1  0
  3  2  1  0
  4  3  1  0
  5  4  1  0
  5  1  1  0
  6 14  1  0
  5  6  1  6
  7  6  2  0
  8  9  1  0
  9 10  2  0
 11  9  1  0
 11 12  1  0
 13 12  1  6
 13 14  1  0
 15 17  1  0
 15 13  1  0
 16 15  2  0
 18 17  1  0
 18 24  1  0
 18 19  1  1
 20 19  1  0
 21 20  1  0
 22 21  1  0
 23 22  1  0
 24 25  1  0
 26 24  2  0
M  END
$$$$
