PQK.pdb
     RDKit          3D

 26 26  0  0  1  0  0  0  0  0999 V2000
   22.6853  -10.6144  -19.3964 N   0  0  0  0  0  0  0  0  0  0  0  0
   23.5250  -11.5569  -20.1489 C   0  0  0  0  0  0  0  0  0  0  0  0
   24.3018  -12.1958  -18.9950 C   0  0  0  0  0  0  0  0  0  0  0  0
   23.1787  -12.4690  -18.0051 C   0  0  0  0  0  0  0  0  0  0  0  0
   22.1190  -11.4976  -18.3971 C   0  0  1  0  0  0  0  0  0  0  0  0
   21.5120  -10.7654  -17.2744 C   0  0  0  0  0  0  0  0  0  0  0  0
   20.9084  -11.4383  -16.3988 O   0  0  0  0  0  0  0  0  0  0  0  0
   23.6518   -5.6169  -14.8754 N   0  0  0  0  0  0  0  0  0  0  0  0
   22.3295   -5.4847  -14.3703 C   0  0  0  0  0  0  0  0  0  0  0  0
   22.0512   -4.5537  -13.6031 O   0  0  0  0  0  0  0  0  0  0  0  0
   21.3194   -6.4775  -14.7847 C   0  0  0  0  0  0  0  0  0  0  0  0
   21.8161   -7.5148  -15.7160 C   0  0  0  0  0  0  0  0  0  0  0  0
   20.8509   -8.6097  -16.0969 C   0  0  2  0  0  0  0  0  0  0  0  0
   21.5706   -9.3764  -17.1322 N   0  0  0  0  0  0  0  0  0  0  0  0
   19.6233   -8.0395  -16.6927 C   0  0  0  0  0  0  0  0  0  0  0  0
   19.6358   -7.5206  -17.8590 O   0  0  0  0  0  0  0  0  0  0  0  0
   18.3961   -8.0456  -16.0157 N   0  0  0  0  0  0  0  0  0  0  0  0
   17.1932   -7.4145  -16.6433 C   0  0  1  0  0  0  0  0  0  0  0  0
   15.9703   -8.0577  -16.0410 C   0  0  0  0  0  0  0  0  0  0  0  0
   14.7224   -7.4130  -16.5424 C   0  0  0  0  0  0  0  0  0  0  0  0
   13.4652   -7.9963  -15.9079 C   0  0  0  0  0  0  0  0  0  0  0  0
   12.2720   -7.3057  -16.5100 C   0  0  0  0  0  0  0  0  0  0  0  0
   11.0643   -7.8222  -15.8529 N   0  0  0  0  0  0  0  0  0  0  0  0
   17.2017   -5.9761  -16.3547 C   0  0  0  0  0  0  0  0  0  0  0  0
   16.7715   -5.0251  -17.2443 O   0  0  0  0  0  0  0  0  0  0  0  0
   17.6243   -5.5733  -15.2429 O   0  0  0  0  0  0  0  0  0  0  0  0
  1  2  1  0
  3  2  1  0
  4  3  1  0
  5  4  1  0
  5  1  1  0
  6 14  1  0
  5  6  1  1
  7  6  2  0
  8  9  1  0
  9 10  2  0
 11  9  1  0
 11 12  1  0
 13 12  1  6
 13 14  1  0
 15 17  1  0
 15 13  1  0
 16 15  2  0
 18 17  1  0
 18 24  1  0
 18 19  1  1
 20 19  1  0
 21 20  1  0
 22 21  1  0
 23 22  1  0
 24 25  1  0
 26 24  2  0
M  END
$$$$
