PQK.pdb
     RDKit          3D

 26 26  0  0  1  0  0  0  0  0999 V2000
   28.7115  -22.2270  -16.4594 N   0  0  0  0  0  0  0  0  0  0  0  0
   30.0491  -22.6318  -16.9139 C   0  0  0  0  0  0  0  0  0  0  0  0
   29.6881  -23.8929  -17.7028 C   0  0  0  0  0  0  0  0  0  0  0  0
   28.4944  -23.4000  -18.5078 C   0  0  0  0  0  0  0  0  0  0  0  0
   27.9841  -22.2480  -17.7123 C   0  0  1  0  0  0  0  0  0  0  0  0
   26.5255  -22.2336  -17.5194 C   0  0  0  0  0  0  0  0  0  0  0  0
   25.8019  -22.2318  -18.5490 O   0  0  0  0  0  0  0  0  0  0  0  0
   24.0473  -25.3870  -13.0966 N   0  0  0  0  0  0  0  0  0  0  0  0
   22.8461  -24.7513  -13.5142 C   0  0  0  0  0  0  0  0  0  0  0  0
   21.7591  -25.1165  -13.0474 O   0  0  0  0  0  0  0  0  0  0  0  0
   22.9388  -23.6615  -14.5048 C   0  0  0  0  0  0  0  0  0  0  0  0
   24.3068  -23.3882  -14.9989 C   0  0  0  0  0  0  0  0  0  0  0  0
   24.4526  -22.3134  -16.0472 C   0  0  2  0  0  0  0  0  0  0  0  0
   25.9092  -22.2219  -16.2651 N   0  0  0  0  0  0  0  0  0  0  0  0
   23.9646  -21.0148  -15.5347 C   0  0  0  0  0  0  0  0  0  0  0  0
   24.5791  -20.4021  -14.5985 O   0  0  0  0  0  0  0  0  0  0  0  0
   22.8177  -20.3955  -16.0503 N   0  0  0  0  0  0  0  0  0  0  0  0
   22.3203  -19.1210  -15.4444 C   0  0  1  0  0  0  0  0  0  0  0  0
   21.3434  -18.5032  -16.4120 C   0  0  0  0  0  0  0  0  0  0  0  0
   20.7386  -17.2629  -15.8461 C   0  0  0  0  0  0  0  0  0  0  0  0
   19.6639  -16.6696  -16.7496 C   0  0  0  0  0  0  0  0  0  0  0  0
   19.0873  -15.4620  -16.0622 C   0  0  0  0  0  0  0  0  0  0  0  0
   18.0429  -14.8980  -16.9273 N   0  0  0  0  0  0  0  0  0  0  0  0
   21.6507  -19.4237  -14.1746 C   0  0  0  0  0  0  0  0  0  0  0  0
   20.9251  -20.5670  -13.9577 O   0  0  0  0  0  0  0  0  0  0  0  0
   21.7304  -18.6052  -13.2256 O   0  0  0  0  0  0  0  0  0  0  0  0
  1  2  1  0
  3  2  1  0
  4  3  1  0
  5  4  1  0
  5  1  1  0
  6 14  1  0
  5  6  1  1
  7  6  2  0
  8  9  1  0
  9 10  2  0
 11  9  1  0
 11 12  1  0
 13 12  1  1
 13 14  1  0
 15 17  1  0
 15 13  1  0
 16 15  2  0
 18 17  1  0
 18 24  1  0
 18 19  1  6
 20 19  1  0
 21 20  1  0
 22 21  1  0
 23 22  1  0
 24 25  1  0
 26 24  2  0
M  END
$$$$
