PQK.pdb
     RDKit          3D

 26 26  0  0  1  0  0  0  0  0999 V2000
   22.7899  -10.8978  -16.6631 N   0  0  0  0  0  0  0  0  0  0  0  0
   23.7379  -11.7819  -17.3555 C   0  0  0  0  0  0  0  0  0  0  0  0
   25.0586  -11.2138  -16.8302 C   0  0  0  0  0  0  0  0  0  0  0  0
   24.7509  -11.0889  -15.3451 C   0  0  0  0  0  0  0  0  0  0  0  0
   23.2635  -11.0117  -15.2986 C   0  0  1  0  0  0  0  0  0  0  0  0
   22.7309   -9.9541  -14.4252 C   0  0  0  0  0  0  0  0  0  0  0  0
   23.0378   -9.9966  -13.2055 O   0  0  0  0  0  0  0  0  0  0  0  0
   22.8121   -4.2119  -15.6596 N   0  0  0  0  0  0  0  0  0  0  0  0
   21.8034   -4.0915  -14.6650 C   0  0  0  0  0  0  0  0  0  0  0  0
   21.4023   -2.9709  -14.3241 O   0  0  0  0  0  0  0  0  0  0  0  0
   21.2618   -5.3258  -14.0645 C   0  0  0  0  0  0  0  0  0  0  0  0
   21.8188   -6.5801  -14.6180 C   0  0  0  0  0  0  0  0  0  0  0  0
   21.3306   -7.8714  -14.0100 C   0  0  2  0  0  0  0  0  0  0  0  0
   21.9108   -8.9161  -14.8758 N   0  0  0  0  0  0  0  0  0  0  0  0
   19.8560   -7.9574  -14.0815 C   0  0  0  0  0  0  0  0  0  0  0  0
   19.2611   -8.1793  -15.1890 O   0  0  0  0  0  0  0  0  0  0  0  0
   19.0464   -7.8068  -12.9473 N   0  0  0  0  0  0  0  0  0  0  0  0
   17.5600   -7.9286  -13.0685 C   0  0  1  0  0  0  0  0  0  0  0  0
   17.0433   -8.5366  -11.7897 C   0  0  0  0  0  0  0  0  0  0  0  0
   15.5530   -8.5013  -11.7421 C   0  0  0  0  0  0  0  0  0  0  0  0
   14.9939   -9.0775  -10.4465 C   0  0  0  0  0  0  0  0  0  0  0  0
   13.4924   -9.0093  -10.5121 C   0  0  0  0  0  0  0  0  0  0  0  0
   12.9562   -9.4822   -9.2291 N   0  0  0  0  0  0  0  0  0  0  0  0
   16.9843   -6.5930  -13.2617 C   0  0  0  0  0  0  0  0  0  0  0  0
   15.8244   -6.3643  -13.9567 O   0  0  0  0  0  0  0  0  0  0  0  0
   17.5702   -5.5936  -12.7771 O   0  0  0  0  0  0  0  0  0  0  0  0
  1  2  1  0
  3  2  1  0
  4  3  1  0
  5  4  1  0
  5  1  1  0
  6 14  1  0
  5  6  1  1
  7  6  2  0
  8  9  1  0
  9 10  2  0
 11  9  1  0
 11 12  1  0
 13 12  1  6
 13 14  1  0
 15 17  1  0
 15 13  1  0
 16 15  2  0
 18 17  1  0
 18 24  1  0
 18 19  1  1
 20 19  1  0
 21 20  1  0
 22 21  1  0
 23 22  1  0
 24 25  1  0
 26 24  2  0
M  END
$$$$
