PQK.pdb
     RDKit          3D

 26 26  0  0  1  0  0  0  0  0999 V2000
   20.4500  -10.4909  -17.5792 N   0  0  0  0  0  0  0  0  0  0  0  0
   20.9656  -11.5468  -18.4618 C   0  0  0  0  0  0  0  0  0  0  0  0
   22.4187  -11.0864  -18.6012 C   0  0  0  0  0  0  0  0  0  0  0  0
   22.7645  -10.7737  -17.1525 C   0  0  0  0  0  0  0  0  0  0  0  0
   21.4393  -10.5181  -16.5210 C   0  0  1  0  0  0  0  0  0  0  0  0
   21.3870   -9.3209  -15.6673 C   0  0  0  0  0  0  0  0  0  0  0  0
   22.1380   -9.2922  -14.6579 O   0  0  0  0  0  0  0  0  0  0  0  0
   22.8327   -4.7071  -14.9631 N   0  0  0  0  0  0  0  0  0  0  0  0
   21.6520   -3.9170  -15.0166 C   0  0  0  0  0  0  0  0  0  0  0  0
   21.6539   -2.7706  -14.5490 O   0  0  0  0  0  0  0  0  0  0  0  0
   20.4470   -4.5003  -15.6373 C   0  0  0  0  0  0  0  0  0  0  0  0
   20.6137   -5.8847  -16.1327 C   0  0  0  0  0  0  0  0  0  0  0  0
   20.5321   -6.9908  -15.1101 C   0  0  2  0  0  0  0  0  0  0  0  0
   20.5551   -8.2260  -15.9171 N   0  0  0  0  0  0  0  0  0  0  0  0
   19.2518   -6.9266  -14.3728 C   0  0  0  0  0  0  0  0  0  0  0  0
   18.1434   -7.1830  -14.9521 O   0  0  0  0  0  0  0  0  0  0  0  0
   19.1925   -6.5901  -13.0135 N   0  0  0  0  0  0  0  0  0  0  0  0
   17.8727   -6.5539  -12.3094 C   0  0  1  0  0  0  0  0  0  0  0  0
   18.1303   -6.7678  -10.8397 C   0  0  0  0  0  0  0  0  0  0  0  0
   16.8992   -6.5157  -10.0365 C   0  0  0  0  0  0  0  0  0  0  0  0
   16.1088   -7.7892   -9.7593 C   0  0  0  0  0  0  0  0  0  0  0  0
   14.8178   -7.4039   -9.0898 C   0  0  0  0  0  0  0  0  0  0  0  0
   14.0270   -8.6243   -8.8838 N   0  0  0  0  0  0  0  0  0  0  0  0
   17.2493   -5.2439  -12.5277 C   0  0  0  0  0  0  0  0  0  0  0  0
   15.8939   -5.0601  -12.6273 O   0  0  0  0  0  0  0  0  0  0  0  0
   17.9765   -4.2258  -12.6356 O   0  0  0  0  0  0  0  0  0  0  0  0
  1  2  1  0
  3  2  1  0
  4  3  1  0
  5  4  1  0
  5  1  1  0
  6 14  1  0
  5  6  1  6
  7  6  2  0
  8  9  1  0
  9 10  2  0
 11  9  1  0
 11 12  1  0
 13 12  1  6
 13 14  1  0
 15 17  1  0
 15 13  1  0
 16 15  2  0
 18 17  1  0
 18 24  1  0
 18 19  1  1
 20 19  1  0
 21 20  1  0
 22 21  1  0
 23 22  1  0
 24 25  1  0
 26 24  2  0
M  END
$$$$
