PQK.pdb
     RDKit          3D

 26 26  0  0  1  0  0  0  0  0999 V2000
   26.9890  -20.8422  -16.1596 N   0  0  0  0  0  0  0  0  0  0  0  0
   28.3661  -21.3543  -16.1912 C   0  0  0  0  0  0  0  0  0  0  0  0
   29.0696  -20.2666  -15.3757 C   0  0  0  0  0  0  0  0  0  0  0  0
   28.1126  -20.1192  -14.2017 C   0  0  0  0  0  0  0  0  0  0  0  0
   26.8165  -20.6220  -14.7381 C   0  0  1  0  0  0  0  0  0  0  0  0
   25.6553  -19.7709  -14.4347 C   0  0  0  0  0  0  0  0  0  0  0  0
   25.3692  -19.5863  -13.2232 O   0  0  0  0  0  0  0  0  0  0  0  0
   24.5671  -14.8222  -17.5547 N   0  0  0  0  0  0  0  0  0  0  0  0
   25.4169  -15.0207  -16.4324 C   0  0  0  0  0  0  0  0  0  0  0  0
   26.3249  -14.2134  -16.1943 O   0  0  0  0  0  0  0  0  0  0  0  0
   25.1831  -16.2006  -15.5775 C   0  0  0  0  0  0  0  0  0  0  0  0
   24.0308  -17.0378  -15.9788 C   0  0  0  0  0  0  0  0  0  0  0  0
   23.7384  -18.2500  -15.1299 C   0  0  2  0  0  0  0  0  0  0  0  0
   24.8623  -19.1636  -15.4123 N   0  0  0  0  0  0  0  0  0  0  0  0
   22.4792  -18.8962  -15.5588 C   0  0  0  0  0  0  0  0  0  0  0  0
   22.4478  -19.6723  -16.5719 O   0  0  0  0  0  0  0  0  0  0  0  0
   21.2708  -18.6953  -14.8777 N   0  0  0  0  0  0  0  0  0  0  0  0
   20.1610  -19.6894  -15.0156 C   0  0  1  0  0  0  0  0  0  0  0  0
   20.6565  -21.0081  -14.4793 C   0  0  0  0  0  0  0  0  0  0  0  0
   19.5978  -22.0550  -14.5660 C   0  0  0  0  0  0  0  0  0  0  0  0
   20.1002  -23.4329  -14.1510 C   0  0  0  0  0  0  0  0  0  0  0  0
   18.9540  -24.4016  -14.2564 C   0  0  0  0  0  0  0  0  0  0  0  0
   19.4134  -25.7091  -13.7701 N   0  0  0  0  0  0  0  0  0  0  0  0
   19.0062  -19.2290  -14.2367 C   0  0  0  0  0  0  0  0  0  0  0  0
   17.7572  -19.7865  -14.3369 O   0  0  0  0  0  0  0  0  0  0  0  0
   19.1460  -18.2736  -13.4337 O   0  0  0  0  0  0  0  0  0  0  0  0
  1  2  1  0
  3  2  1  0
  4  3  1  0
  5  4  1  0
  5  1  1  0
  6 14  1  0
  5  6  1  6
  7  6  2  0
  8  9  1  0
  9 10  2  0
 11  9  1  0
 11 12  1  0
 13 12  1  6
 13 14  1  0
 15 17  1  0
 15 13  1  0
 16 15  2  0
 18 17  1  0
 18 24  1  0
 18 19  1  1
 20 19  1  0
 21 20  1  0
 22 21  1  0
 23 22  1  0
 24 25  1  0
 26 24  2  0
M  END
$$$$
