PQK.pdb
     RDKit          3D

 26 26  0  0  1  0  0  0  0  0999 V2000
   17.4832  -10.4686  -14.8219 N   0  0  0  0  0  0  0  0  0  0  0  0
   18.8078  -10.8223  -15.3509 C   0  0  0  0  0  0  0  0  0  0  0  0
   19.5626   -9.5228  -15.0596 C   0  0  0  0  0  0  0  0  0  0  0  0
   19.1278   -9.2494  -13.6271 C   0  0  0  0  0  0  0  0  0  0  0  0
   17.8400   -9.9886  -13.5023 C   0  0  1  0  0  0  0  0  0  0  0  0
   16.7544   -9.2267  -12.8651 C   0  0  0  0  0  0  0  0  0  0  0  0
   15.9911   -8.5634  -13.6141 O   0  0  0  0  0  0  0  0  0  0  0  0
   13.1354  -11.4851   -8.8881 N   0  0  0  0  0  0  0  0  0  0  0  0
   12.6966  -10.1457   -8.7022 C   0  0  0  0  0  0  0  0  0  0  0  0
   11.6860   -9.9147   -8.0253 O   0  0  0  0  0  0  0  0  0  0  0  0
   13.4732   -9.0608   -9.3327 C   0  0  0  0  0  0  0  0  0  0  0  0
   14.6675   -9.5091  -10.0827 C   0  0  0  0  0  0  0  0  0  0  0  0
   15.4433   -8.4515  -10.8277 C   0  0  2  0  0  0  0  0  0  0  0  0
   16.5299   -9.2023  -11.4859 N   0  0  0  0  0  0  0  0  0  0  0  0
   16.0382   -7.4794   -9.8853 C   0  0  0  0  0  0  0  0  0  0  0  0
   17.2794   -7.5220   -9.5897 O   0  0  0  0  0  0  0  0  0  0  0  0
   15.2777   -6.4695   -9.2801 N   0  0  0  0  0  0  0  0  0  0  0  0
   15.8372   -5.0876   -9.1524 C   0  0  1  0  0  0  0  0  0  0  0  0
   16.1706   -4.5973  -10.5382 C   0  0  0  0  0  0  0  0  0  0  0  0
   16.6076   -3.1716  -10.5128 C   0  0  0  0  0  0  0  0  0  0  0  0
   16.9121   -2.6267  -11.9033 C   0  0  0  0  0  0  0  0  0  0  0  0
   17.3691   -1.2006  -11.7588 C   0  0  0  0  0  0  0  0  0  0  0  0
   17.6177   -0.6611  -13.1020 N   0  0  0  0  0  0  0  0  0  0  0  0
   14.8284   -4.2176   -8.5377 C   0  0  0  0  0  0  0  0  0  0  0  0
   15.1357   -3.2028   -7.6679 O   0  0  0  0  0  0  0  0  0  0  0  0
   13.6146   -4.3968   -8.8055 O   0  0  0  0  0  0  0  0  0  0  0  0
  1  2  1  0
  3  2  1  0
  4  3  1  0
  5  4  1  0
  5  1  1  0
  6 14  1  0
  5  6  1  6
  7  6  2  0
  8  9  1  0
  9 10  2  0
 11  9  1  0
 11 12  1  0
 13 12  1  1
 13 14  1  0
 15 17  1  0
 15 13  1  0
 16 15  2  0
 18 17  1  0
 18 24  1  0
 18 19  1  6
 20 19  1  0
 21 20  1  0
 22 21  1  0
 23 22  1  0
 24 25  1  0
 26 24  2  0
M  END
$$$$
