PQK.pdb
     RDKit          3D

 26 26  0  0  1  0  0  0  0  0999 V2000
   16.7348  -19.0121    3.9066 N   0  0  0  0  0  0  0  0  0  0  0  0
   16.2234  -19.7353    2.7339 C   0  0  0  0  0  0  0  0  0  0  0  0
   14.7482  -19.3322    2.7995 C   0  0  0  0  0  0  0  0  0  0  0  0
   14.8669  -17.8348    3.0442 C   0  0  0  0  0  0  0  0  0  0  0  0
   16.2207  -17.6825    3.6478 C   0  0  1  0  0  0  0  0  0  0  0  0
   16.2687  -16.8166    4.8365 C   0  0  0  0  0  0  0  0  0  0  0  0
   15.8845  -15.6255    4.7051 O   0  0  0  0  0  0  0  0  0  0  0  0
   15.8444  -19.0918   10.4977 N   0  0  0  0  0  0  0  0  0  0  0  0
   14.7359  -18.5893    9.7630 C   0  0  0  0  0  0  0  0  0  0  0  0
   13.5852  -18.9240   10.0743 O   0  0  0  0  0  0  0  0  0  0  0  0
   15.0000  -17.6722    8.6375 C   0  0  0  0  0  0  0  0  0  0  0  0
   16.4284  -17.3510    8.4222 C   0  0  0  0  0  0  0  0  0  0  0  0
   16.7527  -16.3983    7.2985 C   0  0  2  0  0  0  0  0  0  0  0  0
   16.7142  -17.2445    6.0901 N   0  0  0  0  0  0  0  0  0  0  0  0
   18.1181  -15.8520    7.4549 C   0  0  0  0  0  0  0  0  0  0  0  0
   19.1359  -16.4842    7.0143 O   0  0  0  0  0  0  0  0  0  0  0  0
   18.3597  -14.6227    8.0832 N   0  0  0  0  0  0  0  0  0  0  0  0
   19.7569  -14.0966    8.1837 C   0  0  1  0  0  0  0  0  0  0  0  0
   19.7051  -12.6085    7.9489 C   0  0  0  0  0  0  0  0  0  0  0  0
   21.0643  -12.0021    8.0452 C   0  0  0  0  0  0  0  0  0  0  0  0
   21.0475  -10.4908    7.8481 C   0  0  0  0  0  0  0  0  0  0  0  0
   22.4708  -10.0036    7.8334 C   0  0  0  0  0  0  0  0  0  0  0  0
   22.4554   -8.5514    7.6145 N   0  0  0  0  0  0  0  0  0  0  0  0
   20.2794  -14.3786    9.5252 C   0  0  0  0  0  0  0  0  0  0  0  0
   19.4805  -14.6769   10.5992 O   0  0  0  0  0  0  0  0  0  0  0  0
   21.5191  -14.3467    9.7228 O   0  0  0  0  0  0  0  0  0  0  0  0
  1  2  1  0
  3  2  1  0
  4  3  1  0
  5  4  1  0
  5  1  1  0
  6 14  1  0
  5  6  1  1
  7  6  2  0
  8  9  1  0
  9 10  2  0
 11  9  1  0
 11 12  1  0
 13 12  1  1
 13 14  1  0
 15 17  1  0
 15 13  1  0
 16 15  2  0
 18 17  1  0
 18 24  1  0
 18 19  1  1
 20 19  1  0
 21 20  1  0
 22 21  1  0
 23 22  1  0
 24 25  1  0
 26 24  2  0
M  END
$$$$
