NTC.pdb
     RDKit          3D

 22 21  0  0  1  0  0  0  0  0999 V2000
   12.1251  -18.5031   17.4847 N   0  0  0  0  0  0  0  0  0  0  0  0
   12.4411  -17.5306   18.4661 C   0  0  0  0  0  0  0  0  0  0  0  0
   13.6185  -17.3862   18.8321 O   0  0  0  0  0  0  0  0  0  0  0  0
   11.3660  -16.6973   19.0453 C   0  0  0  0  0  0  0  0  0  0  0  0
   11.3799  -16.9228   20.5405 C   0  0  2  0  0  0  0  0  0  0  0  0
   10.9714  -18.2587   20.8457 N   0  0  0  0  0  0  0  0  0  0  0  0
   10.5298  -15.9043   21.2183 C   0  0  0  0  0  0  0  0  0  0  0  0
   10.8762  -14.6946   21.0406 O   0  0  0  0  0  0  0  0  0  0  0  0
    6.6461  -15.3553   21.3164 C   0  0  0  0  0  0  0  0  0  0  0  0
    7.1696  -15.5223   22.7216 C   0  0  1  0  0  0  0  0  0  0  0  0
    6.9256  -16.8029   23.1836 O   0  0  0  0  0  0  0  0  0  0  0  0
    8.6689  -15.2417   22.7467 C   0  0  2  0  0  0  0  0  0  0  0  0
    9.4069  -16.2285   22.0124 N   0  0  0  0  0  0  0  0  0  0  0  0
    9.1362  -15.1096   24.1508 C   0  0  0  0  0  0  0  0  0  0  0  0
   10.0113  -15.8766   24.5783 O   0  0  0  0  0  0  0  0  0  0  0  0
    8.6039  -14.1285   25.0085 N   0  0  0  0  0  0  0  0  0  0  0  0
    8.9233  -13.9599   26.3849 C   0  0  1  0  0  0  0  0  0  0  0  0
    8.0985  -12.9095   27.0822 C   0  0  0  0  0  0  0  0  0  0  0  0
    8.0205  -11.4441   25.9992 S   0  0  0  0  0  0  0  0  0  0  0  0
    8.7057  -15.2418   27.0891 C   0  0  0  0  0  0  0  0  0  0  0  0
    8.1309  -16.2305   26.5716 O   0  0  0  0  0  0  0  0  0  0  0  0
    9.1559  -15.3721   28.3907 O   0  0  0  0  0  0  0  0  0  0  0  0
  1  2  1  0
  2  4  1  0
  2  3  2  0
  5  4  1  0
  5  6  1  6
  7  5  1  0
  7  8  2  0
 10  9  1  6
 10 12  1  0
 11 10  1  0
 12 13  1  1
 12 14  1  0
 13  7  1  0
 14 16  1  0
 15 14  2  0
 16 17  1  0
 17 20  1  0
 17 18  1  1
 18 19  1  0
 20 21  2  0
 20 22  1  0
M  END
$$$$
