NTC.pdb
     RDKit          3D

 22 21  0  0  1  0  0  0  0  0999 V2000
   10.5304  -16.8813   13.6004 N   0  0  0  0  0  0  0  0  0  0  0  0
   10.1634  -15.5123   13.6054 C   0  0  0  0  0  0  0  0  0  0  0  0
   10.3870  -14.8120   12.6050 O   0  0  0  0  0  0  0  0  0  0  0  0
    9.5181  -14.9306   14.8016 C   0  0  0  0  0  0  0  0  0  0  0  0
    9.5071  -16.0004   15.8703 C   0  0  2  0  0  0  0  0  0  0  0  0
    8.2852  -16.7413   15.8198 N   0  0  0  0  0  0  0  0  0  0  0  0
    9.7404  -15.3878   17.2081 C   0  0  0  0  0  0  0  0  0  0  0  0
   10.9243  -14.9808   17.4262 O   0  0  0  0  0  0  0  0  0  0  0  0
    7.3431  -12.9076   19.1689 C   0  0  0  0  0  0  0  0  0  0  0  0
    7.7729  -14.0280   20.0835 C   0  0  1  0  0  0  0  0  0  0  0  0
    6.7481  -14.9419   20.2493 O   0  0  0  0  0  0  0  0  0  0  0  0
    8.9969  -14.7259   19.4988 C   0  0  2  0  0  0  0  0  0  0  0  0
    8.7342  -15.2535   18.1910 N   0  0  0  0  0  0  0  0  0  0  0  0
    9.4881  -15.7628   20.4428 C   0  0  0  0  0  0  0  0  0  0  0  0
    9.7870  -16.8870   20.0142 O   0  0  0  0  0  0  0  0  0  0  0  0
    9.6214  -15.4940   21.8181 N   0  0  0  0  0  0  0  0  0  0  0  0
   10.3755  -16.2608   22.7499 C   0  0  1  0  0  0  0  0  0  0  0  0
   11.8572  -16.2732   22.4778 C   0  0  0  0  0  0  0  0  0  0  0  0
   12.6498  -17.3431   23.7243 S   0  0  0  0  0  0  0  0  0  0  0  0
   10.1727  -15.7052   24.1051 C   0  0  0  0  0  0  0  0  0  0  0  0
    9.8784  -14.5054   24.3277 O   0  0  0  0  0  0  0  0  0  0  0  0
   10.3118  -16.5433   25.1969 O   0  0  0  0  0  0  0  0  0  0  0  0
  1  2  1  0
  2  4  1  0
  2  3  2  0
  5  4  1  0
  5  6  1  1
  7  5  1  0
  7  8  2  0
 10  9  1  6
 10 12  1  0
 11 10  1  0
 12 13  1  6
 12 14  1  0
 13  7  1  0
 14 16  1  0
 15 14  2  0
 16 17  1  0
 17 20  1  0
 17 18  1  6
 18 19  1  0
 20 21  2  0
 20 22  1  0
M  END
$$$$
