NTC.pdb
     RDKit          3D

 22 21  0  0  1  0  0  0  0  0999 V2000
    8.1661  -12.1395   17.9397 N   0  0  0  0  0  0  0  0  0  0  0  0
    7.8589  -13.4873   18.2523 C   0  0  0  0  0  0  0  0  0  0  0  0
    7.9801  -14.3636   17.3813 O   0  0  0  0  0  0  0  0  0  0  0  0
    7.3968  -13.8376   19.6122 C   0  0  0  0  0  0  0  0  0  0  0  0
    8.6188  -14.2212   20.4163 C   0  0  2  0  0  0  0  0  0  0  0  0
    9.3715  -15.2241   19.7290 N   0  0  0  0  0  0  0  0  0  0  0  0
    8.2149  -14.6565   21.7826 C   0  0  0  0  0  0  0  0  0  0  0  0
    7.5616  -13.8023   22.4597 O   0  0  0  0  0  0  0  0  0  0  0  0
    6.9231  -18.2628   22.9464 C   0  0  0  0  0  0  0  0  0  0  0  0
    8.0438  -17.7897   23.8390 C   0  0  1  0  0  0  0  0  0  0  0  0
    9.2235  -18.4407   23.5267 O   0  0  0  0  0  0  0  0  0  0  0  0
    8.2270  -16.2839   23.6772 C   0  0  2  0  0  0  0  0  0  0  0  0
    8.5218  -15.9270   22.3194 N   0  0  0  0  0  0  0  0  0  0  0  0
    9.2552  -15.7932   24.6308 C   0  0  0  0  0  0  0  0  0  0  0  0
   10.2746  -15.2367   24.1973 O   0  0  0  0  0  0  0  0  0  0  0  0
    9.0950  -15.9476   26.0208 N   0  0  0  0  0  0  0  0  0  0  0  0
    9.8548  -15.2887   27.0275 C   0  0  1  0  0  0  0  0  0  0  0  0
    9.2046  -14.0427   27.5702 C   0  0  0  0  0  0  0  0  0  0  0  0
   10.3700  -13.2611   28.7353 S   0  0  0  0  0  0  0  0  0  0  0  0
   10.0600  -16.2174   28.1597 C   0  0  0  0  0  0  0  0  0  0  0  0
    9.1294  -16.8458   28.7208 O   0  0  0  0  0  0  0  0  0  0  0  0
   11.3437  -16.4139   28.6366 O   0  0  0  0  0  0  0  0  0  0  0  0
  1  2  1  0
  2  4  1  0
  2  3  2  0
  5  4  1  0
  5  6  1  6
  7  5  1  0
  7  8  2  0
 10  9  1  6
 10 12  1  0
 11 10  1  0
 12 13  1  6
 12 14  1  0
 13  7  1  0
 14 16  1  0
 15 14  2  0
 16 17  1  0
 17 20  1  0
 17 18  1  1
 18 19  1  0
 20 21  2  0
 20 22  1  0
M  END
$$$$
