NTC.pdb
     RDKit          3D

 22 21  0  0  1  0  0  0  0  0999 V2000
    8.2465  -12.6035   16.9893 N   0  0  0  0  0  0  0  0  0  0  0  0
    8.0122  -13.9337   17.4187 C   0  0  0  0  0  0  0  0  0  0  0  0
    8.2443  -14.8787   16.6478 O   0  0  0  0  0  0  0  0  0  0  0  0
    7.4935  -14.1840   18.7803 C   0  0  0  0  0  0  0  0  0  0  0  0
    8.6824  -14.2165   19.7143 C   0  0  2  0  0  0  0  0  0  0  0  0
    9.6129  -15.2201   19.2999 N   0  0  0  0  0  0  0  0  0  0  0  0
    8.2239  -14.4174   21.1174 C   0  0  0  0  0  0  0  0  0  0  0  0
    7.4381  -13.5274   21.5705 O   0  0  0  0  0  0  0  0  0  0  0  0
    6.5157  -17.4286   22.6981 C   0  0  0  0  0  0  0  0  0  0  0  0
    7.7203  -17.1081   23.5483 C   0  0  1  0  0  0  0  0  0  0  0  0
    8.7532  -17.9885   23.2815 O   0  0  0  0  0  0  0  0  0  0  0  0
    8.1766  -15.6788   23.2726 C   0  0  2  0  0  0  0  0  0  0  0  0
    8.6177  -15.5134   21.9177 N   0  0  0  0  0  0  0  0  0  0  0  0
    9.2108  -15.2775   24.2610 C   0  0  0  0  0  0  0  0  0  0  0  0
   10.4104  -15.4168   23.9808 O   0  0  0  0  0  0  0  0  0  0  0  0
    8.8554  -14.7409   25.5128 N   0  0  0  0  0  0  0  0  0  0  0  0
    9.7588  -14.3341   26.5342 C   0  0  1  0  0  0  0  0  0  0  0  0
    9.3674  -13.0543   27.2260 C   0  0  0  0  0  0  0  0  0  0  0  0
    7.5743  -13.1165   27.5531 S   0  0  0  0  0  0  0  0  0  0  0  0
    9.8320  -15.3952   27.5615 C   0  0  0  0  0  0  0  0  0  0  0  0
    9.0776  -16.3983   27.5797 O   0  0  0  0  0  0  0  0  0  0  0  0
   10.7799  -15.2888   28.5635 O   0  0  0  0  0  0  0  0  0  0  0  0
  1  2  1  0
  2  4  1  0
  2  3  2  0
  5  4  1  0
  5  6  1  6
  7  5  1  0
  7  8  2  0
 10  9  1  6
 10 12  1  0
 11 10  1  0
 12 13  1  6
 12 14  1  0
 13  7  1  0
 14 16  1  0
 15 14  2  0
 16 17  1  0
 17 20  1  0
 17 18  1  1
 18 19  1  0
 20 21  2  0
 20 22  1  0
M  END
$$$$
