NTC.pdb
     RDKit          3D

 22 21  0  0  1  0  0  0  0  0999 V2000
   14.0571  -19.0604   19.4098 N   0  0  0  0  0  0  0  0  0  0  0  0
   12.7309  -18.8457   19.8612 C   0  0  0  0  0  0  0  0  0  0  0  0
   11.8730  -19.7266   19.6909 O   0  0  0  0  0  0  0  0  0  0  0  0
   12.3810  -17.5747   20.5306 C   0  0  0  0  0  0  0  0  0  0  0  0
   11.0963  -17.0779   19.9064 C   0  0  2  0  0  0  0  0  0  0  0  0
   11.3387  -16.6059   18.5785 N   0  0  0  0  0  0  0  0  0  0  0  0
   10.4784  -16.0345   20.7718 C   0  0  0  0  0  0  0  0  0  0  0  0
   11.0593  -14.9043   20.7681 O   0  0  0  0  0  0  0  0  0  0  0  0
    7.0072  -14.5839   20.7625 C   0  0  0  0  0  0  0  0  0  0  0  0
    7.2547  -15.0894   22.1624 C   0  0  1  0  0  0  0  0  0  0  0  0
    6.6265  -16.3059   22.3593 O   0  0  0  0  0  0  0  0  0  0  0  0
    8.7548  -15.2398   22.3953 C   0  0  2  0  0  0  0  0  0  0  0  0
    9.3240  -16.2547   21.5564 N   0  0  0  0  0  0  0  0  0  0  0  0
    9.0223  -15.4771   23.8373 C   0  0  0  0  0  0  0  0  0  0  0  0
    9.6148  -16.5083   24.1873 O   0  0  0  0  0  0  0  0  0  0  0  0
    8.6157  -14.5521   24.8174 N   0  0  0  0  0  0  0  0  0  0  0  0
    8.7618  -14.7075   26.2243 C   0  0  1  0  0  0  0  0  0  0  0  0
    8.1085  -13.6173   27.0334 C   0  0  0  0  0  0  0  0  0  0  0  0
    9.0323  -12.0714   26.7450 S   0  0  0  0  0  0  0  0  0  0  0  0
    8.1554  -15.9931   26.6314 C   0  0  0  0  0  0  0  0  0  0  0  0
    7.3874  -16.6626   25.8981 O   0  0  0  0  0  0  0  0  0  0  0  0
    8.4420  -16.4975   27.8873 O   0  0  0  0  0  0  0  0  0  0  0  0
  1  2  1  0
  2  4  1  0
  2  3  2  0
  5  4  1  0
  5  6  1  6
  7  5  1  0
  7  8  2  0
 10  9  1  6
 10 12  1  0
 11 10  1  0
 12 13  1  6
 12 14  1  0
 13  7  1  0
 14 16  1  0
 15 14  2  0
 16 17  1  0
 17 20  1  0
 17 18  1  1
 18 19  1  0
 20 21  2  0
 20 22  1  0
M  END
$$$$
