NTC.pdb
     RDKit          3D

 22 21  0  0  1  0  0  0  0  0999 V2000
    9.8526  -21.8223   16.8169 N   0  0  0  0  0  0  0  0  0  0  0  0
   10.2283  -20.6232   16.1613 C   0  0  0  0  0  0  0  0  0  0  0  0
   10.1115  -20.5337   14.9286 O   0  0  0  0  0  0  0  0  0  0  0  0
   10.7562  -19.4902   16.9509 C   0  0  0  0  0  0  0  0  0  0  0  0
    9.6386  -18.4810   17.0896 C   0  0  2  0  0  0  0  0  0  0  0  0
    9.4720  -17.7528   15.8702 N   0  0  0  0  0  0  0  0  0  0  0  0
    9.9013  -17.5848   18.2503 C   0  0  0  0  0  0  0  0  0  0  0  0
   10.9752  -16.9082   18.1889 O   0  0  0  0  0  0  0  0  0  0  0  0
    7.3467  -15.1183   19.9688 C   0  0  0  0  0  0  0  0  0  0  0  0
    8.0028  -15.9859   21.0145 C   0  0  1  0  0  0  0  0  0  0  0  0
    7.1522  -17.0033   21.4072 O   0  0  0  0  0  0  0  0  0  0  0  0
    9.2916  -16.5786   20.4534 C   0  0  2  0  0  0  0  0  0  0  0  0
    9.0346  -17.4715   19.3605 N   0  0  0  0  0  0  0  0  0  0  0  0
   10.0698  -17.2222   21.5433 C   0  0  0  0  0  0  0  0  0  0  0  0
   10.2351  -18.4507   21.5328 O   0  0  0  0  0  0  0  0  0  0  0  0
   10.6248  -16.4631   22.5908 N   0  0  0  0  0  0  0  0  0  0  0  0
   11.3371  -16.9788   23.7096 C   0  0  1  0  0  0  0  0  0  0  0  0
   12.7392  -16.4441   23.8441 C   0  0  0  0  0  0  0  0  0  0  0  0
   13.5038  -17.2288   25.3021 S   0  0  0  0  0  0  0  0  0  0  0  0
   10.6045  -16.6331   24.9466 C   0  0  0  0  0  0  0  0  0  0  0  0
   10.8630  -17.1305   26.0697 O   0  0  0  0  0  0  0  0  0  0  0  0
    9.5750  -15.7116   24.8762 O   0  0  0  0  0  0  0  0  0  0  0  0
  1  2  1  0
  2  4  1  0
  2  3  2  0
  5  4  1  0
  5  6  1  6
  7  5  1  0
  7  8  2  0
 10  9  1  6
 10 12  1  0
 11 10  1  0
 12 13  1  6
 12 14  1  0
 13  7  1  0
 14 16  1  0
 15 14  2  0
 16 17  1  0
 17 20  1  0
 17 18  1  1
 18 19  1  0
 20 21  2  0
 20 22  1  0
M  END
$$$$
