NTC.pdb
     RDKit          3D

 22 21  0  0  1  0  0  0  0  0999 V2000
    8.3806  -12.5945   17.4852 N   0  0  0  0  0  0  0  0  0  0  0  0
    8.1918  -13.9956   17.5858 C   0  0  0  0  0  0  0  0  0  0  0  0
    8.6432  -14.7420   16.7025 O   0  0  0  0  0  0  0  0  0  0  0  0
    7.4588  -14.5554   18.7413 C   0  0  0  0  0  0  0  0  0  0  0  0
    8.4886  -14.9615   19.7716 C   0  0  2  0  0  0  0  0  0  0  0  0
    9.2189  -16.1052   19.3208 N   0  0  0  0  0  0  0  0  0  0  0  0
    7.8297  -15.1956   21.0871 C   0  0  0  0  0  0  0  0  0  0  0  0
    6.6661  -15.7037   21.0350 O   0  0  0  0  0  0  0  0  0  0  0  0
    6.6364  -17.1621   22.5254 C   0  0  0  0  0  0  0  0  0  0  0  0
    7.5939  -16.7853   23.6289 C   0  0  1  0  0  0  0  0  0  0  0  0
    8.7836  -17.4789   23.4996 O   0  0  0  0  0  0  0  0  0  0  0  0
    7.8640  -15.2847   23.5828 C   0  0  2  0  0  0  0  0  0  0  0  0
    8.4310  -14.8847   22.3274 N   0  0  0  0  0  0  0  0  0  0  0  0
    8.7056  -14.8856   24.7404 C   0  0  0  0  0  0  0  0  0  0  0  0
    9.9390  -14.8586   24.6187 O   0  0  0  0  0  0  0  0  0  0  0  0
    8.1293  -14.5365   25.9764 N   0  0  0  0  0  0  0  0  0  0  0  0
    8.8147  -13.9697   27.0872 C   0  0  1  0  0  0  0  0  0  0  0  0
    7.9530  -13.0925   27.9576 C   0  0  0  0  0  0  0  0  0  0  0  0
    7.0561  -11.9313   26.8743 S   0  0  0  0  0  0  0  0  0  0  0  0
    9.3431  -15.0611   27.9335 C   0  0  0  0  0  0  0  0  0  0  0  0
   10.0364  -14.8695   28.9623 O   0  0  0  0  0  0  0  0  0  0  0  0
    9.0652  -16.3703   27.5835 O   0  0  0  0  0  0  0  0  0  0  0  0
  1  2  1  0
  2  4  1  0
  2  3  2  0
  5  4  1  0
  5  6  1  6
  7  5  1  0
  7  8  2  0
 10  9  1  6
 10 12  1  0
 11 10  1  0
 12 13  1  6
 12 14  1  0
 13  7  1  0
 14 16  1  0
 15 14  2  0
 16 17  1  0
 17 20  1  0
 17 18  1  1
 18 19  1  0
 20 21  2  0
 20 22  1  0
M  END
$$$$
