SPQ.pdb
     RDKit          3D

 23 23  0  0  1  0  0  0  0  0999 V2000
   24.6018  -21.8170  -15.7633 O   0  0  0  0  0  0  0  0  0  0  0  0
   25.7470  -21.3572  -15.1148 C   0  0  0  0  0  0  0  0  0  0  0  0
   26.1856  -22.3473  -14.0175 C   0  0  2  0  0  0  0  0  0  0  0  0
   26.6294  -23.5409  -14.7416 N   0  0  0  0  0  0  0  0  0  0  0  0
   24.9910  -22.6272  -13.2113 C   0  0  0  0  0  0  0  0  0  0  0  0
   24.2930  -23.6476  -13.5492 O   0  0  0  0  0  0  0  0  0  0  0  0
   24.6188  -21.8199  -12.1133 N   0  0  0  0  0  0  0  0  0  0  0  0
   25.3800  -20.6604  -11.6176 C   0  0  0  0  0  0  0  0  0  0  0  0
   24.2754  -19.8171  -11.0285 C   0  0  0  0  0  0  0  0  0  0  0  0
   23.5658  -20.9048  -10.2053 C   0  0  0  0  0  0  0  0  0  0  0  0
   23.4328  -21.9629  -11.3128 C   0  0  1  0  0  0  0  0  0  0  0  0
   22.2168  -21.5609  -12.0870 C   0  0  0  0  0  0  0  0  0  0  0  0
   22.2439  -20.6772  -12.9701 O   0  0  0  0  0  0  0  0  0  0  0  0
   16.8074  -24.7546  -11.4895 N   0  0  0  0  0  0  0  0  0  0  0  0
   17.1504  -23.7846  -10.5118 C   0  0  0  0  0  0  0  0  0  0  0  0
   16.4997  -23.7713   -9.4306 O   0  0  0  0  0  0  0  0  0  0  0  0
   18.2575  -22.8106  -10.7724 C   0  0  0  0  0  0  0  0  0  0  0  0
   18.7187  -22.9889  -12.2196 C   0  0  0  0  0  0  0  0  0  0  0  0
   19.7832  -21.9783  -12.5584 C   0  0  2  0  0  0  0  0  0  0  0  0
   20.9874  -22.2275  -11.7876 N   0  0  0  0  0  0  0  0  0  0  0  0
   19.3196  -20.5893  -12.2836 C   0  0  0  0  0  0  0  0  0  0  0  0
   19.7191  -19.9465  -11.2847 O   0  0  0  0  0  0  0  0  0  0  0  0
   18.4176  -19.9603  -13.1416 O   0  0  0  0  0  0  0  0  0  0  0  0
  2  1  1  0
  3  2  1  0
  3  4  1  6
  5  3  1  0
  6  5  2  0
  7  5  1  0
  7  8  1  0
  9  8  1  0
 10 11  1  0
 10  9  1  0
 11 12  1  6
 11  7  1  0
 12 20  1  0
 13 12  2  0
 15 17  1  0
 15 14  1  0
 16 15  2  0
 18 17  1  0
 19 21  1  0
 19 18  1  1
 20 19  1  0
 21 22  2  0
 21 23  1  0
M  END
$$$$
