SPQ.pdb
     RDKit          3D

 23 23  0  0  1  0  0  0  0  0999 V2000
   26.5857  -22.5995  -14.5493 O   0  0  0  0  0  0  0  0  0  0  0  0
   25.5293  -22.1505  -13.7583 C   0  0  0  0  0  0  0  0  0  0  0  0
   26.0030  -21.0440  -12.7948 C   0  0  2  0  0  0  0  0  0  0  0  0
   25.3776  -21.3688  -11.5105 N   0  0  0  0  0  0  0  0  0  0  0  0
   25.4882  -19.7788  -13.3327 C   0  0  0  0  0  0  0  0  0  0  0  0
   24.2507  -19.5222  -13.1197 O   0  0  0  0  0  0  0  0  0  0  0  0
   26.3068  -18.8785  -14.0506 N   0  0  0  0  0  0  0  0  0  0  0  0
   27.7509  -19.0491  -14.2853 C   0  0  0  0  0  0  0  0  0  0  0  0
   27.9218  -18.3166  -15.5940 C   0  0  0  0  0  0  0  0  0  0  0  0
   27.1675  -17.0249  -15.2381 C   0  0  0  0  0  0  0  0  0  0  0  0
   25.8795  -17.6677  -14.6979 C   0  0  1  0  0  0  0  0  0  0  0  0
   25.0617  -17.9741  -15.9132 C   0  0  0  0  0  0  0  0  0  0  0  0
   25.2058  -19.0258  -16.5726 O   0  0  0  0  0  0  0  0  0  0  0  0
   19.4392  -17.0231  -14.6260 N   0  0  0  0  0  0  0  0  0  0  0  0
   19.2564  -17.6176  -15.9017 C   0  0  0  0  0  0  0  0  0  0  0  0
   18.0985  -18.0077  -16.2177 O   0  0  0  0  0  0  0  0  0  0  0  0
   20.4170  -17.7703  -16.8355 C   0  0  0  0  0  0  0  0  0  0  0  0
   21.6776  -17.2964  -16.1109 C   0  0  0  0  0  0  0  0  0  0  0  0
   22.8757  -17.4072  -17.0172 C   0  0  2  0  0  0  0  0  0  0  0  0
   24.0838  -17.0118  -16.3167 N   0  0  0  0  0  0  0  0  0  0  0  0
   22.7226  -16.5499  -18.2260 C   0  0  0  0  0  0  0  0  0  0  0  0
   23.1988  -15.3918  -18.2773 O   0  0  0  0  0  0  0  0  0  0  0  0
   22.0369  -17.0198  -19.3460 O   0  0  0  0  0  0  0  0  0  0  0  0
  2  1  1  0
  3  2  1  0
  3  4  1  1
  5  3  1  0
  6  5  2  0
  7  5  1  0
  7  8  1  0
  9  8  1  0
 10 11  1  0
 10  9  1  0
 11 12  1  6
 11  7  1  0
 12 20  1  0
 13 12  2  0
 15 17  1  0
 15 14  1  0
 16 15  2  0
 18 17  1  0
 19 21  1  0
 19 18  1  1
 20 19  1  0
 21 22  2  0
 21 23  1  0
M  END
$$$$
