SPQ.pdb
     RDKit          3D

 23 23  0  0  1  0  0  0  0  0999 V2000
   24.8825  -10.7682  -16.5018 O   0  0  0  0  0  0  0  0  0  0  0  0
   24.4102  -12.0081  -16.0740 C   0  0  0  0  0  0  0  0  0  0  0  0
   23.0390  -12.3163  -16.7078 C   0  0  2  0  0  0  0  0  0  0  0  0
   23.3445  -12.7657  -18.0682 N   0  0  0  0  0  0  0  0  0  0  0  0
   22.2949  -11.0508  -16.7197 C   0  0  0  0  0  0  0  0  0  0  0  0
   22.5805  -10.2223  -17.6549 O   0  0  0  0  0  0  0  0  0  0  0  0
   21.3087  -10.7494  -15.7540 N   0  0  0  0  0  0  0  0  0  0  0  0
   20.8930  -11.6435  -14.6599 C   0  0  0  0  0  0  0  0  0  0  0  0
   20.4572  -10.6437  -13.6164 C   0  0  0  0  0  0  0  0  0  0  0  0
   19.5676   -9.7556  -14.5019 C   0  0  0  0  0  0  0  0  0  0  0  0
   20.5659   -9.5227  -15.6478 C   0  0  1  0  0  0  0  0  0  0  0  0
   21.4447   -8.4079  -15.1737 C   0  0  0  0  0  0  0  0  0  0  0  0
   22.4878   -8.6080  -14.5154 O   0  0  0  0  0  0  0  0  0  0  0  0
   20.8835   -2.5139  -17.3949 N   0  0  0  0  0  0  0  0  0  0  0  0
   21.9786   -2.3837  -16.5015 C   0  0  0  0  0  0  0  0  0  0  0  0
   22.5221   -1.2507  -16.3850 O   0  0  0  0  0  0  0  0  0  0  0  0
   22.4635   -3.5691  -15.7257 C   0  0  0  0  0  0  0  0  0  0  0  0
   21.5565   -4.7563  -16.0524 C   0  0  0  0  0  0  0  0  0  0  0  0
   21.9061   -5.9370  -15.1846 C   0  0  2  0  0  0  0  0  0  0  0  0
   21.0558   -7.0706  -15.4985 N   0  0  0  0  0  0  0  0  0  0  0  0
   21.7533   -5.6117  -13.7387 C   0  0  0  0  0  0  0  0  0  0  0  0
   20.6995   -5.8720  -13.1123 O   0  0  0  0  0  0  0  0  0  0  0  0
   22.7920   -5.0013  -13.0359 O   0  0  0  0  0  0  0  0  0  0  0  0
  2  1  1  0
  3  2  1  0
  3  4  1  6
  5  3  1  0
  6  5  2  0
  7  5  1  0
  7  8  1  0
  9  8  1  0
 10 11  1  0
 10  9  1  0
 11 12  1  1
 11  7  1  0
 12 20  1  0
 13 12  2  0
 15 17  1  0
 15 14  1  0
 16 15  2  0
 18 17  1  0
 19 21  1  0
 19 18  1  6
 20 19  1  0
 21 22  2  0
 21 23  1  0
M  END
$$$$
