SPQ.pdb
     RDKit          3D

 23 23  0  0  1  0  0  0  0  0999 V2000
   24.6668  -12.7276  -20.8016 O   0  0  0  0  0  0  0  0  0  0  0  0
   23.9250  -12.2145  -19.7387 C   0  0  0  0  0  0  0  0  0  0  0  0
   24.1711  -13.0353  -18.4571 C   0  0  2  0  0  0  0  0  0  0  0  0
   23.2999  -14.2060  -18.5856 N   0  0  0  0  0  0  0  0  0  0  0  0
   23.7570  -12.1842  -17.3348 C   0  0  0  0  0  0  0  0  0  0  0  0
   22.5050  -12.1580  -17.0619 O   0  0  0  0  0  0  0  0  0  0  0  0
   24.6835  -11.4273  -16.5834 N   0  0  0  0  0  0  0  0  0  0  0  0
   26.1436  -11.4412  -16.7767 C   0  0  0  0  0  0  0  0  0  0  0  0
   26.5115  -10.0516  -16.3161 C   0  0  0  0  0  0  0  0  0  0  0  0
   25.7332  -10.0320  -14.9902 C   0  0  0  0  0  0  0  0  0  0  0  0
   24.3716  -10.4981  -15.5312 C   0  0  1  0  0  0  0  0  0  0  0  0
   23.7324   -9.2631  -16.0843 C   0  0  0  0  0  0  0  0  0  0  0  0
   24.1550   -8.6898  -17.1111 O   0  0  0  0  0  0  0  0  0  0  0  0
   17.8748   -8.8957  -16.4947 N   0  0  0  0  0  0  0  0  0  0  0  0
   18.8697   -9.5793  -17.2412 C   0  0  0  0  0  0  0  0  0  0  0  0
   18.5065  -10.5257  -17.9930 O   0  0  0  0  0  0  0  0  0  0  0  0
   20.3073   -9.1757  -17.1280 C   0  0  0  0  0  0  0  0  0  0  0  0
   20.3990   -8.0098  -16.1426 C   0  0  0  0  0  0  0  0  0  0  0  0
   21.8376   -7.6189  -15.9260 C   0  0  2  0  0  0  0  0  0  0  0  0
   22.5956   -8.7367  -15.3944 N   0  0  0  0  0  0  0  0  0  0  0  0
   21.9519   -6.4725  -14.9812 C   0  0  0  0  0  0  0  0  0  0  0  0
   21.5991   -5.3142  -15.3045 O   0  0  0  0  0  0  0  0  0  0  0  0
   22.4610   -6.6610  -13.6964 O   0  0  0  0  0  0  0  0  0  0  0  0
  2  1  1  0
  3  2  1  0
  3  4  1  6
  5  3  1  0
  6  5  2  0
  7  5  1  0
  7  8  1  0
  9  8  1  0
 10 11  1  0
 10  9  1  0
 11 12  1  6
 11  7  1  0
 12 20  1  0
 13 12  2  0
 15 17  1  0
 15 14  1  0
 16 15  2  0
 18 17  1  0
 19 21  1  0
 19 18  1  1
 20 19  1  0
 21 22  2  0
 21 23  1  0
M  END
$$$$
