SPQ.pdb
     RDKit          3D

 23 23  0  0  1  0  0  0  0  0999 V2000
   17.4451  -27.7664   -1.3420 O   0  0  0  0  0  0  0  0  0  0  0  0
   16.1608  -27.3898   -1.7320 C   0  0  0  0  0  0  0  0  0  0  0  0
   16.2106  -26.5308   -3.0113 C   0  0  2  0  0  0  0  0  0  0  0  0
   17.5481  -26.7557   -3.5650 N   0  0  0  0  0  0  0  0  0  0  0  0
   16.0399  -25.1376   -2.5810 C   0  0  0  0  0  0  0  0  0  0  0  0
   17.0863  -24.5334   -2.1536 O   0  0  0  0  0  0  0  0  0  0  0  0
   14.7891  -24.4829   -2.6318 N   0  0  0  0  0  0  0  0  0  0  0  0
   13.5474  -25.0682   -3.1657 C   0  0  0  0  0  0  0  0  0  0  0  0
   12.5073  -24.3365   -2.3526 C   0  0  0  0  0  0  0  0  0  0  0  0
   13.0331  -22.9034   -2.5373 C   0  0  0  0  0  0  0  0  0  0  0  0
   14.4992  -23.1589   -2.1512 C   0  0  1  0  0  0  0  0  0  0  0  0
   14.5170  -23.1203   -0.6552 C   0  0  0  0  0  0  0  0  0  0  0  0
   14.5334  -24.1560    0.0437 O   0  0  0  0  0  0  0  0  0  0  0  0
   16.5961  -18.0260    2.2898 N   0  0  0  0  0  0  0  0  0  0  0  0
   16.2860  -18.8569    3.3978 C   0  0  0  0  0  0  0  0  0  0  0  0
   16.5313  -18.4220    4.5569 O   0  0  0  0  0  0  0  0  0  0  0  0
   15.6843  -20.2107    3.1798 C   0  0  0  0  0  0  0  0  0  0  0  0
   15.5500  -20.4357    1.6730 C   0  0  0  0  0  0  0  0  0  0  0  0
   14.7670  -21.6931    1.3989 C   0  0  2  0  0  0  0  0  0  0  0  0
   14.5148  -21.8374   -0.0231 N   0  0  0  0  0  0  0  0  0  0  0  0
   13.4615  -21.6865    2.1169 C   0  0  0  0  0  0  0  0  0  0  0  0
   12.4434  -21.1430    1.6285 O   0  0  0  0  0  0  0  0  0  0  0  0
   13.3371  -22.2928    3.3669 O   0  0  0  0  0  0  0  0  0  0  0  0
  2  1  1  0
  3  2  1  0
  3  4  1  1
  5  3  1  0
  6  5  2  0
  7  5  1  0
  7  8  1  0
  9  8  1  0
 10 11  1  0
 10  9  1  0
 11 12  1  1
 11  7  1  0
 12 20  1  0
 13 12  2  0
 15 17  1  0
 15 14  1  0
 16 15  2  0
 18 17  1  0
 19 21  1  0
 19 18  1  6
 20 19  1  0
 21 22  2  0
 21 23  1  0
M  END
$$$$
