SPQ.pdb
     RDKit          3D

 23 23  0  0  1  0  0  0  0  0999 V2000
   13.7735  -19.7539    2.4602 O   0  0  0  0  0  0  0  0  0  0  0  0
   14.6559  -20.3026    3.3895 C   0  0  0  0  0  0  0  0  0  0  0  0
   15.8885  -20.9004    2.6823 C   0  0  2  0  0  0  0  0  0  0  0  0
   15.4454  -22.2081    2.1927 N   0  0  0  0  0  0  0  0  0  0  0  0
   16.9275  -21.0408    3.7100 C   0  0  0  0  0  0  0  0  0  0  0  0
   16.8971  -22.1079    4.4192 O   0  0  0  0  0  0  0  0  0  0  0  0
   17.9190  -20.0558    3.9162 N   0  0  0  0  0  0  0  0  0  0  0  0
   18.1066  -18.8552    3.0839 C   0  0  0  0  0  0  0  0  0  0  0  0
   18.6973  -17.8947    4.0874 C   0  0  0  0  0  0  0  0  0  0  0  0
   19.7787  -18.8130    4.6802 C   0  0  0  0  0  0  0  0  0  0  0  0
   18.8895  -20.0316    4.9771 C   0  0  1  0  0  0  0  0  0  0  0  0
   18.2370  -19.7233    6.2881 C   0  0  0  0  0  0  0  0  0  0  0  0
   17.1756  -19.0692    6.3732 O   0  0  0  0  0  0  0  0  0  0  0  0
   14.7143  -22.2806    9.2730 N   0  0  0  0  0  0  0  0  0  0  0  0
   15.9267  -23.0184    9.2559 C   0  0  0  0  0  0  0  0  0  0  0  0
   15.8754  -24.2560    9.4974 O   0  0  0  0  0  0  0  0  0  0  0  0
   17.2231  -22.3311    8.9576 C   0  0  0  0  0  0  0  0  0  0  0  0
   16.9496  -20.8318    8.8296 C   0  0  0  0  0  0  0  0  0  0  0  0
   18.2455  -20.0654    8.7784 C   0  0  2  0  0  0  0  0  0  0  0  0
   18.8704  -20.2060    7.4760 N   0  0  0  0  0  0  0  0  0  0  0  0
   19.1991  -20.5421    9.8192 C   0  0  0  0  0  0  0  0  0  0  0  0
   19.0407  -20.2707   11.0324 O   0  0  0  0  0  0  0  0  0  0  0  0
   20.3070  -21.3125    9.4659 O   0  0  0  0  0  0  0  0  0  0  0  0
  2  1  1  0
  3  2  1  0
  3  4  1  1
  5  3  1  0
  6  5  2  0
  7  5  1  0
  7  8  1  0
  9  8  1  0
 10 11  1  0
 10  9  1  0
 11 12  1  1
 11  7  1  0
 12 20  1  0
 13 12  2  0
 15 17  1  0
 15 14  1  0
 16 15  2  0
 18 17  1  0
 19 21  1  0
 19 18  1  6
 20 19  1  0
 21 22  2  0
 21 23  1  0
M  END
$$$$
