SPQ.pdb
     RDKit          3D

 23 23  0  0  1  0  0  0  0  0999 V2000
   28.1343  -17.4689  -15.4633 O   0  0  0  0  0  0  0  0  0  0  0  0
   27.0952  -18.3684  -15.2299 C   0  0  0  0  0  0  0  0  0  0  0  0
   27.6505  -19.7735  -14.9227 C   0  0  2  0  0  0  0  0  0  0  0  0
   28.1737  -20.2604  -16.2014 N   0  0  0  0  0  0  0  0  0  0  0  0
   26.5093  -20.5800  -14.4726 C   0  0  0  0  0  0  0  0  0  0  0  0
   25.7123  -21.0090  -15.3801 O   0  0  0  0  0  0  0  0  0  0  0  0
   26.2899  -20.8772  -13.1091 N   0  0  0  0  0  0  0  0  0  0  0  0
   27.1773  -20.4814  -12.0021 C   0  0  0  0  0  0  0  0  0  0  0  0
   26.1929  -20.3771  -10.8627 C   0  0  0  0  0  0  0  0  0  0  0  0
   25.4662  -21.7179  -11.0592 C   0  0  0  0  0  0  0  0  0  0  0  0
   25.1630  -21.5822  -12.5604 C   0  0  1  0  0  0  0  0  0  0  0  0
   23.9255  -20.7435  -12.6301 C   0  0  0  0  0  0  0  0  0  0  0  0
   23.9536  -19.4965  -12.5542 O   0  0  0  0  0  0  0  0  0  0  0  0
   20.1656  -17.5922  -14.9096 N   0  0  0  0  0  0  0  0  0  0  0  0
   20.9907  -18.3985  -15.7363 C   0  0  0  0  0  0  0  0  0  0  0  0
   21.8405  -17.8247  -16.4721 O   0  0  0  0  0  0  0  0  0  0  0  0
   20.8439  -19.8886  -15.7237 C   0  0  0  0  0  0  0  0  0  0  0  0
   22.0136  -20.4763  -14.9330 C   0  0  0  0  0  0  0  0  0  0  0  0
   21.5800  -20.8165  -13.5311 C   0  0  2  0  0  0  0  0  0  0  0  0
   22.6740  -21.4168  -12.7900 N   0  0  0  0  0  0  0  0  0  0  0  0
   20.4294  -21.7630  -13.5338 C   0  0  0  0  0  0  0  0  0  0  0  0
   19.2631  -21.3837  -13.2759 O   0  0  0  0  0  0  0  0  0  0  0  0
   20.6227  -23.1129  -13.8272 O   0  0  0  0  0  0  0  0  0  0  0  0
  2  1  1  0
  3  2  1  0
  3  4  1  6
  5  3  1  0
  6  5  2  0
  7  5  1  0
  7  8  1  0
  9  8  1  0
 10 11  1  0
 10  9  1  0
 11 12  1  1
 11  7  1  0
 12 20  1  0
 13 12  2  0
 15 17  1  0
 15 14  1  0
 16 15  2  0
 18 17  1  0
 19 21  1  0
 19 18  1  6
 20 19  1  0
 21 22  2  0
 21 23  1  0
M  END
$$$$
