SPQ.pdb
     RDKit          3D

 23 23  0  0  1  0  0  0  0  0999 V2000
   26.2063  -22.0443  -15.2394 O   0  0  0  0  0  0  0  0  0  0  0  0
   25.8939  -22.3526  -13.9162 C   0  0  0  0  0  0  0  0  0  0  0  0
   26.4289  -21.2652  -12.9632 C   0  0  2  0  0  0  0  0  0  0  0  0
   26.0806  -21.7358  -11.6203 N   0  0  0  0  0  0  0  0  0  0  0  0
   25.7085  -20.0307  -13.2982 C   0  0  0  0  0  0  0  0  0  0  0  0
   24.4813  -19.9621  -12.9352 O   0  0  0  0  0  0  0  0  0  0  0  0
   26.3267  -18.9624  -13.9855 N   0  0  0  0  0  0  0  0  0  0  0  0
   27.7528  -18.9009  -14.3489 C   0  0  0  0  0  0  0  0  0  0  0  0
   27.7008  -18.0404  -15.5879 C   0  0  0  0  0  0  0  0  0  0  0  0
   26.8127  -16.9074  -15.0476 C   0  0  0  0  0  0  0  0  0  0  0  0
   25.6800  -17.7745  -14.4741 C   0  0  1  0  0  0  0  0  0  0  0  0
   24.8036  -18.0894  -15.6456 C   0  0  0  0  0  0  0  0  0  0  0  0
   25.0380  -19.0381  -16.4245 O   0  0  0  0  0  0  0  0  0  0  0  0
   21.2735  -20.7867  -13.3173 N   0  0  0  0  0  0  0  0  0  0  0  0
   20.2262  -20.2614  -14.1183 C   0  0  0  0  0  0  0  0  0  0  0  0
   19.0484  -20.6556  -13.8941 O   0  0  0  0  0  0  0  0  0  0  0  0
   20.5279  -19.2669  -15.1963 C   0  0  0  0  0  0  0  0  0  0  0  0
   21.9547  -18.7568  -14.9887 C   0  0  0  0  0  0  0  0  0  0  0  0
   22.3467  -17.8272  -16.1074 C   0  0  2  0  0  0  0  0  0  0  0  0
   23.6596  -17.2591  -15.8625 N   0  0  0  0  0  0  0  0  0  0  0  0
   21.3661  -16.7155  -16.2576 C   0  0  0  0  0  0  0  0  0  0  0  0
   21.4543  -15.6631  -15.5829 O   0  0  0  0  0  0  0  0  0  0  0  0
   20.3114  -16.8185  -17.1645 O   0  0  0  0  0  0  0  0  0  0  0  0
  2  1  1  0
  3  2  1  0
  3  4  1  1
  5  3  1  0
  6  5  2  0
  7  5  1  0
  7  8  1  0
  9  8  1  0
 10 11  1  0
 10  9  1  0
 11 12  1  6
 11  7  1  0
 12 20  1  0
 13 12  2  0
 15 17  1  0
 15 14  1  0
 16 15  2  0
 18 17  1  0
 19 21  1  0
 19 18  1  1
 20 19  1  0
 21 22  2  0
 21 23  1  0
M  END
$$$$
