SPQ.pdb
     RDKit          3D

 23 23  0  0  1  0  0  0  0  0999 V2000
   21.2614  -16.5602  -18.4851 O   0  0  0  0  0  0  0  0  0  0  0  0
   21.3622  -15.4071  -17.7083 C   0  0  0  0  0  0  0  0  0  0  0  0
   21.8957  -15.7437  -16.3015 C   0  0  2  0  0  0  0  0  0  0  0  0
   20.8596  -16.5841  -15.6962 N   0  0  0  0  0  0  0  0  0  0  0  0
   22.0262  -14.4653  -15.5917 C   0  0  0  0  0  0  0  0  0  0  0  0
   20.9432  -13.9293  -15.1645 O   0  0  0  0  0  0  0  0  0  0  0  0
   23.2786  -13.8464  -15.3817 N   0  0  0  0  0  0  0  0  0  0  0  0
   24.5779  -14.3991  -15.8011 C   0  0  0  0  0  0  0  0  0  0  0  0
   25.3773  -13.1363  -16.0117 C   0  0  0  0  0  0  0  0  0  0  0  0
   25.0346  -12.4211  -14.6944 C   0  0  0  0  0  0  0  0  0  0  0  0
   23.5057  -12.5707  -14.7579 C   0  0  1  0  0  0  0  0  0  0  0  0
   23.0450  -11.4558  -15.6437 C   0  0  0  0  0  0  0  0  0  0  0  0
   22.8562  -11.6058  -16.8698 O   0  0  0  0  0  0  0  0  0  0  0  0
   17.9743  -10.9743  -15.5996 N   0  0  0  0  0  0  0  0  0  0  0  0
   18.0675   -9.6227  -16.0225 C   0  0  0  0  0  0  0  0  0  0  0  0
   17.0128   -9.0418  -16.4006 O   0  0  0  0  0  0  0  0  0  0  0  0
   19.3895   -8.9196  -16.0140 C   0  0  0  0  0  0  0  0  0  0  0  0
   20.4539   -9.9112  -15.5419 C   0  0  0  0  0  0  0  0  0  0  0  0
   21.8148   -9.2655  -15.5568 C   0  0  2  0  0  0  0  0  0  0  0  0
   22.8185  -10.1785  -15.0417 N   0  0  0  0  0  0  0  0  0  0  0  0
   21.8344   -8.0222  -14.7360 C   0  0  0  0  0  0  0  0  0  0  0  0
   22.0281   -8.0526  -13.4982 O   0  0  0  0  0  0  0  0  0  0  0  0
   21.6351   -6.7767  -15.3313 O   0  0  0  0  0  0  0  0  0  0  0  0
  2  1  1  0
  3  2  1  0
  3  4  1  1
  5  3  1  0
  6  5  2  0
  7  5  1  0
  7  8  1  0
  9  8  1  0
 10 11  1  0
 10  9  1  0
 11 12  1  6
 11  7  1  0
 12 20  1  0
 13 12  2  0
 15 17  1  0
 15 14  1  0
 16 15  2  0
 18 17  1  0
 19 21  1  0
 19 18  1  1
 20 19  1  0
 21 22  2  0
 21 23  1  0
M  END
$$$$
