SPQ.pdb
     RDKit          3D

 23 23  0  0  1  0  0  0  0  0999 V2000
   19.1634  -18.9460  -13.3908 O   0  0  0  0  0  0  0  0  0  0  0  0
   19.1503  -20.1861  -12.7542 C   0  0  0  0  0  0  0  0  0  0  0  0
   20.5409  -20.8482  -12.8237 C   0  0  2  0  0  0  0  0  0  0  0  0
   20.5363  -21.6050  -14.0780 N   0  0  0  0  0  0  0  0  0  0  0  0
   20.6320  -21.7423  -11.6628 C   0  0  0  0  0  0  0  0  0  0  0  0
   20.0655  -22.8869  -11.7703 O   0  0  0  0  0  0  0  0  0  0  0  0
   21.3092  -21.3716  -10.4797 N   0  0  0  0  0  0  0  0  0  0  0  0
   22.0069  -20.0918  -10.2682 C   0  0  0  0  0  0  0  0  0  0  0  0
   21.8747  -19.9316   -8.7732 C   0  0  0  0  0  0  0  0  0  0  0  0
   22.3282  -21.3377   -8.3472 C   0  0  0  0  0  0  0  0  0  0  0  0
   21.4123  -22.1516   -9.2760 C   0  0  1  0  0  0  0  0  0  0  0  0
   20.0962  -22.2105   -8.5659 C   0  0  0  0  0  0  0  0  0  0  0  0
   19.2638  -21.2798   -8.6150 O   0  0  0  0  0  0  0  0  0  0  0  0
   16.3074  -24.6202  -10.6375 N   0  0  0  0  0  0  0  0  0  0  0  0
   15.6633  -24.9665   -9.4211 C   0  0  0  0  0  0  0  0  0  0  0  0
   14.4130  -25.1381   -9.4358 O   0  0  0  0  0  0  0  0  0  0  0  0
   16.4607  -25.1200   -8.1630 C   0  0  0  0  0  0  0  0  0  0  0  0
   17.9163  -24.7703   -8.4755 C   0  0  0  0  0  0  0  0  0  0  0  0
   18.4360  -23.7591   -7.4871 C   0  0  2  0  0  0  0  0  0  0  0  0
   19.8016  -23.3869   -7.8080 N   0  0  0  0  0  0  0  0  0  0  0  0
   18.4010  -24.2925   -6.0963 C   0  0  0  0  0  0  0  0  0  0  0  0
   17.3500  -24.2847   -5.4137 O   0  0  0  0  0  0  0  0  0  0  0  0
   19.5514  -24.8208   -5.5107 O   0  0  0  0  0  0  0  0  0  0  0  0
  2  1  1  0
  3  2  1  0
  3  4  1  6
  5  3  1  0
  6  5  2  0
  7  5  1  0
  7  8  1  0
  9  8  1  0
 10 11  1  0
 10  9  1  0
 11 12  1  1
 11  7  1  0
 12 20  1  0
 13 12  2  0
 15 17  1  0
 15 14  1  0
 16 15  2  0
 18 17  1  0
 19 21  1  0
 19 18  1  6
 20 19  1  0
 21 22  2  0
 21 23  1  0
M  END
$$$$
