LGQ.pdb
     RDKit          3D

 22 21  0  0  1  0  0  0  0  0999 V2000
   22.1106  -17.2883  -20.0617 C   0  0  0  0  0  0  0  0  0  0  0  0
   21.1752  -16.4144  -20.8661 C   0  0  2  0  0  0  0  0  0  0  0  0
   21.2163  -16.8785  -22.2941 C   0  0  0  0  0  0  0  0  0  0  0  0
   21.4960  -14.9617  -20.7310 C   0  0  0  0  0  0  0  0  0  0  0  0
   21.2533  -14.5339  -19.3000 C   0  0  2  0  0  0  0  0  0  0  0  0
   19.9182  -14.9549  -18.9302 N   0  0  0  0  0  0  0  0  0  0  0  0
   21.2965  -13.0358  -19.1832 C   0  0  0  0  0  0  0  0  0  0  0  0
   22.3385  -12.3875  -19.4862 O   0  0  0  0  0  0  0  0  0  0  0  0
   20.1663  -12.3030  -18.7284 N   0  0  0  0  0  0  0  0  0  0  0  0
   20.0489  -10.8678  -18.7469 C   0  0  0  0  0  0  0  0  0  0  0  0
   19.9765  -10.2282  -17.4351 C   0  0  0  0  0  0  0  0  0  0  0  0
   19.2484  -10.7387  -16.5130 O   0  0  0  0  0  0  0  0  0  0  0  0
   23.3824   -5.2854  -14.8753 N   0  0  0  0  0  0  0  0  0  0  0  0
   22.3465   -5.5977  -13.9464 C   0  0  0  0  0  0  0  0  0  0  0  0
   22.2809   -4.8886  -12.9273 O   0  0  0  0  0  0  0  0  0  0  0  0
   21.3920   -6.6904  -14.1483 C   0  0  0  0  0  0  0  0  0  0  0  0
   21.5488   -7.4393  -15.4411 C   0  0  0  0  0  0  0  0  0  0  0  0
   20.4729   -8.4404  -15.7149 C   0  0  2  0  0  0  0  0  0  0  0  0
   20.6509   -9.0470  -17.0442 N   0  0  0  0  0  0  0  0  0  0  0  0
   19.1184   -7.8382  -15.7385 C   0  0  0  0  0  0  0  0  0  0  0  0
   18.5632   -7.2396  -16.8868 O   0  0  0  0  0  0  0  0  0  0  0  0
   18.3594   -7.8157  -14.7328 O   0  0  0  0  0  0  0  0  0  0  0  0
  2  3  1  6
  2  1  1  0
  4  2  1  0
  4  5  1  0
  5  6  1  6
  7  5  1  0
  7  9  1  0
  8  7  2  0
 10  9  1  0
 10 11  1  0
 11 19  1  0
 12 11  2  0
 13 14  1  0
 14 15  2  0
 16 14  1  0
 16 17  1  0
 18 17  1  6
 18 20  1  0
 19 18  1  0
 20 22  2  0
 20 21  1  0
M  END
$$$$
