LGQ.pdb
     RDKit          3D

 22 21  0  0  1  0  0  0  0  0999 V2000
   25.9480  -17.2372  -14.1381 C   0  0  0  0  0  0  0  0  0  0  0  0
   26.1633  -17.0507  -15.6229 C   0  0  2  0  0  0  0  0  0  0  0  0
   27.5764  -17.4472  -15.9424 C   0  0  0  0  0  0  0  0  0  0  0  0
   25.8466  -15.6622  -16.0741 C   0  0  0  0  0  0  0  0  0  0  0  0
   24.3846  -15.3781  -15.8068 C   0  0  2  0  0  0  0  0  0  0  0  0
   23.6087  -16.4519  -16.3910 N   0  0  0  0  0  0  0  0  0  0  0  0
   23.9629  -14.1040  -16.4842 C   0  0  0  0  0  0  0  0  0  0  0  0
   23.5168  -14.1106  -17.6668 O   0  0  0  0  0  0  0  0  0  0  0  0
   24.0533  -12.8532  -15.8146 N   0  0  0  0  0  0  0  0  0  0  0  0
   23.7086  -11.5794  -16.3914 C   0  0  0  0  0  0  0  0  0  0  0  0
   22.9918  -10.6642  -15.5061 C   0  0  0  0  0  0  0  0  0  0  0  0
   22.4295  -11.1090  -14.4444 O   0  0  0  0  0  0  0  0  0  0  0  0
   23.1100   -4.1803  -15.0573 N   0  0  0  0  0  0  0  0  0  0  0  0
   22.1704   -4.6434  -14.0897 C   0  0  0  0  0  0  0  0  0  0  0  0
   21.6703   -3.7835  -13.3440 O   0  0  0  0  0  0  0  0  0  0  0  0
   21.7908   -6.0515  -13.9516 C   0  0  0  0  0  0  0  0  0  0  0  0
   22.4587   -6.9867  -14.9189 C   0  0  0  0  0  0  0  0  0  0  0  0
   22.0873   -8.4250  -14.7514 C   0  0  2  0  0  0  0  0  0  0  0  0
   22.8360   -9.2704  -15.6956 N   0  0  0  0  0  0  0  0  0  0  0  0
   20.6573   -8.6880  -15.0410 C   0  0  0  0  0  0  0  0  0  0  0  0
   19.6446   -8.5881  -14.0665 O   0  0  0  0  0  0  0  0  0  0  0  0
   20.2378   -9.0213  -16.1816 O   0  0  0  0  0  0  0  0  0  0  0  0
  2  3  1  1
  2  1  1  0
  4  2  1  0
  4  5  1  0
  5  6  1  6
  7  5  1  0
  7  9  1  0
  8  7  2  0
 10  9  1  0
 10 11  1  0
 11 19  1  0
 12 11  2  0
 13 14  1  0
 14 15  2  0
 16 14  1  0
 16 17  1  0
 18 17  1  6
 18 20  1  0
 19 18  1  0
 20 22  2  0
 20 21  1  0
M  END
$$$$
