LGQ.pdb
     RDKit          3D

 22 21  0  0  1  0  0  0  0  0999 V2000
   19.3037  -16.9142  -14.9425 C   0  0  0  0  0  0  0  0  0  0  0  0
   18.5341  -16.5677  -16.1969 C   0  0  2  0  0  0  0  0  0  0  0  0
   18.7779  -17.6515  -17.2078 C   0  0  0  0  0  0  0  0  0  0  0  0
   18.8810  -15.2126  -16.7214 C   0  0  0  0  0  0  0  0  0  0  0  0
   18.5205  -14.1740  -15.6817 C   0  0  2  0  0  0  0  0  0  0  0  0
   17.0824  -14.1931  -15.5139 N   0  0  0  0  0  0  0  0  0  0  0  0
   18.8952  -12.7985  -16.1588 C   0  0  0  0  0  0  0  0  0  0  0  0
   20.0954  -12.5050  -16.4257 O   0  0  0  0  0  0  0  0  0  0  0  0
   17.9107  -11.7864  -16.3241 N   0  0  0  0  0  0  0  0  0  0  0  0
   18.1618  -10.4637  -16.8355 C   0  0  0  0  0  0  0  0  0  0  0  0
   18.7059   -9.5116  -15.8698 C   0  0  0  0  0  0  0  0  0  0  0  0
   18.4812   -9.6693  -14.6186 O   0  0  0  0  0  0  0  0  0  0  0  0
   24.0207   -5.9659  -15.8822 N   0  0  0  0  0  0  0  0  0  0  0  0
   23.2301   -5.4425  -14.8171 C   0  0  0  0  0  0  0  0  0  0  0  0
   23.7429   -4.5372  -14.1367 O   0  0  0  0  0  0  0  0  0  0  0  0
   21.8806   -5.9226  -14.5102 C   0  0  0  0  0  0  0  0  0  0  0  0
   21.3620   -6.9900  -15.4313 C   0  0  0  0  0  0  0  0  0  0  0  0
   19.9709   -7.4482  -15.1321 C   0  0  2  0  0  0  0  0  0  0  0  0
   19.4918   -8.3740  -16.1715 N   0  0  0  0  0  0  0  0  0  0  0  0
   18.9895   -6.3372  -15.1162 C   0  0  0  0  0  0  0  0  0  0  0  0
   18.7397   -5.5484  -13.9758 O   0  0  0  0  0  0  0  0  0  0  0  0
   18.3032   -6.0129  -16.1221 O   0  0  0  0  0  0  0  0  0  0  0  0
  2  3  1  6
  2  1  1  0
  4  2  1  0
  4  5  1  0
  5  6  1  6
  7  5  1  0
  7  9  1  0
  8  7  2  0
 10  9  1  0
 10 11  1  0
 11 19  1  0
 12 11  2  0
 13 14  1  0
 14 15  2  0
 16 14  1  0
 16 17  1  0
 18 17  1  6
 18 20  1  0
 19 18  1  0
 20 22  2  0
 20 21  1  0
M  END
$$$$
