LGQ.pdb
     RDKit          3D

 22 21  0  0  1  0  0  0  0  0999 V2000
   27.4557  -14.0902  -16.0991 C   0  0  0  0  0  0  0  0  0  0  0  0
   27.3035  -12.6120  -16.3777 C   0  0  2  0  0  0  0  0  0  0  0  0
   28.6060  -11.9394  -16.0505 C   0  0  0  0  0  0  0  0  0  0  0  0
   26.1518  -12.0095  -15.6413 C   0  0  0  0  0  0  0  0  0  0  0  0
   24.8729  -12.6826  -16.0898 C   0  0  2  0  0  0  0  0  0  0  0  0
   24.8921  -12.7556  -17.5357 N   0  0  0  0  0  0  0  0  0  0  0  0
   23.6784  -11.8568  -15.7010 C   0  0  0  0  0  0  0  0  0  0  0  0
   23.4172  -11.6182  -14.4875 O   0  0  0  0  0  0  0  0  0  0  0  0
   22.8065  -11.3194  -16.6870 N   0  0  0  0  0  0  0  0  0  0  0  0
   21.6600  -10.4916  -16.4146 C   0  0  0  0  0  0  0  0  0  0  0  0
   21.9527   -9.0863  -16.1417 C   0  0  0  0  0  0  0  0  0  0  0  0
   23.1606   -8.6625  -16.1896 O   0  0  0  0  0  0  0  0  0  0  0  0
   18.3892   -4.0525  -17.6224 N   0  0  0  0  0  0  0  0  0  0  0  0
   19.5526   -3.5143  -16.9976 C   0  0  0  0  0  0  0  0  0  0  0  0
   19.6441   -2.2749  -16.9661 O   0  0  0  0  0  0  0  0  0  0  0  0
   20.6064   -4.3476  -16.4135 C   0  0  0  0  0  0  0  0  0  0  0  0
   20.3356   -5.8249  -16.4409 C   0  0  0  0  0  0  0  0  0  0  0  0
   21.3613   -6.6587  -15.7427 C   0  0  2  0  0  0  0  0  0  0  0  0
   21.0077   -8.0860  -15.8110 N   0  0  0  0  0  0  0  0  0  0  0  0
   21.4661   -6.3511  -14.2963 C   0  0  0  0  0  0  0  0  0  0  0  0
   22.2862   -5.3254  -13.7859 O   0  0  0  0  0  0  0  0  0  0  0  0
   20.8292   -6.9838  -13.4119 O   0  0  0  0  0  0  0  0  0  0  0  0
  2  3  1  1
  2  1  1  0
  4  2  1  0
  4  5  1  0
  5  6  1  6
  7  5  1  0
  7  9  1  0
  8  7  2  0
 10  9  1  0
 10 11  1  0
 11 19  1  0
 12 11  2  0
 13 14  1  0
 14 15  2  0
 16 14  1  0
 16 17  1  0
 18 17  1  1
 18 20  1  0
 19 18  1  0
 20 22  2  0
 20 21  1  0
M  END
$$$$
