LGQ.pdb
     RDKit          3D

 22 21  0  0  1  0  0  0  0  0999 V2000
   21.8593  -20.9969  -19.1359 C   0  0  0  0  0  0  0  0  0  0  0  0
   22.4667  -20.0855  -18.0937 C   0  0  2  0  0  0  0  0  0  0  0  0
   23.8801  -19.7852  -18.5039 C   0  0  0  0  0  0  0  0  0  0  0  0
   22.3841  -20.6601  -16.7173 C   0  0  0  0  0  0  0  0  0  0  0  0
   22.4926  -19.5387  -15.7072 C   0  0  2  0  0  0  0  0  0  0  0  0
   23.7209  -19.7269  -14.9639 N   0  0  0  0  0  0  0  0  0  0  0  0
   21.3601  -19.6062  -14.7209 C   0  0  0  0  0  0  0  0  0  0  0  0
   20.1603  -19.4696  -15.0948 O   0  0  0  0  0  0  0  0  0  0  0  0
   21.6046  -19.8259  -13.3378 N   0  0  0  0  0  0  0  0  0  0  0  0
   20.5886  -20.0701  -12.3468 C   0  0  0  0  0  0  0  0  0  0  0  0
   19.7817  -21.2696  -12.5592 C   0  0  0  0  0  0  0  0  0  0  0  0
   18.9309  -21.3081  -13.5162 O   0  0  0  0  0  0  0  0  0  0  0  0
   18.6155  -28.5477  -10.9235 N   0  0  0  0  0  0  0  0  0  0  0  0
   19.2638  -27.2790  -10.8640 C   0  0  0  0  0  0  0  0  0  0  0  0
   20.1996  -27.1701  -10.0529 O   0  0  0  0  0  0  0  0  0  0  0  0
   18.8737  -26.1402  -11.6988 C   0  0  0  0  0  0  0  0  0  0  0  0
   19.5492  -24.8425  -11.3578 C   0  0  0  0  0  0  0  0  0  0  0  0
   19.0880  -23.6704  -12.1629 C   0  0  2  0  0  0  0  0  0  0  0  0
   19.8313  -22.4560  -11.7893 N   0  0  0  0  0  0  0  0  0  0  0  0
   17.6608  -23.3405  -11.9344 C   0  0  0  0  0  0  0  0  0  0  0  0
   16.6131  -23.8879  -12.7010 O   0  0  0  0  0  0  0  0  0  0  0  0
   17.2753  -22.5448  -11.0366 O   0  0  0  0  0  0  0  0  0  0  0  0
  2  3  1  6
  2  1  1  0
  4  2  1  0
  4  5  1  0
  5  6  1  1
  7  5  1  0
  7  9  1  0
  8  7  2  0
 10  9  1  0
 10 11  1  0
 11 19  1  0
 12 11  2  0
 13 14  1  0
 14 15  2  0
 16 14  1  0
 16 17  1  0
 18 17  1  1
 18 20  1  0
 19 18  1  0
 20 22  2  0
 20 21  1  0
M  END
$$$$
