LGQ.pdb
     RDKit          3D

 22 21  0  0  1  0  0  0  0  0999 V2000
   18.8874  -26.2329   -8.7245 C   0  0  0  0  0  0  0  0  0  0  0  0
   18.2121  -25.0008   -8.1660 C   0  0  2  0  0  0  0  0  0  0  0  0
   18.7201  -23.8072   -8.9232 C   0  0  0  0  0  0  0  0  0  0  0  0
   18.4072  -24.8638   -6.6913 C   0  0  0  0  0  0  0  0  0  0  0  0
   17.8985  -26.1144   -6.0080 C   0  0  2  0  0  0  0  0  0  0  0  0
   16.4523  -26.0494   -5.9806 N   0  0  0  0  0  0  0  0  0  0  0  0
   18.3695  -26.1641   -4.5813 C   0  0  0  0  0  0  0  0  0  0  0  0
   19.5969  -26.0653   -4.2956 O   0  0  0  0  0  0  0  0  0  0  0  0
   17.4483  -26.3238   -3.5103 N   0  0  0  0  0  0  0  0  0  0  0  0
   17.8002  -26.3548   -2.1142 C   0  0  0  0  0  0  0  0  0  0  0  0
   16.6739  -26.4178   -1.1855 C   0  0  0  0  0  0  0  0  0  0  0  0
   15.4971  -26.6732   -1.6224 O   0  0  0  0  0  0  0  0  0  0  0  0
   14.1188  -28.8111    4.7686 N   0  0  0  0  0  0  0  0  0  0  0  0
   15.0624  -27.7799    4.4861 C   0  0  0  0  0  0  0  0  0  0  0  0
   16.1134  -27.7905    5.1500 O   0  0  0  0  0  0  0  0  0  0  0  0
   14.8386  -26.7446    3.4742 C   0  0  0  0  0  0  0  0  0  0  0  0
   15.9737  -26.5422    2.5113 C   0  0  0  0  0  0  0  0  0  0  0  0
   15.5580  -26.3766    1.0850 C   0  0  2  0  0  0  0  0  0  0  0  0
   16.7340  -26.2169    0.2141 N   0  0  0  0  0  0  0  0  0  0  0  0
   14.7385  -25.1616    0.8613 C   0  0  0  0  0  0  0  0  0  0  0  0
   13.3346  -25.1489    0.9791 O   0  0  0  0  0  0  0  0  0  0  0  0
   15.2352  -24.0465    0.5486 O   0  0  0  0  0  0  0  0  0  0  0  0
  2  3  1  6
  2  1  1  0
  4  2  1  0
  4  5  1  0
  5  6  1  1
  7  5  1  0
  7  9  1  0
  8  7  2  0
 10  9  1  0
 10 11  1  0
 11 19  1  0
 12 11  2  0
 13 14  1  0
 14 15  2  0
 16 14  1  0
 16 17  1  0
 18 17  1  1
 18 20  1  0
 19 18  1  0
 20 22  2  0
 20 21  1  0
M  END
$$$$
