LGQ.pdb
     RDKit          3D

 22 21  0  0  1  0  0  0  0  0999 V2000
   15.5647  -15.4969  -17.0542 C   0  0  0  0  0  0  0  0  0  0  0  0
   16.5206  -14.3572  -17.3247 C   0  0  2  0  0  0  0  0  0  0  0  0
   17.6497  -14.8848  -18.1630 C   0  0  0  0  0  0  0  0  0  0  0  0
   17.0009  -13.7067  -16.0686 C   0  0  0  0  0  0  0  0  0  0  0  0
   15.8056  -13.2420  -15.2655 C   0  0  2  0  0  0  0  0  0  0  0  0
   15.1962  -12.1363  -15.9743 N   0  0  0  0  0  0  0  0  0  0  0  0
   16.2416  -12.7246  -13.9230 C   0  0  0  0  0  0  0  0  0  0  0  0
   16.8674  -13.4638  -13.1107 O   0  0  0  0  0  0  0  0  0  0  0  0
   15.9632  -11.3880  -13.5268 N   0  0  0  0  0  0  0  0  0  0  0  0
   16.4074  -10.7794  -12.2995 C   0  0  0  0  0  0  0  0  0  0  0  0
   16.0340   -9.3776  -12.1243 C   0  0  0  0  0  0  0  0  0  0  0  0
   15.5059   -8.7294  -13.0948 O   0  0  0  0  0  0  0  0  0  0  0  0
   14.8736   -6.3331   -6.6391 N   0  0  0  0  0  0  0  0  0  0  0  0
   14.0255   -7.1914   -7.3990 C   0  0  0  0  0  0  0  0  0  0  0  0
   13.0627   -7.6973   -6.7968 O   0  0  0  0  0  0  0  0  0  0  0  0
   14.2468   -7.4857   -8.8168 C   0  0  0  0  0  0  0  0  0  0  0  0
   15.4737   -6.8554   -9.4119 C   0  0  0  0  0  0  0  0  0  0  0  0
   15.7307   -7.2195  -10.8388 C   0  0  2  0  0  0  0  0  0  0  0  0
   16.1982   -8.6112  -10.9460 N   0  0  0  0  0  0  0  0  0  0  0  0
   16.7992   -6.3998  -11.4588 C   0  0  0  0  0  0  0  0  0  0  0  0
   16.5522   -5.1640  -12.0887 O   0  0  0  0  0  0  0  0  0  0  0  0
   18.0109   -6.7459  -11.4698 O   0  0  0  0  0  0  0  0  0  0  0  0
  2  3  1  1
  2  1  1  0
  4  2  1  0
  4  5  1  0
  5  6  1  6
  7  5  1  0
  7  9  1  0
  8  7  2  0
 10  9  1  0
 10 11  1  0
 11 19  1  0
 12 11  2  0
 13 14  1  0
 14 15  2  0
 16 14  1  0
 16 17  1  0
 18 17  1  1
 18 20  1  0
 19 18  1  0
 20 22  2  0
 20 21  1  0
M  END
$$$$
