LGQ.pdb
     RDKit          3D

 22 21  0  0  1  0  0  0  0  0999 V2000
   29.6747  -20.6242  -13.5567 C   0  0  0  0  0  0  0  0  0  0  0  0
   29.2936  -20.4070  -12.1098 C   0  0  2  0  0  0  0  0  0  0  0  0
   30.4322  -20.8799  -11.2518 C   0  0  0  0  0  0  0  0  0  0  0  0
   28.0020  -21.0688  -11.7558 C   0  0  0  0  0  0  0  0  0  0  0  0
   26.8899  -20.4498  -12.5743 C   0  0  2  0  0  0  0  0  0  0  0  0
   26.8830  -19.0261  -12.3106 N   0  0  0  0  0  0  0  0  0  0  0  0
   25.5548  -20.9895  -12.1428 C   0  0  0  0  0  0  0  0  0  0  0  0
   25.0824  -22.0454  -12.6521 O   0  0  0  0  0  0  0  0  0  0  0  0
   24.7835  -20.3281  -11.1485 N   0  0  0  0  0  0  0  0  0  0  0  0
   23.5164  -20.7888  -10.6423 C   0  0  0  0  0  0  0  0  0  0  0  0
   22.3707  -20.5603  -11.5200 C   0  0  0  0  0  0  0  0  0  0  0  0
   21.5490  -19.6108  -11.2665 O   0  0  0  0  0  0  0  0  0  0  0  0
   23.8682  -19.2657  -14.6253 N   0  0  0  0  0  0  0  0  0  0  0  0
   22.7529  -18.6813  -15.2946 C   0  0  0  0  0  0  0  0  0  0  0  0
   22.8919  -17.5106  -15.6890 O   0  0  0  0  0  0  0  0  0  0  0  0
   21.4927  -19.3926  -15.5224 C   0  0  0  0  0  0  0  0  0  0  0  0
   21.4513  -20.7968  -14.9904 C   0  0  0  0  0  0  0  0  0  0  0  0
   20.9537  -20.9158  -13.5858 C   0  0  2  0  0  0  0  0  0  0  0  0
   22.0442  -21.3063  -12.6774 N   0  0  0  0  0  0  0  0  0  0  0  0
   19.9193  -21.9661  -13.4284 C   0  0  0  0  0  0  0  0  0  0  0  0
   18.5371  -21.6960  -13.4694 O   0  0  0  0  0  0  0  0  0  0  0  0
   20.1973  -23.1816  -13.2457 O   0  0  0  0  0  0  0  0  0  0  0  0
  2  3  1  1
  2  1  1  0
  4  2  1  0
  4  5  1  0
  5  6  1  1
  7  5  1  0
  7  9  1  0
  8  7  2  0
 10  9  1  0
 10 11  1  0
 11 19  1  0
 12 11  2  0
 13 14  1  0
 14 15  2  0
 16 14  1  0
 16 17  1  0
 18 17  1  6
 18 20  1  0
 19 18  1  0
 20 22  2  0
 20 21  1  0
M  END
$$$$
