LGQ.pdb
     RDKit          3D

 22 21  0  0  1  0  0  0  0  0999 V2000
   28.3724  -18.2626   -4.4285 C   0  0  0  0  0  0  0  0  0  0  0  0
   28.2155  -19.7367   -4.7257 C   0  0  2  0  0  0  0  0  0  0  0  0
   28.9226  -20.5074   -3.6478 C   0  0  0  0  0  0  0  0  0  0  0  0
   28.6994  -20.0964   -6.0925 C   0  0  0  0  0  0  0  0  0  0  0  0
   27.7270  -19.5560   -7.1183 C   0  0  2  0  0  0  0  0  0  0  0  0
   26.4999  -19.2131   -6.4305 N   0  0  0  0  0  0  0  0  0  0  0  0
   27.3891  -20.6130   -8.1324 C   0  0  0  0  0  0  0  0  0  0  0  0
   28.2912  -21.1648   -8.8250 O   0  0  0  0  0  0  0  0  0  0  0  0
   26.0445  -21.0239   -8.3428 N   0  0  0  0  0  0  0  0  0  0  0  0
   24.9479  -20.1413   -8.6471 C   0  0  0  0  0  0  0  0  0  0  0  0
   24.4005  -20.2645   -9.9963 C   0  0  0  0  0  0  0  0  0  0  0  0
   23.1744  -20.5961  -10.1622 O   0  0  0  0  0  0  0  0  0  0  0  0
   27.0149  -17.7418  -15.3792 N   0  0  0  0  0  0  0  0  0  0  0  0
   25.6532  -18.0340  -15.6853 C   0  0  0  0  0  0  0  0  0  0  0  0
   25.2535  -17.7026  -16.8149 O   0  0  0  0  0  0  0  0  0  0  0  0
   24.7428  -18.6884  -14.7425 C   0  0  0  0  0  0  0  0  0  0  0  0
   25.3575  -19.0661  -13.4250 C   0  0  0  0  0  0  0  0  0  0  0  0
   24.4215  -19.7350  -12.4704 C   0  0  2  0  0  0  0  0  0  0  0  0
   25.1045  -20.0509  -11.2053 N   0  0  0  0  0  0  0  0  0  0  0  0
   23.9146  -21.0333  -12.9753 C   0  0  0  0  0  0  0  0  0  0  0  0
   22.6495  -21.1830  -13.5773 O   0  0  0  0  0  0  0  0  0  0  0  0
   24.5767  -22.1032  -12.9048 O   0  0  0  0  0  0  0  0  0  0  0  0
  2  3  1  1
  2  1  1  0
  4  2  1  0
  4  5  1  0
  5  6  1  1
  7  5  1  0
  7  9  1  0
  8  7  2  0
 10  9  1  0
 10 11  1  0
 11 19  1  0
 12 11  2  0
 13 14  1  0
 14 15  2  0
 16 14  1  0
 16 17  1  0
 18 17  1  6
 18 20  1  0
 19 18  1  0
 20 22  2  0
 20 21  1  0
M  END
$$$$
