LGQ.pdb
     RDKit          3D

 22 21  0  0  1  0  0  0  0  0999 V2000
   17.6096  -13.5720  -17.6477 C   0  0  0  0  0  0  0  0  0  0  0  0
   17.5790  -12.0620  -17.7169 C   0  0  2  0  0  0  0  0  0  0  0  0
   16.6007  -11.6640  -18.7848 C   0  0  0  0  0  0  0  0  0  0  0  0
   18.9344  -11.4749  -17.9401 C   0  0  0  0  0  0  0  0  0  0  0  0
   19.7029  -11.4979  -16.6368 C   0  0  2  0  0  0  0  0  0  0  0  0
   18.8137  -11.9883  -15.6048 N   0  0  0  0  0  0  0  0  0  0  0  0
   20.1168  -10.1070  -16.2444 C   0  0  0  0  0  0  0  0  0  0  0  0
   20.9432   -9.4512  -16.9408 O   0  0  0  0  0  0  0  0  0  0  0  0
   19.5910   -9.4873  -15.0780 N   0  0  0  0  0  0  0  0  0  0  0  0
   19.9232   -8.1614  -14.6245 C   0  0  0  0  0  0  0  0  0  0  0  0
   19.1359   -7.0816  -15.2153 C   0  0  0  0  0  0  0  0  0  0  0  0
   18.3100   -7.3347  -16.1613 O   0  0  0  0  0  0  0  0  0  0  0  0
   14.4348   -4.5544  -13.2672 N   0  0  0  0  0  0  0  0  0  0  0  0
   14.7611   -3.5937  -14.2693 C   0  0  0  0  0  0  0  0  0  0  0  0
   13.9239   -2.6978  -14.4746 O   0  0  0  0  0  0  0  0  0  0  0  0
   16.0077   -3.6295  -15.0377 C   0  0  0  0  0  0  0  0  0  0  0  0
   16.9613   -4.7234  -14.6497 C   0  0  0  0  0  0  0  0  0  0  0  0
   18.2543   -4.7172  -15.3999 C   0  0  2  0  0  0  0  0  0  0  0  0
   19.1832   -5.7161  -14.8467 N   0  0  0  0  0  0  0  0  0  0  0  0
   18.9700   -3.4225  -15.3031 C   0  0  0  0  0  0  0  0  0  0  0  0
   18.6060   -2.2851  -16.0508 O   0  0  0  0  0  0  0  0  0  0  0  0
   19.9593   -3.2400  -14.5442 O   0  0  0  0  0  0  0  0  0  0  0  0
  2  3  1  6
  2  1  1  0
  4  2  1  0
  4  5  1  0
  5  6  1  1
  7  5  1  0
  7  9  1  0
  8  7  2  0
 10  9  1  0
 10 11  1  0
 11 19  1  0
 12 11  2  0
 13 14  1  0
 14 15  2  0
 16 14  1  0
 16 17  1  0
 18 17  1  1
 18 20  1  0
 19 18  1  0
 20 22  2  0
 20 21  1  0
M  END
$$$$
