LGQ.pdb
     RDKit          3D

 22 21  0  0  1  0  0  0  0  0999 V2000
   21.2507  -12.0440  -22.4877 C   0  0  0  0  0  0  0  0  0  0  0  0
   20.7986  -10.8236  -21.7182 C   0  0  2  0  0  0  0  0  0  0  0  0
   20.3709   -9.7794  -22.7096 C   0  0  0  0  0  0  0  0  0  0  0  0
   21.8473  -10.3213  -20.7803 C   0  0  0  0  0  0  0  0  0  0  0  0
   21.7303  -11.0630  -19.4665 C   0  0  2  0  0  0  0  0  0  0  0  0
   20.3253  -11.3098  -19.2187 N   0  0  0  0  0  0  0  0  0  0  0  0
   22.2401  -10.2145  -18.3351 C   0  0  0  0  0  0  0  0  0  0  0  0
   23.4555   -9.8729  -18.2721 O   0  0  0  0  0  0  0  0  0  0  0  0
   21.3703   -9.7708  -17.3019 N   0  0  0  0  0  0  0  0  0  0  0  0
   21.7823   -9.0430  -16.1295 C   0  0  0  0  0  0  0  0  0  0  0  0
   21.5673   -7.5986  -16.1812 C   0  0  0  0  0  0  0  0  0  0  0  0
   21.8444   -6.9476  -17.2491 O   0  0  0  0  0  0  0  0  0  0  0  0
   16.1567   -4.4390  -16.7110 N   0  0  0  0  0  0  0  0  0  0  0  0
   16.9690   -5.2894  -15.9044 C   0  0  0  0  0  0  0  0  0  0  0  0
   16.4091   -5.8462  -14.9442 O   0  0  0  0  0  0  0  0  0  0  0  0
   18.3927   -5.5179  -16.1628 C   0  0  0  0  0  0  0  0  0  0  0  0
   19.3151   -5.0900  -15.0571 C   0  0  0  0  0  0  0  0  0  0  0  0
   20.7624   -5.3623  -15.3135 C   0  0  2  0  0  0  0  0  0  0  0  0
   21.0643   -6.7916  -15.1330 N   0  0  0  0  0  0  0  0  0  0  0  0
   21.6581   -4.6518  -14.3696 C   0  0  0  0  0  0  0  0  0  0  0  0
   22.4544   -5.3174  -13.4168 O   0  0  0  0  0  0  0  0  0  0  0  0
   21.7758   -3.3973  -14.3472 O   0  0  0  0  0  0  0  0  0  0  0  0
  2  3  1  6
  2  1  1  0
  4  2  1  0
  4  5  1  0
  5  6  1  1
  7  5  1  0
  7  9  1  0
  8  7  2  0
 10  9  1  0
 10 11  1  0
 11 19  1  0
 12 11  2  0
 13 14  1  0
 14 15  2  0
 16 14  1  0
 16 17  1  0
 18 17  1  1
 18 20  1  0
 19 18  1  0
 20 22  2  0
 20 21  1  0
M  END
$$$$
