LGQ.pdb
     RDKit          3D

 22 21  0  0  1  0  0  0  0  0999 V2000
   25.1280  -17.2574  -21.2514 C   0  0  0  0  0  0  0  0  0  0  0  0
   25.2449  -18.0293  -19.9566 C   0  0  2  0  0  0  0  0  0  0  0  0
   26.4451  -18.9269  -20.0557 C   0  0  0  0  0  0  0  0  0  0  0  0
   23.9973  -18.7824  -19.6281 C   0  0  0  0  0  0  0  0  0  0  0  0
   22.8824  -17.7958  -19.3570 C   0  0  2  0  0  0  0  0  0  0  0  0
   23.4843  -16.5048  -19.0975 N   0  0  0  0  0  0  0  0  0  0  0  0
   22.1201  -18.1884  -18.1222 C   0  0  0  0  0  0  0  0  0  0  0  0
   21.5095  -19.2932  -18.0561 O   0  0  0  0  0  0  0  0  0  0  0  0
   22.0631  -17.3285  -16.9915 N   0  0  0  0  0  0  0  0  0  0  0  0
   21.3479  -17.6097  -15.7736 C   0  0  0  0  0  0  0  0  0  0  0  0
   21.6389  -18.9040  -15.1609 C   0  0  0  0  0  0  0  0  0  0  0  0
   21.9041  -19.9169  -15.8990 O   0  0  0  0  0  0  0  0  0  0  0  0
   25.8036  -21.8234  -10.3140 N   0  0  0  0  0  0  0  0  0  0  0  0
   24.4569  -21.3548  -10.3327 C   0  0  0  0  0  0  0  0  0  0  0  0
   24.0613  -20.7583   -9.3162 O   0  0  0  0  0  0  0  0  0  0  0  0
   23.5570  -21.5489  -11.4721 C   0  0  0  0  0  0  0  0  0  0  0  0
   23.1337  -20.2872  -12.1688 C   0  0  0  0  0  0  0  0  0  0  0  0
   22.1078  -20.4811  -13.2387 C   0  0  2  0  0  0  0  0  0  0  0  0
   21.6610  -19.1847  -13.7740 N   0  0  0  0  0  0  0  0  0  0  0  0
   20.8777  -21.1441  -12.7437 C   0  0  0  0  0  0  0  0  0  0  0  0
   20.7203  -22.5438  -12.7076 O   0  0  0  0  0  0  0  0  0  0  0  0
   19.8781  -20.5063  -12.3171 O   0  0  0  0  0  0  0  0  0  0  0  0
  2  3  1  6
  2  1  1  0
  4  2  1  0
  4  5  1  0
  5  6  1  1
  7  5  1  0
  7  9  1  0
  8  7  2  0
 10  9  1  0
 10 11  1  0
 11 19  1  0
 12 11  2  0
 13 14  1  0
 14 15  2  0
 16 14  1  0
 16 17  1  0
 18 17  1  1
 18 20  1  0
 19 18  1  0
 20 22  2  0
 20 21  1  0
M  END
$$$$
