KFR.pdb
     RDKit          3D

 32 32  0  0  1  0  0  0  0  0999 V2000
   19.1317  -20.5803  -11.7342 N   0  0  0  0  0  0  0  0  0  0  0  0
   20.2646  -21.4709  -11.9466 C   0  0  1  0  0  0  0  0  0  0  0  0
   20.0137  -22.4086  -13.0804 C   0  0  0  0  0  0  0  0  0  0  0  0
   18.7097  -23.1221  -12.9250 C   0  0  0  0  0  0  0  0  0  0  0  0
   18.4545  -24.0249  -14.0880 C   0  0  0  0  0  0  0  0  0  0  0  0
   17.0897  -24.6823  -13.8266 C   0  0  0  0  0  0  0  0  0  0  0  0
   17.3295  -25.9000  -13.0790 N   0  0  0  0  0  0  0  0  0  0  0  0
   21.4649  -20.5997  -12.2789 C   0  0  0  0  0  0  0  0  0  0  0  0
   21.3182  -19.5752  -12.9584 O   0  0  0  0  0  0  0  0  0  0  0  0
   22.7336  -20.9485  -11.8209 N   0  0  0  0  0  0  0  0  0  0  0  0
   23.9978  -20.4829  -12.2884 C   0  0  1  0  0  0  0  0  0  0  0  0
   25.0182  -20.8305  -11.2246 C   0  0  0  0  0  0  0  0  0  0  0  0
   26.4017  -20.5009  -11.6117 C   0  0  0  0  0  0  0  0  0  0  0  0
   26.7626  -19.2371  -12.0383 C   0  0  0  0  0  0  0  0  0  0  0  0
   28.0839  -18.9303  -12.4004 C   0  0  0  0  0  0  0  0  0  0  0  0
   29.0239  -19.9272  -12.3198 C   0  0  0  0  0  0  0  0  0  0  0  0
   28.6635  -21.1831  -11.8959 C   0  0  0  0  0  0  0  0  0  0  0  0
   27.3672  -21.4999  -11.5369 C   0  0  0  0  0  0  0  0  0  0  0  0
   24.4260  -21.0625  -13.5712 C   0  0  0  0  0  0  0  0  0  0  0  0
   24.5480  -22.2914  -13.7079 O   0  0  0  0  0  0  0  0  0  0  0  0
   22.8948  -18.5773  -21.8828 N   0  0  0  0  0  0  0  0  0  0  0  0
   22.1952  -18.7404  -20.6193 C   0  0  0  0  0  0  0  0  0  0  0  0
   21.0602  -18.3355  -20.5265 N   0  0  0  0  0  0  0  0  0  0  0  0
   22.9069  -19.3589  -19.5265 N   0  0  0  0  0  0  0  0  0  0  0  0
   24.2413  -19.8665  -19.6280 C   0  0  0  0  0  0  0  0  0  0  0  0
   24.7899  -20.5822  -18.4520 C   0  0  0  0  0  0  0  0  0  0  0  0
   24.4144  -20.0398  -17.1146 C   0  0  0  0  0  0  0  0  0  0  0  0
   25.1088  -20.8172  -15.9912 C   0  0  2  0  0  0  0  0  0  0  0  0
   24.7215  -20.2407  -14.7233 N   0  0  0  0  0  0  0  0  0  0  0  0
   26.5691  -20.7327  -16.2461 C   0  0  0  0  0  0  0  0  0  0  0  0
   27.3198  -21.8593  -16.4158 O   0  0  0  0  0  0  0  0  0  0  0  0
   27.0978  -19.6115  -16.3005 O   0  0  0  0  0  0  0  0  0  0  0  0
  2  3  1  0
  2  8  1  0
  2  1  1  6
  4  3  1  0
  5  4  1  0
  6  5  1  0
  7  6  1  0
  8  9  2  0
 10 11  1  0
 10  8  1  0
 11 19  1  0
 12 13  1  0
 11 12  1  1
 13 14  2  0
 14 15  1  0
 16 15  2  0
 17 16  1  0
 18 13  1  0
 18 17  2  0
 19 20  2  0
 21 22  1  0
 22 24  1  0
 22 23  2  0
 24 25  1  0
 26 25  1  0
 27 26  1  0
 28 27  1  6
 28 30  1  0
 29 19  1  0
 29 28  1  0
 30 32  2  0
 30 31  1  0
M  END
$$$$
