KFR.pdb
     RDKit          3D

 32 32  0  0  1  0  0  0  0  0999 V2000
   20.8740  -20.7124  -12.5522 N   0  0  0  0  0  0  0  0  0  0  0  0
   21.3313  -19.7889  -13.5816 C   0  0  1  0  0  0  0  0  0  0  0  0
   20.8893  -18.3925  -13.2945 C   0  0  0  0  0  0  0  0  0  0  0  0
   19.5889  -18.0798  -13.9614 C   0  0  0  0  0  0  0  0  0  0  0  0
   19.0157  -19.2984  -14.6089 C   0  0  0  0  0  0  0  0  0  0  0  0
   17.7071  -18.8499  -15.2794 C   0  0  0  0  0  0  0  0  0  0  0  0
   16.6125  -19.3196  -14.4544 N   0  0  0  0  0  0  0  0  0  0  0  0
   22.8506  -19.8379  -13.5863 C   0  0  0  0  0  0  0  0  0  0  0  0
   23.5022  -18.8354  -13.9073 O   0  0  0  0  0  0  0  0  0  0  0  0
   23.5161  -21.0087  -13.2293 N   0  0  0  0  0  0  0  0  0  0  0  0
   24.9217  -21.2465  -13.1915 C   0  0  1  0  0  0  0  0  0  0  0  0
   25.1899  -22.1217  -11.9850 C   0  0  0  0  0  0  0  0  0  0  0  0
   25.5275  -21.3566  -10.7713 C   0  0  0  0  0  0  0  0  0  0  0  0
   26.8351  -21.1457  -10.3774 C   0  0  0  0  0  0  0  0  0  0  0  0
   27.1481  -20.4114   -9.2223 C   0  0  0  0  0  0  0  0  0  0  0  0
   26.1120  -19.8992   -8.4820 C   0  0  0  0  0  0  0  0  0  0  0  0
   24.8127  -20.1101   -8.8746 C   0  0  0  0  0  0  0  0  0  0  0  0
   24.4895  -20.8310  -10.0084 C   0  0  0  0  0  0  0  0  0  0  0  0
   25.4623  -21.9048  -14.3913 C   0  0  0  0  0  0  0  0  0  0  0  0
   24.7325  -22.5894  -15.1279 O   0  0  0  0  0  0  0  0  0  0  0  0
   31.7796  -26.3390  -17.4965 N   0  0  0  0  0  0  0  0  0  0  0  0
   31.7354  -25.3196  -18.5316 C   0  0  0  0  0  0  0  0  0  0  0  0
   31.9328  -25.6462  -19.6784 N   0  0  0  0  0  0  0  0  0  0  0  0
   31.4814  -23.9570  -18.1291 N   0  0  0  0  0  0  0  0  0  0  0  0
   30.9223  -23.5889  -16.8640 C   0  0  0  0  0  0  0  0  0  0  0  0
   29.4455  -23.5141  -16.7668 C   0  0  0  0  0  0  0  0  0  0  0  0
   28.8949  -22.4405  -15.8903 C   0  0  0  0  0  0  0  0  0  0  0  0
   27.3660  -22.3871  -15.9806 C   0  0  2  0  0  0  0  0  0  0  0  0
   26.8528  -21.7883  -14.7689 N   0  0  0  0  0  0  0  0  0  0  0  0
   26.8964  -23.7809  -16.1839 C   0  0  0  0  0  0  0  0  0  0  0  0
   26.5455  -24.2311  -17.4232 O   0  0  0  0  0  0  0  0  0  0  0  0
   26.8265  -24.5328  -15.1995 O   0  0  0  0  0  0  0  0  0  0  0  0
  2  3  1  0
  2  8  1  0
  2  1  1  1
  4  3  1  0
  5  4  1  0
  6  5  1  0
  7  6  1  0
  8  9  2  0
 10 11  1  0
 10  8  1  0
 11 19  1  0
 12 13  1  0
 11 12  1  1
 13 14  2  0
 14 15  1  0
 16 15  2  0
 17 16  1  0
 18 13  1  0
 18 17  2  0
 19 20  2  0
 21 22  1  0
 22 24  1  0
 22 23  2  0
 24 25  1  0
 26 25  1  0
 27 26  1  0
 28 27  1  1
 28 30  1  0
 29 19  1  0
 29 28  1  0
 30 32  2  0
 30 31  1  0
M  END
$$$$
