KFR.pdb
     RDKit          3D

 32 32  0  0  1  0  0  0  0  0999 V2000
   34.6695  -30.4986  -20.2681 N   0  0  0  0  0  0  0  0  0  0  0  0
   33.8565  -30.1242  -19.1189 C   0  0  1  0  0  0  0  0  0  0  0  0
   33.2645  -28.7649  -19.2915 C   0  0  0  0  0  0  0  0  0  0  0  0
   34.2726  -27.6907  -19.0395 C   0  0  0  0  0  0  0  0  0  0  0  0
   33.6221  -26.3458  -19.0110 C   0  0  0  0  0  0  0  0  0  0  0  0
   34.7638  -25.3218  -18.9053 C   0  0  0  0  0  0  0  0  0  0  0  0
   34.1676  -24.0015  -18.9326 N   0  0  0  0  0  0  0  0  0  0  0  0
   32.7348  -31.1443  -19.0108 C   0  0  0  0  0  0  0  0  0  0  0  0
   32.2757  -31.6715  -20.0325 O   0  0  0  0  0  0  0  0  0  0  0  0
   32.2193  -31.4909  -17.7637 N   0  0  0  0  0  0  0  0  0  0  0  0
   31.1644  -32.4043  -17.4695 C   0  0  1  0  0  0  0  0  0  0  0  0
   31.8096  -33.6746  -16.9561 C   0  0  0  0  0  0  0  0  0  0  0  0
   32.4031  -34.5012  -18.0224 C   0  0  0  0  0  0  0  0  0  0  0  0
   31.6307  -35.2829  -18.8600 C   0  0  0  0  0  0  0  0  0  0  0  0
   32.2037  -36.0635  -19.8766 C   0  0  0  0  0  0  0  0  0  0  0  0
   33.5680  -36.0327  -20.0233 C   0  0  0  0  0  0  0  0  0  0  0  0
   34.3347  -35.2555  -19.1895 C   0  0  0  0  0  0  0  0  0  0  0  0
   33.7848  -34.4827  -18.1845 C   0  0  0  0  0  0  0  0  0  0  0  0
   30.1976  -31.9202  -16.4716 C   0  0  0  0  0  0  0  0  0  0  0  0
   30.5810  -31.3757  -15.4225 O   0  0  0  0  0  0  0  0  0  0  0  0
   21.3225  -31.5248  -16.9930 N   0  0  0  0  0  0  0  0  0  0  0  0
   22.2768  -32.6207  -17.0236 C   0  0  0  0  0  0  0  0  0  0  0  0
   21.9190  -33.6917  -17.4546 N   0  0  0  0  0  0  0  0  0  0  0  0
   23.6038  -32.3773  -16.5104 N   0  0  0  0  0  0  0  0  0  0  0  0
   23.9818  -31.1909  -15.8046 C   0  0  0  0  0  0  0  0  0  0  0  0
   25.3952  -31.0745  -15.3746 C   0  0  0  0  0  0  0  0  0  0  0  0
   26.4075  -31.7369  -16.2466 C   0  0  0  0  0  0  0  0  0  0  0  0
   27.8239  -31.5316  -15.6989 C   0  0  2  0  0  0  0  0  0  0  0  0
   28.7703  -32.0513  -16.6602 N   0  0  0  0  0  0  0  0  0  0  0  0
   27.8853  -32.2272  -14.3885 C   0  0  0  0  0  0  0  0  0  0  0  0
   27.7825  -31.5332  -13.2183 O   0  0  0  0  0  0  0  0  0  0  0  0
   28.0348  -33.4589  -14.3773 O   0  0  0  0  0  0  0  0  0  0  0  0
  2  3  1  0
  2  8  1  0
  2  1  1  6
  4  3  1  0
  5  4  1  0
  6  5  1  0
  7  6  1  0
  8  9  2  0
 10 11  1  0
 10  8  1  0
 11 19  1  0
 12 13  1  0
 11 12  1  1
 13 14  2  0
 14 15  1  0
 16 15  2  0
 17 16  1  0
 18 13  1  0
 18 17  2  0
 19 20  2  0
 21 22  1  0
 22 24  1  0
 22 23  2  0
 24 25  1  0
 26 25  1  0
 27 26  1  0
 28 27  1  6
 28 30  1  0
 29 19  1  0
 29 28  1  0
 30 32  2  0
 30 31  1  0
M  END
$$$$
