KFR.pdb
     RDKit          3D

 32 32  0  0  1  0  0  0  0  0999 V2000
   27.9661  -20.4212  -14.7289 N   0  0  0  0  0  0  0  0  0  0  0  0
   26.8838  -20.2517  -15.6889 C   0  0  1  0  0  0  0  0  0  0  0  0
   26.7119  -21.4694  -16.5348 C   0  0  0  0  0  0  0  0  0  0  0  0
   27.2400  -22.6904  -15.8537 C   0  0  0  0  0  0  0  0  0  0  0  0
   26.1251  -23.5111  -15.2913 C   0  0  0  0  0  0  0  0  0  0  0  0
   25.7867  -24.5617  -16.3612 C   0  0  0  0  0  0  0  0  0  0  0  0
   24.7209  -25.3904  -15.8351 N   0  0  0  0  0  0  0  0  0  0  0  0
   25.6103  -20.0161  -14.8931 C   0  0  0  0  0  0  0  0  0  0  0  0
   25.6746  -19.7368  -13.6887 O   0  0  0  0  0  0  0  0  0  0  0  0
   24.3669  -20.1122  -15.5142 N   0  0  0  0  0  0  0  0  0  0  0  0
   23.0896  -19.7583  -14.9878 C   0  0  1  0  0  0  0  0  0  0  0  0
   22.5691  -18.6090  -15.8254 C   0  0  0  0  0  0  0  0  0  0  0  0
   23.2017  -17.3173  -15.5031 C   0  0  0  0  0  0  0  0  0  0  0  0
   24.3658  -16.8972  -16.1178 C   0  0  0  0  0  0  0  0  0  0  0  0
   24.9591  -15.6629  -15.8084 C   0  0  0  0  0  0  0  0  0  0  0  0
   24.3487  -14.8701  -14.8689 C   0  0  0  0  0  0  0  0  0  0  0  0
   23.1918  -15.2893  -14.2583 C   0  0  0  0  0  0  0  0  0  0  0  0
   22.5969  -16.5014  -14.5521 C   0  0  0  0  0  0  0  0  0  0  0  0
   22.1005  -20.8475  -15.0006 C   0  0  0  0  0  0  0  0  0  0  0  0
   21.9645  -21.5752  -15.9985 O   0  0  0  0  0  0  0  0  0  0  0  0
   19.2573  -22.7440   -7.4813 N   0  0  0  0  0  0  0  0  0  0  0  0
   18.9333  -23.7538   -8.4753 C   0  0  0  0  0  0  0  0  0  0  0  0
   18.5354  -24.8319   -8.1010 N   0  0  0  0  0  0  0  0  0  0  0  0
   19.1296  -23.4217   -9.8662 N   0  0  0  0  0  0  0  0  0  0  0  0
   18.8639  -24.3212  -10.9473 C   0  0  0  0  0  0  0  0  0  0  0  0
   19.2773  -23.8962  -12.3054 C   0  0  0  0  0  0  0  0  0  0  0  0
   20.1054  -22.6585  -12.3865 C   0  0  0  0  0  0  0  0  0  0  0  0
   20.3496  -22.2549  -13.8446 C   0  0  2  0  0  0  0  0  0  0  0  0
   21.2483  -21.1228  -13.8657 N   0  0  0  0  0  0  0  0  0  0  0  0
   19.0220  -21.9541  -14.4377 C   0  0  0  0  0  0  0  0  0  0  0  0
   18.2489  -22.9442  -14.9701 O   0  0  0  0  0  0  0  0  0  0  0  0
   18.6271  -20.7779  -14.4419 O   0  0  0  0  0  0  0  0  0  0  0  0
  2  3  1  0
  2  8  1  0
  2  1  1  1
  4  3  1  0
  5  4  1  0
  6  5  1  0
  7  6  1  0
  8  9  2  0
 10 11  1  0
 10  8  1  0
 11 19  1  0
 12 13  1  0
 11 12  1  6
 13 14  2  0
 14 15  1  0
 16 15  2  0
 17 16  1  0
 18 13  1  0
 18 17  2  0
 19 20  2  0
 21 22  1  0
 22 24  1  0
 22 23  2  0
 24 25  1  0
 26 25  1  0
 27 26  1  0
 28 27  1  1
 28 30  1  0
 29 19  1  0
 29 28  1  0
 30 32  2  0
 30 31  1  0
M  END
$$$$
