GWS.pdb
     RDKit          3D

 25 26  0  0  1  0  0  0  0  0999 V2000
   28.4462  -22.6675  -15.9905 N   0  0  0  0  0  0  0  0  0  0  0  0
   28.6383  -21.6080  -15.0557 C   0  0  0  0  0  0  0  0  0  0  0  0
   27.7113  -21.6868  -13.8861 C   0  0  0  0  0  0  0  0  0  0  0  0
   26.5790  -22.2510  -13.9609 O   0  0  0  0  0  0  0  0  0  0  0  0
   28.0687  -21.1262  -12.6330 N   0  0  0  0  0  0  0  0  0  0  0  0
   27.1607  -21.0747  -11.5054 C   0  0  1  0  0  0  0  0  0  0  0  0
   27.8867  -20.7198  -10.2316 C   0  0  0  0  0  0  0  0  0  0  0  0
   27.0734  -20.5458   -9.0492 C   0  0  0  0  0  0  0  0  0  0  0  0
   25.6826  -20.6245   -9.0373 C   0  0  0  0  0  0  0  0  0  0  0  0
   25.2177  -20.4451   -7.7929 N   0  0  0  0  0  0  0  0  0  0  0  0
   26.2896  -20.2517   -7.0041 C   0  0  0  0  0  0  0  0  0  0  0  0
   26.3735  -20.0181   -5.6622 C   0  0  0  0  0  0  0  0  0  0  0  0
   27.5921  -19.8337   -5.0218 C   0  0  0  0  0  0  0  0  0  0  0  0
   28.7493  -19.8919   -5.7861 C   0  0  0  0  0  0  0  0  0  0  0  0
   28.6488  -20.1260   -7.1240 C   0  0  0  0  0  0  0  0  0  0  0  0
   27.4428  -20.3096   -7.7599 C   0  0  0  0  0  0  0  0  0  0  0  0
   25.9113  -20.3558  -11.7526 C   0  0  0  0  0  0  0  0  0  0  0  0
   25.9412  -19.0912  -11.8208 O   0  0  0  0  0  0  0  0  0  0  0  0
   23.0499  -22.1792  -13.6090 O   0  0  0  0  0  0  0  0  0  0  0  0
   22.9505  -20.7875  -13.5865 C   0  0  0  0  0  0  0  0  0  0  0  0
   23.4400  -20.2256  -12.2331 C   0  0  2  0  0  0  0  0  0  0  0  0
   24.6481  -20.9887  -11.9304 N   0  0  0  0  0  0  0  0  0  0  0  0
   22.3352  -20.5100  -11.2893 C   0  0  0  0  0  0  0  0  0  0  0  0
   22.5094  -21.3430  -10.3665 O   0  0  0  0  0  0  0  0  0  0  0  0
   21.1047  -19.8886  -11.3839 O   0  0  0  0  0  0  0  0  0  0  0  0
  1  2  1  0
  3  5  1  0
  3  2  1  0
  4  3  2  0
  6  5  1  0
  7  8  1  0
  6  7  1  1
  8 16  1  0
  9  8  2  0
  9 10  1  0
 10 11  1  0
 11 12  1  0
 12 13  2  0
 14 13  1  0
 15 14  2  0
 16 11  2  0
 16 15  1  0
 17 22  1  0
 17  6  1  0
 18 17  2  0
 19 20  1  0
 21 20  1  6
 21 22  1  0
 21 23  1  0
 23 25  1  0
 24 23  2  0
M  END
$$$$
