GWS.pdb
     RDKit          3D

 25 26  0  0  1  0  0  0  0  0999 V2000
   29.2828  -21.2745  -14.2167 N   0  0  0  0  0  0  0  0  0  0  0  0
   28.5766  -20.3022  -13.4492 C   0  0  0  0  0  0  0  0  0  0  0  0
   27.5530  -20.9057  -12.5428 C   0  0  0  0  0  0  0  0  0  0  0  0
   27.0348  -22.0391  -12.7721 O   0  0  0  0  0  0  0  0  0  0  0  0
   27.1181  -20.2239  -11.3773 N   0  0  0  0  0  0  0  0  0  0  0  0
   26.0058  -20.6781  -10.5680 C   0  0  1  0  0  0  0  0  0  0  0  0
   26.1451  -20.2210   -9.1372 C   0  0  0  0  0  0  0  0  0  0  0  0
   27.3962  -20.5233   -8.4792 C   0  0  0  0  0  0  0  0  0  0  0  0
   28.4179  -21.2790   -9.0497 C   0  0  0  0  0  0  0  0  0  0  0  0
   29.4582  -21.3640   -8.2085 N   0  0  0  0  0  0  0  0  0  0  0  0
   29.1200  -20.6741   -7.1048 C   0  0  0  0  0  0  0  0  0  0  0  0
   29.8127  -20.4518   -5.9502 C   0  0  0  0  0  0  0  0  0  0  0  0
   29.2815  -19.7074   -4.9048 C   0  0  0  0  0  0  0  0  0  0  0  0
   28.0058  -19.1815   -5.0569 C   0  0  0  0  0  0  0  0  0  0  0  0
   27.3278  -19.4122   -6.2153 C   0  0  0  0  0  0  0  0  0  0  0  0
   27.8525  -20.1486   -7.2520 C   0  0  0  0  0  0  0  0  0  0  0  0
   24.6873  -20.4947  -11.1739 C   0  0  0  0  0  0  0  0  0  0  0  0
   24.2414  -19.3173  -11.3137 O   0  0  0  0  0  0  0  0  0  0  0  0
   20.8595  -22.6215  -13.3763 O   0  0  0  0  0  0  0  0  0  0  0  0
   22.1097  -22.7062  -12.7624 C   0  0  0  0  0  0  0  0  0  0  0  0
   22.5612  -21.3215  -12.2468 C   0  0  2  0  0  0  0  0  0  0  0  0
   23.8627  -21.5626  -11.6292 N   0  0  0  0  0  0  0  0  0  0  0  0
   21.5262  -20.9343  -11.2614 C   0  0  0  0  0  0  0  0  0  0  0  0
   21.6226  -21.3321  -10.0747 O   0  0  0  0  0  0  0  0  0  0  0  0
   20.4445  -20.1435  -11.5988 O   0  0  0  0  0  0  0  0  0  0  0  0
  1  2  1  0
  3  5  1  0
  3  2  1  0
  4  3  2  0
  6  5  1  0
  7  8  1  0
  6  7  1  1
  8 16  1  0
  9  8  2  0
  9 10  1  0
 10 11  1  0
 11 12  1  0
 12 13  2  0
 14 13  1  0
 15 14  2  0
 16 11  2  0
 16 15  1  0
 17 22  1  0
 17  6  1  0
 18 17  2  0
 19 20  1  0
 21 20  1  1
 21 22  1  0
 21 23  1  0
 23 25  1  0
 24 23  2  0
M  END
$$$$
