GWS.pdb
     RDKit          3D

 25 26  0  0  1  0  0  0  0  0999 V2000
   26.0489  -19.6204  -19.8628 N   0  0  0  0  0  0  0  0  0  0  0  0
   25.2462  -19.7111  -18.6877 C   0  0  0  0  0  0  0  0  0  0  0  0
   25.0522  -21.1175  -18.2209 C   0  0  0  0  0  0  0  0  0  0  0  0
   25.2207  -22.1114  -18.9888 O   0  0  0  0  0  0  0  0  0  0  0  0
   24.6677  -21.3958  -16.8841 N   0  0  0  0  0  0  0  0  0  0  0  0
   24.5209  -22.7425  -16.3709 C   0  0  1  0  0  0  0  0  0  0  0  0
   25.5731  -23.0532  -15.3354 C   0  0  0  0  0  0  0  0  0  0  0  0
   26.8832  -23.4116  -15.8303 C   0  0  0  0  0  0  0  0  0  0  0  0
   27.8511  -22.4895  -16.2222 C   0  0  0  0  0  0  0  0  0  0  0  0
   28.9672  -23.1233  -16.6086 N   0  0  0  0  0  0  0  0  0  0  0  0
   28.7310  -24.4401  -16.4714 C   0  0  0  0  0  0  0  0  0  0  0  0
   29.5289  -25.5166  -16.7300 C   0  0  0  0  0  0  0  0  0  0  0  0
   29.0946  -26.8203  -16.5278 C   0  0  0  0  0  0  0  0  0  0  0  0
   27.8068  -27.0149  -16.0477 C   0  0  0  0  0  0  0  0  0  0  0  0
   27.0231  -25.9302  -15.7942 C   0  0  0  0  0  0  0  0  0  0  0  0
   27.4517  -24.6383  -15.9933 C   0  0  0  0  0  0  0  0  0  0  0  0
   23.1517  -23.1256  -16.0281 C   0  0  0  0  0  0  0  0  0  0  0  0
   22.4207  -22.2885  -15.4201 O   0  0  0  0  0  0  0  0  0  0  0  0
   20.6399  -25.2704  -18.2068 O   0  0  0  0  0  0  0  0  0  0  0  0
   20.7640  -25.8177  -16.9292 C   0  0  0  0  0  0  0  0  0  0  0  0
   21.2229  -24.7450  -15.9165 C   0  0  2  0  0  0  0  0  0  0  0  0
   22.5746  -24.3893  -16.3407 N   0  0  0  0  0  0  0  0  0  0  0  0
   21.2000  -25.4343  -14.6063 C   0  0  0  0  0  0  0  0  0  0  0  0
   22.0810  -26.2885  -14.3416 O   0  0  0  0  0  0  0  0  0  0  0  0
   20.2362  -25.1731  -13.6512 O   0  0  0  0  0  0  0  0  0  0  0  0
  1  2  1  0
  3  5  1  0
  3  2  1  0
  4  3  2  0
  6  5  1  0
  7  8  1  0
  6  7  1  1
  8 16  1  0
  9  8  2  0
  9 10  1  0
 10 11  1  0
 11 12  1  0
 12 13  2  0
 14 13  1  0
 15 14  2  0
 16 11  2  0
 16 15  1  0
 17 22  1  0
 17  6  1  0
 18 17  2  0
 19 20  1  0
 21 20  1  6
 21 22  1  0
 21 23  1  0
 23 25  1  0
 24 23  2  0
M  END
$$$$
