GWS.pdb
     RDKit          3D

 25 26  0  0  1  0  0  0  0  0999 V2000
   27.9904  -21.9473  -15.5061 N   0  0  0  0  0  0  0  0  0  0  0  0
   28.3993  -21.1634  -14.3873 C   0  0  0  0  0  0  0  0  0  0  0  0
   27.5542  -21.3903  -13.1758 C   0  0  0  0  0  0  0  0  0  0  0  0
   26.4340  -21.9796  -13.2368 O   0  0  0  0  0  0  0  0  0  0  0  0
   27.9797  -20.9493  -11.8965 N   0  0  0  0  0  0  0  0  0  0  0  0
   27.1152  -20.9536  -10.7341 C   0  0  1  0  0  0  0  0  0  0  0  0
   27.8882  -20.6535   -9.4738 C   0  0  0  0  0  0  0  0  0  0  0  0
   27.1196  -20.5338   -8.2554 C   0  0  0  0  0  0  0  0  0  0  0  0
   25.7631  -20.8336   -8.1529 C   0  0  0  0  0  0  0  0  0  0  0  0
   25.3400  -20.6487   -6.8945 N   0  0  0  0  0  0  0  0  0  0  0  0
   26.4051  -20.2336   -6.1859 C   0  0  0  0  0  0  0  0  0  0  0  0
   26.5188  -19.9008   -4.8673 C   0  0  0  0  0  0  0  0  0  0  0  0
   27.7221  -19.4810   -4.3152 C   0  0  0  0  0  0  0  0  0  0  0  0
   28.8322  -19.4036   -5.1450 C   0  0  0  0  0  0  0  0  0  0  0  0
   28.7023  -19.7395   -6.4585 C   0  0  0  0  0  0  0  0  0  0  0  0
   27.5115  -20.1561   -7.0070 C   0  0  0  0  0  0  0  0  0  0  0  0
   25.8551  -20.2301  -10.9006 C   0  0  0  0  0  0  0  0  0  0  0  0
   25.8756  -18.9635  -10.8897 O   0  0  0  0  0  0  0  0  0  0  0  0
   23.2412  -21.5255  -13.1913 O   0  0  0  0  0  0  0  0  0  0  0  0
   23.0115  -20.2234  -12.7452 C   0  0  0  0  0  0  0  0  0  0  0  0
   23.3620  -20.0883  -11.2466 C   0  0  2  0  0  0  0  0  0  0  0  0
   24.5912  -20.8602  -11.0827 N   0  0  0  0  0  0  0  0  0  0  0  0
   22.2111  -20.6928  -10.5380 C   0  0  0  0  0  0  0  0  0  0  0  0
   22.3727  -21.7559   -9.8903 O   0  0  0  0  0  0  0  0  0  0  0  0
   20.9503  -20.1278  -10.5610 O   0  0  0  0  0  0  0  0  0  0  0  0
  1  2  1  0
  3  5  1  0
  3  2  1  0
  4  3  2  0
  6  5  1  0
  7  8  1  0
  6  7  1  1
  8 16  1  0
  9  8  2  0
  9 10  1  0
 10 11  1  0
 11 12  1  0
 12 13  2  0
 14 13  1  0
 15 14  2  0
 16 11  2  0
 16 15  1  0
 17 22  1  0
 17  6  1  0
 18 17  2  0
 19 20  1  0
 21 20  1  6
 21 22  1  0
 21 23  1  0
 23 25  1  0
 24 23  2  0
M  END
$$$$
