GWS.pdb
     RDKit          3D

 25 26  0  0  1  0  0  0  0  0999 V2000
   31.0430  -21.4948  -11.7892 N   0  0  0  0  0  0  0  0  0  0  0  0
   30.1605  -20.6442  -11.0606 C   0  0  0  0  0  0  0  0  0  0  0  0
   28.7848  -21.2116  -10.9227 C   0  0  0  0  0  0  0  0  0  0  0  0
   28.4290  -22.2689  -11.5239 O   0  0  0  0  0  0  0  0  0  0  0  0
   27.8141  -20.5803  -10.1033 N   0  0  0  0  0  0  0  0  0  0  0  0
   26.5027  -21.1448   -9.8584 C   0  0  1  0  0  0  0  0  0  0  0  0
   26.2067  -21.2256   -8.3814 C   0  0  0  0  0  0  0  0  0  0  0  0
   26.7758  -20.1899   -7.5489 C   0  0  0  0  0  0  0  0  0  0  0  0
   26.6105  -18.8252   -7.7746 C   0  0  0  0  0  0  0  0  0  0  0  0
   27.2336  -18.1178   -6.8216 N   0  0  0  0  0  0  0  0  0  0  0  0
   27.7977  -19.0080   -5.9862 C   0  0  0  0  0  0  0  0  0  0  0  0
   28.5475  -18.8184   -4.8618 C   0  0  0  0  0  0  0  0  0  0  0  0
   29.0551  -19.8824   -4.1274 C   0  0  0  0  0  0  0  0  0  0  0  0
   28.7814  -21.1708   -4.5657 C   0  0  0  0  0  0  0  0  0  0  0  0
   28.0315  -21.3432   -5.6894 C   0  0  0  0  0  0  0  0  0  0  0  0
   27.5273  -20.2907   -6.4176 C   0  0  0  0  0  0  0  0  0  0  0  0
   25.4331  -20.6056  -10.6977 C   0  0  0  0  0  0  0  0  0  0  0  0
   25.2895  -19.3489  -10.7661 O   0  0  0  0  0  0  0  0  0  0  0  0
   24.4458  -21.8091  -14.2758 O   0  0  0  0  0  0  0  0  0  0  0  0
   23.3125  -21.8034  -13.4617 C   0  0  0  0  0  0  0  0  0  0  0  0
   23.4875  -20.8153  -12.2869 C   0  0  2  0  0  0  0  0  0  0  0  0
   24.5345  -21.4070  -11.4581 N   0  0  0  0  0  0  0  0  0  0  0  0
   22.1690  -20.7989  -11.6133 C   0  0  0  0  0  0  0  0  0  0  0  0
   22.0523  -21.3043  -10.4702 O   0  0  0  0  0  0  0  0  0  0  0  0
   21.0475  -20.2434  -12.1989 O   0  0  0  0  0  0  0  0  0  0  0  0
  1  2  1  0
  3  5  1  0
  3  2  1  0
  4  3  2  0
  6  5  1  0
  7  8  1  0
  6  7  1  1
  8 16  1  0
  9  8  2  0
  9 10  1  0
 10 11  1  0
 11 12  1  0
 12 13  2  0
 14 13  1  0
 15 14  2  0
 16 11  2  0
 16 15  1  0
 17 22  1  0
 17  6  1  0
 18 17  2  0
 19 20  1  0
 21 20  1  6
 21 22  1  0
 21 23  1  0
 23 25  1  0
 24 23  2  0
M  END
$$$$
