STF.pdb
     RDKit          3D

 25 25  0  0  1  0  0  0  0  0999 V2000
   16.0277    0.5876  -16.4829 O   0  0  0  0  0  0  0  0  0  0  0  0
   16.7630   -0.4046  -15.8658 C   0  0  0  0  0  0  0  0  0  0  0  0
   15.9549   -1.6626  -15.6422 C   0  0  2  0  0  0  0  0  0  0  0  0
   14.8839   -1.3964  -14.7329 N   0  0  0  0  0  0  0  0  0  0  0  0
   16.8617   -2.7353  -15.1685 C   0  0  0  0  0  0  0  0  0  0  0  0
   16.7261   -3.1496  -14.0005 O   0  0  0  0  0  0  0  0  0  0  0  0
   16.8357   -6.0194  -15.6509 C   0  0  0  0  0  0  0  0  0  0  0  0
   18.2021   -5.6427  -16.1879 C   0  0  1  0  0  0  0  0  0  0  0  0
   18.1610   -5.5174  -17.5752 O   0  0  0  0  0  0  0  0  0  0  0  0
   18.6802   -4.3402  -15.5511 C   0  0  2  0  0  0  0  0  0  0  0  0
   17.8562   -3.2763  -16.0192 N   0  0  0  0  0  0  0  0  0  0  0  0
   20.1110   -4.1765  -15.9934 C   0  0  0  0  0  0  0  0  0  0  0  0
   20.4180   -3.3374  -16.8772 O   0  0  0  0  0  0  0  0  0  0  0  0
   21.1479   -4.9674  -15.4211 N   0  0  0  0  0  0  0  0  0  0  0  0
   22.5398   -4.7956  -15.7286 C   0  0  1  0  0  0  0  0  0  0  0  0
   23.4150   -5.2606  -14.5882 C   0  0  0  0  0  0  0  0  0  0  0  0
   23.3779   -6.7227  -14.3975 C   0  0  0  0  0  0  0  0  0  0  0  0
   24.3194   -7.5507  -14.9652 C   0  0  0  0  0  0  0  0  0  0  0  0
   24.2820   -8.9302  -14.7837 C   0  0  0  0  0  0  0  0  0  0  0  0
   23.2935   -9.5130  -14.0242 C   0  0  0  0  0  0  0  0  0  0  0  0
   22.3464   -8.6928  -13.4517 C   0  0  0  0  0  0  0  0  0  0  0  0
   22.3995   -7.3260  -13.6429 C   0  0  0  0  0  0  0  0  0  0  0  0
   22.8973   -5.4508  -17.0096 C   0  0  0  0  0  0  0  0  0  0  0  0
   22.2203   -6.3306  -17.5576 O   0  0  0  0  0  0  0  0  0  0  0  0
   24.0692   -5.0533  -17.6399 O   0  0  0  0  0  0  0  0  0  0  0  0
  2  1  1  0
  3  2  1  0
  3  4  1  1
  5  3  1  0
  6  5  2  0
  8  7  1  1
  8  9  1  0
  8 10  1  0
 10 11  1  6
 11  5  1  0
 12 10  1  0
 12 14  1  0
 13 12  2  0
 15 14  1  0
 15 23  1  0
 15 16  1  1
 16 17  1  0
 17 18  2  0
 18 19  1  0
 20 19  2  0
 21 22  2  0
 21 20  1  0
 22 17  1  0
 23 25  1  0
 24 23  2  0
M  END
$$$$
