STF.pdb
     RDKit          3D

 25 25  0  0  1  0  0  0  0  0999 V2000
   24.3499  -25.4008  -14.4206 O   0  0  0  0  0  0  0  0  0  0  0  0
   24.0746  -24.0505  -14.3382 C   0  0  0  0  0  0  0  0  0  0  0  0
   24.9297  -23.2322  -15.2787 C   0  0  2  0  0  0  0  0  0  0  0  0
   25.5008  -24.0807  -16.2780 N   0  0  0  0  0  0  0  0  0  0  0  0
   25.9501  -22.5049  -14.4866 C   0  0  0  0  0  0  0  0  0  0  0  0
   27.0129  -22.1790  -15.0505 O   0  0  0  0  0  0  0  0  0  0  0  0
   26.1599  -19.6829  -14.5470 C   0  0  0  0  0  0  0  0  0  0  0  0
   25.8931  -19.7975  -13.0594 C   0  0  1  0  0  0  0  0  0  0  0  0
   24.5268  -19.7033  -12.8023 O   0  0  0  0  0  0  0  0  0  0  0  0
   26.4447  -21.1160  -12.5230 C   0  0  2  0  0  0  0  0  0  0  0  0
   25.7246  -22.1882  -13.1248 N   0  0  0  0  0  0  0  0  0  0  0  0
   26.2319  -21.0657  -11.0324 C   0  0  0  0  0  0  0  0  0  0  0  0
   25.1839  -21.5303  -10.5173 O   0  0  0  0  0  0  0  0  0  0  0  0
   27.2119  -20.4914  -10.1732 N   0  0  0  0  0  0  0  0  0  0  0  0
   27.2187  -20.6651   -8.7480 C   0  0  1  0  0  0  0  0  0  0  0  0
   28.5235  -20.1998   -8.1449 C   0  0  0  0  0  0  0  0  0  0  0  0
   28.4591  -20.0626   -6.6778 C   0  0  0  0  0  0  0  0  0  0  0  0
   29.0486  -20.9804   -5.8384 C   0  0  0  0  0  0  0  0  0  0  0  0
   28.9863  -20.8484   -4.4543 C   0  0  0  0  0  0  0  0  0  0  0  0
   28.3275  -19.7866   -3.8780 C   0  0  0  0  0  0  0  0  0  0  0  0
   27.7341  -18.8625   -4.7094 C   0  0  0  0  0  0  0  0  0  0  0  0
   27.8063  -19.0099   -6.0808 C   0  0  0  0  0  0  0  0  0  0  0  0
   26.0473  -20.0119   -8.1163 C   0  0  0  0  0  0  0  0  0  0  0  0
   25.6285  -18.8861   -8.4163 O   0  0  0  0  0  0  0  0  0  0  0  0
   25.3721  -20.7063   -7.1212 O   0  0  0  0  0  0  0  0  0  0  0  0
  2  1  1  0
  3  2  1  0
  3  4  1  6
  5  3  1  0
  6  5  2  0
  8  7  1  6
  8  9  1  0
  8 10  1  0
 10 11  1  6
 11  5  1  0
 12 10  1  0
 12 14  1  0
 13 12  2  0
 15 14  1  0
 15 23  1  0
 15 16  1  1
 16 17  1  0
 17 18  2  0
 18 19  1  0
 20 19  2  0
 21 22  2  0
 21 20  1  0
 22 17  1  0
 23 25  1  0
 24 23  2  0
M  END
$$$$
