STF.pdb
     RDKit          3D

 25 25  0  0  1  0  0  0  0  0999 V2000
   29.2777  -25.9562  -17.0520 O   0  0  0  0  0  0  0  0  0  0  0  0
   29.3454  -24.6911  -16.5035 C   0  0  0  0  0  0  0  0  0  0  0  0
   29.1850  -23.6056  -17.5435 C   0  0  2  0  0  0  0  0  0  0  0  0
   30.4700  -23.1197  -17.9401 N   0  0  0  0  0  0  0  0  0  0  0  0
   28.3099  -22.5427  -16.9940 C   0  0  0  0  0  0  0  0  0  0  0  0
   28.8479  -21.5466  -16.4721 O   0  0  0  0  0  0  0  0  0  0  0  0
   24.1985  -20.0754  -17.0410 C   0  0  0  0  0  0  0  0  0  0  0  0
   25.1751  -21.0838  -17.6126 C   0  0  1  0  0  0  0  0  0  0  0  0
   25.9332  -20.5040  -18.6280 O   0  0  0  0  0  0  0  0  0  0  0  0
   26.0854  -21.6218  -16.5115 C   0  0  2  0  0  0  0  0  0  0  0  0
   26.8997  -22.6547  -17.0594 N   0  0  0  0  0  0  0  0  0  0  0  0
   25.1607  -22.1450  -15.4434 C   0  0  0  0  0  0  0  0  0  0  0  0
   24.7424  -23.3295  -15.4801 O   0  0  0  0  0  0  0  0  0  0  0  0
   24.7396  -21.3109  -14.3687 N   0  0  0  0  0  0  0  0  0  0  0  0
   23.8975  -21.7612  -13.2964 C   0  0  1  0  0  0  0  0  0  0  0  0
   24.6946  -22.4976  -12.2452 C   0  0  0  0  0  0  0  0  0  0  0  0
   25.5142  -21.5969  -11.4131 C   0  0  0  0  0  0  0  0  0  0  0  0
   25.0208  -21.0263  -10.2618 C   0  0  0  0  0  0  0  0  0  0  0  0
   25.7965  -20.1767   -9.4784 C   0  0  0  0  0  0  0  0  0  0  0  0
   27.0918  -19.8788   -9.8347 C   0  0  0  0  0  0  0  0  0  0  0  0
   27.5950  -20.4448  -10.9853 C   0  0  0  0  0  0  0  0  0  0  0  0
   26.8104  -21.2856  -11.7501 C   0  0  0  0  0  0  0  0  0  0  0  0
   23.1099  -20.6453  -12.7199 C   0  0  0  0  0  0  0  0  0  0  0  0
   23.3522  -19.4464  -12.9115 O   0  0  0  0  0  0  0  0  0  0  0  0
   22.0270  -20.9623  -11.9103 O   0  0  0  0  0  0  0  0  0  0  0  0
  2  1  1  0
  3  2  1  0
  3  4  1  1
  5  3  1  0
  6  5  2  0
  8  7  1  1
  8  9  1  0
  8 10  1  0
 10 11  1  6
 11  5  1  0
 12 10  1  0
 12 14  1  0
 13 12  2  0
 15 14  1  0
 15 23  1  0
 15 16  1  1
 16 17  1  0
 17 18  2  0
 18 19  1  0
 20 19  2  0
 21 22  2  0
 21 20  1  0
 22 17  1  0
 23 25  1  0
 24 23  2  0
M  END
$$$$
