STF.pdb
     RDKit          3D

 25 25  0  0  1  0  0  0  0  0999 V2000
   14.3571  -11.0520  -18.1816 O   0  0  0  0  0  0  0  0  0  0  0  0
   14.7661  -10.8917  -19.4904 C   0  0  0  0  0  0  0  0  0  0  0  0
   16.0006  -11.7041  -19.8092 C   0  0  2  0  0  0  0  0  0  0  0  0
   15.9032  -12.9943  -19.2005 N   0  0  0  0  0  0  0  0  0  0  0  0
   17.1973  -10.9473  -19.3704 C   0  0  0  0  0  0  0  0  0  0  0  0
   18.2725  -11.5651  -19.2434 O   0  0  0  0  0  0  0  0  0  0  0  0
   18.1119   -7.5327  -20.8814 C   0  0  0  0  0  0  0  0  0  0  0  0
   18.2197   -7.4442  -19.3721 C   0  0  1  0  0  0  0  0  0  0  0  0
   17.1286   -6.7549  -18.8469 O   0  0  0  0  0  0  0  0  0  0  0  0
   18.3070   -8.8421  -18.7650 C   0  0  2  0  0  0  0  0  0  0  0  0
   17.1225   -9.5587  -19.1022 N   0  0  0  0  0  0  0  0  0  0  0  0
   18.4286   -8.6295  -17.2785 C   0  0  0  0  0  0  0  0  0  0  0  0
   17.5452   -9.0580  -16.4941 O   0  0  0  0  0  0  0  0  0  0  0  0
   19.5459   -7.9389  -16.7280 N   0  0  0  0  0  0  0  0  0  0  0  0
   19.9256   -8.0168  -15.3456 C   0  0  1  0  0  0  0  0  0  0  0  0
   20.0828   -9.4519  -14.8999 C   0  0  0  0  0  0  0  0  0  0  0  0
   20.8814   -9.5841  -13.6670 C   0  0  0  0  0  0  0  0  0  0  0  0
   20.3585   -9.2819  -12.4301 C   0  0  0  0  0  0  0  0  0  0  0  0
   21.1145   -9.4075  -11.2682 C   0  0  0  0  0  0  0  0  0  0  0  0
   22.4192   -9.8416  -11.3215 C   0  0  0  0  0  0  0  0  0  0  0  0
   22.9518  -10.1466  -12.5547 C   0  0  0  0  0  0  0  0  0  0  0  0
   22.1865  -10.0158  -13.6970 C   0  0  0  0  0  0  0  0  0  0  0  0
   21.1389   -7.2106  -15.0700 C   0  0  0  0  0  0  0  0  0  0  0  0
   22.1134   -7.1320  -15.8294 O   0  0  0  0  0  0  0  0  0  0  0  0
   21.1889   -6.4943  -13.8813 O   0  0  0  0  0  0  0  0  0  0  0  0
  2  1  1  0
  3  2  1  0
  3  4  1  1
  5  3  1  0
  6  5  2  0
  8  7  1  6
  8  9  1  0
  8 10  1  0
 10 11  1  1
 11  5  1  0
 12 10  1  0
 12 14  1  0
 13 12  2  0
 15 14  1  0
 15 23  1  0
 15 16  1  6
 16 17  1  0
 17 18  2  0
 18 19  1  0
 20 19  2  0
 21 22  2  0
 21 20  1  0
 22 17  1  0
 23 25  1  0
 24 23  2  0
M  END
$$$$
