STF.pdb
     RDKit          3D

 25 25  0  0  1  0  0  0  0  0999 V2000
   28.9809  -23.3004  -15.7701 O   0  0  0  0  0  0  0  0  0  0  0  0
   28.0574  -22.8757  -16.7043 C   0  0  0  0  0  0  0  0  0  0  0  0
   28.1981  -21.4043  -17.0222 C   0  0  2  0  0  0  0  0  0  0  0  0
   29.4541  -21.1639  -17.6619 N   0  0  0  0  0  0  0  0  0  0  0  0
   28.0286  -20.6267  -15.7716 C   0  0  0  0  0  0  0  0  0  0  0  0
   28.6786  -19.5711  -15.6404 O   0  0  0  0  0  0  0  0  0  0  0  0
   26.5152  -18.4075  -15.7027 C   0  0  0  0  0  0  0  0  0  0  0  0
   25.6652  -19.1895  -14.7212 C   0  0  1  0  0  0  0  0  0  0  0  0
   24.6913  -19.9213  -15.3978 O   0  0  0  0  0  0  0  0  0  0  0  0
   26.5418  -20.1182  -13.8848 C   0  0  2  0  0  0  0  0  0  0  0  0
   27.1517  -21.0702  -14.7518 N   0  0  0  0  0  0  0  0  0  0  0  0
   25.6094  -20.7744  -12.9000 C   0  0  0  0  0  0  0  0  0  0  0  0
   25.0551  -21.8690  -13.1719 O   0  0  0  0  0  0  0  0  0  0  0  0
   25.3348  -20.1706  -11.6398 N   0  0  0  0  0  0  0  0  0  0  0  0
   24.5333  -20.7879  -10.6209 C   0  0  1  0  0  0  0  0  0  0  0  0
   24.8458  -20.2183   -9.2569 C   0  0  0  0  0  0  0  0  0  0  0  0
   26.2786  -20.3003   -8.9169 C   0  0  0  0  0  0  0  0  0  0  0  0
   26.8711  -19.4032   -8.0574 C   0  0  0  0  0  0  0  0  0  0  0  0
   28.2235  -19.4830   -7.7382 C   0  0  0  0  0  0  0  0  0  0  0  0
   29.0162  -20.4702   -8.2773 C   0  0  0  0  0  0  0  0  0  0  0  0
   28.4328  -21.3730   -9.1387 C   0  0  0  0  0  0  0  0  0  0  0  0
   27.0891  -21.2782   -9.4438 C   0  0  0  0  0  0  0  0  0  0  0  0
   23.0885  -20.7053  -10.9429 C   0  0  0  0  0  0  0  0  0  0  0  0
   22.2005  -21.3160  -10.3337 O   0  0  0  0  0  0  0  0  0  0  0  0
   22.7018  -19.8893  -11.9978 O   0  0  0  0  0  0  0  0  0  0  0  0
  2  1  1  0
  3  2  1  0
  3  4  1  1
  5  3  1  0
  6  5  2  0
  8  7  1  6
  8  9  1  0
  8 10  1  0
 10 11  1  6
 11  5  1  0
 12 10  1  0
 12 14  1  0
 13 12  2  0
 15 14  1  0
 15 23  1  0
 15 16  1  1
 16 17  1  0
 17 18  2  0
 18 19  1  0
 20 19  2  0
 21 22  2  0
 21 20  1  0
 22 17  1  0
 23 25  1  0
 24 23  2  0
M  END
$$$$
