STF.pdb
     RDKit          3D

 25 25  0  0  1  0  0  0  0  0999 V2000
   21.2414  -13.6384  -15.3499 O   0  0  0  0  0  0  0  0  0  0  0  0
   21.5899  -12.3971  -15.8435 C   0  0  0  0  0  0  0  0  0  0  0  0
   21.2489  -12.2460  -17.3087 C   0  0  2  0  0  0  0  0  0  0  0  0
   22.2059  -12.9496  -18.1048 N   0  0  0  0  0  0  0  0  0  0  0  0
   21.1754  -10.8021  -17.6359 C   0  0  0  0  0  0  0  0  0  0  0  0
   22.1756  -10.2610  -18.1467 O   0  0  0  0  0  0  0  0  0  0  0  0
   18.4900   -6.8396  -18.5343 C   0  0  0  0  0  0  0  0  0  0  0  0
   18.5736   -8.3169  -18.2057 C   0  0  1  0  0  0  0  0  0  0  0  0
   18.2698   -9.0823  -19.3298 O   0  0  0  0  0  0  0  0  0  0  0  0
   19.9662   -8.6655  -17.6864 C   0  0  2  0  0  0  0  0  0  0  0  0
   20.0003  -10.0556  -17.3756 N   0  0  0  0  0  0  0  0  0  0  0  0
   20.1649   -7.8126  -16.4606 C   0  0  0  0  0  0  0  0  0  0  0  0
   19.4900   -8.0165  -15.4202 O   0  0  0  0  0  0  0  0  0  0  0  0
   21.1206   -6.7568  -16.4519 N   0  0  0  0  0  0  0  0  0  0  0  0
   21.3739   -5.9238  -15.3103 C   0  0  1  0  0  0  0  0  0  0  0  0
   22.7988   -6.0703  -14.8296 C   0  0  0  0  0  0  0  0  0  0  0  0
   23.1716   -7.4722  -14.5632 C   0  0  0  0  0  0  0  0  0  0  0  0
   22.6050   -8.1888  -13.5336 C   0  0  0  0  0  0  0  0  0  0  0  0
   22.9587   -9.5117  -13.2844 C   0  0  0  0  0  0  0  0  0  0  0  0
   23.8941  -10.1489  -14.0672 C   0  0  0  0  0  0  0  0  0  0  0  0
   24.4670   -9.4404  -15.1002 C   0  0  0  0  0  0  0  0  0  0  0  0
   24.1036   -8.1283  -15.3324 C   0  0  0  0  0  0  0  0  0  0  0  0
   21.0185   -4.5101  -15.5807 C   0  0  0  0  0  0  0  0  0  0  0  0
   20.7189   -4.0658  -16.6967 O   0  0  0  0  0  0  0  0  0  0  0  0
   21.0207   -3.6221  -14.5130 O   0  0  0  0  0  0  0  0  0  0  0  0
  2  1  1  0
  3  2  1  0
  3  4  1  6
  5  3  1  0
  6  5  2  0
  8  7  1  6
  8  9  1  0
  8 10  1  0
 10 11  1  1
 11  5  1  0
 12 10  1  0
 12 14  1  0
 13 12  2  0
 15 14  1  0
 15 23  1  0
 15 16  1  6
 16 17  1  0
 17 18  2  0
 18 19  1  0
 20 19  2  0
 21 22  2  0
 21 20  1  0
 22 17  1  0
 23 25  1  0
 24 23  2  0
M  END
$$$$
