STF.pdb
     RDKit          3D

 25 25  0  0  1  0  0  0  0  0999 V2000
   30.2304  -23.5227  -16.4531 O   0  0  0  0  0  0  0  0  0  0  0  0
   29.7464  -22.4556  -15.7231 C   0  0  0  0  0  0  0  0  0  0  0  0
   28.2908  -22.1723  -16.0176 C   0  0  2  0  0  0  0  0  0  0  0  0
   28.1351  -21.8101  -17.3920 N   0  0  0  0  0  0  0  0  0  0  0  0
   27.8099  -21.1243  -15.0860 C   0  0  0  0  0  0  0  0  0  0  0  0
   27.9521  -19.9307  -15.4163 O   0  0  0  0  0  0  0  0  0  0  0  0
   24.4204  -21.4369  -14.4078 C   0  0  0  0  0  0  0  0  0  0  0  0
   25.1954  -20.1788  -14.0707 C   0  0  1  0  0  0  0  0  0  0  0  0
   24.3665  -19.2516  -13.4422 O   0  0  0  0  0  0  0  0  0  0  0  0
   26.3881  -20.5149  -13.1790 C   0  0  2  0  0  0  0  0  0  0  0  0
   27.2046  -21.4685  -13.8528 N   0  0  0  0  0  0  0  0  0  0  0  0
   25.7986  -21.0781  -11.9122 C   0  0  0  0  0  0  0  0  0  0  0  0
   25.4986  -22.2958  -11.8295 O   0  0  0  0  0  0  0  0  0  0  0  0
   25.5678  -20.2453  -10.7802 N   0  0  0  0  0  0  0  0  0  0  0  0
   24.9725  -20.7110   -9.5595 C   0  0  1  0  0  0  0  0  0  0  0  0
   25.3287  -19.8128   -8.3979 C   0  0  0  0  0  0  0  0  0  0  0  0
   26.7423  -19.9324   -7.9946 C   0  0  0  0  0  0  0  0  0  0  0  0
   27.4043  -18.9037   -7.3635 C   0  0  0  0  0  0  0  0  0  0  0  0
   28.7385  -19.0192   -6.9839 C   0  0  0  0  0  0  0  0  0  0  0  0
   29.4422  -20.1758   -7.2304 C   0  0  0  0  0  0  0  0  0  0  0  0
   28.7886  -21.2111   -7.8615 C   0  0  0  0  0  0  0  0  0  0  0  0
   27.4644  -21.0784   -8.2309 C   0  0  0  0  0  0  0  0  0  0  0  0
   23.5070  -20.8843   -9.7023 C   0  0  0  0  0  0  0  0  0  0  0  0
   22.8428  -20.4613  -10.6575 O   0  0  0  0  0  0  0  0  0  0  0  0
   22.8309  -21.5662   -8.6992 O   0  0  0  0  0  0  0  0  0  0  0  0
  2  1  1  0
  3  2  1  0
  3  4  1  6
  5  3  1  0
  6  5  2  0
  8  7  1  1
  8  9  1  0
  8 10  1  0
 10 11  1  6
 11  5  1  0
 12 10  1  0
 12 14  1  0
 13 12  2  0
 15 14  1  0
 15 23  1  0
 15 16  1  1
 16 17  1  0
 17 18  2  0
 18 19  1  0
 20 19  2  0
 21 22  2  0
 21 20  1  0
 22 17  1  0
 23 25  1  0
 24 23  2  0
M  END
$$$$
