STF.pdb
     RDKit          3D

 25 25  0  0  1  0  0  0  0  0999 V2000
   25.3948  -27.3120  -18.5858 O   0  0  0  0  0  0  0  0  0  0  0  0
   24.0161  -27.3821  -18.5713 C   0  0  0  0  0  0  0  0  0  0  0  0
   23.5024  -28.3619  -17.5409 C   0  0  2  0  0  0  0  0  0  0  0  0
   23.5542  -29.6907  -18.0664 N   0  0  0  0  0  0  0  0  0  0  0  0
   22.1365  -27.9548  -17.1334 C   0  0  0  0  0  0  0  0  0  0  0  0
   21.1670  -28.4539  -17.7376 O   0  0  0  0  0  0  0  0  0  0  0  0
   19.8432  -29.0092  -16.1125 C   0  0  0  0  0  0  0  0  0  0  0  0
   19.9381  -27.8955  -15.0889 C   0  0  1  0  0  0  0  0  0  0  0  0
   20.6438  -28.3259  -13.9670 O   0  0  0  0  0  0  0  0  0  0  0  0
   20.6110  -26.6697  -15.7013 C   0  0  2  0  0  0  0  0  0  0  0  0
   21.9367  -27.0234  -16.0854 N   0  0  0  0  0  0  0  0  0  0  0  0
   20.6024  -25.6217  -14.6190 C   0  0  0  0  0  0  0  0  0  0  0  0
   21.5300  -25.5648  -13.7730 O   0  0  0  0  0  0  0  0  0  0  0  0
   19.5446  -24.6724  -14.5293 N   0  0  0  0  0  0  0  0  0  0  0  0
   19.5494  -23.5612  -13.6202 C   0  0  1  0  0  0  0  0  0  0  0  0
   20.7427  -22.6649  -13.8556 C   0  0  0  0  0  0  0  0  0  0  0  0
   20.6688  -21.9383  -15.1369 C   0  0  0  0  0  0  0  0  0  0  0  0
   21.1334  -22.4896  -16.3095 C   0  0  0  0  0  0  0  0  0  0  0  0
   21.0624  -21.8016  -17.5173 C   0  0  0  0  0  0  0  0  0  0  0  0
   20.5205  -20.5381  -17.5762 C   0  0  0  0  0  0  0  0  0  0  0  0
   20.0526  -19.9775  -16.4082 C   0  0  0  0  0  0  0  0  0  0  0  0
   20.1315  -20.6753  -15.2188 C   0  0  0  0  0  0  0  0  0  0  0  0
   18.2705  -22.8130  -13.6712 C   0  0  0  0  0  0  0  0  0  0  0  0
   17.3937  -22.9849  -14.5281 O   0  0  0  0  0  0  0  0  0  0  0  0
   18.0372  -21.8543  -12.6940 O   0  0  0  0  0  0  0  0  0  0  0  0
  2  1  1  0
  3  2  1  0
  3  4  1  6
  5  3  1  0
  6  5  2  0
  8  7  1  6
  8  9  1  0
  8 10  1  0
 10 11  1  1
 11  5  1  0
 12 10  1  0
 12 14  1  0
 13 12  2  0
 15 14  1  0
 15 23  1  0
 15 16  1  6
 16 17  1  0
 17 18  2  0
 18 19  1  0
 20 19  2  0
 21 22  2  0
 21 20  1  0
 22 17  1  0
 23 25  1  0
 24 23  2  0
M  END
$$$$
