STF.pdb
     RDKit          3D

 25 25  0  0  1  0  0  0  0  0999 V2000
   24.6100  -35.7722   -9.2221 O   0  0  0  0  0  0  0  0  0  0  0  0
   25.8690  -36.3377   -9.1878 C   0  0  0  0  0  0  0  0  0  0  0  0
   25.8867  -37.6538   -8.4440 C   0  0  2  0  0  0  0  0  0  0  0  0
   25.0176  -38.5879   -9.0896 N   0  0  0  0  0  0  0  0  0  0  0  0
   25.5213  -37.4078   -7.0286 C   0  0  0  0  0  0  0  0  0  0  0  0
   24.3409  -37.6065   -6.6807 O   0  0  0  0  0  0  0  0  0  0  0  0
   27.0429  -39.0142   -4.0728 C   0  0  0  0  0  0  0  0  0  0  0  0
   27.1396  -37.5172   -3.8566 C   0  0  1  0  0  0  0  0  0  0  0  0
   28.4279  -37.0678   -4.1399 O   0  0  0  0  0  0  0  0  0  0  0  0
   26.1196  -36.7896   -4.7288 C   0  0  2  0  0  0  0  0  0  0  0  0
   26.4870  -36.9590   -6.0949 N   0  0  0  0  0  0  0  0  0  0  0  0
   26.1852  -35.3449   -4.3064 C   0  0  0  0  0  0  0  0  0  0  0  0
   26.3076  -34.4311   -5.1604 O   0  0  0  0  0  0  0  0  0  0  0  0
   26.1100  -34.9814   -2.9315 N   0  0  0  0  0  0  0  0  0  0  0  0
   25.9727  -33.6274   -2.4741 C   0  0  1  0  0  0  0  0  0  0  0  0
   24.7287  -32.9813   -3.0379 C   0  0  0  0  0  0  0  0  0  0  0  0
   24.5087  -31.6170   -2.5226 C   0  0  0  0  0  0  0  0  0  0  0  0
   23.6863  -31.3738   -1.4459 C   0  0  0  0  0  0  0  0  0  0  0  0
   23.4804  -30.0852   -0.9617 C   0  0  0  0  0  0  0  0  0  0  0  0
   24.0985  -29.0057   -1.5502 C   0  0  0  0  0  0  0  0  0  0  0  0
   24.9235  -29.2386   -2.6284 C   0  0  0  0  0  0  0  0  0  0  0  0
   25.1159  -30.5242   -3.0951 C   0  0  0  0  0  0  0  0  0  0  0  0
   26.0221  -33.5469   -0.9946 C   0  0  0  0  0  0  0  0  0  0  0  0
   26.4137  -32.5581   -0.3609 O   0  0  0  0  0  0  0  0  0  0  0  0
   25.6016  -34.6529   -0.2676 O   0  0  0  0  0  0  0  0  0  0  0  0
  2  1  1  0
  3  2  1  0
  3  4  1  6
  5  3  1  0
  6  5  2  0
  8  7  1  6
  8  9  1  0
  8 10  1  0
 10 11  1  6
 11  5  1  0
 12 10  1  0
 12 14  1  0
 13 12  2  0
 15 14  1  0
 15 23  1  0
 15 16  1  1
 16 17  1  0
 17 18  2  0
 18 19  1  0
 20 19  2  0
 21 22  2  0
 21 20  1  0
 22 17  1  0
 23 25  1  0
 24 23  2  0
M  END
$$$$
