DNI.pdb
     RDKit          3D

 25 24  0  0  1  0  0  0  0  0999 V2000
    9.0076  -12.5579   18.9423 N   0  0  0  0  0  0  0  0  0  0  0  0
    8.8990  -13.9909   19.0710 C   0  0  1  0  0  0  0  0  0  0  0  0
   10.2195  -14.6782   18.9209 C   0  0  0  0  0  0  0  0  0  0  0  0
   11.3092  -13.9685   19.5906 C   0  0  0  0  0  0  0  0  0  0  0  0
   11.4990  -12.7476   19.3912 O   0  0  0  0  0  0  0  0  0  0  0  0
    8.3622  -14.2900   20.4329 C   0  0  0  0  0  0  0  0  0  0  0  0
    7.8985  -13.4030   21.1668 O   0  0  0  0  0  0  0  0  0  0  0  0
   12.1515  -14.6348   20.4506 O   0  0  0  0  0  0  0  0  0  0  0  0
    7.5272  -18.8113   19.9891 N   0  0  0  0  0  0  0  0  0  0  0  0
    6.7406  -18.0348   20.8669 C   0  0  0  0  0  0  0  0  0  0  0  0
    5.5529  -17.8100   20.5529 O   0  0  0  0  0  0  0  0  0  0  0  0
    7.3268  -17.5234   22.0999 C   0  0  0  0  0  0  0  0  0  0  0  0
    7.7160  -16.0912   22.0611 C   0  0  2  0  0  0  0  0  0  0  0  0
    8.3929  -15.6412   20.8899 N   0  0  0  0  0  0  0  0  0  0  0  0
    8.3838  -15.6290   23.3172 C   0  0  0  0  0  0  0  0  0  0  0  0
    9.6334  -15.6837   23.3410 O   0  0  0  0  0  0  0  0  0  0  0  0
    6.1514  -11.6131   25.9231 C   0  0  0  0  0  0  0  0  0  0  0  0
    7.2205  -12.4874   25.3199 C   0  0  0  0  0  0  0  0  0  0  0  0
    7.6057  -13.5658   26.3207 C   0  0  2  0  0  0  0  0  0  0  0  0
    8.5565  -12.9104   27.3035 C   0  0  0  0  0  0  0  0  0  0  0  0
    8.3642  -14.6879   25.6504 C   0  0  2  0  0  0  0  0  0  0  0  0
    7.7070  -15.1435   24.4522 N   0  0  0  0  0  0  0  0  0  0  0  0
    8.7386  -15.7693   26.5926 C   0  0  0  0  0  0  0  0  0  0  0  0
    9.5389  -15.5691   27.5607 O   0  0  0  0  0  0  0  0  0  0  0  0
    8.2388  -17.0624   26.4725 O   0  0  0  0  0  0  0  0  0  0  0  0
  2  1  1  1
  3  2  1  0
  3  4  1  0
  4  5  2  0
  6  7  2  0
  6  2  1  0
  8  4  1  0
  9 10  1  0
 10 12  1  0
 11 10  2  0
 13 12  1  1
 13 15  1  0
 13 14  1  0
 14  6  1  0
 15 16  2  0
 18 17  1  0
 19 21  1  0
 19 18  1  0
 19 20  1  1
 21 23  1  0
 22 15  1  0
 21 22  1  6
 23 25  1  0
 24 23  2  0
M  END
$$$$
