DNI.pdb
     RDKit          3D

 25 24  0  0  1  0  0  0  0  0999 V2000
    9.8916  -13.0020   19.0738 N   0  0  0  0  0  0  0  0  0  0  0  0
    8.4842  -12.9418   19.3858 C   0  0  1  0  0  0  0  0  0  0  0  0
    7.6246  -13.2798   18.2088 C   0  0  0  0  0  0  0  0  0  0  0  0
    8.1743  -14.3648   17.3963 C   0  0  0  0  0  0  0  0  0  0  0  0
    7.6410  -14.6886   16.3113 O   0  0  0  0  0  0  0  0  0  0  0  0
    8.2118  -13.9326   20.4706 C   0  0  0  0  0  0  0  0  0  0  0  0
    7.1100  -14.0008   21.0378 O   0  0  0  0  0  0  0  0  0  0  0  0
    9.2884  -15.0550   17.8151 O   0  0  0  0  0  0  0  0  0  0  0  0
    8.7903  -17.3374   19.6768 N   0  0  0  0  0  0  0  0  0  0  0  0
    9.7202  -17.7851   20.6397 C   0  0  0  0  0  0  0  0  0  0  0  0
   10.3109  -18.8657   20.4322 O   0  0  0  0  0  0  0  0  0  0  0  0
    9.9638  -16.9852   21.8340 C   0  0  0  0  0  0  0  0  0  0  0  0
    9.1523  -15.7458   21.9335 C   0  0  2  0  0  0  0  0  0  0  0  0
    9.2614  -14.8186   20.8561 N   0  0  0  0  0  0  0  0  0  0  0  0
    9.2560  -15.0807   23.2693 C   0  0  0  0  0  0  0  0  0  0  0  0
   10.2453  -14.3366   23.4501 O   0  0  0  0  0  0  0  0  0  0  0  0
    6.5035  -11.6127   27.0797 C   0  0  0  0  0  0  0  0  0  0  0  0
    7.5397  -12.7052   27.0182 C   0  0  0  0  0  0  0  0  0  0  0  0
    7.3374  -13.5128   25.7454 C   0  0  2  0  0  0  0  0  0  0  0  0
    6.0252  -14.2528   25.9184 C   0  0  0  0  0  0  0  0  0  0  0  0
    8.4177  -14.5568   25.5828 C   0  0  2  0  0  0  0  0  0  0  0  0
    8.3266  -15.2351   24.3153 N   0  0  0  0  0  0  0  0  0  0  0  0
    8.5236  -15.4590   26.7542 C   0  0  0  0  0  0  0  0  0  0  0  0
    8.7650  -15.0174   27.9223 O   0  0  0  0  0  0  0  0  0  0  0  0
    8.3665  -16.8373   26.6442 O   0  0  0  0  0  0  0  0  0  0  0  0
  2  1  1  6
  3  2  1  0
  3  4  1  0
  4  5  2  0
  6  7  2  0
  6  2  1  0
  8  4  1  0
  9 10  1  0
 10 12  1  0
 11 10  2  0
 13 12  1  6
 13 15  1  0
 13 14  1  0
 14  6  1  0
 15 16  2  0
 18 17  1  0
 19 21  1  0
 19 18  1  0
 19 20  1  1
 21 23  1  0
 22 15  1  0
 21 22  1  6
 23 25  1  0
 24 23  2  0
M  END
$$$$
