DNI.pdb
     RDKit          3D

 25 24  0  0  1  0  0  0  0  0999 V2000
    9.1548  -16.9449   18.8253 N   0  0  0  0  0  0  0  0  0  0  0  0
    8.6793  -15.6045   19.0681 C   0  0  1  0  0  0  0  0  0  0  0  0
    7.7138  -15.1440   18.0220 C   0  0  0  0  0  0  0  0  0  0  0  0
    8.2759  -15.1846   16.6723 C   0  0  0  0  0  0  0  0  0  0  0  0
    9.3601  -15.7670   16.4450 O   0  0  0  0  0  0  0  0  0  0  0  0
    7.9834  -15.5968   20.3903 C   0  0  0  0  0  0  0  0  0  0  0  0
    7.1920  -14.6965   20.7121 O   0  0  0  0  0  0  0  0  0  0  0  0
    7.6226  -14.5759   15.6255 O   0  0  0  0  0  0  0  0  0  0  0  0
    6.6025  -19.8900   21.4792 N   0  0  0  0  0  0  0  0  0  0  0  0
    6.2670  -18.7938   22.3028 C   0  0  0  0  0  0  0  0  0  0  0  0
    5.0723  -18.4327   22.3472 O   0  0  0  0  0  0  0  0  0  0  0  0
    7.3092  -18.1221   23.0696 C   0  0  0  0  0  0  0  0  0  0  0  0
    7.6570  -16.7595   22.5935 C   0  0  2  0  0  0  0  0  0  0  0  0
    8.2493  -16.6628   21.3005 N   0  0  0  0  0  0  0  0  0  0  0  0
    8.3872  -15.9478   23.6160 C   0  0  0  0  0  0  0  0  0  0  0  0
    9.6328  -16.0627   23.6383 O   0  0  0  0  0  0  0  0  0  0  0  0
    6.2223  -11.9018   27.2468 C   0  0  0  0  0  0  0  0  0  0  0  0
    6.4776  -13.0695   26.3289 C   0  0  0  0  0  0  0  0  0  0  0  0
    7.9007  -12.9852   25.7992 C   0  0  2  0  0  0  0  0  0  0  0  0
    7.8088  -12.3060   24.4465 C   0  0  0  0  0  0  0  0  0  0  0  0
    8.4799  -14.3614   25.5665 C   0  0  2  0  0  0  0  0  0  0  0  0
    7.7724  -15.0776   24.5361 N   0  0  0  0  0  0  0  0  0  0  0  0
    8.6683  -15.1239   26.8235 C   0  0  0  0  0  0  0  0  0  0  0  0
    8.0473  -16.2108   27.0492 O   0  0  0  0  0  0  0  0  0  0  0  0
    9.5318  -14.6957   27.8273 O   0  0  0  0  0  0  0  0  0  0  0  0
  2  1  1  6
  3  2  1  0
  3  4  1  0
  4  5  2  0
  6  7  2  0
  6  2  1  0
  8  4  1  0
  9 10  1  0
 10 12  1  0
 11 10  2  0
 13 12  1  1
 13 15  1  0
 13 14  1  0
 14  6  1  0
 15 16  2  0
 18 17  1  0
 19 21  1  0
 19 18  1  0
 19 20  1  6
 21 23  1  0
 22 15  1  0
 21 22  1  6
 23 25  1  0
 24 23  2  0
M  END
$$$$
