DNI.pdb
     RDKit          3D

 25 24  0  0  1  0  0  0  0  0999 V2000
    9.7442  -17.0200   19.4262 N   0  0  0  0  0  0  0  0  0  0  0  0
    8.3254  -16.9250   19.1820 C   0  0  1  0  0  0  0  0  0  0  0  0
    7.8241  -18.0245   18.2998 C   0  0  0  0  0  0  0  0  0  0  0  0
    8.7517  -19.1521   18.2138 C   0  0  0  0  0  0  0  0  0  0  0  0
    8.4677  -20.1678   17.5400 O   0  0  0  0  0  0  0  0  0  0  0  0
    7.6257  -17.0191   20.4989 C   0  0  0  0  0  0  0  0  0  0  0  0
    6.3928  -16.9160   20.5977 O   0  0  0  0  0  0  0  0  0  0  0  0
    9.9554  -19.1181   18.8795 O   0  0  0  0  0  0  0  0  0  0  0  0
    6.2168  -18.8993   25.4848 N   0  0  0  0  0  0  0  0  0  0  0  0
    7.5345  -18.6610   25.0381 C   0  0  0  0  0  0  0  0  0  0  0  0
    8.4208  -18.4598   25.8946 O   0  0  0  0  0  0  0  0  0  0  0  0
    7.8220  -18.6569   23.6089 C   0  0  0  0  0  0  0  0  0  0  0  0
    7.8650  -17.3114   22.9828 C   0  0  2  0  0  0  0  0  0  0  0  0
    8.4133  -17.2316   21.6693 N   0  0  0  0  0  0  0  0  0  0  0  0
    8.4109  -16.2567   23.8923 C   0  0  0  0  0  0  0  0  0  0  0  0
    9.6555  -16.1343   23.9259 O   0  0  0  0  0  0  0  0  0  0  0  0
    6.7526  -11.1420   26.9685 C   0  0  0  0  0  0  0  0  0  0  0  0
    7.7817  -12.2159   26.7262 C   0  0  0  0  0  0  0  0  0  0  0  0
    7.1590  -13.3233   25.8902 C   0  0  2  0  0  0  0  0  0  0  0  0
    6.0837  -13.9521   26.7551 C   0  0  0  0  0  0  0  0  0  0  0  0
    8.1667  -14.4053   25.5782 C   0  0  2  0  0  0  0  0  0  0  0  0
    7.6265  -15.4080   24.6962 N   0  0  0  0  0  0  0  0  0  0  0  0
    8.8211  -14.9465   26.7931 C   0  0  0  0  0  0  0  0  0  0  0  0
    8.4823  -16.0642   27.2970 O   0  0  0  0  0  0  0  0  0  0  0  0
    9.8400  -14.2650   27.4516 O   0  0  0  0  0  0  0  0  0  0  0  0
  2  1  1  1
  3  2  1  0
  3  4  1  0
  4  5  2  0
  6  7  2  0
  6  2  1  0
  8  4  1  0
  9 10  1  0
 10 12  1  0
 11 10  2  0
 13 12  1  1
 13 15  1  0
 13 14  1  0
 14  6  1  0
 15 16  2  0
 18 17  1  0
 19 21  1  0
 19 18  1  0
 19 20  1  1
 21 23  1  0
 22 15  1  0
 21 22  1  1
 23 25  1  0
 24 23  2  0
M  END
$$$$
