DNI.pdb
     RDKit          3D

 25 24  0  0  1  0  0  0  0  0999 V2000
    9.5743  -15.6577   18.2658 N   0  0  0  0  0  0  0  0  0  0  0  0
    8.9205  -14.4989   18.8240 C   0  0  1  0  0  0  0  0  0  0  0  0
    7.8927  -13.9245   17.9009 C   0  0  0  0  0  0  0  0  0  0  0  0
    8.3261  -13.9131   16.5040 C   0  0  0  0  0  0  0  0  0  0  0  0
    9.4601  -14.3317   16.1796 O   0  0  0  0  0  0  0  0  0  0  0  0
    8.2404  -14.9192   20.0863 C   0  0  0  0  0  0  0  0  0  0  0  0
    7.0230  -14.7557   20.2636 O   0  0  0  0  0  0  0  0  0  0  0  0
    7.4935  -13.4347   15.5187 O   0  0  0  0  0  0  0  0  0  0  0  0
   10.5893  -18.7793   23.3220 N   0  0  0  0  0  0  0  0  0  0  0  0
    9.9416  -18.0471   22.3038 C   0  0  0  0  0  0  0  0  0  0  0  0
   10.5394  -17.8892   21.2188 O   0  0  0  0  0  0  0  0  0  0  0  0
    8.6103  -17.5027   22.5421 C   0  0  0  0  0  0  0  0  0  0  0  0
    8.4835  -16.0399   22.3218 C   0  0  2  0  0  0  0  0  0  0  0  0
    9.0291  -15.5233   21.1103 N   0  0  0  0  0  0  0  0  0  0  0  0
    8.8787  -15.2290   23.5151 C   0  0  0  0  0  0  0  0  0  0  0  0
   10.0573  -14.8105   23.5435 O   0  0  0  0  0  0  0  0  0  0  0  0
    5.3085  -12.3196   26.8706 C   0  0  0  0  0  0  0  0  0  0  0  0
    6.0987  -13.4655   26.2930 C   0  0  0  0  0  0  0  0  0  0  0  0
    7.5290  -13.0108   26.0474 C   0  0  2  0  0  0  0  0  0  0  0  0
    7.4927  -12.1603   24.7924 C   0  0  0  0  0  0  0  0  0  0  0  0
    8.4348  -14.1860   25.7611 C   0  0  2  0  0  0  0  0  0  0  0  0
    8.0229  -14.9117   24.5869 N   0  0  0  0  0  0  0  0  0  0  0  0
    8.6682  -15.0336   26.9546 C   0  0  0  0  0  0  0  0  0  0  0  0
    9.1356  -14.5556   28.0367 O   0  0  0  0  0  0  0  0  0  0  0  0
    8.3914  -16.3973   26.9602 O   0  0  0  0  0  0  0  0  0  0  0  0
  2  1  1  6
  3  2  1  0
  3  4  1  0
  4  5  2  0
  6  7  2  0
  6  2  1  0
  8  4  1  0
  9 10  1  0
 10 12  1  0
 11 10  2  0
 13 12  1  1
 13 15  1  0
 13 14  1  0
 14  6  1  0
 15 16  2  0
 18 17  1  0
 19 21  1  0
 19 18  1  0
 19 20  1  6
 21 23  1  0
 22 15  1  0
 21 22  1  6
 23 25  1  0
 24 23  2  0
M  END
$$$$
