DNI.pdb
     RDKit          3D

 25 24  0  0  1  0  0  0  0  0999 V2000
    9.9879  -13.8543   18.8790 N   0  0  0  0  0  0  0  0  0  0  0  0
    8.6901  -13.2449   19.0416 C   0  0  1  0  0  0  0  0  0  0  0  0
    7.8597  -13.3331   17.8002 C   0  0  0  0  0  0  0  0  0  0  0  0
    8.5286  -14.0558   16.7188 C   0  0  0  0  0  0  0  0  0  0  0  0
    9.4244  -14.8946   16.9645 O   0  0  0  0  0  0  0  0  0  0  0  0
    7.9783  -13.9669   20.1392 C   0  0  0  0  0  0  0  0  0  0  0  0
    6.8239  -13.6677   20.4828 O   0  0  0  0  0  0  0  0  0  0  0  0
    8.1874  -13.8211   15.4067 O   0  0  0  0  0  0  0  0  0  0  0  0
    6.1718  -18.4154   21.3727 N   0  0  0  0  0  0  0  0  0  0  0  0
    7.4280  -17.9297   20.9504 C   0  0  0  0  0  0  0  0  0  0  0  0
    7.7685  -18.1257   19.7650 O   0  0  0  0  0  0  0  0  0  0  0  0
    8.2824  -17.2213   21.8956 C   0  0  0  0  0  0  0  0  0  0  0  0
    8.1143  -15.7462   21.9078 C   0  0  2  0  0  0  0  0  0  0  0  0
    8.6612  -15.0285   20.8041 N   0  0  0  0  0  0  0  0  0  0  0  0
    8.4675  -15.1248   23.2218 C   0  0  0  0  0  0  0  0  0  0  0  0
    9.6841  -14.9359   23.4440 O   0  0  0  0  0  0  0  0  0  0  0  0
    7.3708  -11.0153   26.9897 C   0  0  0  0  0  0  0  0  0  0  0  0
    7.2420  -12.4961   27.2381 C   0  0  0  0  0  0  0  0  0  0  0  0
    6.8198  -13.1828   25.9485 C   0  0  2  0  0  0  0  0  0  0  0  0
    5.6027  -14.0189   26.2936 C   0  0  0  0  0  0  0  0  0  0  0  0
    7.8879  -14.1340   25.4605 C   0  0  2  0  0  0  0  0  0  0  0  0
    7.5342  -14.7446   24.2047 N   0  0  0  0  0  0  0  0  0  0  0  0
    8.3241  -15.0905   26.5054 C   0  0  0  0  0  0  0  0  0  0  0  0
    9.0637  -14.7330   27.4766 O   0  0  0  0  0  0  0  0  0  0  0  0
    7.9520  -16.4312   26.4843 O   0  0  0  0  0  0  0  0  0  0  0  0
  2  1  1  6
  3  2  1  0
  3  4  1  0
  4  5  2  0
  6  7  2  0
  6  2  1  0
  8  4  1  0
  9 10  1  0
 10 12  1  0
 11 10  2  0
 13 12  1  1
 13 15  1  0
 13 14  1  0
 14  6  1  0
 15 16  2  0
 18 17  1  0
 19 21  1  0
 19 18  1  0
 19 20  1  1
 21 23  1  0
 22 15  1  0
 21 22  1  6
 23 25  1  0
 24 23  2  0
M  END
$$$$
