DNI.pdb
     RDKit          3D

 25 24  0  0  1  0  0  0  0  0999 V2000
    8.1430  -19.0378   18.9322 N   0  0  0  0  0  0  0  0  0  0  0  0
    8.7915  -17.9548   19.6312 C   0  0  1  0  0  0  0  0  0  0  0  0
    9.0388  -16.7732   18.7474 C   0  0  0  0  0  0  0  0  0  0  0  0
   10.1926  -16.9535   17.8668 C   0  0  0  0  0  0  0  0  0  0  0  0
   10.1255  -16.6607   16.6518 O   0  0  0  0  0  0  0  0  0  0  0  0
    7.8970  -17.5298   20.7501 C   0  0  0  0  0  0  0  0  0  0  0  0
    6.6914  -17.2929   20.5748 O   0  0  0  0  0  0  0  0  0  0  0  0
   11.3751  -17.4555   18.3595 O   0  0  0  0  0  0  0  0  0  0  0  0
    6.6301  -18.8207   26.2682 N   0  0  0  0  0  0  0  0  0  0  0  0
    6.3281  -18.1185   25.0815 C   0  0  0  0  0  0  0  0  0  0  0  0
    5.3996  -17.2838   25.1096 O   0  0  0  0  0  0  0  0  0  0  0  0
    7.0977  -18.3820   23.8717 C   0  0  0  0  0  0  0  0  0  0  0  0
    7.6849  -17.1793   23.2289 C   0  0  2  0  0  0  0  0  0  0  0  0
    8.4618  -17.3944   22.0531 N   0  0  0  0  0  0  0  0  0  0  0  0
    8.3631  -16.2656   24.1997 C   0  0  0  0  0  0  0  0  0  0  0  0
    9.5390  -16.5543   24.5144 O   0  0  0  0  0  0  0  0  0  0  0  0
    5.7340  -11.9659   27.0927 C   0  0  0  0  0  0  0  0  0  0  0  0
    6.4256  -13.2595   26.7471 C   0  0  0  0  0  0  0  0  0  0  0  0
    7.6566  -12.9574   25.9067 C   0  0  2  0  0  0  0  0  0  0  0  0
    7.1436  -12.4707   24.5652 C   0  0  0  0  0  0  0  0  0  0  0  0
    8.4615  -14.2095   25.6463 C   0  0  2  0  0  0  0  0  0  0  0  0
    7.7728  -15.1214   24.7693 N   0  0  0  0  0  0  0  0  0  0  0  0
    8.9775  -14.8281   26.8906 C   0  0  0  0  0  0  0  0  0  0  0  0
    8.7340  -16.0405   27.1887 O   0  0  0  0  0  0  0  0  0  0  0  0
    9.7546  -14.1205   27.8026 O   0  0  0  0  0  0  0  0  0  0  0  0
  2  1  1  6
  3  2  1  0
  3  4  1  0
  4  5  2  0
  6  7  2  0
  6  2  1  0
  8  4  1  0
  9 10  1  0
 10 12  1  0
 11 10  2  0
 13 12  1  1
 13 15  1  0
 13 14  1  0
 14  6  1  0
 15 16  2  0
 18 17  1  0
 19 21  1  0
 19 18  1  0
 19 20  1  6
 21 23  1  0
 22 15  1  0
 21 22  1  1
 23 25  1  0
 24 23  2  0
M  END
$$$$
