DNI.pdb
     RDKit          3D

 25 24  0  0  1  0  0  0  0  0999 V2000
    9.8099  -15.6575   18.4363 N   0  0  0  0  0  0  0  0  0  0  0  0
    8.9496  -14.5868   18.8782 C   0  0  1  0  0  0  0  0  0  0  0  0
    7.8313  -14.3220   17.9201 C   0  0  0  0  0  0  0  0  0  0  0  0
    8.2891  -14.1743   16.5388 C   0  0  0  0  0  0  0  0  0  0  0  0
    8.9722  -15.0674   15.9893 O   0  0  0  0  0  0  0  0  0  0  0  0
    8.3617  -14.9833   20.1934 C   0  0  0  0  0  0  0  0  0  0  0  0
    7.2326  -14.6103   20.5486 O   0  0  0  0  0  0  0  0  0  0  0  0
    7.9801  -13.0436   15.8182 O   0  0  0  0  0  0  0  0  0  0  0  0
   11.0908  -18.5450   21.5517 N   0  0  0  0  0  0  0  0  0  0  0  0
   10.3984  -18.0554   22.6801 C   0  0  0  0  0  0  0  0  0  0  0  0
   11.0391  -17.8876   23.7388 O   0  0  0  0  0  0  0  0  0  0  0  0
    8.9738  -17.7621   22.5811 C   0  0  0  0  0  0  0  0  0  0  0  0
    8.6454  -16.3446   22.2860 C   0  0  2  0  0  0  0  0  0  0  0  0
    9.1358  -15.8144   21.0569 N   0  0  0  0  0  0  0  0  0  0  0  0
    8.8986  -15.4293   23.4417 C   0  0  0  0  0  0  0  0  0  0  0  0
   10.0636  -14.9901   23.5646 O   0  0  0  0  0  0  0  0  0  0  0  0
    6.4152  -11.0092   26.7485 C   0  0  0  0  0  0  0  0  0  0  0  0
    7.4887  -12.0648   26.6818 C   0  0  0  0  0  0  0  0  0  0  0  0
    7.1166  -13.0877   25.6198 C   0  0  2  0  0  0  0  0  0  0  0  0
    5.8611  -13.7769   26.1181 C   0  0  0  0  0  0  0  0  0  0  0  0
    8.1829  -14.1501   25.4864 C   0  0  2  0  0  0  0  0  0  0  0  0
    7.9260  -15.0372   24.3809 N   0  0  0  0  0  0  0  0  0  0  0  0
    8.4713  -14.8365   26.7682 C   0  0  0  0  0  0  0  0  0  0  0  0
    8.9184  -14.2089   27.7803 O   0  0  0  0  0  0  0  0  0  0  0  0
    8.2716  -16.2031   26.9381 O   0  0  0  0  0  0  0  0  0  0  0  0
  2  1  1  6
  3  2  1  0
  3  4  1  0
  4  5  2  0
  6  7  2  0
  6  2  1  0
  8  4  1  0
  9 10  1  0
 10 12  1  0
 11 10  2  0
 13 12  1  1
 13 15  1  0
 13 14  1  0
 14  6  1  0
 15 16  2  0
 18 17  1  0
 19 21  1  0
 19 18  1  0
 19 20  1  1
 21 23  1  0
 22 15  1  0
 21 22  1  6
 23 25  1  0
 24 23  2  0
M  END
$$$$
