MAS.pdb
     RDKit          3D

 20 19  0  0  1  0  0  0  0  0999 V2000
    6.9408  -12.2758   27.8896 C   0  0  0  0  0  0  0  0  0  0  0  0
    6.6508  -12.6173   26.1455 S   0  0  0  0  0  0  0  0  0  0  0  0
    6.9113  -14.3491   25.7677 C   0  0  0  0  0  0  0  0  0  0  0  0
    6.8295  -14.5404   24.2507 C   0  0  0  0  0  0  0  0  0  0  0  0
    7.0150  -15.9985   23.8890 C   0  0  2  0  0  0  0  0  0  0  0  0
    6.1481  -16.7758   24.7542 N   0  0  0  0  0  0  0  0  0  0  0  0
    8.3908  -16.4693   24.0345 C   0  0  0  0  0  0  0  0  0  0  0  0
    8.6945  -17.3391   24.8964 O   0  0  0  0  0  0  0  0  0  0  0  0
   11.6485  -15.7369   22.3137 C   0  0  0  0  0  0  0  0  0  0  0  0
   10.8264  -16.5219   23.3496 C   0  0  2  0  0  0  0  0  0  0  0  0
    9.4811  -15.9956   23.2310 N   0  0  0  0  0  0  0  0  0  0  0  0
   11.3826  -16.3427   24.7025 C   0  0  0  0  0  0  0  0  0  0  0  0
   12.5161  -16.8243   24.9592 O   0  0  0  0  0  0  0  0  0  0  0  0
   10.8282  -14.2258   29.0735 O   0  0  0  0  0  0  0  0  0  0  0  0
   10.3888  -14.4685   27.7815 C   0  0  0  0  0  0  0  0  0  0  0  0
   11.3203  -15.4514   27.0597 C   0  0  2  0  0  0  0  0  0  0  0  0
   10.7253  -15.6601   25.7449 N   0  0  0  0  0  0  0  0  0  0  0  0
   11.3190  -16.7078   27.8527 C   0  0  0  0  0  0  0  0  0  0  0  0
   12.2833  -16.8593   28.8244 O   0  0  0  0  0  0  0  0  0  0  0  0
   10.4949  -17.6194   27.6804 O   0  0  0  0  0  0  0  0  0  0  0  0
  2  1  1  0
  3  4  1  0
  3  2  1  0
  5  6  1  1
  5  4  1  0
  7  5  1  0
  7  8  2  0
 10  9  1  6
 10 11  1  0
 10 12  1  0
 11  7  1  0
 12 17  1  0
 13 12  2  0
 14 15  1  0
 16 15  1  1
 16 18  1  0
 17 16  1  0
 18 20  2  0
 18 19  1  0
M  END
$$$$
