MAS.pdb
     RDKit          3D

 20 19  0  0  1  0  0  0  0  0999 V2000
    7.4811  -11.5321   26.4211 C   0  0  0  0  0  0  0  0  0  0  0  0
    7.0973  -12.7496   27.6912 S   0  0  0  0  0  0  0  0  0  0  0  0
    6.4015  -14.2388   26.9786 C   0  0  0  0  0  0  0  0  0  0  0  0
    7.2457  -14.6470   25.7681 C   0  0  0  0  0  0  0  0  0  0  0  0
    6.5507  -15.7363   24.9796 C   0  0  2  0  0  0  0  0  0  0  0  0
    6.5641  -16.9381   25.7917 N   0  0  0  0  0  0  0  0  0  0  0  0
    7.1766  -16.0179   23.6894 C   0  0  0  0  0  0  0  0  0  0  0  0
    7.7436  -17.1229   23.4672 O   0  0  0  0  0  0  0  0  0  0  0  0
    7.4980  -14.1815   20.4305 C   0  0  0  0  0  0  0  0  0  0  0  0
    7.8276  -15.3870   21.3268 C   0  0  2  0  0  0  0  0  0  0  0  0
    7.1974  -15.0876   22.5972 N   0  0  0  0  0  0  0  0  0  0  0  0
    9.2855  -15.5632   21.4504 C   0  0  0  0  0  0  0  0  0  0  0  0
    9.9587  -15.7823   20.4103 O   0  0  0  0  0  0  0  0  0  0  0  0
   11.0631  -16.0500   25.1146 O   0  0  0  0  0  0  0  0  0  0  0  0
   11.8012  -15.3080   24.2058 C   0  0  0  0  0  0  0  0  0  0  0  0
   11.4339  -15.6823   22.7636 C   0  0  2  0  0  0  0  0  0  0  0  0
    9.9899  -15.5028   22.6688 N   0  0  0  0  0  0  0  0  0  0  0  0
   11.8086  -17.1083   22.5798 C   0  0  0  0  0  0  0  0  0  0  0  0
   10.7945  -18.0351   22.4823 O   0  0  0  0  0  0  0  0  0  0  0  0
   12.9845  -17.4986   22.5108 O   0  0  0  0  0  0  0  0  0  0  0  0
  2  1  1  0
  3  4  1  0
  3  2  1  0
  5  6  1  1
  5  4  1  0
  7  5  1  0
  7  8  2  0
 10  9  1  6
 10 11  1  0
 10 12  1  0
 11  7  1  0
 12 17  1  0
 13 12  2  0
 14 15  1  0
 16 15  1  1
 16 18  1  0
 17 16  1  0
 18 20  2  0
 18 19  1  0
M  END
$$$$
