MAS.pdb
     RDKit          3D

 20 19  0  0  1  0  0  0  0  0999 V2000
    8.1163  -12.9289   27.6641 C   0  0  0  0  0  0  0  0  0  0  0  0
    6.7154  -11.9783   27.0504 S   0  0  0  0  0  0  0  0  0  0  0  0
    6.5635  -12.1150   25.2706 C   0  0  0  0  0  0  0  0  0  0  0  0
    6.1691  -13.5521   24.9185 C   0  0  0  0  0  0  0  0  0  0  0  0
    7.3874  -14.4504   24.9131 C   0  0  2  0  0  0  0  0  0  0  0  0
    8.4062  -13.7982   24.1125 N   0  0  0  0  0  0  0  0  0  0  0  0
    7.1310  -15.7848   24.3752 C   0  0  0  0  0  0  0  0  0  0  0  0
    6.2768  -16.5478   24.9043 O   0  0  0  0  0  0  0  0  0  0  0  0
    7.6088  -17.6177   21.2590 C   0  0  0  0  0  0  0  0  0  0  0  0
    7.6380  -17.6949   22.7948 C   0  0  2  0  0  0  0  0  0  0  0  0
    7.8096  -16.3236   23.2316 N   0  0  0  0  0  0  0  0  0  0  0  0
    8.7304  -18.5716   23.2531 C   0  0  0  0  0  0  0  0  0  0  0  0
    8.7074  -19.7868   22.9285 O   0  0  0  0  0  0  0  0  0  0  0  0
   12.3085  -17.1420   24.2999 O   0  0  0  0  0  0  0  0  0  0  0  0
   12.1725  -18.4881   23.9989 C   0  0  0  0  0  0  0  0  0  0  0  0
   10.8470  -19.0409   24.5393 C   0  0  2  0  0  0  0  0  0  0  0  0
    9.8152  -18.1391   24.0410 N   0  0  0  0  0  0  0  0  0  0  0  0
   10.9312  -18.9898   26.0218 C   0  0  0  0  0  0  0  0  0  0  0  0
   11.8771  -19.7755   26.6424 O   0  0  0  0  0  0  0  0  0  0  0  0
   10.1938  -18.2769   26.7203 O   0  0  0  0  0  0  0  0  0  0  0  0
  2  1  1  0
  3  4  1  0
  3  2  1  0
  5  6  1  6
  5  4  1  0
  7  5  1  0
  7  8  2  0
 10  9  1  6
 10 11  1  0
 10 12  1  0
 11  7  1  0
 12 17  1  0
 13 12  2  0
 14 15  1  0
 16 15  1  6
 16 18  1  0
 17 16  1  0
 18 20  2  0
 18 19  1  0
M  END
$$$$
