MAS.pdb
     RDKit          3D

 20 19  0  0  1  0  0  0  0  0999 V2000
    7.2845  -11.3707   27.7055 C   0  0  0  0  0  0  0  0  0  0  0  0
    5.8512  -11.7228   26.6738 S   0  0  0  0  0  0  0  0  0  0  0  0
    6.3210  -12.5908   25.1786 C   0  0  0  0  0  0  0  0  0  0  0  0
    6.7932  -13.9983   25.5533 C   0  0  0  0  0  0  0  0  0  0  0  0
    7.8479  -14.4806   24.5805 C   0  0  2  0  0  0  0  0  0  0  0  0
    7.2712  -14.4269   23.2506 N   0  0  0  0  0  0  0  0  0  0  0  0
    8.3179  -15.8380   24.8490 C   0  0  0  0  0  0  0  0  0  0  0  0
    8.9114  -16.1214   25.9256 O   0  0  0  0  0  0  0  0  0  0  0  0
    7.8079  -19.2139   23.4036 C   0  0  0  0  0  0  0  0  0  0  0  0
    8.7204  -18.2426   24.1712 C   0  0  2  0  0  0  0  0  0  0  0  0
    8.1477  -16.9320   23.9364 N   0  0  0  0  0  0  0  0  0  0  0  0
   10.1105  -18.3424   23.6919 C   0  0  0  0  0  0  0  0  0  0  0  0
   10.7585  -19.3941   23.9305 O   0  0  0  0  0  0  0  0  0  0  0  0
   11.7243  -15.3741   21.3591 O   0  0  0  0  0  0  0  0  0  0  0  0
   12.1708  -16.6707   21.1578 C   0  0  0  0  0  0  0  0  0  0  0  0
   12.1339  -17.4738   22.4649 C   0  0  2  0  0  0  0  0  0  0  0  0
   10.7755  -17.3286   22.9747 N   0  0  0  0  0  0  0  0  0  0  0  0
   13.1195  -16.8474   23.3835 C   0  0  0  0  0  0  0  0  0  0  0  0
   14.4565  -16.9658   23.0744 O   0  0  0  0  0  0  0  0  0  0  0  0
   12.7950  -16.2275   24.4083 O   0  0  0  0  0  0  0  0  0  0  0  0
  2  1  1  0
  3  4  1  0
  3  2  1  0
  5  6  1  6
  5  4  1  0
  7  5  1  0
  7  8  2  0
 10  9  1  6
 10 11  1  0
 10 12  1  0
 11  7  1  0
 12 17  1  0
 13 12  2  0
 14 15  1  0
 16 15  1  6
 16 18  1  0
 17 16  1  0
 18 20  2  0
 18 19  1  0
M  END
$$$$
