MAS.pdb
     RDKit          3D

 20 19  0  0  1  0  0  0  0  0999 V2000
    7.2440  -11.1268   26.5434 C   0  0  0  0  0  0  0  0  0  0  0  0
    8.1499  -12.4486   27.3648 S   0  0  0  0  0  0  0  0  0  0  0  0
    7.3938  -14.0442   27.0616 C   0  0  0  0  0  0  0  0  0  0  0  0
    7.6422  -14.4382   25.6030 C   0  0  0  0  0  0  0  0  0  0  0  0
    6.9025  -15.7149   25.2650 C   0  0  2  0  0  0  0  0  0  0  0  0
    7.3605  -16.7401   26.1833 N   0  0  0  0  0  0  0  0  0  0  0  0
    7.1109  -16.1684   23.8915 C   0  0  0  0  0  0  0  0  0  0  0  0
    7.3940  -17.3715   23.6381 O   0  0  0  0  0  0  0  0  0  0  0  0
    6.8658  -14.5933   20.4951 C   0  0  0  0  0  0  0  0  0  0  0  0
    7.2850  -15.7646   21.3995 C   0  0  2  0  0  0  0  0  0  0  0  0
    7.0129  -15.3076   22.7478 N   0  0  0  0  0  0  0  0  0  0  0  0
    8.7056  -16.0997   21.1956 C   0  0  0  0  0  0  0  0  0  0  0  0
    9.0621  -16.5737   20.0861 O   0  0  0  0  0  0  0  0  0  0  0  0
   13.0698  -14.9745   21.1972 O   0  0  0  0  0  0  0  0  0  0  0  0
   11.7240  -14.8422   21.5018 C   0  0  0  0  0  0  0  0  0  0  0  0
   11.1194  -16.1902   21.9167 C   0  0  2  0  0  0  0  0  0  0  0  0
    9.7082  -15.9244   22.1696 N   0  0  0  0  0  0  0  0  0  0  0  0
   11.8156  -16.6103   23.1602 C   0  0  0  0  0  0  0  0  0  0  0  0
   13.1379  -16.9838   23.0654 O   0  0  0  0  0  0  0  0  0  0  0  0
   11.2638  -16.6396   24.2713 O   0  0  0  0  0  0  0  0  0  0  0  0
  2  1  1  0
  3  4  1  0
  3  2  1  0
  5  6  1  1
  5  4  1  0
  7  5  1  0
  7  8  2  0
 10  9  1  6
 10 11  1  0
 10 12  1  0
 11  7  1  0
 12 17  1  0
 13 12  2  0
 14 15  1  0
 16 15  1  1
 16 18  1  0
 17 16  1  0
 18 20  2  0
 18 19  1  0
M  END
$$$$
