ECW.pdb
     RDKit          3D

 30 31  0  0  1  0  0  0  0  0999 V2000
   25.8113  -20.0102  -17.4762 N   0  0  0  0  0  0  0  0  0  0  0  0
   24.9768  -20.1521  -16.3006 C   0  0  1  0  0  0  0  0  0  0  0  0
   23.6803  -20.7887  -16.7448 C   0  0  0  0  0  0  0  0  0  0  0  0
   23.0669  -19.9311  -17.8295 C   0  0  0  0  0  0  0  0  0  0  0  0
   22.8272  -18.5541  -17.3983 C   0  0  0  0  0  0  0  0  0  0  0  0
   22.0678  -18.3077  -16.4286 O   0  0  0  0  0  0  0  0  0  0  0  0
   25.6906  -20.9304  -15.2941 C   0  0  0  0  0  0  0  0  0  0  0  0
   25.4712  -22.1641  -15.1867 O   0  0  0  0  0  0  0  0  0  0  0  0
   23.4355  -17.4880  -18.0540 O   0  0  0  0  0  0  0  0  0  0  0  0
   26.6382  -20.2868  -14.4328 N   0  0  0  0  0  0  0  0  0  0  0  0
   27.3931  -21.0014  -13.4549 C   0  0  1  0  0  0  0  0  0  0  0  0
   28.8791  -20.7343  -13.6026 C   0  0  0  0  0  0  0  0  0  0  0  0
   29.1572  -19.0556  -14.2705 S   0  0  0  0  0  0  0  0  0  0  0  0
   26.9603  -20.6760  -12.0495 C   0  0  0  0  0  0  0  0  0  0  0  0
   26.7945  -19.4721  -11.7524 O   0  0  0  0  0  0  0  0  0  0  0  0
   26.7619  -21.7210  -11.1374 N   0  0  0  0  0  0  0  0  0  0  0  0
   26.3995  -21.5401   -9.7503 C   0  0  1  0  0  0  0  0  0  0  0  0
   27.4416  -20.7612   -9.0012 C   0  0  0  0  0  0  0  0  0  0  0  0
   27.0556  -20.4561   -7.6210 C   0  0  0  0  0  0  0  0  0  0  0  0
   25.7845  -20.4430   -7.1014 C   0  0  0  0  0  0  0  0  0  0  0  0
   25.8280  -20.1188   -5.8125 N   0  0  0  0  0  0  0  0  0  0  0  0
   27.1220  -19.9200   -5.4873 C   0  0  0  0  0  0  0  0  0  0  0  0
   27.7435  -19.5673   -4.2937 C   0  0  0  0  0  0  0  0  0  0  0  0
   29.1133  -19.4263   -4.2277 C   0  0  0  0  0  0  0  0  0  0  0  0
   29.8827  -19.6395   -5.3689 C   0  0  0  0  0  0  0  0  0  0  0  0
   29.2991  -19.9848   -6.5463 C   0  0  0  0  0  0  0  0  0  0  0  0
   27.9263  -20.1224   -6.5976 C   0  0  0  0  0  0  0  0  0  0  0  0
   25.0592  -20.9061   -9.6862 C   0  0  0  0  0  0  0  0  0  0  0  0
   24.7450  -20.0349  -10.5201 O   0  0  0  0  0  0  0  0  0  0  0  0
   24.1181  -21.2458   -8.7190 O   0  0  0  0  0  0  0  0  0  0  0  0
  2  1  1  6
  2  7  1  0
  3  2  1  0
  3  4  1  0
  4  5  1  0
  5  6  2  0
  5  9  1  0
  7  8  2  0
 10 11  1  0
 10  7  1  0
 11 14  1  0
 12 13  1  0
 11 12  1  1
 14 15  2  0
 16 17  1  0
 16 14  1  0
 17 28  1  0
 17 18  1  6
 19 27  1  0
 19 18  1  0
 20 19  2  0
 21 20  1  0
 21 22  1  0
 22 27  2  0
 23 22  1  0
 23 24  2  0
 24 25  1  0
 25 26  2  0
 27 26  1  0
 28 29  2  0
 28 30  1  0
M  END
$$$$
