ECW.pdb
     RDKit          3D

 30 31  0  0  1  0  0  0  0  0999 V2000
   28.2072  -21.2946  -14.9741 N   0  0  0  0  0  0  0  0  0  0  0  0
   28.5354  -20.0230  -14.3625 C   0  0  1  0  0  0  0  0  0  0  0  0
   28.8627  -19.0591  -15.4793 C   0  0  0  0  0  0  0  0  0  0  0  0
   27.6932  -19.0141  -16.4378 C   0  0  0  0  0  0  0  0  0  0  0  0
   27.4882  -17.6893  -17.0228 C   0  0  0  0  0  0  0  0  0  0  0  0
   28.4413  -17.0672  -17.5540 O   0  0  0  0  0  0  0  0  0  0  0  0
   27.4206  -19.5877  -13.5281 C   0  0  0  0  0  0  0  0  0  0  0  0
   26.6649  -18.6649  -13.9267 O   0  0  0  0  0  0  0  0  0  0  0  0
   26.2323  -17.0901  -17.0027 O   0  0  0  0  0  0  0  0  0  0  0  0
   27.1913  -20.2130  -12.2591 N   0  0  0  0  0  0  0  0  0  0  0  0
   25.9584  -20.0816  -11.5522 C   0  0  1  0  0  0  0  0  0  0  0  0
   24.7856  -20.5354  -12.4007 C   0  0  0  0  0  0  0  0  0  0  0  0
   24.9580  -22.3053  -12.8241 S   0  0  0  0  0  0  0  0  0  0  0  0
   25.9622  -20.8406  -10.2514 C   0  0  0  0  0  0  0  0  0  0  0  0
   26.6275  -21.8985  -10.1933 O   0  0  0  0  0  0  0  0  0  0  0  0
   25.2291  -20.3402   -9.1673 N   0  0  0  0  0  0  0  0  0  0  0  0
   25.0984  -21.0038   -7.8904 C   0  0  1  0  0  0  0  0  0  0  0  0
   25.3544  -20.0643   -6.7476 C   0  0  0  0  0  0  0  0  0  0  0  0
   26.7547  -19.6452   -6.6451 C   0  0  0  0  0  0  0  0  0  0  0  0
   27.4864  -18.9680   -7.5894 C   0  0  0  0  0  0  0  0  0  0  0  0
   28.7220  -18.7652   -7.1416 N   0  0  0  0  0  0  0  0  0  0  0  0
   28.8010  -19.3069   -5.9087 C   0  0  0  0  0  0  0  0  0  0  0  0
   29.8396  -19.3872   -4.9865 C   0  0  0  0  0  0  0  0  0  0  0  0
   29.6546  -20.0085   -3.7698 C   0  0  0  0  0  0  0  0  0  0  0  0
   28.4142  -20.5615   -3.4612 C   0  0  0  0  0  0  0  0  0  0  0  0
   27.3843  -20.4958   -4.3450 C   0  0  0  0  0  0  0  0  0  0  0  0
   27.5840  -19.8706   -5.5596 C   0  0  0  0  0  0  0  0  0  0  0  0
   23.7585  -21.6378   -7.8171 C   0  0  0  0  0  0  0  0  0  0  0  0
   22.9109  -21.3995   -8.6990 O   0  0  0  0  0  0  0  0  0  0  0  0
   23.3972  -22.5032   -6.7889 O   0  0  0  0  0  0  0  0  0  0  0  0
  2  1  1  6
  2  7  1  0
  3  2  1  0
  3  4  1  0
  4  5  1  0
  5  6  2  0
  5  9  1  0
  7  8  2  0
 10 11  1  0
 10  7  1  0
 11 14  1  0
 12 13  1  0
 11 12  1  6
 14 15  2  0
 16 17  1  0
 16 14  1  0
 17 28  1  0
 17 18  1  1
 19 27  1  0
 19 18  1  0
 20 19  2  0
 21 20  1  0
 21 22  1  0
 22 27  2  0
 23 22  1  0
 23 24  2  0
 24 25  1  0
 25 26  2  0
 27 26  1  0
 28 29  2  0
 28 30  1  0
M  END
$$$$
