ECW.pdb
     RDKit          3D

 30 31  0  0  1  0  0  0  0  0999 V2000
   28.4609  -22.4349  -18.0351 N   0  0  0  0  0  0  0  0  0  0  0  0
   27.4365  -21.7821  -17.2456 C   0  0  1  0  0  0  0  0  0  0  0  0
   26.2206  -22.6792  -17.2582 C   0  0  0  0  0  0  0  0  0  0  0  0
   25.1058  -21.9728  -17.9976 C   0  0  0  0  0  0  0  0  0  0  0  0
   23.9679  -21.6501  -17.1370 C   0  0  0  0  0  0  0  0  0  0  0  0
   23.6325  -20.4565  -16.9364 O   0  0  0  0  0  0  0  0  0  0  0  0
   27.9528  -21.5230  -15.9059 C   0  0  0  0  0  0  0  0  0  0  0  0
   28.9153  -22.2018  -15.4651 O   0  0  0  0  0  0  0  0  0  0  0  0
   23.2332  -22.6595  -16.5222 O   0  0  0  0  0  0  0  0  0  0  0  0
   27.3618  -20.4970  -15.0986 N   0  0  0  0  0  0  0  0  0  0  0  0
   27.7620  -20.2581  -13.7496 C   0  0  1  0  0  0  0  0  0  0  0  0
   28.0862  -18.7937  -13.5221 C   0  0  0  0  0  0  0  0  0  0  0  0
   26.6549  -17.7507  -13.9751 S   0  0  0  0  0  0  0  0  0  0  0  0
   26.7200  -20.7031  -12.7574 C   0  0  0  0  0  0  0  0  0  0  0  0
   25.5241  -20.7016  -13.1246 O   0  0  0  0  0  0  0  0  0  0  0  0
   27.1235  -21.0974  -11.4748 N   0  0  0  0  0  0  0  0  0  0  0  0
   26.2197  -21.4369  -10.3997 C   0  0  1  0  0  0  0  0  0  0  0  0
   26.9606  -21.8056   -9.1471 C   0  0  0  0  0  0  0  0  0  0  0  0
   27.0597  -20.7031   -8.1871 C   0  0  0  0  0  0  0  0  0  0  0  0
   26.3582  -19.5227   -8.2082 C   0  0  0  0  0  0  0  0  0  0  0  0
   26.7181  -18.7664   -7.1753 N   0  0  0  0  0  0  0  0  0  0  0  0
   27.6516  -19.4474   -6.4791 C   0  0  0  0  0  0  0  0  0  0  0  0
   28.3660  -19.1422   -5.3251 C   0  0  0  0  0  0  0  0  0  0  0  0
   29.2825  -20.0328   -4.8079 C   0  0  0  0  0  0  0  0  0  0  0  0
   29.4946  -21.2513   -5.4482 C   0  0  0  0  0  0  0  0  0  0  0  0
   28.8091  -21.5725   -6.5765 C   0  0  0  0  0  0  0  0  0  0  0  0
   27.8946  -20.6708   -7.0831 C   0  0  0  0  0  0  0  0  0  0  0  0
   25.2785  -20.3081  -10.1933 C   0  0  0  0  0  0  0  0  0  0  0  0
   25.6285  -19.1481  -10.4847 O   0  0  0  0  0  0  0  0  0  0  0  0
   23.9980  -20.4882   -9.6790 O   0  0  0  0  0  0  0  0  0  0  0  0
  2  1  1  6
  2  7  1  0
  3  2  1  0
  3  4  1  0
  4  5  1  0
  5  6  2  0
  5  9  1  0
  7  8  2  0
 10 11  1  0
 10  7  1  0
 11 14  1  0
 12 13  1  0
 11 12  1  6
 14 15  2  0
 16 17  1  0
 16 14  1  0
 17 28  1  0
 17 18  1  1
 19 27  1  0
 19 18  1  0
 20 19  2  0
 21 20  1  0
 21 22  1  0
 22 27  2  0
 23 22  1  0
 23 24  2  0
 24 25  1  0
 25 26  2  0
 27 26  1  0
 28 29  2  0
 28 30  1  0
M  END
$$$$
