ECW.pdb
     RDKit          3D

 30 31  0  0  1  0  0  0  0  0999 V2000
   17.3776  -12.2398  -15.7516 N   0  0  0  0  0  0  0  0  0  0  0  0
   17.0571  -10.8339  -15.6121 C   0  0  1  0  0  0  0  0  0  0  0  0
   15.5558  -10.7028  -15.7222 C   0  0  0  0  0  0  0  0  0  0  0  0
   14.9127  -11.7403  -14.8287 C   0  0  0  0  0  0  0  0  0  0  0  0
   13.8753  -11.1805  -13.9626 C   0  0  0  0  0  0  0  0  0  0  0  0
   13.2463  -11.9121  -13.1584 O   0  0  0  0  0  0  0  0  0  0  0  0
   17.5915  -10.3411  -14.3471 C   0  0  0  0  0  0  0  0  0  0  0  0
   17.9389  -11.1570  -13.4553 O   0  0  0  0  0  0  0  0  0  0  0  0
   13.5634   -9.8252  -14.0120 O   0  0  0  0  0  0  0  0  0  0  0  0
   17.7185   -8.9308  -14.1261 N   0  0  0  0  0  0  0  0  0  0  0  0
   18.2842   -8.3905  -12.9324 C   0  0  1  0  0  0  0  0  0  0  0  0
   19.5821   -7.6595  -13.2195 C   0  0  0  0  0  0  0  0  0  0  0  0
   20.1394   -6.7520  -11.7337 S   0  0  0  0  0  0  0  0  0  0  0  0
   17.3336   -7.4668  -12.2173 C   0  0  0  0  0  0  0  0  0  0  0  0
   16.8477   -6.5123  -12.8638 O   0  0  0  0  0  0  0  0  0  0  0  0
   17.0323   -7.7073  -10.8701 N   0  0  0  0  0  0  0  0  0  0  0  0
   16.0813   -6.9445  -10.0944 C   0  0  1  0  0  0  0  0  0  0  0  0
   15.1836   -7.8350   -9.2851 C   0  0  0  0  0  0  0  0  0  0  0  0
   14.1930   -7.0967   -8.4973 C   0  0  0  0  0  0  0  0  0  0  0  0
   14.1990   -5.7538   -8.2101 C   0  0  0  0  0  0  0  0  0  0  0  0
   13.1387   -5.4470   -7.4686 N   0  0  0  0  0  0  0  0  0  0  0  0
   12.4396   -6.5835   -7.2698 C   0  0  0  0  0  0  0  0  0  0  0  0
   11.2620   -6.8491   -6.5784 C   0  0  0  0  0  0  0  0  0  0  0  0
   10.7477   -8.1272   -6.5283 C   0  0  0  0  0  0  0  0  0  0  0  0
   11.4148   -9.1632   -7.1775 C   0  0  0  0  0  0  0  0  0  0  0  0
   12.5664   -8.9291   -7.8594 C   0  0  0  0  0  0  0  0  0  0  0  0
   13.0698   -7.6442   -7.9010 C   0  0  0  0  0  0  0  0  0  0  0  0
   16.8224   -5.9696   -9.2560 C   0  0  0  0  0  0  0  0  0  0  0  0
   17.8575   -6.3251   -8.6602 O   0  0  0  0  0  0  0  0  0  0  0  0
   16.4068   -4.6505   -9.1009 O   0  0  0  0  0  0  0  0  0  0  0  0
  2  1  1  1
  2  7  1  0
  3  2  1  0
  3  4  1  0
  4  5  1  0
  5  6  2  0
  5  9  1  0
  7  8  2  0
 10 11  1  0
 10  7  1  0
 11 14  1  0
 12 13  1  0
 11 12  1  6
 14 15  2  0
 16 17  1  0
 16 14  1  0
 17 28  1  0
 17 18  1  1
 19 27  1  0
 19 18  1  0
 20 19  2  0
 21 20  1  0
 21 22  1  0
 22 27  2  0
 23 22  1  0
 23 24  2  0
 24 25  1  0
 25 26  2  0
 27 26  1  0
 28 29  2  0
 28 30  1  0
M  END
$$$$
