ECW.pdb
     RDKit          3D

 30 31  0  0  1  0  0  0  0  0999 V2000
   28.7571  -19.0042  -19.0445 N   0  0  0  0  0  0  0  0  0  0  0  0
   28.5524  -19.1326  -17.6161 C   0  0  1  0  0  0  0  0  0  0  0  0
   28.3399  -17.7411  -17.0664 C   0  0  0  0  0  0  0  0  0  0  0  0
   29.6293  -16.9628  -17.2079 C   0  0  0  0  0  0  0  0  0  0  0  0
   29.5661  -15.9432  -18.2547 C   0  0  0  0  0  0  0  0  0  0  0  0
   30.3650  -15.9670  -19.2236 O   0  0  0  0  0  0  0  0  0  0  0  0
   27.4304  -20.0318  -17.3690 C   0  0  0  0  0  0  0  0  0  0  0  0
   26.2819  -19.7254  -17.7794 O   0  0  0  0  0  0  0  0  0  0  0  0
   28.6193  -14.9249  -18.1987 O   0  0  0  0  0  0  0  0  0  0  0  0
   27.6415  -21.2596  -16.6605 N   0  0  0  0  0  0  0  0  0  0  0  0
   26.5640  -22.0914  -16.2317 C   0  0  1  0  0  0  0  0  0  0  0  0
   26.8357  -23.5506  -16.5454 C   0  0  0  0  0  0  0  0  0  0  0  0
   28.1389  -23.6921  -17.8194 S   0  0  0  0  0  0  0  0  0  0  0  0
   26.2740  -21.9379  -14.7618 C   0  0  0  0  0  0  0  0  0  0  0  0
   27.2245  -22.0768  -13.9603 O   0  0  0  0  0  0  0  0  0  0  0  0
   24.9659  -21.6491  -14.3509 N   0  0  0  0  0  0  0  0  0  0  0  0
   24.5866  -21.3199  -12.9960 C   0  0  1  0  0  0  0  0  0  0  0  0
   25.3776  -20.1600  -12.4642 C   0  0  0  0  0  0  0  0  0  0  0  0
   26.0068  -20.4331  -11.1694 C   0  0  0  0  0  0  0  0  0  0  0  0
   25.3854  -20.5060   -9.9470 C   0  0  0  0  0  0  0  0  0  0  0  0
   26.2819  -20.7694   -9.0009 N   0  0  0  0  0  0  0  0  0  0  0  0
   27.4866  -20.8692   -9.5996 C   0  0  0  0  0  0  0  0  0  0  0  0
   28.7600  -21.1288   -9.1029 C   0  0  0  0  0  0  0  0  0  0  0  0
   29.8487  -21.1780   -9.9472 C   0  0  0  0  0  0  0  0  0  0  0  0
   29.6711  -20.9656  -11.3121 C   0  0  0  0  0  0  0  0  0  0  0  0
   28.4375  -20.7104  -11.8213 C   0  0  0  0  0  0  0  0  0  0  0  0
   27.3564  -20.6641  -10.9640 C   0  0  0  0  0  0  0  0  0  0  0  0
   23.1230  -21.0771  -12.9560 C   0  0  0  0  0  0  0  0  0  0  0  0
   22.5009  -20.8638  -14.0145 O   0  0  0  0  0  0  0  0  0  0  0  0
   22.3985  -21.0765  -11.7679 O   0  0  0  0  0  0  0  0  0  0  0  0
  2  1  1  6
  2  7  1  0
  3  2  1  0
  3  4  1  0
  4  5  1  0
  5  6  2  0
  5  9  1  0
  7  8  2  0
 10 11  1  0
 10  7  1  0
 11 14  1  0
 12 13  1  0
 11 12  1  1
 14 15  2  0
 16 17  1  0
 16 14  1  0
 17 28  1  0
 17 18  1  6
 19 27  1  0
 19 18  1  0
 20 19  2  0
 21 20  1  0
 21 22  1  0
 22 27  2  0
 23 22  1  0
 23 24  2  0
 24 25  1  0
 25 26  2  0
 27 26  1  0
 28 29  2  0
 28 30  1  0
M  END
$$$$
