ECW.pdb
     RDKit          3D

 30 31  0  0  1  0  0  0  0  0999 V2000
   25.6568  -22.4662  -11.8038 N   0  0  0  0  0  0  0  0  0  0  0  0
   25.1023  -22.1486  -13.1040 C   0  0  1  0  0  0  0  0  0  0  0  0
   23.6417  -22.5351  -13.0754 C   0  0  0  0  0  0  0  0  0  0  0  0
   22.8759  -21.4766  -12.3130 C   0  0  0  0  0  0  0  0  0  0  0  0
   21.4425  -21.7574  -12.2347 C   0  0  0  0  0  0  0  0  0  0  0  0
   20.6661  -20.9728  -11.6355 O   0  0  0  0  0  0  0  0  0  0  0  0
   25.3230  -20.7350  -13.3896 C   0  0  0  0  0  0  0  0  0  0  0  0
   25.7359  -19.9707  -12.4802 O   0  0  0  0  0  0  0  0  0  0  0  0
   20.9092  -22.9006  -12.8224 O   0  0  0  0  0  0  0  0  0  0  0  0
   25.0690  -20.2236  -14.7041 N   0  0  0  0  0  0  0  0  0  0  0  0
   25.4594  -18.9102  -15.1036 C   0  0  1  0  0  0  0  0  0  0  0  0
   26.9659  -18.8027  -15.2465 C   0  0  0  0  0  0  0  0  0  0  0  0
   27.6830  -20.4382  -15.6373 S   0  0  0  0  0  0  0  0  0  0  0  0
   24.8001  -18.4846  -16.3890 C   0  0  0  0  0  0  0  0  0  0  0  0
   24.7433  -19.3172  -17.3211 O   0  0  0  0  0  0  0  0  0  0  0  0
   24.2810  -17.1872  -16.4927 N   0  0  0  0  0  0  0  0  0  0  0  0
   23.5024  -16.7030  -17.6094 C   0  0  1  0  0  0  0  0  0  0  0  0
   23.0826  -15.2746  -17.4158 C   0  0  0  0  0  0  0  0  0  0  0  0
   24.1892  -14.3231  -17.5468 C   0  0  0  0  0  0  0  0  0  0  0  0
   24.4091  -13.4479  -18.5820 C   0  0  0  0  0  0  0  0  0  0  0  0
   25.5149  -12.7463  -18.3515 N   0  0  0  0  0  0  0  0  0  0  0  0
   26.0188  -13.1591  -17.1702 C   0  0  0  0  0  0  0  0  0  0  0  0
   27.1444  -12.7761  -16.4478 C   0  0  0  0  0  0  0  0  0  0  0  0
   27.4405  -13.3687  -15.2387 C   0  0  0  0  0  0  0  0  0  0  0  0
   26.6029  -14.3613  -14.7356 C   0  0  0  0  0  0  0  0  0  0  0  0
   25.4977  -14.7524  -15.4223 C   0  0  0  0  0  0  0  0  0  0  0  0
   25.2137  -14.1503  -16.6318 C   0  0  0  0  0  0  0  0  0  0  0  0
   24.2812  -16.9036  -18.8567 C   0  0  0  0  0  0  0  0  0  0  0  0
   25.4992  -17.1590  -18.7926 O   0  0  0  0  0  0  0  0  0  0  0  0
   23.7032  -16.8180  -20.1197 O   0  0  0  0  0  0  0  0  0  0  0  0
  2  1  1  1
  2  7  1  0
  3  2  1  0
  3  4  1  0
  4  5  1  0
  5  6  2  0
  5  9  1  0
  7  8  2  0
 10 11  1  0
 10  7  1  0
 11 14  1  0
 12 13  1  0
 11 12  1  6
 14 15  2  0
 16 17  1  0
 16 14  1  0
 17 28  1  0
 17 18  1  1
 19 27  1  0
 19 18  1  0
 20 19  2  0
 21 20  1  0
 21 22  1  0
 22 27  2  0
 23 22  1  0
 23 24  2  0
 24 25  1  0
 25 26  2  0
 27 26  1  0
 28 29  2  0
 28 30  1  0
M  END
$$$$
