ECW.pdb
     RDKit          3D

 30 31  0  0  1  0  0  0  0  0999 V2000
   23.1469  -14.0766  -18.1204 N   0  0  0  0  0  0  0  0  0  0  0  0
   24.5221  -13.6650  -17.9255 C   0  0  1  0  0  0  0  0  0  0  0  0
   25.1354  -13.4867  -19.2950 C   0  0  0  0  0  0  0  0  0  0  0  0
   24.0971  -13.8332  -20.3391 C   0  0  0  0  0  0  0  0  0  0  0  0
   24.6347  -13.8276  -21.6994 C   0  0  0  0  0  0  0  0  0  0  0  0
   24.9018  -14.9040  -22.2889 O   0  0  0  0  0  0  0  0  0  0  0  0
   24.5519  -12.4530  -17.1139 C   0  0  0  0  0  0  0  0  0  0  0  0
   23.4855  -11.8260  -16.8879 O   0  0  0  0  0  0  0  0  0  0  0  0
   24.8616  -12.6288  -22.3689 O   0  0  0  0  0  0  0  0  0  0  0  0
   25.7950  -11.9826  -16.5779 N   0  0  0  0  0  0  0  0  0  0  0  0
   25.9174  -10.7216  -15.9208 C   0  0  1  0  0  0  0  0  0  0  0  0
   27.3263  -10.5051  -15.4018 C   0  0  0  0  0  0  0  0  0  0  0  0
   28.0889  -12.1051  -14.9545 S   0  0  0  0  0  0  0  0  0  0  0  0
   25.5272   -9.5725  -16.8128 C   0  0  0  0  0  0  0  0  0  0  0  0
   25.9836   -9.5549  -17.9775 O   0  0  0  0  0  0  0  0  0  0  0  0
   24.6779   -8.5772  -16.3113 N   0  0  0  0  0  0  0  0  0  0  0  0
   24.0295   -7.5700  -17.1192 C   0  0  1  0  0  0  0  0  0  0  0  0
   23.3049   -8.1760  -18.2862 C   0  0  0  0  0  0  0  0  0  0  0  0
   22.6658   -7.1808  -19.1512 C   0  0  0  0  0  0  0  0  0  0  0  0
   23.2903   -6.2975  -19.9972 C   0  0  0  0  0  0  0  0  0  0  0  0
   22.3827   -5.5487  -20.6166 N   0  0  0  0  0  0  0  0  0  0  0  0
   21.1676   -5.9388  -20.1792 C   0  0  0  0  0  0  0  0  0  0  0  0
   19.8804   -5.5080  -20.4844 C   0  0  0  0  0  0  0  0  0  0  0  0
   18.7830   -6.0870  -19.8835 C   0  0  0  0  0  0  0  0  0  0  0  0
   18.9658   -7.1145  -18.9612 C   0  0  0  0  0  0  0  0  0  0  0  0
   20.2128   -7.5528  -18.6467 C   0  0  0  0  0  0  0  0  0  0  0  0
   21.3025   -6.9637  -19.2562 C   0  0  0  0  0  0  0  0  0  0  0  0
   23.1361   -6.7640  -16.2505 C   0  0  0  0  0  0  0  0  0  0  0  0
   22.5661   -7.2999  -15.2805 O   0  0  0  0  0  0  0  0  0  0  0  0
   22.9003   -5.4106  -16.4731 O   0  0  0  0  0  0  0  0  0  0  0  0
  2  1  1  6
  2  7  1  0
  3  2  1  0
  3  4  1  0
  4  5  1  0
  5  6  2  0
  5  9  1  0
  7  8  2  0
 10 11  1  0
 10  7  1  0
 11 14  1  0
 12 13  1  0
 11 12  1  6
 14 15  2  0
 16 17  1  0
 16 14  1  0
 17 28  1  0
 17 18  1  6
 19 27  1  0
 19 18  1  0
 20 19  2  0
 21 20  1  0
 21 22  1  0
 22 27  2  0
 23 22  1  0
 23 24  2  0
 24 25  1  0
 25 26  2  0
 27 26  1  0
 28 29  2  0
 28 30  1  0
M  END
$$$$
