HCD.pdb
     RDKit          3D

 25 25  0  0  1  0  0  0  0  0999 V2000
   10.8348  -14.9587   20.1193 N   0  0  0  0  0  0  0  0  0  0  0  0
    9.5844  -14.5443   20.6798 C   0  0  1  0  0  0  0  0  0  0  0  0
    8.4124  -15.2807   20.0996 C   0  0  0  0  0  0  0  0  0  0  0  0
    7.9160  -14.5429   18.9171 C   0  0  0  0  0  0  0  0  0  0  0  0
    8.4580  -13.3981   18.3918 C   0  0  0  0  0  0  0  0  0  0  0  0
    7.7207  -13.0214   17.3047 N   0  0  0  0  0  0  0  0  0  0  0  0
    6.7383  -13.9220   17.1626 C   0  0  0  0  0  0  0  0  0  0  0  0
    6.8639  -14.8480   18.1508 N   0  0  0  0  0  0  0  0  0  0  0  0
    9.6055  -14.7392   22.1754 C   0  0  0  0  0  0  0  0  0  0  0  0
   10.5068  -15.4243   22.6856 O   0  0  0  0  0  0  0  0  0  0  0  0
    8.6024  -14.1390   22.9560 N   0  0  0  0  0  0  0  0  0  0  0  0
    8.5463  -14.2946   24.3704 C   0  0  1  0  0  0  0  0  0  0  0  0
    7.5113  -13.4962   25.0776 C   0  0  0  0  0  0  0  0  0  0  0  0
    6.1673  -14.4625   25.7548 S   0  0  0  0  0  0  0  0  0  0  0  0
    8.4607  -15.7445   24.8087 C   0  0  0  0  0  0  0  0  0  0  0  0
    7.7563  -16.5940   24.2085 O   0  0  0  0  0  0  0  0  0  0  0  0
    9.1843  -16.2049   25.9299 N   0  0  0  0  0  0  0  0  0  0  0  0
    9.4112  -17.6581   26.0520 C   0  0  1  0  0  0  0  0  0  0  0  0
   10.3095  -18.1392   24.9623 C   0  0  0  0  0  0  0  0  0  0  0  0
   10.7167  -19.5378   25.0841 C   0  0  0  0  0  0  0  0  0  0  0  0
    9.8993  -20.4106   25.4447 O   0  0  0  0  0  0  0  0  0  0  0  0
   10.0885  -17.7861   27.3883 C   0  0  0  0  0  0  0  0  0  0  0  0
   10.5605  -18.8735   27.7920 O   0  0  0  0  0  0  0  0  0  0  0  0
   12.0069  -19.9883   24.8157 O   0  0  0  0  0  0  0  0  0  0  0  0
   10.2263  -16.6911   28.2520 O   0  0  0  0  0  0  0  0  0  0  0  0
  2  1  1  6
  3  2  1  0
  4  3  1  0
  5  4  2  0
  6  7  1  0
  6  5  1  0
  7  8  2  0
  8  4  1  0
  9 10  2  0
  9  2  1  0
 11  9  1  0
 12 11  1  0
 12 15  1  0
 12 13  1  6
 14 13  1  0
 15 17  1  0
 16 15  2  0
 17 18  1  0
 18 22  1  0
 18 19  1  6
 19 20  1  0
 20 21  2  0
 22 23  2  0
 22 25  1  0
 24 20  1  0
M  END
$$$$
