HCD.pdb
     RDKit          3D

 25 25  0  0  1  0  0  0  0  0999 V2000
    7.2064  -16.6325   20.4447 N   0  0  0  0  0  0  0  0  0  0  0  0
    8.5742  -16.3783   20.7821 C   0  0  1  0  0  0  0  0  0  0  0  0
    9.2998  -15.5960   19.7267 C   0  0  0  0  0  0  0  0  0  0  0  0
    8.5212  -14.3791   19.4070 C   0  0  0  0  0  0  0  0  0  0  0  0
    7.8089  -14.1535   18.2573 C   0  0  0  0  0  0  0  0  0  0  0  0
    7.2282  -12.9190   18.3351 N   0  0  0  0  0  0  0  0  0  0  0  0
    7.5782  -12.3918   19.5167 C   0  0  0  0  0  0  0  0  0  0  0  0
    8.3679  -13.2891   20.1656 N   0  0  0  0  0  0  0  0  0  0  0  0
    8.6474  -15.6355   22.0929 C   0  0  0  0  0  0  0  0  0  0  0  0
    8.4834  -14.4046   22.1030 O   0  0  0  0  0  0  0  0  0  0  0  0
    8.9000  -16.3566   23.2728 N   0  0  0  0  0  0  0  0  0  0  0  0
    8.9550  -15.7281   24.5494 C   0  0  1  0  0  0  0  0  0  0  0  0
    7.8170  -14.8353   24.8906 C   0  0  0  0  0  0  0  0  0  0  0  0
    7.9261  -14.0850   26.5104 S   0  0  0  0  0  0  0  0  0  0  0  0
    9.1970  -16.7042   25.6854 C   0  0  0  0  0  0  0  0  0  0  0  0
    8.2988  -17.4594   26.1336 O   0  0  0  0  0  0  0  0  0  0  0  0
   10.4663  -16.8042   26.2949 N   0  0  0  0  0  0  0  0  0  0  0  0
   10.6989  -17.9328   27.2170 C   0  0  1  0  0  0  0  0  0  0  0  0
   12.0645  -18.4987   27.0147 C   0  0  0  0  0  0  0  0  0  0  0  0
   12.3429  -18.9395   25.6490 C   0  0  0  0  0  0  0  0  0  0  0  0
   11.6189  -19.7928   25.0945 O   0  0  0  0  0  0  0  0  0  0  0  0
   10.5893  -17.2929   28.5733 C   0  0  0  0  0  0  0  0  0  0  0  0
   10.4709  -16.0544   28.7155 O   0  0  0  0  0  0  0  0  0  0  0  0
   13.4037  -18.4561   24.8872 O   0  0  0  0  0  0  0  0  0  0  0  0
   10.6143  -18.0532   29.7503 O   0  0  0  0  0  0  0  0  0  0  0  0
  2  1  1  6
  3  2  1  0
  4  3  1  0
  5  4  2  0
  6  7  1  0
  6  5  1  0
  7  8  2  0
  8  4  1  0
  9 10  2  0
  9  2  1  0
 11  9  1  0
 12 11  1  0
 12 15  1  0
 12 13  1  1
 14 13  1  0
 15 17  1  0
 16 15  2  0
 17 18  1  0
 18 22  1  0
 18 19  1  6
 19 20  1  0
 20 21  2  0
 22 23  2  0
 22 25  1  0
 24 20  1  0
M  END
$$$$
