HCD.pdb
     RDKit          3D

 25 25  0  0  1  0  0  0  0  0999 V2000
    9.9372  -18.5984   20.7467 N   0  0  0  0  0  0  0  0  0  0  0  0
   10.8137  -17.4843   20.5473 C   0  0  1  0  0  0  0  0  0  0  0  0
   10.5362  -16.7447   19.2712 C   0  0  0  0  0  0  0  0  0  0  0  0
   10.6866  -17.6757   18.1311 C   0  0  0  0  0  0  0  0  0  0  0  0
   11.8528  -18.2668   17.7180 C   0  0  0  0  0  0  0  0  0  0  0  0
   11.5855  -19.0573   16.6358 N   0  0  0  0  0  0  0  0  0  0  0  0
   10.2727  -18.9542   16.3861 C   0  0  0  0  0  0  0  0  0  0  0  0
    9.7304  -18.1088   17.3032 N   0  0  0  0  0  0  0  0  0  0  0  0
   10.7013  -16.5313   21.7110 C   0  0  0  0  0  0  0  0  0  0  0  0
   11.4336  -15.5290   21.7478 O   0  0  0  0  0  0  0  0  0  0  0  0
    9.7685  -16.8020   22.7272 N   0  0  0  0  0  0  0  0  0  0  0  0
    9.6827  -16.0122   23.9089 C   0  0  1  0  0  0  0  0  0  0  0  0
    8.3126  -15.6585   24.3634 C   0  0  0  0  0  0  0  0  0  0  0  0
    7.3204  -17.0554   24.8761 S   0  0  0  0  0  0  0  0  0  0  0  0
   10.4736  -16.5861   25.0694 C   0  0  0  0  0  0  0  0  0  0  0  0
   10.6678  -15.9529   26.1368 O   0  0  0  0  0  0  0  0  0  0  0  0
   11.0329  -17.8800   24.9937 N   0  0  0  0  0  0  0  0  0  0  0  0
   11.9281  -18.3068   26.0867 C   0  0  1  0  0  0  0  0  0  0  0  0
   11.3407  -19.4661   26.8194 C   0  0  0  0  0  0  0  0  0  0  0  0
   10.8371  -19.1485   28.1545 C   0  0  0  0  0  0  0  0  0  0  0  0
   10.9892  -18.0072   28.6383 O   0  0  0  0  0  0  0  0  0  0  0  0
   13.1783  -18.7208   25.3612 C   0  0  0  0  0  0  0  0  0  0  0  0
   14.2011  -19.1102   25.9698 O   0  0  0  0  0  0  0  0  0  0  0  0
   10.1704  -20.0664   28.9623 O   0  0  0  0  0  0  0  0  0  0  0  0
   13.2620  -18.6916   23.9625 O   0  0  0  0  0  0  0  0  0  0  0  0
  2  1  1  1
  3  2  1  0
  4  3  1  0
  5  4  2  0
  6  7  1  0
  6  5  1  0
  7  8  2  0
  8  4  1  0
  9 10  2  0
  9  2  1  0
 11  9  1  0
 12 11  1  0
 12 15  1  0
 12 13  1  1
 14 13  1  0
 15 17  1  0
 16 15  2  0
 17 18  1  0
 18 22  1  0
 18 19  1  6
 19 20  1  0
 20 21  2  0
 22 23  2  0
 22 25  1  0
 24 20  1  0
M  END
$$$$
