HCD.pdb
     RDKit          3D

 25 25  0  0  1  0  0  0  0  0999 V2000
    9.5349  -15.4778   13.5137 N   0  0  0  0  0  0  0  0  0  0  0  0
    9.2007  -16.0181   14.7966 C   0  0  1  0  0  0  0  0  0  0  0  0
    9.5946  -17.4589   14.9433 C   0  0  0  0  0  0  0  0  0  0  0  0
    8.7805  -18.2785   14.0189 C   0  0  0  0  0  0  0  0  0  0  0  0
    9.2350  -18.9282   12.9002 C   0  0  0  0  0  0  0  0  0  0  0  0
    8.1858  -19.5765   12.3117 N   0  0  0  0  0  0  0  0  0  0  0  0
    7.1002  -19.3293   13.0580 C   0  0  0  0  0  0  0  0  0  0  0  0
    7.4711  -18.5359   14.0986 N   0  0  0  0  0  0  0  0  0  0  0  0
    9.8640  -15.2064   15.8812 C   0  0  0  0  0  0  0  0  0  0  0  0
   11.0692  -14.9256   15.7782 O   0  0  0  0  0  0  0  0  0  0  0  0
    9.0996  -14.7871   16.9838 N   0  0  0  0  0  0  0  0  0  0  0  0
    9.6655  -14.0521   18.0643 C   0  0  1  0  0  0  0  0  0  0  0  0
    8.7047  -13.3485   18.9534 C   0  0  0  0  0  0  0  0  0  0  0  0
    7.3133  -12.6134   18.1035 S   0  0  0  0  0  0  0  0  0  0  0  0
   10.6316  -14.8693   18.9012 C   0  0  0  0  0  0  0  0  0  0  0  0
   10.5974  -16.1243   18.9446 O   0  0  0  0  0  0  0  0  0  0  0  0
   11.6269  -14.2389   19.6788 N   0  0  0  0  0  0  0  0  0  0  0  0
   12.6108  -15.0990   20.3645 C   0  0  1  0  0  0  0  0  0  0  0  0
   13.8830  -14.3547   20.5956 C   0  0  0  0  0  0  0  0  0  0  0  0
   14.6647  -14.0986   19.3872 C   0  0  0  0  0  0  0  0  0  0  0  0
   15.0767  -12.9489   19.1262 O   0  0  0  0  0  0  0  0  0  0  0  0
   11.9377  -15.4109   21.6724 C   0  0  0  0  0  0  0  0  0  0  0  0
   10.8499  -14.8851   22.0013 O   0  0  0  0  0  0  0  0  0  0  0  0
   14.9984  -15.0871   18.4646 O   0  0  0  0  0  0  0  0  0  0  0  0
   12.4960  -16.3090   22.5921 O   0  0  0  0  0  0  0  0  0  0  0  0
  2  1  1  6
  3  2  1  0
  4  3  1  0
  5  4  2  0
  6  7  1  0
  6  5  1  0
  7  8  2  0
  8  4  1  0
  9 10  2  0
  9  2  1  0
 11  9  1  0
 12 11  1  0
 12 15  1  0
 12 13  1  1
 14 13  1  0
 15 17  1  0
 16 15  2  0
 17 18  1  0
 18 22  1  0
 18 19  1  1
 19 20  1  0
 20 21  2  0
 22 23  2  0
 22 25  1  0
 24 20  1  0
M  END
$$$$
