HCD.pdb
     RDKit          3D

 25 25  0  0  1  0  0  0  0  0999 V2000
    8.3664  -12.9837   18.0407 N   0  0  0  0  0  0  0  0  0  0  0  0
    8.3733  -14.3023   18.5979 C   0  0  1  0  0  0  0  0  0  0  0  0
    9.0940  -15.2965   17.7350 C   0  0  0  0  0  0  0  0  0  0  0  0
    8.3565  -15.4553   16.4623 C   0  0  0  0  0  0  0  0  0  0  0  0
    7.1982  -16.1666   16.2819 C   0  0  0  0  0  0  0  0  0  0  0  0
    6.8265  -16.0760   14.9701 N   0  0  0  0  0  0  0  0  0  0  0  0
    7.7435  -15.3192   14.3512 C   0  0  0  0  0  0  0  0  0  0  0  0
    8.6747  -14.9439   15.2687 N   0  0  0  0  0  0  0  0  0  0  0  0
    9.0086  -14.2754   19.9657 C   0  0  0  0  0  0  0  0  0  0  0  0
   10.1167  -13.7338   20.1098 O   0  0  0  0  0  0  0  0  0  0  0  0
    8.3290  -14.8654   21.0455 N   0  0  0  0  0  0  0  0  0  0  0  0
    8.8850  -14.9169   22.3555 C   0  0  1  0  0  0  0  0  0  0  0  0
    7.9461  -14.6548   23.4774 C   0  0  0  0  0  0  0  0  0  0  0  0
    6.6671  -13.4609   23.1071 S   0  0  0  0  0  0  0  0  0  0  0  0
    9.6600  -16.1929   22.6254 C   0  0  0  0  0  0  0  0  0  0  0  0
    9.3150  -17.3073   22.1596 O   0  0  0  0  0  0  0  0  0  0  0  0
   10.8225  -16.1773   23.4261 N   0  0  0  0  0  0  0  0  0  0  0  0
   11.5431  -17.4511   23.6163 C   0  0  1  0  0  0  0  0  0  0  0  0
   13.0175  -17.2228   23.6061 C   0  0  0  0  0  0  0  0  0  0  0  0
   13.5397  -16.6828   22.3521 C   0  0  0  0  0  0  0  0  0  0  0  0
   13.5724  -17.3853   21.3201 O   0  0  0  0  0  0  0  0  0  0  0  0
   11.0887  -17.8997   24.9776 C   0  0  0  0  0  0  0  0  0  0  0  0
   10.3476  -17.1916   25.6970 O   0  0  0  0  0  0  0  0  0  0  0  0
   14.0251  -15.3843   22.2182 O   0  0  0  0  0  0  0  0  0  0  0  0
   11.4731  -19.1372   25.5114 O   0  0  0  0  0  0  0  0  0  0  0  0
  2  1  1  6
  3  2  1  0
  4  3  1  0
  5  4  2  0
  6  7  1  0
  6  5  1  0
  7  8  2  0
  8  4  1  0
  9 10  2  0
  9  2  1  0
 11  9  1  0
 12 11  1  0
 12 15  1  0
 12 13  1  1
 14 13  1  0
 15 17  1  0
 16 15  2  0
 17 18  1  0
 18 22  1  0
 18 19  1  1
 19 20  1  0
 20 21  2  0
 22 23  2  0
 22 25  1  0
 24 20  1  0
M  END
$$$$
