HCD.pdb
     RDKit          3D

 25 25  0  0  1  0  0  0  0  0999 V2000
    8.2469  -12.8106   16.9314 N   0  0  0  0  0  0  0  0  0  0  0  0
    8.3180  -14.0442   17.6542 C   0  0  1  0  0  0  0  0  0  0  0  0
    9.2201  -15.0512   17.0025 C   0  0  0  0  0  0  0  0  0  0  0  0
    8.6536  -15.4278   15.6886 C   0  0  0  0  0  0  0  0  0  0  0  0
    7.3945  -15.1295   15.2351 C   0  0  0  0  0  0  0  0  0  0  0  0
    7.2455  -15.6472   13.9793 N   0  0  0  0  0  0  0  0  0  0  0  0
    8.3972  -16.2559   13.6639 C   0  0  0  0  0  0  0  0  0  0  0  0
    9.2523  -16.1179   14.7126 N   0  0  0  0  0  0  0  0  0  0  0  0
    8.7941  -13.7847   19.0618 C   0  0  0  0  0  0  0  0  0  0  0  0
    9.7858  -13.0596   19.2431 O   0  0  0  0  0  0  0  0  0  0  0  0
    8.1020  -14.3714   20.1354 N   0  0  0  0  0  0  0  0  0  0  0  0
    8.5783  -14.2996   21.4755 C   0  0  1  0  0  0  0  0  0  0  0  0
    7.5464  -14.1179   22.5295 C   0  0  0  0  0  0  0  0  0  0  0  0
    6.3694  -15.4590   22.6507 S   0  0  0  0  0  0  0  0  0  0  0  0
    9.4907  -15.4532   21.8475 C   0  0  0  0  0  0  0  0  0  0  0  0
    9.5385  -16.5205   21.1867 O   0  0  0  0  0  0  0  0  0  0  0  0
   10.3391  -15.3705   22.9727 N   0  0  0  0  0  0  0  0  0  0  0  0
   11.3642  -16.4190   23.1392 C   0  0  1  0  0  0  0  0  0  0  0  0
   12.7259  -15.8609   22.8932 C   0  0  0  0  0  0  0  0  0  0  0  0
   13.8217  -16.7846   23.1810 C   0  0  0  0  0  0  0  0  0  0  0  0
   13.5897  -17.9382   23.5995 O   0  0  0  0  0  0  0  0  0  0  0  0
   11.2113  -16.8194   24.5804 C   0  0  0  0  0  0  0  0  0  0  0  0
   11.9595  -17.6683   25.1167 O   0  0  0  0  0  0  0  0  0  0  0  0
   15.1653  -16.4576   23.0156 O   0  0  0  0  0  0  0  0  0  0  0  0
   10.2204  -16.2605   25.3988 O   0  0  0  0  0  0  0  0  0  0  0  0
  2  1  1  6
  3  2  1  0
  4  3  1  0
  5  4  2  0
  6  7  1  0
  6  5  1  0
  7  8  2  0
  8  4  1  0
  9 10  2  0
  9  2  1  0
 11  9  1  0
 12 11  1  0
 12 15  1  0
 12 13  1  1
 14 13  1  0
 15 17  1  0
 16 15  2  0
 17 18  1  0
 18 22  1  0
 18 19  1  1
 19 20  1  0
 20 21  2  0
 22 23  2  0
 22 25  1  0
 24 20  1  0
M  END
$$$$
