HCD.pdb
     RDKit          3D

 25 25  0  0  1  0  0  0  0  0999 V2000
   11.8775  -13.9361   19.4605 N   0  0  0  0  0  0  0  0  0  0  0  0
   10.4924  -14.1036   19.7810 C   0  0  1  0  0  0  0  0  0  0  0  0
    9.8572  -15.2464   19.0441 C   0  0  0  0  0  0  0  0  0  0  0  0
    9.1626  -14.7227   17.8473 C   0  0  0  0  0  0  0  0  0  0  0  0
    9.0485  -13.4036   17.4908 C   0  0  0  0  0  0  0  0  0  0  0  0
    8.3386  -13.3229   16.3260 N   0  0  0  0  0  0  0  0  0  0  0  0
    8.0201  -14.5753   15.9701 C   0  0  0  0  0  0  0  0  0  0  0  0
    8.5265  -15.4246   16.9039 N   0  0  0  0  0  0  0  0  0  0  0  0
   10.3339  -14.3174   21.2657 C   0  0  0  0  0  0  0  0  0  0  0  0
   11.2773  -14.7994   21.9137 O   0  0  0  0  0  0  0  0  0  0  0  0
    9.1198  -13.9650   21.8801 N   0  0  0  0  0  0  0  0  0  0  0  0
    8.8759  -14.1914   23.2647 C   0  0  1  0  0  0  0  0  0  0  0  0
    7.6547  -13.5587   23.8277 C   0  0  0  0  0  0  0  0  0  0  0  0
    7.2746  -14.0490   25.5052 S   0  0  0  0  0  0  0  0  0  0  0  0
    8.9123  -15.6596   23.6450 C   0  0  0  0  0  0  0  0  0  0  0  0
    8.1415  -16.5112   23.1364 O   0  0  0  0  0  0  0  0  0  0  0  0
    9.8324  -16.1357   24.6039 N   0  0  0  0  0  0  0  0  0  0  0  0
    9.8579  -17.5870   24.8707 C   0  0  1  0  0  0  0  0  0  0  0  0
   10.8808  -18.2567   24.0157 C   0  0  0  0  0  0  0  0  0  0  0  0
   11.1098  -19.6650   24.3333 C   0  0  0  0  0  0  0  0  0  0  0  0
   11.3138  -20.0280   25.5107 O   0  0  0  0  0  0  0  0  0  0  0  0
   10.2526  -17.6603   26.3197 C   0  0  0  0  0  0  0  0  0  0  0  0
   10.7182  -16.6720   26.9319 O   0  0  0  0  0  0  0  0  0  0  0  0
   11.1177  -20.6768   23.3762 O   0  0  0  0  0  0  0  0  0  0  0  0
   10.1186  -18.8423   27.0605 O   0  0  0  0  0  0  0  0  0  0  0  0
  2  1  1  1
  3  2  1  0
  4  3  1  0
  5  4  2  0
  6  7  1  0
  6  5  1  0
  7  8  2  0
  8  4  1  0
  9 10  2  0
  9  2  1  0
 11  9  1  0
 12 11  1  0
 12 15  1  0
 12 13  1  6
 14 13  1  0
 15 17  1  0
 16 15  2  0
 17 18  1  0
 18 22  1  0
 18 19  1  6
 19 20  1  0
 20 21  2  0
 22 23  2  0
 22 25  1  0
 24 20  1  0
M  END
$$$$
