HCD.pdb
     RDKit          3D

 25 25  0  0  1  0  0  0  0  0999 V2000
   10.5749  -15.4207   21.3261 N   0  0  0  0  0  0  0  0  0  0  0  0
    9.7171  -14.8883   22.3410 C   0  0  1  0  0  0  0  0  0  0  0  0
    8.2605  -15.0546   22.0199 C   0  0  0  0  0  0  0  0  0  0  0  0
    7.9373  -14.2572   20.8163 C   0  0  0  0  0  0  0  0  0  0  0  0
    8.8269  -13.5401   20.0583 C   0  0  0  0  0  0  0  0  0  0  0  0
    8.1489  -12.9412   19.0341 N   0  0  0  0  0  0  0  0  0  0  0  0
    6.8594  -13.2850   19.1599 C   0  0  0  0  0  0  0  0  0  0  0  0
    6.7379  -14.0885   20.2504 N   0  0  0  0  0  0  0  0  0  0  0  0
   10.0160  -15.5519   23.6621 C   0  0  0  0  0  0  0  0  0  0  0  0
   10.9011  -16.4212   23.7183 O   0  0  0  0  0  0  0  0  0  0  0  0
    9.2837  -15.1691   24.7992 N   0  0  0  0  0  0  0  0  0  0  0  0
    9.8612  -15.1427   26.1006 C   0  0  1  0  0  0  0  0  0  0  0  0
    9.4457  -14.0189   26.9799 C   0  0  0  0  0  0  0  0  0  0  0  0
   10.2190  -14.0174   28.5926 S   0  0  0  0  0  0  0  0  0  0  0  0
    9.7139  -16.4559   26.8460 C   0  0  0  0  0  0  0  0  0  0  0  0
    8.5999  -16.9074   27.2108 O   0  0  0  0  0  0  0  0  0  0  0  0
   10.8454  -17.2376   27.1644 N   0  0  0  0  0  0  0  0  0  0  0  0
   10.6256  -18.4956   27.9040 C   0  0  1  0  0  0  0  0  0  0  0  0
   11.6155  -19.5289   27.4815 C   0  0  0  0  0  0  0  0  0  0  0  0
   11.7088  -19.7251   26.0360 C   0  0  0  0  0  0  0  0  0  0  0  0
   10.6792  -19.8752   25.3452 O   0  0  0  0  0  0  0  0  0  0  0  0
   10.8597  -18.0954   29.3343 C   0  0  0  0  0  0  0  0  0  0  0  0
   11.2814  -16.9579   29.6450 O   0  0  0  0  0  0  0  0  0  0  0  0
   12.9157  -19.7586   25.3418 O   0  0  0  0  0  0  0  0  0  0  0  0
   10.6167  -18.9783   30.3952 O   0  0  0  0  0  0  0  0  0  0  0  0
  2  1  1  6
  3  2  1  0
  4  3  1  0
  5  4  2  0
  6  7  1  0
  6  5  1  0
  7  8  2  0
  8  4  1  0
  9 10  2  0
  9  2  1  0
 11  9  1  0
 12 11  1  0
 12 15  1  0
 12 13  1  1
 14 13  1  0
 15 17  1  0
 16 15  2  0
 17 18  1  0
 18 22  1  0
 18 19  1  6
 19 20  1  0
 20 21  2  0
 22 23  2  0
 22 25  1  0
 24 20  1  0
M  END
$$$$
