KMG.pdb
     RDKit          3D

 22 21  0  0  1  0  0  0  0  0999 V2000
   24.2724  -11.5901  -16.2893 N   0  0  0  0  0  0  0  0  0  0  0  0
   25.5958  -10.9740  -16.3257 C   0  0  1  0  0  0  0  0  0  0  0  0
   26.5304  -11.8848  -17.0440 C   0  0  0  0  0  0  0  0  0  0  0  0
   26.5627  -13.2998  -16.5493 C   0  0  0  0  0  0  0  0  0  0  0  0
   27.6618  -14.0976  -17.2224 C   0  0  0  0  0  0  0  0  0  0  0  0
   27.6431  -15.5241  -16.7494 C   0  0  0  0  0  0  0  0  0  0  0  0
   28.6730  -16.3029  -17.4482 N   0  0  0  0  0  0  0  0  0  0  0  0
   25.4671   -9.6194  -16.9135 C   0  0  0  0  0  0  0  0  0  0  0  0
   26.5210   -8.9174  -16.9669 O   0  0  0  0  0  0  0  0  0  0  0  0
   26.4306   -8.3000  -22.6826 C   0  0  0  0  0  0  0  0  0  0  0  0
   25.8404   -8.3977  -21.0327 S   0  0  0  0  0  0  0  0  0  0  0  0
   24.1579   -8.1324  -20.6552 C   0  0  0  0  0  0  0  0  0  0  0  0
   23.5786   -8.1535  -19.3400 C   0  0  0  0  0  0  0  0  0  0  0  0
   24.1725   -7.8081  -18.0424 C   0  0  2  0  0  0  0  0  0  0  0  0
   24.2199   -9.1794  -17.3746 N   0  0  0  0  0  0  0  0  0  0  0  0
   23.3430   -7.0269  -17.0869 C   0  0  0  0  0  0  0  0  0  0  0  0
   22.8992   -5.8656  -17.3966 O   0  0  0  0  0  0  0  0  0  0  0  0
   22.9599   -7.4613  -15.7984 N   0  0  0  0  0  0  0  0  0  0  0  0
   22.1001   -6.6620  -14.9367 C   0  0  0  0  0  0  0  0  0  0  0  0
   22.8209   -5.5020  -14.3790 C   0  0  0  0  0  0  0  0  0  0  0  0
   22.2777   -4.8783  -13.4401 O   0  0  0  0  0  0  0  0  0  0  0  0
   24.0460   -5.0960  -14.8515 O   0  0  0  0  0  0  0  0  0  0  0  0
  2  8  1  0
  2  1  1  6
  3  2  1  0
  4  3  1  0
  5  4  1  0
  6  5  1  0
  7  6  1  0
  8  9  2  0
 10 11  1  0
 12 11  1  0
 13 12  1  0
 14 13  1  6
 15 14  1  0
 15  8  1  0
 16 17  2  0
 16 14  1  0
 18 16  1  0
 19 18  1  0
 20 19  1  0
 21 20  2  0
 22 20  1  0
M  END
$$$$
