KMG.pdb
     RDKit          3D

 22 21  0  0  1  0  0  0  0  0999 V2000
   27.0386  -21.6613  -14.2342 N   0  0  0  0  0  0  0  0  0  0  0  0
   27.0347  -20.5502  -13.2867 C   0  0  1  0  0  0  0  0  0  0  0  0
   26.3441  -19.3878  -13.9119 C   0  0  0  0  0  0  0  0  0  0  0  0
   26.2771  -19.4041  -15.4095 C   0  0  0  0  0  0  0  0  0  0  0  0
   24.8594  -19.6240  -15.8989 C   0  0  0  0  0  0  0  0  0  0  0  0
   24.7844  -19.4553  -17.3904 C   0  0  0  0  0  0  0  0  0  0  0  0
   23.4256  -19.7454  -17.8651 N   0  0  0  0  0  0  0  0  0  0  0  0
   26.4393  -21.0208  -12.0135 C   0  0  0  0  0  0  0  0  0  0  0  0
   25.7930  -22.1103  -12.0534 O   0  0  0  0  0  0  0  0  0  0  0  0
   27.9119  -19.9477   -4.2996 C   0  0  0  0  0  0  0  0  0  0  0  0
   27.9367  -19.5768   -6.0149 S   0  0  0  0  0  0  0  0  0  0  0  0
   26.8377  -20.3528   -7.1256 C   0  0  0  0  0  0  0  0  0  0  0  0
   26.8118  -20.1653   -8.5503 C   0  0  0  0  0  0  0  0  0  0  0  0
   25.9727  -20.8060   -9.5707 C   0  0  2  0  0  0  0  0  0  0  0  0
   26.6094  -20.2641  -10.8472 N   0  0  0  0  0  0  0  0  0  0  0  0
   24.5669  -20.3401   -9.7039 C   0  0  0  0  0  0  0  0  0  0  0  0
   24.2791  -19.3071  -10.4049 O   0  0  0  0  0  0  0  0  0  0  0  0
   23.4447  -20.9610   -9.1117 N   0  0  0  0  0  0  0  0  0  0  0  0
   22.1069  -20.3934   -9.2070 C   0  0  0  0  0  0  0  0  0  0  0  0
   21.4493  -20.7675  -10.4735 C   0  0  0  0  0  0  0  0  0  0  0  0
   22.1035  -21.4609  -11.2838 O   0  0  0  0  0  0  0  0  0  0  0  0
   20.1659  -20.3841  -10.7814 O   0  0  0  0  0  0  0  0  0  0  0  0
  2  8  1  0
  2  1  1  6
  3  2  1  0
  4  3  1  0
  5  4  1  0
  6  5  1  0
  7  6  1  0
  8  9  2  0
 10 11  1  0
 12 11  1  0
 13 12  1  0
 14 13  1  1
 15 14  1  0
 15  8  1  0
 16 17  2  0
 16 14  1  0
 18 16  1  0
 19 18  1  0
 20 19  1  0
 21 20  2  0
 22 20  1  0
M  END
$$$$
