KMG.pdb
     RDKit          3D

 22 21  0  0  1  0  0  0  0  0999 V2000
   27.8919  -21.1947  -13.6486 N   0  0  0  0  0  0  0  0  0  0  0  0
   27.6159  -20.1415  -12.6756 C   0  0  1  0  0  0  0  0  0  0  0  0
   26.8559  -19.0518  -13.3492 C   0  0  0  0  0  0  0  0  0  0  0  0
   27.1919  -18.8254  -14.7927 C   0  0  0  0  0  0  0  0  0  0  0  0
   27.6039  -17.3891  -15.0476 C   0  0  0  0  0  0  0  0  0  0  0  0
   27.8585  -17.1656  -16.5118 C   0  0  0  0  0  0  0  0  0  0  0  0
   28.3835  -15.8125  -16.7338 N   0  0  0  0  0  0  0  0  0  0  0  0
   26.9359  -20.7484  -11.5068 C   0  0  0  0  0  0  0  0  0  0  0  0
   26.3198  -21.8378  -11.7065 O   0  0  0  0  0  0  0  0  0  0  0  0
   27.7136  -18.8591   -4.7497 C   0  0  0  0  0  0  0  0  0  0  0  0
   28.4239  -20.2458   -5.5577 S   0  0  0  0  0  0  0  0  0  0  0  0
   28.0729  -20.5977   -7.2301 C   0  0  0  0  0  0  0  0  0  0  0  0
   26.9116  -20.1595   -7.9549 C   0  0  0  0  0  0  0  0  0  0  0  0
   26.2374  -20.7645   -9.1102 C   0  0  2  0  0  0  0  0  0  0  0  0
   26.9987  -20.1120  -10.2606 N   0  0  0  0  0  0  0  0  0  0  0  0
   24.8372  -20.3495   -9.3907 C   0  0  0  0  0  0  0  0  0  0  0  0
   24.5525  -19.1286   -9.6544 O   0  0  0  0  0  0  0  0  0  0  0  0
   23.7206  -21.2147   -9.4091 N   0  0  0  0  0  0  0  0  0  0  0  0
   22.3679  -20.7267   -9.6390 C   0  0  0  0  0  0  0  0  0  0  0  0
   21.9312  -20.9760  -11.0259 C   0  0  0  0  0  0  0  0  0  0  0  0
   22.7520  -21.5089  -11.8055 O   0  0  0  0  0  0  0  0  0  0  0  0
   20.6750  -20.6464  -11.4758 O   0  0  0  0  0  0  0  0  0  0  0  0
  2  8  1  0
  2  1  1  6
  3  2  1  0
  4  3  1  0
  5  4  1  0
  6  5  1  0
  7  6  1  0
  8  9  2  0
 10 11  1  0
 12 11  1  0
 13 12  1  0
 14 13  1  1
 15 14  1  0
 15  8  1  0
 16 17  2  0
 16 14  1  0
 18 16  1  0
 19 18  1  0
 20 19  1  0
 21 20  2  0
 22 20  1  0
M  END
$$$$
