KMG.pdb
     RDKit          3D

 22 21  0  0  1  0  0  0  0  0999 V2000
   27.7207  -21.3104  -13.2144 N   0  0  0  0  0  0  0  0  0  0  0  0
   27.1081  -20.2514  -12.4172 C   0  0  1  0  0  0  0  0  0  0  0  0
   26.0328  -19.6056  -13.2208 C   0  0  0  0  0  0  0  0  0  0  0  0
   26.3928  -19.2790  -14.6390 C   0  0  0  0  0  0  0  0  0  0  0  0
   25.2834  -18.5113  -15.3301 C   0  0  0  0  0  0  0  0  0  0  0  0
   25.6730  -18.1794  -16.7432 C   0  0  0  0  0  0  0  0  0  0  0  0
   24.6069  -17.4081  -17.3945 N   0  0  0  0  0  0  0  0  0  0  0  0
   26.6627  -20.8320  -11.1281 C   0  0  0  0  0  0  0  0  0  0  0  0
   26.4351  -22.0787  -11.1113 O   0  0  0  0  0  0  0  0  0  0  0  0
   27.7033  -19.4254   -4.1368 C   0  0  0  0  0  0  0  0  0  0  0  0
   28.6551  -19.2814   -5.6043 S   0  0  0  0  0  0  0  0  0  0  0  0
   28.1371  -20.0224   -7.0965 C   0  0  0  0  0  0  0  0  0  0  0  0
   26.8644  -19.8256   -7.7346 C   0  0  0  0  0  0  0  0  0  0  0  0
   26.1469  -20.6781   -8.6906 C   0  0  2  0  0  0  0  0  0  0  0  0
   26.5145  -20.0031  -10.0089 N   0  0  0  0  0  0  0  0  0  0  0  0
   24.6619  -20.6024   -8.7075 C   0  0  0  0  0  0  0  0  0  0  0  0
   23.9687  -21.0443   -7.7248 O   0  0  0  0  0  0  0  0  0  0  0  0
   23.8874  -20.0506   -9.7522 N   0  0  0  0  0  0  0  0  0  0  0  0
   22.4400  -19.9216   -9.6567 C   0  0  0  0  0  0  0  0  0  0  0  0
   21.7552  -20.7455  -10.6708 C   0  0  0  0  0  0  0  0  0  0  0  0
   22.4673  -21.4244  -11.4437 O   0  0  0  0  0  0  0  0  0  0  0  0
   20.3864  -20.7875  -10.7877 O   0  0  0  0  0  0  0  0  0  0  0  0
  2  8  1  0
  2  1  1  6
  3  2  1  0
  4  3  1  0
  5  4  1  0
  6  5  1  0
  7  6  1  0
  8  9  2  0
 10 11  1  0
 12 11  1  0
 13 12  1  0
 14 13  1  1
 15 14  1  0
 15  8  1  0
 16 17  2  0
 16 14  1  0
 18 16  1  0
 19 18  1  0
 20 19  1  0
 21 20  2  0
 22 20  1  0
M  END
$$$$
