KMG.pdb
     RDKit          3D

 22 21  0  0  1  0  0  0  0  0999 V2000
   21.9870  -21.9309  -14.1934 N   0  0  0  0  0  0  0  0  0  0  0  0
   21.9638  -20.5396  -13.7505 C   0  0  1  0  0  0  0  0  0  0  0  0
   20.7228  -20.3074  -12.9600 C   0  0  0  0  0  0  0  0  0  0  0  0
   19.5861  -21.2407  -13.2513 C   0  0  0  0  0  0  0  0  0  0  0  0
   18.5091  -20.5629  -14.0749 C   0  0  0  0  0  0  0  0  0  0  0  0
   17.1445  -20.9904  -13.6125 C   0  0  0  0  0  0  0  0  0  0  0  0
   16.9965  -22.4449  -13.7482 N   0  0  0  0  0  0  0  0  0  0  0  0
   23.2272  -20.2553  -13.0293 C   0  0  0  0  0  0  0  0  0  0  0  0
   23.3463  -19.1016  -12.5184 O   0  0  0  0  0  0  0  0  0  0  0  0
   25.7253  -19.4946   -8.1626 C   0  0  0  0  0  0  0  0  0  0  0  0
   25.2867  -21.1331   -8.6134 S   0  0  0  0  0  0  0  0  0  0  0  0
   26.0892  -21.9575   -9.9250 C   0  0  0  0  0  0  0  0  0  0  0  0
   25.6601  -21.9706  -11.2966 C   0  0  0  0  0  0  0  0  0  0  0  0
   25.5197  -20.8641  -12.2514 C   0  0  2  0  0  0  0  0  0  0  0  0
   24.2139  -21.2457  -12.9426 N   0  0  0  0  0  0  0  0  0  0  0  0
   26.4704  -20.8098  -13.3936 C   0  0  0  0  0  0  0  0  0  0  0  0
   27.7314  -20.6999  -13.1962 O   0  0  0  0  0  0  0  0  0  0  0  0
   26.1084  -20.8822  -14.7572 N   0  0  0  0  0  0  0  0  0  0  0  0
   27.0991  -20.8371  -15.8237 C   0  0  0  0  0  0  0  0  0  0  0  0
   26.4771  -21.0233  -17.1483 C   0  0  0  0  0  0  0  0  0  0  0  0
   25.2275  -21.0044  -17.2100 O   0  0  0  0  0  0  0  0  0  0  0  0
   27.2158  -21.2128  -18.2918 O   0  0  0  0  0  0  0  0  0  0  0  0
  2  8  1  0
  2  1  1  1
  3  2  1  0
  4  3  1  0
  5  4  1  0
  6  5  1  0
  7  6  1  0
  8  9  2  0
 10 11  1  0
 12 11  1  0
 13 12  1  0
 14 13  1  1
 15 14  1  0
 15  8  1  0
 16 17  2  0
 16 14  1  0
 18 16  1  0
 19 18  1  0
 20 19  1  0
 21 20  2  0
 22 20  1  0
M  END
$$$$
