KMG.pdb
     RDKit          3D

 22 21  0  0  1  0  0  0  0  0999 V2000
   21.4161  -17.4262  -15.2370 N   0  0  0  0  0  0  0  0  0  0  0  0
   21.0653  -16.0827  -15.6888 C   0  0  1  0  0  0  0  0  0  0  0  0
   19.5951  -15.8942  -15.5403 C   0  0  0  0  0  0  0  0  0  0  0  0
   18.7389  -16.8885  -16.2657 C   0  0  0  0  0  0  0  0  0  0  0  0
   17.2888  -16.4486  -16.3033 C   0  0  0  0  0  0  0  0  0  0  0  0
   16.4822  -17.3660  -17.1788 C   0  0  0  0  0  0  0  0  0  0  0  0
   15.1013  -16.8790  -17.2861 N   0  0  0  0  0  0  0  0  0  0  0  0
   21.8992  -15.1058  -14.9489 C   0  0  0  0  0  0  0  0  0  0  0  0
   21.9467  -15.2338  -13.6889 O   0  0  0  0  0  0  0  0  0  0  0  0
   27.6994  -16.9894  -15.6607 C   0  0  0  0  0  0  0  0  0  0  0  0
   27.0012  -15.4027  -15.9353 S   0  0  0  0  0  0  0  0  0  0  0  0
   25.5171  -14.9188  -15.1562 C   0  0  0  0  0  0  0  0  0  0  0  0
   24.8311  -13.6718  -15.3565 C   0  0  0  0  0  0  0  0  0  0  0  0
   23.5303  -13.2189  -14.8483 C   0  0  2  0  0  0  0  0  0  0  0  0
   22.5838  -14.1062  -15.6517 N   0  0  0  0  0  0  0  0  0  0  0  0
   23.0744  -11.8555  -15.2288 C   0  0  0  0  0  0  0  0  0  0  0  0
   22.4487  -11.6533  -16.3283 O   0  0  0  0  0  0  0  0  0  0  0  0
   23.2602  -10.6897  -14.4530 N   0  0  0  0  0  0  0  0  0  0  0  0
   22.8747   -9.3705  -14.9348 C   0  0  0  0  0  0  0  0  0  0  0  0
   21.8760   -8.7417  -14.0497 C   0  0  0  0  0  0  0  0  0  0  0  0
   21.2257   -9.4893  -13.2857 O   0  0  0  0  0  0  0  0  0  0  0  0
   21.6450   -7.3869  -14.0410 O   0  0  0  0  0  0  0  0  0  0  0  0
  2  8  1  0
  2  1  1  1
  3  2  1  0
  4  3  1  0
  5  4  1  0
  6  5  1  0
  7  6  1  0
  8  9  2  0
 10 11  1  0
 12 11  1  0
 13 12  1  0
 14 13  1  6
 15 14  1  0
 15  8  1  0
 16 17  2  0
 16 14  1  0
 18 16  1  0
 19 18  1  0
 20 19  1  0
 21 20  2  0
 22 20  1  0
M  END
$$$$
