KMG.pdb
     RDKit          3D

 22 21  0  0  1  0  0  0  0  0999 V2000
   21.8639  -22.0544  -14.0761 N   0  0  0  0  0  0  0  0  0  0  0  0
   21.7666  -20.6311  -13.7648 C   0  0  1  0  0  0  0  0  0  0  0  0
   20.6313  -20.4215  -12.8234 C   0  0  0  0  0  0  0  0  0  0  0  0
   19.3115  -20.1071  -13.4615 C   0  0  0  0  0  0  0  0  0  0  0  0
   19.3422  -20.3645  -14.9549 C   0  0  0  0  0  0  0  0  0  0  0  0
   18.0074  -20.0523  -15.5712 C   0  0  0  0  0  0  0  0  0  0  0  0
   18.0879  -20.1571  -17.0335 N   0  0  0  0  0  0  0  0  0  0  0  0
   23.0843  -20.1677  -13.2688 C   0  0  0  0  0  0  0  0  0  0  0  0
   23.1773  -18.9441  -12.9520 O   0  0  0  0  0  0  0  0  0  0  0  0
   25.5086  -20.3102   -7.1155 C   0  0  0  0  0  0  0  0  0  0  0  0
   25.2453  -21.1981   -8.6064 S   0  0  0  0  0  0  0  0  0  0  0  0
   25.9310  -20.6564  -10.1165 C   0  0  0  0  0  0  0  0  0  0  0  0
   25.6379  -21.1990  -11.4147 C   0  0  0  0  0  0  0  0  0  0  0  0
   25.4911  -20.5213  -12.7088 C   0  0  2  0  0  0  0  0  0  0  0  0
   24.1467  -21.0753  -13.1718 N   0  0  0  0  0  0  0  0  0  0  0  0
   26.3945  -20.9364  -13.8146 C   0  0  0  0  0  0  0  0  0  0  0  0
   26.2888  -22.0947  -14.3518 O   0  0  0  0  0  0  0  0  0  0  0  0
   27.4126  -20.1349  -14.3775 N   0  0  0  0  0  0  0  0  0  0  0  0
   28.2529  -20.6063  -15.4696 C   0  0  0  0  0  0  0  0  0  0  0  0
   27.8483  -20.0133  -16.7584 C   0  0  0  0  0  0  0  0  0  0  0  0
   26.6428  -19.7121  -16.9053 O   0  0  0  0  0  0  0  0  0  0  0  0
   28.7393  -19.7874  -17.7802 O   0  0  0  0  0  0  0  0  0  0  0  0
  2  8  1  0
  2  1  1  1
  3  2  1  0
  4  3  1  0
  5  4  1  0
  6  5  1  0
  7  6  1  0
  8  9  2  0
 10 11  1  0
 12 11  1  0
 13 12  1  0
 14 13  1  1
 15 14  1  0
 15  8  1  0
 16 17  2  0
 16 14  1  0
 18 16  1  0
 19 18  1  0
 20 19  1  0
 21 20  2  0
 22 20  1  0
M  END
$$$$
