KMG.pdb
     RDKit          3D

 22 21  0  0  1  0  0  0  0  0999 V2000
   21.9150  -22.0091  -13.8507 N   0  0  0  0  0  0  0  0  0  0  0  0
   22.0882  -20.5592  -13.8594 C   0  0  1  0  0  0  0  0  0  0  0  0
   20.9634  -19.9362  -13.1072 C   0  0  0  0  0  0  0  0  0  0  0  0
   19.6220  -20.0074  -13.7731 C   0  0  0  0  0  0  0  0  0  0  0  0
   18.8884  -21.2825  -13.4076 C   0  0  0  0  0  0  0  0  0  0  0  0
   17.5200  -21.3000  -14.0289 C   0  0  0  0  0  0  0  0  0  0  0  0
   16.8533  -22.5780  -13.7496 N   0  0  0  0  0  0  0  0  0  0  0  0
   23.4396  -20.2446  -13.3381 C   0  0  0  0  0  0  0  0  0  0  0  0
   23.7222  -19.0185  -13.1864 O   0  0  0  0  0  0  0  0  0  0  0  0
   24.7751  -19.2685   -8.7048 C   0  0  0  0  0  0  0  0  0  0  0  0
   25.4181  -20.9003   -8.7680 S   0  0  0  0  0  0  0  0  0  0  0  0
   26.3929  -21.4386  -10.1111 C   0  0  0  0  0  0  0  0  0  0  0  0
   25.9086  -21.7559  -11.4266 C   0  0  0  0  0  0  0  0  0  0  0  0
   25.7350  -20.8923  -12.6012 C   0  0  2  0  0  0  0  0  0  0  0  0
   24.3279  -21.2861  -13.0412 N   0  0  0  0  0  0  0  0  0  0  0  0
   26.5371  -21.2032  -13.8142 C   0  0  0  0  0  0  0  0  0  0  0  0
   26.2856  -22.2411  -14.5218 O   0  0  0  0  0  0  0  0  0  0  0  0
   27.6058  -20.4206  -14.3051 N   0  0  0  0  0  0  0  0  0  0  0  0
   28.4182  -20.8443  -15.4371 C   0  0  0  0  0  0  0  0  0  0  0  0
   27.9304  -20.2614  -16.7015 C   0  0  0  0  0  0  0  0  0  0  0  0
   26.7603  -19.8188  -16.7227 O   0  0  0  0  0  0  0  0  0  0  0  0
   28.7085  -20.1923  -17.8323 O   0  0  0  0  0  0  0  0  0  0  0  0
  2  8  1  0
  2  1  1  1
  3  2  1  0
  4  3  1  0
  5  4  1  0
  6  5  1  0
  7  6  1  0
  8  9  2  0
 10 11  1  0
 12 11  1  0
 13 12  1  0
 14 13  1  1
 15 14  1  0
 15  8  1  0
 16 17  2  0
 16 14  1  0
 18 16  1  0
 19 18  1  0
 20 19  1  0
 21 20  2  0
 22 20  1  0
M  END
$$$$
