QEE.pdb
     RDKit          3D

 28 27  0  0  1  0  0  0  0  0999 V2000
   31.0909   -8.6211  -17.9528 N   0  0  0  0  0  0  0  0  0  0  0  0
   30.4940   -9.7531  -18.6108 C   0  0  0  0  0  0  0  0  0  0  0  0
   31.2427  -10.4780  -19.2938 O   0  0  0  0  0  0  0  0  0  0  0  0
   29.0655  -10.0616  -18.4986 C   0  0  0  0  0  0  0  0  0  0  0  0
   28.2873   -8.9782  -17.8692 C   0  0  0  0  0  0  0  0  0  0  0  0
   27.2854   -9.3344  -16.8354 C   0  0  2  0  0  0  0  0  0  0  0  0
   27.4239  -10.7921  -16.5529 N   0  0  0  0  0  0  0  0  0  0  0  0
   25.8818   -9.1078  -17.1594 C   0  0  0  0  0  0  0  0  0  0  0  0
   25.5207   -7.9283  -17.5029 O   0  0  0  0  0  0  0  0  0  0  0  0
   24.8268  -10.0476  -17.1501 N   0  0  0  0  0  0  0  0  0  0  0  0
   23.4671   -9.7007  -17.5733 C   0  0  1  0  0  0  0  0  0  0  0  0
   22.7854  -11.0779  -17.6698 C   0  0  0  0  0  0  0  0  0  0  0  0
   21.3639  -11.0241  -18.0835 C   0  0  0  0  0  0  0  0  0  0  0  0
   20.7848  -12.3639  -18.1786 C   0  0  0  0  0  0  0  0  0  0  0  0
   19.5640  -12.5406  -18.2930 O   0  0  0  0  0  0  0  0  0  0  0  0
   22.7740   -8.8461  -16.5948 C   0  0  0  0  0  0  0  0  0  0  0  0
   23.0982   -8.9139  -15.3551 O   0  0  0  0  0  0  0  0  0  0  0  0
   21.6426  -13.4764  -18.1387 O   0  0  0  0  0  0  0  0  0  0  0  0
   21.7650   -7.9597  -17.0061 N   0  0  0  0  0  0  0  0  0  0  0  0
   21.0496   -7.1334  -16.0134 C   0  0  1  0  0  0  0  0  0  0  0  0
   20.7404   -5.8645  -16.7245 C   0  0  0  0  0  0  0  0  0  0  0  0
   19.9788   -4.8190  -16.0121 C   0  0  0  0  0  0  0  0  0  0  0  0
   19.6985   -3.6667  -16.8849 C   0  0  0  0  0  0  0  0  0  0  0  0
   20.1717   -3.6970  -18.0756 O   0  0  0  0  0  0  0  0  0  0  0  0
   19.9602   -7.9125  -15.4534 C   0  0  0  0  0  0  0  0  0  0  0  0
   19.4467   -8.8533  -16.1532 O   0  0  0  0  0  0  0  0  0  0  0  0
   18.9602   -2.5830  -16.4696 O   0  0  0  0  0  0  0  0  0  0  0  0
   19.4139   -7.7213  -14.1943 O   0  0  0  0  0  0  0  0  0  0  0  0
  2  1  1  0
  2  3  2  0
  4  5  1  0
  4  2  1  0
  5  6  1  0
  6  7  1  6
  8  6  1  0
  8 10  1  0
  9  8  2  0
 11 10  1  0
 12 13  1  0
 11 12  1  1
 14 13  1  0
 15 14  2  0
 16 11  1  0
 17 16  2  0
 18 14  1  0
 19 16  1  0
 20 19  1  0
 20 25  1  0
 20 21  1  6
 22 21  1  0
 22 23  1  0
 23 27  1  0
 24 23  2  0
 25 28  1  0
 26 25  2  0
M  END
$$$$
