QEE.pdb
     RDKit          3D

 28 27  0  0  1  0  0  0  0  0999 V2000
   18.3066  -34.8107   -0.4462 N   0  0  0  0  0  0  0  0  0  0  0  0
   17.8634  -33.5838   -1.0539 C   0  0  0  0  0  0  0  0  0  0  0  0
   16.6825  -33.2404   -0.8538 O   0  0  0  0  0  0  0  0  0  0  0  0
   18.7458  -32.7549   -1.8801 C   0  0  0  0  0  0  0  0  0  0  0  0
   20.0992  -33.3216   -2.0298 C   0  0  0  0  0  0  0  0  0  0  0  0
   21.2653  -32.4680   -1.6965 C   0  0  2  0  0  0  0  0  0  0  0  0
   21.5413  -31.5971   -2.8751 N   0  0  0  0  0  0  0  0  0  0  0  0
   22.5182  -33.1429   -1.3789 C   0  0  0  0  0  0  0  0  0  0  0  0
   22.5985  -33.7859   -0.2745 O   0  0  0  0  0  0  0  0  0  0  0  0
   23.6986  -33.1901   -2.1539 N   0  0  0  0  0  0  0  0  0  0  0  0
   24.8958  -33.9109   -1.7117 C   0  0  1  0  0  0  0  0  0  0  0  0
   25.8294  -33.7875   -2.9299 C   0  0  0  0  0  0  0  0  0  0  0  0
   27.1500  -34.4345   -2.7508 C   0  0  0  0  0  0  0  0  0  0  0  0
   27.9634  -34.3311   -3.9620 C   0  0  0  0  0  0  0  0  0  0  0  0
   28.2675  -33.2348   -4.4522 O   0  0  0  0  0  0  0  0  0  0  0  0
   25.5123  -33.3014   -0.5215 C   0  0  0  0  0  0  0  0  0  0  0  0
   25.5556  -32.0232   -0.4169 O   0  0  0  0  0  0  0  0  0  0  0  0
   28.4089  -35.5116   -4.5811 O   0  0  0  0  0  0  0  0  0  0  0  0
   26.0507  -34.1048    0.4970 N   0  0  0  0  0  0  0  0  0  0  0  0
   26.6553  -33.4853    1.6931 C   0  0  1  0  0  0  0  0  0  0  0  0
   25.7103  -33.7900    2.8001 C   0  0  0  0  0  0  0  0  0  0  0  0
   26.0620  -33.3667    4.1704 C   0  0  0  0  0  0  0  0  0  0  0  0
   25.0313  -33.7709    5.1410 C   0  0  0  0  0  0  0  0  0  0  0  0
   25.1266  -34.9421    5.6527 O   0  0  0  0  0  0  0  0  0  0  0  0
   28.0348  -33.9244    1.8013 C   0  0  0  0  0  0  0  0  0  0  0  0
   28.8140  -33.3251    2.6212 O   0  0  0  0  0  0  0  0  0  0  0  0
   23.9921  -32.9473    5.5068 O   0  0  0  0  0  0  0  0  0  0  0  0
   28.5958  -34.9628    1.0752 O   0  0  0  0  0  0  0  0  0  0  0  0
  2  1  1  0
  2  3  2  0
  4  5  1  0
  4  2  1  0
  5  6  1  0
  6  7  1  6
  8  6  1  0
  8 10  1  0
  9  8  2  0
 11 10  1  0
 12 13  1  0
 11 12  1  6
 14 13  1  0
 15 14  2  0
 16 11  1  0
 17 16  2  0
 18 14  1  0
 19 16  1  0
 20 19  1  0
 20 25  1  0
 20 21  1  1
 22 21  1  0
 22 23  1  0
 23 27  1  0
 24 23  2  0
 25 28  1  0
 26 25  2  0
M  END
$$$$
