QEE.pdb
     RDKit          3D

 28 27  0  0  1  0  0  0  0  0999 V2000
   26.3669  -20.1415  -16.5028 N   0  0  0  0  0  0  0  0  0  0  0  0
   27.4897  -20.7768  -15.8652 C   0  0  0  0  0  0  0  0  0  0  0  0
   28.6284  -20.4205  -16.2243 O   0  0  0  0  0  0  0  0  0  0  0  0
   27.3267  -21.8049  -14.8333 C   0  0  0  0  0  0  0  0  0  0  0  0
   25.9186  -22.0256  -14.4539 C   0  0  0  0  0  0  0  0  0  0  0  0
   25.3513  -21.2257  -13.3412 C   0  0  2  0  0  0  0  0  0  0  0  0
   25.3179  -22.0942  -12.1295 N   0  0  0  0  0  0  0  0  0  0  0  0
   24.0003  -20.7051  -13.5139 C   0  0  0  0  0  0  0  0  0  0  0  0
   23.2218  -20.6875  -12.4974 O   0  0  0  0  0  0  0  0  0  0  0  0
   23.4117  -20.1940  -14.6923 N   0  0  0  0  0  0  0  0  0  0  0  0
   22.0637  -19.6188  -14.7069 C   0  0  1  0  0  0  0  0  0  0  0  0
   22.1679  -18.5505  -15.8109 C   0  0  0  0  0  0  0  0  0  0  0  0
   20.9378  -17.7458  -15.9953 C   0  0  0  0  0  0  0  0  0  0  0  0
   21.0761  -16.8073  -17.1085 C   0  0  0  0  0  0  0  0  0  0  0  0
   21.0641  -15.5810  -16.9335 O   0  0  0  0  0  0  0  0  0  0  0  0
   21.0309  -20.6132  -15.0429 C   0  0  0  0  0  0  0  0  0  0  0  0
   21.3363  -21.6154  -15.7837 O   0  0  0  0  0  0  0  0  0  0  0  0
   21.2264  -17.3176  -18.4094 O   0  0  0  0  0  0  0  0  0  0  0  0
   19.7193  -20.4746  -14.5601 N   0  0  0  0  0  0  0  0  0  0  0  0
   18.7174  -21.5293  -14.8126 C   0  0  1  0  0  0  0  0  0  0  0  0
   17.7311  -21.3913  -13.7083 C   0  0  0  0  0  0  0  0  0  0  0  0
   16.6093  -22.3489  -13.6348 C   0  0  0  0  0  0  0  0  0  0  0  0
   15.6998  -22.0296  -12.5217 C   0  0  0  0  0  0  0  0  0  0  0  0
   14.8350  -21.1028  -12.7110 O   0  0  0  0  0  0  0  0  0  0  0  0
   18.2595  -21.4212  -16.1860 C   0  0  0  0  0  0  0  0  0  0  0  0
   17.9428  -22.4871  -16.8199 O   0  0  0  0  0  0  0  0  0  0  0  0
   15.7496  -22.6819  -11.3117 O   0  0  0  0  0  0  0  0  0  0  0  0
   18.1324  -20.2334  -16.8884 O   0  0  0  0  0  0  0  0  0  0  0  0
  2  1  1  0
  2  3  2  0
  4  5  1  0
  4  2  1  0
  5  6  1  0
  6  7  1  1
  8  6  1  0
  8 10  1  0
  9  8  2  0
 11 10  1  0
 12 13  1  0
 11 12  1  6
 14 13  1  0
 15 14  2  0
 16 11  1  0
 17 16  2  0
 18 14  1  0
 19 16  1  0
 20 19  1  0
 20 25  1  0
 20 21  1  1
 22 21  1  0
 22 23  1  0
 23 27  1  0
 24 23  2  0
 25 28  1  0
 26 25  2  0
M  END
$$$$
