QEE.pdb
     RDKit          3D

 28 27  0  0  1  0  0  0  0  0999 V2000
   15.5504  -11.8140  -16.7261 N   0  0  0  0  0  0  0  0  0  0  0  0
   14.8432  -10.9032  -15.8652 C   0  0  0  0  0  0  0  0  0  0  0  0
   13.6296  -11.1166  -15.6801 O   0  0  0  0  0  0  0  0  0  0  0  0
   15.5010   -9.7625  -15.2214 C   0  0  0  0  0  0  0  0  0  0  0  0
   16.8824   -9.5498  -15.6925 C   0  0  0  0  0  0  0  0  0  0  0  0
   18.0011  -10.0331  -14.8473 C   0  0  2  0  0  0  0  0  0  0  0  0
   17.8463  -11.5079  -14.6900 N   0  0  0  0  0  0  0  0  0  0  0  0
   18.1074   -9.4828  -13.5011 C   0  0  0  0  0  0  0  0  0  0  0  0
   17.5605  -10.1250  -12.5377 O   0  0  0  0  0  0  0  0  0  0  0  0
   18.7593   -8.2958  -13.0982 N   0  0  0  0  0  0  0  0  0  0  0  0
   18.7252   -7.8166  -11.7136 C   0  0  1  0  0  0  0  0  0  0  0  0
   20.0658   -7.0702  -11.5850 C   0  0  0  0  0  0  0  0  0  0  0  0
   20.1989   -5.9015  -12.4855 C   0  0  0  0  0  0  0  0  0  0  0  0
   21.4217   -5.1491  -12.2061 C   0  0  0  0  0  0  0  0  0  0  0  0
   22.1849   -5.4638  -11.2825 O   0  0  0  0  0  0  0  0  0  0  0  0
   17.5971   -6.9043  -11.4613 C   0  0  0  0  0  0  0  0  0  0  0  0
   17.0606   -6.2765  -12.4434 O   0  0  0  0  0  0  0  0  0  0  0  0
   21.7331   -4.0402  -13.0115 O   0  0  0  0  0  0  0  0  0  0  0  0
   17.1048   -6.7173  -10.1593 N   0  0  0  0  0  0  0  0  0  0  0  0
   15.9458   -5.8341   -9.9210 C   0  0  1  0  0  0  0  0  0  0  0  0
   15.1772   -6.4974   -8.8346 C   0  0  0  0  0  0  0  0  0  0  0  0
   13.9622   -5.8353   -8.3184 C   0  0  0  0  0  0  0  0  0  0  0  0
   13.3175   -6.6369   -7.2650 C   0  0  0  0  0  0  0  0  0  0  0  0
   13.2614   -6.1327   -6.0880 O   0  0  0  0  0  0  0  0  0  0  0  0
   16.4237   -4.4778   -9.7215 C   0  0  0  0  0  0  0  0  0  0  0  0
   17.6236   -4.2966   -9.3141 O   0  0  0  0  0  0  0  0  0  0  0  0
   12.7853   -7.8832   -7.5012 O   0  0  0  0  0  0  0  0  0  0  0  0
   15.6743   -3.3328   -9.9394 O   0  0  0  0  0  0  0  0  0  0  0  0
  2  1  1  0
  2  3  2  0
  4  5  1  0
  4  2  1  0
  5  6  1  0
  6  7  1  1
  8  6  1  0
  8 10  1  0
  9  8  2  0
 11 10  1  0
 12 13  1  0
 11 12  1  6
 14 13  1  0
 15 14  2  0
 16 11  1  0
 17 16  2  0
 18 14  1  0
 19 16  1  0
 20 19  1  0
 20 25  1  0
 20 21  1  1
 22 21  1  0
 22 23  1  0
 23 27  1  0
 24 23  2  0
 25 28  1  0
 26 25  2  0
M  END
$$$$
