QEE.pdb
     RDKit          3D

 28 27  0  0  1  0  0  0  0  0999 V2000
   24.8327  -24.0370  -17.8280 N   0  0  0  0  0  0  0  0  0  0  0  0
   25.6007  -25.0759  -17.1940 C   0  0  0  0  0  0  0  0  0  0  0  0
   26.0788  -25.9625  -17.9275 O   0  0  0  0  0  0  0  0  0  0  0  0
   25.8246  -25.1125  -15.7460 C   0  0  0  0  0  0  0  0  0  0  0  0
   25.2101  -23.9747  -15.0366 C   0  0  0  0  0  0  0  0  0  0  0  0
   25.5806  -22.5992  -15.4496 C   0  0  2  0  0  0  0  0  0  0  0  0
   26.8564  -22.2476  -14.7624 N   0  0  0  0  0  0  0  0  0  0  0  0
   24.6366  -21.5318  -15.1400 C   0  0  0  0  0  0  0  0  0  0  0  0
   24.6320  -21.0505  -13.9534 O   0  0  0  0  0  0  0  0  0  0  0  0
   23.6940  -20.9301  -16.0035 N   0  0  0  0  0  0  0  0  0  0  0  0
   22.8347  -19.8234  -15.5733 C   0  0  1  0  0  0  0  0  0  0  0  0
   23.0606  -18.7755  -16.6786 C   0  0  0  0  0  0  0  0  0  0  0  0
   22.4131  -17.4688  -16.4181 C   0  0  0  0  0  0  0  0  0  0  0  0
   22.6586  -16.5249  -17.5080 C   0  0  0  0  0  0  0  0  0  0  0  0
   23.5352  -16.7255  -18.3600 O   0  0  0  0  0  0  0  0  0  0  0  0
   21.4147  -20.2073  -15.5046 C   0  0  0  0  0  0  0  0  0  0  0  0
   20.9485  -21.0568  -16.3457 O   0  0  0  0  0  0  0  0  0  0  0  0
   21.8749  -15.3607  -17.5847 O   0  0  0  0  0  0  0  0  0  0  0  0
   20.5696  -19.6537  -14.5288 N   0  0  0  0  0  0  0  0  0  0  0  0
   19.1438  -20.0334  -14.4762 C   0  0  1  0  0  0  0  0  0  0  0  0
   18.4047  -18.7917  -14.8272 C   0  0  0  0  0  0  0  0  0  0  0  0
   18.7664  -17.5334  -14.1442 C   0  0  0  0  0  0  0  0  0  0  0  0
   17.8254  -17.2208  -13.0558 C   0  0  0  0  0  0  0  0  0  0  0  0
   16.5752  -17.3775  -13.2907 O   0  0  0  0  0  0  0  0  0  0  0  0
   18.9463  -21.2245  -15.2823 C   0  0  0  0  0  0  0  0  0  0  0  0
   18.7515  -21.0964  -16.5409 O   0  0  0  0  0  0  0  0  0  0  0  0
   18.2388  -16.7755  -11.8217 O   0  0  0  0  0  0  0  0  0  0  0  0
   18.9505  -22.5217  -14.7948 O   0  0  0  0  0  0  0  0  0  0  0  0
  2  1  1  0
  2  3  2  0
  4  5  1  0
  4  2  1  0
  5  6  1  0
  6  7  1  1
  8  6  1  0
  8 10  1  0
  9  8  2  0
 11 10  1  0
 12 13  1  0
 11 12  1  6
 14 13  1  0
 15 14  2  0
 16 11  1  0
 17 16  2  0
 18 14  1  0
 19 16  1  0
 20 19  1  0
 20 25  1  0
 20 21  1  6
 22 21  1  0
 22 23  1  0
 23 27  1  0
 24 23  2  0
 25 28  1  0
 26 25  2  0
M  END
$$$$
