QEE.pdb
     RDKit          3D

 28 27  0  0  1  0  0  0  0  0999 V2000
   14.4744  -12.9829  -15.1099 N   0  0  0  0  0  0  0  0  0  0  0  0
   15.8803  -13.1773  -14.8724 C   0  0  0  0  0  0  0  0  0  0  0  0
   16.2083  -13.7459  -13.8132 O   0  0  0  0  0  0  0  0  0  0  0  0
   16.9046  -12.7325  -15.8218 C   0  0  0  0  0  0  0  0  0  0  0  0
   17.9986  -11.9784  -15.1814 C   0  0  0  0  0  0  0  0  0  0  0  0
   18.5285  -10.7768  -15.8706 C   0  0  2  0  0  0  0  0  0  0  0  0
   18.8871  -11.1737  -17.2626 N   0  0  0  0  0  0  0  0  0  0  0  0
   19.7149  -10.1490  -15.3012 C   0  0  0  0  0  0  0  0  0  0  0  0
   19.6560   -9.7206  -14.0959 O   0  0  0  0  0  0  0  0  0  0  0  0
   20.9692   -9.9447  -15.9187 N   0  0  0  0  0  0  0  0  0  0  0  0
   22.0336   -9.1606  -15.2859 C   0  0  1  0  0  0  0  0  0  0  0  0
   23.3023   -9.7127  -15.9615 C   0  0  0  0  0  0  0  0  0  0  0  0
   23.7038  -11.0589  -15.4914 C   0  0  0  0  0  0  0  0  0  0  0  0
   24.8779  -11.5481  -16.2136 C   0  0  0  0  0  0  0  0  0  0  0  0
   24.7801  -12.1131  -17.3117 O   0  0  0  0  0  0  0  0  0  0  0  0
   21.8966   -7.7168  -15.5406 C   0  0  0  0  0  0  0  0  0  0  0  0
   21.5042   -7.3131  -16.6937 O   0  0  0  0  0  0  0  0  0  0  0  0
   26.1485  -11.3688  -15.6402 O   0  0  0  0  0  0  0  0  0  0  0  0
   22.1899   -6.7812  -14.5349 N   0  0  0  0  0  0  0  0  0  0  0  0
   21.8989   -5.3487  -14.7426 C   0  0  1  0  0  0  0  0  0  0  0  0
   20.4473   -5.2961  -15.0608 C   0  0  0  0  0  0  0  0  0  0  0  0
   19.7793   -3.9800  -15.1133 C   0  0  0  0  0  0  0  0  0  0  0  0
   18.3332   -4.1185  -15.3533 C   0  0  0  0  0  0  0  0  0  0  0  0
   17.5741   -4.2595  -14.3303 O   0  0  0  0  0  0  0  0  0  0  0  0
   22.4000   -4.5992  -13.6047 C   0  0  0  0  0  0  0  0  0  0  0  0
   22.5826   -5.2073  -12.4932 O   0  0  0  0  0  0  0  0  0  0  0  0
   17.7849   -4.1013  -16.6147 O   0  0  0  0  0  0  0  0  0  0  0  0
   22.7058   -3.2477  -13.6178 O   0  0  0  0  0  0  0  0  0  0  0  0
  2  1  1  0
  2  3  2  0
  4  5  1  0
  4  2  1  0
  5  6  1  0
  6  7  1  6
  8  6  1  0
  8 10  1  0
  9  8  2  0
 11 10  1  0
 12 13  1  0
 11 12  1  6
 14 13  1  0
 15 14  2  0
 16 11  1  0
 17 16  2  0
 18 14  1  0
 19 16  1  0
 20 19  1  0
 20 25  1  0
 20 21  1  1
 22 21  1  0
 22 23  1  0
 23 27  1  0
 24 23  2  0
 25 28  1  0
 26 25  2  0
M  END
$$$$
