PQE.pdb
     RDKit          3D

 26 26  0  0  1  0  0  0  0  0999 V2000
   21.7554  -13.1137  -16.7943 N   0  0  0  0  0  0  0  0  0  0  0  0
   21.8167  -14.5053  -17.2680 C   0  0  0  0  0  0  0  0  0  0  0  0
   20.3745  -14.7148  -17.6968 C   0  0  0  0  0  0  0  0  0  0  0  0
   20.0649  -13.3847  -18.3723 C   0  0  0  0  0  0  0  0  0  0  0  0
   21.1544  -12.4559  -17.9294 C   0  0  1  0  0  0  0  0  0  0  0  0
   20.5630  -11.1421  -17.5598 C   0  0  0  0  0  0  0  0  0  0  0  0
   20.0891  -10.4096  -18.4622 O   0  0  0  0  0  0  0  0  0  0  0  0
   15.0739   -9.6893  -14.9146 N   0  0  0  0  0  0  0  0  0  0  0  0
   16.3048  -10.3799  -14.8786 C   0  0  0  0  0  0  0  0  0  0  0  0
   16.4129  -11.2863  -14.0158 O   0  0  0  0  0  0  0  0  0  0  0  0
   17.4358  -10.0841  -15.7905 C   0  0  0  0  0  0  0  0  0  0  0  0
   18.6842   -9.6940  -15.1108 C   0  0  0  0  0  0  0  0  0  0  0  0
   19.8846   -9.4004  -15.9326 C   0  0  2  0  0  0  0  0  0  0  0  0
   20.5067  -10.6709  -16.2281 N   0  0  0  0  0  0  0  0  0  0  0  0
   20.8714   -8.5108  -15.3460 C   0  0  0  0  0  0  0  0  0  0  0  0
   21.7987   -8.8516  -14.5665 O   0  0  0  0  0  0  0  0  0  0  0  0
   20.8134   -7.1277  -15.6591 N   0  0  0  0  0  0  0  0  0  0  0  0
   21.7433   -6.1661  -15.1042 C   0  0  1  0  0  0  0  0  0  0  0  0
   21.5646   -4.8761  -15.8886 C   0  0  0  0  0  0  0  0  0  0  0  0
   22.5287   -3.8556  -15.2850 C   0  0  0  0  0  0  0  0  0  0  0  0
   22.3674   -2.5478  -15.9689 C   0  0  0  0  0  0  0  0  0  0  0  0
   22.1868   -2.5212  -17.2129 O   0  0  0  0  0  0  0  0  0  0  0  0
   21.3619   -5.9072  -13.6708 C   0  0  0  0  0  0  0  0  0  0  0  0
   22.2984   -5.4770  -12.7387 O   0  0  0  0  0  0  0  0  0  0  0  0
   22.4159   -1.3747  -15.2429 O   0  0  0  0  0  0  0  0  0  0  0  0
   20.1851   -6.0721  -13.2730 O   0  0  0  0  0  0  0  0  0  0  0  0
  1  2  1  0
  3  2  1  0
  4  5  1  0
  4  3  1  0
  5  1  1  0
  6 14  1  0
  5  6  1  1
  7  6  2  0
  8  9  1  0
  9 10  2  0
 11 12  1  0
 11  9  1  0
 13 14  1  0
 13 12  1  1
 15 13  1  0
 16 15  2  0
 17 15  1  0
 18 17  1  0
 18 19  1  6
 20 19  1  0
 20 21  1  0
 21 25  1  0
 21 22  2  0
 23 18  1  0
 23 24  1  0
 26 23  2  0
M  END
$$$$
