PQE.pdb
     RDKit          3D

 26 26  0  0  1  0  0  0  0  0999 V2000
   24.1319  -12.7293  -15.8528 N   0  0  0  0  0  0  0  0  0  0  0  0
   25.2861  -13.4581  -16.4018 C   0  0  0  0  0  0  0  0  0  0  0  0
   25.2144  -13.0319  -17.8581 C   0  0  0  0  0  0  0  0  0  0  0  0
   24.8690  -11.5543  -17.7229 C   0  0  0  0  0  0  0  0  0  0  0  0
   24.4036  -11.3872  -16.3082 C   0  0  1  0  0  0  0  0  0  0  0  0
   23.1833  -10.5369  -16.2873 C   0  0  0  0  0  0  0  0  0  0  0  0
   23.2836   -9.3169  -16.5650 O   0  0  0  0  0  0  0  0  0  0  0  0
   17.3349  -12.8300  -16.7153 N   0  0  0  0  0  0  0  0  0  0  0  0
   17.1358  -11.4353  -16.6239 C   0  0  0  0  0  0  0  0  0  0  0  0
   15.9588  -11.0264  -16.7832 O   0  0  0  0  0  0  0  0  0  0  0  0
   18.2278  -10.4687  -16.3567 C   0  0  0  0  0  0  0  0  0  0  0  0
   19.5700  -11.0712  -16.2658 C   0  0  0  0  0  0  0  0  0  0  0  0
   20.7409  -10.1824  -16.0620 C   0  0  2  0  0  0  0  0  0  0  0  0
   21.9011  -11.0388  -15.9669 N   0  0  0  0  0  0  0  0  0  0  0  0
   20.6979   -9.3068  -14.9042 C   0  0  0  0  0  0  0  0  0  0  0  0
   20.9694   -9.6374  -13.7207 O   0  0  0  0  0  0  0  0  0  0  0  0
   20.3198   -7.9512  -15.0887 N   0  0  0  0  0  0  0  0  0  0  0  0
   20.1662   -7.0302  -13.9818 C   0  0  1  0  0  0  0  0  0  0  0  0
   21.4855   -6.2882  -13.8388 C   0  0  0  0  0  0  0  0  0  0  0  0
   21.6132   -5.3763  -15.0583 C   0  0  0  0  0  0  0  0  0  0  0  0
   22.3370   -4.1355  -14.6832 C   0  0  0  0  0  0  0  0  0  0  0  0
   22.5590   -3.8950  -13.4692 O   0  0  0  0  0  0  0  0  0  0  0  0
   19.0961   -6.0324  -14.3375 C   0  0  0  0  0  0  0  0  0  0  0  0
   18.5632   -5.9682  -15.6192 O   0  0  0  0  0  0  0  0  0  0  0  0
   22.7604   -3.2571  -15.6602 O   0  0  0  0  0  0  0  0  0  0  0  0
   18.6519   -5.2269  -13.4865 O   0  0  0  0  0  0  0  0  0  0  0  0
  1  2  1  0
  3  2  1  0
  4  5  1  0
  4  3  1  0
  5  1  1  0
  6 14  1  0
  5  6  1  6
  7  6  2  0
  8  9  1  0
  9 10  2  0
 11 12  1  0
 11  9  1  0
 13 14  1  0
 13 12  1  1
 15 13  1  0
 16 15  2  0
 17 15  1  0
 18 17  1  0
 18 19  1  6
 20 19  1  0
 20 21  1  0
 21 25  1  0
 21 22  2  0
 23 18  1  0
 23 24  1  0
 26 23  2  0
M  END
$$$$
