PQE.pdb
     RDKit          3D

 26 26  0  0  1  0  0  0  0  0999 V2000
   24.9767  -12.5766  -15.7762 N   0  0  0  0  0  0  0  0  0  0  0  0
   25.6884  -13.8162  -16.1249 C   0  0  0  0  0  0  0  0  0  0  0  0
   24.7004  -14.4377  -17.0972 C   0  0  0  0  0  0  0  0  0  0  0  0
   24.2555  -13.2184  -17.8949 C   0  0  0  0  0  0  0  0  0  0  0  0
   24.6938  -12.0367  -17.0841 C   0  0  1  0  0  0  0  0  0  0  0  0
   23.5978  -11.0319  -17.0440 C   0  0  0  0  0  0  0  0  0  0  0  0
   23.3249  -10.3833  -18.0833 O   0  0  0  0  0  0  0  0  0  0  0  0
   18.3007  -10.1966  -13.5962 N   0  0  0  0  0  0  0  0  0  0  0  0
   18.1385  -10.0795  -14.9938 C   0  0  0  0  0  0  0  0  0  0  0  0
   16.9748   -9.8449  -15.4044 O   0  0  0  0  0  0  0  0  0  0  0  0
   19.2533  -10.2191  -15.9613 C   0  0  0  0  0  0  0  0  0  0  0  0
   20.5694  -10.4693  -15.3468 C   0  0  0  0  0  0  0  0  0  0  0  0
   21.7647   -9.8009  -15.9186 C   0  0  2  0  0  0  0  0  0  0  0  0
   22.8389  -10.7670  -15.8810 N   0  0  0  0  0  0  0  0  0  0  0  0
   22.1994   -8.5783  -15.2663 C   0  0  0  0  0  0  0  0  0  0  0  0
   22.9429   -8.5086  -14.2533 O   0  0  0  0  0  0  0  0  0  0  0  0
   21.7652   -7.3337  -15.7926 N   0  0  0  0  0  0  0  0  0  0  0  0
   22.1802   -6.0654  -15.2302 C   0  0  1  0  0  0  0  0  0  0  0  0
   21.7968   -4.9907  -16.2348 C   0  0  0  0  0  0  0  0  0  0  0  0
   22.2679   -3.6573  -15.6558 C   0  0  0  0  0  0  0  0  0  0  0  0
   21.9156   -2.5544  -16.5852 C   0  0  0  0  0  0  0  0  0  0  0  0
   21.4702   -2.8306  -17.7281 O   0  0  0  0  0  0  0  0  0  0  0  0
   21.4030   -5.8296  -13.9623 C   0  0  0  0  0  0  0  0  0  0  0  0
   21.9244   -5.0662  -12.9247 O   0  0  0  0  0  0  0  0  0  0  0  0
   22.0768   -1.2402  -16.1949 O   0  0  0  0  0  0  0  0  0  0  0  0
   20.2590   -6.3157  -13.8031 O   0  0  0  0  0  0  0  0  0  0  0  0
  1  2  1  0
  3  2  1  0
  4  5  1  0
  4  3  1  0
  5  1  1  0
  6 14  1  0
  5  6  1  1
  7  6  2  0
  8  9  1  0
  9 10  2  0
 11 12  1  0
 11  9  1  0
 13 14  1  0
 13 12  1  1
 15 13  1  0
 16 15  2  0
 17 15  1  0
 18 17  1  0
 18 19  1  6
 20 19  1  0
 20 21  1  0
 21 25  1  0
 21 22  2  0
 23 18  1  0
 23 24  1  0
 26 23  2  0
M  END
$$$$
