PQE.pdb
     RDKit          3D

 26 26  0  0  1  0  0  0  0  0999 V2000
   16.6891  -13.2329  -15.3513 N   0  0  0  0  0  0  0  0  0  0  0  0
   16.6714  -14.7028  -15.2901 C   0  0  0  0  0  0  0  0  0  0  0  0
   17.6273  -15.0378  -16.4222 C   0  0  0  0  0  0  0  0  0  0  0  0
   18.7129  -13.9880  -16.2205 C   0  0  0  0  0  0  0  0  0  0  0  0
   18.1065  -12.9661  -15.3073 C   0  0  1  0  0  0  0  0  0  0  0  0
   18.4300  -11.6032  -15.8079 C   0  0  0  0  0  0  0  0  0  0  0  0
   19.6285  -11.2317  -15.8381 O   0  0  0  0  0  0  0  0  0  0  0  0
   14.9458   -8.3248  -19.8278 N   0  0  0  0  0  0  0  0  0  0  0  0
   15.9174   -7.3851  -19.4201 C   0  0  0  0  0  0  0  0  0  0  0  0
   15.8847   -6.2646  -19.9868 O   0  0  0  0  0  0  0  0  0  0  0  0
   16.9402   -7.6633  -18.3835 C   0  0  0  0  0  0  0  0  0  0  0  0
   16.8457   -9.0019  -17.7738 C   0  0  0  0  0  0  0  0  0  0  0  0
   17.8264   -9.3822  -16.7269 C   0  0  2  0  0  0  0  0  0  0  0  0
   17.4445  -10.6944  -16.2568 N   0  0  0  0  0  0  0  0  0  0  0  0
   17.9452   -8.4844  -15.5915 C   0  0  0  0  0  0  0  0  0  0  0  0
   17.2674   -8.5427  -14.5328 O   0  0  0  0  0  0  0  0  0  0  0  0
   18.9013   -7.4370  -15.6483 N   0  0  0  0  0  0  0  0  0  0  0  0
   19.1202   -6.5246  -14.5452 C   0  0  1  0  0  0  0  0  0  0  0  0
   20.5599   -6.0468  -14.6467 C   0  0  0  0  0  0  0  0  0  0  0  0
   20.8002   -5.1150  -13.4596 C   0  0  0  0  0  0  0  0  0  0  0  0
   22.1669   -4.5409  -13.5413 C   0  0  0  0  0  0  0  0  0  0  0  0
   23.1613   -5.2897  -13.3642 O   0  0  0  0  0  0  0  0  0  0  0  0
   18.2118   -5.3368  -14.7223 C   0  0  0  0  0  0  0  0  0  0  0  0
   17.7448   -4.6134  -13.6316 O   0  0  0  0  0  0  0  0  0  0  0  0
   22.3402   -3.1979  -13.8093 O   0  0  0  0  0  0  0  0  0  0  0  0
   17.8480   -4.9629  -15.8617 O   0  0  0  0  0  0  0  0  0  0  0  0
  1  2  1  0
  3  2  1  0
  4  5  1  0
  4  3  1  0
  5  1  1  0
  6 14  1  0
  5  6  1  6
  7  6  2  0
  8  9  1  0
  9 10  2  0
 11 12  1  0
 11  9  1  0
 13 14  1  0
 13 12  1  6
 15 13  1  0
 16 15  2  0
 17 15  1  0
 18 17  1  0
 18 19  1  6
 20 19  1  0
 20 21  1  0
 21 25  1  0
 21 22  2  0
 23 18  1  0
 23 24  1  0
 26 23  2  0
M  END
$$$$
