LCV.pdb
     RDKit          3D

 22 21  0  0  1  0  0  0  0  0999 V2000
    9.2003  -13.7797   19.1696 C   0  0  0  0  0  0  0  0  0  0  0  0
    7.7894  -13.7552   19.7610 C   0  0  2  0  0  0  0  0  0  0  0  0
    7.3328  -12.3291   19.6904 C   0  0  0  0  0  0  0  0  0  0  0  0
    7.7869  -14.3263   21.1580 C   0  0  0  0  0  0  0  0  0  0  0  0
    8.2321  -15.7507   21.1179 C   0  0  2  0  0  0  0  0  0  0  0  0
    7.3428  -16.5015   20.2564 N   0  0  0  0  0  0  0  0  0  0  0  0
    8.2727  -16.3888   22.4436 C   0  0  0  0  0  0  0  0  0  0  0  0
    7.5490  -17.3908   22.6605 O   0  0  0  0  0  0  0  0  0  0  0  0
    9.0899  -15.9381   23.5103 N   0  0  0  0  0  0  0  0  0  0  0  0
    9.5799  -16.8889   24.5268 C   0  0  1  0  0  0  0  0  0  0  0  0
   10.4088  -17.9219   23.7907 C   0  0  0  0  0  0  0  0  0  0  0  0
   11.1824  -19.0556   24.9181 S   0  0  0  0  0  0  0  0  0  0  0  0
   10.2773  -16.1879   25.5971 C   0  0  0  0  0  0  0  0  0  0  0  0
   10.8543  -16.8789   26.5071 O   0  0  0  0  0  0  0  0  0  0  0  0
    8.6071  -12.6759   28.2417 C   0  0  0  0  0  0  0  0  0  0  0  0
    8.7185  -13.5087   26.9825 C   0  0  2  0  0  0  0  0  0  0  0  0
    7.6520  -14.5761   27.0616 C   0  0  0  0  0  0  0  0  0  0  0  0
   10.1039  -14.0907   26.9304 C   0  0  2  0  0  0  0  0  0  0  0  0
   10.3567  -14.7956   25.6889 N   0  0  0  0  0  0  0  0  0  0  0  0
   10.2590  -15.0062   28.0854 C   0  0  0  0  0  0  0  0  0  0  0  0
   10.7535  -14.6395   29.1748 O   0  0  0  0  0  0  0  0  0  0  0  0
    9.8350  -16.3172   27.9383 O   0  0  0  0  0  0  0  0  0  0  0  0
  2  1  1  1
  2  4  1  0
  3  2  1  0
  4  5  1  0
  5  6  1  6
  5  7  1  0
  7  9  1  0
  7  8  2  0
  9 10  1  0
 10 13  1  0
 10 11  1  6
 11 12  1  0
 13 14  2  0
 16 17  1  1
 16 18  1  0
 16 15  1  0
 18 19  1  6
 19 13  1  0
 20 22  1  0
 20 18  1  0
 21 20  2  0
M  END
$$$$
