LCV.pdb
     RDKit          3D

 22 21  0  0  1  0  0  0  0  0999 V2000
    7.6476  -14.0857   18.1522 C   0  0  0  0  0  0  0  0  0  0  0  0
    7.5317  -13.3112   19.4666 C   0  0  2  0  0  0  0  0  0  0  0  0
    7.5308  -11.8588   19.0956 C   0  0  0  0  0  0  0  0  0  0  0  0
    8.6429  -13.6968   20.4123 C   0  0  0  0  0  0  0  0  0  0  0  0
    8.2117  -14.8582   21.2453 C   0  0  2  0  0  0  0  0  0  0  0  0
    6.7673  -14.9554   21.2120 N   0  0  0  0  0  0  0  0  0  0  0  0
    8.6577  -14.7722   22.6452 C   0  0  0  0  0  0  0  0  0  0  0  0
    9.8874  -14.7830   22.8952 O   0  0  0  0  0  0  0  0  0  0  0  0
    7.7742  -14.6762   23.7492 N   0  0  0  0  0  0  0  0  0  0  0  0
    8.2996  -14.6940   25.1280 C   0  0  1  0  0  0  0  0  0  0  0  0
    7.3000  -13.9415   25.9828 C   0  0  0  0  0  0  0  0  0  0  0  0
    5.8209  -14.8911   26.2387 S   0  0  0  0  0  0  0  0  0  0  0  0
    8.5750  -16.0585   25.5589 C   0  0  0  0  0  0  0  0  0  0  0  0
    7.7427  -16.9791   25.2457 O   0  0  0  0  0  0  0  0  0  0  0  0
   11.4434  -19.7483   26.3393 C   0  0  0  0  0  0  0  0  0  0  0  0
   11.1283  -18.3627   25.8174 C   0  0  2  0  0  0  0  0  0  0  0  0
   12.3871  -17.5391   25.9590 C   0  0  0  0  0  0  0  0  0  0  0  0
    9.9903  -17.8076   26.6285 C   0  0  2  0  0  0  0  0  0  0  0  0
    9.7035  -16.4254   26.2973 N   0  0  0  0  0  0  0  0  0  0  0  0
   10.3466  -17.9325   28.0616 C   0  0  0  0  0  0  0  0  0  0  0  0
   10.5042  -16.9392   28.8062 O   0  0  0  0  0  0  0  0  0  0  0  0
   10.5084  -19.2058   28.5835 O   0  0  0  0  0  0  0  0  0  0  0  0
  2  1  1  6
  2  4  1  0
  3  2  1  0
  4  5  1  0
  5  6  1  1
  5  7  1  0
  7  9  1  0
  7  8  2  0
  9 10  1  0
 10 13  1  0
 10 11  1  1
 11 12  1  0
 13 14  2  0
 16 17  1  1
 16 18  1  0
 16 15  1  0
 18 19  1  6
 19 13  1  0
 20 22  1  0
 20 18  1  0
 21 20  2  0
M  END
$$$$
