LCV.pdb
     RDKit          3D

 22 21  0  0  1  0  0  0  0  0999 V2000
    6.0773  -15.9679   19.7394 C   0  0  0  0  0  0  0  0  0  0  0  0
    7.5375  -15.5711   19.5128 C   0  0  2  0  0  0  0  0  0  0  0  0
    8.2129  -16.7792   18.9371 C   0  0  0  0  0  0  0  0  0  0  0  0
    8.1614  -15.0788   20.7958 C   0  0  0  0  0  0  0  0  0  0  0  0
    7.4470  -13.8539   21.2628 C   0  0  2  0  0  0  0  0  0  0  0  0
    7.6020  -12.8082   20.2732 N   0  0  0  0  0  0  0  0  0  0  0  0
    7.9219  -13.3602   22.5655 C   0  0  0  0  0  0  0  0  0  0  0  0
    8.1145  -12.1295   22.7177 O   0  0  0  0  0  0  0  0  0  0  0  0
    8.1805  -14.1980   23.6790 N   0  0  0  0  0  0  0  0  0  0  0  0
    8.2458  -13.6303   25.0395 C   0  0  1  0  0  0  0  0  0  0  0  0
    6.9725  -12.8333   25.2385 C   0  0  0  0  0  0  0  0  0  0  0  0
    6.8286  -12.2479   26.9093 S   0  0  0  0  0  0  0  0  0  0  0  0
    8.4781  -14.6772   26.0261 C   0  0  0  0  0  0  0  0  0  0  0  0
    7.5025  -15.4392   26.3513 O   0  0  0  0  0  0  0  0  0  0  0  0
   12.3344  -16.0371   26.9821 C   0  0  0  0  0  0  0  0  0  0  0  0
   11.0893  -16.8977   27.0110 C   0  0  2  0  0  0  0  0  0  0  0  0
   10.8674  -17.4032   25.6045 C   0  0  0  0  0  0  0  0  0  0  0  0
    9.9479  -16.0485   27.4977 C   0  0  2  0  0  0  0  0  0  0  0  0
    9.7126  -14.9023   26.6414 N   0  0  0  0  0  0  0  0  0  0  0  0
   10.2620  -15.6073   28.8772 C   0  0  0  0  0  0  0  0  0  0  0  0
   10.4340  -16.4122   29.8198 O   0  0  0  0  0  0  0  0  0  0  0  0
   10.3662  -14.2467   29.1176 O   0  0  0  0  0  0  0  0  0  0  0  0
  2  1  1  1
  2  4  1  0
  3  2  1  0
  4  5  1  0
  5  6  1  6
  5  7  1  0
  7  9  1  0
  7  8  2  0
  9 10  1  0
 10 13  1  0
 10 11  1  1
 11 12  1  0
 13 14  2  0
 16 17  1  6
 16 18  1  0
 16 15  1  0
 18 19  1  6
 19 13  1  0
 20 22  1  0
 20 18  1  0
 21 20  2  0
M  END
$$$$
