GKE.pdb
     RDKit          3D

 23 22  0  0  1  0  0  0  0  0999 V2000
   28.2079  -21.2767  -14.2711 N   0  0  0  0  0  0  0  0  0  0  0  0
   27.4131  -21.0890  -15.4676 C   0  0  0  0  0  0  0  0  0  0  0  0
   25.9615  -20.9643  -15.0913 C   0  0  0  0  0  0  0  0  0  0  0  0
   25.0920  -21.2931  -15.9149 O   0  0  0  0  0  0  0  0  0  0  0  0
   25.5690  -20.4801  -13.8190 N   0  0  0  0  0  0  0  0  0  0  0  0
   24.1907  -20.5153  -13.3830 C   0  0  1  0  0  0  0  0  0  0  0  0
   24.0944  -20.3850  -11.8613 C   0  0  0  0  0  0  0  0  0  0  0  0
   22.6732  -20.5632  -11.3990 C   0  0  0  0  0  0  0  0  0  0  0  0
   22.4995  -20.5182   -9.9241 C   0  0  0  0  0  0  0  0  0  0  0  0
   21.0741  -20.7672   -9.5298 C   0  0  0  0  0  0  0  0  0  0  0  0
   20.9201  -20.7158   -8.0685 N   0  0  0  0  0  0  0  0  0  0  0  0
   23.4443  -19.4407  -14.0604 C   0  0  0  0  0  0  0  0  0  0  0  0
   23.7550  -18.2379  -13.8392 O   0  0  0  0  0  0  0  0  0  0  0  0
   22.3839  -19.6523  -14.9589 N   0  0  0  0  0  0  0  0  0  0  0  0
   21.6497  -18.5592  -15.6348 C   0  0  1  0  0  0  0  0  0  0  0  0
   21.7737  -18.6990  -17.0950 C   0  0  0  0  0  0  0  0  0  0  0  0
   21.1414  -17.6272  -17.8937 C   0  0  0  0  0  0  0  0  0  0  0  0
   21.2572  -17.7501  -19.3624 C   0  0  0  0  0  0  0  0  0  0  0  0
   21.7431  -18.7414  -19.9718 O   0  0  0  0  0  0  0  0  0  0  0  0
   20.3125  -18.3824  -15.1119 C   0  0  0  0  0  0  0  0  0  0  0  0
   19.5581  -19.2962  -14.6769 O   0  0  0  0  0  0  0  0  0  0  0  0
   20.7973  -16.6951  -20.1448 O   0  0  0  0  0  0  0  0  0  0  0  0
   19.8181  -17.0535  -15.0931 O   0  0  0  0  0  0  0  0  0  0  0  0
  2  1  1  0
  2  3  1  0
  3  4  2  0
  5  3  1  0
  5  6  1  0
  6  7  1  1
  8  7  1  0
  9  8  1  0
  9 10  1  0
 10 11  1  0
 12  6  1  0
 12 14  1  0
 13 12  2  0
 15 14  1  0
 15 16  1  6
 16 17  1  0
 17 18  1  0
 18 22  1  0
 19 18  2  0
 20 23  1  0
 20 15  1  0
 21 20  2  0
M  END
$$$$
