GKE.pdb
     RDKit          3D

 23 22  0  0  1  0  0  0  0  0999 V2000
   16.7202   -9.6062  -11.3812 N   0  0  0  0  0  0  0  0  0  0  0  0
   16.4279  -10.1869  -12.6759 C   0  0  0  0  0  0  0  0  0  0  0  0
   17.7001  -10.3080  -13.4703 C   0  0  0  0  0  0  0  0  0  0  0  0
   18.7364  -10.6864  -12.9001 O   0  0  0  0  0  0  0  0  0  0  0  0
   17.7378   -9.9992  -14.8526 N   0  0  0  0  0  0  0  0  0  0  0  0
   18.9061  -10.2686  -15.6611 C   0  0  1  0  0  0  0  0  0  0  0  0
   18.5547  -11.1682  -16.8481 C   0  0  0  0  0  0  0  0  0  0  0  0
   19.7864  -11.5075  -17.6440 C   0  0  0  0  0  0  0  0  0  0  0  0
   19.5405  -12.4150  -18.7944 C   0  0  0  0  0  0  0  0  0  0  0  0
   20.8016  -12.6896  -19.5582 C   0  0  0  0  0  0  0  0  0  0  0  0
   20.5794  -13.7254  -20.5778 N   0  0  0  0  0  0  0  0  0  0  0  0
   19.4848   -8.9906  -16.1111 C   0  0  0  0  0  0  0  0  0  0  0  0
   18.7387   -8.1328  -16.6586 O   0  0  0  0  0  0  0  0  0  0  0  0
   20.8393   -8.6388  -15.9763 N   0  0  0  0  0  0  0  0  0  0  0  0
   21.4340   -7.4196  -16.5683 C   0  0  1  0  0  0  0  0  0  0  0  0
   22.1739   -6.6711  -15.5391 C   0  0  0  0  0  0  0  0  0  0  0  0
   21.3408   -5.9685  -14.5398 C   0  0  0  0  0  0  0  0  0  0  0  0
   22.0668   -5.2307  -13.4843 C   0  0  0  0  0  0  0  0  0  0  0  0
   22.5628   -4.0785  -13.6142 O   0  0  0  0  0  0  0  0  0  0  0  0
   22.1359   -7.6883  -17.8043 C   0  0  0  0  0  0  0  0  0  0  0  0
   22.7150   -8.7674  -18.1103 O   0  0  0  0  0  0  0  0  0  0  0  0
   22.2219   -5.8456  -12.2457 O   0  0  0  0  0  0  0  0  0  0  0  0
   22.1671   -6.6315  -18.7493 O   0  0  0  0  0  0  0  0  0  0  0  0
  2  1  1  0
  2  3  1  0
  3  4  2  0
  5  3  1  0
  5  6  1  0
  6  7  1  6
  8  7  1  0
  9  8  1  0
  9 10  1  0
 10 11  1  0
 12  6  1  0
 12 14  1  0
 13 12  2  0
 15 14  1  0
 15 16  1  1
 16 17  1  0
 17 18  1  0
 18 22  1  0
 19 18  2  0
 20 23  1  0
 20 15  1  0
 21 20  2  0
M  END
$$$$
