GKE.pdb
     RDKit          3D

 23 22  0  0  1  0  0  0  0  0999 V2000
   23.1714  -11.3217  -19.1509 N   0  0  0  0  0  0  0  0  0  0  0  0
   22.3876  -11.7125  -17.9969 C   0  0  0  0  0  0  0  0  0  0  0  0
   21.5269  -10.5579  -17.5606 C   0  0  0  0  0  0  0  0  0  0  0  0
   21.2982   -9.6365  -18.3613 O   0  0  0  0  0  0  0  0  0  0  0  0
   20.9739  -10.5023  -16.2573 N   0  0  0  0  0  0  0  0  0  0  0  0
   20.0879   -9.4340  -15.8512 C   0  0  1  0  0  0  0  0  0  0  0  0
   19.0499   -9.9364  -14.8453 C   0  0  0  0  0  0  0  0  0  0  0  0
   18.0225  -10.8013  -15.5251 C   0  0  0  0  0  0  0  0  0  0  0  0
   16.9437  -11.2896  -14.6278 C   0  0  0  0  0  0  0  0  0  0  0  0
   16.0201  -12.2326  -15.3399 C   0  0  0  0  0  0  0  0  0  0  0  0
   14.9554  -12.6997  -14.4399 N   0  0  0  0  0  0  0  0  0  0  0  0
   20.8886   -8.3325  -15.2889 C   0  0  0  0  0  0  0  0  0  0  0  0
   21.8144   -8.5951  -14.4728 O   0  0  0  0  0  0  0  0  0  0  0  0
   20.6998   -6.9736  -15.5965 N   0  0  0  0  0  0  0  0  0  0  0  0
   21.5459   -5.8847  -15.0589 C   0  0  1  0  0  0  0  0  0  0  0  0
   21.2859   -4.6367  -15.7950 C   0  0  0  0  0  0  0  0  0  0  0  0
   22.1573   -3.4955  -15.4423 C   0  0  0  0  0  0  0  0  0  0  0  0
   21.8999   -2.2288  -16.1599 C   0  0  0  0  0  0  0  0  0  0  0  0
   22.4975   -1.1391  -15.9462 O   0  0  0  0  0  0  0  0  0  0  0  0
   21.4997   -5.8072  -13.6151 C   0  0  0  0  0  0  0  0  0  0  0  0
   20.5176   -6.1177  -12.8855 O   0  0  0  0  0  0  0  0  0  0  0  0
   20.9234   -2.2260  -17.1513 O   0  0  0  0  0  0  0  0  0  0  0  0
   22.6746   -5.3368  -12.9753 O   0  0  0  0  0  0  0  0  0  0  0  0
  2  1  1  0
  2  3  1  0
  3  4  2  0
  5  3  1  0
  5  6  1  0
  6  7  1  1
  8  7  1  0
  9  8  1  0
  9 10  1  0
 10 11  1  0
 12  6  1  0
 12 14  1  0
 13 12  2  0
 15 14  1  0
 15 16  1  6
 16 17  1  0
 17 18  1  0
 18 22  1  0
 19 18  2  0
 20 23  1  0
 20 15  1  0
 21 20  2  0
M  END
$$$$
