GKE.pdb
     RDKit          3D

 23 22  0  0  1  0  0  0  0  0999 V2000
   17.6401  -13.9204  -15.0005 N   0  0  0  0  0  0  0  0  0  0  0  0
   16.7061  -12.8754  -14.6340 C   0  0  0  0  0  0  0  0  0  0  0  0
   17.0864  -11.5961  -15.3290 C   0  0  0  0  0  0  0  0  0  0  0  0
   17.6815  -11.6521  -16.4177 O   0  0  0  0  0  0  0  0  0  0  0  0
   16.7794  -10.3325  -14.7665 N   0  0  0  0  0  0  0  0  0  0  0  0
   16.9810   -9.1030  -15.5007 C   0  0  1  0  0  0  0  0  0  0  0  0
   15.9015   -8.0753  -15.1541 C   0  0  0  0  0  0  0  0  0  0  0  0
   16.0785   -6.8204  -15.9662 C   0  0  0  0  0  0  0  0  0  0  0  0
   15.0881   -5.7539  -15.6678 C   0  0  0  0  0  0  0  0  0  0  0  0
   15.3173   -4.5373  -16.5145 C   0  0  0  0  0  0  0  0  0  0  0  0
   16.4430   -3.7456  -15.9968 N   0  0  0  0  0  0  0  0  0  0  0  0
   18.3283   -8.5834  -15.2082 C   0  0  0  0  0  0  0  0  0  0  0  0
   18.6743   -8.4033  -14.0082 O   0  0  0  0  0  0  0  0  0  0  0  0
   19.2872   -8.2628  -16.1850 N   0  0  0  0  0  0  0  0  0  0  0  0
   20.6555   -7.7944  -15.8702 C   0  0  1  0  0  0  0  0  0  0  0  0
   21.5997   -8.2807  -16.8894 C   0  0  0  0  0  0  0  0  0  0  0  0
   23.0270   -8.0052  -16.6189 C   0  0  0  0  0  0  0  0  0  0  0  0
   23.9989   -8.6040  -17.5583 C   0  0  0  0  0  0  0  0  0  0  0  0
   23.7552   -9.5605  -18.3431 O   0  0  0  0  0  0  0  0  0  0  0  0
   20.7019   -6.3810  -15.5655 C   0  0  0  0  0  0  0  0  0  0  0  0
   21.4031   -5.8372  -14.6677 O   0  0  0  0  0  0  0  0  0  0  0  0
   25.2876   -8.0796  -17.5879 O   0  0  0  0  0  0  0  0  0  0  0  0
   19.8775   -5.5422  -16.3577 O   0  0  0  0  0  0  0  0  0  0  0  0
  2  1  1  0
  2  3  1  0
  3  4  2  0
  5  3  1  0
  5  6  1  0
  6  7  1  1
  8  7  1  0
  9  8  1  0
  9 10  1  0
 10 11  1  0
 12  6  1  0
 12 14  1  0
 13 12  2  0
 15 14  1  0
 15 16  1  6
 16 17  1  0
 17 18  1  0
 18 22  1  0
 19 18  2  0
 20 23  1  0
 20 15  1  0
 21 20  2  0
M  END
$$$$
