GKE.pdb
     RDKit          3D

 23 22  0  0  1  0  0  0  0  0999 V2000
   21.8606  -19.1187  -17.4217 N   0  0  0  0  0  0  0  0  0  0  0  0
   22.3678  -17.8015  -17.0953 C   0  0  0  0  0  0  0  0  0  0  0  0
   21.2336  -16.9276  -16.6325 C   0  0  0  0  0  0  0  0  0  0  0  0
   20.3488  -16.6046  -17.4419 O   0  0  0  0  0  0  0  0  0  0  0  0
   21.1564  -16.4674  -15.2947 N   0  0  0  0  0  0  0  0  0  0  0  0
   20.0485  -15.6630  -14.8291 C   0  0  1  0  0  0  0  0  0  0  0  0
   19.9494  -15.6992  -13.3025 C   0  0  0  0  0  0  0  0  0  0  0  0
   18.6900  -16.3982  -12.8656 C   0  0  0  0  0  0  0  0  0  0  0  0
   18.5203  -17.7621  -13.4298 C   0  0  0  0  0  0  0  0  0  0  0  0
   17.2528  -18.4031  -12.9482 C   0  0  0  0  0  0  0  0  0  0  0  0
   16.9987  -19.6611  -13.6658 N   0  0  0  0  0  0  0  0  0  0  0  0
   20.2144  -14.2845  -15.3221 C   0  0  0  0  0  0  0  0  0  0  0  0
   21.3462  -13.7321  -15.2443 O   0  0  0  0  0  0  0  0  0  0  0  0
   19.1850  -13.5124  -15.8883 N   0  0  0  0  0  0  0  0  0  0  0  0
   19.3779  -12.1392  -16.4058 C   0  0  1  0  0  0  0  0  0  0  0  0
   18.6416  -11.9706  -17.6692 C   0  0  0  0  0  0  0  0  0  0  0  0
   18.7486  -10.6357  -18.2960 C   0  0  0  0  0  0  0  0  0  0  0  0
   17.9421  -10.4183  -19.5157 C   0  0  0  0  0  0  0  0  0  0  0  0
   17.8900   -9.3410  -20.1691 O   0  0  0  0  0  0  0  0  0  0  0  0
   19.1656  -11.1291  -15.3922 C   0  0  0  0  0  0  0  0  0  0  0  0
   18.3543  -11.2033  -14.4280 O   0  0  0  0  0  0  0  0  0  0  0  0
   17.1755  -11.4785  -19.9899 O   0  0  0  0  0  0  0  0  0  0  0  0
   19.9493   -9.9528  -15.5065 O   0  0  0  0  0  0  0  0  0  0  0  0
  2  1  1  0
  2  3  1  0
  3  4  2  0
  5  3  1  0
  5  6  1  0
  6  7  1  1
  8  7  1  0
  9  8  1  0
  9 10  1  0
 10 11  1  0
 12  6  1  0
 12 14  1  0
 13 12  2  0
 15 14  1  0
 15 16  1  6
 16 17  1  0
 17 18  1  0
 18 22  1  0
 19 18  2  0
 20 23  1  0
 20 15  1  0
 21 20  2  0
M  END
$$$$
