GKE.pdb
     RDKit          3D

 23 22  0  0  1  0  0  0  0  0999 V2000
   25.2468  -21.8682  -14.5862 N   0  0  0  0  0  0  0  0  0  0  0  0
   24.7607  -20.7437  -13.8131 C   0  0  0  0  0  0  0  0  0  0  0  0
   23.4566  -21.1110  -13.1584 C   0  0  0  0  0  0  0  0  0  0  0  0
   22.9219  -22.1959  -13.4403 O   0  0  0  0  0  0  0  0  0  0  0  0
   22.8290  -20.2451  -12.2290 N   0  0  0  0  0  0  0  0  0  0  0  0
   21.6246  -20.6272  -11.5258 C   0  0  1  0  0  0  0  0  0  0  0  0
   21.4664  -19.8224  -10.2339 C   0  0  0  0  0  0  0  0  0  0  0  0
   20.3233  -20.3529   -9.4109 C   0  0  0  0  0  0  0  0  0  0  0  0
   20.5543  -21.7068   -8.8441 C   0  0  0  0  0  0  0  0  0  0  0  0
   19.3654  -22.1884   -8.0670 C   0  0  0  0  0  0  0  0  0  0  0  0
   19.5437  -23.5883   -7.6545 N   0  0  0  0  0  0  0  0  0  0  0  0
   20.4669  -20.4405  -12.4178 C   0  0  0  0  0  0  0  0  0  0  0  0
   20.3246  -19.3433  -13.0245 O   0  0  0  0  0  0  0  0  0  0  0  0
   19.4797  -21.4130  -12.6549 N   0  0  0  0  0  0  0  0  0  0  0  0
   18.3141  -21.2008  -13.5421 C   0  0  1  0  0  0  0  0  0  0  0  0
   17.9809  -22.4524  -14.2414 C   0  0  0  0  0  0  0  0  0  0  0  0
   16.9036  -22.3520  -15.2493 C   0  0  0  0  0  0  0  0  0  0  0  0
   16.5530  -23.6001  -15.9597 C   0  0  0  0  0  0  0  0  0  0  0  0
   17.3116  -24.2218  -16.7524 O   0  0  0  0  0  0  0  0  0  0  0  0
   17.2251  -20.5215  -12.8748 C   0  0  0  0  0  0  0  0  0  0  0  0
   16.8687  -20.6890  -11.6755 O   0  0  0  0  0  0  0  0  0  0  0  0
   15.2891  -24.1414  -15.7451 O   0  0  0  0  0  0  0  0  0  0  0  0
   16.5009  -19.5837  -13.6538 O   0  0  0  0  0  0  0  0  0  0  0  0
  2  1  1  0
  2  3  1  0
  3  4  2  0
  5  3  1  0
  5  6  1  0
  6  7  1  1
  8  7  1  0
  9  8  1  0
  9 10  1  0
 10 11  1  0
 12  6  1  0
 12 14  1  0
 13 12  2  0
 15 14  1  0
 15 16  1  1
 16 17  1  0
 17 18  1  0
 18 22  1  0
 19 18  2  0
 20 23  1  0
 20 15  1  0
 21 20  2  0
M  END
$$$$
