CCG.pdb
     RDKit          3D

 17 16  0  0  1  0  0  0  0  0999 V2000
   10.1780  -16.2722   15.0484 N   0  0  0  0  0  0  0  0  0  0  0  0
    9.3637  -16.5602   16.1868 C   0  0  1  0  0  0  0  0  0  0  0  0
    9.3652  -18.0465   16.4377 C   0  0  0  0  0  0  0  0  0  0  0  0
    8.4438  -18.4931   17.9173 S   0  0  0  0  0  0  0  0  0  0  0  0
    9.7623  -15.7899   17.3924 C   0  0  0  0  0  0  0  0  0  0  0  0
   10.9816  -15.6505   17.6662 O   0  0  0  0  0  0  0  0  0  0  0  0
    8.8315  -15.1866   18.2764 N   0  0  0  0  0  0  0  0  0  0  0  0
    9.2062  -14.4835   19.4704 C   0  0  1  0  0  0  0  0  0  0  0  0
    8.0492  -13.5854   19.9288 C   0  0  0  0  0  0  0  0  0  0  0  0
    7.9917  -12.1549   18.8247 S   0  0  0  0  0  0  0  0  0  0  0  0
    9.5225  -15.3793   20.5992 C   0  0  0  0  0  0  0  0  0  0  0  0
    8.6295  -16.1725   20.9935 O   0  0  0  0  0  0  0  0  0  0  0  0
   10.7680  -15.4005   21.2649 N   0  0  0  0  0  0  0  0  0  0  0  0
   11.0603  -16.2726   22.3837 C   0  0  0  0  0  0  0  0  0  0  0  0
   12.4757  -16.1599   22.8087 C   0  0  0  0  0  0  0  0  0  0  0  0
   12.9343  -16.8377   23.9260 O   0  0  0  0  0  0  0  0  0  0  0  0
   13.2929  -15.4529   22.1739 O   0  0  0  0  0  0  0  0  0  0  0  0
  2  3  1  0
  2  1  1  6
  3  4  1  0
  5  2  1  0
  5  6  2  0
  7  5  1  0
  8 11  1  0
  8  7  1  0
  8  9  1  1
 10  9  1  0
 11 13  1  0
 12 11  2  0
 13 14  1  0
 14 15  1  0
 15 17  2  0
 15 16  1  0
M  END
$$$$
