CCG.pdb
     RDKit          3D

 17 16  0  0  1  0  0  0  0  0999 V2000
    6.5800  -19.6910   26.0474 N   0  0  0  0  0  0  0  0  0  0  0  0
    7.1666  -18.4759   26.5179 C   0  0  1  0  0  0  0  0  0  0  0  0
    8.5380  -18.7661   27.0720 C   0  0  0  0  0  0  0  0  0  0  0  0
    9.0242  -17.5942   28.3480 S   0  0  0  0  0  0  0  0  0  0  0  0
    7.1960  -17.4100   25.4841 C   0  0  0  0  0  0  0  0  0  0  0  0
    7.3044  -17.7230   24.2711 O   0  0  0  0  0  0  0  0  0  0  0  0
    7.1074  -16.0269   25.7861 N   0  0  0  0  0  0  0  0  0  0  0  0
    7.3175  -14.9851   24.8212 C   0  0  1  0  0  0  0  0  0  0  0  0
    6.9323  -13.6294   25.4286 C   0  0  0  0  0  0  0  0  0  0  0  0
    5.1485  -13.6447   25.7227 S   0  0  0  0  0  0  0  0  0  0  0  0
    8.7217  -14.8713   24.3828 C   0  0  0  0  0  0  0  0  0  0  0  0
    9.5968  -14.6365   25.2552 O   0  0  0  0  0  0  0  0  0  0  0  0
    9.1436  -15.0101   23.0421 N   0  0  0  0  0  0  0  0  0  0  0  0
   10.5225  -14.8723   22.6210 C   0  0  0  0  0  0  0  0  0  0  0  0
   11.2442  -16.1653   22.6826 C   0  0  0  0  0  0  0  0  0  0  0  0
   11.9965  -16.6069   21.6070 O   0  0  0  0  0  0  0  0  0  0  0  0
   11.1949  -16.8917   23.7028 O   0  0  0  0  0  0  0  0  0  0  0  0
  2  3  1  0
  2  1  1  6
  3  4  1  0
  5  2  1  0
  5  6  2  0
  7  5  1  0
  8 11  1  0
  8  7  1  0
  8  9  1  1
 10  9  1  0
 11 13  1  0
 12 11  2  0
 13 14  1  0
 14 15  1  0
 15 17  2  0
 15 16  1  0
M  END
$$$$
