CCG.pdb
     RDKit          3D

 17 16  0  0  1  0  0  0  0  0999 V2000
   -0.4373  -25.9229   28.3563 N   0  0  0  0  0  0  0  0  0  0  0  0
   -1.7093  -26.1765   28.9560 C   0  0  1  0  0  0  0  0  0  0  0  0
   -1.5452  -26.2730   30.4512 C   0  0  0  0  0  0  0  0  0  0  0  0
   -0.5103  -27.6618   30.9393 S   0  0  0  0  0  0  0  0  0  0  0  0
   -2.7393  -25.1784   28.5705 C   0  0  0  0  0  0  0  0  0  0  0  0
   -2.4499  -23.9548   28.5696 O   0  0  0  0  0  0  0  0  0  0  0  0
   -4.0617  -25.5269   28.1939 N   0  0  0  0  0  0  0  0  0  0  0  0
   -5.0461  -24.5740   27.7658 C   0  0  1  0  0  0  0  0  0  0  0  0
   -5.6354  -25.0070   26.4165 C   0  0  0  0  0  0  0  0  0  0  0  0
   -4.3949  -24.6784   25.1429 S   0  0  0  0  0  0  0  0  0  0  0  0
   -6.1784  -24.4448   28.7027 C   0  0  0  0  0  0  0  0  0  0  0  0
   -6.8121  -25.4862   29.0124 O   0  0  0  0  0  0  0  0  0  0  0  0
   -6.5946  -23.2219   29.2737 N   0  0  0  0  0  0  0  0  0  0  0  0
   -7.7169  -23.1061   30.1820 C   0  0  0  0  0  0  0  0  0  0  0  0
   -7.9790  -21.6943   30.5490 C   0  0  0  0  0  0  0  0  0  0  0  0
   -9.1257  -21.3456   31.2428 O   0  0  0  0  0  0  0  0  0  0  0  0
   -7.1762  -20.7814   30.2443 O   0  0  0  0  0  0  0  0  0  0  0  0
  2  3  1  0
  2  1  1  6
  3  4  1  0
  5  2  1  0
  5  6  2  0
  7  5  1  0
  8 11  1  0
  8  7  1  0
  8  9  1  6
 10  9  1  0
 11 13  1  0
 12 11  2  0
 13 14  1  0
 14 15  1  0
 15 17  2  0
 15 16  1  0
M  END
$$$$
