CCG.pdb
     RDKit          3D

 17 16  0  0  1  0  0  0  0  0999 V2000
    8.4770  -15.3665   13.6352 N   0  0  0  0  0  0  0  0  0  0  0  0
    8.0745  -15.7285   14.9577 C   0  0  1  0  0  0  0  0  0  0  0  0
    8.2147  -17.2192   15.1310 C   0  0  0  0  0  0  0  0  0  0  0  0
    7.8940  -17.7462   16.8214 S   0  0  0  0  0  0  0  0  0  0  0  0
    8.8007  -14.9731   16.0101 C   0  0  0  0  0  0  0  0  0  0  0  0
   10.0402  -14.7916   15.9020 O   0  0  0  0  0  0  0  0  0  0  0  0
    8.1688  -14.4301   17.1581 N   0  0  0  0  0  0  0  0  0  0  0  0
    8.8774  -13.7948   18.2327 C   0  0  1  0  0  0  0  0  0  0  0  0
    7.8934  -13.0107   19.1115 C   0  0  0  0  0  0  0  0  0  0  0  0
    8.8496  -12.1756   20.3987 S   0  0  0  0  0  0  0  0  0  0  0  0
    9.5709  -14.7496   19.1182 C   0  0  0  0  0  0  0  0  0  0  0  0
    8.9195  -15.7335   19.5536 O   0  0  0  0  0  0  0  0  0  0  0  0
   10.9230  -14.6260   19.5073 N   0  0  0  0  0  0  0  0  0  0  0  0
   11.5882  -15.5618   20.3903 C   0  0  0  0  0  0  0  0  0  0  0  0
   12.9516  -15.1023   20.7460 C   0  0  0  0  0  0  0  0  0  0  0  0
   13.6916  -15.7651   21.7108 O   0  0  0  0  0  0  0  0  0  0  0  0
   13.4708  -14.1074   20.1879 O   0  0  0  0  0  0  0  0  0  0  0  0
  2  3  1  0
  2  1  1  6
  3  4  1  0
  5  2  1  0
  5  6  2  0
  7  5  1  0
  8 11  1  0
  8  7  1  0
  8  9  1  1
 10  9  1  0
 11 13  1  0
 12 11  2  0
 13 14  1  0
 14 15  1  0
 15 17  2  0
 15 16  1  0
M  END
$$$$
