CCG.pdb
     RDKit          3D

 17 16  0  0  1  0  0  0  0  0999 V2000
    7.5930  -17.5451   21.7342 N   0  0  0  0  0  0  0  0  0  0  0  0
    6.9567  -16.9970   22.8903 C   0  0  1  0  0  0  0  0  0  0  0  0
    6.0046  -18.0145   23.4650 C   0  0  0  0  0  0  0  0  0  0  0  0
    6.8568  -19.3230   24.3590 S   0  0  0  0  0  0  0  0  0  0  0  0
    7.9242  -16.5031   23.9032 C   0  0  0  0  0  0  0  0  0  0  0  0
    9.1190  -16.8929   23.8637 O   0  0  0  0  0  0  0  0  0  0  0  0
    7.5769  -15.5970   24.9378 N   0  0  0  0  0  0  0  0  0  0  0  0
    8.4737  -15.2036   25.9872 C   0  0  1  0  0  0  0  0  0  0  0  0
    7.9604  -13.9207   26.6551 C   0  0  0  0  0  0  0  0  0  0  0  0
    9.1732  -13.4253   27.9010 S   0  0  0  0  0  0  0  0  0  0  0  0
    8.6032  -16.2155   27.0530 C   0  0  0  0  0  0  0  0  0  0  0  0
    7.5653  -16.5523   27.6786 O   0  0  0  0  0  0  0  0  0  0  0  0
    9.8227  -16.8297   27.4141 N   0  0  0  0  0  0  0  0  0  0  0  0
    9.9250  -17.8764   28.4100 C   0  0  0  0  0  0  0  0  0  0  0  0
   11.3289  -18.3103   28.6040 C   0  0  0  0  0  0  0  0  0  0  0  0
   11.7122  -18.9669   29.7615 O   0  0  0  0  0  0  0  0  0  0  0  0
   12.2038  -18.0970   27.7323 O   0  0  0  0  0  0  0  0  0  0  0  0
  2  3  1  0
  2  1  1  6
  3  4  1  0
  5  2  1  0
  5  6  2  0
  7  5  1  0
  8 11  1  0
  8  7  1  0
  8  9  1  1
 10  9  1  0
 11 13  1  0
 12 11  2  0
 13 14  1  0
 14 15  1  0
 15 17  2  0
 15 16  1  0
M  END
$$$$
