CCG.pdb
     RDKit          3D

 17 16  0  0  1  0  0  0  0  0999 V2000
    5.3395  -17.8860   22.2625 N   0  0  0  0  0  0  0  0  0  0  0  0
    5.8908  -17.6904   23.5662 C   0  0  1  0  0  0  0  0  0  0  0  0
    6.5988  -18.9477   24.0020 C   0  0  0  0  0  0  0  0  0  0  0  0
    7.1989  -18.8451   25.6952 S   0  0  0  0  0  0  0  0  0  0  0  0
    6.7709  -16.4969   23.6485 C   0  0  0  0  0  0  0  0  0  0  0  0
    7.5801  -16.2556   22.7168 O   0  0  0  0  0  0  0  0  0  0  0  0
    6.7560  -15.5895   24.7387 N   0  0  0  0  0  0  0  0  0  0  0  0
    7.7757  -14.6066   24.9719 C   0  0  1  0  0  0  0  0  0  0  0  0
    7.3690  -13.7049   26.1453 C   0  0  0  0  0  0  0  0  0  0  0  0
    5.6361  -13.2453   25.9117 S   0  0  0  0  0  0  0  0  0  0  0  0
    9.0832  -15.1945   25.3204 C   0  0  0  0  0  0  0  0  0  0  0  0
    9.2613  -15.5822   26.5036 O   0  0  0  0  0  0  0  0  0  0  0  0
   10.1482  -15.3487   24.4056 N   0  0  0  0  0  0  0  0  0  0  0  0
   11.4418  -15.8886   24.7702 C   0  0  0  0  0  0  0  0  0  0  0  0
   12.3319  -16.0165   23.5922 C   0  0  0  0  0  0  0  0  0  0  0  0
   13.6410  -16.4440   23.7385 O   0  0  0  0  0  0  0  0  0  0  0  0
   11.9287  -15.7434   22.4373 O   0  0  0  0  0  0  0  0  0  0  0  0
  2  3  1  0
  2  1  1  6
  3  4  1  0
  5  2  1  0
  5  6  2  0
  7  5  1  0
  8 11  1  0
  8  7  1  0
  8  9  1  1
 10  9  1  0
 11 13  1  0
 12 11  2  0
 13 14  1  0
 14 15  1  0
 15 17  2  0
 15 16  1  0
M  END
$$$$
