CCG.pdb
     RDKit          3D

 17 16  0  0  1  0  0  0  0  0999 V2000
    5.7429  -19.2886   20.6873 N   0  0  0  0  0  0  0  0  0  0  0  0
    5.6023  -17.9914   21.2699 C   0  0  1  0  0  0  0  0  0  0  0  0
    4.9933  -18.1245   22.6423 C   0  0  0  0  0  0  0  0  0  0  0  0
    6.1067  -18.9172   23.8127 S   0  0  0  0  0  0  0  0  0  0  0  0
    6.8761  -17.2282   21.2959 C   0  0  0  0  0  0  0  0  0  0  0  0
    7.9672  -17.8341   21.1431 O   0  0  0  0  0  0  0  0  0  0  0  0
    6.9413  -15.8242   21.4870 N   0  0  0  0  0  0  0  0  0  0  0  0
    8.1640  -15.0726   21.4661 C   0  0  1  0  0  0  0  0  0  0  0  0
    7.8530  -13.5798   21.2926 C   0  0  0  0  0  0  0  0  0  0  0  0
    7.1484  -13.3523   19.6432 S   0  0  0  0  0  0  0  0  0  0  0  0
    8.9489  -15.2020   22.7087 C   0  0  0  0  0  0  0  0  0  0  0  0
    8.3932  -14.8946   23.7944 O   0  0  0  0  0  0  0  0  0  0  0  0
   10.2874  -15.6504   22.7535 N   0  0  0  0  0  0  0  0  0  0  0  0
   11.0233  -15.8445   23.9859 C   0  0  0  0  0  0  0  0  0  0  0  0
   12.3789  -16.3876   23.7327 C   0  0  0  0  0  0  0  0  0  0  0  0
   13.4546  -15.5385   23.5332 O   0  0  0  0  0  0  0  0  0  0  0  0
   12.5897  -17.6224   23.6921 O   0  0  0  0  0  0  0  0  0  0  0  0
  2  3  1  0
  2  1  1  1
  3  4  1  0
  5  2  1  0
  5  6  2  0
  7  5  1  0
  8 11  1  0
  8  7  1  0
  8  9  1  1
 10  9  1  0
 11 13  1  0
 12 11  2  0
 13 14  1  0
 14 15  1  0
 15 17  2  0
 15 16  1  0
M  END
$$$$
