CCG.pdb
     RDKit          3D

 17 16  0  0  1  0  0  0  0  0999 V2000
    7.9707  -13.9631   20.7467 N   0  0  0  0  0  0  0  0  0  0  0  0
    7.1935  -14.4814   21.8280 C   0  0  1  0  0  0  0  0  0  0  0  0
    6.8646  -15.9273   21.5575 C   0  0  0  0  0  0  0  0  0  0  0  0
    5.9581  -16.6894   22.9122 S   0  0  0  0  0  0  0  0  0  0  0  0
    7.8451  -14.2947   23.1496 C   0  0  0  0  0  0  0  0  0  0  0  0
    9.0795  -14.5016   23.2690 O   0  0  0  0  0  0  0  0  0  0  0  0
    7.1454  -13.8877   24.3144 N   0  0  0  0  0  0  0  0  0  0  0  0
    7.7429  -13.8107   25.6173 C   0  0  1  0  0  0  0  0  0  0  0  0
    6.7488  -13.1905   26.6085 C   0  0  0  0  0  0  0  0  0  0  0  0
    6.4876  -11.4690   26.1218 S   0  0  0  0  0  0  0  0  0  0  0  0
    8.1222  -15.1278   26.1632 C   0  0  0  0  0  0  0  0  0  0  0  0
    7.3670  -16.1058   25.9280 O   0  0  0  0  0  0  0  0  0  0  0  0
    9.2828  -15.3578   26.9345 N   0  0  0  0  0  0  0  0  0  0  0  0
   10.5829  -15.6324   26.3580 C   0  0  0  0  0  0  0  0  0  0  0  0
   10.7478  -17.0712   26.0431 C   0  0  0  0  0  0  0  0  0  0  0  0
   11.0043  -17.4861   24.7470 O   0  0  0  0  0  0  0  0  0  0  0  0
   10.6606  -17.9480   26.9343 O   0  0  0  0  0  0  0  0  0  0  0  0
  2  3  1  0
  2  1  1  6
  3  4  1  0
  5  2  1  0
  5  6  2  0
  7  5  1  0
  8 11  1  0
  8  7  1  0
  8  9  1  1
 10  9  1  0
 11 13  1  0
 12 11  2  0
 13 14  1  0
 14 15  1  0
 15 17  2  0
 15 16  1  0
M  END
$$$$
