CCG.pdb
     RDKit          3D

 17 16  0  0  1  0  0  0  0  0999 V2000
    2.6310  -27.0782   36.1970 N   0  0  0  0  0  0  0  0  0  0  0  0
    2.2809  -26.3458   35.0210 C   0  0  1  0  0  0  0  0  0  0  0  0
    3.4314  -26.3853   34.0480 C   0  0  0  0  0  0  0  0  0  0  0  0
    4.8226  -25.3810   34.5897 S   0  0  0  0  0  0  0  0  0  0  0  0
    1.0125  -26.8126   34.4054 C   0  0  0  0  0  0  0  0  0  0  0  0
    0.6832  -28.0223   34.5011 O   0  0  0  0  0  0  0  0  0  0  0  0
    0.1271  -25.9589   33.6988 N   0  0  0  0  0  0  0  0  0  0  0  0
   -1.1245  -26.3910   33.1446 C   0  0  1  0  0  0  0  0  0  0  0  0
   -2.0975  -26.7488   34.2762 C   0  0  0  0  0  0  0  0  0  0  0  0
   -3.6634  -27.2436   33.5200 S   0  0  0  0  0  0  0  0  0  0  0  0
   -1.7865  -25.3582   32.3249 C   0  0  0  0  0  0  0  0  0  0  0  0
   -1.9575  -24.2200   32.8320 O   0  0  0  0  0  0  0  0  0  0  0  0
   -2.2404  -25.5699   31.0043 N   0  0  0  0  0  0  0  0  0  0  0  0
   -2.8055  -24.5237   30.1773 C   0  0  0  0  0  0  0  0  0  0  0  0
   -4.2803  -24.4597   30.3096 C   0  0  0  0  0  0  0  0  0  0  0  0
   -5.0398  -23.7313   29.4093 O   0  0  0  0  0  0  0  0  0  0  0  0
   -4.8788  -25.0587   31.2337 O   0  0  0  0  0  0  0  0  0  0  0  0
  2  3  1  0
  2  1  1  1
  3  4  1  0
  5  2  1  0
  5  6  2  0
  7  5  1  0
  8 11  1  0
  8  7  1  0
  8  9  1  1
 10  9  1  0
 11 13  1  0
 12 11  2  0
 13 14  1  0
 14 15  1  0
 15 17  2  0
 15 16  1  0
M  END
$$$$
