VGR.pdb
     RDKit          3D

 23 22  0  0  1  0  0  0  0  0999 V2000
   17.5289  -21.9972  -18.3182 C   0  0  0  0  0  0  0  0  0  0  0  0
   18.2129  -21.8962  -16.9749 C   0  0  2  0  0  0  0  0  0  0  0  0
   19.0628  -20.6464  -16.8858 C   0  0  0  0  0  0  0  0  0  0  0  0
   19.0679  -23.1403  -16.7466 C   0  0  2  0  0  0  0  0  0  0  0  0
   18.2395  -24.3203  -16.8073 N   0  0  0  0  0  0  0  0  0  0  0  0
   19.7209  -23.0798  -15.4162 C   0  0  0  0  0  0  0  0  0  0  0  0
   20.5877  -22.1771  -15.1740 O   0  0  0  0  0  0  0  0  0  0  0  0
   19.4156  -23.9988  -14.3864 N   0  0  0  0  0  0  0  0  0  0  0  0
   20.0179  -23.9050  -13.0805 C   0  0  0  0  0  0  0  0  0  0  0  0
   18.9502  -23.9498  -12.0364 C   0  0  0  0  0  0  0  0  0  0  0  0
   17.7449  -23.7836  -12.3763 O   0  0  0  0  0  0  0  0  0  0  0  0
   18.5717  -26.4607   -3.4905 N   0  0  0  0  0  0  0  0  0  0  0  0
   17.2419  -26.0794   -3.8336 C   0  0  0  0  0  0  0  0  0  0  0  0
   16.3296  -26.1601   -2.9329 N   0  0  0  0  0  0  0  0  0  0  0  0
   16.9665  -25.6251   -5.1505 N   0  0  0  0  0  0  0  0  0  0  0  0
   18.0761  -25.5057   -6.0819 C   0  0  0  0  0  0  0  0  0  0  0  0
   17.5348  -24.9090   -7.3692 C   0  0  0  0  0  0  0  0  0  0  0  0
   18.6627  -24.7373   -8.3517 C   0  0  0  0  0  0  0  0  0  0  0  0
   18.1827  -24.2537   -9.7015 C   0  0  2  0  0  0  0  0  0  0  0  0
   19.2425  -24.1739  -10.6676 N   0  0  0  0  0  0  0  0  0  0  0  0
   17.5910  -22.9192   -9.4826 C   0  0  0  0  0  0  0  0  0  0  0  0
   16.2903  -22.8282   -9.0428 O   0  0  0  0  0  0  0  0  0  0  0  0
   18.2443  -21.8785   -9.6877 O   0  0  0  0  0  0  0  0  0  0  0  0
  2  1  1  6
  3  2  1  0
  4  2  1  0
  4  5  1  1
  6  4  1  0
  7  6  2  0
  8  6  1  0
  9  8  1  0
 10  9  1  0
 10 20  1  0
 11 10  2  0
 13 12  1  0
 14 13  2  0
 15 13  1  0
 16 15  1  0
 17 16  1  0
 18 17  1  0
 19 18  1  1
 19 21  1  0
 20 19  1  0
 21 23  2  0
 21 22  1  0
M  END
$$$$
