VGR.pdb
     RDKit          3D

 23 22  0  0  1  0  0  0  0  0999 V2000
   25.4725  -21.9861  -17.6925 C   0  0  0  0  0  0  0  0  0  0  0  0
   26.8120  -21.2889  -17.7366 C   0  0  2  0  0  0  0  0  0  0  0  0
   27.7067  -21.8884  -18.8007 C   0  0  0  0  0  0  0  0  0  0  0  0
   27.4774  -21.3818  -16.3657 C   0  0  2  0  0  0  0  0  0  0  0  0
   27.7360  -22.7638  -16.0409 N   0  0  0  0  0  0  0  0  0  0  0  0
   26.5953  -20.8008  -15.3243 C   0  0  0  0  0  0  0  0  0  0  0  0
   26.2318  -19.5817  -15.4070 O   0  0  0  0  0  0  0  0  0  0  0  0
   26.1321  -21.5572  -14.2237 N   0  0  0  0  0  0  0  0  0  0  0  0
   25.3200  -20.9721  -13.1868 C   0  0  0  0  0  0  0  0  0  0  0  0
   23.9153  -21.4636  -13.3188 C   0  0  0  0  0  0  0  0  0  0  0  0
   23.5337  -21.9593  -14.4163 O   0  0  0  0  0  0  0  0  0  0  0  0
   18.0598  -24.4772   -7.4327 N   0  0  0  0  0  0  0  0  0  0  0  0
   17.4359  -24.6797   -8.6981 C   0  0  0  0  0  0  0  0  0  0  0  0
   16.3313  -25.3341   -8.7390 N   0  0  0  0  0  0  0  0  0  0  0  0
   18.0488  -24.1565   -9.8674 N   0  0  0  0  0  0  0  0  0  0  0  0
   19.2977  -23.4274   -9.7206 C   0  0  0  0  0  0  0  0  0  0  0  0
   19.7932  -23.0775  -11.1128 C   0  0  0  0  0  0  0  0  0  0  0  0
   21.0818  -22.3065  -11.0039 C   0  0  0  0  0  0  0  0  0  0  0  0
   21.7078  -22.0365  -12.3536 C   0  0  2  0  0  0  0  0  0  0  0  0
   22.9879  -21.3935  -12.2492 N   0  0  0  0  0  0  0  0  0  0  0  0
   20.7625  -21.1738  -13.0891 C   0  0  0  0  0  0  0  0  0  0  0  0
   20.9638  -19.8125  -13.0935 O   0  0  0  0  0  0  0  0  0  0  0  0
   19.7903  -21.6530  -13.7032 O   0  0  0  0  0  0  0  0  0  0  0  0
  2  1  1  1
  3  2  1  0
  4  2  1  0
  4  5  1  1
  6  4  1  0
  7  6  2  0
  8  6  1  0
  9  8  1  0
 10  9  1  0
 10 20  1  0
 11 10  2  0
 13 12  1  0
 14 13  2  0
 15 13  1  0
 16 15  1  0
 17 16  1  0
 18 17  1  0
 19 18  1  1
 19 21  1  0
 20 19  1  0
 21 23  2  0
 21 22  1  0
M  END
$$$$
