VGR.pdb
     RDKit          3D

 23 22  0  0  1  0  0  0  0  0999 V2000
   13.4613  -22.2526    2.7933 C   0  0  0  0  0  0  0  0  0  0  0  0
   13.3788  -21.5099    1.4803 C   0  0  2  0  0  0  0  0  0  0  0  0
   13.6556  -22.4316    0.3115 C   0  0  0  0  0  0  0  0  0  0  0  0
   14.3706  -20.3493    1.4911 C   0  0  2  0  0  0  0  0  0  0  0  0
   15.7201  -20.8596    1.4668 N   0  0  0  0  0  0  0  0  0  0  0  0
   14.1897  -19.5282    2.7131 C   0  0  0  0  0  0  0  0  0  0  0  0
   13.1042  -18.8839    2.8910 O   0  0  0  0  0  0  0  0  0  0  0  0
   15.1897  -19.4291    3.7072 N   0  0  0  0  0  0  0  0  0  0  0  0
   15.0403  -18.5676    4.8528 C   0  0  0  0  0  0  0  0  0  0  0  0
   16.3685  -17.9871    5.2148 C   0  0  0  0  0  0  0  0  0  0  0  0
   17.4009  -18.3707    4.5960 O   0  0  0  0  0  0  0  0  0  0  0  0
   20.3272  -10.8591    5.8352 N   0  0  0  0  0  0  0  0  0  0  0  0
   21.0847  -11.5171    6.8475 C   0  0  0  0  0  0  0  0  0  0  0  0
   22.1307  -10.9309    7.3086 N   0  0  0  0  0  0  0  0  0  0  0  0
   20.6646  -12.7912    7.3131 N   0  0  0  0  0  0  0  0  0  0  0  0
   19.3414  -13.2587    6.9342 C   0  0  0  0  0  0  0  0  0  0  0  0
   19.1403  -14.6281    7.5591 C   0  0  0  0  0  0  0  0  0  0  0  0
   17.7713  -15.1427    7.2016 C   0  0  0  0  0  0  0  0  0  0  0  0
   17.8160  -16.5273    6.5956 C   0  0  2  0  0  0  0  0  0  0  0  0
   16.5137  -17.0141    6.2352 N   0  0  0  0  0  0  0  0  0  0  0  0
   18.4272  -17.4091    7.6093 C   0  0  0  0  0  0  0  0  0  0  0  0
   17.6222  -18.2688    8.3210 O   0  0  0  0  0  0  0  0  0  0  0  0
   19.6529  -17.3894    7.8317 O   0  0  0  0  0  0  0  0  0  0  0  0
  2  1  1  1
  3  2  1  0
  4  2  1  0
  4  5  1  1
  6  4  1  0
  7  6  2  0
  8  6  1  0
  9  8  1  0
 10  9  1  0
 10 20  1  0
 11 10  2  0
 13 12  1  0
 14 13  2  0
 15 13  1  0
 16 15  1  0
 17 16  1  0
 18 17  1  0
 19 18  1  1
 19 21  1  0
 20 19  1  0
 21 23  2  0
 21 22  1  0
M  END
$$$$
