VGR.pdb
     RDKit          3D

 23 22  0  0  1  0  0  0  0  0999 V2000
   36.6249   -8.7808  -13.7825 C   0  0  0  0  0  0  0  0  0  0  0  0
   35.8978   -7.5478  -14.2657 C   0  0  2  0  0  0  0  0  0  0  0  0
   35.0165   -7.8629  -15.4557 C   0  0  0  0  0  0  0  0  0  0  0  0
   36.9151   -6.4679  -14.6261 C   0  0  2  0  0  0  0  0  0  0  0  0
   37.7029   -6.8967  -15.7565 N   0  0  0  0  0  0  0  0  0  0  0  0
   37.8205   -6.2098  -13.4800 C   0  0  0  0  0  0  0  0  0  0  0  0
   37.3815   -5.6065  -12.4464 O   0  0  0  0  0  0  0  0  0  0  0  0
   39.1753   -6.6129  -13.4865 N   0  0  0  0  0  0  0  0  0  0  0  0
   40.0334   -6.4137  -12.3459 C   0  0  0  0  0  0  0  0  0  0  0  0
   40.1852   -7.7032  -11.6068 C   0  0  0  0  0  0  0  0  0  0  0  0
   39.5109   -8.7078  -11.9702 O   0  0  0  0  0  0  0  0  0  0  0  0
   46.4115  -11.4432   -6.3796 N   0  0  0  0  0  0  0  0  0  0  0  0
   45.8113  -12.4272   -7.2181 C   0  0  0  0  0  0  0  0  0  0  0  0
   46.3991  -13.5619   -7.3489 N   0  0  0  0  0  0  0  0  0  0  0  0
   44.5908  -12.1270   -7.8791 N   0  0  0  0  0  0  0  0  0  0  0  0
   44.3205  -10.7415   -8.2260 C   0  0  0  0  0  0  0  0  0  0  0  0
   42.9544  -10.6904   -8.8873 C   0  0  0  0  0  0  0  0  0  0  0  0
   42.6650   -9.2790   -9.3245 C   0  0  0  0  0  0  0  0  0  0  0  0
   41.2742   -9.1270   -9.8981 C   0  0  2  0  0  0  0  0  0  0  0  0
   41.0650   -7.8418  -10.5042 N   0  0  0  0  0  0  0  0  0  0  0  0
   40.3346   -9.3206   -8.7763 C   0  0  0  0  0  0  0  0  0  0  0  0
   40.0633  -10.5984   -8.3438 O   0  0  0  0  0  0  0  0  0  0  0  0
   39.7851   -8.3529   -8.2163 O   0  0  0  0  0  0  0  0  0  0  0  0
  2  1  1  6
  3  2  1  0
  4  2  1  0
  4  5  1  6
  6  4  1  0
  7  6  2  0
  8  6  1  0
  9  8  1  0
 10  9  1  0
 10 20  1  0
 11 10  2  0
 13 12  1  0
 14 13  2  0
 15 13  1  0
 16 15  1  0
 17 16  1  0
 18 17  1  0
 19 18  1  1
 19 21  1  0
 20 19  1  0
 21 23  2  0
 21 22  1  0
M  END
$$$$
