WHT.pdb
     RDKit          3D

 32 34  0  0  1  0  0  0  0  0999 V2000
    8.2198  -15.8616   26.2130 N   0  0  0  0  0  0  0  0  0  0  0  0
    7.8265  -16.6845   25.1149 C   0  0  1  0  0  0  0  0  0  0  0  0
    7.3036  -15.9028   23.9366 C   0  0  0  0  0  0  0  0  0  0  0  0
    7.4288  -14.4527   24.0944 C   0  0  0  0  0  0  0  0  0  0  0  0
    8.0344  -13.6092   23.1956 C   0  0  0  0  0  0  0  0  0  0  0  0
    7.9575  -12.3655   23.6740 N   0  0  0  0  0  0  0  0  0  0  0  0
    7.3247  -12.3313   24.8597 C   0  0  0  0  0  0  0  0  0  0  0  0
    6.9890  -11.3220   25.7555 C   0  0  0  0  0  0  0  0  0  0  0  0
    6.3218  -11.5984   26.9212 C   0  0  0  0  0  0  0  0  0  0  0  0
    5.9837  -12.9142   27.1952 C   0  0  0  0  0  0  0  0  0  0  0  0
    6.3142  -13.9159   26.3110 C   0  0  0  0  0  0  0  0  0  0  0  0
    6.9874  -13.6572   25.1296 C   0  0  0  0  0  0  0  0  0  0  0  0
    8.9374  -17.5547   24.6512 C   0  0  0  0  0  0  0  0  0  0  0  0
   10.1115  -17.2692   24.9896 O   0  0  0  0  0  0  0  0  0  0  0  0
    8.7079  -18.6904   23.8426 N   0  0  0  0  0  0  0  0  0  0  0  0
    9.8328  -19.5746   23.4598 C   0  0  1  0  0  0  0  0  0  0  0  0
    9.4304  -20.9692   23.7873 C   0  0  0  0  0  0  0  0  0  0  0  0
    9.6017  -21.3332   25.2036 C   0  0  0  0  0  0  0  0  0  0  0  0
   10.1569  -20.4786   26.1610 C   0  0  0  0  0  0  0  0  0  0  0  0
   10.1840  -21.0817   27.3575 N   0  0  0  0  0  0  0  0  0  0  0  0
    9.6578  -22.2987   27.1755 C   0  0  0  0  0  0  0  0  0  0  0  0
    9.3118  -22.4447   25.8896 N   0  0  0  0  0  0  0  0  0  0  0  0
   10.1704  -19.3300   22.0414 C   0  0  0  0  0  0  0  0  0  0  0  0
    9.3130  -19.1499   21.1605 O   0  0  0  0  0  0  0  0  0  0  0  0
   12.7001  -16.7831   20.6535 C   0  0  0  0  0  0  0  0  0  0  0  0
   13.1114  -18.1628   20.2058 C   0  0  1  0  0  0  0  0  0  0  0  0
   14.0682  -18.6700   21.0576 O   0  0  0  0  0  0  0  0  0  0  0  0
   11.8802  -19.0447   20.2587 C   0  0  2  0  0  0  0  0  0  0  0  0
   11.5320  -19.2912   21.6225 N   0  0  0  0  0  0  0  0  0  0  0  0
   12.2097  -20.3123   19.5919 C   0  0  0  0  0  0  0  0  0  0  0  0
   12.5084  -20.3226   18.2417 O   0  0  0  0  0  0  0  0  0  0  0  0
   12.2384  -21.4213   20.1886 O   0  0  0  0  0  0  0  0  0  0  0  0
  2  1  1  1
  3  2  1  0
  3  4  1  0
  4  5  2  0
  5  6  1  0
  7  6  1  0
  8  7  2  0
  9  8  1  0
 10 11  1  0
 10  9  2  0
 11 12  2  0
 12  4  1  0
 12  7  1  0
 13 14  2  0
 13  2  1  0
 15 13  1  0
 16 15  1  0
 16 17  1  6
 18 22  1  0
 18 17  1  0
 19 18  2  0
 20 19  1  0
 20 21  1  0
 21 22  2  0
 23 16  1  0
 24 23  2  0
 26 25  1  1
 27 26  1  0
 28 26  1  0
 28 29  1  1
 29 23  1  0
 30 28  1  0
 31 30  1  0
 32 30  2  0
M  END
$$$$
