WHT.pdb
     RDKit          3D

 32 34  0  0  1  0  0  0  0  0999 V2000
    6.1208  -17.4094   24.1279 N   0  0  0  0  0  0  0  0  0  0  0  0
    7.2194  -16.5054   24.0113 C   0  0  1  0  0  0  0  0  0  0  0  0
    7.7612  -16.0450   25.3407 C   0  0  0  0  0  0  0  0  0  0  0  0
    6.9695  -14.9792   25.9577 C   0  0  0  0  0  0  0  0  0  0  0  0
    5.7588  -15.1543   26.5822 C   0  0  0  0  0  0  0  0  0  0  0  0
    5.3394  -13.9649   27.0193 N   0  0  0  0  0  0  0  0  0  0  0  0
    6.2158  -12.9912   26.7170 C   0  0  0  0  0  0  0  0  0  0  0  0
    6.2600  -11.6186   26.9359 C   0  0  0  0  0  0  0  0  0  0  0  0
    7.3166  -10.8621   26.4980 C   0  0  0  0  0  0  0  0  0  0  0  0
    8.3510  -11.4942   25.8264 C   0  0  0  0  0  0  0  0  0  0  0  0
    8.3108  -12.8527   25.6078 C   0  0  0  0  0  0  0  0  0  0  0  0
    7.2534  -13.6332   26.0419 C   0  0  0  0  0  0  0  0  0  0  0  0
    8.3339  -17.0895   23.2219 C   0  0  0  0  0  0  0  0  0  0  0  0
    8.4754  -18.3362   23.2054 O   0  0  0  0  0  0  0  0  0  0  0  0
    9.2349  -16.2819   22.4923 N   0  0  0  0  0  0  0  0  0  0  0  0
   10.4947  -16.8560   21.9658 C   0  0  1  0  0  0  0  0  0  0  0  0
   10.9007  -16.0322   20.7951 C   0  0  0  0  0  0  0  0  0  0  0  0
    9.9030  -15.9819   19.7135 C   0  0  0  0  0  0  0  0  0  0  0  0
    9.1323  -17.0801   19.3193 C   0  0  0  0  0  0  0  0  0  0  0  0
    8.3155  -16.7337   18.3149 N   0  0  0  0  0  0  0  0  0  0  0  0
    8.5542  -15.4405   18.0669 C   0  0  0  0  0  0  0  0  0  0  0  0
    9.5017  -14.9959   18.9031 N   0  0  0  0  0  0  0  0  0  0  0  0
   11.4824  -16.9256   23.0635 C   0  0  0  0  0  0  0  0  0  0  0  0
   12.3253  -16.0380   23.2763 O   0  0  0  0  0  0  0  0  0  0  0  0
   11.2906  -16.6264   26.5482 C   0  0  0  0  0  0  0  0  0  0  0  0
   11.7063  -18.0601   26.3369 C   0  0  1  0  0  0  0  0  0  0  0  0
   10.5938  -18.8707   26.2781 O   0  0  0  0  0  0  0  0  0  0  0  0
   12.4437  -18.1304   25.0149 C   0  0  2  0  0  0  0  0  0  0  0  0
   11.5030  -18.0473   23.9425 N   0  0  0  0  0  0  0  0  0  0  0  0
   13.1456  -19.4206   24.9628 C   0  0  0  0  0  0  0  0  0  0  0  0
   14.2223  -19.6528   25.7989 O   0  0  0  0  0  0  0  0  0  0  0  0
   12.8197  -20.3549   24.1832 O   0  0  0  0  0  0  0  0  0  0  0  0
  2  1  1  1
  3  2  1  0
  3  4  1  0
  4  5  2  0
  5  6  1  0
  7  6  1  0
  8  7  2  0
  9  8  1  0
 10 11  1  0
 10  9  2  0
 11 12  2  0
 12  4  1  0
 12  7  1  0
 13 14  2  0
 13  2  1  0
 15 13  1  0
 16 15  1  0
 16 17  1  6
 18 22  1  0
 18 17  1  0
 19 18  2  0
 20 19  1  0
 20 21  1  0
 21 22  2  0
 23 16  1  0
 24 23  2  0
 26 25  1  6
 27 26  1  0
 28 26  1  0
 28 29  1  6
 29 23  1  0
 30 28  1  0
 31 30  1  0
 32 30  2  0
M  END
$$$$
