WHT.pdb
     RDKit          3D

 32 34  0  0  1  0  0  0  0  0999 V2000
    6.2098  -18.0299   25.1102 N   0  0  0  0  0  0  0  0  0  0  0  0
    6.9221  -16.9978   24.4282 C   0  0  1  0  0  0  0  0  0  0  0  0
    7.7427  -16.1279   25.3460 C   0  0  0  0  0  0  0  0  0  0  0  0
    7.0022  -14.9870   25.8877 C   0  0  0  0  0  0  0  0  0  0  0  0
    5.8434  -15.0725   26.6200 C   0  0  0  0  0  0  0  0  0  0  0  0
    5.4602  -13.8346   26.9400 N   0  0  0  0  0  0  0  0  0  0  0  0
    6.3115  -12.9139   26.4550 C   0  0  0  0  0  0  0  0  0  0  0  0
    6.3737  -11.5254   26.5012 C   0  0  0  0  0  0  0  0  0  0  0  0
    7.3939  -10.8385   25.8946 C   0  0  0  0  0  0  0  0  0  0  0  0
    8.3726  -11.5581   25.2275 C   0  0  0  0  0  0  0  0  0  0  0  0
    8.3143  -12.9326   25.1796 C   0  0  0  0  0  0  0  0  0  0  0  0
    7.2930  -13.6437   25.7854 C   0  0  0  0  0  0  0  0  0  0  0  0
    7.8124  -17.5458   23.3729 C   0  0  0  0  0  0  0  0  0  0  0  0
    8.4140  -18.6255   23.5893 O   0  0  0  0  0  0  0  0  0  0  0  0
    7.9989  -16.8861   22.1375 N   0  0  0  0  0  0  0  0  0  0  0  0
    9.0707  -17.3213   21.2125 C   0  0  1  0  0  0  0  0  0  0  0  0
    8.8411  -16.6321   19.9139 C   0  0  0  0  0  0  0  0  0  0  0  0
    9.7618  -17.0396   18.8397 C   0  0  0  0  0  0  0  0  0  0  0  0
   10.8223  -17.9318   19.0258 C   0  0  0  0  0  0  0  0  0  0  0  0
   11.4827  -18.1103   17.8735 N   0  0  0  0  0  0  0  0  0  0  0  0
   10.8616  -17.3498   16.9641 C   0  0  0  0  0  0  0  0  0  0  0  0
    9.8358  -16.7129   17.5444 N   0  0  0  0  0  0  0  0  0  0  0  0
   10.3813  -17.0598   21.8445 C   0  0  0  0  0  0  0  0  0  0  0  0
   10.7503  -15.9280   22.2000 O   0  0  0  0  0  0  0  0  0  0  0  0
   12.0158  -18.1049   24.9841 C   0  0  0  0  0  0  0  0  0  0  0  0
   12.7819  -18.7505   23.8575 C   0  0  1  0  0  0  0  0  0  0  0  0
   12.2845  -20.0112   23.6096 O   0  0  0  0  0  0  0  0  0  0  0  0
   12.5917  -17.8893   22.6252 C   0  0  2  0  0  0  0  0  0  0  0  0
   11.2949  -18.1291   22.0749 N   0  0  0  0  0  0  0  0  0  0  0  0
   13.6242  -18.2694   21.6508 C   0  0  0  0  0  0  0  0  0  0  0  0
   14.9410  -17.9061   21.8660 O   0  0  0  0  0  0  0  0  0  0  0  0
   13.3793  -18.9237   20.6025 O   0  0  0  0  0  0  0  0  0  0  0  0
  2  1  1  1
  3  2  1  0
  3  4  1  0
  4  5  2  0
  5  6  1  0
  7  6  1  0
  8  7  2  0
  9  8  1  0
 10 11  1  0
 10  9  2  0
 11 12  2  0
 12  4  1  0
 12  7  1  0
 13 14  2  0
 13  2  1  0
 15 13  1  0
 16 15  1  0
 16 17  1  6
 18 22  1  0
 18 17  1  0
 19 18  2  0
 20 19  1  0
 20 21  1  0
 21 22  2  0
 23 16  1  0
 24 23  2  0
 26 25  1  1
 27 26  1  0
 28 26  1  0
 28 29  1  6
 29 23  1  0
 30 28  1  0
 31 30  1  0
 32 30  2  0
M  END
$$$$
