WHT.pdb
     RDKit          3D

 32 34  0  0  1  0  0  0  0  0999 V2000
    9.9080  -16.2648   21.7467 N   0  0  0  0  0  0  0  0  0  0  0  0
    9.3477  -15.8778   23.0013 C   0  0  1  0  0  0  0  0  0  0  0  0
    7.8501  -15.7092   22.9631 C   0  0  0  0  0  0  0  0  0  0  0  0
    7.4182  -14.4530   22.3478 C   0  0  0  0  0  0  0  0  0  0  0  0
    7.0411  -14.3043   21.0356 C   0  0  0  0  0  0  0  0  0  0  0  0
    6.7144  -13.0253   20.8380 N   0  0  0  0  0  0  0  0  0  0  0  0
    6.8545  -12.3012   21.9621 C   0  0  0  0  0  0  0  0  0  0  0  0
    6.6536  -10.9650   22.2909 C   0  0  0  0  0  0  0  0  0  0  0  0
    6.8877  -10.5019   23.5602 C   0  0  0  0  0  0  0  0  0  0  0  0
    7.3325  -11.3965   24.5206 C   0  0  0  0  0  0  0  0  0  0  0  0
    7.5324  -12.7199   24.1989 C   0  0  0  0  0  0  0  0  0  0  0  0
    7.3019  -13.2064   22.9239 C   0  0  0  0  0  0  0  0  0  0  0  0
    9.6890  -16.8411   24.0793 C   0  0  0  0  0  0  0  0  0  0  0  0
    8.9775  -16.8702   25.1124 O   0  0  0  0  0  0  0  0  0  0  0  0
   10.7889  -17.7216   23.9724 N   0  0  0  0  0  0  0  0  0  0  0  0
   11.1718  -18.5810   25.1163 C   0  0  1  0  0  0  0  0  0  0  0  0
   12.2314  -19.5092   24.6369 C   0  0  0  0  0  0  0  0  0  0  0  0
   12.6792  -20.4889   25.6406 C   0  0  0  0  0  0  0  0  0  0  0  0
   12.1706  -20.5520   26.9417 C   0  0  0  0  0  0  0  0  0  0  0  0
   12.7669  -21.5404   27.6226 N   0  0  0  0  0  0  0  0  0  0  0  0
   13.6408  -22.1023   26.7790 C   0  0  0  0  0  0  0  0  0  0  0  0
   13.5854  -21.4723   25.5981 N   0  0  0  0  0  0  0  0  0  0  0  0
   11.5540  -17.7181   26.2542 C   0  0  0  0  0  0  0  0  0  0  0  0
   12.4552  -16.8654   26.1875 O   0  0  0  0  0  0  0  0  0  0  0  0
   10.3207  -14.9903   27.6394 C   0  0  0  0  0  0  0  0  0  0  0  0
   10.2035  -15.9357   28.8079 C   0  0  1  0  0  0  0  0  0  0  0  0
    8.9504  -16.5080   28.8286 O   0  0  0  0  0  0  0  0  0  0  0  0
   11.2437  -17.0218   28.6211 C   0  0  2  0  0  0  0  0  0  0  0  0
   10.8818  -17.8377   27.5052 N   0  0  0  0  0  0  0  0  0  0  0  0
   11.2660  -17.8343   29.8456 C   0  0  0  0  0  0  0  0  0  0  0  0
   11.6685  -17.2671   31.0409 O   0  0  0  0  0  0  0  0  0  0  0  0
   10.9325  -19.0486   29.8768 O   0  0  0  0  0  0  0  0  0  0  0  0
  2  1  1  6
  3  2  1  0
  3  4  1  0
  4  5  2  0
  5  6  1  0
  7  6  1  0
  8  7  2  0
  9  8  1  0
 10 11  1  0
 10  9  2  0
 11 12  2  0
 12  4  1  0
 12  7  1  0
 13 14  2  0
 13  2  1  0
 15 13  1  0
 16 15  1  0
 16 17  1  6
 18 22  1  0
 18 17  1  0
 19 18  2  0
 20 19  1  0
 20 21  1  0
 21 22  2  0
 23 16  1  0
 24 23  2  0
 26 25  1  6
 27 26  1  0
 28 26  1  0
 28 29  1  6
 29 23  1  0
 30 28  1  0
 31 30  1  0
 32 30  2  0
M  END
$$$$
