WHT.pdb
     RDKit          3D

 32 34  0  0  1  0  0  0  0  0999 V2000
    6.5798  -17.7717   25.2254 N   0  0  0  0  0  0  0  0  0  0  0  0
    6.9541  -16.4902   24.7201 C   0  0  1  0  0  0  0  0  0  0  0  0
    8.1061  -15.8648   25.4647 C   0  0  0  0  0  0  0  0  0  0  0  0
    7.6879  -14.9321   26.5128 C   0  0  0  0  0  0  0  0  0  0  0  0
    7.2949  -15.2905   27.7791 C   0  0  0  0  0  0  0  0  0  0  0  0
    6.9879  -14.1787   28.4507 N   0  0  0  0  0  0  0  0  0  0  0  0
    7.1566  -13.0816   27.6920 C   0  0  0  0  0  0  0  0  0  0  0  0
    6.9844  -11.7176   27.9007 C   0  0  0  0  0  0  0  0  0  0  0  0
    7.2450  -10.8077   26.9084 C   0  0  0  0  0  0  0  0  0  0  0  0
    7.6876  -11.2744   25.6808 C   0  0  0  0  0  0  0  0  0  0  0  0
    7.8593  -12.6239   25.4706 C   0  0  0  0  0  0  0  0  0  0  0  0
    7.6017  -13.5576   26.4592 C   0  0  0  0  0  0  0  0  0  0  0  0
    7.2969  -16.5446   23.2758 C   0  0  0  0  0  0  0  0  0  0  0  0
    7.6534  -17.6405   22.7793 O   0  0  0  0  0  0  0  0  0  0  0  0
    7.2326  -15.4000   22.4499 N   0  0  0  0  0  0  0  0  0  0  0  0
    7.7372  -15.4534   21.0584 C   0  0  1  0  0  0  0  0  0  0  0  0
    7.2191  -14.2497   20.3536 C   0  0  0  0  0  0  0  0  0  0  0  0
    7.5851  -14.1762   18.9294 C   0  0  0  0  0  0  0  0  0  0  0  0
    8.3692  -13.1552   18.3832 C   0  0  0  0  0  0  0  0  0  0  0  0
    8.5341  -13.3537   17.0681 N   0  0  0  0  0  0  0  0  0  0  0  0
    7.8710  -14.4780   16.7729 C   0  0  0  0  0  0  0  0  0  0  0  0
    7.3064  -14.9654   17.8856 N   0  0  0  0  0  0  0  0  0  0  0  0
    9.2095  -15.5836   21.0897 C   0  0  0  0  0  0  0  0  0  0  0  0
    9.9373  -14.8901   21.8197 O   0  0  0  0  0  0  0  0  0  0  0  0
   11.5091  -17.9571   22.2726 C   0  0  0  0  0  0  0  0  0  0  0  0
   11.7058  -17.9924   20.7782 C   0  0  1  0  0  0  0  0  0  0  0  0
   10.9114  -18.9701   20.2202 O   0  0  0  0  0  0  0  0  0  0  0  0
   11.2900  -16.6414   20.2320 C   0  0  2  0  0  0  0  0  0  0  0  0
    9.8650  -16.5378   20.2586 N   0  0  0  0  0  0  0  0  0  0  0  0
   11.7700  -16.5530   18.8458 C   0  0  0  0  0  0  0  0  0  0  0  0
   13.1216  -16.4050   18.5933 O   0  0  0  0  0  0  0  0  0  0  0  0
   11.0074  -16.6050   17.8445 O   0  0  0  0  0  0  0  0  0  0  0  0
  2  1  1  1
  3  2  1  0
  3  4  1  0
  4  5  2  0
  5  6  1  0
  7  6  1  0
  8  7  2  0
  9  8  1  0
 10 11  1  0
 10  9  2  0
 11 12  2  0
 12  4  1  0
 12  7  1  0
 13 14  2  0
 13  2  1  0
 15 13  1  0
 16 15  1  0
 16 17  1  6
 18 22  1  0
 18 17  1  0
 19 18  2  0
 20 19  1  0
 20 21  1  0
 21 22  2  0
 23 16  1  0
 24 23  2  0
 26 25  1  1
 27 26  1  0
 28 26  1  0
 28 29  1  6
 29 23  1  0
 30 28  1  0
 31 30  1  0
 32 30  2  0
M  END
$$$$
