WHT.pdb
     RDKit          3D

 32 34  0  0  1  0  0  0  0  0999 V2000
    6.2420  -16.9109   23.0049 N   0  0  0  0  0  0  0  0  0  0  0  0
    7.2983  -15.9507   23.0011 C   0  0  1  0  0  0  0  0  0  0  0  0
    7.9305  -15.7490   24.3547 C   0  0  0  0  0  0  0  0  0  0  0  0
    7.0697  -15.0391   25.3026 C   0  0  0  0  0  0  0  0  0  0  0  0
    6.0854  -15.6198   26.0644 C   0  0  0  0  0  0  0  0  0  0  0  0
    5.5143  -14.6670   26.8044 N   0  0  0  0  0  0  0  0  0  0  0  0
    6.0710  -13.4647   26.5757 C   0  0  0  0  0  0  0  0  0  0  0  0
    5.8555  -12.1824   27.0687 C   0  0  0  0  0  0  0  0  0  0  0  0
    6.6035  -11.1183   26.6342 C   0  0  0  0  0  0  0  0  0  0  0  0
    7.5884  -11.3439   25.6856 C   0  0  0  0  0  0  0  0  0  0  0  0
    7.8046  -12.6118   25.1954 C   0  0  0  0  0  0  0  0  0  0  0  0
    7.0604  -13.6983   25.6212 C   0  0  0  0  0  0  0  0  0  0  0  0
    8.3635  -16.3053   22.0285 C   0  0  0  0  0  0  0  0  0  0  0  0
    8.5706  -17.5161   21.7725 O   0  0  0  0  0  0  0  0  0  0  0  0
    9.1463  -15.3195   21.3868 N   0  0  0  0  0  0  0  0  0  0  0  0
   10.2280  -15.7141   20.4551 C   0  0  1  0  0  0  0  0  0  0  0  0
   10.4123  -14.5949   19.4921 C   0  0  0  0  0  0  0  0  0  0  0  0
    9.2906  -14.4084   18.5569 C   0  0  0  0  0  0  0  0  0  0  0  0
    8.2189  -15.2998   18.4455 C   0  0  0  0  0  0  0  0  0  0  0  0
    7.3555  -14.8692   17.5154 N   0  0  0  0  0  0  0  0  0  0  0  0
    7.8594  -13.7252   17.0375 C   0  0  0  0  0  0  0  0  0  0  0  0
    9.0134  -13.4539   17.6612 N   0  0  0  0  0  0  0  0  0  0  0  0
   11.4264  -16.0759   21.2416 C   0  0  0  0  0  0  0  0  0  0  0  0
   12.4335  -15.3524   21.3167 O   0  0  0  0  0  0  0  0  0  0  0  0
   11.9669  -16.8361   24.8609 C   0  0  0  0  0  0  0  0  0  0  0  0
   12.2502  -18.1011   24.0912 C   0  0  1  0  0  0  0  0  0  0  0  0
   11.1198  -18.8873   24.0420 O   0  0  0  0  0  0  0  0  0  0  0  0
   12.6388  -17.6998   22.6825 C   0  0  2  0  0  0  0  0  0  0  0  0
   11.4694  -17.3044   21.9627 N   0  0  0  0  0  0  0  0  0  0  0  0
   13.2492  -18.8704   22.0367 C   0  0  0  0  0  0  0  0  0  0  0  0
   14.4814  -19.3289   22.4655 O   0  0  0  0  0  0  0  0  0  0  0  0
   12.7062  -19.5008   21.0909 O   0  0  0  0  0  0  0  0  0  0  0  0
  2  1  1  1
  3  2  1  0
  3  4  1  0
  4  5  2  0
  5  6  1  0
  7  6  1  0
  8  7  2  0
  9  8  1  0
 10 11  1  0
 10  9  2  0
 11 12  2  0
 12  4  1  0
 12  7  1  0
 13 14  2  0
 13  2  1  0
 15 13  1  0
 16 15  1  0
 16 17  1  6
 18 22  1  0
 18 17  1  0
 19 18  2  0
 20 19  1  0
 20 21  1  0
 21 22  2  0
 23 16  1  0
 24 23  2  0
 26 25  1  1
 27 26  1  0
 28 26  1  0
 28 29  1  6
 29 23  1  0
 30 28  1  0
 31 30  1  0
 32 30  2  0
M  END
$$$$
