WHT.pdb
     RDKit          3D

 32 34  0  0  1  0  0  0  0  0999 V2000
    6.0402  -18.5182   24.7456 N   0  0  0  0  0  0  0  0  0  0  0  0
    6.3793  -17.1524   24.5063 C   0  0  1  0  0  0  0  0  0  0  0  0
    7.2055  -16.5377   25.6073 C   0  0  0  0  0  0  0  0  0  0  0  0
    6.7009  -15.2412   26.0632 C   0  0  0  0  0  0  0  0  0  0  0  0
    5.4630  -15.0255   26.6175 C   0  0  0  0  0  0  0  0  0  0  0  0
    5.3569  -13.7270   26.9083 N   0  0  0  0  0  0  0  0  0  0  0  0
    6.4719  -13.0541   26.5741 C   0  0  0  0  0  0  0  0  0  0  0  0
    6.8699  -11.7246   26.6623 C   0  0  0  0  0  0  0  0  0  0  0  0
    8.1062  -11.3218   26.2266 C   0  0  0  0  0  0  0  0  0  0  0  0
    8.9620  -12.2714   25.6912 C   0  0  0  0  0  0  0  0  0  0  0  0
    8.5715  -13.5884   25.6024 C   0  0  0  0  0  0  0  0  0  0  0  0
    7.3283  -14.0144   26.0365 C   0  0  0  0  0  0  0  0  0  0  0  0
    7.1008  -16.9798   23.2194 C   0  0  0  0  0  0  0  0  0  0  0  0
    7.7894  -17.9320   22.7792 O   0  0  0  0  0  0  0  0  0  0  0  0
    7.0326  -15.7770   22.4812 N   0  0  0  0  0  0  0  0  0  0  0  0
    7.7510  -15.6497   21.1922 C   0  0  1  0  0  0  0  0  0  0  0  0
    7.1607  -14.4907   20.4695 C   0  0  0  0  0  0  0  0  0  0  0  0
    7.7350  -14.2515   19.1350 C   0  0  0  0  0  0  0  0  0  0  0  0
    8.4602  -13.1043   18.7985 C   0  0  0  0  0  0  0  0  0  0  0  0
    8.8547  -13.1666   17.5193 N   0  0  0  0  0  0  0  0  0  0  0  0
    8.3939  -14.3287   17.0414 C   0  0  0  0  0  0  0  0  0  0  0  0
    7.7267  -14.9727   18.0081 N   0  0  0  0  0  0  0  0  0  0  0  0
    9.2015  -15.5549   21.4620 C   0  0  0  0  0  0  0  0  0  0  0  0
    9.6883  -14.7675   22.2907 O   0  0  0  0  0  0  0  0  0  0  0  0
   11.6315  -17.6436   22.9666 C   0  0  0  0  0  0  0  0  0  0  0  0
   12.0708  -17.5632   21.5267 C   0  0  1  0  0  0  0  0  0  0  0  0
   11.5514  -18.6222   20.8145 O   0  0  0  0  0  0  0  0  0  0  0  0
   11.5297  -16.2673   20.9571 C   0  0  2  0  0  0  0  0  0  0  0  0
   10.1196  -16.3885   20.7598 N   0  0  0  0  0  0  0  0  0  0  0  0
   12.1948  -16.0340   19.6674 C   0  0  0  0  0  0  0  0  0  0  0  0
   13.5273  -15.6655   19.6367 O   0  0  0  0  0  0  0  0  0  0  0  0
   11.6121  -16.1517   18.5569 O   0  0  0  0  0  0  0  0  0  0  0  0
  2  1  1  1
  3  2  1  0
  3  4  1  0
  4  5  2  0
  5  6  1  0
  7  6  1  0
  8  7  2  0
  9  8  1  0
 10 11  1  0
 10  9  2  0
 11 12  2  0
 12  4  1  0
 12  7  1  0
 13 14  2  0
 13  2  1  0
 15 13  1  0
 16 15  1  0
 16 17  1  1
 18 22  1  0
 18 17  1  0
 19 18  2  0
 20 19  1  0
 20 21  1  0
 21 22  2  0
 23 16  1  0
 24 23  2  0
 26 25  1  1
 27 26  1  0
 28 26  1  0
 28 29  1  6
 29 23  1  0
 30 28  1  0
 31 30  1  0
 32 30  2  0
M  END
$$$$
