WWY.pdb
     RDKit          3D

 41 45  0  0  1  0  0  0  0  0999 V2000
    8.8200  -17.1119   20.5004 N   0  0  0  0  0  0  0  0  0  0  0  0
    8.7533  -15.6947   20.6426 C   0  0  1  0  0  0  0  0  0  0  0  0
    7.4181  -15.1136   20.2395 C   0  0  0  0  0  0  0  0  0  0  0  0
    7.2066  -15.1775   18.7768 C   0  0  0  0  0  0  0  0  0  0  0  0
    6.6510  -16.2376   18.0872 C   0  0  0  0  0  0  0  0  0  0  0  0
    6.6189  -15.9326   16.7637 N   0  0  0  0  0  0  0  0  0  0  0  0
    7.1356  -14.7077   16.5670 C   0  0  0  0  0  0  0  0  0  0  0  0
    7.3437  -13.9213   15.4567 C   0  0  0  0  0  0  0  0  0  0  0  0
    7.9112  -12.6737   15.5789 C   0  0  0  0  0  0  0  0  0  0  0  0
    8.2817  -12.1837   16.7981 C   0  0  0  0  0  0  0  0  0  0  0  0
    8.0733  -12.9714   17.9113 C   0  0  0  0  0  0  0  0  0  0  0  0
    7.5073  -14.2269   17.8284 C   0  0  0  0  0  0  0  0  0  0  0  0
    9.0941  -15.3315   22.0366 C   0  0  0  0  0  0  0  0  0  0  0  0
    9.2583  -14.1318   22.3628 O   0  0  0  0  0  0  0  0  0  0  0  0
    9.2307  -16.3709   22.9927 N   0  0  0  0  0  0  0  0  0  0  0  0
    9.6081  -16.0539   24.3463 C   0  0  1  0  0  0  0  0  0  0  0  0
    8.6465  -16.5435   25.3826 C   0  0  0  0  0  0  0  0  0  0  0  0
    7.5093  -15.6522   25.6308 C   0  0  0  0  0  0  0  0  0  0  0  0
    6.2022  -16.0461   25.8098 C   0  0  0  0  0  0  0  0  0  0  0  0
    5.4196  -14.9812   26.0367 N   0  0  0  0  0  0  0  0  0  0  0  0
    6.2185  -13.9019   26.0039 C   0  0  0  0  0  0  0  0  0  0  0  0
    5.9145  -12.5731   26.1708 C   0  0  0  0  0  0  0  0  0  0  0  0
    6.8881  -11.6014   26.0932 C   0  0  0  0  0  0  0  0  0  0  0  0
    8.1859  -11.9912   25.8423 C   0  0  0  0  0  0  0  0  0  0  0  0
    8.4985  -13.3420   25.6723 C   0  0  0  0  0  0  0  0  0  0  0  0
    7.5313  -14.2933   25.7513 C   0  0  0  0  0  0  0  0  0  0  0  0
   10.9875  -16.5606   24.5731 C   0  0  0  0  0  0  0  0  0  0  0  0
   11.2761  -17.7768   24.4418 O   0  0  0  0  0  0  0  0  0  0  0  0
    9.1146  -16.6066   30.5313 O   0  0  0  0  0  0  0  0  0  0  0  0
   10.1552  -16.3148   29.6490 C   0  0  0  0  0  0  0  0  0  0  0  0
   11.2183  -17.1564   29.5240 C   0  0  0  0  0  0  0  0  0  0  0  0
   12.2518  -16.8670   28.6481 C   0  0  0  0  0  0  0  0  0  0  0  0
   12.1856  -15.7070   27.9016 C   0  0  0  0  0  0  0  0  0  0  0  0
   13.2399  -15.3260   26.9590 C   0  0  0  0  0  0  0  0  0  0  0  0
   13.1673  -16.1812   25.7131 C   0  0  2  0  0  0  0  0  0  0  0  0
   12.0268  -15.6721   24.9480 N   0  0  0  0  0  0  0  0  0  0  0  0
   13.0168  -17.6194   25.9889 C   0  0  0  0  0  0  0  0  0  0  0  0
   13.9726  -18.3470   26.3456 O   0  0  0  0  0  0  0  0  0  0  0  0
   11.1042  -14.8342   28.0174 C   0  0  0  0  0  0  0  0  0  0  0  0
   10.1043  -15.1666   28.9004 C   0  0  0  0  0  0  0  0  0  0  0  0
   11.7781  -18.2517   25.8631 O   0  0  0  0  0  0  0  0  0  0  0  0
  2  3  1  0
  2  1  1  1
  4  3  1  0
  4  5  2  0
  6  5  1  0
  7  6  1  0
  8  7  2  0
  9  8  1  0
 10  9  2  0
 10 11  1  0
 11 12  2  0
 12  7  1  0
 12  4  1  0
 13  2  1  0
 14 13  2  0
 15 13  1  0
 16 27  1  0
 16 15  1  0
 16 17  1  1
 18 17  1  0
 18 26  1  0
 19 20  1  0
 19 18  2  0
 20 21  1  0
 21 22  2  0
 21 26  1  0
 22 23  1  0
 23 24  2  0
 25 24  1  0
 26 25  2  0
 27 36  1  0
 28 27  2  0
 29 30  1  0
 30 40  2  0
 31 30  1  0
 31 32  2  0
 32 33  1  0
 33 39  2  0
 33 34  1  0
 35 34  1  1
 35 37  1  0
 36 35  1  0
 37 38  2  0
 37 41  1  0
 40 39  1  0
M  END
$$$$
