WWY.pdb
     RDKit          3D

 41 45  0  0  1  0  0  0  0  0999 V2000
    7.8165  -18.2523   20.7871 N   0  0  0  0  0  0  0  0  0  0  0  0
    7.7097  -16.9246   21.2962 C   0  0  1  0  0  0  0  0  0  0  0  0
    6.7612  -16.0537   20.5059 C   0  0  0  0  0  0  0  0  0  0  0  0
    7.4711  -14.9704   19.7913 C   0  0  0  0  0  0  0  0  0  0  0  0
    6.8863  -14.0282   18.9677 C   0  0  0  0  0  0  0  0  0  0  0  0
    7.8522  -13.1990   18.4932 N   0  0  0  0  0  0  0  0  0  0  0  0
    9.0487  -13.5694   18.9802 C   0  0  0  0  0  0  0  0  0  0  0  0
   10.3327  -13.0962   18.8326 C   0  0  0  0  0  0  0  0  0  0  0  0
   11.3825  -13.7070   19.4793 C   0  0  0  0  0  0  0  0  0  0  0  0
   11.1810  -14.7936   20.2809 C   0  0  0  0  0  0  0  0  0  0  0  0
    9.8943  -15.2683   20.4292 C   0  0  0  0  0  0  0  0  0  0  0  0
    8.8168  -14.6826   19.7972 C   0  0  0  0  0  0  0  0  0  0  0  0
    7.3174  -16.9832   22.7224 C   0  0  0  0  0  0  0  0  0  0  0  0
    6.1473  -17.2917   23.0513 O   0  0  0  0  0  0  0  0  0  0  0  0
    8.2946  -16.6823   23.7060 N   0  0  0  0  0  0  0  0  0  0  0  0
    9.1691  -15.5519   23.5246 C   0  0  1  0  0  0  0  0  0  0  0  0
    8.4959  -14.2243   23.6757 C   0  0  0  0  0  0  0  0  0  0  0  0
    7.5631  -14.1369   24.8032 C   0  0  0  0  0  0  0  0  0  0  0  0
    6.8725  -15.1899   25.3599 C   0  0  0  0  0  0  0  0  0  0  0  0
    6.1230  -14.7665   26.3880 N   0  0  0  0  0  0  0  0  0  0  0  0
    6.3282  -13.4434   26.4954 C   0  0  0  0  0  0  0  0  0  0  0  0
    5.7974  -12.5365   27.3794 C   0  0  0  0  0  0  0  0  0  0  0  0
    6.1323  -11.2013   27.3221 C   0  0  0  0  0  0  0  0  0  0  0  0
    7.0189  -10.7883   26.3512 C   0  0  0  0  0  0  0  0  0  0  0  0
    7.5609  -11.7081   25.4505 C   0  0  0  0  0  0  0  0  0  0  0  0
    7.2249  -13.0233   25.5155 C   0  0  0  0  0  0  0  0  0  0  0  0
   10.3237  -15.7069   24.4485 C   0  0  0  0  0  0  0  0  0  0  0  0
   10.2661  -15.3369   25.6483 O   0  0  0  0  0  0  0  0  0  0  0  0
    9.2800  -15.1991   30.0611 O   0  0  0  0  0  0  0  0  0  0  0  0
   10.0003  -15.7831   29.0188 C   0  0  0  0  0  0  0  0  0  0  0  0
    9.4356  -16.7423   28.2344 C   0  0  0  0  0  0  0  0  0  0  0  0
   10.1506  -17.3225   27.1994 C   0  0  0  0  0  0  0  0  0  0  0  0
   11.4496  -16.9106   26.9759 C   0  0  0  0  0  0  0  0  0  0  0  0
   12.2741  -17.4791   25.9071 C   0  0  0  0  0  0  0  0  0  0  0  0
   12.6665  -16.4051   24.9164 C   0  0  2  0  0  0  0  0  0  0  0  0
   11.5359  -16.2842   23.9932 N   0  0  0  0  0  0  0  0  0  0  0  0
   13.9123  -16.6965   24.1881 C   0  0  0  0  0  0  0  0  0  0  0  0
   15.0225  -16.8098   24.7580 O   0  0  0  0  0  0  0  0  0  0  0  0
   12.0431  -15.9297   27.7697 C   0  0  0  0  0  0  0  0  0  0  0  0
   11.2916  -15.3849   28.7838 C   0  0  0  0  0  0  0  0  0  0  0  0
   13.9146  -16.8632   22.8017 O   0  0  0  0  0  0  0  0  0  0  0  0
  2  3  1  0
  2  1  1  6
  4  3  1  0
  4  5  2  0
  6  5  1  0
  7  6  1  0
  8  7  2  0
  9  8  1  0
 10  9  2  0
 10 11  1  0
 11 12  2  0
 12  7  1  0
 12  4  1  0
 13  2  1  0
 14 13  2  0
 15 13  1  0
 16 27  1  0
 16 15  1  0
 16 17  1  1
 18 17  1  0
 18 26  1  0
 19 20  1  0
 19 18  2  0
 20 21  1  0
 21 22  2  0
 21 26  1  0
 22 23  1  0
 23 24  2  0
 25 24  1  0
 26 25  2  0
 27 36  1  0
 28 27  2  0
 29 30  1  0
 30 40  2  0
 31 30  1  0
 31 32  2  0
 32 33  1  0
 33 39  2  0
 33 34  1  0
 35 34  1  1
 35 37  1  0
 36 35  1  0
 37 38  2  0
 37 41  1  0
 40 39  1  0
M  END
$$$$
