WWY.pdb
     RDKit          3D

 41 45  0  0  1  0  0  0  0  0999 V2000
    9.3153  -18.3134   19.3229 N   0  0  0  0  0  0  0  0  0  0  0  0
   10.3414  -17.3328   19.4602 C   0  0  1  0  0  0  0  0  0  0  0  0
   10.7122  -16.6661   18.1560 C   0  0  0  0  0  0  0  0  0  0  0  0
   11.1784  -17.6437   17.1486 C   0  0  0  0  0  0  0  0  0  0  0  0
   10.4685  -18.0607   16.0395 C   0  0  0  0  0  0  0  0  0  0  0  0
   11.2181  -18.9601   15.3503 N   0  0  0  0  0  0  0  0  0  0  0  0
   12.3945  -19.1438   15.9736 C   0  0  0  0  0  0  0  0  0  0  0  0
   13.5022  -19.9211   15.7223 C   0  0  0  0  0  0  0  0  0  0  0  0
   14.5847  -19.8924   16.5713 C   0  0  0  0  0  0  0  0  0  0  0  0
   14.5902  -19.0967   17.6806 C   0  0  0  0  0  0  0  0  0  0  0  0
   13.4802  -18.3174   17.9330 C   0  0  0  0  0  0  0  0  0  0  0  0
   12.3765  -18.3193   17.1052 C   0  0  0  0  0  0  0  0  0  0  0  0
    9.9245  -16.3342   20.4703 C   0  0  0  0  0  0  0  0  0  0  0  0
   10.6026  -15.2966   20.6611 O   0  0  0  0  0  0  0  0  0  0  0  0
    8.7425  -16.5785   21.2159 N   0  0  0  0  0  0  0  0  0  0  0  0
    8.6690  -16.1711   22.5958 C   0  0  1  0  0  0  0  0  0  0  0  0
    7.4282  -16.6173   23.3025 C   0  0  0  0  0  0  0  0  0  0  0  0
    7.0845  -15.8296   24.4902 C   0  0  0  0  0  0  0  0  0  0  0  0
    6.5444  -16.3250   25.6558 C   0  0  0  0  0  0  0  0  0  0  0  0
    6.3730  -15.3388   26.5481 N   0  0  0  0  0  0  0  0  0  0  0  0
    6.8007  -14.2091   25.9608 C   0  0  0  0  0  0  0  0  0  0  0  0
    6.8365  -12.9231   26.4413 C   0  0  0  0  0  0  0  0  0  0  0  0
    7.3124  -11.8847   25.6711 C   0  0  0  0  0  0  0  0  0  0  0  0
    7.7563  -12.1628   24.3964 C   0  0  0  0  0  0  0  0  0  0  0  0
    7.7215  -13.4697   23.9046 C   0  0  0  0  0  0  0  0  0  0  0  0
    7.2509  -14.4876   24.6722 C   0  0  0  0  0  0  0  0  0  0  0  0
    9.9052  -16.6326   23.2813 C   0  0  0  0  0  0  0  0  0  0  0  0
   10.1919  -17.8524   23.3793 O   0  0  0  0  0  0  0  0  0  0  0  0
   10.3382  -16.0147   31.5113 O   0  0  0  0  0  0  0  0  0  0  0  0
   10.3934  -15.7412   30.1443 C   0  0  0  0  0  0  0  0  0  0  0  0
   11.2970  -16.3718   29.3444 C   0  0  0  0  0  0  0  0  0  0  0  0
   11.3522  -16.1004   27.9870 C   0  0  0  0  0  0  0  0  0  0  0  0
   10.4728  -15.1767   27.4573 C   0  0  0  0  0  0  0  0  0  0  0  0
   10.4715  -14.8292   26.0344 C   0  0  0  0  0  0  0  0  0  0  0  0
   11.2366  -15.8637   25.2386 C   0  0  2  0  0  0  0  0  0  0  0  0
   10.8044  -15.6952   23.8493 N   0  0  0  0  0  0  0  0  0  0  0  0
   11.0155  -17.2458   25.6950 C   0  0  0  0  0  0  0  0  0  0  0  0
   11.9345  -17.9677   26.1474 O   0  0  0  0  0  0  0  0  0  0  0  0
    9.5412  -14.5220   28.2623 C   0  0  0  0  0  0  0  0  0  0  0  0
    9.5267  -14.8263   29.6028 C   0  0  0  0  0  0  0  0  0  0  0  0
    9.7472  -17.8276   25.6439 O   0  0  0  0  0  0  0  0  0  0  0  0
  2  3  1  0
  2  1  1  6
  4  3  1  0
  4  5  2  0
  6  5  1  0
  7  6  1  0
  8  7  2  0
  9  8  1  0
 10  9  2  0
 10 11  1  0
 11 12  2  0
 12  7  1  0
 12  4  1  0
 13  2  1  0
 14 13  2  0
 15 13  1  0
 16 27  1  0
 16 15  1  0
 16 17  1  1
 18 17  1  0
 18 26  1  0
 19 20  1  0
 19 18  2  0
 20 21  1  0
 21 22  2  0
 21 26  1  0
 22 23  1  0
 23 24  2  0
 25 24  1  0
 26 25  2  0
 27 36  1  0
 28 27  2  0
 29 30  1  0
 30 40  2  0
 31 30  1  0
 31 32  2  0
 32 33  1  0
 33 39  2  0
 33 34  1  0
 35 34  1  1
 35 37  1  0
 36 35  1  0
 37 38  2  0
 37 41  1  0
 40 39  1  0
M  END
$$$$
