WWY.pdb
     RDKit          3D

 41 45  0  0  1  0  0  0  0  0999 V2000
    6.7395  -19.1688   26.3436 N   0  0  0  0  0  0  0  0  0  0  0  0
    6.7915  -17.8336   25.8458 C   0  0  1  0  0  0  0  0  0  0  0  0
    7.6367  -16.9104   26.6921 C   0  0  0  0  0  0  0  0  0  0  0  0
    6.9102  -15.6742   27.0557 C   0  0  0  0  0  0  0  0  0  0  0  0
    5.6277  -15.6118   27.5646 C   0  0  0  0  0  0  0  0  0  0  0  0
    5.3014  -14.3100   27.7760 N   0  0  0  0  0  0  0  0  0  0  0  0
    6.3296  -13.5205   27.4214 C   0  0  0  0  0  0  0  0  0  0  0  0
    6.5402  -12.1604   27.4246 C   0  0  0  0  0  0  0  0  0  0  0  0
    7.7347  -11.6359   26.9872 C   0  0  0  0  0  0  0  0  0  0  0  0
    8.7390  -12.4456   26.5401 C   0  0  0  0  0  0  0  0  0  0  0  0
    8.5284  -13.8089   26.5366 C   0  0  0  0  0  0  0  0  0  0  0  0
    7.3446  -14.3715   26.9675 C   0  0  0  0  0  0  0  0  0  0  0  0
    7.2674  -17.8577   24.4443 C   0  0  0  0  0  0  0  0  0  0  0  0
    8.1612  -18.6613   24.0865 O   0  0  0  0  0  0  0  0  0  0  0  0
    6.6899  -16.9518   23.5177 N   0  0  0  0  0  0  0  0  0  0  0  0
    7.4199  -16.5750   22.3343 C   0  0  1  0  0  0  0  0  0  0  0  0
    6.6739  -15.6561   21.4192 C   0  0  0  0  0  0  0  0  0  0  0  0
    7.3883  -15.3079   20.1873 C   0  0  0  0  0  0  0  0  0  0  0  0
    7.5938  -16.1436   19.1125 C   0  0  0  0  0  0  0  0  0  0  0  0
    8.2644  -15.5034   18.1437 N   0  0  0  0  0  0  0  0  0  0  0  0
    8.4921  -14.2576   18.5912 C   0  0  0  0  0  0  0  0  0  0  0  0
    9.1419  -13.2083   17.9891 C   0  0  0  0  0  0  0  0  0  0  0  0
    9.2795  -11.9932   18.6237 C   0  0  0  0  0  0  0  0  0  0  0  0
    8.7477  -11.8485   19.8869 C   0  0  0  0  0  0  0  0  0  0  0  0
    8.0860  -12.9138   20.5021 C   0  0  0  0  0  0  0  0  0  0  0  0
    7.9548  -14.1084   19.8677 C   0  0  0  0  0  0  0  0  0  0  0  0
    8.7280  -16.0090   22.7580 C   0  0  0  0  0  0  0  0  0  0  0  0
    8.8092  -14.9117   23.3655 O   0  0  0  0  0  0  0  0  0  0  0  0
    9.9751  -15.2363   28.6573 O   0  0  0  0  0  0  0  0  0  0  0  0
   10.4689  -15.5427   27.3889 C   0  0  0  0  0  0  0  0  0  0  0  0
   10.0927  -14.8151   26.3012 C   0  0  0  0  0  0  0  0  0  0  0  0
   10.5826  -15.1191   25.0416 C   0  0  0  0  0  0  0  0  0  0  0  0
   11.4616  -16.1758   24.9072 C   0  0  0  0  0  0  0  0  0  0  0  0
   12.0190  -16.5652   23.6099 C   0  0  0  0  0  0  0  0  0  0  0  0
   11.2017  -15.9695   22.4848 C   0  0  2  0  0  0  0  0  0  0  0  0
    9.9337  -16.7026   22.4838 N   0  0  0  0  0  0  0  0  0  0  0  0
   11.8571  -16.0489   21.1690 C   0  0  0  0  0  0  0  0  0  0  0  0
   12.8980  -15.4103   20.8882 O   0  0  0  0  0  0  0  0  0  0  0  0
   11.8572  -16.9311   26.0106 C   0  0  0  0  0  0  0  0  0  0  0  0
   11.3428  -16.5892   27.2387 C   0  0  0  0  0  0  0  0  0  0  0  0
   11.3391  -16.8550   20.1532 O   0  0  0  0  0  0  0  0  0  0  0  0
  2  3  1  0
  2  1  1  1
  4  3  1  0
  4  5  2  0
  6  5  1  0
  7  6  1  0
  8  7  2  0
  9  8  1  0
 10  9  2  0
 10 11  1  0
 11 12  2  0
 12  7  1  0
 12  4  1  0
 13  2  1  0
 14 13  2  0
 15 13  1  0
 16 27  1  0
 16 15  1  0
 16 17  1  1
 18 17  1  0
 18 26  1  0
 19 20  1  0
 19 18  2  0
 20 21  1  0
 21 22  2  0
 21 26  1  0
 22 23  1  0
 23 24  2  0
 25 24  1  0
 26 25  2  0
 27 36  1  0
 28 27  2  0
 29 30  1  0
 30 40  2  0
 31 30  1  0
 31 32  2  0
 32 33  1  0
 33 39  2  0
 33 34  1  0
 35 34  1  1
 35 37  1  0
 36 35  1  0
 37 38  2  0
 37 41  1  0
 40 39  1  0
M  END
$$$$
