WWY.pdb
     RDKit          3D

 41 45  0  0  1  0  0  0  0  0999 V2000
    6.5296  -19.4037   20.7061 N   0  0  0  0  0  0  0  0  0  0  0  0
    6.0044  -18.4334   21.6093 C   0  0  1  0  0  0  0  0  0  0  0  0
    5.3683  -19.0401   22.8382 C   0  0  0  0  0  0  0  0  0  0  0  0
    4.2130  -19.8981   22.4959 C   0  0  0  0  0  0  0  0  0  0  0  0
    3.9396  -21.1383   23.0392 C   0  0  0  0  0  0  0  0  0  0  0  0
    2.7980  -21.6203   22.4823 N   0  0  0  0  0  0  0  0  0  0  0  0
    2.3172  -20.7349   21.5929 C   0  0  0  0  0  0  0  0  0  0  0  0
    1.2199  -20.7088   20.7626 C   0  0  0  0  0  0  0  0  0  0  0  0
    0.9891  -19.6293   19.9412 C   0  0  0  0  0  0  0  0  0  0  0  0
    1.8374  -18.5597   19.9269 C   0  0  0  0  0  0  0  0  0  0  0  0
    2.9375  -18.5853   20.7590 C   0  0  0  0  0  0  0  0  0  0  0  0
    3.2019  -19.6496   21.5961 C   0  0  0  0  0  0  0  0  0  0  0  0
    7.0787  -17.4841   21.9782 C   0  0  0  0  0  0  0  0  0  0  0  0
    8.2808  -17.7587   21.7494 O   0  0  0  0  0  0  0  0  0  0  0  0
    6.7168  -16.2591   22.5957 N   0  0  0  0  0  0  0  0  0  0  0  0
    7.7402  -15.3917   23.1207 C   0  0  1  0  0  0  0  0  0  0  0  0
    7.2222  -14.1198   23.7142 C   0  0  0  0  0  0  0  0  0  0  0  0
    7.8440  -13.7415   24.9868 C   0  0  0  0  0  0  0  0  0  0  0  0
    9.0462  -14.2113   25.4662 C   0  0  0  0  0  0  0  0  0  0  0  0
    9.3315  -13.6461   26.6481 N   0  0  0  0  0  0  0  0  0  0  0  0
    8.3165  -12.8135   26.9322 C   0  0  0  0  0  0  0  0  0  0  0  0
    8.1186  -12.0024   28.0226 C   0  0  0  0  0  0  0  0  0  0  0  0
    6.9929  -11.2161   28.1343 C   0  0  0  0  0  0  0  0  0  0  0  0
    6.0593  -11.2589   27.1214 C   0  0  0  0  0  0  0  0  0  0  0  0
    6.2576  -12.0825   26.0108 C   0  0  0  0  0  0  0  0  0  0  0  0
    7.3717  -12.8541   25.9094 C   0  0  0  0  0  0  0  0  0  0  0  0
    8.5582  -16.1724   24.0863 C   0  0  0  0  0  0  0  0  0  0  0  0
    8.0344  -16.8080   25.0357 O   0  0  0  0  0  0  0  0  0  0  0  0
    7.0991  -20.4183   28.7881 O   0  0  0  0  0  0  0  0  0  0  0  0
    7.9070  -19.9375   27.7573 C   0  0  0  0  0  0  0  0  0  0  0  0
    9.1833  -19.5328   28.0046 C   0  0  0  0  0  0  0  0  0  0  0  0
    9.9858  -19.0551   26.9813 C   0  0  0  0  0  0  0  0  0  0  0  0
    9.4679  -18.9962   25.7025 C   0  0  0  0  0  0  0  0  0  0  0  0
   10.2488  -18.4978   24.5680 C   0  0  0  0  0  0  0  0  0  0  0  0
   10.7424  -17.0945   24.8438 C   0  0  2  0  0  0  0  0  0  0  0  0
    9.9693  -16.2205   23.9585 N   0  0  0  0  0  0  0  0  0  0  0  0
   12.1878  -16.9203   24.6248 C   0  0  0  0  0  0  0  0  0  0  0  0
   12.6703  -16.5569   23.5270 O   0  0  0  0  0  0  0  0  0  0  0  0
    8.1630  -19.4066   25.4319 C   0  0  0  0  0  0  0  0  0  0  0  0
    7.4074  -19.8727   26.4816 C   0  0  0  0  0  0  0  0  0  0  0  0
   13.1057  -17.1567   25.6502 O   0  0  0  0  0  0  0  0  0  0  0  0
  2  3  1  0
  2  1  1  6
  4  3  1  0
  4  5  2  0
  6  5  1  0
  7  6  1  0
  8  7  2  0
  9  8  1  0
 10  9  2  0
 10 11  1  0
 11 12  2  0
 12  7  1  0
 12  4  1  0
 13  2  1  0
 14 13  2  0
 15 13  1  0
 16 27  1  0
 16 15  1  0
 16 17  1  1
 18 17  1  0
 18 26  1  0
 19 20  1  0
 19 18  2  0
 20 21  1  0
 21 22  2  0
 21 26  1  0
 22 23  1  0
 23 24  2  0
 25 24  1  0
 26 25  2  0
 27 36  1  0
 28 27  2  0
 29 30  1  0
 30 40  2  0
 31 30  1  0
 31 32  2  0
 32 33  1  0
 33 39  2  0
 33 34  1  0
 35 34  1  6
 35 37  1  0
 36 35  1  0
 37 38  2  0
 37 41  1  0
 40 39  1  0
M  END
$$$$
