WWY.pdb
     RDKit          3D

 41 45  0  0  1  0  0  0  0  0999 V2000
    9.5288  -17.6689   21.5383 N   0  0  0  0  0  0  0  0  0  0  0  0
   10.6565  -16.8609   21.8679 C   0  0  1  0  0  0  0  0  0  0  0  0
   10.7663  -15.6118   21.0251 C   0  0  0  0  0  0  0  0  0  0  0  0
    9.4645  -15.2244   20.4390 C   0  0  0  0  0  0  0  0  0  0  0  0
    8.8904  -15.7778   19.3112 C   0  0  0  0  0  0  0  0  0  0  0  0
    7.6978  -15.1691   19.0811 N   0  0  0  0  0  0  0  0  0  0  0  0
    7.4749  -14.2360   20.0222 C   0  0  0  0  0  0  0  0  0  0  0  0
    6.4542  -13.3459   20.2678 C   0  0  0  0  0  0  0  0  0  0  0  0
    6.5151  -12.4904   21.3438 C   0  0  0  0  0  0  0  0  0  0  0  0
    7.5839  -12.5004   22.1933 C   0  0  0  0  0  0  0  0  0  0  0  0
    8.6072  -13.3923   21.9476 C   0  0  0  0  0  0  0  0  0  0  0  0
    8.5816  -14.2651   20.8794 C   0  0  0  0  0  0  0  0  0  0  0  0
   10.6093  -16.5291   23.3098 C   0  0  0  0  0  0  0  0  0  0  0  0
   11.4152  -15.7043   23.8027 O   0  0  0  0  0  0  0  0  0  0  0  0
    9.6331  -17.1654   24.1191 N   0  0  0  0  0  0  0  0  0  0  0  0
    9.5545  -16.8553   25.5238 C   0  0  1  0  0  0  0  0  0  0  0  0
    8.1726  -16.9285   26.0924 C   0  0  0  0  0  0  0  0  0  0  0  0
    7.3198  -15.7789   25.7759 C   0  0  0  0  0  0  0  0  0  0  0  0
    6.1379  -15.8234   25.0711 C   0  0  0  0  0  0  0  0  0  0  0  0
    5.6015  -14.5979   24.9794 N   0  0  0  0  0  0  0  0  0  0  0  0
    6.4344  -13.7634   25.6228 C   0  0  0  0  0  0  0  0  0  0  0  0
    6.3499  -12.4064   25.8154 C   0  0  0  0  0  0  0  0  0  0  0  0
    7.3236  -11.7201   26.5075 C   0  0  0  0  0  0  0  0  0  0  0  0
    8.3952  -12.4276   27.0080 C   0  0  0  0  0  0  0  0  0  0  0  0
    8.4841  -13.8080   26.8141 C   0  0  0  0  0  0  0  0  0  0  0  0
    7.5182  -14.4763   26.1306 C   0  0  0  0  0  0  0  0  0  0  0  0
   10.5090  -17.7369   26.2466 C   0  0  0  0  0  0  0  0  0  0  0  0
   10.5323  -18.9799   26.0619 O   0  0  0  0  0  0  0  0  0  0  0  0
   16.0006  -17.2769   22.9880 O   0  0  0  0  0  0  0  0  0  0  0  0
   15.3939  -17.2904   24.2442 C   0  0  0  0  0  0  0  0  0  0  0  0
   14.6258  -16.2448   24.6574 C   0  0  0  0  0  0  0  0  0  0  0  0
   14.0232  -16.2579   25.9048 C   0  0  0  0  0  0  0  0  0  0  0  0
   14.2155  -17.3525   26.7246 C   0  0  0  0  0  0  0  0  0  0  0  0
   13.6190  -17.4403   28.0595 C   0  0  0  0  0  0  0  0  0  0  0  0
   12.2546  -18.0896   27.9855 C   0  0  2  0  0  0  0  0  0  0  0  0
   11.4301  -17.1901   27.1753 N   0  0  0  0  0  0  0  0  0  0  0  0
   11.6384  -18.3269   29.3013 C   0  0  0  0  0  0  0  0  0  0  0  0
   12.1631  -19.0541   30.1766 O   0  0  0  0  0  0  0  0  0  0  0  0
   14.9989  -18.4316   26.3170 C   0  0  0  0  0  0  0  0  0  0  0  0
   15.5750  -18.3703   25.0703 C   0  0  0  0  0  0  0  0  0  0  0  0
   10.4172  -17.7415   29.6414 O   0  0  0  0  0  0  0  0  0  0  0  0
  2  3  1  0
  2  1  1  6
  4  3  1  0
  4  5  2  0
  6  5  1  0
  7  6  1  0
  8  7  2  0
  9  8  1  0
 10  9  2  0
 10 11  1  0
 11 12  2  0
 12  7  1  0
 12  4  1  0
 13  2  1  0
 14 13  2  0
 15 13  1  0
 16 27  1  0
 16 15  1  0
 16 17  1  1
 18 17  1  0
 18 26  1  0
 19 20  1  0
 19 18  2  0
 20 21  1  0
 21 22  2  0
 21 26  1  0
 22 23  1  0
 23 24  2  0
 25 24  1  0
 26 25  2  0
 27 36  1  0
 28 27  2  0
 29 30  1  0
 30 40  2  0
 31 30  1  0
 31 32  2  0
 32 33  1  0
 33 39  2  0
 33 34  1  0
 35 34  1  1
 35 37  1  0
 36 35  1  0
 37 38  2  0
 37 41  1  0
 40 39  1  0
M  END
$$$$
