WWY.pdb
     RDKit          3D

 41 45  0  0  1  0  0  0  0  0999 V2000
    8.6881  -19.8574   25.7553 N   0  0  0  0  0  0  0  0  0  0  0  0
    9.1633  -18.5168   25.6551 C   0  0  1  0  0  0  0  0  0  0  0  0
   10.6139  -18.3635   26.0491 C   0  0  0  0  0  0  0  0  0  0  0  0
   10.7634  -17.6764   27.3505 C   0  0  0  0  0  0  0  0  0  0  0  0
   10.8912  -18.2941   28.5794 C   0  0  0  0  0  0  0  0  0  0  0  0
   11.0075  -17.3409   29.5405 N   0  0  0  0  0  0  0  0  0  0  0  0
   10.9596  -16.1210   28.9788 C   0  0  0  0  0  0  0  0  0  0  0  0
   11.0273  -14.8363   29.4681 C   0  0  0  0  0  0  0  0  0  0  0  0
   10.9457  -13.7579   28.6173 C   0  0  0  0  0  0  0  0  0  0  0  0
   10.7959  -13.9312   27.2714 C   0  0  0  0  0  0  0  0  0  0  0  0
   10.7280  -15.2186   26.7804 C   0  0  0  0  0  0  0  0  0  0  0  0
   10.8061  -16.3242   27.6020 C   0  0  0  0  0  0  0  0  0  0  0  0
    8.9289  -18.0217   24.2799 C   0  0  0  0  0  0  0  0  0  0  0  0
    8.8131  -18.8237   23.3228 O   0  0  0  0  0  0  0  0  0  0  0  0
    8.8389  -16.6213   24.0708 N   0  0  0  0  0  0  0  0  0  0  0  0
    8.7029  -16.1040   22.7332 C   0  0  1  0  0  0  0  0  0  0  0  0
    7.5517  -15.1659   22.5517 C   0  0  0  0  0  0  0  0  0  0  0  0
    6.9275  -14.7159   23.7995 C   0  0  0  0  0  0  0  0  0  0  0  0
    6.0930  -15.4655   24.5979 C   0  0  0  0  0  0  0  0  0  0  0  0
    5.7160  -14.7593   25.6736 N   0  0  0  0  0  0  0  0  0  0  0  0
    6.3047  -13.5564   25.5707 C   0  0  0  0  0  0  0  0  0  0  0  0
    6.2408  -12.4679   26.4055 C   0  0  0  0  0  0  0  0  0  0  0  0
    6.9217  -11.3052   26.1182 C   0  0  0  0  0  0  0  0  0  0  0  0
    7.6758  -11.2539   24.9657 C   0  0  0  0  0  0  0  0  0  0  0  0
    7.7431  -12.3593   24.1146 C   0  0  0  0  0  0  0  0  0  0  0  0
    7.0684  -13.5022   24.4069 C   0  0  0  0  0  0  0  0  0  0  0  0
    9.9986  -15.4891   22.3407 C   0  0  0  0  0  0  0  0  0  0  0  0
   10.2995  -14.3134   22.6674 O   0  0  0  0  0  0  0  0  0  0  0  0
   17.6261  -16.9946   25.2519 O   0  0  0  0  0  0  0  0  0  0  0  0
   16.2994  -16.9541   24.8220 C   0  0  0  0  0  0  0  0  0  0  0  0
   15.2986  -17.4415   25.6062 C   0  0  0  0  0  0  0  0  0  0  0  0
   13.9812  -17.4015   25.1796 C   0  0  0  0  0  0  0  0  0  0  0  0
   13.6992  -16.8576   23.9420 C   0  0  0  0  0  0  0  0  0  0  0  0
   12.3342  -16.7844   23.4159 C   0  0  0  0  0  0  0  0  0  0  0  0
   12.3429  -16.2525   21.9996 C   0  0  2  0  0  0  0  0  0  0  0  0
   10.9407  -16.2240   21.5775 N   0  0  0  0  0  0  0  0  0  0  0  0
   13.1566  -17.0535   21.0702 C   0  0  0  0  0  0  0  0  0  0  0  0
   12.6879  -18.0051   20.4031 O   0  0  0  0  0  0  0  0  0  0  0  0
   14.7120  -16.3541   23.1265 C   0  0  0  0  0  0  0  0  0  0  0  0
   16.0028  -16.4169   23.5953 C   0  0  0  0  0  0  0  0  0  0  0  0
   14.5143  -16.7848   20.8856 O   0  0  0  0  0  0  0  0  0  0  0  0
  2  3  1  0
  2  1  1  6
  4  3  1  0
  4  5  2  0
  6  5  1  0
  7  6  1  0
  8  7  2  0
  9  8  1  0
 10  9  2  0
 10 11  1  0
 11 12  2  0
 12  7  1  0
 12  4  1  0
 13  2  1  0
 14 13  2  0
 15 13  1  0
 16 27  1  0
 16 15  1  0
 16 17  1  1
 18 17  1  0
 18 26  1  0
 19 20  1  0
 19 18  2  0
 20 21  1  0
 21 22  2  0
 21 26  1  0
 22 23  1  0
 23 24  2  0
 25 24  1  0
 26 25  2  0
 27 36  1  0
 28 27  2  0
 29 30  1  0
 30 40  2  0
 31 30  1  0
 31 32  2  0
 32 33  1  0
 33 39  2  0
 33 34  1  0
 35 34  1  1
 35 37  1  0
 36 35  1  0
 37 38  2  0
 37 41  1  0
 40 39  1  0
M  END
$$$$
