WWY.pdb
     RDKit          3D

 41 45  0  0  1  0  0  0  0  0999 V2000
   10.7122  -17.1954   20.0051 N   0  0  0  0  0  0  0  0  0  0  0  0
    9.4868  -16.6101   20.4398 C   0  0  1  0  0  0  0  0  0  0  0  0
    8.2623  -17.3092   19.8970 C   0  0  0  0  0  0  0  0  0  0  0  0
    7.7637  -16.6696   18.6599 C   0  0  0  0  0  0  0  0  0  0  0  0
    7.1436  -17.3178   17.6096 C   0  0  0  0  0  0  0  0  0  0  0  0
    6.8267  -16.4046   16.6549 N   0  0  0  0  0  0  0  0  0  0  0  0
    7.2200  -15.1811   17.0481 C   0  0  0  0  0  0  0  0  0  0  0  0
    7.1527  -13.9257   16.4878 C   0  0  0  0  0  0  0  0  0  0  0  0
    7.6586  -12.8335   17.1546 C   0  0  0  0  0  0  0  0  0  0  0  0
    8.2384  -12.9638   18.3837 C   0  0  0  0  0  0  0  0  0  0  0  0
    8.3061  -14.2219   18.9458 C   0  0  0  0  0  0  0  0  0  0  0  0
    7.8100  -15.3401   18.3079 C   0  0  0  0  0  0  0  0  0  0  0  0
    9.4670  -16.5713   21.9195 C   0  0  0  0  0  0  0  0  0  0  0  0
   10.0059  -17.4838   22.5901 O   0  0  0  0  0  0  0  0  0  0  0  0
    8.8250  -15.4799   22.5594 N   0  0  0  0  0  0  0  0  0  0  0  0
    8.9516  -15.3098   23.9843 C   0  0  1  0  0  0  0  0  0  0  0  0
    8.8477  -13.8901   24.4448 C   0  0  0  0  0  0  0  0  0  0  0  0
    8.7310  -13.7256   25.8969 C   0  0  0  0  0  0  0  0  0  0  0  0
    9.6113  -14.2149   26.8356 C   0  0  0  0  0  0  0  0  0  0  0  0
    9.2199  -13.8671   28.0701 N   0  0  0  0  0  0  0  0  0  0  0  0
    8.0895  -13.1554   27.9297 C   0  0  0  0  0  0  0  0  0  0  0  0
    7.2883  -12.5740   28.8816 C   0  0  0  0  0  0  0  0  0  0  0  0
    6.1500  -11.8809   28.5322 C   0  0  0  0  0  0  0  0  0  0  0  0
    5.8266  -11.7809   27.1963 C   0  0  0  0  0  0  0  0  0  0  0  0
    6.6394  -12.3708   26.2256 C   0  0  0  0  0  0  0  0  0  0  0  0
    7.7607  -13.0519   26.5800 C   0  0  0  0  0  0  0  0  0  0  0  0
    7.9540  -16.1917   24.6463 C   0  0  0  0  0  0  0  0  0  0  0  0
    6.8558  -16.4732   24.1037 O   0  0  0  0  0  0  0  0  0  0  0  0
   11.9774  -23.2775   24.6632 O   0  0  0  0  0  0  0  0  0  0  0  0
   11.1834  -22.1307   24.6911 C   0  0  0  0  0  0  0  0  0  0  0  0
   10.6992  -21.6480   25.8687 C   0  0  0  0  0  0  0  0  0  0  0  0
    9.9106  -20.5093   25.8968 C   0  0  0  0  0  0  0  0  0  0  0  0
    9.6231  -19.8701   24.7069 C   0  0  0  0  0  0  0  0  0  0  0  0
    8.7917  -18.6655   24.6508 C   0  0  0  0  0  0  0  0  0  0  0  0
    8.4673  -18.1836   26.0477 C   0  0  2  0  0  0  0  0  0  0  0  0
    8.2203  -16.7452   25.9241 N   0  0  0  0  0  0  0  0  0  0  0  0
    9.5302  -18.4529   27.0300 C   0  0  0  0  0  0  0  0  0  0  0  0
   10.5452  -17.7278   27.1495 O   0  0  0  0  0  0  0  0  0  0  0  0
   10.1109  -20.3510   23.4923 C   0  0  0  0  0  0  0  0  0  0  0  0
   10.8888  -21.4842   23.5178 C   0  0  0  0  0  0  0  0  0  0  0  0
    9.4554  -19.5501   27.8904 O   0  0  0  0  0  0  0  0  0  0  0  0
  2  3  1  0
  2  1  1  1
  4  3  1  0
  4  5  2  0
  6  5  1  0
  7  6  1  0
  8  7  2  0
  9  8  1  0
 10  9  2  0
 10 11  1  0
 11 12  2  0
 12  7  1  0
 12  4  1  0
 13  2  1  0
 14 13  2  0
 15 13  1  0
 16 27  1  0
 16 15  1  0
 16 17  1  6
 18 17  1  0
 18 26  1  0
 19 20  1  0
 19 18  2  0
 20 21  1  0
 21 22  2  0
 21 26  1  0
 22 23  1  0
 23 24  2  0
 25 24  1  0
 26 25  2  0
 27 36  1  0
 28 27  2  0
 29 30  1  0
 30 40  2  0
 31 30  1  0
 31 32  2  0
 32 33  1  0
 33 39  2  0
 33 34  1  0
 35 34  1  6
 35 37  1  0
 36 35  1  0
 37 38  2  0
 37 41  1  0
 40 39  1  0
M  END
$$$$
