WWY.pdb
     RDKit          3D

 41 45  0  0  1  0  0  0  0  0999 V2000
    8.9007  -18.1280   21.4754 N   0  0  0  0  0  0  0  0  0  0  0  0
    8.7722  -16.7087   21.4301 C   0  0  1  0  0  0  0  0  0  0  0  0
    7.4470  -16.2439   20.8726 C   0  0  0  0  0  0  0  0  0  0  0  0
    7.6200  -15.2352   19.8046 C   0  0  0  0  0  0  0  0  0  0  0  0
    7.5049  -15.4681   18.4480 C   0  0  0  0  0  0  0  0  0  0  0  0
    7.7295  -14.3056   17.7817 N   0  0  0  0  0  0  0  0  0  0  0  0
    7.9877  -13.3213   18.6595 C   0  0  0  0  0  0  0  0  0  0  0  0
    8.2777  -11.9812   18.5400 C   0  0  0  0  0  0  0  0  0  0  0  0
    8.5005  -11.2108   19.6582 C   0  0  0  0  0  0  0  0  0  0  0  0
    8.4405  -11.7512   20.9105 C   0  0  0  0  0  0  0  0  0  0  0  0
    8.1499  -13.0943   21.0308 C   0  0  0  0  0  0  0  0  0  0  0  0
    7.9206  -13.8985   19.9334 C   0  0  0  0  0  0  0  0  0  0  0  0
    9.0037  -16.1582   22.7846 C   0  0  0  0  0  0  0  0  0  0  0  0
    8.9055  -14.9266   22.9995 O   0  0  0  0  0  0  0  0  0  0  0  0
    9.3390  -17.0552   23.8315 N   0  0  0  0  0  0  0  0  0  0  0  0
    9.6914  -16.5408   25.1301 C   0  0  1  0  0  0  0  0  0  0  0  0
    8.5983  -16.6391   26.1468 C   0  0  0  0  0  0  0  0  0  0  0  0
    7.5349  -15.6409   25.9993 C   0  0  0  0  0  0  0  0  0  0  0  0
    6.2222  -15.9049   25.6786 C   0  0  0  0  0  0  0  0  0  0  0  0
    5.5110  -14.7686   25.6459 N   0  0  0  0  0  0  0  0  0  0  0  0
    6.3616  -13.7728   25.9441 C   0  0  0  0  0  0  0  0  0  0  0  0
    6.1401  -12.4208   26.0384 C   0  0  0  0  0  0  0  0  0  0  0  0
    7.1592  -11.5491   26.3541 C   0  0  0  0  0  0  0  0  0  0  0  0
    8.4182  -12.0641   26.5757 C   0  0  0  0  0  0  0  0  0  0  0  0
    8.6470  -13.4388   26.4808 C   0  0  0  0  0  0  0  0  0  0  0  0
    7.6350  -14.2907   26.1694 C   0  0  0  0  0  0  0  0  0  0  0  0
   10.9374  -17.2199   25.5745 C   0  0  0  0  0  0  0  0  0  0  0  0
   11.2814  -18.3385   25.1162 O   0  0  0  0  0  0  0  0  0  0  0  0
   12.8732  -19.9691   33.3829 O   0  0  0  0  0  0  0  0  0  0  0  0
   12.6482  -19.1624   32.2671 C   0  0  0  0  0  0  0  0  0  0  0  0
   13.6730  -18.4844   31.6805 C   0  0  0  0  0  0  0  0  0  0  0  0
   13.4500  -17.6831   30.5726 C   0  0  0  0  0  0  0  0  0  0  0  0
   12.1670  -17.5833   30.0717 C   0  0  0  0  0  0  0  0  0  0  0  0
   11.8473  -16.7524   28.9086 C   0  0  0  0  0  0  0  0  0  0  0  0
   12.3164  -17.4235   27.6364 C   0  0  2  0  0  0  0  0  0  0  0  0
   11.7808  -16.6140   26.5396 N   0  0  0  0  0  0  0  0  0  0  0  0
   11.8881  -18.8267   27.5133 C   0  0  0  0  0  0  0  0  0  0  0  0
   12.6973  -19.7785   27.4160 O   0  0  0  0  0  0  0  0  0  0  0  0
   11.1061  -18.2708   30.6602 C   0  0  0  0  0  0  0  0  0  0  0  0
   11.3795  -19.0528   31.7574 C   0  0  0  0  0  0  0  0  0  0  0  0
   10.5343  -19.1684   27.4989 O   0  0  0  0  0  0  0  0  0  0  0  0
  2  3  1  0
  2  1  1  1
  4  3  1  0
  4  5  2  0
  6  5  1  0
  7  6  1  0
  8  7  2  0
  9  8  1  0
 10  9  2  0
 10 11  1  0
 11 12  2  0
 12  7  1  0
 12  4  1  0
 13  2  1  0
 14 13  2  0
 15 13  1  0
 16 27  1  0
 16 15  1  0
 16 17  1  1
 18 17  1  0
 18 26  1  0
 19 20  1  0
 19 18  2  0
 20 21  1  0
 21 22  2  0
 21 26  1  0
 22 23  1  0
 23 24  2  0
 25 24  1  0
 26 25  2  0
 27 36  1  0
 28 27  2  0
 29 30  1  0
 30 40  2  0
 31 30  1  0
 31 32  2  0
 32 33  1  0
 33 39  2  0
 33 34  1  0
 35 34  1  1
 35 37  1  0
 36 35  1  0
 37 38  2  0
 37 41  1  0
 40 39  1  0
M  END
$$$$
