WWY.pdb
     RDKit          3D

 41 45  0  0  1  0  0  0  0  0999 V2000
   10.5955  -16.5230   20.2831 N   0  0  0  0  0  0  0  0  0  0  0  0
   11.0291  -17.2194   21.4494 C   0  0  1  0  0  0  0  0  0  0  0  0
   12.5216  -17.4512   21.4893 C   0  0  0  0  0  0  0  0  0  0  0  0
   12.9690  -18.3581   20.4097 C   0  0  0  0  0  0  0  0  0  0  0  0
   13.2901  -17.9812   19.1203 C   0  0  0  0  0  0  0  0  0  0  0  0
   13.6574  -19.0848   18.4182 N   0  0  0  0  0  0  0  0  0  0  0  0
   13.5864  -20.1700   19.2077 C   0  0  0  0  0  0  0  0  0  0  0  0
   13.8376  -21.5103   19.0208 C   0  0  0  0  0  0  0  0  0  0  0  0
   13.6675  -22.4049   20.0523 C   0  0  0  0  0  0  0  0  0  0  0  0
   13.2470  -21.9904   21.2833 C   0  0  0  0  0  0  0  0  0  0  0  0
   12.9951  -20.6472   21.4712 C   0  0  0  0  0  0  0  0  0  0  0  0
   13.1542  -19.7207   20.4614 C   0  0  0  0  0  0  0  0  0  0  0  0
   10.5710  -16.4846   22.6501 C   0  0  0  0  0  0  0  0  0  0  0  0
   10.7963  -15.2571   22.7730 O   0  0  0  0  0  0  0  0  0  0  0  0
    9.8730  -17.2008   23.6564 N   0  0  0  0  0  0  0  0  0  0  0  0
    9.4074  -16.5124   24.8332 C   0  0  1  0  0  0  0  0  0  0  0  0
    7.9185  -16.4053   24.9331 C   0  0  0  0  0  0  0  0  0  0  0  0
    7.3735  -15.0965   24.5601 C   0  0  0  0  0  0  0  0  0  0  0  0
    6.8858  -14.7517   23.3195 C   0  0  0  0  0  0  0  0  0  0  0  0
    6.4451  -13.4853   23.3255 N   0  0  0  0  0  0  0  0  0  0  0  0
    6.6476  -13.0126   24.5663 C   0  0  0  0  0  0  0  0  0  0  0  0
    6.3771  -11.7742   25.0944 C   0  0  0  0  0  0  0  0  0  0  0  0
    6.6691  -11.4772   26.4076 C   0  0  0  0  0  0  0  0  0  0  0  0
    7.2439  -12.4556   27.1896 C   0  0  0  0  0  0  0  0  0  0  0  0
    7.5203  -13.7164   26.6557 C   0  0  0  0  0  0  0  0  0  0  0  0
    7.2279  -14.0001   25.3592 C   0  0  0  0  0  0  0  0  0  0  0  0
   10.0063  -17.1729   26.0232 C   0  0  0  0  0  0  0  0  0  0  0  0
    9.9498  -18.4176   26.1882 O   0  0  0  0  0  0  0  0  0  0  0  0
   16.4760  -17.0134   24.6744 O   0  0  0  0  0  0  0  0  0  0  0  0
   15.4969  -16.8489   25.6544 C   0  0  0  0  0  0  0  0  0  0  0  0
   15.5362  -17.5740   26.8062 C   0  0  0  0  0  0  0  0  0  0  0  0
   14.5641  -17.4110   27.7796 C   0  0  0  0  0  0  0  0  0  0  0  0
   13.5512  -16.4979   27.5614 C   0  0  0  0  0  0  0  0  0  0  0  0
   12.4828  -16.2716   28.5374 C   0  0  0  0  0  0  0  0  0  0  0  0
   11.2566  -17.0796   28.1733 C   0  0  2  0  0  0  0  0  0  0  0  0
   10.6656  -16.4045   27.0156 N   0  0  0  0  0  0  0  0  0  0  0  0
   10.2795  -17.2007   29.2678 C   0  0  0  0  0  0  0  0  0  0  0  0
    9.1491  -16.6609   29.2330 O   0  0  0  0  0  0  0  0  0  0  0  0
   13.4960  -15.7471   26.3876 C   0  0  0  0  0  0  0  0  0  0  0  0
   14.4843  -15.9459   25.4529 C   0  0  0  0  0  0  0  0  0  0  0  0
   10.5727  -17.9366   30.4176 O   0  0  0  0  0  0  0  0  0  0  0  0
  2  3  1  0
  2  1  1  6
  4  3  1  0
  4  5  2  0
  6  5  1  0
  7  6  1  0
  8  7  2  0
  9  8  1  0
 10  9  2  0
 10 11  1  0
 11 12  2  0
 12  7  1  0
 12  4  1  0
 13  2  1  0
 14 13  2  0
 15 13  1  0
 16 27  1  0
 16 15  1  0
 16 17  1  1
 18 17  1  0
 18 26  1  0
 19 20  1  0
 19 18  2  0
 20 21  1  0
 21 22  2  0
 21 26  1  0
 22 23  1  0
 23 24  2  0
 25 24  1  0
 26 25  2  0
 27 36  1  0
 28 27  2  0
 29 30  1  0
 30 40  2  0
 31 30  1  0
 31 32  2  0
 32 33  1  0
 33 39  2  0
 33 34  1  0
 35 34  1  1
 35 37  1  0
 36 35  1  0
 37 38  2  0
 37 41  1  0
 40 39  1  0
M  END
$$$$
