WWY.pdb
     RDKit          3D

 41 45  0  0  1  0  0  0  0  0999 V2000
    8.0532  -17.3745   20.5018 N   0  0  0  0  0  0  0  0  0  0  0  0
    8.4934  -16.0230   20.3883 C   0  0  1  0  0  0  0  0  0  0  0  0
    7.4148  -15.0789   19.9107 C   0  0  0  0  0  0  0  0  0  0  0  0
    7.1862  -15.1928   18.4537 C   0  0  0  0  0  0  0  0  0  0  0  0
    6.6660  -16.2940   17.8019 C   0  0  0  0  0  0  0  0  0  0  0  0
    6.6032  -16.0280   16.4711 N   0  0  0  0  0  0  0  0  0  0  0  0
    7.0656  -14.7889   16.2330 C   0  0  0  0  0  0  0  0  0  0  0  0
    7.2256  -14.0263   15.0984 C   0  0  0  0  0  0  0  0  0  0  0  0
    7.7422  -12.7534   15.1777 C   0  0  0  0  0  0  0  0  0  0  0  0
    8.1085  -12.2142   16.3773 C   0  0  0  0  0  0  0  0  0  0  0  0
    7.9483  -12.9781   17.5147 C   0  0  0  0  0  0  0  0  0  0  0  0
    7.4341  -14.2578   17.4750 C   0  0  0  0  0  0  0  0  0  0  0  0
    9.0492  -15.5842   21.6883 C   0  0  0  0  0  0  0  0  0  0  0  0
    9.5476  -14.4407   21.8172 O   0  0  0  0  0  0  0  0  0  0  0  0
    9.0049  -16.4863   22.7824 N   0  0  0  0  0  0  0  0  0  0  0  0
    9.7828  -16.2171   23.9647 C   0  0  1  0  0  0  0  0  0  0  0  0
    9.0429  -16.4283   25.2478 C   0  0  0  0  0  0  0  0  0  0  0  0
    7.8240  -15.6263   25.3895 C   0  0  0  0  0  0  0  0  0  0  0  0
    6.5451  -16.1209   25.5141 C   0  0  0  0  0  0  0  0  0  0  0  0
    5.6660  -15.1171   25.6460 N   0  0  0  0  0  0  0  0  0  0  0  0
    6.3746  -13.9766   25.6064 C   0  0  0  0  0  0  0  0  0  0  0  0
    5.9537  -12.6723   25.6926 C   0  0  0  0  0  0  0  0  0  0  0  0
    6.8475  -11.6262   25.6232 C   0  0  0  0  0  0  0  0  0  0  0  0
    8.1855  -11.9156   25.4638 C   0  0  0  0  0  0  0  0  0  0  0  0
    8.6170  -13.2412   25.3760 C   0  0  0  0  0  0  0  0  0  0  0  0
    7.7277  -14.2664   25.4462 C   0  0  0  0  0  0  0  0  0  0  0  0
   11.0289  -17.0252   23.8928 C   0  0  0  0  0  0  0  0  0  0  0  0
   11.0691  -18.1283   23.2919 O   0  0  0  0  0  0  0  0  0  0  0  0
   10.7780  -15.9171   32.0310 O   0  0  0  0  0  0  0  0  0  0  0  0
   10.8530  -15.8580   30.6391 C   0  0  0  0  0  0  0  0  0  0  0  0
   11.0139  -14.6661   30.0008 C   0  0  0  0  0  0  0  0  0  0  0  0
   11.0883  -14.6070   28.6187 C   0  0  0  0  0  0  0  0  0  0  0  0
   10.9961  -15.7809   27.8971 C   0  0  0  0  0  0  0  0  0  0  0  0
   11.0588  -15.8028   26.4339 C   0  0  0  0  0  0  0  0  0  0  0  0
   12.3048  -16.5250   25.9705 C   0  0  2  0  0  0  0  0  0  0  0  0
   12.2201  -16.5652   24.5089 N   0  0  0  0  0  0  0  0  0  0  0  0
   12.4465  -17.8805   26.5274 C   0  0  0  0  0  0  0  0  0  0  0  0
   13.2973  -18.1715   27.4001 O   0  0  0  0  0  0  0  0  0  0  0  0
   10.8312  -17.0099   28.5349 C   0  0  0  0  0  0  0  0  0  0  0  0
   10.7632  -17.0150   29.9080 C   0  0  0  0  0  0  0  0  0  0  0  0
   11.6236  -18.9247   26.1005 O   0  0  0  0  0  0  0  0  0  0  0  0
  2  3  1  0
  2  1  1  1
  4  3  1  0
  4  5  2  0
  6  5  1  0
  7  6  1  0
  8  7  2  0
  9  8  1  0
 10  9  2  0
 10 11  1  0
 11 12  2  0
 12  7  1  0
 12  4  1  0
 13  2  1  0
 14 13  2  0
 15 13  1  0
 16 27  1  0
 16 15  1  0
 16 17  1  1
 18 17  1  0
 18 26  1  0
 19 20  1  0
 19 18  2  0
 20 21  1  0
 21 22  2  0
 21 26  1  0
 22 23  1  0
 23 24  2  0
 25 24  1  0
 26 25  2  0
 27 36  1  0
 28 27  2  0
 29 30  1  0
 30 40  2  0
 31 30  1  0
 31 32  2  0
 32 33  1  0
 33 39  2  0
 33 34  1  0
 35 34  1  1
 35 37  1  0
 36 35  1  0
 37 38  2  0
 37 41  1  0
 40 39  1  0
M  END
$$$$
