DWD.pdb
     RDKit          3D

 31 32  0  0  1  0  0  0  0  0999 V2000
    7.5087  -17.0141   20.9271 N   0  0  0  0  0  0  0  0  0  0  0  0
    8.7599  -16.2590   20.8507 C   0  0  1  0  0  0  0  0  0  0  0  0
    8.4435  -14.9910   20.0882 C   0  0  0  0  0  0  0  0  0  0  0  0
    8.1681  -15.3894   18.6835 C   0  0  0  0  0  0  0  0  0  0  0  0
    8.4255  -16.5719   18.2834 O   0  0  0  0  0  0  0  0  0  0  0  0
    9.3050  -16.0030   22.1879 C   0  0  0  0  0  0  0  0  0  0  0  0
   10.2991  -15.2338   22.3337 O   0  0  0  0  0  0  0  0  0  0  0  0
    7.6292  -14.5214   17.7501 O   0  0  0  0  0  0  0  0  0  0  0  0
    8.7685  -16.5830   23.3549 N   0  0  0  0  0  0  0  0  0  0  0  0
    9.4204  -16.4764   24.6596 C   0  0  1  0  0  0  0  0  0  0  0  0
    8.3123  -16.6396   25.6961 C   0  0  0  0  0  0  0  0  0  0  0  0
    7.2886  -15.5699   25.5916 C   0  0  0  0  0  0  0  0  0  0  0  0
    5.9913  -15.6732   25.1347 C   0  0  0  0  0  0  0  0  0  0  0  0
    5.3712  -14.4875   25.1900 N   0  0  0  0  0  0  0  0  0  0  0  0
    6.2526  -13.6028   25.6810 C   0  0  0  0  0  0  0  0  0  0  0  0
    6.1243  -12.2396   25.9434 C   0  0  0  0  0  0  0  0  0  0  0  0
    7.2016  -11.5412   26.4619 C   0  0  0  0  0  0  0  0  0  0  0  0
    8.4049  -12.1693   26.7250 C   0  0  0  0  0  0  0  0  0  0  0  0
    8.5193  -13.5175   26.4611 C   0  0  0  0  0  0  0  0  0  0  0  0
    7.4473  -14.2319   25.9411 C   0  0  0  0  0  0  0  0  0  0  0  0
   10.4784  -17.4695   24.8344 C   0  0  0  0  0  0  0  0  0  0  0  0
   10.5462  -18.4919   24.0945 O   0  0  0  0  0  0  0  0  0  0  0  0
   11.4533  -17.3151   25.8347 N   0  0  0  0  0  0  0  0  0  0  0  0
   12.7530  -17.9988   25.7625 C   0  0  1  0  0  0  0  0  0  0  0  0
   13.7170  -16.9628   25.2482 C   0  0  0  0  0  0  0  0  0  0  0  0
   14.7620  -17.4662   24.3595 C   0  0  0  0  0  0  0  0  0  0  0  0
   14.8281  -18.7141   24.1499 O   0  0  0  0  0  0  0  0  0  0  0  0
   13.1249  -18.5022   27.1081 C   0  0  0  0  0  0  0  0  0  0  0  0
   12.7541  -17.7368   28.2221 O   0  0  0  0  0  0  0  0  0  0  0  0
   15.6969  -16.6827   23.7221 O   0  0  0  0  0  0  0  0  0  0  0  0
   13.7439  -19.5577   27.3194 O   0  0  0  0  0  0  0  0  0  0  0  0
  2  1  1  1
  2  6  1  0
  2  3  1  0
  3  4  1  0
  4  5  2  0
  4  8  1  0
  6  9  1  0
  6  7  2  0
  9 10  1  0
 10 11  1  1
 11 12  1  0
 12 13  2  0
 14 13  1  0
 15 14  1  0
 16 15  2  0
 17 16  1  0
 18 17  2  0
 18 19  1  0
 19 20  2  0
 20 15  1  0
 20 12  1  0
 21 23  1  0
 21 10  1  0
 22 21  2  0
 24 28  1  0
 24 23  1  0
 24 25  1  1
 26 25  1  0
 27 26  2  0
 28 29  1  0
 30 26  1  0
 31 28  2  0
M  END
$$$$
