DWD.pdb
     RDKit          3D

 31 32  0  0  1  0  0  0  0  0999 V2000
    7.7762  -17.3709   20.4495 N   0  0  0  0  0  0  0  0  0  0  0  0
    8.9483  -16.4947   20.4372 C   0  0  1  0  0  0  0  0  0  0  0  0
    8.5607  -15.2802   19.6222 C   0  0  0  0  0  0  0  0  0  0  0  0
    8.5187  -15.7099   18.2005 C   0  0  0  0  0  0  0  0  0  0  0  0
    9.2975  -16.6261   17.7776 O   0  0  0  0  0  0  0  0  0  0  0  0
    9.3713  -16.1590   21.8007 C   0  0  0  0  0  0  0  0  0  0  0  0
   10.2880  -15.3078   21.9915 O   0  0  0  0  0  0  0  0  0  0  0  0
    7.6530  -15.1544   17.2748 O   0  0  0  0  0  0  0  0  0  0  0  0
    8.7978  -16.7488   22.9449 N   0  0  0  0  0  0  0  0  0  0  0  0
    9.2753  -16.4703   24.2988 C   0  0  1  0  0  0  0  0  0  0  0  0
    8.0320  -16.4377   25.1831 C   0  0  0  0  0  0  0  0  0  0  0  0
    7.2029  -15.2316   24.9358 C   0  0  0  0  0  0  0  0  0  0  0  0
    6.1456  -15.0886   24.0617 C   0  0  0  0  0  0  0  0  0  0  0  0
    5.6462  -13.8473   24.1176 N   0  0  0  0  0  0  0  0  0  0  0  0
    6.3684  -13.1710   25.0240 C   0  0  0  0  0  0  0  0  0  0  0  0
    6.2694  -11.8529   25.4674 C   0  0  0  0  0  0  0  0  0  0  0  0
    7.1492  -11.3903   26.4313 C   0  0  0  0  0  0  0  0  0  0  0  0
    8.1264  -12.2105   26.9641 C   0  0  0  0  0  0  0  0  0  0  0  0
    8.2144  -13.5116   26.5174 C   0  0  0  0  0  0  0  0  0  0  0  0
    7.3387  -13.9904   25.5510 C   0  0  0  0  0  0  0  0  0  0  0  0
   10.2447  -17.4619   24.7606 C   0  0  0  0  0  0  0  0  0  0  0  0
    9.9631  -18.6939   24.7801 O   0  0  0  0  0  0  0  0  0  0  0  0
   11.5216  -17.0716   25.1985 N   0  0  0  0  0  0  0  0  0  0  0  0
   12.4870  -18.0418   25.7358 C   0  0  1  0  0  0  0  0  0  0  0  0
   13.8299  -17.3715   25.6166 C   0  0  0  0  0  0  0  0  0  0  0  0
   14.2086  -16.9639   24.2655 C   0  0  0  0  0  0  0  0  0  0  0  0
   14.0548  -17.7919   23.3187 O   0  0  0  0  0  0  0  0  0  0  0  0
   12.1364  -18.3650   27.1412 C   0  0  0  0  0  0  0  0  0  0  0  0
   12.9009  -19.3353   27.8032 O   0  0  0  0  0  0  0  0  0  0  0  0
   14.7288  -15.7342   23.9318 O   0  0  0  0  0  0  0  0  0  0  0  0
   11.2101  -17.8350   27.7761 O   0  0  0  0  0  0  0  0  0  0  0  0
  2  1  1  1
  2  6  1  0
  2  3  1  0
  3  4  1  0
  4  5  2  0
  4  8  1  0
  6  9  1  0
  6  7  2  0
  9 10  1  0
 10 11  1  1
 11 12  1  0
 12 13  2  0
 14 13  1  0
 15 14  1  0
 16 15  2  0
 17 16  1  0
 18 17  2  0
 18 19  1  0
 19 20  2  0
 20 15  1  0
 20 12  1  0
 21 23  1  0
 21 10  1  0
 22 21  2  0
 24 28  1  0
 24 23  1  0
 24 25  1  1
 26 25  1  0
 27 26  2  0
 28 29  1  0
 30 26  1  0
 31 28  2  0
M  END
$$$$
