DWD.pdb
     RDKit          3D

 31 32  0  0  1  0  0  0  0  0999 V2000
    8.8615  -17.7403   17.3128 N   0  0  0  0  0  0  0  0  0  0  0  0
    9.9310  -18.2930   18.1447 C   0  0  1  0  0  0  0  0  0  0  0  0
   11.1605  -18.3589   17.2654 C   0  0  0  0  0  0  0  0  0  0  0  0
   12.1636  -19.1840   17.9870 C   0  0  0  0  0  0  0  0  0  0  0  0
   11.8043  -20.2235   18.6313 O   0  0  0  0  0  0  0  0  0  0  0  0
   10.1322  -17.4852   19.3521 C   0  0  0  0  0  0  0  0  0  0  0  0
   10.6889  -16.3515   19.2741 O   0  0  0  0  0  0  0  0  0  0  0  0
   13.5135  -18.8800   18.0016 O   0  0  0  0  0  0  0  0  0  0  0  0
    9.7289  -17.9130   20.6328 N   0  0  0  0  0  0  0  0  0  0  0  0
    9.8725  -17.0777   21.8246 C   0  0  1  0  0  0  0  0  0  0  0  0
    8.4818  -16.9939   22.4474 C   0  0  0  0  0  0  0  0  0  0  0  0
    7.5916  -16.0688   21.7025 C   0  0  0  0  0  0  0  0  0  0  0  0
    6.3058  -16.2962   21.2581 C   0  0  0  0  0  0  0  0  0  0  0  0
    5.8247  -15.2206   20.6218 N   0  0  0  0  0  0  0  0  0  0  0  0
    6.7863  -14.2849   20.6443 C   0  0  0  0  0  0  0  0  0  0  0  0
    6.8075  -12.9885   20.1318 C   0  0  0  0  0  0  0  0  0  0  0  0
    7.9413  -12.2103   20.2933 C   0  0  0  0  0  0  0  0  0  0  0  0
    9.0556  -12.6938   20.9538 C   0  0  0  0  0  0  0  0  0  0  0  0
    9.0225  -13.9772   21.4558 C   0  0  0  0  0  0  0  0  0  0  0  0
    7.8921  -14.7700   21.3019 C   0  0  0  0  0  0  0  0  0  0  0  0
   10.8567  -17.6135   22.7628 C   0  0  0  0  0  0  0  0  0  0  0  0
   10.6782  -18.7260   23.3356 O   0  0  0  0  0  0  0  0  0  0  0  0
   12.0333  -16.9034   23.0564 N   0  0  0  0  0  0  0  0  0  0  0  0
   13.0045  -17.3887   24.0480 C   0  0  1  0  0  0  0  0  0  0  0  0
   14.1895  -16.4681   23.9247 C   0  0  0  0  0  0  0  0  0  0  0  0
   14.9113  -16.5429   22.6563 C   0  0  0  0  0  0  0  0  0  0  0  0
   14.9527  -17.6541   22.0488 O   0  0  0  0  0  0  0  0  0  0  0  0
   12.3945  -17.3509   25.4004 C   0  0  0  0  0  0  0  0  0  0  0  0
   13.1031  -17.9371   26.4580 O   0  0  0  0  0  0  0  0  0  0  0  0
   15.5619  -15.4877   22.0584 O   0  0  0  0  0  0  0  0  0  0  0  0
   11.2962  -16.8349   25.6639 O   0  0  0  0  0  0  0  0  0  0  0  0
  2  1  1  6
  2  6  1  0
  2  3  1  0
  3  4  1  0
  4  5  2  0
  4  8  1  0
  6  9  1  0
  6  7  2  0
  9 10  1  0
 10 11  1  1
 11 12  1  0
 12 13  2  0
 14 13  1  0
 15 14  1  0
 16 15  2  0
 17 16  1  0
 18 17  2  0
 18 19  1  0
 19 20  2  0
 20 15  1  0
 20 12  1  0
 21 23  1  0
 21 10  1  0
 22 21  2  0
 24 28  1  0
 24 23  1  0
 24 25  1  1
 26 25  1  0
 27 26  2  0
 28 29  1  0
 30 26  1  0
 31 28  2  0
M  END
$$$$
