DWD.pdb
     RDKit          3D

 31 32  0  0  1  0  0  0  0  0999 V2000
   10.5907  -18.5750   20.6524 N   0  0  0  0  0  0  0  0  0  0  0  0
   11.5399  -17.4814   20.8634 C   0  0  1  0  0  0  0  0  0  0  0  0
   11.6756  -16.7754   19.5320 C   0  0  0  0  0  0  0  0  0  0  0  0
   12.9233  -15.9712   19.5950 C   0  0  0  0  0  0  0  0  0  0  0  0
   12.9269  -14.7513   19.2256 O   0  0  0  0  0  0  0  0  0  0  0  0
   11.0913  -16.5929   21.9405 C   0  0  0  0  0  0  0  0  0  0  0  0
   11.9316  -15.9040   22.5890 O   0  0  0  0  0  0  0  0  0  0  0  0
   14.1253  -16.4867   20.0473 O   0  0  0  0  0  0  0  0  0  0  0  0
    9.7368  -16.4592   22.3055 N   0  0  0  0  0  0  0  0  0  0  0  0
    9.3037  -15.6558   23.4481 C   0  0  1  0  0  0  0  0  0  0  0  0
    7.8092  -15.4184   23.2509 C   0  0  0  0  0  0  0  0  0  0  0  0
    7.1812  -14.7952   24.4427 C   0  0  0  0  0  0  0  0  0  0  0  0
    6.3536  -15.3840   25.3760 C   0  0  0  0  0  0  0  0  0  0  0  0
    5.9839  -14.4987   26.3103 N   0  0  0  0  0  0  0  0  0  0  0  0
    6.5633  -13.3293   25.9982 C   0  0  0  0  0  0  0  0  0  0  0  0
    6.5133  -12.0898   26.6346 C   0  0  0  0  0  0  0  0  0  0  0  0
    7.2164  -11.0220   26.1030 C   0  0  0  0  0  0  0  0  0  0  0  0
    7.9686  -11.1599   24.9511 C   0  0  0  0  0  0  0  0  0  0  0  0
    8.0099  -12.3903   24.3310 C   0  0  0  0  0  0  0  0  0  0  0  0
    7.3101  -13.4712   24.8524 C   0  0  0  0  0  0  0  0  0  0  0  0
    9.5863  -16.3086   24.7248 C   0  0  0  0  0  0  0  0  0  0  0  0
    9.4451  -15.6943   25.8203 O   0  0  0  0  0  0  0  0  0  0  0  0
   10.0256  -17.6426   24.7702 N   0  0  0  0  0  0  0  0  0  0  0  0
   10.2364  -18.3464   26.0440 C   0  0  1  0  0  0  0  0  0  0  0  0
   10.2581  -19.8094   25.6889 C   0  0  0  0  0  0  0  0  0  0  0  0
   10.5842  -20.7157   26.7878 C   0  0  0  0  0  0  0  0  0  0  0  0
    9.8364  -20.7192   27.8107 O   0  0  0  0  0  0  0  0  0  0  0  0
   11.5090  -17.8921   26.6577 C   0  0  0  0  0  0  0  0  0  0  0  0
   11.6138  -17.9251   28.0549 O   0  0  0  0  0  0  0  0  0  0  0  0
   11.6558  -21.5792   26.8033 O   0  0  0  0  0  0  0  0  0  0  0  0
   12.4925  -17.4829   26.0196 O   0  0  0  0  0  0  0  0  0  0  0  0
  2  1  1  6
  2  6  1  0
  2  3  1  0
  3  4  1  0
  4  5  2  0
  4  8  1  0
  6  9  1  0
  6  7  2  0
  9 10  1  0
 10 11  1  6
 11 12  1  0
 12 13  2  0
 14 13  1  0
 15 14  1  0
 16 15  2  0
 17 16  1  0
 18 17  2  0
 18 19  1  0
 19 20  2  0
 20 15  1  0
 20 12  1  0
 21 23  1  0
 21 10  1  0
 22 21  2  0
 24 28  1  0
 24 23  1  0
 24 25  1  6
 26 25  1  0
 27 26  2  0
 28 29  1  0
 30 26  1  0
 31 28  2  0
M  END
$$$$
