DWD.pdb
     RDKit          3D

 31 32  0  0  1  0  0  0  0  0999 V2000
    6.5799  -15.3771   20.6760 N   0  0  0  0  0  0  0  0  0  0  0  0
    7.4849  -16.4772   21.0110 C   0  0  1  0  0  0  0  0  0  0  0  0
    8.3036  -16.7459   19.7673 C   0  0  0  0  0  0  0  0  0  0  0  0
    7.3741  -17.3027   18.7506 C   0  0  0  0  0  0  0  0  0  0  0  0
    6.2815  -17.8548   19.1055 O   0  0  0  0  0  0  0  0  0  0  0  0
    8.3080  -16.1471   22.1791 C   0  0  0  0  0  0  0  0  0  0  0  0
    9.1407  -15.1960   22.1228 O   0  0  0  0  0  0  0  0  0  0  0  0
    7.6337  -17.2558   17.3921 O   0  0  0  0  0  0  0  0  0  0  0  0
    8.2219  -16.8507   23.3971 N   0  0  0  0  0  0  0  0  0  0  0  0
    9.1210  -16.5935   24.5214 C   0  0  1  0  0  0  0  0  0  0  0  0
    8.2335  -16.5288   25.7612 C   0  0  0  0  0  0  0  0  0  0  0  0
    7.2985  -15.3768   25.7185 C   0  0  0  0  0  0  0  0  0  0  0  0
    5.9473  -15.3854   25.4414 C   0  0  0  0  0  0  0  0  0  0  0  0
    5.4420  -14.1465   25.4967 N   0  0  0  0  0  0  0  0  0  0  0  0
    6.4526  -13.3209   25.8091 C   0  0  0  0  0  0  0  0  0  0  0  0
    6.4757  -11.9392   25.9939 C   0  0  0  0  0  0  0  0  0  0  0  0
    7.6679  -11.3152   26.3206 C   0  0  0  0  0  0  0  0  0  0  0  0
    8.8386  -12.0359   26.4673 C   0  0  0  0  0  0  0  0  0  0  0  0
    8.8029  -13.4014   26.2818 C   0  0  0  0  0  0  0  0  0  0  0  0
    7.6145  -14.0418   25.9540 C   0  0  0  0  0  0  0  0  0  0  0  0
   10.1579  -17.6156   24.6482 C   0  0  0  0  0  0  0  0  0  0  0  0
    9.8785  -18.8457   24.5696 O   0  0  0  0  0  0  0  0  0  0  0  0
   11.4998  -17.2578   24.8628 N   0  0  0  0  0  0  0  0  0  0  0  0
   12.4995  -18.2355   25.3175 C   0  0  1  0  0  0  0  0  0  0  0  0
   13.7379  -17.9378   24.5148 C   0  0  0  0  0  0  0  0  0  0  0  0
   13.9726  -16.5246   24.2263 C   0  0  0  0  0  0  0  0  0  0  0  0
   13.1747  -15.6680   24.7112 O   0  0  0  0  0  0  0  0  0  0  0  0
   12.7180  -18.0801   26.7772 C   0  0  0  0  0  0  0  0  0  0  0  0
   13.5303  -19.0211   27.4244 O   0  0  0  0  0  0  0  0  0  0  0  0
   15.0058  -16.0401   23.4570 O   0  0  0  0  0  0  0  0  0  0  0  0
   12.2307  -17.1720   27.4699 O   0  0  0  0  0  0  0  0  0  0  0  0
  2  1  1  6
  2  6  1  0
  2  3  1  0
  3  4  1  0
  4  5  2  0
  4  8  1  0
  6  9  1  0
  6  7  2  0
  9 10  1  0
 10 11  1  1
 11 12  1  0
 12 13  2  0
 14 13  1  0
 15 14  1  0
 16 15  2  0
 17 16  1  0
 18 17  2  0
 18 19  1  0
 19 20  2  0
 20 15  1  0
 20 12  1  0
 21 23  1  0
 21 10  1  0
 22 21  2  0
 24 28  1  0
 24 23  1  0
 24 25  1  6
 26 25  1  0
 27 26  2  0
 28 29  1  0
 30 26  1  0
 31 28  2  0
M  END
$$$$
