DWD.pdb
     RDKit          3D

 31 32  0  0  1  0  0  0  0  0999 V2000
    9.4528  -17.8284   19.5240 N   0  0  0  0  0  0  0  0  0  0  0  0
   10.6666  -17.4177   20.2308 C   0  0  1  0  0  0  0  0  0  0  0  0
   11.6003  -16.8588   19.1795 C   0  0  0  0  0  0  0  0  0  0  0  0
   12.9842  -17.0527   19.6843 C   0  0  0  0  0  0  0  0  0  0  0  0
   13.9198  -16.2634   19.3288 O   0  0  0  0  0  0  0  0  0  0  0  0
   10.3589  -16.4558   21.2941 C   0  0  0  0  0  0  0  0  0  0  0  0
   11.0335  -15.3908   21.4040 O   0  0  0  0  0  0  0  0  0  0  0  0
   13.3302  -18.0765   20.5487 O   0  0  0  0  0  0  0  0  0  0  0  0
    9.3237  -16.6566   22.2291 N   0  0  0  0  0  0  0  0  0  0  0  0
    9.0547  -15.7212   23.3205 C   0  0  1  0  0  0  0  0  0  0  0  0
    7.5408  -15.5302   23.3450 C   0  0  0  0  0  0  0  0  0  0  0  0
    7.0743  -14.9342   24.6219 C   0  0  0  0  0  0  0  0  0  0  0  0
    6.4581  -15.5654   25.6822 C   0  0  0  0  0  0  0  0  0  0  0  0
    6.1836  -14.6936   26.6610 N   0  0  0  0  0  0  0  0  0  0  0  0
    6.6156  -13.4909   26.2518 C   0  0  0  0  0  0  0  0  0  0  0  0
    6.5802  -12.2479   26.8822 C   0  0  0  0  0  0  0  0  0  0  0  0
    7.1050  -11.1412   26.2365 C   0  0  0  0  0  0  0  0  0  0  0  0
    7.6646  -11.2437   24.9763 C   0  0  0  0  0  0  0  0  0  0  0  0
    7.6935  -12.4781   24.3634 C   0  0  0  0  0  0  0  0  0  0  0  0
    7.1711  -13.5978   24.9986 C   0  0  0  0  0  0  0  0  0  0  0  0
    9.5623  -16.2039   24.6032 C   0  0  0  0  0  0  0  0  0  0  0  0
    9.6288  -15.4427   25.6100 O   0  0  0  0  0  0  0  0  0  0  0  0
    9.9933  -17.5330   24.7534 N   0  0  0  0  0  0  0  0  0  0  0  0
   10.7029  -17.9863   25.9588 C   0  0  1  0  0  0  0  0  0  0  0  0
    9.9338  -19.1866   26.4430 C   0  0  0  0  0  0  0  0  0  0  0  0
    9.8423  -19.3280   27.8945 C   0  0  0  0  0  0  0  0  0  0  0  0
   10.4638  -18.4984   28.6232 O   0  0  0  0  0  0  0  0  0  0  0  0
   12.1087  -18.3140   25.6139 C   0  0  0  0  0  0  0  0  0  0  0  0
   13.0088  -18.5370   26.6647 O   0  0  0  0  0  0  0  0  0  0  0  0
    9.1256  -20.3060   28.5457 O   0  0  0  0  0  0  0  0  0  0  0  0
   12.5471  -18.4054   24.4557 O   0  0  0  0  0  0  0  0  0  0  0  0
  2  1  1  6
  2  6  1  0
  2  3  1  0
  3  4  1  0
  4  5  2  0
  4  8  1  0
  6  9  1  0
  6  7  2  0
  9 10  1  0
 10 11  1  1
 11 12  1  0
 12 13  2  0
 14 13  1  0
 15 14  1  0
 16 15  2  0
 17 16  1  0
 18 17  2  0
 18 19  1  0
 19 20  2  0
 20 15  1  0
 20 12  1  0
 21 23  1  0
 21 10  1  0
 22 21  2  0
 24 28  1  0
 24 23  1  0
 24 25  1  6
 26 25  1  0
 27 26  2  0
 28 29  1  0
 30 26  1  0
 31 28  2  0
M  END
$$$$
