GLT.pdb
     RDKit          3D

 20 19  0  0  1  0  0  0  0  0999 V2000
    5.0957  -18.5959   23.0194 N   0  0  0  0  0  0  0  0  0  0  0  0
    5.0848  -17.7367   24.1723 C   0  0  0  0  0  0  0  0  0  0  0  0
    6.2462  -16.8067   24.1438 C   0  0  0  0  0  0  0  0  0  0  0  0
    6.9061  -16.7552   23.0773 O   0  0  0  0  0  0  0  0  0  0  0  0
    6.3839  -12.1996   27.3820 C   0  0  0  0  0  0  0  0  0  0  0  0
    6.6143  -13.0528   26.1792 C   0  0  1  0  0  0  0  0  0  0  0  0
    7.0632  -12.0925   25.0625 C   0  0  0  0  0  0  0  0  0  0  0  0
    7.6743  -14.0708   26.3006 C   0  0  0  0  0  0  0  0  0  0  0  0
    7.7661  -15.0945   25.2167 C   0  0  2  0  0  0  0  0  0  0  0  0
    6.6305  -16.0044   25.2230 N   0  0  0  0  0  0  0  0  0  0  0  0
    9.0132  -15.9174   25.3447 C   0  0  0  0  0  0  0  0  0  0  0  0
    9.2139  -16.6298   26.3627 O   0  0  0  0  0  0  0  0  0  0  0  0
   10.1381  -18.8007   23.1269 C   0  0  0  0  0  0  0  0  0  0  0  0
   11.2147  -17.7612   23.2119 C   0  0  1  0  0  0  0  0  0  0  0  0
   11.2870  -16.9749   22.0632 O   0  0  0  0  0  0  0  0  0  0  0  0
   11.0999  -16.8903   24.4380 C   0  0  2  0  0  0  0  0  0  0  0  0
   10.0175  -15.9387   24.3448 N   0  0  0  0  0  0  0  0  0  0  0  0
   12.3670  -16.1391   24.5593 C   0  0  0  0  0  0  0  0  0  0  0  0
   13.5327  -16.8305   24.8291 O   0  0  0  0  0  0  0  0  0  0  0  0
   12.4425  -14.8924   24.4290 O   0  0  0  0  0  0  0  0  0  0  0  0
  2  1  1  0
  3  2  1  0
  3 10  1  0
  4  3  2  0
  6  5  1  1
  6  7  1  0
  8  6  1  0
  9 10  1  0
  9  8  1  1
 11  9  1  0
 12 11  2  0
 14 13  1  6
 14 16  1  0
 15 14  1  0
 16 17  1  6
 16 18  1  0
 17 11  1  0
 18 19  1  0
 20 18  2  0
M  END
$$$$
