GLT.pdb
     RDKit          3D

 20 19  0  0  1  0  0  0  0  0999 V2000
   10.1380  -18.6234   17.4467 N   0  0  0  0  0  0  0  0  0  0  0  0
    9.1349  -18.2666   18.4132 C   0  0  0  0  0  0  0  0  0  0  0  0
    9.6243  -17.1743   19.2975 C   0  0  0  0  0  0  0  0  0  0  0  0
   10.8682  -17.0391   19.3974 O   0  0  0  0  0  0  0  0  0  0  0  0
    6.4395  -12.6766   20.1863 C   0  0  0  0  0  0  0  0  0  0  0  0
    7.6034  -13.5772   19.9372 C   0  0  1  0  0  0  0  0  0  0  0  0
    8.7033  -12.6851   19.3331 C   0  0  0  0  0  0  0  0  0  0  0  0
    8.1951  -14.2152   21.1278 C   0  0  0  0  0  0  0  0  0  0  0  0
    9.2441  -15.2531   20.8967 C   0  0  2  0  0  0  0  0  0  0  0  0
    8.7851  -16.3095   20.0073 N   0  0  0  0  0  0  0  0  0  0  0  0
    9.6751  -15.8922   22.1831 C   0  0  0  0  0  0  0  0  0  0  0  0
    8.8618  -16.0441   23.1316 O   0  0  0  0  0  0  0  0  0  0  0  0
   10.2219  -19.2175   23.3768 C   0  0  0  0  0  0  0  0  0  0  0  0
   11.5193  -18.4794   23.5141 C   0  0  1  0  0  0  0  0  0  0  0  0
   12.4081  -18.7686   22.4801 O   0  0  0  0  0  0  0  0  0  0  0  0
   11.3392  -16.9881   23.6502 C   0  0  2  0  0  0  0  0  0  0  0  0
   10.9980  -16.3527   22.3989 N   0  0  0  0  0  0  0  0  0  0  0  0
   12.6286  -16.4339   24.1138 C   0  0  0  0  0  0  0  0  0  0  0  0
   13.3639  -15.6391   23.2552 O   0  0  0  0  0  0  0  0  0  0  0  0
   13.0974  -16.6486   25.2588 O   0  0  0  0  0  0  0  0  0  0  0  0
  2  1  1  0
  3  2  1  0
  3 10  1  0
  4  3  2  0
  6  5  1  1
  6  7  1  0
  8  6  1  0
  9 10  1  0
  9  8  1  1
 11  9  1  0
 12 11  2  0
 14 13  1  6
 14 16  1  0
 15 14  1  0
 16 17  1  6
 16 18  1  0
 17 11  1  0
 18 19  1  0
 20 18  2  0
M  END
$$$$
