GLT.pdb
     RDKit          3D

 20 19  0  0  1  0  0  0  0  0999 V2000
    4.9289  -18.6128   23.5778 N   0  0  0  0  0  0  0  0  0  0  0  0
    5.1743  -17.7690   24.7159 C   0  0  0  0  0  0  0  0  0  0  0  0
    6.2830  -16.8174   24.4335 C   0  0  0  0  0  0  0  0  0  0  0  0
    6.8103  -16.8817   23.2963 O   0  0  0  0  0  0  0  0  0  0  0  0
    6.6761  -12.2688   27.6082 C   0  0  0  0  0  0  0  0  0  0  0  0
    6.6630  -13.1625   26.4128 C   0  0  1  0  0  0  0  0  0  0  0  0
    6.3831  -12.2472   25.2068 C   0  0  0  0  0  0  0  0  0  0  0  0
    7.9251  -13.8650   26.1154 C   0  0  0  0  0  0  0  0  0  0  0  0
    7.8716  -14.9715   25.1135 C   0  0  2  0  0  0  0  0  0  0  0  0
    6.7565  -15.8754   25.3525 N   0  0  0  0  0  0  0  0  0  0  0  0
    9.1315  -15.7846   25.1276 C   0  0  0  0  0  0  0  0  0  0  0  0
    9.4920  -16.3970   26.1665 O   0  0  0  0  0  0  0  0  0  0  0  0
   10.0179  -18.8997   23.0268 C   0  0  0  0  0  0  0  0  0  0  0  0
   11.0306  -17.8085   22.8519 C   0  0  1  0  0  0  0  0  0  0  0  0
   10.8658  -17.1167   21.6531 O   0  0  0  0  0  0  0  0  0  0  0  0
   11.0688  -16.8461   24.0127 C   0  0  2  0  0  0  0  0  0  0  0  0
    9.9717  -15.9071   23.9928 N   0  0  0  0  0  0  0  0  0  0  0  0
   12.3312  -16.0848   23.9063 C   0  0  0  0  0  0  0  0  0  0  0  0
   13.5317  -16.7553   24.0435 O   0  0  0  0  0  0  0  0  0  0  0  0
   12.3724  -14.8475   23.6957 O   0  0  0  0  0  0  0  0  0  0  0  0
  2  1  1  0
  3  2  1  0
  3 10  1  0
  4  3  2  0
  6  5  1  1
  6  7  1  0
  8  6  1  0
  9 10  1  0
  9  8  1  1
 11  9  1  0
 12 11  2  0
 14 13  1  1
 14 16  1  0
 15 14  1  0
 16 17  1  6
 16 18  1  0
 17 11  1  0
 18 19  1  0
 20 18  2  0
M  END
$$$$
