GLT.pdb
     RDKit          3D

 20 19  0  0  1  0  0  0  0  0999 V2000
    7.6160  -14.4583   20.0150 N   0  0  0  0  0  0  0  0  0  0  0  0
    6.7909  -14.6431   21.1780 C   0  0  0  0  0  0  0  0  0  0  0  0
    7.6006  -14.5180   22.4203 C   0  0  0  0  0  0  0  0  0  0  0  0
    8.8477  -14.4818   22.2837 O   0  0  0  0  0  0  0  0  0  0  0  0
    5.7842  -11.7474   26.9402 C   0  0  0  0  0  0  0  0  0  0  0  0
    6.6414  -12.3226   25.8622 C   0  0  1  0  0  0  0  0  0  0  0  0
    7.9329  -11.4843   25.8599 C   0  0  0  0  0  0  0  0  0  0  0  0
    7.0585  -13.7252   26.0453 C   0  0  0  0  0  0  0  0  0  0  0  0
    7.8280  -14.3600   24.9336 C   0  0  2  0  0  0  0  0  0  0  0  0
    7.0526  -14.4403   23.7047 N   0  0  0  0  0  0  0  0  0  0  0  0
    8.2632  -15.7495   25.2923 C   0  0  0  0  0  0  0  0  0  0  0  0
    7.4248  -16.6123   25.6625 O   0  0  0  0  0  0  0  0  0  0  0  0
   10.4317  -18.2557   23.1498 C   0  0  0  0  0  0  0  0  0  0  0  0
   10.9750  -18.0875   24.5367 C   0  0  1  0  0  0  0  0  0  0  0  0
   12.1366  -17.3175   24.5633 O   0  0  0  0  0  0  0  0  0  0  0  0
    9.9589  -17.5387   25.5069 C   0  0  2  0  0  0  0  0  0  0  0  0
    9.6180  -16.1618   25.2356 N   0  0  0  0  0  0  0  0  0  0  0  0
   10.5610  -17.6092   26.8549 C   0  0  0  0  0  0  0  0  0  0  0  0
   10.9100  -18.8433   27.3693 O   0  0  0  0  0  0  0  0  0  0  0  0
   10.7750  -16.5966   27.5662 O   0  0  0  0  0  0  0  0  0  0  0  0
  2  1  1  0
  3  2  1  0
  3 10  1  0
  4  3  2  0
  6  5  1  1
  6  7  1  0
  8  6  1  0
  9 10  1  0
  9  8  1  1
 11  9  1  0
 12 11  2  0
 14 13  1  6
 14 16  1  0
 15 14  1  0
 16 17  1  6
 16 18  1  0
 17 11  1  0
 18 19  1  0
 20 18  2  0
M  END
$$$$
