GLT.pdb
     RDKit          3D

 20 19  0  0  1  0  0  0  0  0999 V2000
    7.1219  -14.8964   20.0411 N   0  0  0  0  0  0  0  0  0  0  0  0
    6.3768  -14.8784   21.2707 C   0  0  0  0  0  0  0  0  0  0  0  0
    7.2914  -14.7338   22.4357 C   0  0  0  0  0  0  0  0  0  0  0  0
    8.5233  -14.7792   22.1993 O   0  0  0  0  0  0  0  0  0  0  0  0
    5.7240  -11.7440   26.9104 C   0  0  0  0  0  0  0  0  0  0  0  0
    6.5205  -12.3441   25.7999 C   0  0  1  0  0  0  0  0  0  0  0  0
    7.7481  -11.4318   25.6225 C   0  0  0  0  0  0  0  0  0  0  0  0
    7.0447  -13.7016   26.0390 C   0  0  0  0  0  0  0  0  0  0  0  0
    7.7339  -14.3785   24.8997 C   0  0  2  0  0  0  0  0  0  0  0  0
    6.8559  -14.5536   23.7525 N   0  0  0  0  0  0  0  0  0  0  0  0
    8.2462  -15.7313   25.2951 C   0  0  0  0  0  0  0  0  0  0  0  0
    7.4534  -16.6437   25.6458 O   0  0  0  0  0  0  0  0  0  0  0  0
   10.4399  -18.0998   23.1813 C   0  0  0  0  0  0  0  0  0  0  0  0
   11.0366  -17.9193   24.5444 C   0  0  1  0  0  0  0  0  0  0  0  0
   12.1719  -17.1108   24.5255 O   0  0  0  0  0  0  0  0  0  0  0  0
   10.0455  -17.4090   25.5605 C   0  0  2  0  0  0  0  0  0  0  0  0
    9.6267  -16.0524   25.2962 N   0  0  0  0  0  0  0  0  0  0  0  0
   10.7170  -17.4377   26.8769 C   0  0  0  0  0  0  0  0  0  0  0  0
   11.1101  -18.6538   27.4024 O   0  0  0  0  0  0  0  0  0  0  0  0
   10.9524  -16.4048   27.5514 O   0  0  0  0  0  0  0  0  0  0  0  0
  2  1  1  0
  3  2  1  0
  3 10  1  0
  4  3  2  0
  6  5  1  1
  6  7  1  0
  8  6  1  0
  9 10  1  0
  9  8  1  1
 11  9  1  0
 12 11  2  0
 14 13  1  6
 14 16  1  0
 15 14  1  0
 16 17  1  6
 16 18  1  0
 17 11  1  0
 18 19  1  0
 20 18  2  0
M  END
$$$$
