GLT.pdb
     RDKit          3D

 20 19  0  0  1  0  0  0  0  0999 V2000
    8.6240  -15.4642   19.4755 N   0  0  0  0  0  0  0  0  0  0  0  0
    7.6748  -15.6982   20.5299 C   0  0  0  0  0  0  0  0  0  0  0  0
    8.1905  -15.1764   21.8246 C   0  0  0  0  0  0  0  0  0  0  0  0
    9.4195  -15.3103   22.0415 O   0  0  0  0  0  0  0  0  0  0  0  0
    8.2845  -12.0508   26.4233 C   0  0  0  0  0  0  0  0  0  0  0  0
    7.1453  -12.9995   26.2502 C   0  0  1  0  0  0  0  0  0  0  0  0
    5.9036  -12.2687   26.7931 C   0  0  0  0  0  0  0  0  0  0  0  0
    6.8265  -13.3825   24.8622 C   0  0  0  0  0  0  0  0  0  0  0  0
    7.8286  -14.2197   24.1370 C   0  0  2  0  0  0  0  0  0  0  0  0
    7.3909  -14.5574   22.7909 N   0  0  0  0  0  0  0  0  0  0  0  0
    8.1008  -15.5021   24.8654 C   0  0  0  0  0  0  0  0  0  0  0  0
    7.1725  -16.3182   25.1029 O   0  0  0  0  0  0  0  0  0  0  0  0
   10.1057  -18.3516   23.6481 C   0  0  0  0  0  0  0  0  0  0  0  0
   10.6355  -17.9564   24.9935 C   0  0  1  0  0  0  0  0  0  0  0  0
   11.8332  -17.2487   24.9068 O   0  0  0  0  0  0  0  0  0  0  0  0
    9.6331  -17.1929   25.8224 C   0  0  2  0  0  0  0  0  0  0  0  0
    9.3949  -15.8604   25.3188 N   0  0  0  0  0  0  0  0  0  0  0  0
   10.1916  -17.0790   27.1860 C   0  0  0  0  0  0  0  0  0  0  0  0
   10.4176  -18.2303   27.9160 O   0  0  0  0  0  0  0  0  0  0  0  0
   10.4752  -15.9799   27.7234 O   0  0  0  0  0  0  0  0  0  0  0  0
  2  1  1  0
  3  2  1  0
  3 10  1  0
  4  3  2  0
  6  5  1  6
  6  7  1  0
  8  6  1  0
  9 10  1  0
  9  8  1  1
 11  9  1  0
 12 11  2  0
 14 13  1  6
 14 16  1  0
 15 14  1  0
 16 17  1  6
 16 18  1  0
 17 11  1  0
 18 19  1  0
 20 18  2  0
M  END
$$$$
