VMA.pdb
     RDKit          3D

 21 20  0  0  1  0  0  0  0  0999 V2000
    7.3274  -14.9521   17.6453 C   0  0  0  0  0  0  0  0  0  0  0  0
    7.9527  -15.0471   19.0228 C   0  0  2  0  0  0  0  0  0  0  0  0
    7.3461  -16.1637   19.8373 C   0  0  0  0  0  0  0  0  0  0  0  0
    7.7471  -13.7579   19.7942 C   0  0  2  0  0  0  0  0  0  0  0  0
    8.3543  -12.6325   19.1317 N   0  0  0  0  0  0  0  0  0  0  0  0
    8.3137  -13.8530   21.1619 C   0  0  0  0  0  0  0  0  0  0  0  0
    9.5540  -13.9106   21.3422 O   0  0  0  0  0  0  0  0  0  0  0  0
    6.5261  -10.7813   27.1558 C   0  0  0  0  0  0  0  0  0  0  0  0
    6.2851  -12.5756   27.1942 S   0  0  0  0  0  0  0  0  0  0  0  0
    7.3796  -13.3962   26.0397 C   0  0  0  0  0  0  0  0  0  0  0  0
    6.9723  -13.2814   24.6109 C   0  0  0  0  0  0  0  0  0  0  0  0
    7.9570  -13.9292   23.6637 C   0  0  2  0  0  0  0  0  0  0  0  0
    7.4645  -13.8810   22.2973 N   0  0  0  0  0  0  0  0  0  0  0  0
    8.3734  -15.2749   24.0794 C   0  0  0  0  0  0  0  0  0  0  0  0
    7.5150  -16.2080   24.1167 O   0  0  0  0  0  0  0  0  0  0  0  0
   11.5703  -17.1016   24.3161 C   0  0  0  0  0  0  0  0  0  0  0  0
   10.1019  -16.9552   24.8026 C   0  0  2  0  0  0  0  0  0  0  0  0
    9.7015  -15.6122   24.4455 N   0  0  0  0  0  0  0  0  0  0  0  0
   10.1357  -17.2401   26.2312 C   0  0  0  0  0  0  0  0  0  0  0  0
   10.4185  -18.5484   26.6189 O   0  0  0  0  0  0  0  0  0  0  0  0
    9.9324  -16.4103   27.1445 O   0  0  0  0  0  0  0  0  0  0  0  0
  2  1  1  6
  3  2  1  0
  4  2  1  0
  4  6  1  0
  4  5  1  6
  6  7  2  0
  9 10  1  0
  9  8  1  0
 10 11  1  0
 12 11  1  1
 13  6  1  0
 13 12  1  0
 14 12  1  0
 14 18  1  0
 15 14  2  0
 17 18  1  0
 17 16  1  1
 19 17  1  0
 20 19  1  0
 21 19  2  0
M  END
$$$$
