VMA.pdb
     RDKit          3D

 21 20  0  0  1  0  0  0  0  0999 V2000
    7.3590  -12.6451   20.2273 C   0  0  0  0  0  0  0  0  0  0  0  0
    8.4020  -13.5645   19.6239 C   0  0  2  0  0  0  0  0  0  0  0  0
    8.0057  -14.0321   18.2446 C   0  0  0  0  0  0  0  0  0  0  0  0
    8.5911  -14.7979   20.4854 C   0  0  2  0  0  0  0  0  0  0  0  0
    7.4208  -15.6372   20.4869 N   0  0  0  0  0  0  0  0  0  0  0  0
    8.9020  -14.4316   21.8889 C   0  0  0  0  0  0  0  0  0  0  0  0
    9.9874  -13.8757   22.1837 O   0  0  0  0  0  0  0  0  0  0  0  0
    6.3962  -10.7669   27.2436 C   0  0  0  0  0  0  0  0  0  0  0  0
    6.0083  -12.5357   27.2276 S   0  0  0  0  0  0  0  0  0  0  0  0
    7.3129  -13.4729   26.4377 C   0  0  0  0  0  0  0  0  0  0  0  0
    7.0720  -13.7799   24.9996 C   0  0  0  0  0  0  0  0  0  0  0  0
    8.2551  -14.4450   24.3330 C   0  0  2  0  0  0  0  0  0  0  0  0
    7.9776  -14.7021   22.9298 N   0  0  0  0  0  0  0  0  0  0  0  0
    8.7439  -15.6297   25.0504 C   0  0  0  0  0  0  0  0  0  0  0  0
    8.8511  -15.5918   26.3137 O   0  0  0  0  0  0  0  0  0  0  0  0
    9.3647  -19.2106   24.1704 C   0  0  0  0  0  0  0  0  0  0  0  0
    9.5498  -18.0122   25.1420 C   0  0  2  0  0  0  0  0  0  0  0  0
    9.1078  -16.8436   24.4136 N   0  0  0  0  0  0  0  0  0  0  0  0
   10.9594  -18.0250   25.5105 C   0  0  0  0  0  0  0  0  0  0  0  0
   11.4097  -19.0875   26.2918 O   0  0  0  0  0  0  0  0  0  0  0  0
   11.8051  -17.1626   25.1861 O   0  0  0  0  0  0  0  0  0  0  0  0
  2  1  1  1
  3  2  1  0
  4  2  1  0
  4  6  1  0
  4  5  1  1
  6  7  2  0
  9 10  1  0
  9  8  1  0
 10 11  1  0
 12 11  1  1
 13  6  1  0
 13 12  1  0
 14 12  1  0
 14 18  1  0
 15 14  2  0
 17 18  1  0
 17 16  1  6
 19 17  1  0
 20 19  1  0
 21 19  2  0
M  END
$$$$
