VMA.pdb
     RDKit          3D

 21 20  0  0  1  0  0  0  0  0999 V2000
    7.3766  -14.9448   18.0953 C   0  0  0  0  0  0  0  0  0  0  0  0
    7.9895  -15.0208   19.4795 C   0  0  2  0  0  0  0  0  0  0  0  0
    7.5540  -16.2634   20.2174 C   0  0  0  0  0  0  0  0  0  0  0  0
    7.5736  -13.8261   20.3156 C   0  0  2  0  0  0  0  0  0  0  0  0
    7.9160  -12.5799   19.6800 N   0  0  0  0  0  0  0  0  0  0  0  0
    8.2137  -13.8566   21.6535 C   0  0  0  0  0  0  0  0  0  0  0  0
    9.4348  -13.6019   21.7888 O   0  0  0  0  0  0  0  0  0  0  0  0
    7.2709  -11.1544   27.7925 C   0  0  0  0  0  0  0  0  0  0  0  0
    6.0380  -11.7940   26.6305 S   0  0  0  0  0  0  0  0  0  0  0  0
    6.8202  -12.4520   25.1610 C   0  0  0  0  0  0  0  0  0  0  0  0
    7.1020  -13.9144   25.2107 C   0  0  0  0  0  0  0  0  0  0  0  0
    8.0499  -14.3691   24.1239 C   0  0  2  0  0  0  0  0  0  0  0  0
    7.4584  -14.1749   22.8108 N   0  0  0  0  0  0  0  0  0  0  0  0
    8.5682  -15.7281   24.3275 C   0  0  0  0  0  0  0  0  0  0  0  0
    7.7662  -16.7104   24.3007 O   0  0  0  0  0  0  0  0  0  0  0  0
   11.9027  -17.3669   24.3006 C   0  0  0  0  0  0  0  0  0  0  0  0
   10.4234  -17.3688   24.7759 C   0  0  2  0  0  0  0  0  0  0  0  0
    9.9368  -16.0254   24.5519 N   0  0  0  0  0  0  0  0  0  0  0  0
   10.4630  -17.7969   26.1680 C   0  0  0  0  0  0  0  0  0  0  0  0
   10.9004  -19.0941   26.4290 O   0  0  0  0  0  0  0  0  0  0  0  0
   10.1378  -17.1000   27.1542 O   0  0  0  0  0  0  0  0  0  0  0  0
  2  1  1  6
  3  2  1  0
  4  2  1  0
  4  6  1  0
  4  5  1  6
  6  7  2  0
  9 10  1  0
  9  8  1  0
 10 11  1  0
 12 11  1  1
 13  6  1  0
 13 12  1  0
 14 12  1  0
 14 18  1  0
 15 14  2  0
 17 18  1  0
 17 16  1  1
 19 17  1  0
 20 19  1  0
 21 19  2  0
M  END
$$$$
