VMA.pdb
     RDKit          3D

 21 20  0  0  1  0  0  0  0  0999 V2000
    7.4886  -13.1156   20.7489 C   0  0  0  0  0  0  0  0  0  0  0  0
    8.2533  -14.2166   20.0414 C   0  0  2  0  0  0  0  0  0  0  0  0
    7.5371  -14.6867   18.7988 C   0  0  0  0  0  0  0  0  0  0  0  0
    8.4245  -15.4185   20.9499 C   0  0  2  0  0  0  0  0  0  0  0  0
    7.1732  -16.0867   21.1988 N   0  0  0  0  0  0  0  0  0  0  0  0
    9.0100  -15.0272   22.2556 C   0  0  0  0  0  0  0  0  0  0  0  0
   10.1746  -14.5660   22.3263 O   0  0  0  0  0  0  0  0  0  0  0  0
    5.4420  -11.9202   26.6696 C   0  0  0  0  0  0  0  0  0  0  0  0
    7.1624  -11.7881   27.2193 S   0  0  0  0  0  0  0  0  0  0  0  0
    8.1221  -13.1964   26.6719 C   0  0  0  0  0  0  0  0  0  0  0  0
    7.6758  -13.7855   25.3780 C   0  0  0  0  0  0  0  0  0  0  0  0
    8.7225  -14.6725   24.7422 C   0  0  2  0  0  0  0  0  0  0  0  0
    8.2651  -15.1662   23.4542 N   0  0  0  0  0  0  0  0  0  0  0  0
    9.2067  -15.7381   25.6294 C   0  0  0  0  0  0  0  0  0  0  0  0
    9.5448  -15.4525   26.8180 O   0  0  0  0  0  0  0  0  0  0  0  0
    9.2614  -19.4738   25.5199 C   0  0  0  0  0  0  0  0  0  0  0  0
    9.7565  -18.1397   26.1439 C   0  0  2  0  0  0  0  0  0  0  0  0
    9.3199  -17.0976   25.2411 N   0  0  0  0  0  0  0  0  0  0  0  0
   11.1996  -18.2865   26.2803 C   0  0  0  0  0  0  0  0  0  0  0  0
   11.6660  -19.2806   27.1384 O   0  0  0  0  0  0  0  0  0  0  0  0
   12.0610  -17.5961   25.6927 O   0  0  0  0  0  0  0  0  0  0  0  0
  2  1  1  1
  3  2  1  0
  4  2  1  0
  4  6  1  0
  4  5  1  1
  6  7  2  0
  9 10  1  0
  9  8  1  0
 10 11  1  0
 12 11  1  1
 13  6  1  0
 13 12  1  0
 14 12  1  0
 14 18  1  0
 15 14  2  0
 17 18  1  0
 17 16  1  6
 19 17  1  0
 20 19  1  0
 21 19  2  0
M  END
$$$$
