VMA.pdb
     RDKit          3D

 21 20  0  0  1  0  0  0  0  0999 V2000
    7.3872  -12.4509   20.8851 C   0  0  0  0  0  0  0  0  0  0  0  0
    8.1942  -13.3779   19.9979 C   0  0  2  0  0  0  0  0  0  0  0  0
    7.5937  -13.4960   18.6182 C   0  0  0  0  0  0  0  0  0  0  0  0
    8.2496  -14.7724   20.5907 C   0  0  2  0  0  0  0  0  0  0  0  0
    6.9572  -15.4080   20.5913 N   0  0  0  0  0  0  0  0  0  0  0  0
    8.7543  -14.7447   21.9854 C   0  0  0  0  0  0  0  0  0  0  0  0
    9.9187  -14.3532   22.2408 O   0  0  0  0  0  0  0  0  0  0  0  0
    7.1819  -11.5698   27.5856 C   0  0  0  0  0  0  0  0  0  0  0  0
    6.0755  -12.3941   26.4127 S   0  0  0  0  0  0  0  0  0  0  0  0
    7.0033  -13.1994   25.1109 C   0  0  0  0  0  0  0  0  0  0  0  0
    7.3023  -14.6376   25.3614 C   0  0  0  0  0  0  0  0  0  0  0  0
    8.3742  -15.1847   24.4459 C   0  0  2  0  0  0  0  0  0  0  0  0
    7.9307  -15.1607   23.0622 N   0  0  0  0  0  0  0  0  0  0  0  0
    8.8904  -16.4949   24.8633 C   0  0  0  0  0  0  0  0  0  0  0  0
    8.0860  -17.4663   24.9981 O   0  0  0  0  0  0  0  0  0  0  0  0
   12.2277  -18.1166   25.1740 C   0  0  0  0  0  0  0  0  0  0  0  0
   10.7377  -18.0340   25.6068 C   0  0  2  0  0  0  0  0  0  0  0  0
   10.2592  -16.7563   25.1269 N   0  0  0  0  0  0  0  0  0  0  0  0
   10.7440  -18.1972   27.0546 C   0  0  0  0  0  0  0  0  0  0  0  0
   11.1166  -19.4416   27.5594 O   0  0  0  0  0  0  0  0  0  0  0  0
   10.4432  -17.3151   27.8886 O   0  0  0  0  0  0  0  0  0  0  0  0
  2  1  1  1
  3  2  1  0
  4  2  1  0
  4  6  1  0
  4  5  1  1
  6  7  2  0
  9 10  1  0
  9  8  1  0
 10 11  1  0
 12 11  1  1
 13  6  1  0
 13 12  1  0
 14 12  1  0
 14 18  1  0
 15 14  2  0
 17 18  1  0
 17 16  1  1
 19 17  1  0
 20 19  1  0
 21 19  2  0
M  END
$$$$
