VMA.pdb
     RDKit          3D

 21 20  0  0  1  0  0  0  0  0999 V2000
    8.1605  -18.5543   20.5183 C   0  0  0  0  0  0  0  0  0  0  0  0
    7.0294  -17.6112   20.1595 C   0  0  2  0  0  0  0  0  0  0  0  0
    6.3504  -18.0146   18.8733 C   0  0  0  0  0  0  0  0  0  0  0  0
    7.5482  -16.1982   19.9762 C   0  0  2  0  0  0  0  0  0  0  0  0
    8.5054  -16.1120   18.9036 N   0  0  0  0  0  0  0  0  0  0  0  0
    8.1919  -15.6964   21.2150 C   0  0  0  0  0  0  0  0  0  0  0  0
    9.4344  -15.7735   21.3713 O   0  0  0  0  0  0  0  0  0  0  0  0
    7.1575  -11.5997   27.9659 C   0  0  0  0  0  0  0  0  0  0  0  0
    6.3678  -12.2838   26.4868 S   0  0  0  0  0  0  0  0  0  0  0  0
    7.5090  -13.3090   25.5645 C   0  0  0  0  0  0  0  0  0  0  0  0
    6.9969  -13.7739   24.2446 C   0  0  0  0  0  0  0  0  0  0  0  0
    7.9771  -14.6622   23.5120 C   0  0  2  0  0  0  0  0  0  0  0  0
    7.4159  -15.1176   22.2513 N   0  0  0  0  0  0  0  0  0  0  0  0
    8.5073  -15.7564   24.3359 C   0  0  0  0  0  0  0  0  0  0  0  0
    7.7190  -16.6569   24.7564 O   0  0  0  0  0  0  0  0  0  0  0  0
   11.8591  -17.1886   24.9699 C   0  0  0  0  0  0  0  0  0  0  0  0
   10.3894  -17.0094   25.4413 C   0  0  2  0  0  0  0  0  0  0  0  0
    9.8729  -15.8815   24.6978 N   0  0  0  0  0  0  0  0  0  0  0  0
   10.4638  -16.8272   26.8849 C   0  0  0  0  0  0  0  0  0  0  0  0
   10.9050  -17.9074   27.6470 O   0  0  0  0  0  0  0  0  0  0  0  0
   10.1654  -15.7822   27.5037 O   0  0  0  0  0  0  0  0  0  0  0  0
  2  1  1  6
  3  2  1  0
  4  2  1  0
  4  6  1  0
  4  5  1  6
  6  7  2  0
  9 10  1  0
  9  8  1  0
 10 11  1  0
 12 11  1  1
 13  6  1  0
 13 12  1  0
 14 12  1  0
 14 18  1  0
 15 14  2  0
 17 18  1  0
 17 16  1  6
 19 17  1  0
 20 19  1  0
 21 19  2  0
M  END
$$$$
