KGQ.pdb
     RDKit          3D

 23 22  0  0  1  0  0  0  0  0999 V2000
   25.4320   -9.3627  -17.8905 N   0  0  0  0  0  0  0  0  0  0  0  0
   26.8063   -8.9722  -17.9503 C   0  0  1  0  0  0  0  0  0  0  0  0
   27.4736   -9.3254  -19.2605 C   0  0  0  0  0  0  0  0  0  0  0  0
   27.4013  -10.8152  -19.5342 C   0  0  0  0  0  0  0  0  0  0  0  0
   26.1437  -11.1942  -20.2476 C   0  0  0  0  0  0  0  0  0  0  0  0
   26.0731  -12.6721  -20.5621 C   0  0  0  0  0  0  0  0  0  0  0  0
   24.8720  -13.0560  -21.2369 N   0  0  0  0  0  0  0  0  0  0  0  0
   27.0268   -7.5553  -17.5918 C   0  0  0  0  0  0  0  0  0  0  0  0
   28.2083   -7.1237  -17.6045 O   0  0  0  0  0  0  0  0  0  0  0  0
   25.9011   -6.7554  -17.2525 N   0  0  0  0  0  0  0  0  0  0  0  0
   26.0265   -5.3141  -17.3008 C   0  0  0  0  0  0  0  0  0  0  0  0
   24.7163   -4.7181  -16.9714 C   0  0  0  0  0  0  0  0  0  0  0  0
   24.5583   -3.4789  -16.9649 O   0  0  0  0  0  0  0  0  0  0  0  0
   20.0132   -4.9534  -20.6343 N   0  0  0  0  0  0  0  0  0  0  0  0
   20.5458   -5.8958  -19.6508 C   0  0  0  0  0  0  0  0  0  0  0  0
   20.1448   -7.0677  -19.7122 O   0  0  0  0  0  0  0  0  0  0  0  0
   21.5040   -5.3130  -18.7028 C   0  0  0  0  0  0  0  0  0  0  0  0
   21.2558   -5.4720  -17.2583 C   0  0  0  0  0  0  0  0  0  0  0  0
   22.3196   -5.0307  -16.3109 C   0  0  2  0  0  0  0  0  0  0  0  0
   23.6203   -5.5445  -16.6580 N   0  0  0  0  0  0  0  0  0  0  0  0
   21.9864   -5.0588  -14.8868 C   0  0  0  0  0  0  0  0  0  0  0  0
   20.9278   -4.5374  -14.4824 O   0  0  0  0  0  0  0  0  0  0  0  0
   22.8309   -5.6564  -13.9842 O   0  0  0  0  0  0  0  0  0  0  0  0
  2  1  1  6
  3  2  1  0
  4  3  1  0
  5  4  1  0
  6  5  1  0
  7  6  1  0
  8  2  1  0
  8 10  1  0
  9  8  2  0
 11 10  1  0
 12 11  1  0
 13 12  2  0
 15 14  1  0
 16 15  2  0
 17 15  1  0
 18 17  1  0
 19 18  1  6
 19 20  1  0
 20 12  1  0
 21 23  1  0
 21 19  1  0
 22 21  2  0
M  END
$$$$
