KGQ.pdb
     RDKit          3D

 23 22  0  0  1  0  0  0  0  0999 V2000
   19.1718  -15.8182  -16.9886 N   0  0  0  0  0  0  0  0  0  0  0  0
   20.2949  -15.4029  -16.2069 C   0  0  1  0  0  0  0  0  0  0  0  0
   21.3091  -16.5019  -15.9832 C   0  0  0  0  0  0  0  0  0  0  0  0
   20.6440  -17.7816  -15.5147 C   0  0  0  0  0  0  0  0  0  0  0  0
   20.3059  -17.7379  -14.0593 C   0  0  0  0  0  0  0  0  0  0  0  0
   19.5320  -18.9546  -13.6025 C   0  0  0  0  0  0  0  0  0  0  0  0
   19.1308  -18.8949  -12.2310 N   0  0  0  0  0  0  0  0  0  0  0  0
   20.9323  -14.1682  -16.7108 C   0  0  0  0  0  0  0  0  0  0  0  0
   21.7847  -14.2804  -17.6291 O   0  0  0  0  0  0  0  0  0  0  0  0
   20.5538  -12.9233  -16.1371 N   0  0  0  0  0  0  0  0  0  0  0  0
   21.2247  -11.7177  -16.5754 C   0  0  0  0  0  0  0  0  0  0  0  0
   20.6330  -10.5668  -15.8643 C   0  0  0  0  0  0  0  0  0  0  0  0
   19.6233  -10.7085  -15.1424 O   0  0  0  0  0  0  0  0  0  0  0  0
   23.4749   -4.8746  -15.3054 N   0  0  0  0  0  0  0  0  0  0  0  0
   22.2362   -4.6369  -14.5650 C   0  0  0  0  0  0  0  0  0  0  0  0
   22.0956   -3.5242  -14.0360 O   0  0  0  0  0  0  0  0  0  0  0  0
   21.3069   -5.7738  -14.5482 C   0  0  0  0  0  0  0  0  0  0  0  0
   21.6855   -7.0076  -15.2610 C   0  0  0  0  0  0  0  0  0  0  0  0
   20.7011   -8.1272  -15.2972 C   0  0  2  0  0  0  0  0  0  0  0  0
   21.2031   -9.2858  -15.9914 N   0  0  0  0  0  0  0  0  0  0  0  0
   19.3103   -7.7725  -15.5791 C   0  0  0  0  0  0  0  0  0  0  0  0
   18.8780   -7.8201  -16.7482 O   0  0  0  0  0  0  0  0  0  0  0  0
   18.4696   -7.3852  -14.5650 O   0  0  0  0  0  0  0  0  0  0  0  0
  2  1  1  6
  3  2  1  0
  4  3  1  0
  5  4  1  0
  6  5  1  0
  7  6  1  0
  8  2  1  0
  8 10  1  0
  9  8  2  0
 11 10  1  0
 12 11  1  0
 13 12  2  0
 15 14  1  0
 16 15  2  0
 17 15  1  0
 18 17  1  0
 19 18  1  6
 19 20  1  0
 20 12  1  0
 21 23  1  0
 21 19  1  0
 22 21  2  0
M  END
$$$$
