KGQ.pdb
     RDKit          3D

 23 22  0  0  1  0  0  0  0  0999 V2000
   28.1186  -21.9721  -17.8504 N   0  0  0  0  0  0  0  0  0  0  0  0
   27.2689  -22.4027  -16.7839 C   0  0  1  0  0  0  0  0  0  0  0  0
   27.9605  -23.3176  -15.7983 C   0  0  0  0  0  0  0  0  0  0  0  0
   27.8374  -24.7711  -16.2125 C   0  0  0  0  0  0  0  0  0  0  0  0
   28.7105  -25.0975  -17.3810 C   0  0  0  0  0  0  0  0  0  0  0  0
   28.6095  -26.5476  -17.7990 C   0  0  0  0  0  0  0  0  0  0  0  0
   29.4128  -26.8717  -18.9370 N   0  0  0  0  0  0  0  0  0  0  0  0
   26.5793  -21.2881  -16.1005 C   0  0  0  0  0  0  0  0  0  0  0  0
   27.1847  -20.1889  -16.0131 O   0  0  0  0  0  0  0  0  0  0  0  0
   25.2752  -21.5113  -15.5794 N   0  0  0  0  0  0  0  0  0  0  0  0
   24.6133  -20.4392  -14.8666 C   0  0  0  0  0  0  0  0  0  0  0  0
   23.3152  -20.9377  -14.3698 C   0  0  0  0  0  0  0  0  0  0  0  0
   22.8980  -22.0711  -14.6895 O   0  0  0  0  0  0  0  0  0  0  0  0
   20.9532  -19.3944   -8.8255 N   0  0  0  0  0  0  0  0  0  0  0  0
   19.8607  -20.2272   -9.3274 C   0  0  0  0  0  0  0  0  0  0  0  0
   18.9356  -20.4839   -8.5424 O   0  0  0  0  0  0  0  0  0  0  0  0
   20.0114  -20.6560  -10.7237 C   0  0  0  0  0  0  0  0  0  0  0  0
   21.1968  -20.2081  -11.4773 C   0  0  0  0  0  0  0  0  0  0  0  0
   21.3055  -20.6002  -12.9120 C   0  0  2  0  0  0  0  0  0  0  0  0
   22.5251  -20.1366  -13.5235 N   0  0  0  0  0  0  0  0  0  0  0  0
   20.0973  -20.4645  -13.7253 C   0  0  0  0  0  0  0  0  0  0  0  0
   19.8806  -19.4072  -14.3508 O   0  0  0  0  0  0  0  0  0  0  0  0
   19.1929  -21.4941  -13.8087 O   0  0  0  0  0  0  0  0  0  0  0  0
  2  1  1  6
  3  2  1  0
  4  3  1  0
  5  4  1  0
  6  5  1  0
  7  6  1  0
  8  2  1  0
  8 10  1  0
  9  8  2  0
 11 10  1  0
 12 11  1  0
 13 12  2  0
 15 14  1  0
 16 15  2  0
 17 15  1  0
 18 17  1  0
 19 18  1  1
 19 20  1  0
 20 12  1  0
 21 23  1  0
 21 19  1  0
 22 21  2  0
M  END
$$$$
