KGQ.pdb
     RDKit          3D

 23 22  0  0  1  0  0  0  0  0999 V2000
   18.6451  -11.9042  -17.9733 N   0  0  0  0  0  0  0  0  0  0  0  0
   18.7720  -12.1052  -16.5632 C   0  0  1  0  0  0  0  0  0  0  0  0
   19.7118  -13.2330  -16.2005 C   0  0  0  0  0  0  0  0  0  0  0  0
   19.0108  -14.5765  -16.2550 C   0  0  0  0  0  0  0  0  0  0  0  0
   19.8587  -15.6748  -15.6992 C   0  0  0  0  0  0  0  0  0  0  0  0
   19.2213  -17.0383  -15.8494 C   0  0  0  0  0  0  0  0  0  0  0  0
   19.5185  -17.9301  -14.7715 N   0  0  0  0  0  0  0  0  0  0  0  0
   19.0963  -10.8672  -15.8238 C   0  0  0  0  0  0  0  0  0  0  0  0
   20.0223  -10.1424  -16.2705 O   0  0  0  0  0  0  0  0  0  0  0  0
   18.3514  -10.5585  -14.6525 N   0  0  0  0  0  0  0  0  0  0  0  0
   18.6749   -9.3563  -13.9138 C   0  0  0  0  0  0  0  0  0  0  0  0
   17.4157   -8.6759  -13.5508 C   0  0  0  0  0  0  0  0  0  0  0  0
   16.3251   -9.0412  -14.0384 O   0  0  0  0  0  0  0  0  0  0  0  0
   15.4480   -7.3846   -8.0450 N   0  0  0  0  0  0  0  0  0  0  0  0
   14.4526   -6.6105   -8.7858 C   0  0  0  0  0  0  0  0  0  0  0  0
   13.5114   -6.1282   -8.1382 O   0  0  0  0  0  0  0  0  0  0  0  0
   14.7086   -6.5076  -10.2282 C   0  0  0  0  0  0  0  0  0  0  0  0
   15.9471   -7.0954  -10.7705 C   0  0  0  0  0  0  0  0  0  0  0  0
   16.2346   -6.9102  -12.2220 C   0  0  2  0  0  0  0  0  0  0  0  0
   17.4279   -7.5988  -12.6441 N   0  0  0  0  0  0  0  0  0  0  0  0
   16.0558   -5.5627  -12.7622 C   0  0  0  0  0  0  0  0  0  0  0  0
   17.0423   -4.8145  -12.9145 O   0  0  0  0  0  0  0  0  0  0  0  0
   14.8064   -5.1087  -13.1057 O   0  0  0  0  0  0  0  0  0  0  0  0
  2  1  1  6
  3  2  1  0
  4  3  1  0
  5  4  1  0
  6  5  1  0
  7  6  1  0
  8  2  1  0
  8 10  1  0
  9  8  2  0
 11 10  1  0
 12 11  1  0
 13 12  2  0
 15 14  1  0
 16 15  2  0
 17 15  1  0
 18 17  1  0
 19 18  1  1
 19 20  1  0
 20 12  1  0
 21 23  1  0
 21 19  1  0
 22 21  2  0
M  END
$$$$
