KGQ.pdb
     RDKit          3D

 23 22  0  0  1  0  0  0  0  0999 V2000
   16.6754  -26.1033   -9.0856 N   0  0  0  0  0  0  0  0  0  0  0  0
   17.4699  -24.9580   -9.4045 C   0  0  1  0  0  0  0  0  0  0  0  0
   18.4236  -24.5632   -8.2994 C   0  0  0  0  0  0  0  0  0  0  0  0
   18.4227  -25.5832   -7.1773 C   0  0  0  0  0  0  0  0  0  0  0  0
   17.4863  -25.2044   -6.0755 C   0  0  0  0  0  0  0  0  0  0  0  0
   17.4098  -26.2524   -4.9875 C   0  0  0  0  0  0  0  0  0  0  0  0
   16.6259  -25.8505   -3.8608 N   0  0  0  0  0  0  0  0  0  0  0  0
   18.1616  -25.0711  -10.7058 C   0  0  0  0  0  0  0  0  0  0  0  0
   17.8956  -26.0667  -11.4272 O   0  0  0  0  0  0  0  0  0  0  0  0
   19.0868  -24.0566  -11.0758 N   0  0  0  0  0  0  0  0  0  0  0  0
   19.3097  -23.7914  -12.4814 C   0  0  0  0  0  0  0  0  0  0  0  0
   20.2054  -22.6237  -12.6019 C   0  0  0  0  0  0  0  0  0  0  0  0
   20.0579  -21.6232  -11.8684 O   0  0  0  0  0  0  0  0  0  0  0  0
   25.5245  -23.1112  -15.0044 N   0  0  0  0  0  0  0  0  0  0  0  0
   25.6436  -21.6742  -14.7597 C   0  0  0  0  0  0  0  0  0  0  0  0
   26.7881  -21.2103  -14.6471 O   0  0  0  0  0  0  0  0  0  0  0  0
   24.3628  -20.9603  -14.6784 C   0  0  0  0  0  0  0  0  0  0  0  0
   23.1141  -21.7271  -14.8402 C   0  0  0  0  0  0  0  0  0  0  0  0
   21.9883  -21.4401  -13.9051 C   0  0  2  0  0  0  0  0  0  0  0  0
   21.2447  -22.6226  -13.5518 N   0  0  0  0  0  0  0  0  0  0  0  0
   21.1881  -20.2478  -14.1840 C   0  0  0  0  0  0  0  0  0  0  0  0
   20.2449  -20.3047  -14.9984 O   0  0  0  0  0  0  0  0  0  0  0  0
   21.4650  -19.0588  -13.5557 O   0  0  0  0  0  0  0  0  0  0  0  0
  2  1  1  1
  3  2  1  0
  4  3  1  0
  5  4  1  0
  6  5  1  0
  7  6  1  0
  8  2  1  0
  8 10  1  0
  9  8  2  0
 11 10  1  0
 12 11  1  0
 13 12  2  0
 15 14  1  0
 16 15  2  0
 17 15  1  0
 18 17  1  0
 19 18  1  6
 19 20  1  0
 20 12  1  0
 21 23  1  0
 21 19  1  0
 22 21  2  0
M  END
$$$$
