KGQ.pdb
     RDKit          3D

 23 22  0  0  1  0  0  0  0  0999 V2000
   19.2351  -22.0201  -11.8413 N   0  0  0  0  0  0  0  0  0  0  0  0
   20.2455  -21.9171  -10.8346 C   0  0  1  0  0  0  0  0  0  0  0  0
   20.2521  -23.0818   -9.8702 C   0  0  0  0  0  0  0  0  0  0  0  0
   18.8673  -23.3450   -9.3111 C   0  0  0  0  0  0  0  0  0  0  0  0
   18.8806  -24.4017   -8.2541 C   0  0  0  0  0  0  0  0  0  0  0  0
   17.5176  -24.6305   -7.6394 C   0  0  0  0  0  0  0  0  0  0  0  0
   17.4912  -25.6990   -6.6891 N   0  0  0  0  0  0  0  0  0  0  0  0
   21.5928  -21.6577  -11.3842 C   0  0  0  0  0  0  0  0  0  0  0  0
   22.5377  -22.3892  -10.9912 O   0  0  0  0  0  0  0  0  0  0  0  0
   21.7538  -20.6018  -12.3230 N   0  0  0  0  0  0  0  0  0  0  0  0
   22.8592  -20.6573  -13.2561 C   0  0  0  0  0  0  0  0  0  0  0  0
   22.8171  -19.4501  -14.1053 C   0  0  0  0  0  0  0  0  0  0  0  0
   21.7356  -19.0263  -14.5652 O   0  0  0  0  0  0  0  0  0  0  0  0
   28.0351  -16.6348  -16.5432 N   0  0  0  0  0  0  0  0  0  0  0  0
   27.6220  -18.0011  -16.8619 C   0  0  0  0  0  0  0  0  0  0  0  0
   28.4543  -18.7299  -17.4222 O   0  0  0  0  0  0  0  0  0  0  0  0
   26.2468  -18.3313  -16.4663 C   0  0  0  0  0  0  0  0  0  0  0  0
   25.4558  -17.3182  -15.7442 C   0  0  0  0  0  0  0  0  0  0  0  0
   24.0600  -17.6668  -15.3516 C   0  0  2  0  0  0  0  0  0  0  0  0
   24.0036  -18.7559  -14.4098 N   0  0  0  0  0  0  0  0  0  0  0  0
   23.0641  -17.7025  -16.4224 C   0  0  0  0  0  0  0  0  0  0  0  0
   23.0695  -16.8263  -17.3102 O   0  0  0  0  0  0  0  0  0  0  0  0
   22.1170  -18.6958  -16.4617 O   0  0  0  0  0  0  0  0  0  0  0  0
  2  1  1  6
  3  2  1  0
  4  3  1  0
  5  4  1  0
  6  5  1  0
  7  6  1  0
  8  2  1  0
  8 10  1  0
  9  8  2  0
 11 10  1  0
 12 11  1  0
 13 12  2  0
 15 14  1  0
 16 15  2  0
 17 15  1  0
 18 17  1  0
 19 18  1  6
 19 20  1  0
 20 12  1  0
 21 23  1  0
 21 19  1  0
 22 21  2  0
M  END
$$$$
