IYA.pdb
     RDKit          3D

 26 26  0  0  1  0  0  0  0  0999 V2000
    6.6142  -12.0507   19.0201 C   0  0  0  0  0  0  0  0  0  0  0  0
    6.5840  -13.4912   19.5278 C   0  0  0  0  0  0  0  0  0  0  0  0
    7.8621  -13.7635   20.2603 C   0  0  2  0  0  0  0  0  0  0  0  0
    9.0154  -13.5238   19.3358 C   0  0  0  0  0  0  0  0  0  0  0  0
    7.8954  -15.1111   20.9220 C   0  0  2  0  0  0  0  0  0  0  0  0
    6.5535  -15.5392   21.2629 N   0  0  0  0  0  0  0  0  0  0  0  0
    8.7523  -15.2005   22.0989 C   0  0  0  0  0  0  0  0  0  0  0  0
   10.0006  -15.0610   22.0540 O   0  0  0  0  0  0  0  0  0  0  0  0
   11.1924  -15.0029   30.6091 O   0  0  0  0  0  0  0  0  0  0  0  0
   10.4513  -14.9803   29.4175 C   0  0  0  0  0  0  0  0  0  0  0  0
   10.3715  -13.8369   28.6512 C   0  0  0  0  0  0  0  0  0  0  0  0
    9.6374  -13.8161   27.4716 C   0  0  0  0  0  0  0  0  0  0  0  0
    8.9615  -14.9256   27.0167 C   0  0  0  0  0  0  0  0  0  0  0  0
    8.1704  -14.9442   25.7686 C   0  0  0  0  0  0  0  0  0  0  0  0
    8.9270  -15.5153   24.6015 C   0  0  2  0  0  0  0  0  0  0  0  0
    8.1780  -15.4567   23.3726 N   0  0  0  0  0  0  0  0  0  0  0  0
    9.5011  -16.8531   24.8536 C   0  0  0  0  0  0  0  0  0  0  0  0
    8.7390  -17.8253   25.0901 O   0  0  0  0  0  0  0  0  0  0  0  0
    9.0593  -16.0522   27.8022 C   0  0  0  0  0  0  0  0  0  0  0  0
    9.7796  -16.0927   28.9707 C   0  0  0  0  0  0  0  0  0  0  0  0
   12.8094  -18.3360   24.1974 C   0  0  0  0  0  0  0  0  0  0  0  0
   11.5382  -18.3208   25.0583 C   0  0  2  0  0  0  0  0  0  0  0  0
   10.9049  -17.0599   24.8328 N   0  0  0  0  0  0  0  0  0  0  0  0
   11.9745  -18.5551   26.4385 C   0  0  0  0  0  0  0  0  0  0  0  0
   11.8450  -17.7434   27.3718 O   0  0  0  0  0  0  0  0  0  0  0  0
   12.5772  -19.7720   26.7286 O   0  0  0  0  0  0  0  0  0  0  0  0
  2  1  1  0
  2  3  1  0
  3  5  1  0
  3  4  1  6
  5  6  1  1
  7  5  1  0
  7  8  2  0
  9 10  1  0
 10 20  2  0
 11 10  1  0
 11 12  2  0
 12 13  1  0
 13 19  2  0
 13 14  1  0
 15 14  1  1
 15 16  1  0
 16  7  1  0
 17 15  1  0
 18 17  2  0
 20 19  1  0
 22 23  1  0
 22 21  1  6
 23 17  1  0
 24 22  1  0
 25 24  2  0
 26 24  1  0
M  END
$$$$
