IYA.pdb
     RDKit          3D

 26 26  0  0  1  0  0  0  0  0999 V2000
   10.6996  -21.4900   19.2703 C   0  0  0  0  0  0  0  0  0  0  0  0
   10.1200  -20.1197   18.9241 C   0  0  0  0  0  0  0  0  0  0  0  0
   10.1511  -19.2662   20.1548 C   0  0  2  0  0  0  0  0  0  0  0  0
    9.4583  -19.9891   21.2682 C   0  0  0  0  0  0  0  0  0  0  0  0
    9.6317  -17.8752   19.9297 C   0  0  2  0  0  0  0  0  0  0  0  0
   10.2922  -17.2679   18.7916 N   0  0  0  0  0  0  0  0  0  0  0  0
    9.7257  -16.9867   21.0826 C   0  0  0  0  0  0  0  0  0  0  0  0
   10.8112  -16.5046   21.4938 O   0  0  0  0  0  0  0  0  0  0  0  0
    6.9257  -11.7140   27.7035 O   0  0  0  0  0  0  0  0  0  0  0  0
    7.0190  -12.4911   26.5385 C   0  0  0  0  0  0  0  0  0  0  0  0
    7.7400  -12.0536   25.4478 C   0  0  0  0  0  0  0  0  0  0  0  0
    7.8315  -12.8242   24.2950 C   0  0  0  0  0  0  0  0  0  0  0  0
    7.2124  -14.0491   24.1887 C   0  0  0  0  0  0  0  0  0  0  0  0
    7.2854  -14.8981   22.9813 C   0  0  0  0  0  0  0  0  0  0  0  0
    8.5303  -15.7395   22.9287 C   0  0  2  0  0  0  0  0  0  0  0  0
    8.5507  -16.6299   21.7966 N   0  0  0  0  0  0  0  0  0  0  0  0
    8.8454  -16.4271   24.1979 C   0  0  0  0  0  0  0  0  0  0  0  0
    8.0161  -17.2316   24.6950 O   0  0  0  0  0  0  0  0  0  0  0  0
    6.4999  -14.4597   25.2931 C   0  0  0  0  0  0  0  0  0  0  0  0
    6.3977  -13.7128   26.4410 C   0  0  0  0  0  0  0  0  0  0  0  0
   12.0260  -16.7245   26.1206 C   0  0  0  0  0  0  0  0  0  0  0  0
   10.5028  -16.8969   26.0359 C   0  0  2  0  0  0  0  0  0  0  0  0
   10.0744  -16.1938   24.8680 N   0  0  0  0  0  0  0  0  0  0  0  0
    9.9610  -16.3850   27.2988 C   0  0  0  0  0  0  0  0  0  0  0  0
    9.3432  -15.3129   27.4239 O   0  0  0  0  0  0  0  0  0  0  0  0
   10.1499  -17.1511   28.4413 O   0  0  0  0  0  0  0  0  0  0  0  0
  2  1  1  0
  2  3  1  0
  3  5  1  0
  3  4  1  1
  5  6  1  6
  7  5  1  0
  7  8  2  0
  9 10  1  0
 10 20  2  0
 11 10  1  0
 11 12  2  0
 12 13  1  0
 13 19  2  0
 13 14  1  0
 15 14  1  1
 15 16  1  0
 16  7  1  0
 17 15  1  0
 18 17  2  0
 20 19  1  0
 22 23  1  0
 22 21  1  1
 23 17  1  0
 24 22  1  0
 25 24  2  0
 26 24  1  0
M  END
$$$$
