IYA.pdb
     RDKit          3D

 26 26  0  0  1  0  0  0  0  0999 V2000
    6.6720  -12.2686   18.6758 C   0  0  0  0  0  0  0  0  0  0  0  0
    6.8432  -13.7061   19.1634 C   0  0  0  0  0  0  0  0  0  0  0  0
    7.8555  -13.7157   20.2676 C   0  0  2  0  0  0  0  0  0  0  0  0
    9.1218  -13.0865   19.7748 C   0  0  0  0  0  0  0  0  0  0  0  0
    8.0595  -15.0722   20.8786 C   0  0  2  0  0  0  0  0  0  0  0  0
    6.7822  -15.6994   21.1530 N   0  0  0  0  0  0  0  0  0  0  0  0
    8.8829  -15.0900   22.0825 C   0  0  0  0  0  0  0  0  0  0  0  0
   10.1364  -14.9998   22.0607 O   0  0  0  0  0  0  0  0  0  0  0  0
   11.0547  -15.2764   30.7051 O   0  0  0  0  0  0  0  0  0  0  0  0
   10.3598  -15.1600   29.4913 C   0  0  0  0  0  0  0  0  0  0  0  0
    9.6166  -16.2093   28.9938 C   0  0  0  0  0  0  0  0  0  0  0  0
    8.9291  -16.0924   27.7919 C   0  0  0  0  0  0  0  0  0  0  0  0
    8.9574  -14.9344   27.0482 C   0  0  0  0  0  0  0  0  0  0  0  0
    8.2407  -14.7703   25.7663 C   0  0  0  0  0  0  0  0  0  0  0  0
    8.9911  -15.3427   24.5958 C   0  0  2  0  0  0  0  0  0  0  0  0
    8.2678  -15.2143   23.3568 N   0  0  0  0  0  0  0  0  0  0  0  0
    9.4982  -16.7124   24.8183 C   0  0  0  0  0  0  0  0  0  0  0  0
    8.6894  -17.6489   25.0433 O   0  0  0  0  0  0  0  0  0  0  0  0
    9.7074  -13.9041   27.5696 C   0  0  0  0  0  0  0  0  0  0  0  0
   10.3936  -14.0001   28.7553 C   0  0  0  0  0  0  0  0  0  0  0  0
   12.5223  -18.3952   23.7726 C   0  0  0  0  0  0  0  0  0  0  0  0
   11.4538  -18.2995   24.8708 C   0  0  2  0  0  0  0  0  0  0  0  0
   10.8895  -16.9898   24.7814 N   0  0  0  0  0  0  0  0  0  0  0  0
   12.1369  -18.5930   26.1348 C   0  0  0  0  0  0  0  0  0  0  0  0
   12.6071  -19.7011   26.4473 O   0  0  0  0  0  0  0  0  0  0  0  0
   12.2704  -17.5599   27.0529 O   0  0  0  0  0  0  0  0  0  0  0  0
  2  1  1  0
  2  3  1  0
  3  5  1  0
  3  4  1  6
  5  6  1  1
  7  5  1  0
  7  8  2  0
  9 10  1  0
 10 20  2  0
 11 10  1  0
 11 12  2  0
 12 13  1  0
 13 19  2  0
 13 14  1  0
 15 14  1  1
 15 16  1  0
 16  7  1  0
 17 15  1  0
 18 17  2  0
 20 19  1  0
 22 23  1  0
 22 21  1  6
 23 17  1  0
 24 22  1  0
 25 24  2  0
 26 24  1  0
M  END
$$$$
