IYA.pdb
     RDKit          3D

 26 26  0  0  1  0  0  0  0  0999 V2000
    6.4561  -12.4390   18.7894 C   0  0  0  0  0  0  0  0  0  0  0  0
    6.8932  -13.8666   19.1127 C   0  0  0  0  0  0  0  0  0  0  0  0
    7.8633  -13.8196   20.2533 C   0  0  2  0  0  0  0  0  0  0  0  0
    9.0365  -12.9754   19.8620 C   0  0  0  0  0  0  0  0  0  0  0  0
    8.2475  -15.1776   20.7664 C   0  0  2  0  0  0  0  0  0  0  0  0
    7.0662  -15.9903   20.9769 N   0  0  0  0  0  0  0  0  0  0  0  0
    9.0614  -15.1730   21.9768 C   0  0  0  0  0  0  0  0  0  0  0  0
   10.2980  -14.9480   21.9742 O   0  0  0  0  0  0  0  0  0  0  0  0
   11.2206  -15.1752   30.5903 O   0  0  0  0  0  0  0  0  0  0  0  0
   10.5303  -15.1134   29.3700 C   0  0  0  0  0  0  0  0  0  0  0  0
    9.8824  -16.2197   28.8626 C   0  0  0  0  0  0  0  0  0  0  0  0
    9.1994  -16.1569   27.6542 C   0  0  0  0  0  0  0  0  0  0  0  0
    9.1379  -14.9982   26.9134 C   0  0  0  0  0  0  0  0  0  0  0  0
    8.4226  -14.8906   25.6248 C   0  0  0  0  0  0  0  0  0  0  0  0
    9.1773  -15.5077   24.4802 C   0  0  2  0  0  0  0  0  0  0  0  0
    8.4563  -15.4322   23.2355 N   0  0  0  0  0  0  0  0  0  0  0  0
    9.6884  -16.8655   24.7593 C   0  0  0  0  0  0  0  0  0  0  0  0
    8.8921  -17.7715   25.1158 O   0  0  0  0  0  0  0  0  0  0  0  0
    9.7939  -13.9104   27.4448 C   0  0  0  0  0  0  0  0  0  0  0  0
   10.4741  -13.9525   28.6371 C   0  0  0  0  0  0  0  0  0  0  0  0
   12.8997  -18.5122   23.9262 C   0  0  0  0  0  0  0  0  0  0  0  0
   11.6296  -18.4706   24.7878 C   0  0  2  0  0  0  0  0  0  0  0  0
   11.0694  -17.1656   24.6305 N   0  0  0  0  0  0  0  0  0  0  0  0
   12.0490  -18.8026   26.1532 C   0  0  0  0  0  0  0  0  0  0  0  0
   12.4388  -19.9239   26.5237 O   0  0  0  0  0  0  0  0  0  0  0  0
   12.0092  -17.7928   27.1055 O   0  0  0  0  0  0  0  0  0  0  0  0
  2  1  1  0
  2  3  1  0
  3  5  1  0
  3  4  1  6
  5  6  1  1
  7  5  1  0
  7  8  2  0
  9 10  1  0
 10 20  2  0
 11 10  1  0
 11 12  2  0
 12 13  1  0
 13 19  2  0
 13 14  1  0
 15 14  1  1
 15 16  1  0
 16  7  1  0
 17 15  1  0
 18 17  2  0
 20 19  1  0
 22 23  1  0
 22 21  1  6
 23 17  1  0
 24 22  1  0
 25 24  2  0
 26 24  1  0
M  END
$$$$
