IYA.pdb
     RDKit          3D

 26 26  0  0  1  0  0  0  0  0999 V2000
    7.2174  -12.3242   18.4276 C   0  0  0  0  0  0  0  0  0  0  0  0
    7.5771  -13.7873   18.6797 C   0  0  0  0  0  0  0  0  0  0  0  0
    7.3788  -14.0812   20.1351 C   0  0  2  0  0  0  0  0  0  0  0  0
    8.2789  -13.1951   20.9394 C   0  0  0  0  0  0  0  0  0  0  0  0
    7.5145  -15.5379   20.4738 C   0  0  2  0  0  0  0  0  0  0  0  0
    6.6659  -16.3373   19.6129 N   0  0  0  0  0  0  0  0  0  0  0  0
    7.2537  -15.8748   21.8687 C   0  0  0  0  0  0  0  0  0  0  0  0
    6.0982  -15.9235   22.3609 O   0  0  0  0  0  0  0  0  0  0  0  0
    8.6097  -18.4110   30.2669 O   0  0  0  0  0  0  0  0  0  0  0  0
    8.6993  -18.2070   28.8813 C   0  0  0  0  0  0  0  0  0  0  0  0
    7.7050  -18.6446   28.0323 C   0  0  0  0  0  0  0  0  0  0  0  0
    7.7952  -18.4418   26.6605 C   0  0  0  0  0  0  0  0  0  0  0  0
    8.8714  -17.8006   26.0899 C   0  0  0  0  0  0  0  0  0  0  0  0
    9.0047  -17.5657   24.6370 C   0  0  0  0  0  0  0  0  0  0  0  0
    8.2013  -16.3895   24.1556 C   0  0  2  0  0  0  0  0  0  0  0  0
    8.3376  -16.1671   22.7390 N   0  0  0  0  0  0  0  0  0  0  0  0
    8.4049  -15.1582   24.9462 C   0  0  0  0  0  0  0  0  0  0  0  0
    9.5050  -14.5516   24.8852 O   0  0  0  0  0  0  0  0  0  0  0  0
    9.8482  -17.3750   26.9620 C   0  0  0  0  0  0  0  0  0  0  0  0
    9.7773  -17.5659   28.3201 C   0  0  0  0  0  0  0  0  0  0  0  0
    6.0213  -13.0473   26.9047 C   0  0  0  0  0  0  0  0  0  0  0  0
    7.4550  -13.4139   26.4958 C   0  0  2  0  0  0  0  0  0  0  0  0
    7.3743  -14.6460   25.7766 N   0  0  0  0  0  0  0  0  0  0  0  0
    8.2334  -13.4729   27.7372 C   0  0  0  0  0  0  0  0  0  0  0  0
    8.6162  -14.5209   28.2864 O   0  0  0  0  0  0  0  0  0  0  0  0
    8.5698  -12.2717   28.3473 O   0  0  0  0  0  0  0  0  0  0  0  0
  2  1  1  0
  2  3  1  0
  3  5  1  0
  3  4  1  1
  5  6  1  6
  7  5  1  0
  7  8  2  0
  9 10  1  0
 10 20  2  0
 11 10  1  0
 11 12  2  0
 12 13  1  0
 13 19  2  0
 13 14  1  0
 15 14  1  1
 15 16  1  0
 16  7  1  0
 17 15  1  0
 18 17  2  0
 20 19  1  0
 22 23  1  0
 22 21  1  1
 23 17  1  0
 24 22  1  0
 25 24  2  0
 26 24  1  0
M  END
$$$$
