AMG.pdb
     RDKit          3D

 18 17  0  0  1  0  0  0  0  0999 V2000
   20.6226  -13.6659  -16.6359 C   0  0  0  0  0  0  0  0  0  0  0  0
   20.6996  -12.2159  -16.9857 C   0  0  2  0  0  0  0  0  0  0  0  0
   21.3035  -12.0269  -18.2670 N   0  0  0  0  0  0  0  0  0  0  0  0
   21.3446  -11.3849  -15.9485 C   0  0  0  0  0  0  0  0  0  0  0  0
   20.9520  -11.4905  -14.7586 O   0  0  0  0  0  0  0  0  0  0  0  0
   27.5980  -12.5898  -15.0116 C   0  0  0  0  0  0  0  0  0  0  0  0
   26.8643  -11.0089  -15.5721 S   0  0  0  0  0  0  0  0  0  0  0  0
   25.1150  -10.9741  -15.0851 C   0  0  0  0  0  0  0  0  0  0  0  0
   24.4716   -9.6959  -15.4781 C   0  0  0  0  0  0  0  0  0  0  0  0
   22.9924   -9.5852  -15.2366 C   0  0  2  0  0  0  0  0  0  0  0  0
   22.3877  -10.4737  -16.2403 N   0  0  0  0  0  0  0  0  0  0  0  0
   22.4534   -8.2108  -15.4175 C   0  0  0  0  0  0  0  0  0  0  0  0
   22.8492   -7.2729  -14.6384 O   0  0  0  0  0  0  0  0  0  0  0  0
   21.5178   -7.8318  -16.4017 N   0  0  0  0  0  0  0  0  0  0  0  0
   21.1287   -6.4277  -16.5490 C   0  0  0  0  0  0  0  0  0  0  0  0
   19.9574   -6.1034  -15.7151 C   0  0  0  0  0  0  0  0  0  0  0  0
   19.4249   -4.8271  -15.6907 O   0  0  0  0  0  0  0  0  0  0  0  0
   19.4240   -6.9897  -15.0103 O   0  0  0  0  0  0  0  0  0  0  0  0
  2  1  1  1
  2  4  1  0
  2  3  1  0
  4  5  2  0
  7  6  1  0
  7  8  1  0
  8  9  1  0
 10  9  1  6
 11  4  1  0
 11 10  1  0
 12 10  1  0
 12 14  1  0
 13 12  2  0
 15 14  1  0
 15 16  1  0
 16 17  1  0
 18 16  2  0
M  END
$$$$
