AMG.pdb
     RDKit          3D

 18 17  0  0  1  0  0  0  0  0999 V2000
   21.8983  -21.2936  -15.1722 C   0  0  0  0  0  0  0  0  0  0  0  0
   21.7910  -20.8684  -13.7445 C   0  0  2  0  0  0  0  0  0  0  0  0
   20.7450  -19.9105  -13.5699 N   0  0  0  0  0  0  0  0  0  0  0  0
   23.0656  -20.3992  -13.1637 C   0  0  0  0  0  0  0  0  0  0  0  0
   23.4841  -19.2536  -13.4699 O   0  0  0  0  0  0  0  0  0  0  0  0
   26.4530  -18.9677   -7.3948 C   0  0  0  0  0  0  0  0  0  0  0  0
   25.9833  -20.6907   -7.7985 S   0  0  0  0  0  0  0  0  0  0  0  0
   26.3826  -21.0096   -9.5413 C   0  0  0  0  0  0  0  0  0  0  0  0
   25.1577  -21.2820  -10.3335 C   0  0  0  0  0  0  0  0  0  0  0  0
   25.1429  -20.7706  -11.7466 C   0  0  2  0  0  0  0  0  0  0  0  0
   23.8358  -21.1878  -12.2757 N   0  0  0  0  0  0  0  0  0  0  0  0
   26.2172  -21.3383  -12.6044 C   0  0  0  0  0  0  0  0  0  0  0  0
   25.9851  -22.4027  -13.2801 O   0  0  0  0  0  0  0  0  0  0  0  0
   27.5095  -20.7937  -12.7493 N   0  0  0  0  0  0  0  0  0  0  0  0
   27.8549  -20.0190  -13.9430 C   0  0  0  0  0  0  0  0  0  0  0  0
   27.8094  -20.8529  -15.1576 C   0  0  0  0  0  0  0  0  0  0  0  0
   26.8037  -20.7013  -16.0950 O   0  0  0  0  0  0  0  0  0  0  0  0
   28.6907  -21.7189  -15.3578 O   0  0  0  0  0  0  0  0  0  0  0  0
  2  1  1  6
  2  4  1  0
  2  3  1  0
  4  5  2  0
  7  6  1  0
  7  8  1  0
  8  9  1  0
 10  9  1  1
 11  4  1  0
 11 10  1  0
 12 10  1  0
 12 14  1  0
 13 12  2  0
 15 14  1  0
 15 16  1  0
 16 17  1  0
 18 16  2  0
M  END
$$$$
