AMG.pdb
     RDKit          3D

 18 17  0  0  1  0  0  0  0  0999 V2000
   21.1868  -13.5612  -18.4098 C   0  0  0  0  0  0  0  0  0  0  0  0
   21.3236  -12.0867  -18.2151 C   0  0  2  0  0  0  0  0  0  0  0  0
   22.0523  -11.4911  -19.2904 N   0  0  0  0  0  0  0  0  0  0  0  0
   21.8798  -11.7070  -16.9004 C   0  0  0  0  0  0  0  0  0  0  0  0
   21.3363  -12.1594  -15.8605 O   0  0  0  0  0  0  0  0  0  0  0  0
   27.7591  -14.0178  -15.5863 C   0  0  0  0  0  0  0  0  0  0  0  0
   27.2812  -12.2586  -15.7565 S   0  0  0  0  0  0  0  0  0  0  0  0
   25.4987  -12.1069  -15.4435 C   0  0  0  0  0  0  0  0  0  0  0  0
   25.0409  -10.7045  -15.6041 C   0  0  0  0  0  0  0  0  0  0  0  0
   23.5649  -10.4584  -15.4643 C   0  0  2  0  0  0  0  0  0  0  0  0
   23.0008  -10.8537  -16.7635 N   0  0  0  0  0  0  0  0  0  0  0  0
   23.2135   -9.0385  -15.1946 C   0  0  0  0  0  0  0  0  0  0  0  0
   23.6409   -8.4778  -14.1239 O   0  0  0  0  0  0  0  0  0  0  0  0
   22.4294   -8.2249  -16.0377 N   0  0  0  0  0  0  0  0  0  0  0  0
   22.1789   -6.8250  -15.6887 C   0  0  0  0  0  0  0  0  0  0  0  0
   20.9560   -6.6828  -14.8782 C   0  0  0  0  0  0  0  0  0  0  0  0
   20.5399   -5.4468  -14.4175 O   0  0  0  0  0  0  0  0  0  0  0  0
   20.2711   -7.6910  -14.5932 O   0  0  0  0  0  0  0  0  0  0  0  0
  2  1  1  6
  2  4  1  0
  2  3  1  0
  4  5  2  0
  7  6  1  0
  7  8  1  0
  8  9  1  0
 10  9  1  6
 11  4  1  0
 11 10  1  0
 12 10  1  0
 12 14  1  0
 13 12  2  0
 15 14  1  0
 15 16  1  0
 16 17  1  0
 18 16  2  0
M  END
$$$$
