AMG.pdb
     RDKit          3D

 18 17  0  0  1  0  0  0  0  0999 V2000
   27.1659  -18.2447  -14.6714 C   0  0  0  0  0  0  0  0  0  0  0  0
   27.6653  -19.5549  -14.1569 C   0  0  2  0  0  0  0  0  0  0  0  0
   28.3460  -20.2840  -15.1802 N   0  0  0  0  0  0  0  0  0  0  0  0
   26.6260  -20.3739  -13.5002 C   0  0  0  0  0  0  0  0  0  0  0  0
   26.1217  -21.3344  -14.1363 O   0  0  0  0  0  0  0  0  0  0  0  0
   26.7808  -18.9329   -7.4732 C   0  0  0  0  0  0  0  0  0  0  0  0
   26.5510  -20.7424   -7.6310 S   0  0  0  0  0  0  0  0  0  0  0  0
   26.5055  -21.1716   -9.3950 C   0  0  0  0  0  0  0  0  0  0  0  0
   25.3009  -20.6102  -10.0553 C   0  0  0  0  0  0  0  0  0  0  0  0
   25.1311  -20.9153  -11.5170 C   0  0  2  0  0  0  0  0  0  0  0  0
   26.1743  -20.1211  -12.1828 N   0  0  0  0  0  0  0  0  0  0  0  0
   23.8032  -20.5275  -12.0634 C   0  0  0  0  0  0  0  0  0  0  0  0
   23.6201  -19.3282  -12.4778 O   0  0  0  0  0  0  0  0  0  0  0  0
   22.6912  -21.3871  -12.1734 N   0  0  0  0  0  0  0  0  0  0  0  0
   21.4560  -20.9195  -12.8060 C   0  0  0  0  0  0  0  0  0  0  0  0
   21.4526  -21.2005  -14.2530 C   0  0  0  0  0  0  0  0  0  0  0  0
   20.8452  -22.3338  -14.7627 O   0  0  0  0  0  0  0  0  0  0  0  0
   22.0063  -20.4076  -15.0476 O   0  0  0  0  0  0  0  0  0  0  0  0
  2  1  1  6
  2  4  1  0
  2  3  1  0
  4  5  2  0
  7  6  1  0
  7  8  1  0
  8  9  1  0
 10  9  1  1
 11  4  1  0
 11 10  1  0
 12 10  1  0
 12 14  1  0
 13 12  2  0
 15 14  1  0
 15 16  1  0
 16 17  1  0
 18 16  2  0
M  END
$$$$
