AMG.pdb
     RDKit          3D

 18 17  0  0  1  0  0  0  0  0999 V2000
   19.7529  -14.2057  -16.8312 C   0  0  0  0  0  0  0  0  0  0  0  0
   19.9243  -12.7292  -16.9776 C   0  0  2  0  0  0  0  0  0  0  0  0
   20.2219  -12.3772  -18.3302 N   0  0  0  0  0  0  0  0  0  0  0  0
   20.8979  -12.1446  -16.0328 C   0  0  0  0  0  0  0  0  0  0  0  0
   20.7625  -12.3766  -14.8043 O   0  0  0  0  0  0  0  0  0  0  0  0
   27.7597  -13.3050  -15.0640 C   0  0  0  0  0  0  0  0  0  0  0  0
   26.7156  -12.2636  -16.1490 S   0  0  0  0  0  0  0  0  0  0  0  0
   25.1567  -11.9066  -15.2884 C   0  0  0  0  0  0  0  0  0  0  0  0
   24.2821  -11.0254  -16.1012 C   0  0  0  0  0  0  0  0  0  0  0  0
   22.9307  -10.7046  -15.5273 C   0  0  2  0  0  0  0  0  0  0  0  0
   21.9780  -11.3329  -16.4548 N   0  0  0  0  0  0  0  0  0  0  0  0
   22.6405   -9.2481  -15.4466 C   0  0  0  0  0  0  0  0  0  0  0  0
   23.4128   -8.4906  -14.7586 O   0  0  0  0  0  0  0  0  0  0  0  0
   21.5594   -8.6021  -16.0804 N   0  0  0  0  0  0  0  0  0  0  0  0
   21.4214   -7.1463  -16.0041 C   0  0  0  0  0  0  0  0  0  0  0  0
   20.5836   -6.7442  -14.8600 C   0  0  0  0  0  0  0  0  0  0  0  0
   20.2418   -5.4203  -14.6507 O   0  0  0  0  0  0  0  0  0  0  0  0
   20.1664   -7.6062  -14.0540 O   0  0  0  0  0  0  0  0  0  0  0  0
  2  1  1  6
  2  4  1  0
  2  3  1  0
  4  5  2  0
  7  6  1  0
  7  8  1  0
  8  9  1  0
 10  9  1  6
 11  4  1  0
 11 10  1  0
 12 10  1  0
 12 14  1  0
 13 12  2  0
 15 14  1  0
 15 16  1  0
 16 17  1  0
 18 16  2  0
M  END
$$$$
