AMG.pdb
     RDKit          3D

 18 17  0  0  1  0  0  0  0  0999 V2000
   27.5834  -18.6298  -16.1640 C   0  0  0  0  0  0  0  0  0  0  0  0
   28.1169  -19.8465  -15.4815 C   0  0  2  0  0  0  0  0  0  0  0  0
   28.6696  -20.7656  -16.4259 N   0  0  0  0  0  0  0  0  0  0  0  0
   27.1443  -20.5025  -14.5839 C   0  0  0  0  0  0  0  0  0  0  0  0
   26.4081  -21.4095  -15.0494 O   0  0  0  0  0  0  0  0  0  0  0  0
   25.4246  -21.1515   -6.8587 C   0  0  0  0  0  0  0  0  0  0  0  0
   26.4434  -20.4535   -8.2103 S   0  0  0  0  0  0  0  0  0  0  0  0
   25.7185  -20.9480   -9.8004 C   0  0  0  0  0  0  0  0  0  0  0  0
   26.5622  -20.5052  -10.9381 C   0  0  0  0  0  0  0  0  0  0  0  0
   26.0271  -20.7732  -12.3167 C   0  0  2  0  0  0  0  0  0  0  0  0
   27.0071  -20.1511  -13.2196 N   0  0  0  0  0  0  0  0  0  0  0  0
   24.6879  -20.1777  -12.5698 C   0  0  0  0  0  0  0  0  0  0  0  0
   24.5783  -18.9062  -12.6913 O   0  0  0  0  0  0  0  0  0  0  0  0
   23.4884  -20.9078  -12.6949 N   0  0  0  0  0  0  0  0  0  0  0  0
   22.2273  -20.2153  -12.9678 C   0  0  0  0  0  0  0  0  0  0  0  0
   21.1093  -21.1663  -13.1034 C   0  0  0  0  0  0  0  0  0  0  0  0
   19.8384  -20.8480  -12.6600 O   0  0  0  0  0  0  0  0  0  0  0  0
   21.2988  -22.2871  -13.6275 O   0  0  0  0  0  0  0  0  0  0  0  0
  2  1  1  6
  2  4  1  0
  2  3  1  0
  4  5  2  0
  7  6  1  0
  7  8  1  0
  8  9  1  0
 10  9  1  1
 11  4  1  0
 11 10  1  0
 12 10  1  0
 12 14  1  0
 13 12  2  0
 15 14  1  0
 15 16  1  0
 16 17  1  0
 18 16  2  0
M  END
$$$$
