AMG.pdb
     RDKit          3D

 18 17  0  0  1  0  0  0  0  0999 V2000
   18.8536  -13.1169  -18.9982 C   0  0  0  0  0  0  0  0  0  0  0  0
   20.2470  -13.4520  -18.5774 C   0  0  2  0  0  0  0  0  0  0  0  0
   20.3652  -14.8367  -18.2446 N   0  0  0  0  0  0  0  0  0  0  0  0
   20.7713  -12.5841  -17.5032 C   0  0  0  0  0  0  0  0  0  0  0  0
   20.5670  -12.9126  -16.3066 O   0  0  0  0  0  0  0  0  0  0  0  0
   26.7992  -10.2802  -14.4088 C   0  0  0  0  0  0  0  0  0  0  0  0
   25.7952  -10.9935  -15.7635 S   0  0  0  0  0  0  0  0  0  0  0  0
   24.4924   -9.8089  -16.2081 C   0  0  0  0  0  0  0  0  0  0  0  0
   23.5416  -10.3954  -17.1850 C   0  0  0  0  0  0  0  0  0  0  0  0
   22.1257  -10.5819  -16.7170 C   0  0  2  0  0  0  0  0  0  0  0  0
   21.4951  -11.3965  -17.7664 N   0  0  0  0  0  0  0  0  0  0  0  0
   21.3677   -9.3110  -16.5681 C   0  0  0  0  0  0  0  0  0  0  0  0
   21.0103   -8.6659  -17.6167 O   0  0  0  0  0  0  0  0  0  0  0  0
   20.9915   -8.7325  -15.3387 N   0  0  0  0  0  0  0  0  0  0  0  0
   20.3188   -7.4321  -15.3094 C   0  0  0  0  0  0  0  0  0  0  0  0
   21.2900   -6.3249  -15.2514 C   0  0  0  0  0  0  0  0  0  0  0  0
   20.8745   -5.0111  -15.1308 O   0  0  0  0  0  0  0  0  0  0  0  0
   22.5174   -6.5628  -15.3117 O   0  0  0  0  0  0  0  0  0  0  0  0
  2  1  1  1
  2  4  1  0
  2  3  1  0
  4  5  2  0
  7  6  1  0
  7  8  1  0
  8  9  1  0
 10  9  1  6
 11  4  1  0
 11 10  1  0
 12 10  1  0
 12 14  1  0
 13 12  2  0
 15 14  1  0
 15 16  1  0
 16 17  1  0
 18 16  2  0
M  END
$$$$
