AMG.pdb
     RDKit          3D

 18 17  0  0  1  0  0  0  0  0999 V2000
   28.6955  -21.1603  -14.2742 C   0  0  0  0  0  0  0  0  0  0  0  0
   27.2711  -20.7343  -14.1312 C   0  0  2  0  0  0  0  0  0  0  0  0
   27.1405  -19.3186  -14.2754 N   0  0  0  0  0  0  0  0  0  0  0  0
   26.6234  -21.2209  -12.8960 C   0  0  0  0  0  0  0  0  0  0  0  0
   26.5795  -22.4596  -12.6839 O   0  0  0  0  0  0  0  0  0  0  0  0
   28.6509  -20.0014   -6.4235 C   0  0  0  0  0  0  0  0  0  0  0  0
   27.1855  -19.3866   -7.3326 S   0  0  0  0  0  0  0  0  0  0  0  0
   26.9174  -20.4420   -8.7862 C   0  0  0  0  0  0  0  0  0  0  0  0
   25.8245  -19.9149   -9.6405 C   0  0  0  0  0  0  0  0  0  0  0  0
   25.3375  -20.8147  -10.7413 C   0  0  2  0  0  0  0  0  0  0  0  0
   26.0495  -20.3484  -11.9405 N   0  0  0  0  0  0  0  0  0  0  0  0
   23.8725  -20.7317  -10.9838 C   0  0  0  0  0  0  0  0  0  0  0  0
   23.0609  -21.0563  -10.0460 O   0  0  0  0  0  0  0  0  0  0  0  0
   23.2744  -20.3125  -12.1898 N   0  0  0  0  0  0  0  0  0  0  0  0
   21.8175  -20.2099  -12.2950 C   0  0  0  0  0  0  0  0  0  0  0  0
   21.2516  -21.3405  -13.0528 C   0  0  0  0  0  0  0  0  0  0  0  0
   19.8977  -21.4157  -13.3257 O   0  0  0  0  0  0  0  0  0  0  0  0
   21.9983  -22.2575  -13.4631 O   0  0  0  0  0  0  0  0  0  0  0  0
  2  1  1  1
  2  4  1  0
  2  3  1  0
  4  5  2  0
  7  6  1  0
  7  8  1  0
  8  9  1  0
 10  9  1  1
 11  4  1  0
 11 10  1  0
 12 10  1  0
 12 14  1  0
 13 12  2  0
 15 14  1  0
 15 16  1  0
 16 17  1  0
 18 16  2  0
M  END
$$$$
