AMG.pdb
     RDKit          3D

 18 17  0  0  1  0  0  0  0  0999 V2000
   29.6534  -32.1091  -15.4882 C   0  0  0  0  0  0  0  0  0  0  0  0
   28.3993  -32.8297  -15.8608 C   0  0  2  0  0  0  0  0  0  0  0  0
   28.1105  -32.6745  -17.2517 N   0  0  0  0  0  0  0  0  0  0  0  0
   27.2373  -32.4807  -15.0182 C   0  0  0  0  0  0  0  0  0  0  0  0
   26.4671  -31.5630  -15.4004 O   0  0  0  0  0  0  0  0  0  0  0  0
   21.4800  -33.6598  -13.6086 C   0  0  0  0  0  0  0  0  0  0  0  0
   22.2897  -32.1105  -14.1527 S   0  0  0  0  0  0  0  0  0  0  0  0
   23.9341  -32.5130  -14.8102 C   0  0  0  0  0  0  0  0  0  0  0  0
   24.6356  -33.4927  -13.9440 C   0  0  0  0  0  0  0  0  0  0  0  0
   25.7073  -32.9473  -13.0426 C   0  0  2  0  0  0  0  0  0  0  0  0
   26.9553  -33.1381  -13.7967 N   0  0  0  0  0  0  0  0  0  0  0  0
   25.8156  -33.6544  -11.7386 C   0  0  0  0  0  0  0  0  0  0  0  0
   25.9980  -34.9233  -11.7250 O   0  0  0  0  0  0  0  0  0  0  0  0
   25.7358  -33.0363  -10.4740 N   0  0  0  0  0  0  0  0  0  0  0  0
   26.0665  -33.7887   -9.2620 C   0  0  0  0  0  0  0  0  0  0  0  0
   25.8702  -32.9717   -8.0509 C   0  0  0  0  0  0  0  0  0  0  0  0
   25.4579  -31.6539   -8.1330 O   0  0  0  0  0  0  0  0  0  0  0  0
   26.0769  -33.4663   -6.9198 O   0  0  0  0  0  0  0  0  0  0  0  0
  2  1  1  1
  2  4  1  0
  2  3  1  0
  4  5  2  0
  7  6  1  0
  7  8  1  0
  8  9  1  0
 10  9  1  6
 11  4  1  0
 11 10  1  0
 12 10  1  0
 12 14  1  0
 13 12  2  0
 15 14  1  0
 15 16  1  0
 16 17  1  0
 18 16  2  0
M  END
$$$$
