AMG.pdb
     RDKit          3D

 18 17  0  0  1  0  0  0  0  0999 V2000
   18.6342   -8.4352  -19.3234 C   0  0  0  0  0  0  0  0  0  0  0  0
   19.6156   -9.5561  -19.2186 C   0  0  2  0  0  0  0  0  0  0  0  0
   18.9968  -10.8109  -19.5095 N   0  0  0  0  0  0  0  0  0  0  0  0
   20.3475   -9.5910  -17.9359 C   0  0  0  0  0  0  0  0  0  0  0  0
   19.7994  -10.1315  -16.9415 O   0  0  0  0  0  0  0  0  0  0  0  0
   27.3446  -10.9341  -14.9715 C   0  0  0  0  0  0  0  0  0  0  0  0
   26.1472  -10.8315  -16.3527 S   0  0  0  0  0  0  0  0  0  0  0  0
   24.6902   -9.9034  -15.7921 C   0  0  0  0  0  0  0  0  0  0  0  0
   23.6851   -9.7722  -16.8760 C   0  0  0  0  0  0  0  0  0  0  0  0
   22.3967   -9.0858  -16.5193 C   0  0  2  0  0  0  0  0  0  0  0  0
   21.6421   -9.0401  -17.7806 N   0  0  0  0  0  0  0  0  0  0  0  0
   22.5732   -7.6999  -16.0090 C   0  0  0  0  0  0  0  0  0  0  0  0
   22.8417   -6.7560  -16.8339 O   0  0  0  0  0  0  0  0  0  0  0  0
   22.4664   -7.3159  -14.6567 N   0  0  0  0  0  0  0  0  0  0  0  0
   22.7445   -5.9348  -14.2570 C   0  0  0  0  0  0  0  0  0  0  0  0
   21.5271   -5.1052  -14.3049 C   0  0  0  0  0  0  0  0  0  0  0  0
   21.5473   -3.7778  -13.9165 O   0  0  0  0  0  0  0  0  0  0  0  0
   20.4470   -5.5977  -14.7021 O   0  0  0  0  0  0  0  0  0  0  0  0
  2  1  1  1
  2  4  1  0
  2  3  1  0
  4  5  2  0
  7  6  1  0
  7  8  1  0
  8  9  1  0
 10  9  1  6
 11  4  1  0
 11 10  1  0
 12 10  1  0
 12 14  1  0
 13 12  2  0
 15 14  1  0
 15 16  1  0
 16 17  1  0
 18 16  2  0
M  END
$$$$
