AMG.pdb
     RDKit          3D

 18 17  0  0  1  0  0  0  0  0999 V2000
   19.9256  -12.9468  -16.5165 C   0  0  0  0  0  0  0  0  0  0  0  0
   19.6569  -11.4877  -16.6888 C   0  0  2  0  0  0  0  0  0  0  0  0
   19.9360  -11.0674  -18.0258 N   0  0  0  0  0  0  0  0  0  0  0  0
   20.3364  -10.6337  -15.6933 C   0  0  0  0  0  0  0  0  0  0  0  0
   20.1481  -10.8626  -14.4712 O   0  0  0  0  0  0  0  0  0  0  0  0
   26.6660  -11.3166  -14.8758 C   0  0  0  0  0  0  0  0  0  0  0  0
   25.7940   -9.8396  -15.5162 S   0  0  0  0  0  0  0  0  0  0  0  0
   24.0886   -9.8544  -14.8919 C   0  0  0  0  0  0  0  0  0  0  0  0
   23.3011   -8.7268  -15.4491 C   0  0  0  0  0  0  0  0  0  0  0  0
   21.8438   -8.6794  -15.0853 C   0  0  2  0  0  0  0  0  0  0  0  0
   21.1917   -9.5670  -16.0596 N   0  0  0  0  0  0  0  0  0  0  0  0
   21.2413   -7.3232  -15.1853 C   0  0  0  0  0  0  0  0  0  0  0  0
   21.7118   -6.3720  -14.4661 O   0  0  0  0  0  0  0  0  0  0  0  0
   20.1662   -6.9756  -16.0285 N   0  0  0  0  0  0  0  0  0  0  0  0
   19.6578   -5.6025  -16.0491 C   0  0  0  0  0  0  0  0  0  0  0  0
   18.5890   -5.4093  -15.0526 C   0  0  0  0  0  0  0  0  0  0  0  0
   17.9427   -4.1936  -14.9197 O   0  0  0  0  0  0  0  0  0  0  0  0
   18.2493   -6.3542  -14.3052 O   0  0  0  0  0  0  0  0  0  0  0  0
  2  1  1  6
  2  4  1  0
  2  3  1  0
  4  5  2  0
  7  6  1  0
  7  8  1  0
  8  9  1  0
 10  9  1  6
 11  4  1  0
 11 10  1  0
 12 10  1  0
 12 14  1  0
 13 12  2  0
 15 14  1  0
 15 16  1  0
 16 17  1  0
 18 16  2  0
M  END
$$$$
