YKL.pdb
     RDKit          3D

 30 30  0  0  1  0  0  0  0  0999 V2000
   16.8197  -16.4599  -16.5996 O   0  0  0  0  0  0  0  0  0  0  0  0
   18.0366  -17.0119  -16.1921 C   0  0  0  0  0  0  0  0  0  0  0  0
   18.0749  -18.1221  -15.3780 C   0  0  0  0  0  0  0  0  0  0  0  0
   19.2632  -18.6833  -14.9638 C   0  0  0  0  0  0  0  0  0  0  0  0
   20.4781  -18.1471  -15.3543 C   0  0  0  0  0  0  0  0  0  0  0  0
   21.7297  -18.7997  -14.8741 C   0  0  0  0  0  0  0  0  0  0  0  0
   22.3454  -19.6787  -15.9703 C   0  0  2  0  0  0  0  0  0  0  0  0
   21.4227  -20.7459  -16.2219 N   0  0  0  0  0  0  0  0  0  0  0  0
   23.6485  -20.2497  -15.5570 C   0  0  0  0  0  0  0  0  0  0  0  0
   23.7256  -21.2626  -14.7919 O   0  0  0  0  0  0  0  0  0  0  0  0
   20.4669  -17.0370  -16.1683 C   0  0  0  0  0  0  0  0  0  0  0  0
   19.2501  -16.4832  -16.5772 C   0  0  0  0  0  0  0  0  0  0  0  0
   24.9082  -19.7204  -15.9773 N   0  0  0  0  0  0  0  0  0  0  0  0
   26.1670  -20.2626  -15.5428 C   0  0  1  0  0  0  0  0  0  0  0  0
   27.2958  -19.9016  -16.4918 C   0  0  0  0  0  0  0  0  0  0  0  0
   27.1796  -20.6110  -17.8136 C   0  0  0  0  0  0  0  0  0  0  0  0
   28.4141  -20.2038  -18.6256 C   0  0  0  0  0  0  0  0  0  0  0  0
   28.3522  -20.7868  -20.0208 C   0  0  0  0  0  0  0  0  0  0  0  0
   29.5799  -20.3914  -20.6921 N   0  0  0  0  0  0  0  0  0  0  0  0
   26.5494  -19.6681  -14.2234 C   0  0  0  0  0  0  0  0  0  0  0  0
   25.9434  -18.6406  -13.8281 O   0  0  0  0  0  0  0  0  0  0  0  0
   25.2839  -19.7368  -10.0746 C   0  0  0  0  0  0  0  0  0  0  0  0
   25.0134  -20.5584  -11.3410 C   0  0  2  0  0  0  0  0  0  0  0  0
   23.8012  -21.4021  -11.1328 C   0  0  0  0  0  0  0  0  0  0  0  0
   26.2296  -21.3478  -11.7284 C   0  0  0  0  0  0  0  0  0  0  0  0
   27.3986  -20.4794  -11.9829 C   0  0  2  0  0  0  0  0  0  0  0  0
   27.5792  -20.2514  -13.4275 N   0  0  0  0  0  0  0  0  0  0  0  0
   28.6238  -20.9831  -11.3769 C   0  0  0  0  0  0  0  0  0  0  0  0
   29.3119  -21.8173  -12.0607 O   0  0  0  0  0  0  0  0  0  0  0  0
   29.1568  -20.6768  -10.1463 O   0  0  0  0  0  0  0  0  0  0  0  0
  1  2  1  0
  2  3  2  0
  3  4  1  0
  5  4  2  0
  5  6  1  0
  7  6  1  0
  7  8  1  1
  9  7  1  0
 10  9  2  0
 11  5  1  0
 12  2  1  0
 12 11  2  0
 13  9  1  0
 14 13  1  0
 15 16  1  0
 14 15  1  6
 17 16  1  0
 18 17  1  0
 19 18  1  0
 20 21  2  0
 20 14  1  0
 23 22  1  1
 23 25  1  0
 24 23  1  0
 26 25  1  6
 26 27  1  0
 27 20  1  0
 28 30  1  0
 28 26  1  0
 29 28  2  0
M  END
$$$$
