YKL.pdb
     RDKit          3D

 30 30  0  0  1  0  0  0  0  0999 V2000
   28.8344  -19.5974   -4.0043 O   0  0  0  0  0  0  0  0  0  0  0  0
   28.3651  -19.6288   -5.3197 C   0  0  0  0  0  0  0  0  0  0  0  0
   29.1891  -19.3057   -6.3749 C   0  0  0  0  0  0  0  0  0  0  0  0
   28.7478  -19.3298   -7.6800 C   0  0  0  0  0  0  0  0  0  0  0  0
   27.4448  -19.6837   -7.9846 C   0  0  0  0  0  0  0  0  0  0  0  0
   27.0270  -19.6919   -9.4158 C   0  0  0  0  0  0  0  0  0  0  0  0
   27.3310  -21.0467  -10.0681 C   0  0  2  0  0  0  0  0  0  0  0  0
   28.7549  -21.1407  -10.1994 N   0  0  0  0  0  0  0  0  0  0  0  0
   26.7099  -21.1693  -11.4077 C   0  0  0  0  0  0  0  0  0  0  0  0
   27.1960  -20.5881  -12.4290 O   0  0  0  0  0  0  0  0  0  0  0  0
   26.6010  -20.0112   -6.9473 C   0  0  0  0  0  0  0  0  0  0  0  0
   27.0688  -19.9803   -5.6303 C   0  0  0  0  0  0  0  0  0  0  0  0
   25.5327  -21.9394  -11.6615 N   0  0  0  0  0  0  0  0  0  0  0  0
   24.9594  -22.0803  -12.9726 C   0  0  1  0  0  0  0  0  0  0  0  0
   24.6931  -23.5340  -13.3201 C   0  0  0  0  0  0  0  0  0  0  0  0
   24.2306  -23.7060  -14.7415 C   0  0  0  0  0  0  0  0  0  0  0  0
   24.0371  -25.2125  -14.9471 C   0  0  0  0  0  0  0  0  0  0  0  0
   23.7239  -25.5182  -16.3959 C   0  0  0  0  0  0  0  0  0  0  0  0
   23.5200  -26.9552  -16.4834 N   0  0  0  0  0  0  0  0  0  0  0  0
   23.6230  -21.4077  -13.0191 C   0  0  0  0  0  0  0  0  0  0  0  0
   22.9416  -21.3498  -11.9649 O   0  0  0  0  0  0  0  0  0  0  0  0
   21.2452  -17.3164  -13.9905 C   0  0  0  0  0  0  0  0  0  0  0  0
   22.1243  -17.8569  -15.1250 C   0  0  2  0  0  0  0  0  0  0  0  0
   22.0515  -16.9295  -16.2909 C   0  0  0  0  0  0  0  0  0  0  0  0
   21.7429  -19.2687  -15.4619 C   0  0  0  0  0  0  0  0  0  0  0  0
   21.8228  -20.1621  -14.2868 C   0  0  2  0  0  0  0  0  0  0  0  0
   23.1287  -20.8426  -14.2318 N   0  0  0  0  0  0  0  0  0  0  0  0
   20.7303  -21.1238  -14.2282 C   0  0  0  0  0  0  0  0  0  0  0  0
   20.8491  -22.1844  -14.9339 O   0  0  0  0  0  0  0  0  0  0  0  0
   19.5650  -21.0498  -13.5009 O   0  0  0  0  0  0  0  0  0  0  0  0
  1  2  1  0
  2  3  2  0
  3  4  1  0
  5  4  2  0
  5  6  1  0
  7  6  1  0
  7  8  1  6
  9  7  1  0
 10  9  2  0
 11  5  1  0
 12  2  1  0
 12 11  2  0
 13  9  1  0
 14 13  1  0
 15 16  1  0
 14 15  1  1
 17 16  1  0
 18 17  1  0
 19 18  1  0
 20 21  2  0
 20 14  1  0
 23 22  1  1
 23 25  1  0
 24 23  1  0
 26 25  1  6
 26 27  1  0
 27 20  1  0
 28 30  1  0
 28 26  1  0
 29 28  2  0
M  END
$$$$
