YKL.pdb
     RDKit          3D

 30 30  0  0  1  0  0  0  0  0999 V2000
   28.4260  -19.7641   -3.2554 O   0  0  0  0  0  0  0  0  0  0  0  0
   28.2152  -19.7189   -4.6357 C   0  0  0  0  0  0  0  0  0  0  0  0
   27.0428  -20.1830   -5.1898 C   0  0  0  0  0  0  0  0  0  0  0  0
   26.8133  -20.1484   -6.5480 C   0  0  0  0  0  0  0  0  0  0  0  0
   27.7625  -19.6401   -7.4178 C   0  0  0  0  0  0  0  0  0  0  0  0
   27.4553  -19.6287   -8.8768 C   0  0  0  0  0  0  0  0  0  0  0  0
   27.4751  -21.0505   -9.4525 C   0  0  2  0  0  0  0  0  0  0  0  0
   28.8120  -21.5455   -9.3057 N   0  0  0  0  0  0  0  0  0  0  0  0
   27.1027  -21.0737  -10.8864 C   0  0  0  0  0  0  0  0  0  0  0  0
   27.9342  -20.7755  -11.8011 O   0  0  0  0  0  0  0  0  0  0  0  0
   28.9431  -19.1696   -6.8887 C   0  0  0  0  0  0  0  0  0  0  0  0
   29.1559  -19.2141   -5.5076 C   0  0  0  0  0  0  0  0  0  0  0  0
   25.7997  -21.4288  -11.3550 N   0  0  0  0  0  0  0  0  0  0  0  0
   25.4682  -21.5120  -12.7517 C   0  0  1  0  0  0  0  0  0  0  0  0
   24.5401  -22.6775  -13.0440 C   0  0  0  0  0  0  0  0  0  0  0  0
   24.2145  -22.7948  -14.5083 C   0  0  0  0  0  0  0  0  0  0  0  0
   23.3000  -24.0172  -14.6446 C   0  0  0  0  0  0  0  0  0  0  0  0
   22.9704  -24.2786  -16.0984 C   0  0  0  0  0  0  0  0  0  0  0  0
   22.0833  -25.4304  -16.1236 N   0  0  0  0  0  0  0  0  0  0  0  0
   24.7155  -20.2878  -13.1703 C   0  0  0  0  0  0  0  0  0  0  0  0
   23.8319  -19.8325  -12.4014 O   0  0  0  0  0  0  0  0  0  0  0  0
   25.6375  -15.3915  -16.7840 C   0  0  0  0  0  0  0  0  0  0  0  0
   24.7078  -16.1625  -15.8388 C   0  0  2  0  0  0  0  0  0  0  0  0
   24.3465  -15.2922  -14.6827 C   0  0  0  0  0  0  0  0  0  0  0  0
   25.3311  -17.4657  -15.4319 C   0  0  0  0  0  0  0  0  0  0  0  0
   24.3590  -18.3668  -14.7771 C   0  0  2  0  0  0  0  0  0  0  0  0
   24.9912  -19.6475  -14.4146 N   0  0  0  0  0  0  0  0  0  0  0  0
   23.1590  -18.5841  -15.5737 C   0  0  0  0  0  0  0  0  0  0  0  0
   22.1038  -17.9516  -15.2224 O   0  0  0  0  0  0  0  0  0  0  0  0
   23.0005  -19.3900  -16.6773 O   0  0  0  0  0  0  0  0  0  0  0  0
  1  2  1  0
  2  3  2  0
  3  4  1  0
  5  4  2  0
  5  6  1  0
  7  6  1  0
  7  8  1  6
  9  7  1  0
 10  9  2  0
 11  5  1  0
 12  2  1  0
 12 11  2  0
 13  9  1  0
 14 13  1  0
 15 16  1  0
 14 15  1  1
 17 16  1  0
 18 17  1  0
 19 18  1  0
 20 21  2  0
 20 14  1  0
 23 22  1  6
 23 25  1  0
 24 23  1  0
 26 25  1  6
 26 27  1  0
 27 20  1  0
 28 30  1  0
 28 26  1  0
 29 28  2  0
M  END
$$$$
