YKL.pdb
     RDKit          3D

 30 30  0  0  1  0  0  0  0  0999 V2000
   21.7469  -11.2169  -17.4659 O   0  0  0  0  0  0  0  0  0  0  0  0
   22.1477  -12.4759  -17.0120 C   0  0  0  0  0  0  0  0  0  0  0  0
   21.2359  -13.4956  -16.8517 C   0  0  0  0  0  0  0  0  0  0  0  0
   21.6085  -14.7448  -16.4055 C   0  0  0  0  0  0  0  0  0  0  0  0
   22.9282  -15.0266  -16.0975 C   0  0  0  0  0  0  0  0  0  0  0  0
   23.2692  -16.3973  -15.6203 C   0  0  0  0  0  0  0  0  0  0  0  0
   23.9199  -17.2215  -16.7386 C   0  0  2  0  0  0  0  0  0  0  0  0
   22.9075  -17.4699  -17.7220 N   0  0  0  0  0  0  0  0  0  0  0  0
   24.4431  -18.5154  -16.2417 C   0  0  0  0  0  0  0  0  0  0  0  0
   23.6715  -19.4786  -15.9349 O   0  0  0  0  0  0  0  0  0  0  0  0
   23.8592  -14.0240  -16.2494 C   0  0  0  0  0  0  0  0  0  0  0  0
   23.4601  -12.7634  -16.7035 C   0  0  0  0  0  0  0  0  0  0  0  0
   25.8360  -18.7867  -16.0694 N   0  0  0  0  0  0  0  0  0  0  0  0
   26.3350  -20.0638  -15.6362 C   0  0  1  0  0  0  0  0  0  0  0  0
   27.6221  -20.4392  -16.3485 C   0  0  0  0  0  0  0  0  0  0  0  0
   28.1826  -21.7484  -15.8630 C   0  0  0  0  0  0  0  0  0  0  0  0
   29.4304  -22.0182  -16.7111 C   0  0  0  0  0  0  0  0  0  0  0  0
   30.0305  -23.3640  -16.3658 C   0  0  0  0  0  0  0  0  0  0  0  0
   31.1261  -23.5824  -17.2964 N   0  0  0  0  0  0  0  0  0  0  0  0
   26.6856  -20.0069  -14.1821 C   0  0  0  0  0  0  0  0  0  0  0  0
   27.0285  -18.9033  -13.6886 O   0  0  0  0  0  0  0  0  0  0  0  0
   24.7244  -21.7050   -9.5949 C   0  0  0  0  0  0  0  0  0  0  0  0
   24.7461  -20.3039  -10.2181 C   0  0  2  0  0  0  0  0  0  0  0  0
   23.4507  -19.6192   -9.9394 C   0  0  0  0  0  0  0  0  0  0  0  0
   25.0768  -20.3811  -11.6800 C   0  0  0  0  0  0  0  0  0  0  0  0
   26.3451  -21.0996  -11.9262 C   0  0  2  0  0  0  0  0  0  0  0  0
   26.6333  -21.1777  -13.3692 N   0  0  0  0  0  0  0  0  0  0  0  0
   26.3777  -22.4216  -11.3153 C   0  0  0  0  0  0  0  0  0  0  0  0
   25.7342  -23.3542  -11.9096 O   0  0  0  0  0  0  0  0  0  0  0  0
   27.0210  -22.8157  -10.1650 O   0  0  0  0  0  0  0  0  0  0  0  0
  1  2  1  0
  2  3  2  0
  3  4  1  0
  5  4  2  0
  5  6  1  0
  7  6  1  0
  7  8  1  6
  9  7  1  0
 10  9  2  0
 11  5  1  0
 12  2  1  0
 12 11  2  0
 13  9  1  0
 14 13  1  0
 15 16  1  0
 14 15  1  6
 17 16  1  0
 18 17  1  0
 19 18  1  0
 20 21  2  0
 20 14  1  0
 23 22  1  6
 23 25  1  0
 24 23  1  0
 26 25  1  6
 26 27  1  0
 27 20  1  0
 28 30  1  0
 28 26  1  0
 29 28  2  0
M  END
$$$$
