YKL.pdb
     RDKit          3D

 30 30  0  0  1  0  0  0  0  0999 V2000
   26.7469  -20.1572   -4.7552 O   0  0  0  0  0  0  0  0  0  0  0  0
   26.6523  -19.9708   -6.1365 C   0  0  0  0  0  0  0  0  0  0  0  0
   25.9476  -20.8534   -6.9248 C   0  0  0  0  0  0  0  0  0  0  0  0
   25.8411  -20.6895   -8.2887 C   0  0  0  0  0  0  0  0  0  0  0  0
   26.4448  -19.6197   -8.9267 C   0  0  0  0  0  0  0  0  0  0  0  0
   26.2926  -19.4962  -10.4047 C   0  0  0  0  0  0  0  0  0  0  0  0
   26.1125  -20.8741  -11.0546 C   0  0  2  0  0  0  0  0  0  0  0  0
   27.3615  -21.5655  -10.9286 N   0  0  0  0  0  0  0  0  0  0  0  0
   25.7575  -20.7689  -12.4892 C   0  0  0  0  0  0  0  0  0  0  0  0
   26.6352  -20.5549  -13.3842 O   0  0  0  0  0  0  0  0  0  0  0  0
   27.1551  -18.7231   -8.1608 C   0  0  0  0  0  0  0  0  0  0  0  0
   27.2509  -18.9078   -6.7783 C   0  0  0  0  0  0  0  0  0  0  0  0
   24.4213  -20.8983  -12.9804 N   0  0  0  0  0  0  0  0  0  0  0  0
   24.0983  -20.8695  -14.3812 C   0  0  1  0  0  0  0  0  0  0  0  0
   23.2223  -22.0424  -14.7837 C   0  0  0  0  0  0  0  0  0  0  0  0
   24.0060  -23.3193  -14.9229 C   0  0  0  0  0  0  0  0  0  0  0  0
   22.9995  -24.3921  -15.3530 C   0  0  0  0  0  0  0  0  0  0  0  0
   23.6896  -25.7248  -15.5480 C   0  0  0  0  0  0  0  0  0  0  0  0
   22.6574  -26.6769  -15.9251 N   0  0  0  0  0  0  0  0  0  0  0  0
   23.2949  -19.6458  -14.6936 C   0  0  0  0  0  0  0  0  0  0  0  0
   22.6967  -19.0629  -13.7547 O   0  0  0  0  0  0  0  0  0  0  0  0
   27.3806  -16.7718  -16.8209 C   0  0  0  0  0  0  0  0  0  0  0  0
   25.9107  -16.5459  -16.4459 C   0  0  2  0  0  0  0  0  0  0  0  0
   25.8270  -15.5050  -15.3809 C   0  0  0  0  0  0  0  0  0  0  0  0
   25.2576  -17.8422  -16.0648 C   0  0  0  0  0  0  0  0  0  0  0  0
   23.8203  -17.8637  -16.4104 C   0  0  2  0  0  0  0  0  0  0  0  0
   23.2068  -19.1475  -16.0271 N   0  0  0  0  0  0  0  0  0  0  0  0
   23.5682  -17.5630  -17.8132 C   0  0  0  0  0  0  0  0  0  0  0  0
   23.8961  -18.4561  -18.6687 O   0  0  0  0  0  0  0  0  0  0  0  0
   23.0111  -16.4289  -18.3572 O   0  0  0  0  0  0  0  0  0  0  0  0
  1  2  1  0
  2  3  2  0
  3  4  1  0
  5  4  2  0
  5  6  1  0
  7  6  1  0
  7  8  1  6
  9  7  1  0
 10  9  2  0
 11  5  1  0
 12  2  1  0
 12 11  2  0
 13  9  1  0
 14 13  1  0
 15 16  1  0
 14 15  1  1
 17 16  1  0
 18 17  1  0
 19 18  1  0
 20 21  2  0
 20 14  1  0
 23 22  1  1
 23 25  1  0
 24 23  1  0
 26 25  1  6
 26 27  1  0
 27 20  1  0
 28 30  1  0
 28 26  1  0
 29 28  2  0
M  END
$$$$
