YKL.pdb
     RDKit          3D

 30 30  0  0  1  0  0  0  0  0999 V2000
   28.9843  -19.9195   -5.2153 O   0  0  0  0  0  0  0  0  0  0  0  0
   28.2556  -19.9108   -6.4071 C   0  0  0  0  0  0  0  0  0  0  0  0
   28.6112  -20.7217   -7.4620 C   0  0  0  0  0  0  0  0  0  0  0  0
   27.9073  -20.7296   -8.6466 C   0  0  0  0  0  0  0  0  0  0  0  0
   26.8033  -19.9138   -8.8242 C   0  0  0  0  0  0  0  0  0  0  0  0
   26.0825  -19.9680  -10.1283 C   0  0  0  0  0  0  0  0  0  0  0  0
   26.5468  -21.1691  -10.9621 C   0  0  2  0  0  0  0  0  0  0  0  0
   27.9272  -20.9523  -11.2802 N   0  0  0  0  0  0  0  0  0  0  0  0
   25.7736  -21.3044  -12.2186 C   0  0  0  0  0  0  0  0  0  0  0  0
   26.1100  -20.6954  -13.2831 O   0  0  0  0  0  0  0  0  0  0  0  0
   26.4273  -19.0936   -7.7845 C   0  0  0  0  0  0  0  0  0  0  0  0
   27.1553  -19.1010   -6.5910 C   0  0  0  0  0  0  0  0  0  0  0  0
   24.6047  -22.1184  -12.3392 N   0  0  0  0  0  0  0  0  0  0  0  0
   23.8619  -22.2415  -13.5642 C   0  0  1  0  0  0  0  0  0  0  0  0
   23.2832  -23.6344  -13.7370 C   0  0  0  0  0  0  0  0  0  0  0  0
   24.3412  -24.6579  -14.0483 C   0  0  0  0  0  0  0  0  0  0  0  0
   24.6774  -24.4847  -15.5337 C   0  0  0  0  0  0  0  0  0  0  0  0
   25.6661  -25.5382  -15.9841 C   0  0  0  0  0  0  0  0  0  0  0  0
   25.9017  -25.3095  -17.4006 N   0  0  0  0  0  0  0  0  0  0  0  0
   22.6829  -21.3197  -13.5398 C   0  0  0  0  0  0  0  0  0  0  0  0
   22.2925  -20.8714  -12.4327 O   0  0  0  0  0  0  0  0  0  0  0  0
   18.9150  -18.4377  -16.3362 C   0  0  0  0  0  0  0  0  0  0  0  0
   20.2025  -17.8105  -15.7873 C   0  0  2  0  0  0  0  0  0  0  0  0
   20.5686  -16.6273  -16.6182 C   0  0  0  0  0  0  0  0  0  0  0  0
   21.2938  -18.8369  -15.6983 C   0  0  0  0  0  0  0  0  0  0  0  0
   20.9578  -19.9258  -14.7566 C   0  0  2  0  0  0  0  0  0  0  0  0
   22.0129  -20.9545  -14.7448 N   0  0  0  0  0  0  0  0  0  0  0  0
   19.6531  -20.5195  -15.0158 C   0  0  0  0  0  0  0  0  0  0  0  0
   19.5963  -21.4354  -15.9072 O   0  0  0  0  0  0  0  0  0  0  0  0
   18.4482  -20.2279  -14.4196 O   0  0  0  0  0  0  0  0  0  0  0  0
  1  2  1  0
  2  3  2  0
  3  4  1  0
  5  4  2  0
  5  6  1  0
  7  6  1  0
  7  8  1  6
  9  7  1  0
 10  9  2  0
 11  5  1  0
 12  2  1  0
 12 11  2  0
 13  9  1  0
 14 13  1  0
 15 16  1  0
 14 15  1  1
 17 16  1  0
 18 17  1  0
 19 18  1  0
 20 21  2  0
 20 14  1  0
 23 22  1  6
 23 25  1  0
 24 23  1  0
 26 25  1  6
 26 27  1  0
 27 20  1  0
 28 30  1  0
 28 26  1  0
 29 28  2  0
M  END
$$$$
