YKL.pdb
     RDKit          3D

 30 30  0  0  1  0  0  0  0  0999 V2000
   18.0203  -14.7963  -17.7969 O   0  0  0  0  0  0  0  0  0  0  0  0
   18.7673  -15.6811  -17.0154 C   0  0  0  0  0  0  0  0  0  0  0  0
   20.1417  -15.6027  -16.9722 C   0  0  0  0  0  0  0  0  0  0  0  0
   20.8986  -16.4646  -16.2088 C   0  0  0  0  0  0  0  0  0  0  0  0
   20.3005  -17.4536  -15.4473 C   0  0  0  0  0  0  0  0  0  0  0  0
   21.1731  -18.3549  -14.6415 C   0  0  0  0  0  0  0  0  0  0  0  0
   21.8536  -19.4011  -15.5337 C   0  0  2  0  0  0  0  0  0  0  0  0
   20.8176  -20.2293  -16.0764 N   0  0  0  0  0  0  0  0  0  0  0  0
   22.8031  -20.2462  -14.7725 C   0  0  0  0  0  0  0  0  0  0  0  0
   22.4180  -21.2647  -14.1157 O   0  0  0  0  0  0  0  0  0  0  0  0
   18.9277  -17.5529  -15.4733 C   0  0  0  0  0  0  0  0  0  0  0  0
   18.1784  -16.6683  -16.2547 C   0  0  0  0  0  0  0  0  0  0  0  0
   24.2089  -19.9933  -14.7143 N   0  0  0  0  0  0  0  0  0  0  0  0
   25.1472  -20.9259  -14.1511 C   0  0  1  0  0  0  0  0  0  0  0  0
   26.3569  -21.1218  -15.0474 C   0  0  0  0  0  0  0  0  0  0  0  0
   26.1311  -22.1858  -16.0870 C   0  0  0  0  0  0  0  0  0  0  0  0
   27.4886  -22.4198  -16.7589 C   0  0  0  0  0  0  0  0  0  0  0  0
   27.3698  -23.4532  -17.8582 C   0  0  0  0  0  0  0  0  0  0  0  0
   28.7133  -23.6750  -18.3681 N   0  0  0  0  0  0  0  0  0  0  0  0
   25.6880  -20.3890  -12.8627 C   0  0  0  0  0  0  0  0  0  0  0  0
   25.6863  -19.1456  -12.6812 O   0  0  0  0  0  0  0  0  0  0  0  0
   27.4847  -20.3222   -8.0934 C   0  0  0  0  0  0  0  0  0  0  0  0
   26.2575  -19.5070   -8.5193 C   0  0  2  0  0  0  0  0  0  0  0  0
   25.2375  -19.5452   -7.4317 C   0  0  0  0  0  0  0  0  0  0  0  0
   25.7367  -19.9882   -9.8419 C   0  0  0  0  0  0  0  0  0  0  0  0
   26.7548  -20.7486  -10.5974 C   0  0  2  0  0  0  0  0  0  0  0  0
   26.1956  -21.2658  -11.8588 N   0  0  0  0  0  0  0  0  0  0  0  0
   27.3598  -21.8195   -9.8169 C   0  0  0  0  0  0  0  0  0  0  0  0
   28.4623  -21.5568   -9.2235 O   0  0  0  0  0  0  0  0  0  0  0  0
   26.8982  -23.1007   -9.6225 O   0  0  0  0  0  0  0  0  0  0  0  0
  1  2  1  0
  2  3  2  0
  3  4  1  0
  5  4  2  0
  5  6  1  0
  7  6  1  0
  7  8  1  1
  9  7  1  0
 10  9  2  0
 11  5  1  0
 12  2  1  0
 12 11  2  0
 13  9  1  0
 14 13  1  0
 15 16  1  0
 14 15  1  6
 17 16  1  0
 18 17  1  0
 19 18  1  0
 20 21  2  0
 20 14  1  0
 23 22  1  1
 23 25  1  0
 24 23  1  0
 26 25  1  1
 26 27  1  0
 27 20  1  0
 28 30  1  0
 28 26  1  0
 29 28  2  0
M  END
$$$$
