QPK.pdb
     RDKit          3D

 26 26  0  0  1  0  0  0  0  0999 V2000
   26.0042  -19.2067  -14.8510 N   0  0  0  0  0  0  0  0  0  0  0  0
   24.8946  -19.2287  -13.9780 C   0  0  0  0  0  0  0  0  0  0  0  0
   23.7870  -18.8550  -14.4427 O   0  0  0  0  0  0  0  0  0  0  0  0
   24.9941  -19.6675  -12.5676 C   0  0  0  0  0  0  0  0  0  0  0  0
   26.4602  -19.8924  -12.2067 C   0  0  0  0  0  0  0  0  0  0  0  0
   26.7434  -21.3760  -12.1029 C   0  0  2  0  0  0  0  0  0  0  0  0
   25.4485  -22.0287  -12.3244 N   0  0  0  0  0  0  0  0  0  0  0  0
   27.2615  -21.7575  -10.7798 C   0  0  0  0  0  0  0  0  0  0  0  0
   26.5409  -22.4744  -10.0389 O   0  0  0  0  0  0  0  0  0  0  0  0
   28.5306  -21.3635  -10.2876 N   0  0  0  0  0  0  0  0  0  0  0  0
   29.5632  -20.5823  -10.9531 C   0  0  0  0  0  0  0  0  0  0  0  0
   30.8108  -21.4100  -10.6126 C   0  0  0  0  0  0  0  0  0  0  0  0
   30.5794  -21.6011   -9.1076 C   0  0  0  0  0  0  0  0  0  0  0  0
   29.0800  -21.6712   -8.9813 C   0  0  1  0  0  0  0  0  0  0  0  0
   28.6577  -20.6338   -7.9975 C   0  0  0  0  0  0  0  0  0  0  0  0
   28.4472  -19.4348   -8.3105 O   0  0  0  0  0  0  0  0  0  0  0  0
   28.4789  -20.9933   -6.6402 N   0  0  0  0  0  0  0  0  0  0  0  0
   27.9153  -20.0443   -5.6651 C   0  0  1  0  0  0  0  0  0  0  0  0
   26.7505  -20.6545   -4.9533 C   0  0  0  0  0  0  0  0  0  0  0  0
   26.1432  -19.8607   -3.8638 C   0  0  0  0  0  0  0  0  0  0  0  0
   25.0131  -20.4639   -3.1160 C   0  0  0  0  0  0  0  0  0  0  0  0
   24.5035  -19.5615   -1.9994 C   0  0  0  0  0  0  0  0  0  0  0  0
   23.4395  -20.2456   -1.3186 N   0  0  0  0  0  0  0  0  0  0  0  0
   29.0043  -19.5219   -4.8507 C   0  0  0  0  0  0  0  0  0  0  0  0
   29.0448  -18.3543   -4.4053 O   0  0  0  0  0  0  0  0  0  0  0  0
   30.0977  -20.3315   -4.5174 O   0  0  0  0  0  0  0  0  0  0  0  0
  2  1  1  0
  3  2  2  0
  4  2  1  0
  5  4  1  0
  6  8  1  0
  6  5  1  0
  6  7  1  1
  8  9  2  0
  8 10  1  0
 10 14  1  0
 10 11  1  0
 12 11  1  0
 13 14  1  0
 13 12  1  0
 15 17  1  0
 14 15  1  1
 16 15  2  0
 18 17  1  0
 18 19  1  1
 20 19  1  0
 21 20  1  0
 22 21  1  0
 23 22  1  0
 24 18  1  0
 25 24  2  0
 26 24  1  0
M  END
$$$$
