QPK.pdb
     RDKit          3D

 26 26  0  0  1  0  0  0  0  0999 V2000
   15.2231  -21.4337    0.6245 N   0  0  0  0  0  0  0  0  0  0  0  0
   14.0901  -20.6378    0.3477 C   0  0  0  0  0  0  0  0  0  0  0  0
   13.7716  -20.4871   -0.8600 O   0  0  0  0  0  0  0  0  0  0  0  0
   13.2865  -19.9919    1.4101 C   0  0  0  0  0  0  0  0  0  0  0  0
   13.9503  -20.2270    2.7645 C   0  0  0  0  0  0  0  0  0  0  0  0
   13.5139  -21.5630    3.3270 C   0  0  2  0  0  0  0  0  0  0  0  0
   12.0668  -21.4372    3.5319 N   0  0  0  0  0  0  0  0  0  0  0  0
   14.1630  -21.8707    4.6109 C   0  0  0  0  0  0  0  0  0  0  0  0
   13.4799  -21.7814    5.6634 O   0  0  0  0  0  0  0  0  0  0  0  0
   15.5190  -22.2637    4.7336 N   0  0  0  0  0  0  0  0  0  0  0  0
   16.5162  -22.4334    3.6867 C   0  0  0  0  0  0  0  0  0  0  0  0
   17.1413  -23.7727    4.1028 C   0  0  0  0  0  0  0  0  0  0  0  0
   17.3622  -23.4912    5.5951 C   0  0  0  0  0  0  0  0  0  0  0  0
   16.2114  -22.5920    5.9646 C   0  0  1  0  0  0  0  0  0  0  0  0
   16.7785  -21.3543    6.5720 C   0  0  0  0  0  0  0  0  0  0  0  0
   17.1388  -20.3588    5.8943 O   0  0  0  0  0  0  0  0  0  0  0  0
   16.9276  -21.2737    7.9773 N   0  0  0  0  0  0  0  0  0  0  0  0
   17.3778  -20.0320    8.6289 C   0  0  1  0  0  0  0  0  0  0  0  0
   16.2901  -19.0061    8.6093 C   0  0  0  0  0  0  0  0  0  0  0  0
   16.5270  -17.7668    9.3800 C   0  0  0  0  0  0  0  0  0  0  0  0
   15.4429  -16.7549    9.4125 C   0  0  0  0  0  0  0  0  0  0  0  0
   15.8303  -15.5088   10.1987 C   0  0  0  0  0  0  0  0  0  0  0  0
   14.7073  -14.6131   10.2035 N   0  0  0  0  0  0  0  0  0  0  0  0
   17.9569  -20.3754    9.9208 C   0  0  0  0  0  0  0  0  0  0  0  0
   18.8912  -19.7411   10.4576 O   0  0  0  0  0  0  0  0  0  0  0  0
   17.4785  -21.4727   10.6480 O   0  0  0  0  0  0  0  0  0  0  0  0
  2  1  1  0
  3  2  2  0
  4  2  1  0
  5  4  1  0
  6  8  1  0
  6  5  1  0
  6  7  1  1
  8  9  2  0
  8 10  1  0
 10 14  1  0
 10 11  1  0
 12 11  1  0
 13 14  1  0
 13 12  1  0
 15 17  1  0
 14 15  1  6
 16 15  2  0
 18 17  1  0
 18 19  1  1
 20 19  1  0
 21 20  1  0
 22 21  1  0
 23 22  1  0
 24 18  1  0
 25 24  2  0
 26 24  1  0
M  END
$$$$
