QPK.pdb
     RDKit          3D

 26 26  0  0  1  0  0  0  0  0999 V2000
   28.4521  -19.8116  -15.6069 N   0  0  0  0  0  0  0  0  0  0  0  0
   28.6845  -20.5506  -16.7873 C   0  0  0  0  0  0  0  0  0  0  0  0
   29.7949  -20.3935  -17.3575 O   0  0  0  0  0  0  0  0  0  0  0  0
   27.6852  -21.4812  -17.3592 C   0  0  0  0  0  0  0  0  0  0  0  0
   26.4202  -21.4574  -16.5051 C   0  0  0  0  0  0  0  0  0  0  0  0
   26.5770  -22.3941  -15.3262 C   0  0  2  0  0  0  0  0  0  0  0  0
   26.7028  -23.7318  -15.9150 N   0  0  0  0  0  0  0  0  0  0  0  0
   25.4129  -22.3649  -14.4272 C   0  0  0  0  0  0  0  0  0  0  0  0
   24.4402  -23.1205  -14.6826 O   0  0  0  0  0  0  0  0  0  0  0  0
   25.3213  -21.5320  -13.2843 N   0  0  0  0  0  0  0  0  0  0  0  0
   26.2910  -20.5721  -12.7768 C   0  0  0  0  0  0  0  0  0  0  0  0
   26.2764  -20.9161  -11.2805 C   0  0  0  0  0  0  0  0  0  0  0  0
   24.7598  -20.9541  -11.0488 C   0  0  0  0  0  0  0  0  0  0  0  0
   24.2104  -21.4662  -12.3546 C   0  0  1  0  0  0  0  0  0  0  0  0
   23.2014  -20.4821  -12.8404 C   0  0  0  0  0  0  0  0  0  0  0  0
   23.5105  -19.3773  -13.3541 O   0  0  0  0  0  0  0  0  0  0  0  0
   21.8233  -20.7850  -12.7281 N   0  0  0  0  0  0  0  0  0  0  0  0
   20.7950  -19.8861  -13.2792 C   0  0  1  0  0  0  0  0  0  0  0  0
   19.9852  -20.5919  -14.3194 C   0  0  0  0  0  0  0  0  0  0  0  0
   18.9002  -19.8182  -14.9597 C   0  0  0  0  0  0  0  0  0  0  0  0
   17.9939  -20.5368  -15.8884 C   0  0  0  0  0  0  0  0  0  0  0  0
   17.0245  -19.6010  -16.5994 C   0  0  0  0  0  0  0  0  0  0  0  0
   16.1580  -20.3945  -17.4258 N   0  0  0  0  0  0  0  0  0  0  0  0
   20.0784  -19.2729  -12.1689 C   0  0  0  0  0  0  0  0  0  0  0  0
   19.9392  -19.8078  -11.0474 O   0  0  0  0  0  0  0  0  0  0  0  0
   19.4888  -18.0103  -12.3108 O   0  0  0  0  0  0  0  0  0  0  0  0
  2  1  1  0
  3  2  2  0
  4  2  1  0
  5  4  1  0
  6  8  1  0
  6  5  1  0
  6  7  1  6
  8  9  2  0
  8 10  1  0
 10 14  1  0
 10 11  1  0
 12 11  1  0
 13 14  1  0
 13 12  1  0
 15 17  1  0
 14 15  1  6
 16 15  2  0
 18 17  1  0
 18 19  1  6
 20 19  1  0
 21 20  1  0
 22 21  1  0
 23 22  1  0
 24 18  1  0
 25 24  2  0
 26 24  1  0
M  END
$$$$
