QPK.pdb
     RDKit          3D

 26 26  0  0  1  0  0  0  0  0999 V2000
   29.2867  -20.8875  -15.9956 N   0  0  0  0  0  0  0  0  0  0  0  0
   28.3702  -20.0450  -16.6618 C   0  0  0  0  0  0  0  0  0  0  0  0
   28.6479  -19.7086  -17.8418 O   0  0  0  0  0  0  0  0  0  0  0  0
   27.1237  -19.5582  -16.0285 C   0  0  0  0  0  0  0  0  0  0  0  0
   27.1745  -19.8329  -14.5278 C   0  0  0  0  0  0  0  0  0  0  0  0
   26.9278  -21.3031  -14.2645 C   0  0  2  0  0  0  0  0  0  0  0  0
   26.8885  -21.9277  -15.5913 N   0  0  0  0  0  0  0  0  0  0  0  0
   25.6507  -21.5434  -13.5748 C   0  0  0  0  0  0  0  0  0  0  0  0
   24.7834  -22.2500  -14.1501 O   0  0  0  0  0  0  0  0  0  0  0  0
   25.3374  -21.0239  -12.2941 N   0  0  0  0  0  0  0  0  0  0  0  0
   26.1402  -20.1602  -11.4404 C   0  0  0  0  0  0  0  0  0  0  0  0
   25.9701  -20.8612  -10.0850 C   0  0  0  0  0  0  0  0  0  0  0  0
   24.4469  -21.0484  -10.0912 C   0  0  0  0  0  0  0  0  0  0  0  0
   24.1172  -21.2570  -11.5462 C   0  0  1  0  0  0  0  0  0  0  0  0
   23.0886  -20.2479  -11.9284 C   0  0  0  0  0  0  0  0  0  0  0  0
   23.3689  -19.0592  -12.2257 O   0  0  0  0  0  0  0  0  0  0  0  0
   21.7244  -20.6238  -11.9652 N   0  0  0  0  0  0  0  0  0  0  0  0
   20.7392  -19.8533  -12.7428 C   0  0  1  0  0  0  0  0  0  0  0  0
   20.8438  -20.1858  -14.1969 C   0  0  0  0  0  0  0  0  0  0  0  0
   21.3309  -19.1157  -15.0933 C   0  0  0  0  0  0  0  0  0  0  0  0
   21.3754  -19.3998  -16.5485 C   0  0  0  0  0  0  0  0  0  0  0  0
   21.9340  -18.2339  -17.3545 C   0  0  0  0  0  0  0  0  0  0  0  0
   21.9116  -18.5963  -18.7443 N   0  0  0  0  0  0  0  0  0  0  0  0
   19.4359  -20.0030  -12.1094 C   0  0  0  0  0  0  0  0  0  0  0  0
   19.0568  -21.0442  -11.5303 O   0  0  0  0  0  0  0  0  0  0  0  0
   18.5119  -18.9504  -12.1212 O   0  0  0  0  0  0  0  0  0  0  0  0
  2  1  1  0
  3  2  2  0
  4  2  1  0
  5  4  1  0
  6  8  1  0
  6  5  1  0
  6  7  1  6
  8  9  2  0
  8 10  1  0
 10 14  1  0
 10 11  1  0
 12 11  1  0
 13 14  1  0
 13 12  1  0
 15 17  1  0
 14 15  1  6
 16 15  2  0
 18 17  1  0
 18 19  1  6
 20 19  1  0
 21 20  1  0
 22 21  1  0
 23 22  1  0
 24 18  1  0
 25 24  2  0
 26 24  1  0
M  END
$$$$
