QPK.pdb
     RDKit          3D

 26 26  0  0  1  0  0  0  0  0999 V2000
   13.4401  -13.5379  -18.0119 N   0  0  0  0  0  0  0  0  0  0  0  0
   14.7364  -13.0273  -18.2412 C   0  0  0  0  0  0  0  0  0  0  0  0
   15.2940  -13.3340  -19.3264 O   0  0  0  0  0  0  0  0  0  0  0  0
   15.4406  -12.1635  -17.2667 C   0  0  0  0  0  0  0  0  0  0  0  0
   15.7137  -12.9543  -15.9898 C   0  0  0  0  0  0  0  0  0  0  0  0
   17.2051  -13.1386  -15.8071 C   0  0  2  0  0  0  0  0  0  0  0  0
   17.3429  -14.3399  -14.9766 N   0  0  0  0  0  0  0  0  0  0  0  0
   17.8321  -11.9977  -15.1217 C   0  0  0  0  0  0  0  0  0  0  0  0
   17.6686  -11.8822  -13.8799 O   0  0  0  0  0  0  0  0  0  0  0  0
   18.6134  -11.0160  -15.7804 N   0  0  0  0  0  0  0  0  0  0  0  0
   18.9575  -10.9221  -17.1918 C   0  0  0  0  0  0  0  0  0  0  0  0
   20.4562  -10.6014  -17.0992 C   0  0  0  0  0  0  0  0  0  0  0  0
   20.4064   -9.4804  -16.0522 C   0  0  0  0  0  0  0  0  0  0  0  0
   19.2542   -9.8705  -15.1637 C   0  0  1  0  0  0  0  0  0  0  0  0
   18.3046   -8.7220  -15.1202 C   0  0  0  0  0  0  0  0  0  0  0  0
   17.3911   -8.5529  -15.9668 O   0  0  0  0  0  0  0  0  0  0  0  0
   18.4184   -7.7636  -14.0849 N   0  0  0  0  0  0  0  0  0  0  0  0
   17.5320   -6.5887  -14.0292 C   0  0  1  0  0  0  0  0  0  0  0  0
   17.2423   -6.2179  -12.6098 C   0  0  0  0  0  0  0  0  0  0  0  0
   16.4731   -7.1935  -11.8084 C   0  0  0  0  0  0  0  0  0  0  0  0
   16.1862   -6.8528  -10.3936 C   0  0  0  0  0  0  0  0  0  0  0  0
   15.3717   -7.9291   -9.6871 C   0  0  0  0  0  0  0  0  0  0  0  0
   15.2185   -7.5464   -8.3110 N   0  0  0  0  0  0  0  0  0  0  0  0
   18.0835   -5.5560  -14.8962 C   0  0  0  0  0  0  0  0  0  0  0  0
   19.3054   -5.4089  -15.1166 O   0  0  0  0  0  0  0  0  0  0  0  0
   17.2408   -4.6454  -15.5461 O   0  0  0  0  0  0  0  0  0  0  0  0
  2  1  1  0
  3  2  2  0
  4  2  1  0
  5  4  1  0
  6  8  1  0
  6  5  1  0
  6  7  1  1
  8  9  2  0
  8 10  1  0
 10 14  1  0
 10 11  1  0
 12 11  1  0
 13 14  1  0
 13 12  1  0
 15 17  1  0
 14 15  1  6
 16 15  2  0
 18 17  1  0
 18 19  1  1
 20 19  1  0
 21 20  1  0
 22 21  1  0
 23 22  1  0
 24 18  1  0
 25 24  2  0
 26 24  1  0
M  END
$$$$
