QPK.pdb
     RDKit          3D

 26 26  0  0  1  0  0  0  0  0999 V2000
   11.6264  -15.2319    2.2766 N   0  0  0  0  0  0  0  0  0  0  0  0
   11.6498  -16.4254    3.0309 C   0  0  0  0  0  0  0  0  0  0  0  0
   11.0887  -16.4078    4.1567 O   0  0  0  0  0  0  0  0  0  0  0  0
   12.2987  -17.6652    2.5478 C   0  0  0  0  0  0  0  0  0  0  0  0
   13.5085  -17.9811    3.4235 C   0  0  0  0  0  0  0  0  0  0  0  0
   14.2142  -19.2145    2.9016 C   0  0  2  0  0  0  0  0  0  0  0  0
   13.3131  -20.3300    3.2105 N   0  0  0  0  0  0  0  0  0  0  0  0
   15.5112  -19.4394    3.5585 C   0  0  0  0  0  0  0  0  0  0  0  0
   15.5618  -20.2453    4.5231 O   0  0  0  0  0  0  0  0  0  0  0  0
   16.7135  -18.7993    3.1674 N   0  0  0  0  0  0  0  0  0  0  0  0
   16.9348  -17.8699    2.0691 C   0  0  0  0  0  0  0  0  0  0  0  0
   18.2285  -18.4397    1.4697 C   0  0  0  0  0  0  0  0  0  0  0  0
   19.0463  -18.6078    2.7574 C   0  0  0  0  0  0  0  0  0  0  0  0
   18.0111  -18.9468    3.7979 C   0  0  1  0  0  0  0  0  0  0  0  0
   18.1473  -17.9650    4.9114 C   0  0  0  0  0  0  0  0  0  0  0  0
   17.7463  -16.7763    4.8328 O   0  0  0  0  0  0  0  0  0  0  0  0
   18.7542  -18.3684    6.1249 N   0  0  0  0  0  0  0  0  0  0  0  0
   18.9211  -17.4284    7.2464 C   0  0  1  0  0  0  0  0  0  0  0  0
   18.1894  -17.9193    8.4546 C   0  0  0  0  0  0  0  0  0  0  0  0
   18.2283  -17.0570    9.6550 C   0  0  0  0  0  0  0  0  0  0  0  0
   17.6112  -17.5766   10.8997 C   0  0  0  0  0  0  0  0  0  0  0  0
   17.7207  -16.5952   12.0597 C   0  0  0  0  0  0  0  0  0  0  0  0
   16.9924  -17.1338   13.1746 N   0  0  0  0  0  0  0  0  0  0  0  0
   20.3404  -17.1342    7.3915 C   0  0  0  0  0  0  0  0  0  0  0  0
   20.7873  -16.1186    7.9678 O   0  0  0  0  0  0  0  0  0  0  0  0
   21.3063  -18.0056    6.8722 O   0  0  0  0  0  0  0  0  0  0  0  0
  2  1  1  0
  3  2  2  0
  4  2  1  0
  5  4  1  0
  6  8  1  0
  6  5  1  0
  6  7  1  1
  8  9  2  0
  8 10  1  0
 10 14  1  0
 10 11  1  0
 12 11  1  0
 13 14  1  0
 13 12  1  0
 15 17  1  0
 14 15  1  1
 16 15  2  0
 18 17  1  0
 18 19  1  1
 20 19  1  0
 21 20  1  0
 22 21  1  0
 23 22  1  0
 24 18  1  0
 25 24  2  0
 26 24  1  0
M  END
$$$$
