QPK.pdb
     RDKit          3D

 26 26  0  0  1  0  0  0  0  0999 V2000
   15.6828   -8.5359  -17.7357 N   0  0  0  0  0  0  0  0  0  0  0  0
   16.9390   -8.5727  -18.3793 C   0  0  0  0  0  0  0  0  0  0  0  0
   16.9551   -8.3946  -19.6245 O   0  0  0  0  0  0  0  0  0  0  0  0
   18.2056   -8.8088  -17.6501 C   0  0  0  0  0  0  0  0  0  0  0  0
   17.9195   -8.9169  -16.1546 C   0  0  0  0  0  0  0  0  0  0  0  0
   19.1419   -9.4429  -15.4329 C   0  0  2  0  0  0  0  0  0  0  0  0
   19.1474  -10.8866  -15.6929 N   0  0  0  0  0  0  0  0  0  0  0  0
   19.0810   -9.2093  -13.9817 C   0  0  0  0  0  0  0  0  0  0  0  0
   18.5503  -10.0888  -13.2556 O   0  0  0  0  0  0  0  0  0  0  0  0
   19.5874   -8.0466  -13.3493 N   0  0  0  0  0  0  0  0  0  0  0  0
   20.2033   -6.8752  -13.9555 C   0  0  0  0  0  0  0  0  0  0  0  0
   21.4140   -6.6793  -13.0317 C   0  0  0  0  0  0  0  0  0  0  0  0
   20.7105   -6.7923  -11.6725 C   0  0  0  0  0  0  0  0  0  0  0  0
   19.6004   -7.7789  -11.9242 C   0  0  1  0  0  0  0  0  0  0  0  0
   18.3187   -7.1344  -11.5185 C   0  0  0  0  0  0  0  0  0  0  0  0
   17.7020   -6.3141  -12.2441 O   0  0  0  0  0  0  0  0  0  0  0  0
   17.7505   -7.4462  -10.2602 N   0  0  0  0  0  0  0  0  0  0  0  0
   16.4330   -6.9202   -9.8642 C   0  0  1  0  0  0  0  0  0  0  0  0
   15.5087   -8.0393   -9.5046 C   0  0  0  0  0  0  0  0  0  0  0  0
   14.1945   -7.6647   -8.9403 C   0  0  0  0  0  0  0  0  0  0  0  0
   13.2921   -8.7584   -8.5046 C   0  0  0  0  0  0  0  0  0  0  0  0
   12.0366   -8.2400   -7.8148 C   0  0  0  0  0  0  0  0  0  0  0  0
   11.2329   -9.3687   -7.4362 N   0  0  0  0  0  0  0  0  0  0  0  0
   16.6364   -5.8700   -8.8752 C   0  0  0  0  0  0  0  0  0  0  0  0
   15.8240   -4.9433   -8.6640 O   0  0  0  0  0  0  0  0  0  0  0  0
   17.7939   -5.8470   -8.0869 O   0  0  0  0  0  0  0  0  0  0  0  0
  2  1  1  0
  3  2  2  0
  4  2  1  0
  5  4  1  0
  6  8  1  0
  6  5  1  0
  6  7  1  1
  8  9  2  0
  8 10  1  0
 10 14  1  0
 10 11  1  0
 12 11  1  0
 13 14  1  0
 13 12  1  0
 15 17  1  0
 14 15  1  6
 16 15  2  0
 18 17  1  0
 18 19  1  1
 20 19  1  0
 21 20  1  0
 22 21  1  0
 23 22  1  0
 24 18  1  0
 25 24  2  0
 26 24  1  0
M  END
$$$$
