KNL.pdb
     RDKit          3D

 26 25  0  0  1  0  0  0  0  0999 V2000
   21.8657  -20.1152  -18.4790 N   0  0  0  0  0  0  0  0  0  0  0  0
   21.0905  -19.6627  -19.5783 C   0  0  1  0  0  0  0  0  0  0  0  0
   20.0009  -20.6076  -20.0479 C   0  0  0  0  0  0  0  0  0  0  0  0
   20.4471  -21.7180  -20.9252 C   0  0  0  0  0  0  0  0  0  0  0  0
   21.6123  -21.3858  -21.7828 C   0  0  0  0  0  0  0  0  0  0  0  0
   21.9580  -22.4502  -22.7568 C   0  0  0  0  0  0  0  0  0  0  0  0
   20.8835  -23.0755  -23.4563 N   0  0  0  0  0  0  0  0  0  0  0  0
   20.3781  -18.4078  -19.1882 C   0  0  0  0  0  0  0  0  0  0  0  0
   19.4646  -17.9956  -19.9285 O   0  0  0  0  0  0  0  0  0  0  0  0
   19.4636  -18.7693  -16.4616 N   0  0  0  0  0  0  0  0  0  0  0  0
   19.8123  -17.7600  -15.5014 C   0  0  0  0  0  0  0  0  0  0  0  0
   19.8119  -18.0292  -14.2764 O   0  0  0  0  0  0  0  0  0  0  0  0
   20.1640  -16.4208  -16.0501 C   0  0  0  0  0  0  0  0  0  0  0  0
   20.1500  -16.5242  -17.5653 C   0  0  2  0  0  0  0  0  0  0  0  0
   20.7882  -17.7638  -17.9968 N   0  0  0  0  0  0  0  0  0  0  0  0
   20.9863  -15.4170  -18.0955 C   0  0  0  0  0  0  0  0  0  0  0  0
   22.2591  -15.4983  -18.0706 O   0  0  0  0  0  0  0  0  0  0  0  0
   21.9166  -12.9560  -23.0080 C   0  0  0  0  0  0  0  0  0  0  0  0
   22.0528  -12.5145  -21.5841 C   0  0  1  0  0  0  0  0  0  0  0  0
   21.7296  -11.0196  -21.4847 C   0  0  0  0  0  0  0  0  0  0  0  0
   21.2975  -13.3220  -20.6288 C   0  0  0  0  0  0  0  0  0  0  0  0
   21.3804  -13.1464  -19.1666 C   0  0  2  0  0  0  0  0  0  0  0  0
   20.4784  -14.2379  -18.6479 N   0  0  0  0  0  0  0  0  0  0  0  0
   20.9542  -11.8810  -18.6209 C   0  0  0  0  0  0  0  0  0  0  0  0
   19.6783  -11.8152  -17.9775 O   0  0  0  0  0  0  0  0  0  0  0  0
   21.5529  -10.7812  -18.6225 O   0  0  0  0  0  0  0  0  0  0  0  0
  2  1  1  1
  2  3  1  0
  3  4  1  0
  5  6  1  0
  5  4  1  0
  7  6  1  0
  8  2  1  0
  9  8  2  0
 10 11  1  0
 11 13  1  0
 12 11  2  0
 14 13  1  1
 14 15  1  0
 15  8  1  0
 16 14  1  0
 16 17  2  0
 19 21  1  0
 19 18  1  6
 20 19  1  0
 22 21  1  6
 22 23  1  0
 23 16  1  0
 24 22  1  0
 25 24  1  0
 26 24  2  0
M  END
$$$$
