KNL.pdb
     RDKit          3D

 26 25  0  0  1  0  0  0  0  0999 V2000
   25.8647  -22.0443  -14.4004 N   0  0  0  0  0  0  0  0  0  0  0  0
   26.8783  -21.1296  -14.0130 C   0  0  1  0  0  0  0  0  0  0  0  0
   27.1598  -20.0064  -14.9926 C   0  0  0  0  0  0  0  0  0  0  0  0
   27.4727  -20.4273  -16.3807 C   0  0  0  0  0  0  0  0  0  0  0  0
   28.6468  -21.3285  -16.4936 C   0  0  0  0  0  0  0  0  0  0  0  0
   28.9498  -21.7407  -17.8863 C   0  0  0  0  0  0  0  0  0  0  0  0
   30.1052  -22.5507  -18.0955 N   0  0  0  0  0  0  0  0  0  0  0  0
   26.4634  -20.4501  -12.7479 C   0  0  0  0  0  0  0  0  0  0  0  0
   27.0254  -19.3807  -12.4430 O   0  0  0  0  0  0  0  0  0  0  0  0
   22.0153  -20.9847  -12.6283 N   0  0  0  0  0  0  0  0  0  0  0  0
   22.6431  -20.1206  -11.6683 C   0  0  0  0  0  0  0  0  0  0  0  0
   22.4996  -18.8774  -11.7514 O   0  0  0  0  0  0  0  0  0  0  0  0
   23.4446  -20.7879  -10.6050 C   0  0  0  0  0  0  0  0  0  0  0  0
   24.8972  -20.3916  -10.8043 C   0  0  2  0  0  0  0  0  0  0  0  0
   25.4535  -21.0672  -11.9723 N   0  0  0  0  0  0  0  0  0  0  0  0
   25.6601  -20.8889   -9.6310 C   0  0  0  0  0  0  0  0  0  0  0  0
   25.7743  -22.1413   -9.4168 O   0  0  0  0  0  0  0  0  0  0  0  0
   29.5461  -20.5086   -5.5359 C   0  0  0  0  0  0  0  0  0  0  0  0
   28.4279  -19.5213   -5.6628 C   0  0  1  0  0  0  0  0  0  0  0  0
   28.9339  -18.1299   -5.2670 C   0  0  0  0  0  0  0  0  0  0  0  0
   27.7598  -19.5326   -6.9622 C   0  0  0  0  0  0  0  0  0  0  0  0
   26.8570  -20.6114   -7.4064 C   0  0  2  0  0  0  0  0  0  0  0  0
   26.2966  -20.0673   -8.6963 N   0  0  0  0  0  0  0  0  0  0  0  0
   25.7680  -20.9726   -6.5324 C   0  0  0  0  0  0  0  0  0  0  0  0
   26.0357  -21.8684   -5.4497 O   0  0  0  0  0  0  0  0  0  0  0  0
   24.5704  -20.6088   -6.5748 O   0  0  0  0  0  0  0  0  0  0  0  0
  2  1  1  6
  2  3  1  0
  3  4  1  0
  5  6  1  0
  5  4  1  0
  7  6  1  0
  8  2  1  0
  9  8  2  0
 10 11  1  0
 11 13  1  0
 12 11  2  0
 14 13  1  1
 14 15  1  0
 15  8  1  0
 16 14  1  0
 16 17  2  0
 19 21  1  0
 19 18  1  6
 20 19  1  0
 22 21  1  1
 22 23  1  0
 23 16  1  0
 24 22  1  0
 25 24  1  0
 26 24  2  0
M  END
$$$$
