KNL.pdb
     RDKit          3D

 26 25  0  0  1  0  0  0  0  0999 V2000
   17.9834  -11.5208  -17.9655 N   0  0  0  0  0  0  0  0  0  0  0  0
   17.3363  -10.5476  -17.1604 C   0  0  1  0  0  0  0  0  0  0  0  0
   16.1094  -11.0268  -16.4082 C   0  0  0  0  0  0  0  0  0  0  0  0
   15.3642  -12.1441  -17.0390 C   0  0  0  0  0  0  0  0  0  0  0  0
   15.6646  -13.4785  -16.4623 C   0  0  0  0  0  0  0  0  0  0  0  0
   14.8425  -14.5734  -17.0337 C   0  0  0  0  0  0  0  0  0  0  0  0
   15.3434  -15.2348  -18.1941 N   0  0  0  0  0  0  0  0  0  0  0  0
   18.2849  -10.0807  -16.1038 C   0  0  0  0  0  0  0  0  0  0  0  0
   17.9465  -10.2081  -14.9115 O   0  0  0  0  0  0  0  0  0  0  0  0
   22.2616   -8.2157  -13.8500 N   0  0  0  0  0  0  0  0  0  0  0  0
   22.7815   -9.2025  -14.7546 C   0  0  0  0  0  0  0  0  0  0  0  0
   23.9792   -9.5652  -14.6704 O   0  0  0  0  0  0  0  0  0  0  0  0
   21.8258   -9.7442  -15.7604 C   0  0  0  0  0  0  0  0  0  0  0  0
   20.4909   -9.0513  -15.5491 C   0  0  2  0  0  0  0  0  0  0  0  0
   19.5137   -9.5204  -16.5264 N   0  0  0  0  0  0  0  0  0  0  0  0
   20.6916   -7.6047  -15.8199 C   0  0  0  0  0  0  0  0  0  0  0  0
   21.4839   -6.9147  -15.0963 O   0  0  0  0  0  0  0  0  0  0  0  0
   20.7936   -3.3911  -19.6295 C   0  0  0  0  0  0  0  0  0  0  0  0
   19.5371   -3.8329  -18.9461 C   0  0  1  0  0  0  0  0  0  0  0  0
   18.3591   -3.6999  -19.9174 C   0  0  0  0  0  0  0  0  0  0  0  0
   19.6190   -5.1568  -18.3331 C   0  0  0  0  0  0  0  0  0  0  0  0
   20.2346   -5.4099  -17.0167 C   0  0  2  0  0  0  0  0  0  0  0  0
   20.0607   -6.8983  -16.8478 N   0  0  0  0  0  0  0  0  0  0  0  0
   19.6689   -4.7348  -15.8744 C   0  0  0  0  0  0  0  0  0  0  0  0
   20.2933   -3.5305  -15.4206 O   0  0  0  0  0  0  0  0  0  0  0  0
   18.6719   -5.0521  -15.1863 O   0  0  0  0  0  0  0  0  0  0  0  0
  2  1  1  1
  2  3  1  0
  3  4  1  0
  5  6  1  0
  5  4  1  0
  7  6  1  0
  8  2  1  0
  9  8  2  0
 10 11  1  0
 11 13  1  0
 12 11  2  0
 14 13  1  6
 14 15  1  0
 15  8  1  0
 16 14  1  0
 16 17  2  0
 19 21  1  0
 19 18  1  6
 20 19  1  0
 22 21  1  6
 22 23  1  0
 23 16  1  0
 24 22  1  0
 25 24  1  0
 26 24  2  0
M  END
$$$$
