KNL.pdb
     RDKit          3D

 26 25  0  0  1  0  0  0  0  0999 V2000
   13.2864  -22.7828    3.0917 N   0  0  0  0  0  0  0  0  0  0  0  0
   14.4273  -21.9688    2.8682 C   0  0  1  0  0  0  0  0  0  0  0  0
   14.6740  -21.5638    1.4275 C   0  0  0  0  0  0  0  0  0  0  0  0
   14.7899  -22.6799    0.4567 C   0  0  0  0  0  0  0  0  0  0  0  0
   14.9305  -22.2460   -0.9560 C   0  0  0  0  0  0  0  0  0  0  0  0
   14.9978  -23.3710   -1.9209 C   0  0  0  0  0  0  0  0  0  0  0  0
   15.0084  -23.0460   -3.3099 N   0  0  0  0  0  0  0  0  0  0  0  0
   14.2619  -20.6833    3.6128 C   0  0  0  0  0  0  0  0  0  0  0  0
   13.1844  -20.0691    3.4938 O   0  0  0  0  0  0  0  0  0  0  0  0
   13.4011  -19.4530    8.6354 N   0  0  0  0  0  0  0  0  0  0  0  0
   13.6200  -19.5844    7.2221 C   0  0  0  0  0  0  0  0  0  0  0  0
   12.6493  -19.5490    6.4286 O   0  0  0  0  0  0  0  0  0  0  0  0
   15.0339  -19.7562    6.7867 C   0  0  0  0  0  0  0  0  0  0  0  0
   15.1605  -19.1760    5.3888 C   0  0  2  0  0  0  0  0  0  0  0  0
   15.3449  -20.2427    4.4098 N   0  0  0  0  0  0  0  0  0  0  0  0
   16.4006  -18.3593    5.3557 C   0  0  0  0  0  0  0  0  0  0  0  0
   17.5457  -18.9190    5.4092 O   0  0  0  0  0  0  0  0  0  0  0  0
   17.0053  -13.8177    2.4216 C   0  0  0  0  0  0  0  0  0  0  0  0
   17.2520  -15.1252    3.1075 C   0  0  1  0  0  0  0  0  0  0  0  0
   18.3739  -15.8744    2.3803 C   0  0  0  0  0  0  0  0  0  0  0  0
   17.4838  -15.0157    4.5461 C   0  0  0  0  0  0  0  0  0  0  0  0
   17.7020  -16.1776    5.4283 C   0  0  2  0  0  0  0  0  0  0  0  0
   16.4262  -16.9648    5.2648 N   0  0  0  0  0  0  0  0  0  0  0  0
   17.9223  -15.9194    6.8301 C   0  0  0  0  0  0  0  0  0  0  0  0
   19.2366  -15.5447    7.2523 O   0  0  0  0  0  0  0  0  0  0  0  0
   17.1065  -15.9745    7.7786 O   0  0  0  0  0  0  0  0  0  0  0  0
  2  1  1  6
  2  3  1  0
  3  4  1  0
  5  6  1  0
  5  4  1  0
  7  6  1  0
  8  2  1  0
  9  8  2  0
 10 11  1  0
 11 13  1  0
 12 11  2  0
 14 13  1  1
 14 15  1  0
 15  8  1  0
 16 14  1  0
 16 17  2  0
 19 21  1  0
 19 18  1  6
 20 19  1  0
 22 21  1  6
 22 23  1  0
 23 16  1  0
 24 22  1  0
 25 24  1  0
 26 24  2  0
M  END
$$$$
