KNL.pdb
     RDKit          3D

 26 25  0  0  1  0  0  0  0  0999 V2000
   17.9030  -14.2059  -19.6814 N   0  0  0  0  0  0  0  0  0  0  0  0
   17.9882  -13.6436  -18.3812 C   0  0  1  0  0  0  0  0  0  0  0  0
   18.8204  -14.4230  -17.3809 C   0  0  0  0  0  0  0  0  0  0  0  0
   18.2916  -15.7578  -17.0061 C   0  0  0  0  0  0  0  0  0  0  0  0
   18.9875  -16.3874  -15.8560 C   0  0  0  0  0  0  0  0  0  0  0  0
   18.5034  -17.7543  -15.5424 C   0  0  0  0  0  0  0  0  0  0  0  0
   19.2232  -18.4975  -14.5603 N   0  0  0  0  0  0  0  0  0  0  0  0
   18.6417  -12.3023  -18.4724 C   0  0  0  0  0  0  0  0  0  0  0  0
   19.4704  -12.1126  -19.3833 O   0  0  0  0  0  0  0  0  0  0  0  0
   17.6140   -6.5043  -17.1901 N   0  0  0  0  0  0  0  0  0  0  0  0
   18.3678   -7.6041  -17.7237 C   0  0  0  0  0  0  0  0  0  0  0  0
   19.4992   -7.4064  -18.2278 O   0  0  0  0  0  0  0  0  0  0  0  0
   17.7295   -8.9467  -17.6337 C   0  0  0  0  0  0  0  0  0  0  0  0
   18.8388   -9.9823  -17.5712 C   0  0  2  0  0  0  0  0  0  0  0  0
   18.2763  -11.3278  -17.5137 N   0  0  0  0  0  0  0  0  0  0  0  0
   19.5672   -9.7788  -16.2928 C   0  0  0  0  0  0  0  0  0  0  0  0
   19.0358  -10.1185  -15.1840 O   0  0  0  0  0  0  0  0  0  0  0  0
   24.7275  -11.0569  -15.6339 C   0  0  0  0  0  0  0  0  0  0  0  0
   23.3033  -10.8493  -15.2219 C   0  0  1  0  0  0  0  0  0  0  0  0
   23.0277  -11.6393  -13.9379 C   0  0  0  0  0  0  0  0  0  0  0  0
   22.9043   -9.4473  -15.1210 C   0  0  0  0  0  0  0  0  0  0  0  0
   21.5200   -9.0096  -14.8599 C   0  0  2  0  0  0  0  0  0  0  0  0
   20.8458   -9.2233  -16.1917 N   0  0  0  0  0  0  0  0  0  0  0  0
   21.3195   -7.6438  -14.4417 C   0  0  0  0  0  0  0  0  0  0  0  0
   21.0484   -6.6603  -15.4444 O   0  0  0  0  0  0  0  0  0  0  0  0
   21.3469   -7.1621  -13.2861 O   0  0  0  0  0  0  0  0  0  0  0  0
  2  1  1  6
  2  3  1  0
  3  4  1  0
  5  6  1  0
  5  4  1  0
  7  6  1  0
  8  2  1  0
  9  8  2  0
 10 11  1  0
 11 13  1  0
 12 11  2  0
 14 13  1  1
 14 15  1  0
 15  8  1  0
 16 14  1  0
 16 17  2  0
 19 21  1  0
 19 18  1  1
 20 19  1  0
 22 21  1  6
 22 23  1  0
 23 16  1  0
 24 22  1  0
 25 24  1  0
 26 24  2  0
M  END
$$$$
