KNL.pdb
     RDKit          3D

 26 25  0  0  1  0  0  0  0  0999 V2000
   28.8789  -23.9727  -16.7907 N   0  0  0  0  0  0  0  0  0  0  0  0
   27.6666  -23.3908  -17.2443 C   0  0  1  0  0  0  0  0  0  0  0  0
   26.4631  -24.3137  -17.2691 C   0  0  0  0  0  0  0  0  0  0  0  0
   26.6575  -25.6409  -16.6347 C   0  0  0  0  0  0  0  0  0  0  0  0
   26.6842  -26.7752  -17.5918 C   0  0  0  0  0  0  0  0  0  0  0  0
   26.8087  -28.1021  -16.9398 C   0  0  0  0  0  0  0  0  0  0  0  0
   26.9268  -29.2429  -17.7881 N   0  0  0  0  0  0  0  0  0  0  0  0
   27.2862  -22.2771  -16.3227 C   0  0  0  0  0  0  0  0  0  0  0  0
   27.8759  -22.1919  -15.2284 O   0  0  0  0  0  0  0  0  0  0  0  0
   27.6433  -18.8542  -17.2046 N   0  0  0  0  0  0  0  0  0  0  0  0
   26.2977  -18.4229  -17.4608 C   0  0  0  0  0  0  0  0  0  0  0  0
   26.0817  -17.4597  -18.2347 O   0  0  0  0  0  0  0  0  0  0  0  0
   25.2189  -19.1794  -16.7665 C   0  0  0  0  0  0  0  0  0  0  0  0
   25.8793  -20.2541  -15.9205 C   0  0  2  0  0  0  0  0  0  0  0  0
   26.2753  -21.3855  -16.7532 N   0  0  0  0  0  0  0  0  0  0  0  0
   24.8560  -20.7689  -14.9751 C   0  0  0  0  0  0  0  0  0  0  0  0
   23.9659  -21.5929  -15.3704 O   0  0  0  0  0  0  0  0  0  0  0  0
   25.9933  -20.6338   -9.6025 C   0  0  0  0  0  0  0  0  0  0  0  0
   25.5679  -21.1610  -10.9375 C   0  0  1  0  0  0  0  0  0  0  0  0
   25.6987  -22.6879  -10.9437 C   0  0  0  0  0  0  0  0  0  0  0  0
   24.2503  -20.7036  -11.3729 C   0  0  0  0  0  0  0  0  0  0  0  0
   23.7020  -20.9572  -12.7187 C   0  0  2  0  0  0  0  0  0  0  0  0
   24.7786  -20.4155  -13.6250 N   0  0  0  0  0  0  0  0  0  0  0  0
   22.4440  -20.3368  -13.0549 C   0  0  0  0  0  0  0  0  0  0  0  0
   21.2398  -20.9425  -12.5762 O   0  0  0  0  0  0  0  0  0  0  0  0
   22.2311  -19.3044  -13.7309 O   0  0  0  0  0  0  0  0  0  0  0  0
  2  1  1  1
  2  3  1  0
  3  4  1  0
  5  6  1  0
  5  4  1  0
  7  6  1  0
  8  2  1  0
  9  8  2  0
 10 11  1  0
 11 13  1  0
 12 11  2  0
 14 13  1  6
 14 15  1  0
 15  8  1  0
 16 14  1  0
 16 17  2  0
 19 21  1  0
 19 18  1  1
 20 19  1  0
 22 21  1  1
 22 23  1  0
 23 16  1  0
 24 22  1  0
 25 24  1  0
 26 24  2  0
M  END
$$$$
