KNL.pdb
     RDKit          3D

 26 25  0  0  1  0  0  0  0  0999 V2000
   19.3396  -22.2532  -16.8247 N   0  0  0  0  0  0  0  0  0  0  0  0
   20.3607  -21.6474  -16.0472 C   0  0  1  0  0  0  0  0  0  0  0  0
   20.3469  -21.9824  -14.5679 C   0  0  0  0  0  0  0  0  0  0  0  0
   19.0510  -21.7784  -13.8745 C   0  0  0  0  0  0  0  0  0  0  0  0
   17.8602  -22.0710  -14.7111 C   0  0  0  0  0  0  0  0  0  0  0  0
   16.5781  -22.0007  -13.9679 C   0  0  0  0  0  0  0  0  0  0  0  0
   16.2254  -20.7487  -13.3823 N   0  0  0  0  0  0  0  0  0  0  0  0
   21.6915  -22.1152  -16.5415 C   0  0  0  0  0  0  0  0  0  0  0  0
   21.7922  -23.2934  -16.9341 O   0  0  0  0  0  0  0  0  0  0  0  0
   24.1082  -19.1981  -18.3626 N   0  0  0  0  0  0  0  0  0  0  0  0
   23.9137  -20.2859  -19.2798 C   0  0  0  0  0  0  0  0  0  0  0  0
   23.8241  -20.0633  -20.5109 O   0  0  0  0  0  0  0  0  0  0  0  0
   23.8325  -21.6472  -18.6810 C   0  0  0  0  0  0  0  0  0  0  0  0
   24.0263  -21.5045  -17.1814 C   0  0  2  0  0  0  0  0  0  0  0  0
   22.7585  -21.1858  -16.5324 N   0  0  0  0  0  0  0  0  0  0  0  0
   24.9164  -20.3370  -16.9559 C   0  0  0  0  0  0  0  0  0  0  0  0
   24.4690  -19.1488  -17.0794 O   0  0  0  0  0  0  0  0  0  0  0  0
   28.5804  -20.5250  -13.0016 C   0  0  0  0  0  0  0  0  0  0  0  0
   27.5329  -19.9438  -13.8993 C   0  0  1  0  0  0  0  0  0  0  0  0
   26.8918  -18.7335  -13.2115 C   0  0  0  0  0  0  0  0  0  0  0  0
   27.9977  -19.6460  -15.2522 C   0  0  0  0  0  0  0  0  0  0  0  0
   27.1072  -19.2047  -16.3423 C   0  0  2  0  0  0  0  0  0  0  0  0
   26.2653  -20.4286  -16.6014 N   0  0  0  0  0  0  0  0  0  0  0  0
   27.7220  -18.7832  -17.5772 C   0  0  0  0  0  0  0  0  0  0  0  0
   28.1766  -17.4309  -17.6814 O   0  0  0  0  0  0  0  0  0  0  0  0
   27.9294  -19.4453  -18.6197 O   0  0  0  0  0  0  0  0  0  0  0  0
  2  1  1  6
  2  3  1  0
  3  4  1  0
  5  6  1  0
  5  4  1  0
  7  6  1  0
  8  2  1  0
  9  8  2  0
 10 11  1  0
 11 13  1  0
 12 11  2  0
 14 13  1  6
 14 15  1  0
 15  8  1  0
 16 14  1  0
 16 17  2  0
 19 21  1  0
 19 18  1  1
 20 19  1  0
 22 21  1  1
 22 23  1  0
 23 16  1  0
 24 22  1  0
 25 24  1  0
 26 24  2  0
M  END
$$$$
