KNL.pdb
     RDKit          3D

 26 25  0  0  1  0  0  0  0  0999 V2000
   26.5055  -22.7135  -16.5525 N   0  0  0  0  0  0  0  0  0  0  0  0
   27.1221  -21.7331  -15.7324 C   0  0  1  0  0  0  0  0  0  0  0  0
   28.3128  -21.0191  -16.3432 C   0  0  0  0  0  0  0  0  0  0  0  0
   28.5030  -21.2180  -17.8013 C   0  0  0  0  0  0  0  0  0  0  0  0
   29.3715  -22.3700  -18.1505 C   0  0  0  0  0  0  0  0  0  0  0  0
   29.6575  -22.4823  -19.6019 C   0  0  0  0  0  0  0  0  0  0  0  0
   29.1822  -21.4371  -20.4484 N   0  0  0  0  0  0  0  0  0  0  0  0
   26.1310  -20.6548  -15.4334 C   0  0  0  0  0  0  0  0  0  0  0  0
   26.5216  -19.6563  -14.7989 O   0  0  0  0  0  0  0  0  0  0  0  0
   24.3049  -18.5776  -18.9026 N   0  0  0  0  0  0  0  0  0  0  0  0
   23.9538  -18.3606  -17.5270 C   0  0  0  0  0  0  0  0  0  0  0  0
   24.3633  -17.3386  -16.9262 O   0  0  0  0  0  0  0  0  0  0  0  0
   23.0967  -19.4006  -16.8930 C   0  0  0  0  0  0  0  0  0  0  0  0
   23.7774  -19.8400  -15.6084 C   0  0  2  0  0  0  0  0  0  0  0  0
   24.8048  -20.8371  -15.8922 N   0  0  0  0  0  0  0  0  0  0  0  0
   22.7552  -20.5195  -14.7720 C   0  0  0  0  0  0  0  0  0  0  0  0
   22.4499  -21.7393  -14.9869 O   0  0  0  0  0  0  0  0  0  0  0  0
   20.3732  -21.8125  -10.0025 C   0  0  0  0  0  0  0  0  0  0  0  0
   20.3129  -20.3811  -10.4368 C   0  0  1  0  0  0  0  0  0  0  0  0
   20.5515  -19.4740   -9.2247 C   0  0  0  0  0  0  0  0  0  0  0  0
   21.1821  -20.0578  -11.5660 C   0  0  0  0  0  0  0  0  0  0  0  0
   21.0348  -20.6556  -12.9065 C   0  0  2  0  0  0  0  0  0  0  0  0
   22.0662  -19.9129  -13.7181 N   0  0  0  0  0  0  0  0  0  0  0  0
   19.7504  -20.5385  -13.5522 C   0  0  0  0  0  0  0  0  0  0  0  0
   19.4712  -19.3491  -14.2961 O   0  0  0  0  0  0  0  0  0  0  0  0
   18.7981  -21.3516  -13.5641 O   0  0  0  0  0  0  0  0  0  0  0  0
  2  1  1  6
  2  3  1  0
  3  4  1  0
  5  6  1  0
  5  4  1  0
  7  6  1  0
  8  2  1  0
  9  8  2  0
 10 11  1  0
 11 13  1  0
 12 11  2  0
 14 13  1  6
 14 15  1  0
 15  8  1  0
 16 14  1  0
 16 17  2  0
 19 21  1  0
 19 18  1  1
 20 19  1  0
 22 21  1  1
 22 23  1  0
 23 16  1  0
 24 22  1  0
 25 24  1  0
 26 24  2  0
M  END
$$$$
