KNL.pdb
     RDKit          3D

 26 25  0  0  1  0  0  0  0  0999 V2000
   16.2964  -11.4365  -17.2123 N   0  0  0  0  0  0  0  0  0  0  0  0
   17.1979  -11.1790  -16.1469 C   0  0  1  0  0  0  0  0  0  0  0  0
   18.3598  -12.1458  -16.0204 C   0  0  0  0  0  0  0  0  0  0  0  0
   18.0876  -13.5384  -16.4544 C   0  0  0  0  0  0  0  0  0  0  0  0
   17.2976  -14.3355  -15.4828 C   0  0  0  0  0  0  0  0  0  0  0  0
   17.0174  -15.7201  -15.9361 C   0  0  0  0  0  0  0  0  0  0  0  0
   16.2147  -16.5397  -15.0884 N   0  0  0  0  0  0  0  0  0  0  0  0
   17.8257   -9.8383  -16.3533 C   0  0  0  0  0  0  0  0  0  0  0  0
   18.4923   -9.6542  -17.3897 O   0  0  0  0  0  0  0  0  0  0  0  0
   16.4397   -6.9013  -17.4281 N   0  0  0  0  0  0  0  0  0  0  0  0
   16.1689   -6.1996  -16.2047 C   0  0  0  0  0  0  0  0  0  0  0  0
   15.2088   -5.3951  -16.1394 O   0  0  0  0  0  0  0  0  0  0  0  0
   17.0786   -6.4908  -15.0619 C   0  0  0  0  0  0  0  0  0  0  0  0
   18.1127   -7.4956  -15.5391 C   0  0  2  0  0  0  0  0  0  0  0  0
   17.6224   -8.8577  -15.3536 N   0  0  0  0  0  0  0  0  0  0  0  0
   19.3051   -7.3578  -14.6642 C   0  0  0  0  0  0  0  0  0  0  0  0
   19.2531   -7.7100  -13.4392 O   0  0  0  0  0  0  0  0  0  0  0  0
   23.7930   -9.7798  -15.5116 C   0  0  0  0  0  0  0  0  0  0  0  0
   22.6803   -9.1064  -14.7702 C   0  0  1  0  0  0  0  0  0  0  0  0
   22.6296   -9.6443  -13.3360 C   0  0  0  0  0  0  0  0  0  0  0  0
   22.7164   -7.6467  -14.8268 C   0  0  0  0  0  0  0  0  0  0  0  0
   21.7276   -6.7795  -14.1587 C   0  0  2  0  0  0  0  0  0  0  0  0
   20.5393   -6.8540  -15.0842 N   0  0  0  0  0  0  0  0  0  0  0  0
   22.0826   -5.3964  -13.9548 C   0  0  0  0  0  0  0  0  0  0  0  0
   22.9563   -5.0735  -12.8693 O   0  0  0  0  0  0  0  0  0  0  0  0
   21.7297   -4.3883  -14.6086 O   0  0  0  0  0  0  0  0  0  0  0  0
  2  1  1  6
  2  3  1  0
  3  4  1  0
  5  6  1  0
  5  4  1  0
  7  6  1  0
  8  2  1  0
  9  8  2  0
 10 11  1  0
 11 13  1  0
 12 11  2  0
 14 13  1  1
 14 15  1  0
 15  8  1  0
 16 14  1  0
 16 17  2  0
 19 21  1  0
 19 18  1  1
 20 19  1  0
 22 21  1  6
 22 23  1  0
 23 16  1  0
 24 22  1  0
 25 24  1  0
 26 24  2  0
M  END
$$$$
