FGR.pdb
     RDKit          3D

 27 27  0  0  1  0  0  0  0  0999 V2000
    9.0876  -17.1884   25.8621 N   0  0  0  0  0  0  0  0  0  0  0  0
    7.7226  -17.0085   26.3178 C   0  0  1  0  0  0  0  0  0  0  0  0
    7.5234  -15.6450   26.9405 C   0  0  0  0  0  0  0  0  0  0  0  0
    8.7144  -15.1953   27.7204 C   0  0  0  0  0  0  0  0  0  0  0  0
    9.1771  -15.9518   28.7708 C   0  0  0  0  0  0  0  0  0  0  0  0
   10.2746  -15.5574   29.5039 C   0  0  0  0  0  0  0  0  0  0  0  0
   10.9635  -14.3807   29.2172 C   0  0  0  0  0  0  0  0  0  0  0  0
   10.4667  -13.6541   28.1580 C   0  0  0  0  0  0  0  0  0  0  0  0
    9.3739  -14.0314   27.4158 C   0  0  0  0  0  0  0  0  0  0  0  0
    6.8471  -17.0663   25.1185 C   0  0  0  0  0  0  0  0  0  0  0  0
    5.9345  -16.1860   25.0482 O   0  0  0  0  0  0  0  0  0  0  0  0
    6.9741  -18.0222   24.0826 N   0  0  0  0  0  0  0  0  0  0  0  0
    7.1228  -17.7177   22.7042 C   0  0  0  0  0  0  0  0  0  0  0  0
    8.5182  -17.6307   22.2136 C   0  0  0  0  0  0  0  0  0  0  0  0
    9.4257  -18.3641   22.7485 O   0  0  0  0  0  0  0  0  0  0  0  0
    7.8349  -13.0324   16.7304 N   0  0  0  0  0  0  0  0  0  0  0  0
    7.8174  -13.2969   18.1186 C   0  0  0  0  0  0  0  0  0  0  0  0
    7.2309  -12.4641   18.9423 N   0  0  0  0  0  0  0  0  0  0  0  0
    8.4564  -14.4859   18.5642 N   0  0  0  0  0  0  0  0  0  0  0  0
    9.0691  -15.3519   17.6018 C   0  0  0  0  0  0  0  0  0  0  0  0
    9.6379  -16.5754   18.3224 C   0  0  0  0  0  0  0  0  0  0  0  0
   10.4958  -16.0598   19.4251 C   0  0  0  0  0  0  0  0  0  0  0  0
   10.3696  -16.7880   20.7289 C   0  0  2  0  0  0  0  0  0  0  0  0
    8.9636  -16.7859   21.1700 N   0  0  0  0  0  0  0  0  0  0  0  0
   11.2398  -16.2592   21.8047 C   0  0  0  0  0  0  0  0  0  0  0  0
   10.7189  -15.6359   22.7919 O   0  0  0  0  0  0  0  0  0  0  0  0
   12.6158  -16.3824   21.8418 O   0  0  0  0  0  0  0  0  0  0  0  0
  2  1  1  6
  3  2  1  0
  4  3  1  0
  5  4  2  0
  6  5  1  0
  7  6  2  0
  7  8  1  0
  8  9  2  0
  9  4  1  0
 10  2  1  0
 10 12  1  0
 11 10  2  0
 13 12  1  0
 14 13  1  0
 15 14  2  0
 16 17  1  0
 17 19  1  0
 17 18  2  0
 19 20  1  0
 20 21  1  0
 21 22  1  0
 23 22  1  6
 23 25  1  0
 23 24  1  0
 24 14  1  0
 25 27  1  0
 26 25  2  0
M  END
$$$$
