FGR.pdb
     RDKit          3D

 27 27  0  0  1  0  0  0  0  0999 V2000
    9.3437  -14.6985   23.9685 N   0  0  0  0  0  0  0  0  0  0  0  0
    8.0152  -15.0929   23.5411 C   0  0  1  0  0  0  0  0  0  0  0  0
    7.0694  -13.9131   23.5181 C   0  0  0  0  0  0  0  0  0  0  0  0
    6.8986  -13.2937   24.8658 C   0  0  0  0  0  0  0  0  0  0  0  0
    6.0465  -13.8612   25.7830 C   0  0  0  0  0  0  0  0  0  0  0  0
    5.8737  -13.3080   27.0327 C   0  0  0  0  0  0  0  0  0  0  0  0
    6.5502  -12.1543   27.4237 C   0  0  0  0  0  0  0  0  0  0  0  0
    7.3929  -11.6193   26.4749 C   0  0  0  0  0  0  0  0  0  0  0  0
    7.5779  -12.1568   25.2242 C   0  0  0  0  0  0  0  0  0  0  0  0
    8.1296  -15.5802   22.1419 C   0  0  0  0  0  0  0  0  0  0  0  0
    7.2889  -16.4627   21.7855 O   0  0  0  0  0  0  0  0  0  0  0  0
    9.0974  -15.1254   21.2148 N   0  0  0  0  0  0  0  0  0  0  0  0
   10.2148  -15.8770   20.7660 C   0  0  0  0  0  0  0  0  0  0  0  0
   11.3018  -16.0629   21.7556 C   0  0  0  0  0  0  0  0  0  0  0  0
   12.0146  -15.0566   22.1116 O   0  0  0  0  0  0  0  0  0  0  0  0
    7.7127  -19.7238   24.4483 N   0  0  0  0  0  0  0  0  0  0  0  0
    7.5411  -18.9047   25.5872 C   0  0  0  0  0  0  0  0  0  0  0  0
    6.3641  -18.4034   25.8689 N   0  0  0  0  0  0  0  0  0  0  0  0
    8.6868  -18.6576   26.3916 N   0  0  0  0  0  0  0  0  0  0  0  0
    9.9819  -19.0024   25.8865 C   0  0  0  0  0  0  0  0  0  0  0  0
   10.5006  -17.8549   25.0183 C   0  0  0  0  0  0  0  0  0  0  0  0
   11.8829  -18.2243   24.6051 C   0  0  0  0  0  0  0  0  0  0  0  0
   12.5004  -17.3358   23.5681 C   0  0  2  0  0  0  0  0  0  0  0  0
   11.6416  -17.2902   22.3715 N   0  0  0  0  0  0  0  0  0  0  0  0
   13.8804  -17.7169   23.1881 C   0  0  0  0  0  0  0  0  0  0  0  0
   14.8698  -17.2677   23.8618 O   0  0  0  0  0  0  0  0  0  0  0  0
   14.2104  -18.5454   22.1324 O   0  0  0  0  0  0  0  0  0  0  0  0
  2  1  1  6
  3  2  1  0
  4  3  1  0
  5  4  2  0
  6  5  1  0
  7  6  2  0
  7  8  1  0
  8  9  2  0
  9  4  1  0
 10  2  1  0
 10 12  1  0
 11 10  2  0
 13 12  1  0
 14 13  1  0
 15 14  2  0
 16 17  1  0
 17 19  1  0
 17 18  2  0
 19 20  1  0
 20 21  1  0
 21 22  1  0
 23 22  1  1
 23 25  1  0
 23 24  1  0
 24 14  1  0
 25 27  1  0
 26 25  2  0
M  END
$$$$
