FGR.pdb
     RDKit          3D

 27 27  0  0  1  0  0  0  0  0999 V2000
    7.4014  -15.9260   25.3687 N   0  0  0  0  0  0  0  0  0  0  0  0
    7.6332  -15.0334   24.2494 C   0  0  1  0  0  0  0  0  0  0  0  0
    8.2933  -13.7481   24.6954 C   0  0  0  0  0  0  0  0  0  0  0  0
    7.4463  -12.9745   25.6510 C   0  0  0  0  0  0  0  0  0  0  0  0
    7.7343  -12.9877   26.9950 C   0  0  0  0  0  0  0  0  0  0  0  0
    6.9676  -12.2809   27.8951 C   0  0  0  0  0  0  0  0  0  0  0  0
    5.8708  -11.5238   27.4884 C   0  0  0  0  0  0  0  0  0  0  0  0
    5.6183  -11.5386   26.1347 C   0  0  0  0  0  0  0  0  0  0  0  0
    6.3715  -12.2372   25.2225 C   0  0  0  0  0  0  0  0  0  0  0  0
    8.5875  -15.7128   23.3351 C   0  0  0  0  0  0  0  0  0  0  0  0
    9.4817  -16.4255   23.8875 O   0  0  0  0  0  0  0  0  0  0  0  0
    8.5520  -15.6097   21.9241 N   0  0  0  0  0  0  0  0  0  0  0  0
    9.5626  -16.0801   21.0453 C   0  0  0  0  0  0  0  0  0  0  0  0
   10.4167  -17.1691   21.5746 C   0  0  0  0  0  0  0  0  0  0  0  0
    9.8849  -18.2908   21.9011 O   0  0  0  0  0  0  0  0  0  0  0  0
   10.7944  -21.6984   26.5203 N   0  0  0  0  0  0  0  0  0  0  0  0
   11.8532  -22.1193   25.6840 C   0  0  0  0  0  0  0  0  0  0  0  0
   13.0224  -22.4138   26.1962 N   0  0  0  0  0  0  0  0  0  0  0  0
   11.5894  -22.2028   24.2897 N   0  0  0  0  0  0  0  0  0  0  0  0
   11.2385  -21.0133   23.5731 C   0  0  0  0  0  0  0  0  0  0  0  0
   12.2913  -20.7516   22.4948 C   0  0  0  0  0  0  0  0  0  0  0  0
   11.8640  -19.5219   21.7716 C   0  0  0  0  0  0  0  0  0  0  0  0
   12.6095  -18.2736   22.1348 C   0  0  2  0  0  0  0  0  0  0  0  0
   11.8168  -17.0893   21.7598 N   0  0  0  0  0  0  0  0  0  0  0  0
   13.9653  -18.1844   21.5448 C   0  0  0  0  0  0  0  0  0  0  0  0
   14.9913  -18.3757   22.2833 O   0  0  0  0  0  0  0  0  0  0  0  0
   14.2344  -17.9033   20.2188 O   0  0  0  0  0  0  0  0  0  0  0  0
  2  1  1  1
  3  2  1  0
  4  3  1  0
  5  4  2  0
  6  5  1  0
  7  6  2  0
  7  8  1  0
  8  9  2  0
  9  4  1  0
 10  2  1  0
 10 12  1  0
 11 10  2  0
 13 12  1  0
 14 13  1  0
 15 14  2  0
 16 17  1  0
 17 19  1  0
 17 18  2  0
 19 20  1  0
 20 21  1  0
 21 22  1  0
 23 22  1  6
 23 25  1  0
 23 24  1  0
 24 14  1  0
 25 27  1  0
 26 25  2  0
M  END
$$$$
