FGR.pdb
     RDKit          3D

 27 27  0  0  1  0  0  0  0  0999 V2000
    7.5448  -14.9511   24.0689 N   0  0  0  0  0  0  0  0  0  0  0  0
    7.3529  -15.6383   25.3315 C   0  0  1  0  0  0  0  0  0  0  0  0
    6.2538  -14.9967   26.1481 C   0  0  0  0  0  0  0  0  0  0  0  0
    6.4765  -13.5348   26.3541 C   0  0  0  0  0  0  0  0  0  0  0  0
    7.6828  -13.0813   26.8324 C   0  0  0  0  0  0  0  0  0  0  0  0
    7.9114  -11.7373   27.0294 C   0  0  0  0  0  0  0  0  0  0  0  0
    6.9369  -10.7798   26.7549 C   0  0  0  0  0  0  0  0  0  0  0  0
    5.7446  -11.2774   26.2779 C   0  0  0  0  0  0  0  0  0  0  0  0
    5.4986  -12.6138   26.0753 C   0  0  0  0  0  0  0  0  0  0  0  0
    6.9051  -17.0199   25.0170 C   0  0  0  0  0  0  0  0  0  0  0  0
    6.5353  -17.7274   26.0045 O   0  0  0  0  0  0  0  0  0  0  0  0
    6.8704  -17.5706   23.7137 N   0  0  0  0  0  0  0  0  0  0  0  0
    7.6659  -18.6572   23.2650 C   0  0  0  0  0  0  0  0  0  0  0  0
    9.1308  -18.4758   23.3941 C   0  0  0  0  0  0  0  0  0  0  0  0
    9.6182  -18.0052   24.4843 O   0  0  0  0  0  0  0  0  0  0  0  0
    8.1298  -12.6379   19.4433 N   0  0  0  0  0  0  0  0  0  0  0  0
    8.0668  -13.7005   18.5135 C   0  0  0  0  0  0  0  0  0  0  0  0
    7.4070  -13.5575   17.3909 N   0  0  0  0  0  0  0  0  0  0  0  0
    8.7400  -14.9054   18.8534 N   0  0  0  0  0  0  0  0  0  0  0  0
    9.3155  -15.0395   20.1581 C   0  0  0  0  0  0  0  0  0  0  0  0
    9.9310  -16.4335   20.2911 C   0  0  0  0  0  0  0  0  0  0  0  0
   10.5228  -16.5095   21.6556 C   0  0  0  0  0  0  0  0  0  0  0  0
   11.1362  -17.8288   22.0150 C   0  0  2  0  0  0  0  0  0  0  0  0
   10.0813  -18.7857   22.3933 N   0  0  0  0  0  0  0  0  0  0  0  0
   12.1577  -17.7504   23.0849 C   0  0  0  0  0  0  0  0  0  0  0  0
   11.7983  -17.8177   24.3100 O   0  0  0  0  0  0  0  0  0  0  0  0
   13.5157  -17.6062   22.8734 O   0  0  0  0  0  0  0  0  0  0  0  0
  2  1  1  6
  3  2  1  0
  4  3  1  0
  5  4  2  0
  6  5  1  0
  7  6  2  0
  7  8  1  0
  8  9  2  0
  9  4  1  0
 10  2  1  0
 10 12  1  0
 11 10  2  0
 13 12  1  0
 14 13  1  0
 15 14  2  0
 16 17  1  0
 17 19  1  0
 17 18  2  0
 19 20  1  0
 20 21  1  0
 21 22  1  0
 23 22  1  1
 23 25  1  0
 23 24  1  0
 24 14  1  0
 25 27  1  0
 26 25  2  0
M  END
$$$$
