FGR.pdb
     RDKit          3D

 27 27  0  0  1  0  0  0  0  0999 V2000
    9.1128  -16.6412   16.5486 N   0  0  0  0  0  0  0  0  0  0  0  0
    9.0544  -15.7591   17.6984 C   0  0  1  0  0  0  0  0  0  0  0  0
    7.7223  -15.0484   17.7821 C   0  0  0  0  0  0  0  0  0  0  0  0
    7.6352  -14.1385   18.9626 C   0  0  0  0  0  0  0  0  0  0  0  0
    6.9372  -14.5254   20.0819 C   0  0  0  0  0  0  0  0  0  0  0  0
    6.8441  -13.7032   21.1832 C   0  0  0  0  0  0  0  0  0  0  0  0
    7.4493  -12.4484   21.2146 C   0  0  0  0  0  0  0  0  0  0  0  0
    8.1377  -12.1012   20.0735 C   0  0  0  0  0  0  0  0  0  0  0  0
    8.2412  -12.9077   18.9660 C   0  0  0  0  0  0  0  0  0  0  0  0
    9.1656  -16.6098   18.9117 C   0  0  0  0  0  0  0  0  0  0  0  0
    8.4788  -17.6779   18.9119 O   0  0  0  0  0  0  0  0  0  0  0  0
    9.9726  -16.3003   20.0324 N   0  0  0  0  0  0  0  0  0  0  0  0
    9.5379  -16.3248   21.3834 C   0  0  0  0  0  0  0  0  0  0  0  0
   10.5431  -15.9060   22.3882 C   0  0  0  0  0  0  0  0  0  0  0  0
   11.7572  -15.7031   22.0246 O   0  0  0  0  0  0  0  0  0  0  0  0
    7.5094  -20.2180   27.6011 N   0  0  0  0  0  0  0  0  0  0  0  0
    7.1505  -20.3447   26.2400 C   0  0  0  0  0  0  0  0  0  0  0  0
    6.0065  -20.8888   25.9065 N   0  0  0  0  0  0  0  0  0  0  0  0
    8.0756  -19.8633   25.2740 N   0  0  0  0  0  0  0  0  0  0  0  0
    9.2344  -19.1456   25.7140 C   0  0  0  0  0  0  0  0  0  0  0  0
    9.0972  -17.6780   25.3056 C   0  0  0  0  0  0  0  0  0  0  0  0
   10.2987  -16.9745   25.8340 C   0  0  0  0  0  0  0  0  0  0  0  0
   11.1431  -16.2872   24.8041 C   0  0  2  0  0  0  0  0  0  0  0  0
   10.2829  -15.6977   23.7629 N   0  0  0  0  0  0  0  0  0  0  0  0
   12.1685  -17.1571   24.1828 C   0  0  0  0  0  0  0  0  0  0  0  0
   11.8235  -18.2768   23.6711 O   0  0  0  0  0  0  0  0  0  0  0  0
   13.5154  -16.8588   24.1015 O   0  0  0  0  0  0  0  0  0  0  0  0
  2  1  1  6
  3  2  1  0
  4  3  1  0
  5  4  2  0
  6  5  1  0
  7  6  2  0
  7  8  1  0
  8  9  2  0
  9  4  1  0
 10  2  1  0
 10 12  1  0
 11 10  2  0
 13 12  1  0
 14 13  1  0
 15 14  2  0
 16 17  1  0
 17 19  1  0
 17 18  2  0
 19 20  1  0
 20 21  1  0
 21 22  1  0
 23 22  1  1
 23 25  1  0
 23 24  1  0
 24 14  1  0
 25 27  1  0
 26 25  2  0
M  END
$$$$
