FGR.pdb
     RDKit          3D

 27 27  0  0  1  0  0  0  0  0999 V2000
    5.6796  -16.0606   25.6218 N   0  0  0  0  0  0  0  0  0  0  0  0
    6.6790  -16.3511   24.6118 C   0  0  1  0  0  0  0  0  0  0  0  0
    7.4834  -15.1198   24.2605 C   0  0  0  0  0  0  0  0  0  0  0  0
    7.3904  -14.0605   25.3085 C   0  0  0  0  0  0  0  0  0  0  0  0
    8.4722  -13.7876   26.1117 C   0  0  0  0  0  0  0  0  0  0  0  0
    8.4100  -12.8143   27.0844 C   0  0  0  0  0  0  0  0  0  0  0  0
    7.2551  -12.0648   27.2989 C   0  0  0  0  0  0  0  0  0  0  0  0
    6.1964  -12.3705   26.4729 C   0  0  0  0  0  0  0  0  0  0  0  0
    6.2399  -13.3375   25.4978 C   0  0  0  0  0  0  0  0  0  0  0  0
    7.6277  -17.3317   25.2006 C   0  0  0  0  0  0  0  0  0  0  0  0
    7.1785  -18.0448   26.1505 O   0  0  0  0  0  0  0  0  0  0  0  0
    8.9646  -17.5063   24.7705 N   0  0  0  0  0  0  0  0  0  0  0  0
    9.7160  -18.7030   24.9050 C   0  0  0  0  0  0  0  0  0  0  0  0
   11.1091  -18.6453   24.4036 C   0  0  0  0  0  0  0  0  0  0  0  0
   11.7405  -19.7354   24.1576 O   0  0  0  0  0  0  0  0  0  0  0  0
    7.0657  -14.5213   19.6755 N   0  0  0  0  0  0  0  0  0  0  0  0
    8.0329  -13.5078   19.8620 C   0  0  0  0  0  0  0  0  0  0  0  0
    7.8568  -12.3216   19.3346 N   0  0  0  0  0  0  0  0  0  0  0  0
    9.1815  -13.8360   20.6326 N   0  0  0  0  0  0  0  0  0  0  0  0
    9.4370  -15.2078   20.9552 C   0  0  0  0  0  0  0  0  0  0  0  0
   10.7582  -15.3027   21.7202 C   0  0  0  0  0  0  0  0  0  0  0  0
   10.9913  -16.7485   21.9905 C   0  0  0  0  0  0  0  0  0  0  0  0
   12.2189  -17.0606   22.7914 C   0  0  2  0  0  0  0  0  0  0  0  0
   11.8380  -17.4581   24.1583 N   0  0  0  0  0  0  0  0  0  0  0  0
   13.2069  -15.9580   22.8401 C   0  0  0  0  0  0  0  0  0  0  0  0
   13.8198  -15.6091   21.7738 O   0  0  0  0  0  0  0  0  0  0  0  0
   13.5399  -15.2434   23.9751 O   0  0  0  0  0  0  0  0  0  0  0  0
  2  1  1  1
  3  2  1  0
  4  3  1  0
  5  4  2  0
  6  5  1  0
  7  6  2  0
  7  8  1  0
  8  9  2  0
  9  4  1  0
 10  2  1  0
 10 12  1  0
 11 10  2  0
 13 12  1  0
 14 13  1  0
 15 14  2  0
 16 17  1  0
 17 19  1  0
 17 18  2  0
 19 20  1  0
 20 21  1  0
 21 22  1  0
 23 22  1  6
 23 25  1  0
 23 24  1  0
 24 14  1  0
 25 27  1  0
 26 25  2  0
M  END
$$$$
