FGR.pdb
     RDKit          3D

 27 27  0  0  1  0  0  0  0  0999 V2000
    8.6293  -16.7341   22.9668 N   0  0  0  0  0  0  0  0  0  0  0  0
    7.2788  -16.2061   22.9401 C   0  0  1  0  0  0  0  0  0  0  0  0
    6.8119  -15.9548   21.5240 C   0  0  0  0  0  0  0  0  0  0  0  0
    7.1817  -14.5934   21.0352 C   0  0  0  0  0  0  0  0  0  0  0  0
    6.9041  -14.2263   19.7400 C   0  0  0  0  0  0  0  0  0  0  0  0
    7.2350  -12.9755   19.2673 C   0  0  0  0  0  0  0  0  0  0  0  0
    7.8629  -12.0291   20.0746 C   0  0  0  0  0  0  0  0  0  0  0  0
    8.1222  -12.4382   21.3638 C   0  0  0  0  0  0  0  0  0  0  0  0
    7.7996  -13.6810   21.8526 C   0  0  0  0  0  0  0  0  0  0  0  0
    6.3869  -17.2497   23.5088 C   0  0  0  0  0  0  0  0  0  0  0  0
    5.1993  -16.8873   23.7752 O   0  0  0  0  0  0  0  0  0  0  0  0
    6.7807  -18.5855   23.7609 N   0  0  0  0  0  0  0  0  0  0  0  0
    8.0676  -18.9875   24.2048 C   0  0  0  0  0  0  0  0  0  0  0  0
    8.2853  -18.9374   25.6696 C   0  0  0  0  0  0  0  0  0  0  0  0
    7.6459  -18.0782   26.3770 O   0  0  0  0  0  0  0  0  0  0  0  0
    7.5077  -24.6936   25.7173 N   0  0  0  0  0  0  0  0  0  0  0  0
    7.5442  -23.6949   24.7179 C   0  0  0  0  0  0  0  0  0  0  0  0
    6.4627  -23.3981   24.0409 N   0  0  0  0  0  0  0  0  0  0  0  0
    8.7880  -23.0455   24.4900 N   0  0  0  0  0  0  0  0  0  0  0  0
    9.9203  -23.4053   25.2898 C   0  0  0  0  0  0  0  0  0  0  0  0
   10.1501  -22.3221   26.3451 C   0  0  0  0  0  0  0  0  0  0  0  0
   10.9640  -21.2585   25.6938 C   0  0  0  0  0  0  0  0  0  0  0  0
   10.5974  -19.8537   26.0653 C   0  0  2  0  0  0  0  0  0  0  0  0
    9.1624  -19.7798   26.3921 N   0  0  0  0  0  0  0  0  0  0  0  0
   10.9353  -18.8464   25.0330 C   0  0  0  0  0  0  0  0  0  0  0  0
   10.2897  -18.8290   23.9297 O   0  0  0  0  0  0  0  0  0  0  0  0
   11.9215  -17.8863   25.1571 O   0  0  0  0  0  0  0  0  0  0  0  0
  2  1  1  6
  3  2  1  0
  4  3  1  0
  5  4  2  0
  6  5  1  0
  7  6  2  0
  7  8  1  0
  8  9  2  0
  9  4  1  0
 10  2  1  0
 10 12  1  0
 11 10  2  0
 13 12  1  0
 14 13  1  0
 15 14  2  0
 16 17  1  0
 17 19  1  0
 17 18  2  0
 19 20  1  0
 20 21  1  0
 21 22  1  0
 23 22  1  6
 23 25  1  0
 23 24  1  0
 24 14  1  0
 25 27  1  0
 26 25  2  0
M  END
$$$$
