NKI.pdb
     RDKit          3D

 26 25  0  0  1  0  0  0  0  0999 V2000
   20.1290  -28.3011  -16.0249 N   0  0  0  0  0  0  0  0  0  0  0  0
   20.3750  -26.9237  -16.2327 C   0  0  0  0  0  0  0  0  0  0  0  0
   19.5269  -26.2537  -16.8655 O   0  0  0  0  0  0  0  0  0  0  0  0
   21.6132  -26.3170  -15.7035 C   0  0  0  0  0  0  0  0  0  0  0  0
   22.1737  -25.3794  -16.7157 C   0  0  2  0  0  0  0  0  0  0  0  0
   23.1874  -26.0032  -17.5332 N   0  0  0  0  0  0  0  0  0  0  0  0
   22.6575  -24.1104  -16.1965 C   0  0  0  0  0  0  0  0  0  0  0  0
   23.8640  -24.0247  -15.8524 O   0  0  0  0  0  0  0  0  0  0  0  0
   21.8194  -22.9433  -16.0566 N   0  0  0  0  0  0  0  0  0  0  0  0
   22.3398  -21.6685  -15.6179 C   0  0  1  0  0  0  0  0  0  0  0  0
   21.4595  -20.5179  -16.0759 C   0  0  0  0  0  0  0  0  0  0  0  0
   22.0324  -19.1856  -15.5852 C   0  0  0  0  0  0  0  0  0  0  0  0
   22.9708  -18.6106  -16.6448 C   0  0  0  0  0  0  0  0  0  0  0  0
   23.5850  -17.3132  -16.1705 C   0  0  0  0  0  0  0  0  0  0  0  0
   24.3511  -16.7568  -17.2452 N   0  0  0  0  0  0  0  0  0  0  0  0
   22.3451  -21.6197  -14.1264 C   0  0  0  0  0  0  0  0  0  0  0  0
   21.3536  -22.1347  -13.5347 O   0  0  0  0  0  0  0  0  0  0  0  0
   27.0044  -21.6078  -11.2273 C   0  0  0  0  0  0  0  0  0  0  0  0
   25.5816  -21.8833  -11.5698 C   0  0  0  0  0  0  0  0  0  0  0  0
   24.6078  -20.8101  -11.3203 C   0  0  2  0  0  0  0  0  0  0  0  0
   24.5565  -20.2941   -9.8973 C   0  0  0  0  0  0  0  0  0  0  0  0
   23.2664  -21.0068  -11.9058 C   0  0  2  0  0  0  0  0  0  0  0  0
   23.3802  -21.0404  -13.3859 N   0  0  0  0  0  0  0  0  0  0  0  0
   22.2243  -20.0312  -11.6184 C   0  0  0  0  0  0  0  0  0  0  0  0
   22.0579  -19.0185  -12.3251 O   0  0  0  0  0  0  0  0  0  0  0  0
   21.3534  -20.1697  -10.5410 O   0  0  0  0  0  0  0  0  0  0  0  0
  2  1  1  0
  2  3  2  0
  4  2  1  0
  5  4  1  0
  5  6  1  1
  7  5  1  0
  7  8  2  0
  9  7  1  0
 10  9  1  0
 10 11  1  6
 11 12  1  0
 13 12  1  0
 13 14  1  0
 15 14  1  0
 16 10  1  0
 17 16  2  0
 18 19  1  0
 19 20  1  0
 20 21  1  1
 22 20  1  0
 22 23  1  6
 23 16  1  0
 24 22  1  0
 25 24  2  0
 26 24  1  0
M  END
$$$$
