NKI.pdb
     RDKit          3D

 26 25  0  0  1  0  0  0  0  0999 V2000
   29.2053  -17.4319  -19.7628 N   0  0  0  0  0  0  0  0  0  0  0  0
   28.0194  -18.1826  -19.5863 C   0  0  0  0  0  0  0  0  0  0  0  0
   27.7809  -19.1195  -20.3826 O   0  0  0  0  0  0  0  0  0  0  0  0
   27.1022  -17.8459  -18.4789 C   0  0  0  0  0  0  0  0  0  0  0  0
   26.4883  -19.0957  -17.9507 C   0  0  2  0  0  0  0  0  0  0  0  0
   25.7102  -19.7856  -18.9526 N   0  0  0  0  0  0  0  0  0  0  0  0
   25.7156  -18.9479  -16.7279 C   0  0  0  0  0  0  0  0  0  0  0  0
   26.2427  -18.3507  -15.7548 O   0  0  0  0  0  0  0  0  0  0  0  0
   24.3720  -19.4537  -16.5768 N   0  0  0  0  0  0  0  0  0  0  0  0
   23.6226  -19.2970  -15.3511 C   0  0  1  0  0  0  0  0  0  0  0  0
   22.1513  -19.6195  -15.5504 C   0  0  0  0  0  0  0  0  0  0  0  0
   21.3776  -19.3861  -14.2500 C   0  0  0  0  0  0  0  0  0  0  0  0
   19.9240  -19.8185  -14.4346 C   0  0  0  0  0  0  0  0  0  0  0  0
   19.1247  -19.5639  -13.1769 C   0  0  0  0  0  0  0  0  0  0  0  0
   17.7742  -19.9816  -13.4078 N   0  0  0  0  0  0  0  0  0  0  0  0
   24.1261  -20.2647  -14.3327 C   0  0  0  0  0  0  0  0  0  0  0  0
   24.1527  -21.4836  -14.6674 O   0  0  0  0  0  0  0  0  0  0  0  0
   28.8001  -20.2696  -12.4182 C   0  0  0  0  0  0  0  0  0  0  0  0
   27.4010  -20.6244  -12.7844 C   0  0  0  0  0  0  0  0  0  0  0  0
   26.4034  -20.6364  -11.7040 C   0  0  2  0  0  0  0  0  0  0  0  0
   26.8116  -21.3776  -10.4478 C   0  0  0  0  0  0  0  0  0  0  0  0
   25.0138  -20.9249  -12.1119 C   0  0  2  0  0  0  0  0  0  0  0  0
   24.5560  -19.8775  -13.0596 N   0  0  0  0  0  0  0  0  0  0  0  0
   23.9818  -20.9997  -11.0874 C   0  0  0  0  0  0  0  0  0  0  0  0
   23.7415  -22.0558  -10.4713 O   0  0  0  0  0  0  0  0  0  0  0  0
   23.2037  -19.9003  -10.7347 O   0  0  0  0  0  0  0  0  0  0  0  0
  2  1  1  0
  2  3  2  0
  4  2  1  0
  5  4  1  0
  5  6  1  6
  7  5  1  0
  7  8  2  0
  9  7  1  0
 10  9  1  0
 10 11  1  6
 11 12  1  0
 13 12  1  0
 13 14  1  0
 15 14  1  0
 16 10  1  0
 17 16  2  0
 18 19  1  0
 19 20  1  0
 20 21  1  1
 22 20  1  0
 22 23  1  6
 23 16  1  0
 24 22  1  0
 25 24  2  0
 26 24  1  0
M  END
$$$$
