NKI.pdb
     RDKit          3D

 26 25  0  0  1  0  0  0  0  0999 V2000
   16.1972  -13.6745  -14.9755 N   0  0  0  0  0  0  0  0  0  0  0  0
   17.5657  -13.6941  -15.3330 C   0  0  0  0  0  0  0  0  0  0  0  0
   18.2325  -14.7259  -15.0892 O   0  0  0  0  0  0  0  0  0  0  0  0
   18.1669  -12.5095  -15.9781 C   0  0  0  0  0  0  0  0  0  0  0  0
   17.1461  -11.4293  -16.0732 C   0  0  2  0  0  0  0  0  0  0  0  0
   16.1390  -11.7180  -17.0669 N   0  0  0  0  0  0  0  0  0  0  0  0
   17.6689  -10.0859  -16.2630 C   0  0  0  0  0  0  0  0  0  0  0  0
   18.7493   -9.9468  -16.8914 O   0  0  0  0  0  0  0  0  0  0  0  0
   17.0076   -8.9034  -15.7647 N   0  0  0  0  0  0  0  0  0  0  0  0
   17.5119   -7.5731  -16.0186 C   0  0  1  0  0  0  0  0  0  0  0  0
   16.4356   -6.5196  -15.8180 C   0  0  0  0  0  0  0  0  0  0  0  0
   15.4044   -6.5952  -16.9471 C   0  0  0  0  0  0  0  0  0  0  0  0
   14.3109   -5.5545  -16.7121 C   0  0  0  0  0  0  0  0  0  0  0  0
   13.2950   -5.5815  -17.8314 C   0  0  0  0  0  0  0  0  0  0  0  0
   12.2414   -4.6671  -17.5071 N   0  0  0  0  0  0  0  0  0  0  0  0
   18.5925   -7.2552  -15.0397 C   0  0  0  0  0  0  0  0  0  0  0  0
   18.3968   -7.6035  -13.8401 O   0  0  0  0  0  0  0  0  0  0  0  0
   22.7736   -9.7156  -15.1557 C   0  0  0  0  0  0  0  0  0  0  0  0
   21.6492   -8.7825  -14.8682 C   0  0  0  0  0  0  0  0  0  0  0  0
   21.9748   -7.3546  -14.7358 C   0  0  2  0  0  0  0  0  0  0  0  0
   23.2372   -7.0430  -13.9591 C   0  0  0  0  0  0  0  0  0  0  0  0
   20.8502   -6.4667  -14.3789 C   0  0  2  0  0  0  0  0  0  0  0  0
   19.7777   -6.6045  -15.3965 N   0  0  0  0  0  0  0  0  0  0  0  0
   21.0940   -5.0358  -14.2630 C   0  0  0  0  0  0  0  0  0  0  0  0
   20.8421   -4.2477  -15.1947 O   0  0  0  0  0  0  0  0  0  0  0  0
   21.6212   -4.4628  -13.1088 O   0  0  0  0  0  0  0  0  0  0  0  0
  2  1  1  0
  2  3  2  0
  4  2  1  0
  5  4  1  0
  5  6  1  6
  7  5  1  0
  7  8  2  0
  9  7  1  0
 10  9  1  0
 10 11  1  1
 11 12  1  0
 13 12  1  0
 13 14  1  0
 15 14  1  0
 16 10  1  0
 17 16  2  0
 18 19  1  0
 19 20  1  0
 20 21  1  1
 22 20  1  0
 22 23  1  6
 23 16  1  0
 24 22  1  0
 25 24  2  0
 26 24  1  0
M  END
$$$$
