NKI.pdb
     RDKit          3D

 26 25  0  0  1  0  0  0  0  0999 V2000
   30.3707  -23.3249  -18.1217 N   0  0  0  0  0  0  0  0  0  0  0  0
   30.4258  -21.9171  -18.2484 C   0  0  0  0  0  0  0  0  0  0  0  0
   31.3718  -21.4117  -18.8952 O   0  0  0  0  0  0  0  0  0  0  0  0
   29.3771  -21.0878  -17.6211 C   0  0  0  0  0  0  0  0  0  0  0  0
   28.5074  -21.9510  -16.7747 C   0  0  2  0  0  0  0  0  0  0  0  0
   28.0477  -23.1220  -17.4834 N   0  0  0  0  0  0  0  0  0  0  0  0
   27.3881  -21.2791  -16.1345 C   0  0  0  0  0  0  0  0  0  0  0  0
   27.6327  -20.3739  -15.2965 O   0  0  0  0  0  0  0  0  0  0  0  0
   26.0090  -21.6011  -16.4143 N   0  0  0  0  0  0  0  0  0  0  0  0
   24.9117  -20.8557  -15.8409 C   0  0  1  0  0  0  0  0  0  0  0  0
   23.6310  -21.0456  -16.6362 C   0  0  0  0  0  0  0  0  0  0  0  0
   22.5024  -20.2076  -16.0295 C   0  0  0  0  0  0  0  0  0  0  0  0
   21.2260  -20.3998  -16.8468 C   0  0  0  0  0  0  0  0  0  0  0  0
   20.0999  -19.5597  -16.2886 C   0  0  0  0  0  0  0  0  0  0  0  0
   18.9186  -19.8212  -17.0553 N   0  0  0  0  0  0  0  0  0  0  0  0
   24.6277  -21.3654  -14.4674 C   0  0  0  0  0  0  0  0  0  0  0  0
   24.4789  -22.6146  -14.3414 O   0  0  0  0  0  0  0  0  0  0  0  0
   26.1243  -20.9462   -8.7076 C   0  0  0  0  0  0  0  0  0  0  0  0
   25.1382  -21.3913   -9.7308 C   0  0  0  0  0  0  0  0  0  0  0  0
   25.3304  -20.9100  -11.1070 C   0  0  2  0  0  0  0  0  0  0  0  0
   25.9243  -19.5226  -11.2355 C   0  0  0  0  0  0  0  0  0  0  0  0
   24.2033  -21.1374  -12.0336 C   0  0  2  0  0  0  0  0  0  0  0  0
   24.5242  -20.5307  -13.3503 N   0  0  0  0  0  0  0  0  0  0  0  0
   22.8877  -20.6235  -11.6793 C   0  0  0  0  0  0  0  0  0  0  0  0
   22.2621  -21.0444  -10.6873 O   0  0  0  0  0  0  0  0  0  0  0  0
   22.2510  -19.6344  -12.4240 O   0  0  0  0  0  0  0  0  0  0  0  0
  2  1  1  0
  2  3  2  0
  4  2  1  0
  5  4  1  0
  5  6  1  6
  7  5  1  0
  7  8  2  0
  9  7  1  0
 10  9  1  0
 10 11  1  6
 11 12  1  0
 13 12  1  0
 13 14  1  0
 15 14  1  0
 16 10  1  0
 17 16  2  0
 18 19  1  0
 19 20  1  0
 20 21  1  1
 22 20  1  0
 22 23  1  6
 23 16  1  0
 24 22  1  0
 25 24  2  0
 26 24  1  0
M  END
$$$$
