NKI.pdb
     RDKit          3D

 26 25  0  0  1  0  0  0  0  0999 V2000
   15.9167  -13.8296  -11.6491 N   0  0  0  0  0  0  0  0  0  0  0  0
   16.8965  -13.1342  -12.3956 C   0  0  0  0  0  0  0  0  0  0  0  0
   17.8656  -13.7794  -12.8574 O   0  0  0  0  0  0  0  0  0  0  0  0
   16.7532  -11.6799  -12.6090 C   0  0  0  0  0  0  0  0  0  0  0  0
   15.4995  -11.2079  -11.9583 C   0  0  2  0  0  0  0  0  0  0  0  0
   14.3196  -11.6625  -12.6557 N   0  0  0  0  0  0  0  0  0  0  0  0
   15.4189   -9.7769  -11.7139 C   0  0  0  0  0  0  0  0  0  0  0  0
   15.1991   -9.0141  -12.6892 O   0  0  0  0  0  0  0  0  0  0  0  0
   15.5792   -9.1890  -10.4052 N   0  0  0  0  0  0  0  0  0  0  0  0
   15.3723   -7.7794  -10.1627 C   0  0  1  0  0  0  0  0  0  0  0  0
   14.7092   -7.5351   -8.8176 C   0  0  0  0  0  0  0  0  0  0  0  0
   14.5089   -6.0342   -8.5914 C   0  0  0  0  0  0  0  0  0  0  0  0
   13.8229   -5.8065   -7.2454 C   0  0  0  0  0  0  0  0  0  0  0  0
   13.6053   -4.3313   -6.9969 C   0  0  0  0  0  0  0  0  0  0  0  0
   12.8736   -4.1823   -5.7746 N   0  0  0  0  0  0  0  0  0  0  0  0
   16.6920   -7.0849  -10.1078 C   0  0  0  0  0  0  0  0  0  0  0  0
   17.5202   -7.4996   -9.2471 O   0  0  0  0  0  0  0  0  0  0  0  0
   21.4767   -6.6085  -13.0093 C   0  0  0  0  0  0  0  0  0  0  0  0
   20.6435   -5.8747  -12.0169 C   0  0  0  0  0  0  0  0  0  0  0  0
   19.2574   -6.3295  -11.8324 C   0  0  2  0  0  0  0  0  0  0  0  0
   18.5293   -6.7322  -13.0980 C   0  0  0  0  0  0  0  0  0  0  0  0
   18.4240   -5.5100  -10.9297 C   0  0  2  0  0  0  0  0  0  0  0  0
   17.0308   -6.0230  -10.9522 N   0  0  0  0  0  0  0  0  0  0  0  0
   18.3154   -4.0795  -11.1790 C   0  0  0  0  0  0  0  0  0  0  0  0
   17.4440   -3.6075  -11.9344 O   0  0  0  0  0  0  0  0  0  0  0  0
   19.1747   -3.1553  -10.5910 O   0  0  0  0  0  0  0  0  0  0  0  0
  2  1  1  0
  2  3  2  0
  4  2  1  0
  5  4  1  0
  5  6  1  6
  7  5  1  0
  7  8  2  0
  9  7  1  0
 10  9  1  0
 10 11  1  1
 11 12  1  0
 13 12  1  0
 13 14  1  0
 15 14  1  0
 16 10  1  0
 17 16  2  0
 18 19  1  0
 19 20  1  0
 20 21  1  6
 22 20  1  0
 22 23  1  6
 23 16  1  0
 24 22  1  0
 25 24  2  0
 26 24  1  0
M  END
$$$$
