NKI.pdb
     RDKit          3D

 26 25  0  0  1  0  0  0  0  0999 V2000
   31.1412  -20.7155  -10.9173 N   0  0  0  0  0  0  0  0  0  0  0  0
   30.3350  -20.4215  -12.0418 C   0  0  0  0  0  0  0  0  0  0  0  0
   30.6776  -19.4800  -12.7933 O   0  0  0  0  0  0  0  0  0  0  0  0
   29.1222  -21.2243  -12.2983 C   0  0  0  0  0  0  0  0  0  0  0  0
   28.0307  -20.3294  -12.7732 C   0  0  2  0  0  0  0  0  0  0  0  0
   27.8212  -19.2087  -11.8871 N   0  0  0  0  0  0  0  0  0  0  0  0
   26.7650  -20.9827  -13.0652 C   0  0  0  0  0  0  0  0  0  0  0  0
   26.7547  -21.9223  -13.9010 O   0  0  0  0  0  0  0  0  0  0  0  0
   25.5190  -20.6049  -12.4418 N   0  0  0  0  0  0  0  0  0  0  0  0
   24.2695  -21.2588  -12.7577 C   0  0  1  0  0  0  0  0  0  0  0  0
   23.5991  -21.8146  -11.5126 C   0  0  0  0  0  0  0  0  0  0  0  0
   23.3436  -20.6919  -10.5034 C   0  0  0  0  0  0  0  0  0  0  0  0
   21.8633  -20.6695  -10.1265 C   0  0  0  0  0  0  0  0  0  0  0  0
   21.5841  -19.5834   -9.1126 C   0  0  0  0  0  0  0  0  0  0  0  0
   20.9941  -20.1868   -7.9553 N   0  0  0  0  0  0  0  0  0  0  0  0
   23.3182  -20.2633  -13.3329 C   0  0  0  0  0  0  0  0  0  0  0  0
   23.6238  -19.0429  -13.2075 O   0  0  0  0  0  0  0  0  0  0  0  0
   22.3997  -17.7744  -18.0092 C   0  0  0  0  0  0  0  0  0  0  0  0
   21.6086  -18.1958  -16.8200 C   0  0  0  0  0  0  0  0  0  0  0  0
   22.2244  -19.1760  -15.9132 C   0  0  2  0  0  0  0  0  0  0  0  0
   22.9229  -20.3388  -16.5871 C   0  0  0  0  0  0  0  0  0  0  0  0
   21.4022  -19.5937  -14.7599 C   0  0  2  0  0  0  0  0  0  0  0  0
   22.1363  -20.6267  -13.9860 N   0  0  0  0  0  0  0  0  0  0  0  0
   20.0822  -20.1573  -15.0052 C   0  0  0  0  0  0  0  0  0  0  0  0
   19.9138  -21.3755  -15.2065 O   0  0  0  0  0  0  0  0  0  0  0  0
   18.9321  -19.3731  -15.0297 O   0  0  0  0  0  0  0  0  0  0  0  0
  2  1  1  0
  2  3  2  0
  4  2  1  0
  5  4  1  0
  5  6  1  1
  7  5  1  0
  7  8  2  0
  9  7  1  0
 10  9  1  0
 10 11  1  1
 11 12  1  0
 13 12  1  0
 13 14  1  0
 15 14  1  0
 16 10  1  0
 17 16  2  0
 18 19  1  0
 19 20  1  0
 20 21  1  6
 22 20  1  0
 22 23  1  6
 23 16  1  0
 24 22  1  0
 25 24  2  0
 26 24  1  0
M  END
$$$$
