NKI.pdb
     RDKit          3D

 26 25  0  0  1  0  0  0  0  0999 V2000
   16.4015  -15.2308  -15.5324 N   0  0  0  0  0  0  0  0  0  0  0  0
   16.2863  -13.8293  -15.6864 C   0  0  0  0  0  0  0  0  0  0  0  0
   15.1929  -13.2853  -15.4088 O   0  0  0  0  0  0  0  0  0  0  0  0
   17.4467  -13.0514  -16.1656 C   0  0  0  0  0  0  0  0  0  0  0  0
   17.0638  -11.6169  -16.2815 C   0  0  2  0  0  0  0  0  0  0  0  0
   16.0793  -11.3980  -17.3149 N   0  0  0  0  0  0  0  0  0  0  0  0
   18.1674  -10.6824  -16.4324 C   0  0  0  0  0  0  0  0  0  0  0  0
   19.3055  -11.0287  -16.0246 O   0  0  0  0  0  0  0  0  0  0  0  0
   18.0199   -9.3757  -17.0280 N   0  0  0  0  0  0  0  0  0  0  0  0
   19.1245   -8.4507  -17.1407 C   0  0  1  0  0  0  0  0  0  0  0  0
   18.7390   -7.2139  -17.9346 C   0  0  0  0  0  0  0  0  0  0  0  0
   18.4477   -7.5890  -19.3901 C   0  0  0  0  0  0  0  0  0  0  0  0
   18.0397   -6.3395  -20.1688 C   0  0  0  0  0  0  0  0  0  0  0  0
   17.7237   -6.6829  -21.6068 C   0  0  0  0  0  0  0  0  0  0  0  0
   17.3710   -5.4758  -22.2924 N   0  0  0  0  0  0  0  0  0  0  0  0
   19.5110   -7.9690  -15.7822 C   0  0  0  0  0  0  0  0  0  0  0  0
   18.5746   -7.7915  -14.9515 O   0  0  0  0  0  0  0  0  0  0  0  0
   22.6770   -9.5614  -11.2154 C   0  0  0  0  0  0  0  0  0  0  0  0
   22.1183   -8.3788  -11.9273 C   0  0  0  0  0  0  0  0  0  0  0  0
   21.7240   -8.5615  -13.3321 C   0  0  2  0  0  0  0  0  0  0  0  0
   22.7349   -9.2752  -14.2056 C   0  0  0  0  0  0  0  0  0  0  0  0
   21.1277   -7.3836  -13.9935 C   0  0  2  0  0  0  0  0  0  0  0  0
   20.8352   -7.7158  -15.4109 N   0  0  0  0  0  0  0  0  0  0  0  0
   21.8864   -6.1414  -14.0343 C   0  0  0  0  0  0  0  0  0  0  0  0
   22.4193   -5.7300  -15.0829 O   0  0  0  0  0  0  0  0  0  0  0  0
   22.0620   -5.3405  -12.9091 O   0  0  0  0  0  0  0  0  0  0  0  0
  2  1  1  0
  2  3  2  0
  4  2  1  0
  5  4  1  0
  5  6  1  6
  7  5  1  0
  7  8  2  0
  9  7  1  0
 10  9  1  0
 10 11  1  6
 11 12  1  0
 13 12  1  0
 13 14  1  0
 15 14  1  0
 16 10  1  0
 17 16  2  0
 18 19  1  0
 19 20  1  0
 20 21  1  6
 22 20  1  0
 22 23  1  6
 23 16  1  0
 24 22  1  0
 25 24  2  0
 26 24  1  0
M  END
$$$$
