NKI.pdb
     RDKit          3D

 26 25  0  0  1  0  0  0  0  0999 V2000
   17.9905  -21.1705  -16.1733 N   0  0  0  0  0  0  0  0  0  0  0  0
   19.2033  -21.5685  -15.5636 C   0  0  0  0  0  0  0  0  0  0  0  0
   19.4242  -22.7924  -15.4150 O   0  0  0  0  0  0  0  0  0  0  0  0
   20.1681  -20.5412  -15.1222 C   0  0  0  0  0  0  0  0  0  0  0  0
   20.8662  -21.0161  -13.8955 C   0  0  2  0  0  0  0  0  0  0  0  0
   20.0527  -20.8631  -12.7123 N   0  0  0  0  0  0  0  0  0  0  0  0
   22.1902  -20.4587  -13.6706 C   0  0  0  0  0  0  0  0  0  0  0  0
   22.2787  -19.2854  -13.2266 O   0  0  0  0  0  0  0  0  0  0  0  0
   23.4087  -21.1872  -13.9324 N   0  0  0  0  0  0  0  0  0  0  0  0
   24.7139  -20.6295  -13.6609 C   0  0  1  0  0  0  0  0  0  0  0  0
   25.7545  -21.7171  -13.4541 C   0  0  0  0  0  0  0  0  0  0  0  0
   26.5221  -21.4741  -12.1518 C   0  0  0  0  0  0  0  0  0  0  0  0
   25.5813  -20.8764  -11.1070 C   0  0  0  0  0  0  0  0  0  0  0  0
   26.3351  -20.5252   -9.8445 C   0  0  0  0  0  0  0  0  0  0  0  0
   25.4380  -19.8487   -8.9563 N   0  0  0  0  0  0  0  0  0  0  0  0
   25.1708  -19.8355  -14.8389 C   0  0  0  0  0  0  0  0  0  0  0  0
   24.8058  -20.2433  -15.9787 O   0  0  0  0  0  0  0  0  0  0  0  0
   25.8724  -14.4975  -14.3906 C   0  0  0  0  0  0  0  0  0  0  0  0
   25.5491  -15.7156  -15.1839 C   0  0  0  0  0  0  0  0  0  0  0  0
   26.6743  -16.5601  -15.6118 C   0  0  2  0  0  0  0  0  0  0  0  0
   27.6291  -15.9228  -16.5998 C   0  0  0  0  0  0  0  0  0  0  0  0
   26.3381  -17.9552  -15.9603 C   0  0  2  0  0  0  0  0  0  0  0  0
   25.9652  -18.6903  -14.7253 N   0  0  0  0  0  0  0  0  0  0  0  0
   27.3459  -18.7788  -16.6133 C   0  0  0  0  0  0  0  0  0  0  0  0
   27.4293  -18.8563  -17.8542 O   0  0  0  0  0  0  0  0  0  0  0  0
   28.2743  -19.5268  -15.8943 O   0  0  0  0  0  0  0  0  0  0  0  0
  2  1  1  0
  2  3  2  0
  4  2  1  0
  5  4  1  0
  5  6  1  1
  7  5  1  0
  7  8  2  0
  9  7  1  0
 10  9  1  0
 10 11  1  6
 11 12  1  0
 13 12  1  0
 13 14  1  0
 15 14  1  0
 16 10  1  0
 17 16  2  0
 18 19  1  0
 19 20  1  0
 20 21  1  6
 22 20  1  0
 22 23  1  1
 23 16  1  0
 24 22  1  0
 25 24  2  0
 26 24  1  0
M  END
$$$$
