MFM.pdb
     RDKit          3D

 28 28  0  0  1  0  0  0  0  0999 V2000
    8.1403  -21.6058   21.8207 C   0  0  0  0  0  0  0  0  0  0  0  0
    9.2615  -21.3737   20.4651 S   0  0  0  0  0  0  0  0  0  0  0  0
    9.5648  -19.7171   19.9164 C   0  0  0  0  0  0  0  0  0  0  0  0
    9.0901  -18.6341   20.7801 C   0  0  0  0  0  0  0  0  0  0  0  0
    9.2076  -17.2215   20.4050 C   0  0  2  0  0  0  0  0  0  0  0  0
   10.1147  -16.8379   19.4032 N   0  0  0  0  0  0  0  0  0  0  0  0
    9.4565  -16.3700   21.6280 C   0  0  0  0  0  0  0  0  0  0  0  0
   10.6246  -16.0056   21.8723 O   0  0  0  0  0  0  0  0  0  0  0  0
    8.4326  -15.9794   22.4884 N   0  0  0  0  0  0  0  0  0  0  0  0
    8.6755  -15.1475   23.7117 C   0  0  1  0  0  0  0  0  0  0  0  0
    7.4927  -14.2692   23.7856 C   0  0  0  0  0  0  0  0  0  0  0  0
    7.4091  -13.4559   24.9802 C   0  0  0  0  0  0  0  0  0  0  0  0
    8.1317  -12.3264   25.2168 C   0  0  0  0  0  0  0  0  0  0  0  0
    7.9799  -11.6347   26.3959 C   0  0  0  0  0  0  0  0  0  0  0  0
    7.1128  -12.0331   27.3768 C   0  0  0  0  0  0  0  0  0  0  0  0
    6.3719  -13.1676   27.1646 C   0  0  0  0  0  0  0  0  0  0  0  0
    6.5197  -13.8649   25.9858 C   0  0  0  0  0  0  0  0  0  0  0  0
    9.0364  -16.0025   24.8048 C   0  0  0  0  0  0  0  0  0  0  0  0
    8.2533  -16.9918   25.0754 O   0  0  0  0  0  0  0  0  0  0  0  0
   13.5968  -16.0085   23.1909 C   0  0  0  0  0  0  0  0  0  0  0  0
   13.9504  -16.9637   24.6409 S   0  0  0  0  0  0  0  0  0  0  0  0
   12.5722  -17.7605   25.4351 C   0  0  0  0  0  0  0  0  0  0  0  0
   12.0154  -17.0890   26.6320 C   0  0  0  0  0  0  0  0  0  0  0  0
   10.5137  -16.8812   26.6256 C   0  0  2  0  0  0  0  0  0  0  0  0
   10.1700  -15.8723   25.6084 N   0  0  0  0  0  0  0  0  0  0  0  0
   10.0533  -16.3644   27.9259 C   0  0  0  0  0  0  0  0  0  0  0  0
   10.1606  -17.0546   29.1321 O   0  0  0  0  0  0  0  0  0  0  0  0
    9.5114  -15.2122   28.0242 O   0  0  0  0  0  0  0  0  0  0  0  0
  1  2  1  0
  3  2  1  0
  4  3  1  0
  5  4  1  0
  5  6  1  6
  7  5  1  0
  8  7  2  0
  9  7  1  0
 10  9  1  0
 10 11  1  1
 11 12  1  0
 12 17  2  0
 13 12  1  0
 13 14  2  0
 14 15  1  0
 15 16  2  0
 17 16  1  0
 18 19  2  0
 18 10  1  0
 20 21  1  0
 22 21  1  0
 24 23  1  1
 23 22  1  0
 24 25  1  0
 25 18  1  0
 26 24  1  0
 27 26  1  0
 28 26  2  0
M  END
$$$$
