MFM.pdb
     RDKit          3D

 28 28  0  0  1  0  0  0  0  0999 V2000
   14.5860  -18.4536   18.3128 C   0  0  0  0  0  0  0  0  0  0  0  0
   13.1780  -18.7460   17.2733 S   0  0  0  0  0  0  0  0  0  0  0  0
   11.6049  -18.1454   17.8226 C   0  0  0  0  0  0  0  0  0  0  0  0
   11.4557  -17.8894   19.2565 C   0  0  0  0  0  0  0  0  0  0  0  0
   10.1599  -17.9696   19.9382 C   0  0  2  0  0  0  0  0  0  0  0  0
    8.9724  -17.8509   19.1970 N   0  0  0  0  0  0  0  0  0  0  0  0
   10.1071  -16.9904   21.0876 C   0  0  0  0  0  0  0  0  0  0  0  0
   11.1409  -16.3540   21.3757 O   0  0  0  0  0  0  0  0  0  0  0  0
    8.9503  -16.7743   21.8334 N   0  0  0  0  0  0  0  0  0  0  0  0
    8.9110  -15.8603   23.0210 C   0  0  1  0  0  0  0  0  0  0  0  0
    7.5465  -15.3006   22.9945 C   0  0  0  0  0  0  0  0  0  0  0  0
    7.2405  -14.3852   24.0735 C   0  0  0  0  0  0  0  0  0  0  0  0
    7.5789  -13.0669   24.1085 C   0  0  0  0  0  0  0  0  0  0  0  0
    7.2456  -12.2891   25.1928 C   0  0  0  0  0  0  0  0  0  0  0  0
    6.5695  -12.7847   26.2744 C   0  0  0  0  0  0  0  0  0  0  0  0
    6.2158  -14.1098   26.2655 C   0  0  0  0  0  0  0  0  0  0  0  0
    6.5469  -14.8940   25.1824 C   0  0  0  0  0  0  0  0  0  0  0  0
    9.4076  -16.5552   24.1730 C   0  0  0  0  0  0  0  0  0  0  0  0
    9.2297  -17.8322   24.2251 O   0  0  0  0  0  0  0  0  0  0  0  0
    8.7198  -13.1900   29.3292 C   0  0  0  0  0  0  0  0  0  0  0  0
    9.7254  -14.6221   29.0502 S   0  0  0  0  0  0  0  0  0  0  0  0
   10.6939  -14.6466   27.5581 C   0  0  0  0  0  0  0  0  0  0  0  0
   11.4405  -15.8930   27.2704 C   0  0  0  0  0  0  0  0  0  0  0  0
   10.8206  -16.7998   26.2256 C   0  0  2  0  0  0  0  0  0  0  0  0
   10.0799  -15.9790   25.2517 N   0  0  0  0  0  0  0  0  0  0  0  0
    9.8529  -17.7225   26.8440 C   0  0  0  0  0  0  0  0  0  0  0  0
   10.1928  -18.7496   27.7228 O   0  0  0  0  0  0  0  0  0  0  0  0
    8.6027  -17.6283   26.6014 O   0  0  0  0  0  0  0  0  0  0  0  0
  1  2  1  0
  3  2  1  0
  4  3  1  0
  5  4  1  0
  5  6  1  6
  7  5  1  0
  8  7  2  0
  9  7  1  0
 10  9  1  0
 10 11  1  1
 11 12  1  0
 12 17  2  0
 13 12  1  0
 13 14  2  0
 14 15  1  0
 15 16  2  0
 17 16  1  0
 18 19  2  0
 18 10  1  0
 20 21  1  0
 22 21  1  0
 24 23  1  1
 23 22  1  0
 24 25  1  0
 25 18  1  0
 26 24  1  0
 27 26  1  0
 28 26  2  0
M  END
$$$$
