MFM.pdb
     RDKit          3D

 28 28  0  0  1  0  0  0  0  0999 V2000
   10.8620  -21.8866   20.5789 C   0  0  0  0  0  0  0  0  0  0  0  0
   10.0343  -21.2909   19.1268 S   0  0  0  0  0  0  0  0  0  0  0  0
   10.3655  -19.6300   18.6082 C   0  0  0  0  0  0  0  0  0  0  0  0
   10.2703  -18.5842   19.6285 C   0  0  0  0  0  0  0  0  0  0  0  0
    9.7864  -17.2335   19.3262 C   0  0  2  0  0  0  0  0  0  0  0  0
   10.3720  -16.4995   18.2812 N   0  0  0  0  0  0  0  0  0  0  0  0
    9.7918  -16.3799   20.5727 C   0  0  0  0  0  0  0  0  0  0  0  0
   10.7505  -15.6030   20.7584 O   0  0  0  0  0  0  0  0  0  0  0  0
    8.7691  -16.4294   21.5176 N   0  0  0  0  0  0  0  0  0  0  0  0
    8.7684  -15.5843   22.7558 C   0  0  1  0  0  0  0  0  0  0  0  0
    7.3477  -15.2384   22.9499 C   0  0  0  0  0  0  0  0  0  0  0  0
    7.0685  -14.4376   24.1231 C   0  0  0  0  0  0  0  0  0  0  0  0
    6.4842  -14.8911   25.2662 C   0  0  0  0  0  0  0  0  0  0  0  0
    6.2554  -14.0371   26.3198 C   0  0  0  0  0  0  0  0  0  0  0  0
    6.5948  -12.7120   26.2804 C   0  0  0  0  0  0  0  0  0  0  0  0
    7.1854  -12.2283   25.1410 C   0  0  0  0  0  0  0  0  0  0  0  0
    7.4170  -13.0788   24.0823 C   0  0  0  0  0  0  0  0  0  0  0  0
    9.5203  -16.2444   23.7831 C   0  0  0  0  0  0  0  0  0  0  0  0
    9.5630  -17.5339   23.7594 O   0  0  0  0  0  0  0  0  0  0  0  0
   10.9299  -12.6160   28.4524 C   0  0  0  0  0  0  0  0  0  0  0  0
   10.0563  -14.0507   29.0166 S   0  0  0  0  0  0  0  0  0  0  0  0
   10.1989  -15.5209   28.0250 C   0  0  0  0  0  0  0  0  0  0  0  0
   11.2764  -15.5357   27.0089 C   0  0  0  0  0  0  0  0  0  0  0  0
   11.0120  -16.3952   25.7884 C   0  0  2  0  0  0  0  0  0  0  0  0
   10.2255  -15.6202   24.8129 N   0  0  0  0  0  0  0  0  0  0  0  0
   10.2150  -17.5807   26.1483 C   0  0  0  0  0  0  0  0  0  0  0  0
   10.7539  -18.7989   26.5585 O   0  0  0  0  0  0  0  0  0  0  0  0
    8.9390  -17.5568   26.1041 O   0  0  0  0  0  0  0  0  0  0  0  0
  1  2  1  0
  3  2  1  0
  4  3  1  0
  5  4  1  0
  5  6  1  6
  7  5  1  0
  8  7  2  0
  9  7  1  0
 10  9  1  0
 10 11  1  1
 11 12  1  0
 12 17  2  0
 13 12  1  0
 13 14  2  0
 14 15  1  0
 15 16  2  0
 17 16  1  0
 18 19  2  0
 18 10  1  0
 20 21  1  0
 22 21  1  0
 24 23  1  1
 23 22  1  0
 24 25  1  0
 25 18  1  0
 26 24  1  0
 27 26  1  0
 28 26  2  0
M  END
$$$$
