MFM.pdb
     RDKit          3D

 28 28  0  0  1  0  0  0  0  0999 V2000
   12.6032  -21.1551   20.9811 C   0  0  0  0  0  0  0  0  0  0  0  0
   11.2494  -21.5235   19.8946 S   0  0  0  0  0  0  0  0  0  0  0  0
   10.3347  -20.1640   19.2219 C   0  0  0  0  0  0  0  0  0  0  0  0
   10.3667  -18.9065   19.9713 C   0  0  0  0  0  0  0  0  0  0  0  0
    9.5174  -17.7630   19.6234 C   0  0  2  0  0  0  0  0  0  0  0  0
    9.7289  -17.0780   18.4152 N   0  0  0  0  0  0  0  0  0  0  0  0
    9.5022  -16.7554   20.7491 C   0  0  0  0  0  0  0  0  0  0  0  0
   10.3406  -15.8314   20.7325 O   0  0  0  0  0  0  0  0  0  0  0  0
    8.5896  -16.8214   21.7998 N   0  0  0  0  0  0  0  0  0  0  0  0
    8.6326  -15.8857   22.9702 C   0  0  1  0  0  0  0  0  0  0  0  0
    7.2626  -15.3439   23.0434 C   0  0  0  0  0  0  0  0  0  0  0  0
    7.0080  -14.4769   24.1743 C   0  0  0  0  0  0  0  0  0  0  0  0
    6.3320  -14.8306   25.3021 C   0  0  0  0  0  0  0  0  0  0  0  0
    6.1379  -13.9198   26.3143 C   0  0  0  0  0  0  0  0  0  0  0  0
    6.6032  -12.6346   26.2475 C   0  0  0  0  0  0  0  0  0  0  0  0
    7.2880  -12.2514   25.1227 C   0  0  0  0  0  0  0  0  0  0  0  0
    7.4855  -13.1590   24.1054 C   0  0  0  0  0  0  0  0  0  0  0  0
    9.2296  -16.5524   24.0908 C   0  0  0  0  0  0  0  0  0  0  0  0
    9.2907  -17.8409   24.0583 O   0  0  0  0  0  0  0  0  0  0  0  0
   10.4544  -12.4051   28.9679 C   0  0  0  0  0  0  0  0  0  0  0  0
   10.8612  -14.0804   29.3776 S   0  0  0  0  0  0  0  0  0  0  0  0
   10.3444  -15.3375   28.2297 C   0  0  0  0  0  0  0  0  0  0  0  0
   11.2705  -15.6407   27.1143 C   0  0  0  0  0  0  0  0  0  0  0  0
   10.7494  -16.6184   26.0796 C   0  0  2  0  0  0  0  0  0  0  0  0
    9.7648  -15.9354   25.2223 N   0  0  0  0  0  0  0  0  0  0  0  0
   10.0560  -17.7444   26.7288 C   0  0  0  0  0  0  0  0  0  0  0  0
   10.6973  -18.8428   27.2988 O   0  0  0  0  0  0  0  0  0  0  0  0
    8.7820  -17.7772   26.8097 O   0  0  0  0  0  0  0  0  0  0  0  0
  1  2  1  0
  3  2  1  0
  4  3  1  0
  5  4  1  0
  5  6  1  6
  7  5  1  0
  8  7  2  0
  9  7  1  0
 10  9  1  0
 10 11  1  1
 11 12  1  0
 12 17  2  0
 13 12  1  0
 13 14  2  0
 14 15  1  0
 15 16  2  0
 17 16  1  0
 18 19  2  0
 18 10  1  0
 20 21  1  0
 22 21  1  0
 24 23  1  1
 23 22  1  0
 24 25  1  0
 25 18  1  0
 26 24  1  0
 27 26  1  0
 28 26  2  0
M  END
$$$$
