MFM.pdb
     RDKit          3D

 28 28  0  0  1  0  0  0  0  0999 V2000
    8.5290  -11.9401   19.1381 C   0  0  0  0  0  0  0  0  0  0  0  0
    7.4459  -13.2413   18.6067 S   0  0  0  0  0  0  0  0  0  0  0  0
    8.1694  -14.8063   18.2009 C   0  0  0  0  0  0  0  0  0  0  0  0
    9.4698  -15.1121   18.8004 C   0  0  0  0  0  0  0  0  0  0  0  0
    9.6519  -16.1958   19.7711 C   0  0  2  0  0  0  0  0  0  0  0  0
    8.8413  -17.3410   19.6997 N   0  0  0  0  0  0  0  0  0  0  0  0
    9.5954  -15.6560   21.1811 C   0  0  0  0  0  0  0  0  0  0  0  0
   10.3624  -14.7225   21.4926 O   0  0  0  0  0  0  0  0  0  0  0  0
    8.7212  -16.1616   22.1410 N   0  0  0  0  0  0  0  0  0  0  0  0
    8.6377  -15.6088   23.5320 C   0  0  1  0  0  0  0  0  0  0  0  0
    7.3163  -14.9546   23.5763 C   0  0  0  0  0  0  0  0  0  0  0  0
    7.1503  -13.9839   24.6373 C   0  0  0  0  0  0  0  0  0  0  0  0
    7.7577  -12.7667   24.6940 C   0  0  0  0  0  0  0  0  0  0  0  0
    7.5358  -11.9245   25.7586 C   0  0  0  0  0  0  0  0  0  0  0  0
    6.7097  -12.2544   26.7984 C   0  0  0  0  0  0  0  0  0  0  0  0
    6.0844  -13.4746   26.7669 C   0  0  0  0  0  0  0  0  0  0  0  0
    6.3029  -14.3226   25.7034 C   0  0  0  0  0  0  0  0  0  0  0  0
    8.9934  -16.6311   24.4726 C   0  0  0  0  0  0  0  0  0  0  0  0
    8.0582  -17.1040   25.2255 O   0  0  0  0  0  0  0  0  0  0  0  0
    9.0609  -13.3202   28.3046 C   0  0  0  0  0  0  0  0  0  0  0  0
   10.5429  -14.1211   28.8544 S   0  0  0  0  0  0  0  0  0  0  0  0
   10.9976  -15.6283   28.0258 C   0  0  0  0  0  0  0  0  0  0  0  0
   10.5515  -15.7756   26.6212 C   0  0  0  0  0  0  0  0  0  0  0  0
   10.9878  -17.0507   25.9271 C   0  0  2  0  0  0  0  0  0  0  0  0
   10.2658  -17.1765   24.6490 N   0  0  0  0  0  0  0  0  0  0  0  0
   10.6448  -18.2304   26.7401 C   0  0  0  0  0  0  0  0  0  0  0  0
    9.3659  -18.7758   26.8388 O   0  0  0  0  0  0  0  0  0  0  0  0
   11.5331  -18.8423   27.4237 O   0  0  0  0  0  0  0  0  0  0  0  0
  1  2  1  0
  3  2  1  0
  4  3  1  0
  5  4  1  0
  5  6  1  1
  7  5  1  0
  8  7  2  0
  9  7  1  0
 10  9  1  0
 10 11  1  1
 11 12  1  0
 12 17  2  0
 13 12  1  0
 13 14  2  0
 14 15  1  0
 15 16  2  0
 17 16  1  0
 18 19  2  0
 18 10  1  0
 20 21  1  0
 22 21  1  0
 24 23  1  1
 23 22  1  0
 24 25  1  0
 25 18  1  0
 26 24  1  0
 27 26  1  0
 28 26  2  0
M  END
$$$$
