MFM.pdb
     RDKit          3D

 28 28  0  0  1  0  0  0  0  0999 V2000
    8.8069  -11.8924   18.0590 C   0  0  0  0  0  0  0  0  0  0  0  0
    7.9764  -13.3162   17.4018 S   0  0  0  0  0  0  0  0  0  0  0  0
    8.2466  -14.8738   18.2008 C   0  0  0  0  0  0  0  0  0  0  0  0
    9.5644  -15.0929   18.8002 C   0  0  0  0  0  0  0  0  0  0  0  0
    9.8395  -16.2140   19.7044 C   0  0  2  0  0  0  0  0  0  0  0  0
    9.0443  -17.3706   19.6450 N   0  0  0  0  0  0  0  0  0  0  0  0
    9.8849  -15.7370   21.1373 C   0  0  0  0  0  0  0  0  0  0  0  0
   10.8910  -15.1083   21.5240 O   0  0  0  0  0  0  0  0  0  0  0  0
    8.8481  -15.9734   22.0375 N   0  0  0  0  0  0  0  0  0  0  0  0
    8.7308  -15.2510   23.3459 C   0  0  1  0  0  0  0  0  0  0  0  0
    7.2984  -14.9106   23.4373 C   0  0  0  0  0  0  0  0  0  0  0  0
    6.9443  -14.0509   24.5469 C   0  0  0  0  0  0  0  0  0  0  0  0
    7.2917  -12.7402   24.6705 C   0  0  0  0  0  0  0  0  0  0  0  0
    6.9090  -12.0178   25.7766 C   0  0  0  0  0  0  0  0  0  0  0  0
    6.1730  -12.5630   26.7934 C   0  0  0  0  0  0  0  0  0  0  0  0
    5.8089  -13.8815   26.6946 C   0  0  0  0  0  0  0  0  0  0  0  0
    6.1894  -14.6103   25.5893 C   0  0  0  0  0  0  0  0  0  0  0  0
    9.3807  -16.0145   24.3711 C   0  0  0  0  0  0  0  0  0  0  0  0
    9.7566  -17.2136   24.0777 O   0  0  0  0  0  0  0  0  0  0  0  0
   10.9565  -13.8875   30.6694 C   0  0  0  0  0  0  0  0  0  0  0  0
   11.9560  -15.3120   30.3350 S   0  0  0  0  0  0  0  0  0  0  0  0
   11.5452  -16.2609   28.8873 C   0  0  0  0  0  0  0  0  0  0  0  0
   10.7812  -15.5616   27.8286 C   0  0  0  0  0  0  0  0  0  0  0  0
   10.4672  -16.3864   26.5960 C   0  0  2  0  0  0  0  0  0  0  0  0
    9.6569  -15.5787   25.6677 N   0  0  0  0  0  0  0  0  0  0  0  0
    9.6702  -17.5731   26.9520 C   0  0  0  0  0  0  0  0  0  0  0  0
   10.2055  -18.8318   27.2198 O   0  0  0  0  0  0  0  0  0  0  0  0
    8.3976  -17.5118   27.0395 O   0  0  0  0  0  0  0  0  0  0  0  0
  1  2  1  0
  3  2  1  0
  4  3  1  0
  5  4  1  0
  5  6  1  1
  7  5  1  0
  8  7  2  0
  9  7  1  0
 10  9  1  0
 10 11  1  1
 11 12  1  0
 12 17  2  0
 13 12  1  0
 13 14  2  0
 14 15  1  0
 15 16  2  0
 17 16  1  0
 18 19  2  0
 18 10  1  0
 20 21  1  0
 22 21  1  0
 24 23  1  1
 23 22  1  0
 24 25  1  0
 25 18  1  0
 26 24  1  0
 27 26  1  0
 28 26  2  0
M  END
$$$$
