MFM.pdb
     RDKit          3D

 28 28  0  0  1  0  0  0  0  0999 V2000
    8.1972  -11.9522   17.4592 C   0  0  0  0  0  0  0  0  0  0  0  0
    8.2616  -13.4325   16.4829 S   0  0  0  0  0  0  0  0  0  0  0  0
    8.6756  -14.9471   17.3028 C   0  0  0  0  0  0  0  0  0  0  0  0
    9.1374  -14.8472   18.6887 C   0  0  0  0  0  0  0  0  0  0  0  0
    9.5008  -16.0254   19.4823 C   0  0  2  0  0  0  0  0  0  0  0  0
    8.7204  -17.1907   19.4000 N   0  0  0  0  0  0  0  0  0  0  0  0
    9.6543  -15.6535   20.9386 C   0  0  0  0  0  0  0  0  0  0  0  0
   10.6838  -15.0436   21.2921 O   0  0  0  0  0  0  0  0  0  0  0  0
    8.6914  -15.9661   21.8959 N   0  0  0  0  0  0  0  0  0  0  0  0
    8.7240  -15.4124   23.2886 C   0  0  1  0  0  0  0  0  0  0  0  0
    7.3028  -15.1963   23.6192 C   0  0  0  0  0  0  0  0  0  0  0  0
    7.0650  -14.3680   24.7823 C   0  0  0  0  0  0  0  0  0  0  0  0
    6.3906  -14.7539   25.9003 C   0  0  0  0  0  0  0  0  0  0  0  0
    6.2133  -13.8782   26.9460 C   0  0  0  0  0  0  0  0  0  0  0  0
    6.6943  -12.5974   26.9232 C   0  0  0  0  0  0  0  0  0  0  0  0
    7.3781  -12.1821   25.8092 C   0  0  0  0  0  0  0  0  0  0  0  0
    7.5587  -13.0545   24.7585 C   0  0  0  0  0  0  0  0  0  0  0  0
    9.5615  -16.2378   24.1095 C   0  0  0  0  0  0  0  0  0  0  0  0
   10.3196  -17.0980   23.5176 O   0  0  0  0  0  0  0  0  0  0  0  0
   10.1171  -13.3873   30.5777 C   0  0  0  0  0  0  0  0  0  0  0  0
   11.2106  -14.0942   29.3758 S   0  0  0  0  0  0  0  0  0  0  0  0
   10.5005  -15.2473   28.2220 C   0  0  0  0  0  0  0  0  0  0  0  0
   11.3865  -15.7368   27.1407 C   0  0  0  0  0  0  0  0  0  0  0  0
   10.7835  -16.7841   26.2256 C   0  0  2  0  0  0  0  0  0  0  0  0
    9.6434  -16.1947   25.5020 N   0  0  0  0  0  0  0  0  0  0  0  0
   10.2648  -17.9213   27.0052 C   0  0  0  0  0  0  0  0  0  0  0  0
   11.0617  -18.8866   27.6183 O   0  0  0  0  0  0  0  0  0  0  0  0
    9.0099  -18.0915   27.1697 O   0  0  0  0  0  0  0  0  0  0  0  0
  1  2  1  0
  3  2  1  0
  4  3  1  0
  5  4  1  0
  5  6  1  1
  7  5  1  0
  8  7  2  0
  9  7  1  0
 10  9  1  0
 10 11  1  1
 11 12  1  0
 12 17  2  0
 13 12  1  0
 13 14  2  0
 14 15  1  0
 15 16  2  0
 17 16  1  0
 18 19  2  0
 18 10  1  0
 20 21  1  0
 22 21  1  0
 24 23  1  1
 23 22  1  0
 24 25  1  0
 25 18  1  0
 26 24  1  0
 27 26  1  0
 28 26  2  0
M  END
$$$$
