EEV.pdb
     RDKit          3D

 26 25  0  0  1  0  0  0  0  0999 V2000
    5.7877  -17.3163   20.3058 N   0  0  0  0  0  0  0  0  0  0  0  0
    6.7269  -18.0294   21.1535 C   0  0  1  0  0  0  0  0  0  0  0  0
    8.1148  -17.8367   20.5687 C   0  0  0  0  0  0  0  0  0  0  0  0
    8.3348  -16.4414   20.0805 C   0  0  0  0  0  0  0  0  0  0  0  0
    9.6462  -16.2576   19.4317 C   0  0  0  0  0  0  0  0  0  0  0  0
   10.6468  -15.9783   20.1286 O   0  0  0  0  0  0  0  0  0  0  0  0
    6.6355  -17.4491   22.5163 C   0  0  0  0  0  0  0  0  0  0  0  0
    6.0442  -16.3507   22.6494 O   0  0  0  0  0  0  0  0  0  0  0  0
    9.7847  -16.3891   18.0689 O   0  0  0  0  0  0  0  0  0  0  0  0
    7.1691  -18.0516   23.6657 N   0  0  0  0  0  0  0  0  0  0  0  0
    6.8480  -17.5368   24.9819 C   0  0  1  0  0  0  0  0  0  0  0  0
    7.2577  -18.4370   26.0758 C   0  0  0  0  0  0  0  0  0  0  0  0
    6.8746  -19.8595   25.7956 C   0  0  0  0  0  0  0  0  0  0  0  0
    7.3602  -20.7590   26.9128 C   0  0  0  0  0  0  0  0  0  0  0  0
    8.2820  -21.5636   26.6760 O   0  0  0  0  0  0  0  0  0  0  0  0
    7.5752  -16.2451   25.1056 C   0  0  0  0  0  0  0  0  0  0  0  0
    8.7374  -16.0212   24.7014 O   0  0  0  0  0  0  0  0  0  0  0  0
    6.7997  -20.6949   28.1670 O   0  0  0  0  0  0  0  0  0  0  0  0
    5.6399  -12.5937   25.5733 C   0  0  0  0  0  0  0  0  0  0  0  0
    6.7122  -12.8635   26.5791 C   0  0  2  0  0  0  0  0  0  0  0  0
    7.4259  -11.5792   26.9385 C   0  0  0  0  0  0  0  0  0  0  0  0
    7.6904  -13.9356   26.1350 C   0  0  2  0  0  0  0  0  0  0  0  0
    6.9622  -15.0933   25.7345 N   0  0  0  0  0  0  0  0  0  0  0  0
    8.7625  -14.1858   27.0966 C   0  0  0  0  0  0  0  0  0  0  0  0
    8.7034  -15.3240   27.8887 O   0  0  0  0  0  0  0  0  0  0  0  0
    9.7658  -13.4324   27.2718 O   0  0  0  0  0  0  0  0  0  0  0  0
  2  7  1  0
  2  1  1  6
  3  2  1  0
  4  5  1  0
  4  3  1  0
  5  6  2  0
  7 10  1  0
  8  7  2  0
  9  5  1  0
 10 11  1  0
 11 12  1  1
 12 13  1  0
 13 14  1  0
 14 15  2  0
 14 18  1  0
 16 17  2  0
 16 11  1  0
 20 19  1  6
 20 22  1  0
 21 20  1  0
 22 24  1  0
 22 23  1  1
 23 16  1  0
 24 25  1  0
 26 24  2  0
M  END
$$$$
