EEV.pdb
     RDKit          3D

 26 25  0  0  1  0  0  0  0  0999 V2000
    7.3398  -18.2391   20.1032 N   0  0  0  0  0  0  0  0  0  0  0  0
    8.3721  -17.6850   20.9614 C   0  0  1  0  0  0  0  0  0  0  0  0
    8.9959  -16.5082   20.2325 C   0  0  0  0  0  0  0  0  0  0  0  0
   10.0727  -15.8517   21.0344 C   0  0  0  0  0  0  0  0  0  0  0  0
   11.3907  -16.4902   20.8619 C   0  0  0  0  0  0  0  0  0  0  0  0
   12.1189  -16.1548   19.9017 O   0  0  0  0  0  0  0  0  0  0  0  0
    7.7242  -17.2498   22.2236 C   0  0  0  0  0  0  0  0  0  0  0  0
    6.8576  -16.3452   22.1584 O   0  0  0  0  0  0  0  0  0  0  0  0
   11.8311  -17.4509   21.7433 O   0  0  0  0  0  0  0  0  0  0  0  0
    8.0202  -17.7863   23.4859 N   0  0  0  0  0  0  0  0  0  0  0  0
    7.3156  -17.3237   24.6648 C   0  0  1  0  0  0  0  0  0  0  0  0
    7.3763  -18.2743   25.7907 C   0  0  0  0  0  0  0  0  0  0  0  0
    7.0608  -19.6732   25.3525 C   0  0  0  0  0  0  0  0  0  0  0  0
    7.0987  -20.6118   26.5402 C   0  0  0  0  0  0  0  0  0  0  0  0
    6.0381  -21.1502   26.9119 O   0  0  0  0  0  0  0  0  0  0  0  0
    7.9700  -16.0474   25.0591 C   0  0  0  0  0  0  0  0  0  0  0  0
    9.1756  -15.7627   24.8869 O   0  0  0  0  0  0  0  0  0  0  0  0
    8.2770  -20.8699   27.2007 O   0  0  0  0  0  0  0  0  0  0  0  0
    5.8687  -12.4780   25.2830 C   0  0  0  0  0  0  0  0  0  0  0  0
    6.7286  -12.7696   26.4704 C   0  0  2  0  0  0  0  0  0  0  0  0
    7.3011  -11.4855   27.0282 C   0  0  0  0  0  0  0  0  0  0  0  0
    7.8201  -13.7837   26.1817 C   0  0  2  0  0  0  0  0  0  0  0  0
    7.2237  -14.9866   25.7039 N   0  0  0  0  0  0  0  0  0  0  0  0
    8.7625  -13.9610   27.2850 C   0  0  0  0  0  0  0  0  0  0  0  0
    9.7044  -12.9716   27.5305 O   0  0  0  0  0  0  0  0  0  0  0  0
    8.7922  -14.9667   28.0548 O   0  0  0  0  0  0  0  0  0  0  0  0
  2  7  1  0
  2  1  1  6
  3  2  1  0
  4  5  1  0
  4  3  1  0
  5  6  2  0
  7 10  1  0
  8  7  2  0
  9  5  1  0
 10 11  1  0
 11 12  1  1
 12 13  1  0
 13 14  1  0
 14 15  2  0
 14 18  1  0
 16 17  2  0
 16 11  1  0
 20 19  1  6
 20 22  1  0
 21 20  1  0
 22 24  1  0
 22 23  1  1
 23 16  1  0
 24 25  1  0
 26 24  2  0
M  END
$$$$
