EEV.pdb
     RDKit          3D

 26 25  0  0  1  0  0  0  0  0999 V2000
    5.5423  -16.1157   19.6068 N   0  0  0  0  0  0  0  0  0  0  0  0
    6.7691  -16.5752   20.2337 C   0  0  1  0  0  0  0  0  0  0  0  0
    7.9015  -15.6985   19.7297 C   0  0  0  0  0  0  0  0  0  0  0  0
    7.5456  -14.2472   19.7489 C   0  0  0  0  0  0  0  0  0  0  0  0
    8.6668  -13.3732   19.3567 C   0  0  0  0  0  0  0  0  0  0  0  0
    9.7655  -13.8814   19.0414 O   0  0  0  0  0  0  0  0  0  0  0  0
    6.6028  -16.4423   21.7023 C   0  0  0  0  0  0  0  0  0  0  0  0
    5.7330  -15.6437   22.1259 O   0  0  0  0  0  0  0  0  0  0  0  0
    8.5211  -12.0051   19.3329 O   0  0  0  0  0  0  0  0  0  0  0  0
    7.3575  -17.1536   22.6475 N   0  0  0  0  0  0  0  0  0  0  0  0
    6.9920  -17.1282   24.0497 C   0  0  1  0  0  0  0  0  0  0  0  0
    7.3417  -18.3691   24.7658 C   0  0  0  0  0  0  0  0  0  0  0  0
    6.9525  -18.3024   26.2124 C   0  0  0  0  0  0  0  0  0  0  0  0
    7.3622  -19.5765   26.9209 C   0  0  0  0  0  0  0  0  0  0  0  0
    8.1361  -19.4979   27.8945 O   0  0  0  0  0  0  0  0  0  0  0  0
    7.7355  -15.9864   24.6465 C   0  0  0  0  0  0  0  0  0  0  0  0
    8.9329  -15.7008   24.4255 O   0  0  0  0  0  0  0  0  0  0  0  0
    6.8931  -20.8001   26.5039 O   0  0  0  0  0  0  0  0  0  0  0  0
    5.9731  -12.4502   25.4179 C   0  0  0  0  0  0  0  0  0  0  0  0
    6.7774  -12.9248   26.5849 C   0  0  2  0  0  0  0  0  0  0  0  0
    7.4495  -11.7538   27.2666 C   0  0  0  0  0  0  0  0  0  0  0  0
    7.7804  -14.0034   26.2189 C   0  0  2  0  0  0  0  0  0  0  0  0
    7.0974  -15.0751   25.5741 N   0  0  0  0  0  0  0  0  0  0  0  0
    8.6426  -14.4035   27.3294 C   0  0  0  0  0  0  0  0  0  0  0  0
    9.7029  -13.5825   27.6873 O   0  0  0  0  0  0  0  0  0  0  0  0
    8.4995  -15.4629   28.0093 O   0  0  0  0  0  0  0  0  0  0  0  0
  2  7  1  0
  2  1  1  6
  3  2  1  0
  4  5  1  0
  4  3  1  0
  5  6  2  0
  7 10  1  0
  8  7  2  0
  9  5  1  0
 10 11  1  0
 11 12  1  1
 12 13  1  0
 13 14  1  0
 14 15  2  0
 14 18  1  0
 16 17  2  0
 16 11  1  0
 20 19  1  6
 20 22  1  0
 21 20  1  0
 22 24  1  0
 22 23  1  1
 23 16  1  0
 24 25  1  0
 26 24  2  0
M  END
$$$$
