EEV.pdb
     RDKit          3D

 26 25  0  0  1  0  0  0  0  0999 V2000
    8.1130  -13.1695   18.8681 N   0  0  0  0  0  0  0  0  0  0  0  0
    8.5427  -14.4990   19.2645 C   0  0  1  0  0  0  0  0  0  0  0  0
   10.0549  -14.5516   19.1404 C   0  0  0  0  0  0  0  0  0  0  0  0
   10.7396  -13.8035   20.2381 C   0  0  0  0  0  0  0  0  0  0  0  0
   12.2086  -13.8067   20.1091 C   0  0  0  0  0  0  0  0  0  0  0  0
   12.9194  -13.7767   21.1380 O   0  0  0  0  0  0  0  0  0  0  0  0
    8.1137  -14.7119   20.6692 C   0  0  0  0  0  0  0  0  0  0  0  0
    7.5150  -13.7748   21.2498 O   0  0  0  0  0  0  0  0  0  0  0  0
   12.8089  -13.8420   18.8714 O   0  0  0  0  0  0  0  0  0  0  0  0
    8.3357  -15.8956   21.3892 N   0  0  0  0  0  0  0  0  0  0  0  0
    7.5827  -16.1743   22.5956 C   0  0  1  0  0  0  0  0  0  0  0  0
    7.5746  -17.6032   22.9607 C   0  0  0  0  0  0  0  0  0  0  0  0
    6.8818  -17.8367   24.2699 C   0  0  0  0  0  0  0  0  0  0  0  0
    6.8226  -19.3196   24.5703 C   0  0  0  0  0  0  0  0  0  0  0  0
    7.5810  -20.0876   23.9474 O   0  0  0  0  0  0  0  0  0  0  0  0
    8.2372  -15.3911   23.6776 C   0  0  0  0  0  0  0  0  0  0  0  0
    9.4704  -15.2548   23.8352 O   0  0  0  0  0  0  0  0  0  0  0  0
    5.9514  -19.8167   25.5112 O   0  0  0  0  0  0  0  0  0  0  0  0
    6.6689  -12.0011   25.2543 C   0  0  0  0  0  0  0  0  0  0  0  0
    7.0682  -12.9803   26.3107 C   0  0  2  0  0  0  0  0  0  0  0  0
    7.6263  -12.2522   27.5133 C   0  0  0  0  0  0  0  0  0  0  0  0
    8.0314  -14.0401   25.8082 C   0  0  2  0  0  0  0  0  0  0  0  0
    7.4574  -14.6933   24.6791 N   0  0  0  0  0  0  0  0  0  0  0  0
    8.5160  -14.9364   26.8563 C   0  0  0  0  0  0  0  0  0  0  0  0
    9.5179  -14.4943   27.7090 O   0  0  0  0  0  0  0  0  0  0  0  0
    8.0875  -16.1116   27.0566 O   0  0  0  0  0  0  0  0  0  0  0  0
  2  7  1  0
  2  1  1  1
  3  2  1  0
  4  5  1  0
  4  3  1  0
  5  6  2  0
  7 10  1  0
  8  7  2  0
  9  5  1  0
 10 11  1  0
 11 12  1  1
 12 13  1  0
 13 14  1  0
 14 15  2  0
 14 18  1  0
 16 17  2  0
 16 11  1  0
 20 19  1  6
 20 22  1  0
 21 20  1  0
 22 24  1  0
 22 23  1  6
 23 16  1  0
 24 25  1  0
 26 24  2  0
M  END
$$$$
