EEV.pdb
     RDKit          3D

 26 25  0  0  1  0  0  0  0  0999 V2000
    6.5888  -15.5424   19.3476 N   0  0  0  0  0  0  0  0  0  0  0  0
    7.7157  -14.9581   20.0532 C   0  0  1  0  0  0  0  0  0  0  0  0
    7.5504  -13.4493   20.0182 C   0  0  0  0  0  0  0  0  0  0  0  0
    7.6383  -12.9022   18.6302 C   0  0  0  0  0  0  0  0  0  0  0  0
    8.9470  -13.1462   17.9960 C   0  0  0  0  0  0  0  0  0  0  0  0
    9.9147  -13.5151   18.6977 O   0  0  0  0  0  0  0  0  0  0  0  0
    7.6884  -15.4669   21.4470 C   0  0  0  0  0  0  0  0  0  0  0  0
    6.5870  -15.4783   22.0476 O   0  0  0  0  0  0  0  0  0  0  0  0
    9.1189  -12.9734   16.6416 O   0  0  0  0  0  0  0  0  0  0  0  0
    8.8173  -15.9359   22.1360 N   0  0  0  0  0  0  0  0  0  0  0  0
    8.6872  -16.4901   23.4687 C   0  0  1  0  0  0  0  0  0  0  0  0
    9.5737  -17.6439   23.7093 C   0  0  0  0  0  0  0  0  0  0  0  0
    9.2378  -18.7973   22.8117 C   0  0  0  0  0  0  0  0  0  0  0  0
   10.2199  -19.9292   23.0291 C   0  0  0  0  0  0  0  0  0  0  0  0
   10.9774  -20.2526   22.0939 O   0  0  0  0  0  0  0  0  0  0  0  0
    9.0409  -15.3908   24.4063 C   0  0  0  0  0  0  0  0  0  0  0  0
   10.0287  -14.6311   24.2996 O   0  0  0  0  0  0  0  0  0  0  0  0
   10.2805  -20.5920   24.2325 O   0  0  0  0  0  0  0  0  0  0  0  0
    6.9352  -12.5449   25.3633 C   0  0  0  0  0  0  0  0  0  0  0  0
    7.3605  -13.1527   26.6610 C   0  0  2  0  0  0  0  0  0  0  0  0
    7.6308  -12.0692   27.6812 C   0  0  0  0  0  0  0  0  0  0  0  0
    8.5459  -14.0899   26.5204 C   0  0  2  0  0  0  0  0  0  0  0  0
    8.2282  -15.1034   25.5703 N   0  0  0  0  0  0  0  0  0  0  0  0
    9.0579  -14.5833   27.7976 C   0  0  0  0  0  0  0  0  0  0  0  0
    9.9792  -13.8145   28.4951 O   0  0  0  0  0  0  0  0  0  0  0  0
    8.7228  -15.6808   28.3344 O   0  0  0  0  0  0  0  0  0  0  0  0
  2  7  1  0
  2  1  1  6
  3  2  1  0
  4  5  1  0
  4  3  1  0
  5  6  2  0
  7 10  1  0
  8  7  2  0
  9  5  1  0
 10 11  1  0
 11 12  1  6
 12 13  1  0
 13 14  1  0
 14 15  2  0
 14 18  1  0
 16 17  2  0
 16 11  1  0
 20 19  1  6
 20 22  1  0
 21 20  1  0
 22 24  1  0
 22 23  1  6
 23 16  1  0
 24 25  1  0
 26 24  2  0
M  END
$$$$
