NYI.pdb
     RDKit          3D

 29 29  0  0  1  0  0  0  0  0999 V2000
    7.2016  -21.8953   23.4287 N   0  0  0  0  0  0  0  0  0  0  0  0
    8.3948  -21.8559   22.6619 C   0  0  0  0  0  0  0  0  0  0  0  0
    8.7260  -22.9108   22.0663 O   0  0  0  0  0  0  0  0  0  0  0  0
    9.2266  -20.6184   22.5614 C   0  0  0  0  0  0  0  0  0  0  0  0
    8.3252  -19.4321   22.1980 C   0  0  2  0  0  0  0  0  0  0  0  0
    7.8804  -19.5676   20.8481 N   0  0  0  0  0  0  0  0  0  0  0  0
    9.0542  -18.1665   22.4686 C   0  0  0  0  0  0  0  0  0  0  0  0
   10.2802  -18.1264   22.2587 O   0  0  0  0  0  0  0  0  0  0  0  0
    6.9666  -13.0720   17.8306 O   0  0  0  0  0  0  0  0  0  0  0  0
    7.3041  -13.4295   19.1415 C   0  0  0  0  0  0  0  0  0  0  0  0
    6.4876  -14.2611   19.8779 C   0  0  0  0  0  0  0  0  0  0  0  0
    6.8164  -14.6200   21.1796 C   0  0  0  0  0  0  0  0  0  0  0  0
    7.9666  -14.1636   21.7897 C   0  0  0  0  0  0  0  0  0  0  0  0
    8.3156  -14.5400   23.1607 C   0  0  0  0  0  0  0  0  0  0  0  0
    9.1732  -15.8036   23.2347 C   0  0  2  0  0  0  0  0  0  0  0  0
    8.4163  -16.9831   22.9612 N   0  0  0  0  0  0  0  0  0  0  0  0
    9.9161  -15.8620   24.5179 C   0  0  0  0  0  0  0  0  0  0  0  0
   11.1714  -15.9549   24.4454 O   0  0  0  0  0  0  0  0  0  0  0  0
    8.7797  -13.3306   21.0450 C   0  0  0  0  0  0  0  0  0  0  0  0
    8.4554  -12.9689   19.7434 C   0  0  0  0  0  0  0  0  0  0  0  0
    8.0802  -12.4377   27.5790 C   0  0  0  0  0  0  0  0  0  0  0  0
    9.2982  -13.1966   27.0897 C   0  0  0  0  0  0  0  0  0  0  0  0
    9.4704  -14.4992   27.8373 C   0  0  2  0  0  0  0  0  0  0  0  0
   10.1690  -14.2198   29.1247 C   0  0  0  0  0  0  0  0  0  0  0  0
   10.1132  -15.5767   26.9943 C   0  0  2  0  0  0  0  0  0  0  0  0
    9.3280  -15.8217   25.7845 N   0  0  0  0  0  0  0  0  0  0  0  0
   10.2468  -16.8657   27.7161 C   0  0  0  0  0  0  0  0  0  0  0  0
    9.3561  -17.7787   27.6441 O   0  0  0  0  0  0  0  0  0  0  0  0
   11.3388  -17.1723   28.5144 O   0  0  0  0  0  0  0  0  0  0  0  0
  2  1  1  0
  3  2  2  0
  4  5  1  0
  4  2  1  0
  5  6  1  6
  7  5  1  0
  7  8  2  0
  9 10  1  0
 10 11  2  0
 11 12  1  0
 13 12  2  0
 13 14  1  0
 15 14  1  1
 15 16  1  0
 16  7  1  0
 17 18  2  0
 17 15  1  0
 19 13  1  0
 20 10  1  0
 20 19  2  0
 22 21  1  0
 23 22  1  0
 23 24  1  1
 25 26  1  6
 25 23  1  0
 26 17  1  0
 27 25  1  0
 28 27  2  0
 29 27  1  0
M  END
$$$$
