NYI.pdb
     RDKit          3D

 29 29  0  0  1  0  0  0  0  0999 V2000
   11.8665  -19.2932   18.2884 N   0  0  0  0  0  0  0  0  0  0  0  0
   12.4766  -19.4990   19.5528 C   0  0  0  0  0  0  0  0  0  0  0  0
   13.1647  -20.5403   19.6922 O   0  0  0  0  0  0  0  0  0  0  0  0
   12.3135  -18.5251   20.6745 C   0  0  0  0  0  0  0  0  0  0  0  0
   11.3761  -17.3955   20.2303 C   0  0  2  0  0  0  0  0  0  0  0  0
   12.0223  -16.6048   19.2324 N   0  0  0  0  0  0  0  0  0  0  0  0
   10.9438  -16.6244   21.4240 C   0  0  0  0  0  0  0  0  0  0  0  0
   11.7502  -15.8362   21.9505 O   0  0  0  0  0  0  0  0  0  0  0  0
    5.9644  -11.9700   27.0234 O   0  0  0  0  0  0  0  0  0  0  0  0
    6.3937  -12.8591   26.0308 C   0  0  0  0  0  0  0  0  0  0  0  0
    7.0563  -12.4005   24.9123 C   0  0  0  0  0  0  0  0  0  0  0  0
    7.4852  -13.2773   23.9231 C   0  0  0  0  0  0  0  0  0  0  0  0
    7.2688  -14.6368   24.0147 C   0  0  0  0  0  0  0  0  0  0  0  0
    7.7195  -15.5629   22.9744 C   0  0  0  0  0  0  0  0  0  0  0  0
    9.2186  -15.8554   23.0417 C   0  0  2  0  0  0  0  0  0  0  0  0
    9.6400  -16.7413   22.0041 N   0  0  0  0  0  0  0  0  0  0  0  0
    9.6068  -16.3087   24.4003 C   0  0  0  0  0  0  0  0  0  0  0  0
    9.8307  -17.5408   24.5472 O   0  0  0  0  0  0  0  0  0  0  0  0
    6.6040  -15.0885   25.1388 C   0  0  0  0  0  0  0  0  0  0  0  0
    6.1732  -14.2161   26.1305 C   0  0  0  0  0  0  0  0  0  0  0  0
   10.1651  -12.4906   28.4632 C   0  0  0  0  0  0  0  0  0  0  0  0
   10.5254  -13.5215   27.4114 C   0  0  0  0  0  0  0  0  0  0  0  0
   10.1516  -14.9161   27.8589 C   0  0  2  0  0  0  0  0  0  0  0  0
   10.8811  -15.2214   29.1231 C   0  0  0  0  0  0  0  0  0  0  0  0
   10.3269  -15.9471   26.7674 C   0  0  2  0  0  0  0  0  0  0  0  0
    9.7397  -15.4750   25.5134 N   0  0  0  0  0  0  0  0  0  0  0  0
    9.6966  -17.2478   27.1010 C   0  0  0  0  0  0  0  0  0  0  0  0
    8.4818  -17.5087   26.8041 O   0  0  0  0  0  0  0  0  0  0  0  0
   10.3736  -18.2675   27.7535 O   0  0  0  0  0  0  0  0  0  0  0  0
  2  1  1  0
  3  2  2  0
  4  5  1  0
  4  2  1  0
  5  6  1  6
  7  5  1  0
  7  8  2  0
  9 10  1  0
 10 11  2  0
 11 12  1  0
 13 12  2  0
 13 14  1  0
 15 14  1  1
 15 16  1  0
 16  7  1  0
 17 18  2  0
 17 15  1  0
 19 13  1  0
 20 10  1  0
 20 19  2  0
 22 21  1  0
 23 22  1  0
 23 24  1  1
 25 26  1  6
 25 23  1  0
 26 17  1  0
 27 25  1  0
 28 27  2  0
 29 27  1  0
M  END
$$$$
