NYI.pdb
     RDKit          3D

 29 29  0  0  1  0  0  0  0  0999 V2000
    8.0619  -12.7554   17.2322 N   0  0  0  0  0  0  0  0  0  0  0  0
    7.6837  -14.1112   17.4115 C   0  0  0  0  0  0  0  0  0  0  0  0
    7.6968  -14.8471   16.3939 O   0  0  0  0  0  0  0  0  0  0  0  0
    7.2864  -14.6484   18.7482 C   0  0  0  0  0  0  0  0  0  0  0  0
    8.5469  -14.9195   19.5786 C   0  0  2  0  0  0  0  0  0  0  0  0
    9.3703  -15.8676   18.8993 N   0  0  0  0  0  0  0  0  0  0  0  0
    8.1473  -15.3386   20.9465 C   0  0  0  0  0  0  0  0  0  0  0  0
    7.3137  -14.6502   21.5629 O   0  0  0  0  0  0  0  0  0  0  0  0
    7.6536  -19.4917   28.7664 O   0  0  0  0  0  0  0  0  0  0  0  0
    7.9231  -19.1848   27.4273 C   0  0  0  0  0  0  0  0  0  0  0  0
    6.9202  -19.2128   26.4819 C   0  0  0  0  0  0  0  0  0  0  0  0
    7.1806  -18.9094   25.1510 C   0  0  0  0  0  0  0  0  0  0  0  0
    8.4457  -18.5689   24.7183 C   0  0  0  0  0  0  0  0  0  0  0  0
    8.7231  -18.2487   23.3171 C   0  0  0  0  0  0  0  0  0  0  0  0
    8.2722  -16.8417   22.9238 C   0  0  2  0  0  0  0  0  0  0  0  0
    8.6744  -16.5002   21.5970 N   0  0  0  0  0  0  0  0  0  0  0  0
    8.6929  -15.8490   23.9433 C   0  0  0  0  0  0  0  0  0  0  0  0
    9.9007  -15.4879   23.9222 O   0  0  0  0  0  0  0  0  0  0  0  0
    9.4454  -18.5431   25.6720 C   0  0  0  0  0  0  0  0  0  0  0  0
    9.1902  -18.8456   27.0037 C   0  0  0  0  0  0  0  0  0  0  0  0
    6.4113  -10.9824   26.8504 C   0  0  0  0  0  0  0  0  0  0  0  0
    7.5513  -11.9761   26.7421 C   0  0  0  0  0  0  0  0  0  0  0  0
    7.1397  -13.2005   25.9570 C   0  0  2  0  0  0  0  0  0  0  0  0
    5.9267  -13.7886   26.5945 C   0  0  0  0  0  0  0  0  0  0  0  0
    8.2776  -14.1745   25.7534 C   0  0  2  0  0  0  0  0  0  0  0  0
    7.8536  -15.2941   24.9125 N   0  0  0  0  0  0  0  0  0  0  0  0
    8.7881  -14.7342   27.0288 C   0  0  0  0  0  0  0  0  0  0  0  0
    9.4039  -14.0151   27.8866 O   0  0  0  0  0  0  0  0  0  0  0  0
    8.6355  -16.0669   27.3810 O   0  0  0  0  0  0  0  0  0  0  0  0
  2  1  1  0
  3  2  2  0
  4  5  1  0
  4  2  1  0
  5  6  1  6
  7  5  1  0
  7  8  2  0
  9 10  1  0
 10 11  2  0
 11 12  1  0
 13 12  2  0
 13 14  1  0
 15 14  1  1
 15 16  1  0
 16  7  1  0
 17 18  2  0
 17 15  1  0
 19 13  1  0
 20 10  1  0
 20 19  2  0
 22 21  1  0
 23 22  1  0
 23 24  1  1
 25 26  1  6
 25 23  1  0
 26 17  1  0
 27 25  1  0
 28 27  2  0
 29 27  1  0
M  END
$$$$
