NYI.pdb
     RDKit          3D

 29 29  0  0  1  0  0  0  0  0999 V2000
    8.3150  -12.6042   17.0241 N   0  0  0  0  0  0  0  0  0  0  0  0
    7.8843  -13.9341   17.2674 C   0  0  0  0  0  0  0  0  0  0  0  0
    8.0961  -14.7777   16.3615 O   0  0  0  0  0  0  0  0  0  0  0  0
    7.2082  -14.3227   18.5422 C   0  0  0  0  0  0  0  0  0  0  0  0
    8.2641  -14.7870   19.5528 C   0  0  2  0  0  0  0  0  0  0  0  0
    8.9849  -15.8952   19.0137 N   0  0  0  0  0  0  0  0  0  0  0  0
    7.6020  -15.0727   20.8514 C   0  0  0  0  0  0  0  0  0  0  0  0
    6.8723  -14.1995   21.3551 O   0  0  0  0  0  0  0  0  0  0  0  0
    2.4036  -19.3875   19.6113 O   0  0  0  0  0  0  0  0  0  0  0  0
    3.4636  -19.0318   20.4538 C   0  0  0  0  0  0  0  0  0  0  0  0
    3.2236  -18.4914   21.6992 C   0  0  0  0  0  0  0  0  0  0  0  0
    4.2710  -18.1361   22.5406 C   0  0  0  0  0  0  0  0  0  0  0  0
    5.5891  -18.3067   22.1706 C   0  0  0  0  0  0  0  0  0  0  0  0
    6.6944  -17.9334   23.0549 C   0  0  0  0  0  0  0  0  0  0  0  0
    7.1698  -16.4955   22.8448 C   0  0  2  0  0  0  0  0  0  0  0  0
    7.7605  -16.3076   21.5585 N   0  0  0  0  0  0  0  0  0  0  0  0
    8.0400  -16.0590   23.9647 C   0  0  0  0  0  0  0  0  0  0  0  0
    9.2849  -16.1565   23.7899 O   0  0  0  0  0  0  0  0  0  0  0  0
    5.8213  -18.8489   20.9209 C   0  0  0  0  0  0  0  0  0  0  0  0
    4.7778  -19.2058   20.0761 C   0  0  0  0  0  0  0  0  0  0  0  0
    6.3824  -11.8250   26.8932 C   0  0  0  0  0  0  0  0  0  0  0  0
    7.2456  -12.7808   26.0932 C   0  0  0  0  0  0  0  0  0  0  0  0
    7.7892  -13.8901   26.9645 C   0  0  2  0  0  0  0  0  0  0  0  0
    8.6153  -13.2828   28.0473 C   0  0  0  0  0  0  0  0  0  0  0  0
    8.4894  -14.9683   26.1695 C   0  0  2  0  0  0  0  0  0  0  0  0
    7.5809  -15.5539   25.1836 N   0  0  0  0  0  0  0  0  0  0  0  0
    9.0015  -16.0684   27.0227 C   0  0  0  0  0  0  0  0  0  0  0  0
   10.0593  -15.9432   27.7281 O   0  0  0  0  0  0  0  0  0  0  0  0
    8.3753  -17.3023   27.1172 O   0  0  0  0  0  0  0  0  0  0  0  0
  2  1  1  0
  3  2  2  0
  4  5  1  0
  4  2  1  0
  5  6  1  6
  7  5  1  0
  7  8  2  0
  9 10  1  0
 10 11  2  0
 11 12  1  0
 13 12  2  0
 13 14  1  0
 15 14  1  1
 15 16  1  0
 16  7  1  0
 17 18  2  0
 17 15  1  0
 19 13  1  0
 20 10  1  0
 20 19  2  0
 22 21  1  0
 23 22  1  0
 23 24  1  1
 25 26  1  6
 25 23  1  0
 26 17  1  0
 27 25  1  0
 28 27  2  0
 29 27  1  0
M  END
$$$$
