NYI.pdb
     RDKit          3D

 29 29  0  0  1  0  0  0  0  0999 V2000
   11.0921  -20.1573   18.8815 N   0  0  0  0  0  0  0  0  0  0  0  0
   12.0165  -20.0231   19.9496 C   0  0  0  0  0  0  0  0  0  0  0  0
   12.8557  -20.9456   20.0978 O   0  0  0  0  0  0  0  0  0  0  0  0
   11.9999  -18.8400   20.8623 C   0  0  0  0  0  0  0  0  0  0  0  0
   10.9789  -17.8185   20.3465 C   0  0  2  0  0  0  0  0  0  0  0  0
   11.5226  -17.1277   19.2215 N   0  0  0  0  0  0  0  0  0  0  0  0
   10.5756  -16.9270   21.4641 C   0  0  0  0  0  0  0  0  0  0  0  0
   11.3646  -16.0390   21.8348 O   0  0  0  0  0  0  0  0  0  0  0  0
    6.0710  -11.8377   27.0225 O   0  0  0  0  0  0  0  0  0  0  0  0
    6.4137  -12.8228   26.0887 C   0  0  0  0  0  0  0  0  0  0  0  0
    7.0287  -12.4857   24.9019 C   0  0  0  0  0  0  0  0  0  0  0  0
    7.3717  -13.4584   23.9704 C   0  0  0  0  0  0  0  0  0  0  0  0
    7.1141  -14.7960   24.1895 C   0  0  0  0  0  0  0  0  0  0  0  0
    7.4742  -15.8228   23.2102 C   0  0  0  0  0  0  0  0  0  0  0  0
    8.9714  -16.1321   23.1902 C   0  0  2  0  0  0  0  0  0  0  0  0
    9.3188  -17.0366   22.1414 N   0  0  0  0  0  0  0  0  0  0  0  0
    9.4368  -16.5719   24.5288 C   0  0  0  0  0  0  0  0  0  0  0  0
    9.3463  -17.8026   24.7873 O   0  0  0  0  0  0  0  0  0  0  0  0
    6.4975  -15.1256   25.3815 C   0  0  0  0  0  0  0  0  0  0  0  0
    6.1527  -14.1570   26.3158 C   0  0  0  0  0  0  0  0  0  0  0  0
    9.8294  -13.6080   29.4536 C   0  0  0  0  0  0  0  0  0  0  0  0
    9.5340  -14.6388   28.3817 C   0  0  0  0  0  0  0  0  0  0  0  0
   10.8050  -15.1297   27.7269 C   0  0  2  0  0  0  0  0  0  0  0  0
   11.5351  -13.9564   27.1669 C   0  0  0  0  0  0  0  0  0  0  0  0
   10.5599  -16.2475   26.7393 C   0  0  2  0  0  0  0  0  0  0  0  0
    9.9618  -15.7270   25.5098 N   0  0  0  0  0  0  0  0  0  0  0  0
    9.6570  -17.2963   27.2732 C   0  0  0  0  0  0  0  0  0  0  0  0
   10.0122  -18.0808   28.2169 O   0  0  0  0  0  0  0  0  0  0  0  0
    8.3723  -17.5006   26.7921 O   0  0  0  0  0  0  0  0  0  0  0  0
  2  1  1  0
  3  2  2  0
  4  5  1  0
  4  2  1  0
  5  6  1  6
  7  5  1  0
  7  8  2  0
  9 10  1  0
 10 11  2  0
 11 12  1  0
 13 12  2  0
 13 14  1  0
 15 14  1  1
 15 16  1  0
 16  7  1  0
 17 18  2  0
 17 15  1  0
 19 13  1  0
 20 10  1  0
 20 19  2  0
 22 21  1  0
 23 22  1  0
 23 24  1  6
 25 26  1  6
 25 23  1  0
 26 17  1  0
 27 25  1  0
 28 27  2  0
 29 27  1  0
M  END
$$$$
