NYI.pdb
     RDKit          3D

 29 29  0  0  1  0  0  0  0  0999 V2000
   12.5369  -17.3854   16.9667 N   0  0  0  0  0  0  0  0  0  0  0  0
   12.8981  -17.1818   18.3237 C   0  0  0  0  0  0  0  0  0  0  0  0
   14.0267  -17.5992   18.6830 O   0  0  0  0  0  0  0  0  0  0  0  0
   11.9827  -16.5015   19.2894 C   0  0  0  0  0  0  0  0  0  0  0  0
   11.8721  -17.3486   20.5630 C   0  0  2  0  0  0  0  0  0  0  0  0
   11.0656  -18.4976   20.3025 N   0  0  0  0  0  0  0  0  0  0  0  0
   11.3688  -16.4973   21.6712 C   0  0  0  0  0  0  0  0  0  0  0  0
   12.0192  -15.4855   21.9905 O   0  0  0  0  0  0  0  0  0  0  0  0
    6.9791  -13.3381   18.0882 O   0  0  0  0  0  0  0  0  0  0  0  0
    7.2722  -13.8952   19.3387 C   0  0  0  0  0  0  0  0  0  0  0  0
    7.7639  -13.1125   20.3614 C   0  0  0  0  0  0  0  0  0  0  0  0
    8.0570  -13.6588   21.6052 C   0  0  0  0  0  0  0  0  0  0  0  0
    7.8706  -14.9997   21.8710 C   0  0  0  0  0  0  0  0  0  0  0  0
    8.1783  -15.5780   23.1802 C   0  0  0  0  0  0  0  0  0  0  0  0
    9.6674  -15.8669   23.3720 C   0  0  2  0  0  0  0  0  0  0  0  0
   10.1670  -16.7815   22.3959 N   0  0  0  0  0  0  0  0  0  0  0  0
    9.9484  -16.2810   24.7689 C   0  0  0  0  0  0  0  0  0  0  0  0
   10.3514  -17.4630   24.9424 O   0  0  0  0  0  0  0  0  0  0  0  0
    7.3773  -15.7775   20.8407 C   0  0  0  0  0  0  0  0  0  0  0  0
    7.0828  -15.2361   19.5956 C   0  0  0  0  0  0  0  0  0  0  0  0
   10.0224  -12.2765   28.5743 C   0  0  0  0  0  0  0  0  0  0  0  0
   10.4083  -13.3926   27.6235 C   0  0  0  0  0  0  0  0  0  0  0  0
   10.0931  -14.7489   28.2121 C   0  0  2  0  0  0  0  0  0  0  0  0
   10.8735  -14.9134   29.4720 C   0  0  0  0  0  0  0  0  0  0  0  0
   10.2637  -15.8727   27.2157 C   0  0  2  0  0  0  0  0  0  0  0  0
    9.7992  -15.4618   25.8907 N   0  0  0  0  0  0  0  0  0  0  0  0
    9.5168  -17.0960   27.5980 C   0  0  0  0  0  0  0  0  0  0  0  0
    8.2906  -17.2679   27.2834 O   0  0  0  0  0  0  0  0  0  0  0  0
   10.0894  -18.1339   28.3181 O   0  0  0  0  0  0  0  0  0  0  0  0
  2  1  1  0
  3  2  2  0
  4  5  1  0
  4  2  1  0
  5  6  1  6
  7  5  1  0
  7  8  2  0
  9 10  1  0
 10 11  2  0
 11 12  1  0
 13 12  2  0
 13 14  1  0
 15 14  1  1
 15 16  1  0
 16  7  1  0
 17 18  2  0
 17 15  1  0
 19 13  1  0
 20 10  1  0
 20 19  2  0
 22 21  1  0
 23 22  1  0
 23 24  1  1
 25 26  1  6
 25 23  1  0
 26 17  1  0
 27 25  1  0
 28 27  2  0
 29 27  1  0
M  END
$$$$
