NYI.pdb
     RDKit          3D

 29 29  0  0  1  0  0  0  0  0999 V2000
   11.1993  -19.2065   18.3640 N   0  0  0  0  0  0  0  0  0  0  0  0
   11.2074  -19.6958   19.6959 C   0  0  0  0  0  0  0  0  0  0  0  0
   11.3125  -20.9381   19.8473 O   0  0  0  0  0  0  0  0  0  0  0  0
   11.0967  -18.7809   20.8723 C   0  0  0  0  0  0  0  0  0  0  0  0
   10.9054  -17.3422   20.3770 C   0  0  2  0  0  0  0  0  0  0  0  0
   12.0910  -16.9055   19.7122 N   0  0  0  0  0  0  0  0  0  0  0  0
   10.5043  -16.4833   21.5207 C   0  0  0  0  0  0  0  0  0  0  0  0
   11.3765  -15.8055   22.0938 O   0  0  0  0  0  0  0  0  0  0  0  0
    6.1655  -11.5825   27.4149 O   0  0  0  0  0  0  0  0  0  0  0  0
    6.4654  -12.4554   26.3622 C   0  0  0  0  0  0  0  0  0  0  0  0
    7.0237  -11.9843   25.1931 C   0  0  0  0  0  0  0  0  0  0  0  0
    7.3239  -12.8450   24.1441 C   0  0  0  0  0  0  0  0  0  0  0  0
    7.0786  -14.2003   24.2244 C   0  0  0  0  0  0  0  0  0  0  0  0
    7.3938  -15.1094   23.1212 C   0  0  0  0  0  0  0  0  0  0  0  0
    8.8411  -15.6015   23.1458 C   0  0  2  0  0  0  0  0  0  0  0  0
    9.1584  -16.3939   22.0011 N   0  0  0  0  0  0  0  0  0  0  0  0
    9.1479  -16.2728   24.4331 C   0  0  0  0  0  0  0  0  0  0  0  0
    9.1805  -17.5332   24.4246 O   0  0  0  0  0  0  0  0  0  0  0  0
    6.5189  -14.6646   25.3996 C   0  0  0  0  0  0  0  0  0  0  0  0
    6.2170  -13.8083   26.4510 C   0  0  0  0  0  0  0  0  0  0  0  0
   10.3494  -13.0835   28.8993 C   0  0  0  0  0  0  0  0  0  0  0  0
   10.5369  -13.9861   27.6956 C   0  0  0  0  0  0  0  0  0  0  0  0
   10.0597  -15.3913   27.9834 C   0  0  2  0  0  0  0  0  0  0  0  0
   10.8311  -15.9277   29.1413 C   0  0  0  0  0  0  0  0  0  0  0  0
   10.0705  -16.2752   26.7572 C   0  0  2  0  0  0  0  0  0  0  0  0
    9.4000  -15.6128   25.6384 N   0  0  0  0  0  0  0  0  0  0  0  0
    9.3958  -17.5768   26.9830 C   0  0  0  0  0  0  0  0  0  0  0  0
   10.0147  -18.5878   27.4595 O   0  0  0  0  0  0  0  0  0  0  0  0
    8.0556  -17.7902   26.6965 O   0  0  0  0  0  0  0  0  0  0  0  0
  2  1  1  0
  3  2  2  0
  4  5  1  0
  4  2  1  0
  5  6  1  1
  7  5  1  0
  7  8  2  0
  9 10  1  0
 10 11  2  0
 11 12  1  0
 13 12  2  0
 13 14  1  0
 15 14  1  1
 15 16  1  0
 16  7  1  0
 17 18  2  0
 17 15  1  0
 19 13  1  0
 20 10  1  0
 20 19  2  0
 22 21  1  0
 23 22  1  0
 23 24  1  1
 25 26  1  6
 25 23  1  0
 26 17  1  0
 27 25  1  0
 28 27  2  0
 29 27  1  0
M  END
$$$$
