NYI.pdb
     RDKit          3D

 29 29  0  0  1  0  0  0  0  0999 V2000
   10.4189  -20.3441   19.0596 N   0  0  0  0  0  0  0  0  0  0  0  0
   11.5560  -19.9723   19.8225 C   0  0  0  0  0  0  0  0  0  0  0  0
   12.6443  -20.5283   19.5334 O   0  0  0  0  0  0  0  0  0  0  0  0
   11.4718  -18.9644   20.9227 C   0  0  0  0  0  0  0  0  0  0  0  0
   10.9778  -17.6307   20.3491 C   0  0  2  0  0  0  0  0  0  0  0  0
   11.9794  -17.0797   19.4936 N   0  0  0  0  0  0  0  0  0  0  0  0
   10.5820  -16.7370   21.4675 C   0  0  0  0  0  0  0  0  0  0  0  0
   11.4505  -16.0179   21.9941 O   0  0  0  0  0  0  0  0  0  0  0  0
    5.8708  -11.7784   27.0964 O   0  0  0  0  0  0  0  0  0  0  0  0
    6.2504  -12.6517   26.0701 C   0  0  0  0  0  0  0  0  0  0  0  0
    6.9134  -12.1840   24.9556 C   0  0  0  0  0  0  0  0  0  0  0  0
    7.2932  -13.0451   23.9331 C   0  0  0  0  0  0  0  0  0  0  0  0
    7.0258  -14.3975   23.9864 C   0  0  0  0  0  0  0  0  0  0  0  0
    7.4247  -15.3071   22.9110 C   0  0  0  0  0  0  0  0  0  0  0  0
    8.8986  -15.7073   22.9811 C   0  0  2  0  0  0  0  0  0  0  0  0
    9.2452  -16.6590   21.9746 N   0  0  0  0  0  0  0  0  0  0  0  0
    9.2631  -16.1386   24.3534 C   0  0  0  0  0  0  0  0  0  0  0  0
    9.2440  -17.3779   24.5848 O   0  0  0  0  0  0  0  0  0  0  0  0
    6.3610  -14.8585   25.1068 C   0  0  0  0  0  0  0  0  0  0  0  0
    5.9792  -14.0017   26.1316 C   0  0  0  0  0  0  0  0  0  0  0  0
   11.2403  -13.9276   29.8640 C   0  0  0  0  0  0  0  0  0  0  0  0
   11.0873  -15.0845   28.8960 C   0  0  0  0  0  0  0  0  0  0  0  0
   10.5051  -14.6250   27.5789 C   0  0  2  0  0  0  0  0  0  0  0  0
    9.3512  -13.7228   27.8580 C   0  0  0  0  0  0  0  0  0  0  0  0
   10.1945  -15.7722   26.6449 C   0  0  2  0  0  0  0  0  0  0  0  0
    9.6215  -15.2771   25.3932 N   0  0  0  0  0  0  0  0  0  0  0  0
    9.2367  -16.7431   27.2284 C   0  0  0  0  0  0  0  0  0  0  0  0
    7.9778  -16.6573   27.0287 O   0  0  0  0  0  0  0  0  0  0  0  0
    9.6337  -17.8062   28.0259 O   0  0  0  0  0  0  0  0  0  0  0  0
  2  1  1  0
  3  2  2  0
  4  5  1  0
  4  2  1  0
  5  6  1  1
  7  5  1  0
  7  8  2  0
  9 10  1  0
 10 11  2  0
 11 12  1  0
 13 12  2  0
 13 14  1  0
 15 14  1  1
 15 16  1  0
 16  7  1  0
 17 18  2  0
 17 15  1  0
 19 13  1  0
 20 10  1  0
 20 19  2  0
 22 21  1  0
 23 22  1  0
 23 24  1  1
 25 26  1  6
 25 23  1  0
 26 17  1  0
 27 25  1  0
 28 27  2  0
 29 27  1  0
M  END
$$$$
