GTI.pdb
     RDKit          3D

 20 19  0  0  1  0  0  0  0  0999 V2000
   12.3935  -14.5313   18.7507 N   0  0  0  0  0  0  0  0  0  0  0  0
   11.6621  -15.3944   19.6315 C   0  0  0  0  0  0  0  0  0  0  0  0
   10.4423  -14.7150   20.1899 C   0  0  0  0  0  0  0  0  0  0  0  0
   10.1613  -13.5323   19.9038 O   0  0  0  0  0  0  0  0  0  0  0  0
    6.9435  -15.8949   20.0393 C   0  0  0  0  0  0  0  0  0  0  0  0
    7.2953  -15.8358   21.5120 C   0  0  1  0  0  0  0  0  0  0  0  0
    7.6486  -17.1135   21.9376 O   0  0  0  0  0  0  0  0  0  0  0  0
    8.4608  -14.8690   21.7477 C   0  0  2  0  0  0  0  0  0  0  0  0
    9.5949  -15.4264   21.0559 N   0  0  0  0  0  0  0  0  0  0  0  0
    8.7539  -14.8563   23.1966 C   0  0  0  0  0  0  0  0  0  0  0  0
    9.8219  -15.3830   23.5882 O   0  0  0  0  0  0  0  0  0  0  0  0
    5.7684  -11.2949   26.1656 C   0  0  0  0  0  0  0  0  0  0  0  0
    6.9528  -11.9805   25.5154 C   0  0  0  0  0  0  0  0  0  0  0  0
    7.1889  -13.2674   26.2618 C   0  0  2  0  0  0  0  0  0  0  0  0
    7.7573  -12.9261   27.6175 C   0  0  0  0  0  0  0  0  0  0  0  0
    8.1759  -14.1748   25.5710 C   0  0  2  0  0  0  0  0  0  0  0  0
    7.8856  -14.2783   24.1570 N   0  0  0  0  0  0  0  0  0  0  0  0
    8.2758  -15.5001   26.2130 C   0  0  0  0  0  0  0  0  0  0  0  0
    9.1189  -15.6988   27.1242 O   0  0  0  0  0  0  0  0  0  0  0  0
    7.4702  -16.5738   25.8607 O   0  0  0  0  0  0  0  0  0  0  0  0
  2  1  1  0
  3  4  2  0
  3  2  1  0
  6  5  1  6
  6  8  1  0
  7  6  1  0
  8  9  1  6
  9  3  1  0
 10  8  1  0
 10 17  1  0
 11 10  2  0
 12 13  1  0
 13 14  1  0
 14 16  1  0
 14 15  1  1
 16 17  1  6
 16 18  1  0
 18 19  2  0
 18 20  1  0
M  END
$$$$
