GTI.pdb
     RDKit          3D

 20 19  0  0  1  0  0  0  0  0999 V2000
    2.1355  -18.6396   21.3888 N   0  0  0  0  0  0  0  0  0  0  0  0
    3.3481  -17.8904   21.2338 C   0  0  0  0  0  0  0  0  0  0  0  0
    4.3549  -18.2357   22.2960 C   0  0  0  0  0  0  0  0  0  0  0  0
    4.1135  -19.0877   23.1767 O   0  0  0  0  0  0  0  0  0  0  0  0
    7.2525  -19.8688   21.9433 C   0  0  0  0  0  0  0  0  0  0  0  0
    7.7651  -18.5540   22.4953 C   0  0  1  0  0  0  0  0  0  0  0  0
    8.2104  -17.7688   21.4353 O   0  0  0  0  0  0  0  0  0  0  0  0
    6.6541  -17.8203   23.2542 C   0  0  2  0  0  0  0  0  0  0  0  0
    5.6001  -17.5849   22.3007 N   0  0  0  0  0  0  0  0  0  0  0  0
    7.1906  -16.5147   23.6936 C   0  0  0  0  0  0  0  0  0  0  0  0
    7.0211  -15.5238   22.9446 O   0  0  0  0  0  0  0  0  0  0  0  0
    6.5923  -11.8155   26.1738 C   0  0  0  0  0  0  0  0  0  0  0  0
    7.7992  -12.7224   26.0447 C   0  0  0  0  0  0  0  0  0  0  0  0
    7.2960  -14.0783   25.6234 C   0  0  2  0  0  0  0  0  0  0  0  0
    6.4291  -14.6224   26.7326 C   0  0  0  0  0  0  0  0  0  0  0  0
    8.4073  -15.0702   25.3875 C   0  0  2  0  0  0  0  0  0  0  0  0
    7.8841  -16.3349   24.9171 N   0  0  0  0  0  0  0  0  0  0  0  0
    9.2802  -15.2373   26.5658 C   0  0  0  0  0  0  0  0  0  0  0  0
    9.1995  -16.2757   27.2698 O   0  0  0  0  0  0  0  0  0  0  0  0
   10.2140  -14.2876   26.9559 O   0  0  0  0  0  0  0  0  0  0  0  0
  2  1  1  0
  3  4  2  0
  3  2  1  0
  6  5  1  6
  6  8  1  0
  7  6  1  0
  8  9  1  6
  9  3  1  0
 10  8  1  0
 10 17  1  0
 11 10  2  0
 12 13  1  0
 13 14  1  0
 14 16  1  0
 14 15  1  1
 16 17  1  1
 16 18  1  0
 18 19  2  0
 18 20  1  0
M  END
$$$$
