GTI.pdb
     RDKit          3D

 20 19  0  0  1  0  0  0  0  0999 V2000
    8.3288  -12.7348   17.8728 N   0  0  0  0  0  0  0  0  0  0  0  0
    8.9799  -13.6948   18.7156 C   0  0  0  0  0  0  0  0  0  0  0  0
    8.0156  -14.3394   19.6725 C   0  0  0  0  0  0  0  0  0  0  0  0
    6.9086  -14.7762   19.2938 O   0  0  0  0  0  0  0  0  0  0  0  0
    9.2233  -17.0726   21.3343 C   0  0  0  0  0  0  0  0  0  0  0  0
    7.7709  -16.6990   21.5517 C   0  0  1  0  0  0  0  0  0  0  0  0
    7.2353  -17.5390   22.5242 O   0  0  0  0  0  0  0  0  0  0  0  0
    7.6534  -15.2395   22.0041 C   0  0  2  0  0  0  0  0  0  0  0  0
    8.3661  -14.4549   21.0283 N   0  0  0  0  0  0  0  0  0  0  0  0
    8.3433  -15.1108   23.3052 C   0  0  0  0  0  0  0  0  0  0  0  0
    9.5968  -15.1040   23.3115 O   0  0  0  0  0  0  0  0  0  0  0  0
    5.7005  -11.7767   26.3910 C   0  0  0  0  0  0  0  0  0  0  0  0
    6.8050  -12.4764   25.6254 C   0  0  0  0  0  0  0  0  0  0  0  0
    7.3191  -13.5895   26.5005 C   0  0  2  0  0  0  0  0  0  0  0  0
    8.0959  -12.9718   27.6376 C   0  0  0  0  0  0  0  0  0  0  0  0
    8.2486  -14.5278   25.7725 C   0  0  2  0  0  0  0  0  0  0  0  0
    7.6538  -14.9955   24.5388 N   0  0  0  0  0  0  0  0  0  0  0  0
    8.7097  -15.6437   26.6214 C   0  0  0  0  0  0  0  0  0  0  0  0
    9.5976  -15.4515   27.4903 O   0  0  0  0  0  0  0  0  0  0  0  0
    8.2066  -16.9328   26.5151 O   0  0  0  0  0  0  0  0  0  0  0  0
  2  1  1  0
  3  4  2  0
  3  2  1  0
  6  5  1  1
  6  8  1  0
  7  6  1  0
  8  9  1  6
  9  3  1  0
 10  8  1  0
 10 17  1  0
 11 10  2  0
 12 13  1  0
 13 14  1  0
 14 16  1  0
 14 15  1  1
 16 17  1  6
 16 18  1  0
 18 19  2  0
 18 20  1  0
M  END
$$$$
