GTI.pdb
     RDKit          3D

 20 19  0  0  1  0  0  0  0  0999 V2000
   12.2379  -17.7726   19.8375 N   0  0  0  0  0  0  0  0  0  0  0  0
   11.3014  -17.9144   20.9139 C   0  0  0  0  0  0  0  0  0  0  0  0
   10.8436  -16.5792   21.4323 C   0  0  0  0  0  0  0  0  0  0  0  0
   11.6278  -15.7936   22.0048 O   0  0  0  0  0  0  0  0  0  0  0  0
    6.9514  -13.4970   21.5994 C   0  0  0  0  0  0  0  0  0  0  0  0
    7.6125  -14.7633   21.0940 C   0  0  1  0  0  0  0  0  0  0  0  0
    7.9478  -14.5871   19.7542 O   0  0  0  0  0  0  0  0  0  0  0  0
    8.8731  -15.0733   21.9085 C   0  0  2  0  0  0  0  0  0  0  0  0
    9.4996  -16.2027   21.2702 N   0  0  0  0  0  0  0  0  0  0  0  0
    8.4486  -15.4766   23.2659 C   0  0  0  0  0  0  0  0  0  0  0  0
    8.3083  -16.6996   23.5024 O   0  0  0  0  0  0  0  0  0  0  0  0
    5.8579  -11.7486   26.6659 C   0  0  0  0  0  0  0  0  0  0  0  0
    6.2711  -12.8505   25.7116 C   0  0  0  0  0  0  0  0  0  0  0  0
    7.3251  -13.6717   26.4071 C   0  0  2  0  0  0  0  0  0  0  0  0
    8.5579  -12.8156   26.5657 C   0  0  0  0  0  0  0  0  0  0  0  0
    7.7225  -14.9000   25.6274 C   0  0  2  0  0  0  0  0  0  0  0  0
    8.1946  -14.5467   24.3057 N   0  0  0  0  0  0  0  0  0  0  0  0
    6.6510  -15.9139   25.5787 C   0  0  0  0  0  0  0  0  0  0  0  0
    6.4252  -16.6430   26.5776 O   0  0  0  0  0  0  0  0  0  0  0  0
    5.8527  -16.1176   24.4619 O   0  0  0  0  0  0  0  0  0  0  0  0
  2  1  1  0
  3  4  2  0
  3  2  1  0
  6  5  1  1
  6  8  1  0
  7  6  1  0
  8  9  1  6
  9  3  1  0
 10  8  1  0
 10 17  1  0
 11 10  2  0
 12 13  1  0
 13 14  1  0
 14 16  1  0
 14 15  1  6
 16 17  1  6
 16 18  1  0
 18 19  2  0
 18 20  1  0
M  END
$$$$
