GTI.pdb
     RDKit          3D

 20 19  0  0  1  0  0  0  0  0999 V2000
    8.0962  -13.0516   17.6831 N   0  0  0  0  0  0  0  0  0  0  0  0
    8.8390  -13.5050   18.8226 C   0  0  0  0  0  0  0  0  0  0  0  0
    7.9323  -13.9610   19.9321 C   0  0  0  0  0  0  0  0  0  0  0  0
    6.7660  -13.5290   20.0457 O   0  0  0  0  0  0  0  0  0  0  0  0
    7.0545  -17.4176   20.5976 C   0  0  0  0  0  0  0  0  0  0  0  0
    7.7195  -16.9414   21.8732 C   0  0  1  0  0  0  0  0  0  0  0  0
    9.0496  -17.3529   21.8630 O   0  0  0  0  0  0  0  0  0  0  0  0
    7.6492  -15.4141   21.9780 C   0  0  2  0  0  0  0  0  0  0  0  0
    8.4063  -14.8970   20.8666 N   0  0  0  0  0  0  0  0  0  0  0  0
    8.3222  -15.0138   23.2318 C   0  0  0  0  0  0  0  0  0  0  0  0
    9.5383  -14.7140   23.1802 O   0  0  0  0  0  0  0  0  0  0  0  0
    5.8910  -11.7111   26.5201 C   0  0  0  0  0  0  0  0  0  0  0  0
    6.9526  -12.4272   25.7103 C   0  0  0  0  0  0  0  0  0  0  0  0
    7.3891  -13.6277   26.5086 C   0  0  2  0  0  0  0  0  0  0  0  0
    8.1760  -13.1382   27.6998 C   0  0  0  0  0  0  0  0  0  0  0  0
    8.2806  -14.5602   25.7276 C   0  0  2  0  0  0  0  0  0  0  0  0
    7.6570  -14.9545   24.4826 N   0  0  0  0  0  0  0  0  0  0  0  0
    8.7176  -15.7260   26.5203 C   0  0  0  0  0  0  0  0  0  0  0  0
    8.0443  -16.7876   26.5068 O   0  0  0  0  0  0  0  0  0  0  0  0
    9.8628  -15.7212   27.3041 O   0  0  0  0  0  0  0  0  0  0  0  0
  2  1  1  0
  3  4  2  0
  3  2  1  0
  6  5  1  6
  6  8  1  0
  7  6  1  0
  8  9  1  6
  9  3  1  0
 10  8  1  0
 10 17  1  0
 11 10  2  0
 12 13  1  0
 13 14  1  0
 14 16  1  0
 14 15  1  1
 16 17  1  6
 16 18  1  0
 18 19  2  0
 18 20  1  0
M  END
$$$$
