GTI.pdb
     RDKit          3D

 20 19  0  0  1  0  0  0  0  0999 V2000
    8.3337  -12.9522   17.6553 N   0  0  0  0  0  0  0  0  0  0  0  0
    8.9535  -13.6593   18.7378 C   0  0  0  0  0  0  0  0  0  0  0  0
    7.9675  -13.9882   19.8243 C   0  0  0  0  0  0  0  0  0  0  0  0
    6.8434  -13.4465   19.8762 O   0  0  0  0  0  0  0  0  0  0  0  0
    6.6958  -17.2917   20.6110 C   0  0  0  0  0  0  0  0  0  0  0  0
    7.3859  -16.8380   21.8814 C   0  0  1  0  0  0  0  0  0  0  0  0
    8.6610  -17.3958   21.9197 O   0  0  0  0  0  0  0  0  0  0  0  0
    7.4862  -15.3093   21.9220 C   0  0  2  0  0  0  0  0  0  0  0  0
    8.3167  -14.9288   20.8080 N   0  0  0  0  0  0  0  0  0  0  0  0
    8.1772  -14.9330   23.1735 C   0  0  0  0  0  0  0  0  0  0  0  0
    9.4153  -14.7416   23.1305 O   0  0  0  0  0  0  0  0  0  0  0  0
    5.7220  -11.6029   26.5241 C   0  0  0  0  0  0  0  0  0  0  0  0
    6.7652  -12.3014   25.6757 C   0  0  0  0  0  0  0  0  0  0  0  0
    7.2608  -13.4861   26.4630 C   0  0  2  0  0  0  0  0  0  0  0  0
    8.0787  -12.9705   27.6219 C   0  0  0  0  0  0  0  0  0  0  0  0
    8.1459  -14.4007   25.6538 C   0  0  2  0  0  0  0  0  0  0  0  0
    7.5054  -14.7799   24.4127 N   0  0  0  0  0  0  0  0  0  0  0  0
    8.6026  -15.5756   26.4215 C   0  0  0  0  0  0  0  0  0  0  0  0
    7.9174  -16.6295   26.4310 O   0  0  0  0  0  0  0  0  0  0  0  0
    9.7797  -15.5878   27.1565 O   0  0  0  0  0  0  0  0  0  0  0  0
  2  1  1  0
  3  4  2  0
  3  2  1  0
  6  5  1  6
  6  8  1  0
  7  6  1  0
  8  9  1  6
  9  3  1  0
 10  8  1  0
 10 17  1  0
 11 10  2  0
 12 13  1  0
 13 14  1  0
 14 16  1  0
 14 15  1  1
 16 17  1  6
 16 18  1  0
 18 19  2  0
 18 20  1  0
M  END
$$$$
