GTI.pdb
     RDKit          3D

 20 19  0  0  1  0  0  0  0  0999 V2000
    9.2887  -16.5715   17.6520 N   0  0  0  0  0  0  0  0  0  0  0  0
    9.7574  -16.4971   19.0050 C   0  0  0  0  0  0  0  0  0  0  0  0
    8.6317  -16.2506   19.9709 C   0  0  0  0  0  0  0  0  0  0  0  0
    7.5493  -15.7481   19.6026 O   0  0  0  0  0  0  0  0  0  0  0  0
    6.6191  -18.4433   21.7108 C   0  0  0  0  0  0  0  0  0  0  0  0
    7.3487  -17.7292   22.8306 C   0  0  1  0  0  0  0  0  0  0  0  0
    8.4376  -18.5050   23.2192 O   0  0  0  0  0  0  0  0  0  0  0  0
    7.8324  -16.3518   22.3642 C   0  0  2  0  0  0  0  0  0  0  0  0
    8.7986  -16.5934   21.3232 N   0  0  0  0  0  0  0  0  0  0  0  0
    8.5191  -15.7031   23.5013 C   0  0  0  0  0  0  0  0  0  0  0  0
    9.7646  -15.5733   23.4435 O   0  0  0  0  0  0  0  0  0  0  0  0
    5.8620  -11.7935   26.1604 C   0  0  0  0  0  0  0  0  0  0  0  0
    6.9648  -12.5437   25.4414 C   0  0  0  0  0  0  0  0  0  0  0  0
    7.5099  -13.5665   26.4034 C   0  0  2  0  0  0  0  0  0  0  0  0
    8.2686  -12.8363   27.4846 C   0  0  0  0  0  0  0  0  0  0  0  0
    8.4658  -14.5346   25.7526 C   0  0  2  0  0  0  0  0  0  0  0  0
    7.8354  -15.2242   24.6474 N   0  0  0  0  0  0  0  0  0  0  0  0
    9.0692  -15.4739   26.7180 C   0  0  0  0  0  0  0  0  0  0  0  0
    8.5152  -16.5767   26.9573 O   0  0  0  0  0  0  0  0  0  0  0  0
   10.2481  -15.2049   27.3991 O   0  0  0  0  0  0  0  0  0  0  0  0
  2  1  1  0
  3  4  2  0
  3  2  1  0
  6  5  1  6
  6  8  1  0
  7  6  1  0
  8  9  1  6
  9  3  1  0
 10  8  1  0
 10 17  1  0
 11 10  2  0
 12 13  1  0
 13 14  1  0
 14 16  1  0
 14 15  1  1
 16 17  1  6
 16 18  1  0
 18 19  2  0
 18 20  1  0
M  END
$$$$
