GTI.pdb
     RDKit          3D

 20 19  0  0  1  0  0  0  0  0999 V2000
    8.1530  -12.9333   17.5631 N   0  0  0  0  0  0  0  0  0  0  0  0
    8.8860  -13.5043   18.6552 C   0  0  0  0  0  0  0  0  0  0  0  0
    7.9909  -13.8187   19.8218 C   0  0  0  0  0  0  0  0  0  0  0  0
    6.9098  -13.2192   19.9997 O   0  0  0  0  0  0  0  0  0  0  0  0
    6.9248  -17.2701   20.5567 C   0  0  0  0  0  0  0  0  0  0  0  0
    7.5912  -16.7770   21.8251 C   0  0  1  0  0  0  0  0  0  0  0  0
    8.8984  -17.2555   21.8569 O   0  0  0  0  0  0  0  0  0  0  0  0
    7.5976  -15.2451   21.8683 C   0  0  2  0  0  0  0  0  0  0  0  0
    8.3779  -14.8119   20.7373 N   0  0  0  0  0  0  0  0  0  0  0  0
    8.2918  -14.8289   23.1053 C   0  0  0  0  0  0  0  0  0  0  0  0
    9.5235  -14.6039   23.0446 O   0  0  0  0  0  0  0  0  0  0  0  0
    5.6445  -12.1140   27.2884 C   0  0  0  0  0  0  0  0  0  0  0  0
    6.1277  -13.2754   26.4439 C   0  0  0  0  0  0  0  0  0  0  0  0
    7.5888  -13.0437   26.1600 C   0  0  2  0  0  0  0  0  0  0  0  0
    7.6993  -11.9279   25.1498 C   0  0  0  0  0  0  0  0  0  0  0  0
    8.2732  -14.2542   25.5762 C   0  0  2  0  0  0  0  0  0  0  0  0
    7.6301  -14.6741   24.3496 N   0  0  0  0  0  0  0  0  0  0  0  0
    8.3932  -15.3618   26.5444 C   0  0  0  0  0  0  0  0  0  0  0  0
    7.7305  -16.4177   26.3819 O   0  0  0  0  0  0  0  0  0  0  0  0
    9.2192  -15.3065   27.6582 O   0  0  0  0  0  0  0  0  0  0  0  0
  2  1  1  0
  3  4  2  0
  3  2  1  0
  6  5  1  6
  6  8  1  0
  7  6  1  0
  8  9  1  6
  9  3  1  0
 10  8  1  0
 10 17  1  0
 11 10  2  0
 12 13  1  0
 13 14  1  0
 14 16  1  0
 14 15  1  6
 16 17  1  6
 16 18  1  0
 18 19  2  0
 18 20  1  0
M  END
$$$$
