ENI.pdb
     RDKit          3D

 26 25  0  0  1  0  0  0  0  0999 V2000
    9.5915  -14.3471   18.8728 N   0  0  0  0  0  0  0  0  0  0  0  0
    8.1731  -14.4691   19.0402 C   0  0  1  0  0  0  0  0  0  0  0  0
    7.5102  -15.1747   17.8798 C   0  0  0  0  0  0  0  0  0  0  0  0
    8.3122  -16.3360   17.3902 C   0  0  0  0  0  0  0  0  0  0  0  0
    7.6928  -16.9035   16.1692 C   0  0  0  0  0  0  0  0  0  0  0  0
    6.4883  -17.2243   16.1860 O   0  0  0  0  0  0  0  0  0  0  0  0
    7.8988  -15.2335   20.2756 C   0  0  0  0  0  0  0  0  0  0  0  0
    6.7291  -15.5046   20.6260 O   0  0  0  0  0  0  0  0  0  0  0  0
    8.4704  -17.0733   15.0066 O   0  0  0  0  0  0  0  0  0  0  0  0
    9.9282  -19.2361   20.5431 N   0  0  0  0  0  0  0  0  0  0  0  0
    8.9870  -18.6852   21.4706 C   0  0  0  0  0  0  0  0  0  0  0  0
    7.8040  -19.0886   21.4245 O   0  0  0  0  0  0  0  0  0  0  0  0
    9.4742  -17.6699   22.4287 C   0  0  0  0  0  0  0  0  0  0  0  0
    8.7214  -16.3910   22.3064 C   0  0  2  0  0  0  0  0  0  0  0  0
    8.9752  -15.6689   21.0801 N   0  0  0  0  0  0  0  0  0  0  0  0
    9.1129  -15.5320   23.4734 C   0  0  0  0  0  0  0  0  0  0  0  0
   10.2635  -15.0299   23.5180 O   0  0  0  0  0  0  0  0  0  0  0  0
    6.9072  -11.2339   26.8174 C   0  0  0  0  0  0  0  0  0  0  0  0
    7.9658  -12.3318   26.7737 C   0  0  0  0  0  0  0  0  0  0  0  0
    7.5654  -13.3076   25.7088 C   0  0  2  0  0  0  0  0  0  0  0  0
    6.1648  -13.8457   25.9503 C   0  0  0  0  0  0  0  0  0  0  0  0
    8.5741  -14.4023   25.5916 C   0  0  2  0  0  0  0  0  0  0  0  0
    8.1842  -15.2996   24.5048 N   0  0  0  0  0  0  0  0  0  0  0  0
    8.7501  -15.1546   26.8436 C   0  0  0  0  0  0  0  0  0  0  0  0
    9.5224  -14.7980   27.9202 O   0  0  0  0  0  0  0  0  0  0  0  0
    8.1248  -16.2669   26.9621 O   0  0  0  0  0  0  0  0  0  0  0  0
  2  7  1  0
  2  1  1  6
  3  2  1  0
  4  3  1  0
  5  4  1  0
  5  6  2  0
  7  8  2  0
  9  5  1  0
 10 11  1  0
 11 13  1  0
 12 11  2  0
 14 13  1  6
 15 14  1  0
 15  7  1  0
 16 17  2  0
 16 14  1  0
 19 18  1  0
 19 20  1  0
 20 22  1  0
 20 21  1  1
 22 24  1  0
 22 23  1  6
 23 16  1  0
 24 25  1  0
 26 24  2  0
M  END
$$$$
