ENI.pdb
     RDKit          3D

 26 25  0  0  1  0  0  0  0  0999 V2000
    5.9069  -16.9732   19.4765 N   0  0  0  0  0  0  0  0  0  0  0  0
    7.0175  -16.9123   20.3808 C   0  0  1  0  0  0  0  0  0  0  0  0
    7.9391  -15.7503   20.0910 C   0  0  0  0  0  0  0  0  0  0  0  0
    7.1933  -14.4704   19.8980 C   0  0  0  0  0  0  0  0  0  0  0  0
    7.8719  -13.6348   18.8793 C   0  0  0  0  0  0  0  0  0  0  0  0
    8.3234  -12.5191   19.2042 O   0  0  0  0  0  0  0  0  0  0  0  0
    6.5063  -16.7758   21.7613 C   0  0  0  0  0  0  0  0  0  0  0  0
    5.2884  -16.8973   22.0184 O   0  0  0  0  0  0  0  0  0  0  0  0
    7.9987  -14.1097   17.5589 O   0  0  0  0  0  0  0  0  0  0  0  0
    6.0193  -18.2968   26.4005 N   0  0  0  0  0  0  0  0  0  0  0  0
    6.9742  -18.9984   25.5970 C   0  0  0  0  0  0  0  0  0  0  0  0
    7.5658  -19.9787   26.1002 O   0  0  0  0  0  0  0  0  0  0  0  0
    7.2021  -18.5182   24.2173 C   0  0  0  0  0  0  0  0  0  0  0  0
    7.1616  -17.0319   24.1375 C   0  0  2  0  0  0  0  0  0  0  0  0
    7.4068  -16.5025   22.8149 N   0  0  0  0  0  0  0  0  0  0  0  0
    8.2066  -16.5080   25.0789 C   0  0  0  0  0  0  0  0  0  0  0  0
    9.4198  -16.7469   24.8571 O   0  0  0  0  0  0  0  0  0  0  0  0
    6.6153  -11.8037   26.6549 C   0  0  0  0  0  0  0  0  0  0  0  0
    7.3591  -13.0223   26.1166 C   0  0  0  0  0  0  0  0  0  0  0  0
    8.1461  -13.6113   27.2481 C   0  0  2  0  0  0  0  0  0  0  0  0
    9.1417  -12.6098   27.8094 C   0  0  0  0  0  0  0  0  0  0  0  0
    8.8069  -14.8817   26.8247 C   0  0  2  0  0  0  0  0  0  0  0  0
    7.8135  -15.7542   26.2003 N   0  0  0  0  0  0  0  0  0  0  0  0
    9.4776  -15.5754   27.9352 C   0  0  0  0  0  0  0  0  0  0  0  0
    9.0986  -16.7571   28.5205 O   0  0  0  0  0  0  0  0  0  0  0  0
   10.5308  -15.0341   28.4252 O   0  0  0  0  0  0  0  0  0  0  0  0
  2  7  1  0
  2  1  1  6
  3  2  1  0
  4  3  1  0
  5  4  1  0
  5  6  2  0
  7  8  2  0
  9  5  1  0
 10 11  1  0
 11 13  1  0
 12 11  2  0
 14 13  1  6
 15 14  1  0
 15  7  1  0
 16 17  2  0
 16 14  1  0
 19 18  1  0
 19 20  1  0
 20 22  1  0
 20 21  1  6
 22 24  1  0
 22 23  1  1
 23 16  1  0
 24 25  1  0
 26 24  2  0
M  END
$$$$
