ENI.pdb
     RDKit          3D

 26 25  0  0  1  0  0  0  0  0999 V2000
    9.2042  -15.1173   19.3816 N   0  0  0  0  0  0  0  0  0  0  0  0
    8.5180  -14.0186   19.9954 C   0  0  1  0  0  0  0  0  0  0  0  0
    7.4714  -13.4098   19.0911 C   0  0  0  0  0  0  0  0  0  0  0  0
    8.0693  -12.7852   17.8730 C   0  0  0  0  0  0  0  0  0  0  0  0
    8.3848  -13.8286   16.8689 C   0  0  0  0  0  0  0  0  0  0  0  0
    7.6251  -14.8093   16.7452 O   0  0  0  0  0  0  0  0  0  0  0  0
    7.8562  -14.4939   21.2290 C   0  0  0  0  0  0  0  0  0  0  0  0
    7.1791  -13.7212   21.9424 O   0  0  0  0  0  0  0  0  0  0  0  0
    9.5367  -13.7006   16.0677 O   0  0  0  0  0  0  0  0  0  0  0  0
    6.9753  -19.4481   24.6787 N   0  0  0  0  0  0  0  0  0  0  0  0
    6.4600  -18.2661   24.0566 C   0  0  0  0  0  0  0  0  0  0  0  0
    5.5021  -17.6775   24.6045 O   0  0  0  0  0  0  0  0  0  0  0  0
    7.0950  -17.8133   22.8005 C   0  0  0  0  0  0  0  0  0  0  0  0
    7.3013  -16.3388   22.7877 C   0  0  2  0  0  0  0  0  0  0  0  0
    7.9877  -15.8464   21.6146 N   0  0  0  0  0  0  0  0  0  0  0  0
    8.1026  -15.9919   24.0086 C   0  0  0  0  0  0  0  0  0  0  0  0
    9.3318  -16.2491   24.0397 O   0  0  0  0  0  0  0  0  0  0  0  0
    6.3529  -11.5306   26.2685 C   0  0  0  0  0  0  0  0  0  0  0  0
    7.1570  -12.6533   25.6197 C   0  0  0  0  0  0  0  0  0  0  0  0
    7.5922  -13.5882   26.7073 C   0  0  2  0  0  0  0  0  0  0  0  0
    8.4291  -12.8692   27.7524 C   0  0  0  0  0  0  0  0  0  0  0  0
    8.3047  -14.7684   26.1335 C   0  0  2  0  0  0  0  0  0  0  0  0
    7.4656  -15.3819   25.1050 N   0  0  0  0  0  0  0  0  0  0  0  0
    8.6805  -15.7608   27.1524 C   0  0  0  0  0  0  0  0  0  0  0  0
    9.8624  -15.8255   27.8465 O   0  0  0  0  0  0  0  0  0  0  0  0
    7.8272  -16.6736   27.4368 O   0  0  0  0  0  0  0  0  0  0  0  0
  2  7  1  0
  2  1  1  6
  3  2  1  0
  4  3  1  0
  5  4  1  0
  5  6  2  0
  7  8  2  0
  9  5  1  0
 10 11  1  0
 11 13  1  0
 12 11  2  0
 14 13  1  6
 15 14  1  0
 15  7  1  0
 16 17  2  0
 16 14  1  0
 19 18  1  0
 19 20  1  0
 20 22  1  0
 20 21  1  1
 22 24  1  0
 22 23  1  6
 23 16  1  0
 24 25  1  0
 26 24  2  0
M  END
$$$$
