ENI.pdb
     RDKit          3D

 26 25  0  0  1  0  0  0  0  0999 V2000
    7.4885  -16.5359   19.2803 N   0  0  0  0  0  0  0  0  0  0  0  0
    7.5990  -17.9060   19.6872 C   0  0  1  0  0  0  0  0  0  0  0  0
    7.8364  -18.8399   18.5231 C   0  0  0  0  0  0  0  0  0  0  0  0
    7.4330  -18.2333   17.2190 C   0  0  0  0  0  0  0  0  0  0  0  0
    7.7030  -19.1810   16.1119 C   0  0  0  0  0  0  0  0  0  0  0  0
    8.5321  -18.8753   15.2325 O   0  0  0  0  0  0  0  0  0  0  0  0
    8.7269  -18.0368   20.6341 C   0  0  0  0  0  0  0  0  0  0  0  0
    9.0729  -19.1519   21.0827 O   0  0  0  0  0  0  0  0  0  0  0  0
    7.0213  -20.4132   16.0662 O   0  0  0  0  0  0  0  0  0  0  0  0
   12.9015  -17.7372   23.2046 N   0  0  0  0  0  0  0  0  0  0  0  0
   12.7954  -16.4192   22.6557 C   0  0  0  0  0  0  0  0  0  0  0  0
   13.6445  -15.5659   22.9950 O   0  0  0  0  0  0  0  0  0  0  0  0
   11.6844  -16.1482   21.7184 C   0  0  0  0  0  0  0  0  0  0  0  0
   10.4916  -16.9864   22.0209 C   0  0  2  0  0  0  0  0  0  0  0  0
    9.4313  -16.8830   21.0438 N   0  0  0  0  0  0  0  0  0  0  0  0
    9.9711  -16.5512   23.3598 C   0  0  0  0  0  0  0  0  0  0  0  0
   10.7522  -16.4925   24.3419 O   0  0  0  0  0  0  0  0  0  0  0  0
    7.3605  -12.2627   23.7073 C   0  0  0  0  0  0  0  0  0  0  0  0
    8.2317  -13.4919   23.9481 C   0  0  0  0  0  0  0  0  0  0  0  0
    7.4017  -14.5009   24.6825 C   0  0  2  0  0  0  0  0  0  0  0  0
    6.9415  -13.9645   26.0278 C   0  0  0  0  0  0  0  0  0  0  0  0
    8.1392  -15.7924   24.8164 C   0  0  2  0  0  0  0  0  0  0  0  0
    8.6120  -16.2137   23.4984 N   0  0  0  0  0  0  0  0  0  0  0  0
    7.3291  -16.8521   25.4369 C   0  0  0  0  0  0  0  0  0  0  0  0
    7.2643  -17.1688   26.7704 O   0  0  0  0  0  0  0  0  0  0  0  0
    6.5987  -17.5703   24.6669 O   0  0  0  0  0  0  0  0  0  0  0  0
  2  7  1  0
  2  1  1  6
  3  2  1  0
  4  3  1  0
  5  4  1  0
  5  6  2  0
  7  8  2  0
  9  5  1  0
 10 11  1  0
 11 13  1  0
 12 11  2  0
 14 13  1  6
 15 14  1  0
 15  7  1  0
 16 17  2  0
 16 14  1  0
 19 18  1  0
 19 20  1  0
 20 22  1  0
 20 21  1  1
 22 24  1  0
 22 23  1  6
 23 16  1  0
 24 25  1  0
 26 24  2  0
M  END
$$$$
