ENI.pdb
     RDKit          3D

 26 25  0  0  1  0  0  0  0  0999 V2000
    9.7630  -16.9028   19.2268 N   0  0  0  0  0  0  0  0  0  0  0  0
    8.4181  -16.4088   19.1803 C   0  0  1  0  0  0  0  0  0  0  0  0
    7.5340  -17.2179   18.2597 C   0  0  0  0  0  0  0  0  0  0  0  0
    8.2528  -17.6580   17.0264 C   0  0  0  0  0  0  0  0  0  0  0  0
    7.3624  -18.4981   16.1910 C   0  0  0  0  0  0  0  0  0  0  0  0
    6.5791  -17.9516   15.3898 O   0  0  0  0  0  0  0  0  0  0  0  0
    7.8436  -16.4498   20.5419 C   0  0  0  0  0  0  0  0  0  0  0  0
    6.6487  -16.1465   20.7525 O   0  0  0  0  0  0  0  0  0  0  0  0
    7.4114  -19.9010   16.3116 O   0  0  0  0  0  0  0  0  0  0  0  0
   10.4274  -19.1867   22.8215 N   0  0  0  0  0  0  0  0  0  0  0  0
    9.7588  -18.4623   23.8596 C   0  0  0  0  0  0  0  0  0  0  0  0
   10.4210  -18.1180   24.8632 O   0  0  0  0  0  0  0  0  0  0  0  0
    8.3215  -18.1653   23.6797 C   0  0  0  0  0  0  0  0  0  0  0  0
    8.1105  -16.8742   22.9688 C   0  0  2  0  0  0  0  0  0  0  0  0
    8.6557  -16.8385   21.6304 N   0  0  0  0  0  0  0  0  0  0  0  0
    8.7603  -15.8017   23.7937 C   0  0  0  0  0  0  0  0  0  0  0  0
    9.9720  -15.5250   23.6114 O   0  0  0  0  0  0  0  0  0  0  0  0
    5.9453  -11.8307   26.8043 C   0  0  0  0  0  0  0  0  0  0  0  0
    6.5341  -13.1643   26.3542 C   0  0  0  0  0  0  0  0  0  0  0  0
    7.8043  -12.8740   25.6136 C   0  0  2  0  0  0  0  0  0  0  0  0
    7.5216  -12.3105   24.2308 C   0  0  0  0  0  0  0  0  0  0  0  0
    8.6707  -14.0888   25.5575 C   0  0  2  0  0  0  0  0  0  0  0  0
    8.0025  -15.1183   24.7627 N   0  0  0  0  0  0  0  0  0  0  0  0
    9.0146  -14.6083   26.8903 C   0  0  0  0  0  0  0  0  0  0  0  0
    9.8444  -14.0262   27.8151 O   0  0  0  0  0  0  0  0  0  0  0  0
    8.4952  -15.7246   27.2458 O   0  0  0  0  0  0  0  0  0  0  0  0
  2  7  1  0
  2  1  1  1
  3  2  1  0
  4  3  1  0
  5  4  1  0
  5  6  2  0
  7  8  2  0
  9  5  1  0
 10 11  1  0
 11 13  1  0
 12 11  2  0
 14 13  1  1
 15 14  1  0
 15  7  1  0
 16 17  2  0
 16 14  1  0
 19 18  1  0
 19 20  1  0
 20 22  1  0
 20 21  1  6
 22 24  1  0
 22 23  1  6
 23 16  1  0
 24 25  1  0
 26 24  2  0
M  END
$$$$
