ENI.pdb
     RDKit          3D

 26 25  0  0  1  0  0  0  0  0999 V2000
    8.9449  -17.4551   18.6944 N   0  0  0  0  0  0  0  0  0  0  0  0
    9.6467  -17.5105   19.9431 C   0  0  1  0  0  0  0  0  0  0  0  0
   10.8376  -16.5809   19.9813 C   0  0  0  0  0  0  0  0  0  0  0  0
   11.9565  -17.0579   19.1141 C   0  0  0  0  0  0  0  0  0  0  0  0
   13.1506  -16.2015   19.3073 C   0  0  0  0  0  0  0  0  0  0  0  0
   13.7716  -16.2510   20.3870 O   0  0  0  0  0  0  0  0  0  0  0  0
    8.7203  -17.1347   21.0323 C   0  0  0  0  0  0  0  0  0  0  0  0
    7.7921  -16.3181   20.8433 O   0  0  0  0  0  0  0  0  0  0  0  0
   13.5690  -15.3435   18.2710 O   0  0  0  0  0  0  0  0  0  0  0  0
    6.6841  -18.9193   26.3963 N   0  0  0  0  0  0  0  0  0  0  0  0
    6.4535  -18.3048   25.1240 C   0  0  0  0  0  0  0  0  0  0  0  0
    5.4936  -17.5105   25.0148 O   0  0  0  0  0  0  0  0  0  0  0  0
    7.3682  -18.6489   24.0144 C   0  0  0  0  0  0  0  0  0  0  0  0
    7.9221  -17.4318   23.3594 C   0  0  2  0  0  0  0  0  0  0  0  0
    8.8820  -17.7063   22.3140 N   0  0  0  0  0  0  0  0  0  0  0  0
    8.5814  -16.6124   24.4302 C   0  0  0  0  0  0  0  0  0  0  0  0
    9.7896  -16.8117   24.7109 O   0  0  0  0  0  0  0  0  0  0  0  0
    5.9020  -12.0599   25.9573 C   0  0  0  0  0  0  0  0  0  0  0  0
    6.9466  -13.0158   25.3890 C   0  0  0  0  0  0  0  0  0  0  0  0
    7.6040  -13.7097   26.5435 C   0  0  2  0  0  0  0  0  0  0  0  0
    8.2943  -12.7175   27.4646 C   0  0  0  0  0  0  0  0  0  0  0  0
    8.5386  -14.7685   26.0585 C   0  0  2  0  0  0  0  0  0  0  0  0
    7.8365  -15.6293   25.1076 N   0  0  0  0  0  0  0  0  0  0  0  0
    9.1136  -15.5683   27.1513 C   0  0  0  0  0  0  0  0  0  0  0  0
   10.3145  -15.3626   27.7824 O   0  0  0  0  0  0  0  0  0  0  0  0
    8.4372  -16.5714   27.5737 O   0  0  0  0  0  0  0  0  0  0  0  0
  2  7  1  0
  2  1  1  6
  3  2  1  0
  4  3  1  0
  5  4  1  0
  5  6  2  0
  7  8  2  0
  9  5  1  0
 10 11  1  0
 11 13  1  0
 12 11  2  0
 14 13  1  1
 15 14  1  0
 15  7  1  0
 16 17  2  0
 16 14  1  0
 19 18  1  0
 19 20  1  0
 20 22  1  0
 20 21  1  6
 22 24  1  0
 22 23  1  6
 23 16  1  0
 24 25  1  0
 26 24  2  0
M  END
$$$$
