ENI.pdb
     RDKit          3D

 26 25  0  0  1  0  0  0  0  0999 V2000
    9.9401  -17.5605   13.1654 N   0  0  0  0  0  0  0  0  0  0  0  0
   10.6286  -17.9324   14.3665 C   0  0  1  0  0  0  0  0  0  0  0  0
   11.9322  -17.1884   14.5424 C   0  0  0  0  0  0  0  0  0  0  0  0
   13.1061  -18.1099   14.6060 C   0  0  0  0  0  0  0  0  0  0  0  0
   14.3582  -17.3298   14.7479 C   0  0  0  0  0  0  0  0  0  0  0  0
   15.2507  -17.7384   15.5165 O   0  0  0  0  0  0  0  0  0  0  0  0
    9.7602  -17.6429   15.5275 C   0  0  0  0  0  0  0  0  0  0  0  0
    8.9229  -16.7143   15.4974 O   0  0  0  0  0  0  0  0  0  0  0  0
   14.5250  -16.1385   14.0144 O   0  0  0  0  0  0  0  0  0  0  0  0
   10.6370  -21.0064   18.5471 N   0  0  0  0  0  0  0  0  0  0  0  0
    9.8927  -19.9924   19.2307 C   0  0  0  0  0  0  0  0  0  0  0  0
   10.3097  -19.5990   20.3423 O   0  0  0  0  0  0  0  0  0  0  0  0
    8.6727  -19.4718   18.5775 C   0  0  0  0  0  0  0  0  0  0  0  0
    8.9517  -18.2372   17.7934 C   0  0  2  0  0  0  0  0  0  0  0  0
    9.8741  -18.4274   16.6967 N   0  0  0  0  0  0  0  0  0  0  0  0
    9.5207  -17.2257   18.7453 C   0  0  0  0  0  0  0  0  0  0  0  0
   10.7645  -17.0611   18.8079 O   0  0  0  0  0  0  0  0  0  0  0  0
    7.7301  -11.7640   20.2357 C   0  0  0  0  0  0  0  0  0  0  0  0
    8.7518  -12.8602   20.5224 C   0  0  0  0  0  0  0  0  0  0  0  0
    8.1981  -14.1481   19.9919 C   0  0  2  0  0  0  0  0  0  0  0  0
    6.8454  -14.4639   20.6082 C   0  0  0  0  0  0  0  0  0  0  0  0
    9.1754  -15.2605   20.1846 C   0  0  2  0  0  0  0  0  0  0  0  0
    8.6520  -16.4731   19.5571 N   0  0  0  0  0  0  0  0  0  0  0  0
    9.4898  -15.5069   21.6006 C   0  0  0  0  0  0  0  0  0  0  0  0
   10.4504  -14.8814   22.3547 O   0  0  0  0  0  0  0  0  0  0  0  0
    8.8057  -16.3994   22.2151 O   0  0  0  0  0  0  0  0  0  0  0  0
  2  7  1  0
  2  1  1  6
  3  2  1  0
  4  3  1  0
  5  4  1  0
  5  6  2  0
  7  8  2  0
  9  5  1  0
 10 11  1  0
 11 13  1  0
 12 11  2  0
 14 13  1  1
 15 14  1  0
 15  7  1  0
 16 17  2  0
 16 14  1  0
 19 18  1  0
 19 20  1  0
 20 22  1  0
 20 21  1  1
 22 24  1  0
 22 23  1  1
 23 16  1  0
 24 25  1  0
 26 24  2  0
M  END
$$$$
