ENI.pdb
     RDKit          3D

 26 25  0  0  1  0  0  0  0  0999 V2000
    9.2776  -18.8413   20.6217 N   0  0  0  0  0  0  0  0  0  0  0  0
    8.6744  -17.5707   20.3453 C   0  0  1  0  0  0  0  0  0  0  0  0
    7.7651  -17.6100   19.1390 C   0  0  0  0  0  0  0  0  0  0  0  0
    8.4767  -18.0674   17.9078 C   0  0  0  0  0  0  0  0  0  0  0  0
    7.5500  -18.0580   16.7513 C   0  0  0  0  0  0  0  0  0  0  0  0
    6.5981  -18.8625   16.7226 O   0  0  0  0  0  0  0  0  0  0  0  0
    7.8815  -17.1492   21.5198 C   0  0  0  0  0  0  0  0  0  0  0  0
    7.1666  -16.1235   21.4872 O   0  0  0  0  0  0  0  0  0  0  0  0
    7.7549  -17.1423   15.7002 O   0  0  0  0  0  0  0  0  0  0  0  0
    6.0125  -19.5648   22.6932 N   0  0  0  0  0  0  0  0  0  0  0  0
    6.1341  -19.6549   24.1168 C   0  0  0  0  0  0  0  0  0  0  0  0
    5.6362  -20.6473   24.6925 O   0  0  0  0  0  0  0  0  0  0  0  0
    6.8435  -18.5648   24.8202 C   0  0  0  0  0  0  0  0  0  0  0  0
    7.2308  -17.4691   23.8894 C   0  0  2  0  0  0  0  0  0  0  0  0
    7.9284  -17.9164   22.7050 N   0  0  0  0  0  0  0  0  0  0  0  0
    8.1144  -16.5278   24.6550 C   0  0  0  0  0  0  0  0  0  0  0  0
    9.3627  -16.6455   24.5787 O   0  0  0  0  0  0  0  0  0  0  0  0
    5.7755  -11.9346   26.3962 C   0  0  0  0  0  0  0  0  0  0  0  0
    6.7701  -12.8542   25.6940 C   0  0  0  0  0  0  0  0  0  0  0  0
    7.6184  -13.4971   26.7492 C   0  0  2  0  0  0  0  0  0  0  0  0
    8.4904  -12.4734   27.4572 C   0  0  0  0  0  0  0  0  0  0  0  0
    8.4227  -14.6140   26.1701 C   0  0  2  0  0  0  0  0  0  0  0  0
    7.5322  -15.5233   25.4502 N   0  0  0  0  0  0  0  0  0  0  0  0
    9.1980  -15.3461   27.1837 C   0  0  0  0  0  0  0  0  0  0  0  0
    8.8002  -16.4561   27.8855 O   0  0  0  0  0  0  0  0  0  0  0  0
   10.3740  -14.9169   27.4574 O   0  0  0  0  0  0  0  0  0  0  0  0
  2  7  1  0
  2  1  1  1
  3  2  1  0
  4  3  1  0
  5  4  1  0
  5  6  2  0
  7  8  2  0
  9  5  1  0
 10 11  1  0
 11 13  1  0
 12 11  2  0
 14 13  1  1
 15 14  1  0
 15  7  1  0
 16 17  2  0
 16 14  1  0
 19 18  1  0
 19 20  1  0
 20 22  1  0
 20 21  1  6
 22 24  1  0
 22 23  1  1
 23 16  1  0
 24 25  1  0
 26 24  2  0
M  END
$$$$
