HGM.pdb
     RDKit          3D

 23 23  0  0  1  0  0  0  0  0999 V2000
    9.6486  -15.7350   19.1486 N   0  0  0  0  0  0  0  0  0  0  0  0
    8.5461  -14.9215   19.5576 C   0  0  1  0  0  0  0  0  0  0  0  0
    7.4162  -15.1041   18.5734 C   0  0  0  0  0  0  0  0  0  0  0  0
    7.6676  -14.4562   17.2752 C   0  0  0  0  0  0  0  0  0  0  0  0
    8.7980  -13.8108   16.8669 C   0  0  0  0  0  0  0  0  0  0  0  0
    8.5981  -13.3719   15.6151 N   0  0  0  0  0  0  0  0  0  0  0  0
    7.3686  -13.7372   15.2529 C   0  0  0  0  0  0  0  0  0  0  0  0
    6.7921  -14.4011   16.2626 N   0  0  0  0  0  0  0  0  0  0  0  0
    8.1186  -15.2818   20.9458 C   0  0  0  0  0  0  0  0  0  0  0  0
    7.2579  -14.5775   21.5424 O   0  0  0  0  0  0  0  0  0  0  0  0
    8.6969  -16.4209   21.5687 N   0  0  0  0  0  0  0  0  0  0  0  0
    8.3487  -16.8105   22.8968 C   0  0  0  0  0  0  0  0  0  0  0  0
    9.1485  -16.1282   23.9393 C   0  0  0  0  0  0  0  0  0  0  0  0
   10.2738  -15.6062   23.7493 O   0  0  0  0  0  0  0  0  0  0  0  0
    6.1290  -11.0687   26.0292 C   0  0  0  0  0  0  0  0  0  0  0  0
    6.5129  -12.6742   26.7366 S   0  0  0  0  0  0  0  0  0  0  0  0
    8.2376  -13.1363   26.5062 C   0  0  0  0  0  0  0  0  0  0  0  0
    8.5476  -14.4348   27.1412 C   0  0  0  0  0  0  0  0  0  0  0  0
    9.3141  -15.4328   26.3508 C   0  0  2  0  0  0  0  0  0  0  0  0
    8.6086  -16.0540   25.2585 N   0  0  0  0  0  0  0  0  0  0  0  0
    9.7913  -16.4813   27.2899 C   0  0  0  0  0  0  0  0  0  0  0  0
    9.4079  -17.6599   27.1275 O   0  0  0  0  0  0  0  0  0  0  0  0
   10.6526  -16.1907   28.3455 O   0  0  0  0  0  0  0  0  0  0  0  0
  2  1  1  6
  2  9  1  0
  3  2  1  0
  4  3  1  0
  5  4  2  0
  6  7  1  0
  6  5  1  0
  7  8  2  0
  8  4  1  0
  9 10  2  0
 11  9  1  0
 11 12  1  0
 12 13  1  0
 13 14  2  0
 16 15  1  0
 17 16  1  0
 18 17  1  0
 19 18  1  1
 20 19  1  0
 20 13  1  0
 21 19  1  0
 22 21  2  0
 23 21  1  0
M  END
$$$$
