HGM.pdb
     RDKit          3D

 23 23  0  0  1  0  0  0  0  0999 V2000
    9.0411  -16.7905   18.1358 N   0  0  0  0  0  0  0  0  0  0  0  0
    8.5671  -15.8074   19.0597 C   0  0  1  0  0  0  0  0  0  0  0  0
    7.3862  -15.0942   18.4469 C   0  0  0  0  0  0  0  0  0  0  0  0
    7.7097  -14.4226   17.1770 C   0  0  0  0  0  0  0  0  0  0  0  0
    8.4970  -13.3248   16.9876 C   0  0  0  0  0  0  0  0  0  0  0  0
    8.5203  -13.0502   15.6747 N   0  0  0  0  0  0  0  0  0  0  0  0
    7.7629  -13.9589   15.0608 C   0  0  0  0  0  0  0  0  0  0  0  0
    7.2629  -14.8025   15.9724 N   0  0  0  0  0  0  0  0  0  0  0  0
    8.1970  -16.4490   20.3601 C   0  0  0  0  0  0  0  0  0  0  0  0
    7.2378  -17.2677   20.4079 O   0  0  0  0  0  0  0  0  0  0  0  0
    8.9413  -16.1191   21.5251 N   0  0  0  0  0  0  0  0  0  0  0  0
    8.6601  -16.7141   22.7914 C   0  0  0  0  0  0  0  0  0  0  0  0
    9.5514  -16.2413   23.8749 C   0  0  0  0  0  0  0  0  0  0  0  0
   10.5837  -15.5494   23.7004 O   0  0  0  0  0  0  0  0  0  0  0  0
    6.5470  -11.0612   27.9734 C   0  0  0  0  0  0  0  0  0  0  0  0
    6.6789  -12.3555   26.7353 S   0  0  0  0  0  0  0  0  0  0  0  0
    7.7424  -13.7095   27.2617 C   0  0  0  0  0  0  0  0  0  0  0  0
    7.9180  -14.7166   26.1939 C   0  0  0  0  0  0  0  0  0  0  0  0
    9.1002  -15.6139   26.2685 C   0  0  2  0  0  0  0  0  0  0  0  0
    9.2206  -16.5931   25.2181 N   0  0  0  0  0  0  0  0  0  0  0  0
    9.0600  -16.3039   27.5842 C   0  0  0  0  0  0  0  0  0  0  0  0
    8.7151  -17.5046   27.6283 O   0  0  0  0  0  0  0  0  0  0  0  0
    9.3950  -15.6536   28.7698 O   0  0  0  0  0  0  0  0  0  0  0  0
  2  1  1  6
  2  9  1  0
  3  2  1  0
  4  3  1  0
  5  4  2  0
  6  7  1  0
  6  5  1  0
  7  8  2  0
  8  4  1  0
  9 10  2  0
 11  9  1  0
 11 12  1  0
 12 13  1  0
 13 14  2  0
 16 15  1  0
 17 16  1  0
 18 17  1  0
 19 18  1  6
 20 19  1  0
 20 13  1  0
 21 19  1  0
 22 21  2  0
 23 21  1  0
M  END
$$$$
