HGM.pdb
     RDKit          3D

 23 23  0  0  1  0  0  0  0  0999 V2000
    7.4765  -14.9745   21.0771 N   0  0  0  0  0  0  0  0  0  0  0  0
    7.2894  -16.2976   20.5682 C   0  0  1  0  0  0  0  0  0  0  0  0
    7.7628  -16.3386   19.1355 C   0  0  0  0  0  0  0  0  0  0  0  0
    7.9056  -15.0023   18.5335 C   0  0  0  0  0  0  0  0  0  0  0  0
    7.3169  -13.8379   18.9315 C   0  0  0  0  0  0  0  0  0  0  0  0
    7.7212  -12.8625   18.1039 N   0  0  0  0  0  0  0  0  0  0  0  0
    8.5445  -13.4098   17.2100 C   0  0  0  0  0  0  0  0  0  0  0  0
    8.6630  -14.7187   17.4654 N   0  0  0  0  0  0  0  0  0  0  0  0
    8.0275  -17.2900   21.4110 C   0  0  0  0  0  0  0  0  0  0  0  0
    7.9552  -18.5211   21.1429 O   0  0  0  0  0  0  0  0  0  0  0  0
    8.8018  -16.8198   22.5062 N   0  0  0  0  0  0  0  0  0  0  0  0
    9.4070  -17.7144   23.4390 C   0  0  0  0  0  0  0  0  0  0  0  0
   10.2363  -17.0308   24.4572 C   0  0  0  0  0  0  0  0  0  0  0  0
   11.0216  -17.6105   25.2461 O   0  0  0  0  0  0  0  0  0  0  0  0
    6.3753  -11.1069   27.3116 C   0  0  0  0  0  0  0  0  0  0  0  0
    7.2370  -12.0076   26.0188 S   0  0  0  0  0  0  0  0  0  0  0  0
    7.2755  -13.7821   26.3208 C   0  0  0  0  0  0  0  0  0  0  0  0
    8.0417  -14.4996   25.2800 C   0  0  0  0  0  0  0  0  0  0  0  0
    9.4171  -14.9528   25.6138 C   0  0  2  0  0  0  0  0  0  0  0  0
   10.1425  -15.6100   24.5562 N   0  0  0  0  0  0  0  0  0  0  0  0
    9.3201  -15.8626   26.7850 C   0  0  0  0  0  0  0  0  0  0  0  0
    9.8597  -15.5248   27.8607 O   0  0  0  0  0  0  0  0  0  0  0  0
    8.6463  -17.0802   26.7206 O   0  0  0  0  0  0  0  0  0  0  0  0
  2  1  1  1
  2  9  1  0
  3  2  1  0
  4  3  1  0
  5  4  2  0
  6  7  1  0
  6  5  1  0
  7  8  2  0
  8  4  1  0
  9 10  2  0
 11  9  1  0
 11 12  1  0
 12 13  1  0
 13 14  2  0
 16 15  1  0
 17 16  1  0
 18 17  1  0
 19 18  1  6
 20 19  1  0
 20 13  1  0
 21 19  1  0
 22 21  2  0
 23 21  1  0
M  END
$$$$
