HGM.pdb
     RDKit          3D

 23 23  0  0  1  0  0  0  0  0999 V2000
    7.7951  -16.0686   20.4622 N   0  0  0  0  0  0  0  0  0  0  0  0
    8.7256  -16.8690   19.7285 C   0  0  1  0  0  0  0  0  0  0  0  0
    9.4398  -15.9910   18.7297 C   0  0  0  0  0  0  0  0  0  0  0  0
    8.5838  -14.9292   18.1745 C   0  0  0  0  0  0  0  0  0  0  0  0
    7.2271  -14.9365   18.0328 C   0  0  0  0  0  0  0  0  0  0  0  0
    6.8593  -13.7691   17.4836 N   0  0  0  0  0  0  0  0  0  0  0  0
    7.9650  -13.0512   17.2881 C   0  0  0  0  0  0  0  0  0  0  0  0
    9.0248  -13.7534   17.7080 N   0  0  0  0  0  0  0  0  0  0  0  0
    9.6940  -17.5288   20.6595 C   0  0  0  0  0  0  0  0  0  0  0  0
   10.5647  -18.3209   20.2045 O   0  0  0  0  0  0  0  0  0  0  0  0
    9.6113  -17.2461   22.0499 N   0  0  0  0  0  0  0  0  0  0  0  0
   10.4767  -17.8704   22.9976 C   0  0  0  0  0  0  0  0  0  0  0  0
   10.2019  -17.4729   24.3970 C   0  0  0  0  0  0  0  0  0  0  0  0
   11.0446  -17.5010   25.3265 O   0  0  0  0  0  0  0  0  0  0  0  0
    6.8920  -12.0664   27.3619 C   0  0  0  0  0  0  0  0  0  0  0  0
    6.6442  -12.9659   25.8274 S   0  0  0  0  0  0  0  0  0  0  0  0
    7.9064  -14.2193   25.5496 C   0  0  0  0  0  0  0  0  0  0  0  0
    7.5384  -15.5139   26.1612 C   0  0  0  0  0  0  0  0  0  0  0  0
    8.5075  -16.6356   26.0567 C   0  0  2  0  0  0  0  0  0  0  0  0
    8.8865  -17.0241   24.7217 N   0  0  0  0  0  0  0  0  0  0  0  0
    7.9220  -17.8046   26.7633 C   0  0  0  0  0  0  0  0  0  0  0  0
    7.4929  -18.7666   26.0904 O   0  0  0  0  0  0  0  0  0  0  0  0
    7.8368  -17.8610   28.1527 O   0  0  0  0  0  0  0  0  0  0  0  0
  2  1  1  1
  2  9  1  0
  3  2  1  0
  4  3  1  0
  5  4  2  0
  6  7  1  0
  6  5  1  0
  7  8  2  0
  8  4  1  0
  9 10  2  0
 11  9  1  0
 11 12  1  0
 12 13  1  0
 13 14  2  0
 16 15  1  0
 17 16  1  0
 18 17  1  0
 19 18  1  6
 20 19  1  0
 20 13  1  0
 21 19  1  0
 22 21  2  0
 23 21  1  0
M  END
$$$$
