HGM.pdb
     RDKit          3D

 23 23  0  0  1  0  0  0  0  0999 V2000
    9.1685  -16.0562   19.1690 N   0  0  0  0  0  0  0  0  0  0  0  0
    8.4536  -14.9592   19.7435 C   0  0  1  0  0  0  0  0  0  0  0  0
    7.2824  -14.6226   18.8527 C   0  0  0  0  0  0  0  0  0  0  0  0
    7.6793  -14.2883   17.4746 C   0  0  0  0  0  0  0  0  0  0  0  0
    8.2075  -13.1170   17.0166 C   0  0  0  0  0  0  0  0  0  0  0  0
    8.4205  -13.2433   15.6982 N   0  0  0  0  0  0  0  0  0  0  0  0
    8.0324  -14.4682   15.3442 C   0  0  0  0  0  0  0  0  0  0  0  0
    7.5775  -15.1145   16.4249 N   0  0  0  0  0  0  0  0  0  0  0  0
    8.0002  -15.2998   21.1285 C   0  0  0  0  0  0  0  0  0  0  0  0
    7.3565  -14.4522   21.8067 O   0  0  0  0  0  0  0  0  0  0  0  0
    8.3075  -16.5835   21.6556 N   0  0  0  0  0  0  0  0  0  0  0  0
    7.8734  -16.9877   22.9536 C   0  0  0  0  0  0  0  0  0  0  0  0
    8.7116  -16.4496   24.0488 C   0  0  0  0  0  0  0  0  0  0  0  0
    9.9514  -16.2681   23.9769 O   0  0  0  0  0  0  0  0  0  0  0  0
    6.5129  -10.8707   26.1825 C   0  0  0  0  0  0  0  0  0  0  0  0
    6.5302  -12.6559   26.3775 S   0  0  0  0  0  0  0  0  0  0  0  0
    8.0647  -13.2570   27.1023 C   0  0  0  0  0  0  0  0  0  0  0  0
    8.0273  -14.7164   27.3348 C   0  0  0  0  0  0  0  0  0  0  0  0
    8.7967  -15.5901   26.4111 C   0  0  2  0  0  0  0  0  0  0  0  0
    8.0724  -16.1098   25.2789 N   0  0  0  0  0  0  0  0  0  0  0  0
    9.3423  -16.7194   27.2085 C   0  0  0  0  0  0  0  0  0  0  0  0
    8.9791  -17.8841   26.9366 O   0  0  0  0  0  0  0  0  0  0  0  0
   10.2461  -16.5196   28.2497 O   0  0  0  0  0  0  0  0  0  0  0  0
  2  1  1  6
  2  9  1  0
  3  2  1  0
  4  3  1  0
  5  4  2  0
  6  7  1  0
  6  5  1  0
  7  8  2  0
  8  4  1  0
  9 10  2  0
 11  9  1  0
 11 12  1  0
 12 13  1  0
 13 14  2  0
 16 15  1  0
 17 16  1  0
 18 17  1  0
 19 18  1  1
 20 19  1  0
 20 13  1  0
 21 19  1  0
 22 21  2  0
 23 21  1  0
M  END
$$$$
