HGM.pdb
     RDKit          3D

 23 23  0  0  1  0  0  0  0  0999 V2000
    8.4321  -15.9170   20.2643 N   0  0  0  0  0  0  0  0  0  0  0  0
    9.7702  -15.7715   19.7815 C   0  0  1  0  0  0  0  0  0  0  0  0
    9.8744  -14.4705   19.0230 C   0  0  0  0  0  0  0  0  0  0  0  0
    9.0592  -14.4473   17.7969 C   0  0  0  0  0  0  0  0  0  0  0  0
    8.2727  -15.4430   17.2959 C   0  0  0  0  0  0  0  0  0  0  0  0
    7.7097  -14.9986   16.1622 N   0  0  0  0  0  0  0  0  0  0  0  0
    8.1377  -13.7522   15.9629 C   0  0  0  0  0  0  0  0  0  0  0  0
    8.9638  -13.4068   16.9584 N   0  0  0  0  0  0  0  0  0  0  0  0
   10.7427  -15.8149   20.9183 C   0  0  0  0  0  0  0  0  0  0  0  0
   11.9831  -15.8238   20.6858 O   0  0  0  0  0  0  0  0  0  0  0  0
   10.2433  -15.8454   22.2486 N   0  0  0  0  0  0  0  0  0  0  0  0
   11.1140  -15.8708   23.3790 C   0  0  0  0  0  0  0  0  0  0  0  0
   10.3978  -15.9535   24.6721 C   0  0  0  0  0  0  0  0  0  0  0  0
   10.9550  -16.0343   25.7937 O   0  0  0  0  0  0  0  0  0  0  0  0
    7.0515  -11.6744   27.7624 C   0  0  0  0  0  0  0  0  0  0  0  0
    6.0966  -12.8629   26.8133 S   0  0  0  0  0  0  0  0  0  0  0  0
    7.1227  -13.8556   25.7165 C   0  0  0  0  0  0  0  0  0  0  0  0
    6.9769  -15.3015   25.9877 C   0  0  0  0  0  0  0  0  0  0  0  0
    8.1764  -16.1649   25.8328 C   0  0  2  0  0  0  0  0  0  0  0  0
    8.9707  -15.9412   24.6514 N   0  0  0  0  0  0  0  0  0  0  0  0
    7.7204  -17.5792   25.8603 C   0  0  0  0  0  0  0  0  0  0  0  0
    7.1581  -18.0144   26.8884 O   0  0  0  0  0  0  0  0  0  0  0  0
    7.9005  -18.4346   24.7757 O   0  0  0  0  0  0  0  0  0  0  0  0
  2  1  1  1
  2  9  1  0
  3  2  1  0
  4  3  1  0
  5  4  2  0
  6  7  1  0
  6  5  1  0
  7  8  2  0
  8  4  1  0
  9 10  2  0
 11  9  1  0
 11 12  1  0
 12 13  1  0
 13 14  2  0
 16 15  1  0
 17 16  1  0
 18 17  1  0
 19 18  1  6
 20 19  1  0
 20 13  1  0
 21 19  1  0
 22 21  2  0
 23 21  1  0
M  END
$$$$
