HGM.pdb
     RDKit          3D

 23 23  0  0  1  0  0  0  0  0999 V2000
    7.9131  -14.8094   21.7749 N   0  0  0  0  0  0  0  0  0  0  0  0
    7.9834  -16.0558   21.0776 C   0  0  1  0  0  0  0  0  0  0  0  0
    8.7555  -15.8529   19.7965 C   0  0  0  0  0  0  0  0  0  0  0  0
    8.1803  -14.8088   18.9319 C   0  0  0  0  0  0  0  0  0  0  0  0
    8.1561  -13.4623   19.1486 C   0  0  0  0  0  0  0  0  0  0  0  0
    7.5354  -12.8840   18.1093 N   0  0  0  0  0  0  0  0  0  0  0  0
    7.1811  -13.8517   17.2641 C   0  0  0  0  0  0  0  0  0  0  0  0
    7.5718  -15.0327   17.7595 N   0  0  0  0  0  0  0  0  0  0  0  0
    8.6254  -17.0991   21.9373 C   0  0  0  0  0  0  0  0  0  0  0  0
    8.7035  -18.2907   21.5289 O   0  0  0  0  0  0  0  0  0  0  0  0
    9.1384  -16.7218   23.2079 N   0  0  0  0  0  0  0  0  0  0  0  0
   10.5180  -16.8765   23.5386 C   0  0  0  0  0  0  0  0  0  0  0  0
   10.8299  -16.5246   24.9425 C   0  0  0  0  0  0  0  0  0  0  0  0
   11.9878  -16.4550   25.4215 O   0  0  0  0  0  0  0  0  0  0  0  0
    7.1388  -11.1321   26.4099 C   0  0  0  0  0  0  0  0  0  0  0  0
    7.2415  -12.7606   27.1601 S   0  0  0  0  0  0  0  0  0  0  0  0
    8.8698  -13.5058   26.9739 C   0  0  0  0  0  0  0  0  0  0  0  0
    8.9675  -14.7968   27.6874 C   0  0  0  0  0  0  0  0  0  0  0  0
    9.9365  -15.8029   27.1802 C   0  0  2  0  0  0  0  0  0  0  0  0
    9.7415  -16.2427   25.8219 N   0  0  0  0  0  0  0  0  0  0  0  0
    9.8863  -16.9762   28.0910 C   0  0  0  0  0  0  0  0  0  0  0  0
    9.4961  -18.0755   27.6417 O   0  0  0  0  0  0  0  0  0  0  0  0
   10.2608  -16.8885   29.4299 O   0  0  0  0  0  0  0  0  0  0  0  0
  2  1  1  1
  2  9  1  0
  3  2  1  0
  4  3  1  0
  5  4  2  0
  6  7  1  0
  6  5  1  0
  7  8  2  0
  8  4  1  0
  9 10  2  0
 11  9  1  0
 11 12  1  0
 12 13  1  0
 13 14  2  0
 16 15  1  0
 17 16  1  0
 18 17  1  0
 19 18  1  1
 20 19  1  0
 20 13  1  0
 21 19  1  0
 22 21  2  0
 23 21  1  0
M  END
$$$$
