HGM.pdb
     RDKit          3D

 23 23  0  0  1  0  0  0  0  0999 V2000
    8.1713  -15.6139   22.7925 N   0  0  0  0  0  0  0  0  0  0  0  0
    8.8780  -16.4506   21.8732 C   0  0  1  0  0  0  0  0  0  0  0  0
    9.3863  -15.6001   20.7343 C   0  0  0  0  0  0  0  0  0  0  0  0
    8.4210  -14.5767   20.2991 C   0  0  0  0  0  0  0  0  0  0  0  0
    7.0589  -14.6446   20.3290 C   0  0  0  0  0  0  0  0  0  0  0  0
    6.5736  -13.4938   19.8392 N   0  0  0  0  0  0  0  0  0  0  0  0
    7.6131  -12.7266   19.5118 C   0  0  0  0  0  0  0  0  0  0  0  0
    8.7474  -13.3813   19.7898 N   0  0  0  0  0  0  0  0  0  0  0  0
   10.0018  -17.1549   22.5665 C   0  0  0  0  0  0  0  0  0  0  0  0
   10.6516  -18.0517   21.9614 O   0  0  0  0  0  0  0  0  0  0  0  0
   10.3163  -16.7950   23.9050 N   0  0  0  0  0  0  0  0  0  0  0  0
   11.6387  -16.9191   24.4269 C   0  0  0  0  0  0  0  0  0  0  0  0
   11.7515  -16.5159   25.8469 C   0  0  0  0  0  0  0  0  0  0  0  0
   12.8214  -16.5007   26.5027 O   0  0  0  0  0  0  0  0  0  0  0  0
    6.7708  -12.1135   25.4844 C   0  0  0  0  0  0  0  0  0  0  0  0
    7.7444  -12.4906   26.9456 S   0  0  0  0  0  0  0  0  0  0  0  0
    9.0477  -13.6885   26.6174 C   0  0  0  0  0  0  0  0  0  0  0  0
    9.5976  -14.2575   27.8661 C   0  0  0  0  0  0  0  0  0  0  0  0
   10.5901  -15.3578   27.7539 C   0  0  2  0  0  0  0  0  0  0  0  0
   10.5630  -16.1138   26.5273 N   0  0  0  0  0  0  0  0  0  0  0  0
   10.3781  -16.2752   28.9038 C   0  0  0  0  0  0  0  0  0  0  0  0
   10.5215  -15.8345   30.0647 O   0  0  0  0  0  0  0  0  0  0  0  0
   10.0244  -17.6110   28.7275 O   0  0  0  0  0  0  0  0  0  0  0  0
  2  1  1  1
  2  9  1  0
  3  2  1  0
  4  3  1  0
  5  4  2  0
  6  7  1  0
  6  5  1  0
  7  8  2  0
  8  4  1  0
  9 10  2  0
 11  9  1  0
 11 12  1  0
 12 13  1  0
 13 14  2  0
 16 15  1  0
 17 16  1  0
 18 17  1  0
 19 18  1  6
 20 19  1  0
 20 13  1  0
 21 19  1  0
 22 21  2  0
 23 21  1  0
M  END
$$$$
