NQG.pdb
     RDKit          3D

 22 21  0  0  1  0  0  0  0  0999 V2000
    6.2703  -14.1845   17.8282 N   0  0  0  0  0  0  0  0  0  0  0  0
    7.4767  -14.9287   17.8461 C   0  0  0  0  0  0  0  0  0  0  0  0
    7.7544  -15.6972   16.9024 O   0  0  0  0  0  0  0  0  0  0  0  0
    8.4018  -14.7867   18.9912 C   0  0  0  0  0  0  0  0  0  0  0  0
    7.7509  -13.9449   20.0427 C   0  0  2  0  0  0  0  0  0  0  0  0
    7.5399  -12.6157   19.5664 N   0  0  0  0  0  0  0  0  0  0  0  0
    8.4949  -13.8889   21.3088 C   0  0  0  0  0  0  0  0  0  0  0  0
    9.6540  -13.4133   21.3113 O   0  0  0  0  0  0  0  0  0  0  0  0
    6.1747  -11.1859   26.6932 N   0  0  0  0  0  0  0  0  0  0  0  0
    6.1790  -12.4196   25.9661 C   0  0  0  0  0  0  0  0  0  0  0  0
    5.3785  -13.3410   26.2337 O   0  0  0  0  0  0  0  0  0  0  0  0
    7.1613  -12.6215   24.8573 C   0  0  0  0  0  0  0  0  0  0  0  0
    7.7405  -13.9896   24.9210 C   0  0  0  0  0  0  0  0  0  0  0  0
    8.6681  -14.3544   23.7925 C   0  0  2  0  0  0  0  0  0  0  0  0
    7.9244  -14.3624   22.5214 N   0  0  0  0  0  0  0  0  0  0  0  0
    9.3087  -15.6555   24.0087 C   0  0  0  0  0  0  0  0  0  0  0  0
    8.6866  -16.7246   24.2355 O   0  0  0  0  0  0  0  0  0  0  0  0
   10.7532  -15.7169   23.9583 N   0  0  0  0  0  0  0  0  0  0  0  0
   11.3869  -16.9271   24.4020 C   0  0  0  0  0  0  0  0  0  0  0  0
   12.8494  -16.8826   24.2359 C   0  0  0  0  0  0  0  0  0  0  0  0
   13.4027  -15.8762   23.7272 O   0  0  0  0  0  0  0  0  0  0  0  0
   13.6154  -17.9494   24.6399 O   0  0  0  0  0  0  0  0  0  0  0  0
  1  2  1  0
  2  3  2  0
  2  4  1  0
  5  6  1  6
  5  7  1  0
  5  4  1  0
  7  8  2  0
  9 10  1  0
 10 12  1  0
 11 10  2  0
 12 13  1  0
 14 13  1  1
 14 16  1  0
 15  7  1  0
 15 14  1  0
 16 18  1  0
 16 17  2  0
 18 19  1  0
 20 19  1  0
 20 22  1  0
 21 20  2  0
M  END
$$$$
