NQG.pdb
     RDKit          3D

 22 21  0  0  1  0  0  0  0  0999 V2000
   13.9449  -16.8057   15.3310 N   0  0  0  0  0  0  0  0  0  0  0  0
   14.3501  -15.4603   15.5183 C   0  0  0  0  0  0  0  0  0  0  0  0
   15.3527  -15.0174   14.9205 O   0  0  0  0  0  0  0  0  0  0  0  0
   13.5756  -14.5873   16.4267 C   0  0  0  0  0  0  0  0  0  0  0  0
   13.1242  -15.3889   17.6063 C   0  0  2  0  0  0  0  0  0  0  0  0
   12.1418  -16.3493   17.2181 N   0  0  0  0  0  0  0  0  0  0  0  0
   12.5934  -14.5789   18.7117 C   0  0  0  0  0  0  0  0  0  0  0  0
   13.2960  -13.6513   19.1763 O   0  0  0  0  0  0  0  0  0  0  0  0
    6.7374  -12.9657   19.5150 N   0  0  0  0  0  0  0  0  0  0  0  0
    7.5785  -13.1747   18.3750 C   0  0  0  0  0  0  0  0  0  0  0  0
    7.1440  -13.0569   17.2093 O   0  0  0  0  0  0  0  0  0  0  0  0
    9.0138  -13.5434   18.5722 C   0  0  0  0  0  0  0  0  0  0  0  0
    9.3345  -13.6202   20.0222 C   0  0  0  0  0  0  0  0  0  0  0  0
   10.7481  -14.0187   20.3537 C   0  0  2  0  0  0  0  0  0  0  0  0
   11.3054  -14.8294   19.2577 N   0  0  0  0  0  0  0  0  0  0  0  0
   10.8268  -14.7588   21.6170 C   0  0  0  0  0  0  0  0  0  0  0  0
   10.3904  -14.3342   22.7173 O   0  0  0  0  0  0  0  0  0  0  0  0
   11.4476  -16.0654   21.6000 N   0  0  0  0  0  0  0  0  0  0  0  0
   11.5750  -16.7615   22.8499 C   0  0  0  0  0  0  0  0  0  0  0  0
   12.9307  -16.6492   23.4137 C   0  0  0  0  0  0  0  0  0  0  0  0
   13.8098  -15.9687   22.8289 O   0  0  0  0  0  0  0  0  0  0  0  0
   13.2374  -17.2931   24.5882 O   0  0  0  0  0  0  0  0  0  0  0  0
  1  2  1  0
  2  3  2  0
  2  4  1  0
  5  6  1  6
  5  7  1  0
  5  4  1  0
  7  8  2  0
  9 10  1  0
 10 12  1  0
 11 10  2  0
 12 13  1  0
 14 13  1  6
 14 16  1  0
 15  7  1  0
 15 14  1  0
 16 18  1  0
 16 17  2  0
 18 19  1  0
 20 19  1  0
 20 22  1  0
 21 20  2  0
M  END
$$$$
