NQG.pdb
     RDKit          3D

 22 21  0  0  1  0  0  0  0  0999 V2000
    7.6565  -18.8382   15.4600 N   0  0  0  0  0  0  0  0  0  0  0  0
    6.6557  -18.2248   16.2547 C   0  0  0  0  0  0  0  0  0  0  0  0
    5.5349  -17.9708   15.7671 O   0  0  0  0  0  0  0  0  0  0  0  0
    6.9510  -17.8889   17.6643 C   0  0  0  0  0  0  0  0  0  0  0  0
    8.3927  -18.1752   17.9424 C   0  0  2  0  0  0  0  0  0  0  0  0
    8.6309  -19.5825   17.9753 N   0  0  0  0  0  0  0  0  0  0  0  0
    8.8922  -17.5743   19.1870 C   0  0  0  0  0  0  0  0  0  0  0  0
    8.8129  -16.3328   19.3363 O   0  0  0  0  0  0  0  0  0  0  0  0
   10.0818  -20.7041   24.4821 N   0  0  0  0  0  0  0  0  0  0  0  0
   10.6644  -19.4409   24.8221 C   0  0  0  0  0  0  0  0  0  0  0  0
   11.1686  -19.2328   25.9463 O   0  0  0  0  0  0  0  0  0  0  0  0
   10.6752  -18.3361   23.8149 C   0  0  0  0  0  0  0  0  0  0  0  0
   10.0840  -18.7993   22.5315 C   0  0  0  0  0  0  0  0  0  0  0  0
   10.0686  -17.7833   21.4203 C   0  0  2  0  0  0  0  0  0  0  0  0
    9.4595  -18.3735   20.2163 N   0  0  0  0  0  0  0  0  0  0  0  0
   11.4139  -17.2879   21.1122 C   0  0  0  0  0  0  0  0  0  0  0  0
   12.0937  -16.5564   21.8765 O   0  0  0  0  0  0  0  0  0  0  0  0
   12.0012  -17.6641   19.8448 N   0  0  0  0  0  0  0  0  0  0  0  0
   13.2995  -17.1380   19.5271 C   0  0  0  0  0  0  0  0  0  0  0  0
   14.3846  -18.0314   19.9662 C   0  0  0  0  0  0  0  0  0  0  0  0
   14.1263  -19.0820   20.6045 O   0  0  0  0  0  0  0  0  0  0  0  0
   15.6898  -17.7144   19.6761 O   0  0  0  0  0  0  0  0  0  0  0  0
  1  2  1  0
  2  3  2  0
  2  4  1  0
  5  6  1  1
  5  7  1  0
  5  4  1  0
  7  8  2  0
  9 10  1  0
 10 12  1  0
 11 10  2  0
 12 13  1  0
 14 13  1  1
 14 16  1  0
 15  7  1  0
 15 14  1  0
 16 18  1  0
 16 17  2  0
 18 19  1  0
 20 19  1  0
 20 22  1  0
 21 20  2  0
M  END
$$$$
