NQG.pdb
     RDKit          3D

 22 21  0  0  1  0  0  0  0  0999 V2000
   10.9979  -21.9826   17.9464 N   0  0  0  0  0  0  0  0  0  0  0  0
   10.2991  -20.7578   17.8021 C   0  0  0  0  0  0  0  0  0  0  0  0
    9.4947  -20.6011   16.8604 O   0  0  0  0  0  0  0  0  0  0  0  0
   10.5314  -19.6690   18.7756 C   0  0  0  0  0  0  0  0  0  0  0  0
   10.6821  -18.3774   18.0361 C   0  0  2  0  0  0  0  0  0  0  0  0
   11.8281  -18.4132   17.1854 N   0  0  0  0  0  0  0  0  0  0  0  0
   10.7671  -17.1965   18.9068 C   0  0  0  0  0  0  0  0  0  0  0  0
   11.7936  -16.4798   18.8591 O   0  0  0  0  0  0  0  0  0  0  0  0
    7.0358  -12.0801   19.7859 N   0  0  0  0  0  0  0  0  0  0  0  0
    7.2504  -13.3092   19.0832 C   0  0  0  0  0  0  0  0  0  0  0  0
    6.3721  -13.8043   18.3451 O   0  0  0  0  0  0  0  0  0  0  0  0
    8.5539  -14.0268   19.2287 C   0  0  0  0  0  0  0  0  0  0  0  0
    8.5714  -14.8192   20.4869 C   0  0  0  0  0  0  0  0  0  0  0  0
    9.7837  -15.6890   20.6889 C   0  0  2  0  0  0  0  0  0  0  0  0
    9.7109  -16.8574   19.7953 N   0  0  0  0  0  0  0  0  0  0  0  0
    9.9170  -16.1283   22.0814 C   0  0  0  0  0  0  0  0  0  0  0  0
    9.1857  -16.9941   22.6262 O   0  0  0  0  0  0  0  0  0  0  0  0
   10.9589  -15.5273   22.8853 N   0  0  0  0  0  0  0  0  0  0  0  0
   11.0980  -15.9749   24.2430 C   0  0  0  0  0  0  0  0  0  0  0  0
   12.2847  -16.8267   24.4292 C   0  0  0  0  0  0  0  0  0  0  0  0
   12.5259  -17.7669   23.6320 O   0  0  0  0  0  0  0  0  0  0  0  0
   13.1353  -16.5920   25.4826 O   0  0  0  0  0  0  0  0  0  0  0  0
  1  2  1  0
  2  3  2  0
  2  4  1  0
  5  6  1  1
  5  7  1  0
  5  4  1  0
  7  8  2  0
  9 10  1  0
 10 12  1  0
 11 10  2  0
 12 13  1  0
 14 13  1  1
 14 16  1  0
 15  7  1  0
 15 14  1  0
 16 18  1  0
 16 17  2  0
 18 19  1  0
 20 19  1  0
 20 22  1  0
 21 20  2  0
M  END
$$$$
