NQG.pdb
     RDKit          3D

 22 21  0  0  1  0  0  0  0  0999 V2000
   14.4470  -16.1800   17.2161 N   0  0  0  0  0  0  0  0  0  0  0  0
   14.6061  -14.8113   17.5492 C   0  0  0  0  0  0  0  0  0  0  0  0
   15.4010  -14.0965   16.9046 O   0  0  0  0  0  0  0  0  0  0  0  0
   13.8230  -14.2389   18.6656 C   0  0  0  0  0  0  0  0  0  0  0  0
   13.0781  -15.3388   19.3534 C   0  0  2  0  0  0  0  0  0  0  0  0
   12.2378  -16.0331   18.4315 N   0  0  0  0  0  0  0  0  0  0  0  0
   12.2699  -14.8900   20.4958 C   0  0  0  0  0  0  0  0  0  0  0  0
   12.8278  -14.2592   21.4236 O   0  0  0  0  0  0  0  0  0  0  0  0
    8.0179  -12.5867   17.6569 N   0  0  0  0  0  0  0  0  0  0  0  0
    8.2256  -13.5404   18.7046 C   0  0  0  0  0  0  0  0  0  0  0  0
    8.0097  -14.7593   18.5339 O   0  0  0  0  0  0  0  0  0  0  0  0
    8.7128  -13.0779   20.0403 C   0  0  0  0  0  0  0  0  0  0  0  0
    8.6845  -14.1977   21.0183 C   0  0  0  0  0  0  0  0  0  0  0  0
   10.0166  -14.5766   21.6092 C   0  0  2  0  0  0  0  0  0  0  0  0
   10.8759  -15.1583   20.5642 N   0  0  0  0  0  0  0  0  0  0  0  0
    9.8734  -15.5178   22.7243 C   0  0  0  0  0  0  0  0  0  0  0  0
    9.1741  -15.3056   23.7477 O   0  0  0  0  0  0  0  0  0  0  0  0
   10.5832  -16.7759   22.6452 N   0  0  0  0  0  0  0  0  0  0  0  0
   10.4435  -17.6927   23.7421 C   0  0  0  0  0  0  0  0  0  0  0  0
   11.6381  -17.7167   24.6027 C   0  0  0  0  0  0  0  0  0  0  0  0
   12.5547  -16.8725   24.4446 O   0  0  0  0  0  0  0  0  0  0  0  0
   11.7520  -18.6694   25.5864 O   0  0  0  0  0  0  0  0  0  0  0  0
  1  2  1  0
  2  3  2  0
  2  4  1  0
  5  6  1  6
  5  7  1  0
  5  4  1  0
  7  8  2  0
  9 10  1  0
 10 12  1  0
 11 10  2  0
 12 13  1  0
 14 13  1  6
 14 16  1  0
 15  7  1  0
 15 14  1  0
 16 18  1  0
 16 17  2  0
 18 19  1  0
 20 19  1  0
 20 22  1  0
 21 20  2  0
M  END
$$$$
