NQG.pdb
     RDKit          3D

 22 21  0  0  1  0  0  0  0  0999 V2000
   12.5989  -18.1172   20.1545 N   0  0  0  0  0  0  0  0  0  0  0  0
   11.8926  -17.0130   20.6942 C   0  0  0  0  0  0  0  0  0  0  0  0
   11.0202  -16.4331   20.0152 O   0  0  0  0  0  0  0  0  0  0  0  0
   12.1982  -16.5549   22.0668 C   0  0  0  0  0  0  0  0  0  0  0  0
   11.3975  -17.3612   23.0397 C   0  0  2  0  0  0  0  0  0  0  0  0
   10.0059  -17.0681   22.9140 N   0  0  0  0  0  0  0  0  0  0  0  0
   11.8016  -17.1805   24.4411 C   0  0  0  0  0  0  0  0  0  0  0  0
   13.0205  -17.2090   24.7298 O   0  0  0  0  0  0  0  0  0  0  0  0
    8.9006  -13.8448   28.7351 N   0  0  0  0  0  0  0  0  0  0  0  0
    9.5925  -13.4579   27.5426 C   0  0  0  0  0  0  0  0  0  0  0  0
    9.4814  -12.3091   27.0636 O   0  0  0  0  0  0  0  0  0  0  0  0
   10.4725  -14.4446   26.8446 C   0  0  0  0  0  0  0  0  0  0  0  0
   10.4255  -15.7604   27.5359 C   0  0  0  0  0  0  0  0  0  0  0  0
   11.2170  -16.8637   26.8851 C   0  0  2  0  0  0  0  0  0  0  0  0
   10.8387  -16.9755   25.4661 N   0  0  0  0  0  0  0  0  0  0  0  0
   11.0214  -18.1502   27.5607 C   0  0  0  0  0  0  0  0  0  0  0  0
   10.1321  -18.9851   27.2550 O   0  0  0  0  0  0  0  0  0  0  0  0
   11.9095  -18.4846   28.6526 N   0  0  0  0  0  0  0  0  0  0  0  0
   11.7550  -19.7723   29.2699 C   0  0  0  0  0  0  0  0  0  0  0  0
   12.7959  -20.0347   30.2779 C   0  0  0  0  0  0  0  0  0  0  0  0
   12.7524  -21.0728   30.9838 O   0  0  0  0  0  0  0  0  0  0  0  0
   13.8230  -19.1379   30.4483 O   0  0  0  0  0  0  0  0  0  0  0  0
  1  2  1  0
  2  3  2  0
  2  4  1  0
  5  6  1  1
  5  7  1  0
  5  4  1  0
  7  8  2  0
  9 10  1  0
 10 12  1  0
 11 10  2  0
 12 13  1  0
 14 13  1  1
 14 16  1  0
 15  7  1  0
 15 14  1  0
 16 18  1  0
 16 17  2  0
 18 19  1  0
 20 19  1  0
 20 22  1  0
 21 20  2  0
M  END
$$$$
