NQG.pdb
     RDKit          3D

 22 21  0  0  1  0  0  0  0  0999 V2000
   14.9458  -21.3573   24.7118 N   0  0  0  0  0  0  0  0  0  0  0  0
   15.5275  -20.8032   25.8797 C   0  0  0  0  0  0  0  0  0  0  0  0
   16.7685  -20.7810   26.0131 O   0  0  0  0  0  0  0  0  0  0  0  0
   14.6522  -20.2526   26.9370 C   0  0  0  0  0  0  0  0  0  0  0  0
   14.8326  -21.0550   28.1865 C   0  0  2  0  0  0  0  0  0  0  0  0
   14.4823  -22.4211   27.9644 N   0  0  0  0  0  0  0  0  0  0  0  0
   14.0749  -20.5461   29.3383 C   0  0  0  0  0  0  0  0  0  0  0  0
   14.0824  -19.3156   29.5741 O   0  0  0  0  0  0  0  0  0  0  0  0
    9.7155  -25.1249   31.1049 N   0  0  0  0  0  0  0  0  0  0  0  0
    9.8754  -23.7084   31.2417 C   0  0  0  0  0  0  0  0  0  0  0  0
    8.8915  -22.9413   31.3119 O   0  0  0  0  0  0  0  0  0  0  0  0
   11.2491  -23.1215   31.3033 C   0  0  0  0  0  0  0  0  0  0  0  0
   11.1790  -21.6362   31.2863 C   0  0  0  0  0  0  0  0  0  0  0  0
   12.5057  -20.9243   31.2903 C   0  0  2  0  0  0  0  0  0  0  0  0
   13.3393  -21.4214   30.1826 N   0  0  0  0  0  0  0  0  0  0  0  0
   13.2121  -21.0890   32.5646 C   0  0  0  0  0  0  0  0  0  0  0  0
   12.7891  -20.6668   33.6710 O   0  0  0  0  0  0  0  0  0  0  0  0
   14.4812  -21.7835   32.5515 N   0  0  0  0  0  0  0  0  0  0  0  0
   15.1779  -21.9265   33.7994 C   0  0  0  0  0  0  0  0  0  0  0  0
   16.4457  -22.6602   33.6479 C   0  0  0  0  0  0  0  0  0  0  0  0
   16.7738  -23.1428   32.5355 O   0  0  0  0  0  0  0  0  0  0  0  0
   17.2767  -22.8187   34.7307 O   0  0  0  0  0  0  0  0  0  0  0  0
  1  2  1  0
  2  3  2  0
  2  4  1  0
  5  6  1  6
  5  7  1  0
  5  4  1  0
  7  8  2  0
  9 10  1  0
 10 12  1  0
 11 10  2  0
 12 13  1  0
 14 13  1  1
 14 16  1  0
 15  7  1  0
 15 14  1  0
 16 18  1  0
 16 17  2  0
 18 19  1  0
 20 19  1  0
 20 22  1  0
 21 20  2  0
M  END
$$$$
