NQG.pdb
     RDKit          3D

 22 21  0  0  1  0  0  0  0  0999 V2000
    5.8557  -12.6557   16.5064 N   0  0  0  0  0  0  0  0  0  0  0  0
    7.0043  -13.4323   16.8013 C   0  0  0  0  0  0  0  0  0  0  0  0
    7.3539  -14.3528   16.0339 O   0  0  0  0  0  0  0  0  0  0  0  0
    7.7837  -13.1425   18.0243 C   0  0  0  0  0  0  0  0  0  0  0  0
    8.9668  -14.0564   18.0768 C   0  0  2  0  0  0  0  0  0  0  0  0
    8.5562  -15.4203   17.9802 N   0  0  0  0  0  0  0  0  0  0  0  0
    9.7986  -13.8891   19.2767 C   0  0  0  0  0  0  0  0  0  0  0  0
   10.2398  -12.7500   19.5555 O   0  0  0  0  0  0  0  0  0  0  0  0
   11.3279  -18.3630   23.3841 N   0  0  0  0  0  0  0  0  0  0  0  0
   11.5643  -17.1989   24.1839 C   0  0  0  0  0  0  0  0  0  0  0  0
   12.0558  -17.2796   25.3299 O   0  0  0  0  0  0  0  0  0  0  0  0
   11.2183  -15.8481   23.6446 C   0  0  0  0  0  0  0  0  0  0  0  0
   10.6139  -15.9698   22.2914 C   0  0  0  0  0  0  0  0  0  0  0  0
   10.9132  -14.8390   21.3433 C   0  0  2  0  0  0  0  0  0  0  0  0
   10.1081  -14.9908   20.1195 N   0  0  0  0  0  0  0  0  0  0  0  0
   12.3378  -14.7718   21.0030 C   0  0  0  0  0  0  0  0  0  0  0  0
   13.2666  -15.1676   21.7527 O   0  0  0  0  0  0  0  0  0  0  0  0
   12.7028  -14.2132   19.7194 N   0  0  0  0  0  0  0  0  0  0  0  0
   14.1012  -14.0540   19.4327 C   0  0  0  0  0  0  0  0  0  0  0  0
   14.7172  -15.3037   18.9561 C   0  0  0  0  0  0  0  0  0  0  0  0
   14.9818  -16.2312   19.7608 O   0  0  0  0  0  0  0  0  0  0  0  0
   15.0052  -15.4575   17.6213 O   0  0  0  0  0  0  0  0  0  0  0  0
  1  2  1  0
  2  3  2  0
  2  4  1  0
  5  6  1  1
  5  7  1  0
  5  4  1  0
  7  8  2  0
  9 10  1  0
 10 12  1  0
 11 10  2  0
 12 13  1  0
 14 13  1  1
 14 16  1  0
 15  7  1  0
 15 14  1  0
 16 18  1  0
 16 17  2  0
 18 19  1  0
 20 19  1  0
 20 22  1  0
 21 20  2  0
M  END
$$$$
