NQG.pdb
     RDKit          3D

 22 21  0  0  1  0  0  0  0  0999 V2000
    7.6359  -12.8335   17.4197 N   0  0  0  0  0  0  0  0  0  0  0  0
    7.9313  -13.8877   18.3202 C   0  0  0  0  0  0  0  0  0  0  0  0
    7.8826  -15.0743   17.9354 O   0  0  0  0  0  0  0  0  0  0  0  0
    8.2971  -13.5695   19.7174 C   0  0  0  0  0  0  0  0  0  0  0  0
    8.4872  -14.8456   20.4745 C   0  0  2  0  0  0  0  0  0  0  0  0
    7.2752  -15.5995   20.5061 N   0  0  0  0  0  0  0  0  0  0  0  0
    8.9722  -14.6584   21.8491 C   0  0  0  0  0  0  0  0  0  0  0  0
    9.9879  -13.9509   22.0434 O   0  0  0  0  0  0  0  0  0  0  0  0
    5.5968  -13.8445   26.7882 N   0  0  0  0  0  0  0  0  0  0  0  0
    6.0806  -12.8811   25.8456 C   0  0  0  0  0  0  0  0  0  0  0  0
    5.5925  -11.7332   25.7723 O   0  0  0  0  0  0  0  0  0  0  0  0
    7.1973  -13.2468   24.9212 C   0  0  0  0  0  0  0  0  0  0  0  0
    7.6865  -14.6195   25.2171 C   0  0  0  0  0  0  0  0  0  0  0  0
    8.8011  -15.1152   24.3345 C   0  0  2  0  0  0  0  0  0  0  0  0
    8.3122  -15.2629   22.9531 N   0  0  0  0  0  0  0  0  0  0  0  0
    9.3531  -16.3872   24.8114 C   0  0  0  0  0  0  0  0  0  0  0  0
    9.6040  -16.6454   26.0163 O   0  0  0  0  0  0  0  0  0  0  0  0
    9.6287  -17.4162   23.8326 N   0  0  0  0  0  0  0  0  0  0  0  0
   10.9327  -17.4345   23.2307 C   0  0  0  0  0  0  0  0  0  0  0  0
   11.9922  -17.7370   24.2076 C   0  0  0  0  0  0  0  0  0  0  0  0
   12.1410  -17.0208   25.2288 O   0  0  0  0  0  0  0  0  0  0  0  0
   12.8250  -18.8104   24.0015 O   0  0  0  0  0  0  0  0  0  0  0  0
  1  2  1  0
  2  3  2  0
  2  4  1  0
  5  6  1  1
  5  7  1  0
  5  4  1  0
  7  8  2  0
  9 10  1  0
 10 12  1  0
 11 10  2  0
 12 13  1  0
 14 13  1  1
 14 16  1  0
 15  7  1  0
 15 14  1  0
 16 18  1  0
 16 17  2  0
 18 19  1  0
 20 19  1  0
 20 22  1  0
 21 20  2  0
M  END
$$$$
