NQG.pdb
     RDKit          3D

 22 21  0  0  1  0  0  0  0  0999 V2000
    6.8817  -22.1871   19.1158 N   0  0  0  0  0  0  0  0  0  0  0  0
    8.0588  -21.5065   18.7150 C   0  0  0  0  0  0  0  0  0  0  0  0
    8.5773  -21.7489   17.6056 O   0  0  0  0  0  0  0  0  0  0  0  0
    8.6660  -20.5083   19.6216 C   0  0  0  0  0  0  0  0  0  0  0  0
    8.3754  -19.1362   19.1013 C   0  0  2  0  0  0  0  0  0  0  0  0
    8.7053  -19.0411   17.7156 N   0  0  0  0  0  0  0  0  0  0  0  0
    9.0610  -18.0619   19.8331 C   0  0  0  0  0  0  0  0  0  0  0  0
   10.3087  -18.1007   19.9402 O   0  0  0  0  0  0  0  0  0  0  0  0
    7.1261  -12.2427   20.1323 N   0  0  0  0  0  0  0  0  0  0  0  0
    7.8998  -12.8540   19.0939 C   0  0  0  0  0  0  0  0  0  0  0  0
    7.9958  -12.3402   17.9588 O   0  0  0  0  0  0  0  0  0  0  0  0
    8.6149  -14.1391   19.3629 C   0  0  0  0  0  0  0  0  0  0  0  0
    8.3824  -14.5776   20.7646 C   0  0  0  0  0  0  0  0  0  0  0  0
    9.0048  -15.8952   21.1437 C   0  0  2  0  0  0  0  0  0  0  0  0
    8.3362  -16.9876   20.4167 N   0  0  0  0  0  0  0  0  0  0  0  0
    8.9377  -16.1374   22.5883 C   0  0  0  0  0  0  0  0  0  0  0  0
    7.8691  -16.2811   23.2355 O   0  0  0  0  0  0  0  0  0  0  0  0
   10.1825  -16.2168   23.3211 N   0  0  0  0  0  0  0  0  0  0  0  0
   10.1132  -16.4927   24.7290 C   0  0  0  0  0  0  0  0  0  0  0  0
   11.4476  -16.6487   25.3318 C   0  0  0  0  0  0  0  0  0  0  0  0
   12.4817  -16.5484   24.6257 O   0  0  0  0  0  0  0  0  0  0  0  0
   11.5637  -16.9059   26.6766 O   0  0  0  0  0  0  0  0  0  0  0  0
  1  2  1  0
  2  3  2  0
  2  4  1  0
  5  6  1  6
  5  7  1  0
  5  4  1  0
  7  8  2  0
  9 10  1  0
 10 12  1  0
 11 10  2  0
 12 13  1  0
 14 13  1  1
 14 16  1  0
 15  7  1  0
 15 14  1  0
 16 18  1  0
 16 17  2  0
 18 19  1  0
 20 19  1  0
 20 22  1  0
 21 20  2  0
M  END
$$$$
