NQG.pdb
     RDKit          3D

 22 21  0  0  1  0  0  0  0  0999 V2000
    3.4376  -18.8757   20.5211 N   0  0  0  0  0  0  0  0  0  0  0  0
    3.5899  -18.1041   21.7004 C   0  0  0  0  0  0  0  0  0  0  0  0
    2.9012  -18.3579   22.7102 O   0  0  0  0  0  0  0  0  0  0  0  0
    4.5706  -16.9974   21.7236 C   0  0  0  0  0  0  0  0  0  0  0  0
    5.8200  -17.4668   22.3992 C   0  0  2  0  0  0  0  0  0  0  0  0
    5.5179  -18.0691   23.6578 N   0  0  0  0  0  0  0  0  0  0  0  0
    6.8234  -16.4119   22.6001 C   0  0  0  0  0  0  0  0  0  0  0  0
    7.1990  -15.7357   21.6145 O   0  0  0  0  0  0  0  0  0  0  0  0
    7.4733  -13.1769   27.7358 N   0  0  0  0  0  0  0  0  0  0  0  0
    6.5528  -12.9595   26.6606 C   0  0  0  0  0  0  0  0  0  0  0  0
    5.5301  -12.2562   26.8052 O   0  0  0  0  0  0  0  0  0  0  0  0
    6.8115  -13.5846   25.3274 C   0  0  0  0  0  0  0  0  0  0  0  0
    8.0913  -14.3415   25.3497 C   0  0  0  0  0  0  0  0  0  0  0  0
    8.4045  -15.1231   24.1015 C   0  0  2  0  0  0  0  0  0  0  0  0
    7.3702  -16.1489   23.8853 N   0  0  0  0  0  0  0  0  0  0  0  0
    9.7287  -15.7495   24.1651 C   0  0  0  0  0  0  0  0  0  0  0  0
   10.8116  -15.1151   24.2444 O   0  0  0  0  0  0  0  0  0  0  0  0
    9.7975  -17.1943   24.1349 N   0  0  0  0  0  0  0  0  0  0  0  0
   11.0946  -17.8040   24.2294 C   0  0  0  0  0  0  0  0  0  0  0  0
   11.5326  -17.9665   25.6258 C   0  0  0  0  0  0  0  0  0  0  0  0
   10.7983  -17.5886   26.5723 O   0  0  0  0  0  0  0  0  0  0  0  0
   12.7537  -18.5356   25.8968 O   0  0  0  0  0  0  0  0  0  0  0  0
  1  2  1  0
  2  3  2  0
  2  4  1  0
  5  6  1  1
  5  7  1  0
  5  4  1  0
  7  8  2  0
  9 10  1  0
 10 12  1  0
 11 10  2  0
 12 13  1  0
 14 13  1  1
 14 16  1  0
 15  7  1  0
 15 14  1  0
 16 18  1  0
 16 17  2  0
 18 19  1  0
 20 19  1  0
 20 22  1  0
 21 20  2  0
M  END
$$$$
