NQG.pdb
     RDKit          3D

 22 21  0  0  1  0  0  0  0  0999 V2000
    8.3571  -19.3423   15.0828 N   0  0  0  0  0  0  0  0  0  0  0  0
    9.3977  -19.3338   16.0453 C   0  0  0  0  0  0  0  0  0  0  0  0
   10.0204  -20.3838   16.3060 O   0  0  0  0  0  0  0  0  0  0  0  0
    9.7384  -18.0716   16.7367 C   0  0  0  0  0  0  0  0  0  0  0  0
   10.2674  -18.3893   18.0994 C   0  0  2  0  0  0  0  0  0  0  0  0
    9.3480  -19.2107   18.8193 N   0  0  0  0  0  0  0  0  0  0  0  0
   10.5874  -17.2043   18.9076 C   0  0  0  0  0  0  0  0  0  0  0  0
   11.4572  -16.4035   18.4929 O   0  0  0  0  0  0  0  0  0  0  0  0
    7.0521  -13.0491   21.0873 N   0  0  0  0  0  0  0  0  0  0  0  0
    7.6120  -13.3079   19.7949 C   0  0  0  0  0  0  0  0  0  0  0  0
    7.1743  -12.7484   18.7669 O   0  0  0  0  0  0  0  0  0  0  0  0
    8.7488  -14.2695   19.6601 C   0  0  0  0  0  0  0  0  0  0  0  0
    9.1233  -14.8187   20.9903 C   0  0  0  0  0  0  0  0  0  0  0  0
   10.2676  -15.7972   20.9892 C   0  0  2  0  0  0  0  0  0  0  0  0
    9.9305  -16.9545   20.1429 N   0  0  0  0  0  0  0  0  0  0  0  0
   10.6059  -16.2461   22.3435 C   0  0  0  0  0  0  0  0  0  0  0  0
    9.8169  -16.8601   23.1062 O   0  0  0  0  0  0  0  0  0  0  0  0
   11.9359  -15.9652   22.8385 N   0  0  0  0  0  0  0  0  0  0  0  0
   12.2443  -16.3559   24.1859 C   0  0  0  0  0  0  0  0  0  0  0  0
   13.6399  -16.0552   24.5468 C   0  0  0  0  0  0  0  0  0  0  0  0
   14.4552  -15.6687   23.6729 O   0  0  0  0  0  0  0  0  0  0  0  0
   14.0545  -16.1980   25.8491 O   0  0  0  0  0  0  0  0  0  0  0  0
  1  2  1  0
  2  3  2  0
  2  4  1  0
  5  6  1  1
  5  7  1  0
  5  4  1  0
  7  8  2  0
  9 10  1  0
 10 12  1  0
 11 10  2  0
 12 13  1  0
 14 13  1  1
 14 16  1  0
 15  7  1  0
 15 14  1  0
 16 18  1  0
 16 17  2  0
 18 19  1  0
 20 19  1  0
 20 22  1  0
 21 20  2  0
M  END
$$$$
