TKM.pdb
     RDKit          3D

 25 24  0  0  1  0  0  0  0  0999 V2000
    6.2735  -17.8245   25.8246 C   0  0  0  0  0  0  0  0  0  0  0  0
    6.6688  -19.0869   25.1203 C   0  0  1  0  0  0  0  0  0  0  0  0
    5.9404  -20.1437   25.7014 O   0  0  0  0  0  0  0  0  0  0  0  0
    6.2883  -19.0774   23.6569 C   0  0  2  0  0  0  0  0  0  0  0  0
    6.3893  -20.4371   23.1670 N   0  0  0  0  0  0  0  0  0  0  0  0
    7.2075  -18.2432   22.8394 C   0  0  0  0  0  0  0  0  0  0  0  0
    8.3609  -18.6526   22.6096 O   0  0  0  0  0  0  0  0  0  0  0  0
    6.8374  -16.9936   22.3020 N   0  0  0  0  0  0  0  0  0  0  0  0
    7.7847  -15.9705   21.8691 C   0  0  1  0  0  0  0  0  0  0  0  0
    7.1751  -15.1548   20.7838 C   0  0  0  0  0  0  0  0  0  0  0  0
    7.9825  -14.0469   20.2208 C   0  0  0  0  0  0  0  0  0  0  0  0
    7.2555  -13.6364   18.9183 C   0  0  0  0  0  0  0  0  0  0  0  0
    8.1668  -12.7857   18.0655 C   0  0  0  0  0  0  0  0  0  0  0  0
    7.5137  -12.6073   16.7836 N   0  0  0  0  0  0  0  0  0  0  0  0
    8.2153  -15.2389   23.0714 C   0  0  0  0  0  0  0  0  0  0  0  0
    7.3935  -14.5068   23.6599 O   0  0  0  0  0  0  0  0  0  0  0  0
    6.1105  -12.4551   26.7518 C   0  0  0  0  0  0  0  0  0  0  0  0
    7.8472  -12.3863   27.3196 S   0  0  0  0  0  0  0  0  0  0  0  0
    8.6879  -13.8672   26.9045 C   0  0  0  0  0  0  0  0  0  0  0  0
    8.7907  -14.2524   25.4957 C   0  0  0  0  0  0  0  0  0  0  0  0
    9.9914  -14.7607   24.8515 C   0  0  2  0  0  0  0  0  0  0  0  0
    9.5229  -15.3674   23.5460 N   0  0  0  0  0  0  0  0  0  0  0  0
   10.6229  -15.9717   25.5313 C   0  0  0  0  0  0  0  0  0  0  0  0
    9.9850  -17.0940   25.4480 O   0  0  0  0  0  0  0  0  0  0  0  0
   11.7767  -16.0194   26.2217 O   0  0  0  0  0  0  0  0  0  0  0  0
  2  1  1  1
  3  2  1  0
  4  6  1  0
  4  2  1  0
  4  5  1  6
  6  7  2  0
  8  9  1  0
  8  6  1  0
 10 11  1  0
  9 10  1  6
 11 12  1  0
 12 13  1  0
 14 13  1  0
 15  9  1  0
 16 15  2  0
 17 18  1  0
 19 18  1  0
 20 19  1  0
 21 20  1  1
 21 22  1  0
 21 23  1  0
 22 15  1  0
 23 25  1  0
 24 23  2  0
M  END
$$$$
