TKM.pdb
     RDKit          3D

 25 24  0  0  1  0  0  0  0  0999 V2000
    9.8957  -13.9091   17.1265 C   0  0  0  0  0  0  0  0  0  0  0  0
    9.4827  -14.4280   18.4704 C   0  0  1  0  0  0  0  0  0  0  0  0
   10.1305  -13.6446   19.4460 O   0  0  0  0  0  0  0  0  0  0  0  0
    8.0012  -14.2638   18.7246 C   0  0  2  0  0  0  0  0  0  0  0  0
    7.7031  -12.8464   18.6903 N   0  0  0  0  0  0  0  0  0  0  0  0
    7.5982  -14.7683   20.0632 C   0  0  0  0  0  0  0  0  0  0  0  0
    7.3493  -13.9543   20.9722 O   0  0  0  0  0  0  0  0  0  0  0  0
    7.4808  -16.1407   20.3635 N   0  0  0  0  0  0  0  0  0  0  0  0
    6.9695  -16.6665   21.6259 C   0  0  1  0  0  0  0  0  0  0  0  0
    6.7789  -18.1379   21.5116 C   0  0  0  0  0  0  0  0  0  0  0  0
    6.4032  -18.8795   22.7385 C   0  0  0  0  0  0  0  0  0  0  0  0
    6.4046  -20.3709   22.3275 C   0  0  0  0  0  0  0  0  0  0  0  0
    5.8590  -21.2166   23.4539 C   0  0  0  0  0  0  0  0  0  0  0  0
    5.8929  -22.5966   23.0112 N   0  0  0  0  0  0  0  0  0  0  0  0
    7.8779  -16.2071   22.6889 C   0  0  0  0  0  0  0  0  0  0  0  0
    9.1088  -16.2307   22.4838 O   0  0  0  0  0  0  0  0  0  0  0  0
    6.9759  -10.4418   27.9282 C   0  0  0  0  0  0  0  0  0  0  0  0
    6.3985  -11.5434   26.5879 S   0  0  0  0  0  0  0  0  0  0  0  0
    7.4650  -12.9249   26.4264 C   0  0  0  0  0  0  0  0  0  0  0  0
    7.1854  -13.9181   25.3877 C   0  0  0  0  0  0  0  0  0  0  0  0
    8.1513  -14.8630   24.8500 C   0  0  2  0  0  0  0  0  0  0  0  0
    7.3668  -15.7487   23.9056 N   0  0  0  0  0  0  0  0  0  0  0  0
    8.6751  -15.8878   25.8513 C   0  0  0  0  0  0  0  0  0  0  0  0
    7.9418  -16.9320   26.0645 O   0  0  0  0  0  0  0  0  0  0  0  0
    9.8205  -15.8397   26.5556 O   0  0  0  0  0  0  0  0  0  0  0  0
  2  1  1  6
  3  2  1  0
  4  6  1  0
  4  2  1  0
  4  5  1  1
  6  7  2  0
  8  9  1  0
  8  6  1  0
 10 11  1  0
  9 10  1  6
 11 12  1  0
 12 13  1  0
 14 13  1  0
 15  9  1  0
 16 15  2  0
 17 18  1  0
 19 18  1  0
 20 19  1  0
 21 20  1  1
 21 22  1  0
 21 23  1  0
 22 15  1  0
 23 25  1  0
 24 23  2  0
M  END
$$$$
