TKM.pdb
     RDKit          3D

 25 24  0  0  1  0  0  0  0  0999 V2000
   10.8123  -14.1614   20.2370 C   0  0  0  0  0  0  0  0  0  0  0  0
    9.7919  -13.4193   19.4284 C   0  0  1  0  0  0  0  0  0  0  0  0
   10.4023  -13.0432   18.2155 O   0  0  0  0  0  0  0  0  0  0  0  0
    8.6130  -14.2859   19.0470 C   0  0  2  0  0  0  0  0  0  0  0  0
    7.6613  -13.4500   18.3438 N   0  0  0  0  0  0  0  0  0  0  0  0
    7.9165  -14.8468   20.2342 C   0  0  0  0  0  0  0  0  0  0  0  0
    7.1896  -14.1052   20.9216 O   0  0  0  0  0  0  0  0  0  0  0  0
    8.0368  -16.1946   20.6297 N   0  0  0  0  0  0  0  0  0  0  0  0
    7.4681  -16.7467   21.8557 C   0  0  1  0  0  0  0  0  0  0  0  0
    7.4111  -18.2302   21.7540 C   0  0  0  0  0  0  0  0  0  0  0  0
    7.0357  -18.9885   22.9708 C   0  0  0  0  0  0  0  0  0  0  0  0
    6.9405  -20.4641   22.5160 C   0  0  0  0  0  0  0  0  0  0  0  0
    6.4445  -21.3236   23.6548 C   0  0  0  0  0  0  0  0  0  0  0  0
    6.4748  -22.6998   23.2000 N   0  0  0  0  0  0  0  0  0  0  0  0
    8.2436  -16.1994   22.9806 C   0  0  0  0  0  0  0  0  0  0  0  0
    9.4891  -16.1794   22.9029 O   0  0  0  0  0  0  0  0  0  0  0  0
    6.6681  -10.2212   26.7486 C   0  0  0  0  0  0  0  0  0  0  0  0
    6.2101  -11.9284   27.2164 S   0  0  0  0  0  0  0  0  0  0  0  0
    7.4986  -13.0438   26.8067 C   0  0  0  0  0  0  0  0  0  0  0  0
    7.2812  -14.0127   25.7308 C   0  0  0  0  0  0  0  0  0  0  0  0
    8.2952  -14.9018   25.1864 C   0  0  2  0  0  0  0  0  0  0  0  0
    7.5924  -15.7071   24.1143 N   0  0  0  0  0  0  0  0  0  0  0  0
    8.7573  -16.0064   26.1317 C   0  0  0  0  0  0  0  0  0  0  0  0
    8.0268  -17.0721   26.1951 O   0  0  0  0  0  0  0  0  0  0  0  0
    9.8445  -16.0102   26.9243 O   0  0  0  0  0  0  0  0  0  0  0  0
  2  1  1  1
  3  2  1  0
  4  6  1  0
  4  2  1  0
  4  5  1  1
  6  7  2  0
  8  9  1  0
  8  6  1  0
 10 11  1  0
  9 10  1  6
 11 12  1  0
 12 13  1  0
 14 13  1  0
 15  9  1  0
 16 15  2  0
 17 18  1  0
 19 18  1  0
 20 19  1  0
 21 20  1  1
 21 22  1  0
 21 23  1  0
 22 15  1  0
 23 25  1  0
 24 23  2  0
M  END
$$$$
