TKM.pdb
     RDKit          3D

 25 24  0  0  1  0  0  0  0  0999 V2000
    5.3989  -20.0853   23.5738 C   0  0  0  0  0  0  0  0  0  0  0  0
    6.4618  -19.0441   23.3948 C   0  0  1  0  0  0  0  0  0  0  0  0
    7.6425  -19.5359   23.9856 O   0  0  0  0  0  0  0  0  0  0  0  0
    6.7966  -18.8022   21.9402 C   0  0  2  0  0  0  0  0  0  0  0  0
    7.2385  -20.0609   21.3750 N   0  0  0  0  0  0  0  0  0  0  0  0
    7.9055  -17.8273   21.7701 C   0  0  0  0  0  0  0  0  0  0  0  0
    9.0660  -18.2468   21.6023 O   0  0  0  0  0  0  0  0  0  0  0  0
    7.7105  -16.4312   21.7889 N   0  0  0  0  0  0  0  0  0  0  0  0
    8.7859  -15.4484   21.6930 C   0  0  1  0  0  0  0  0  0  0  0  0
    8.4416  -14.4328   20.6614 C   0  0  0  0  0  0  0  0  0  0  0  0
    8.2684  -14.9018   19.2662 C   0  0  0  0  0  0  0  0  0  0  0  0
    8.1369  -13.6142   18.4188 C   0  0  0  0  0  0  0  0  0  0  0  0
    7.9539  -13.9719   16.9627 C   0  0  0  0  0  0  0  0  0  0  0  0
    7.7428  -12.7338   16.2388 N   0  0  0  0  0  0  0  0  0  0  0  0
    9.0336  -14.9399   23.0518 C   0  0  0  0  0  0  0  0  0  0  0  0
    9.3173  -13.7340   23.2033 O   0  0  0  0  0  0  0  0  0  0  0  0
    7.9301  -11.0463   26.8506 C   0  0  0  0  0  0  0  0  0  0  0  0
    6.5312  -12.2216   26.7814 S   0  0  0  0  0  0  0  0  0  0  0  0
    7.1132  -13.8735   26.8505 C   0  0  0  0  0  0  0  0  0  0  0  0
    7.6626  -14.4823   25.6376 C   0  0  0  0  0  0  0  0  0  0  0  0
    8.8646  -15.2989   25.5805 C   0  0  2  0  0  0  0  0  0  0  0  0
    8.9478  -15.7955   24.1528 N   0  0  0  0  0  0  0  0  0  0  0  0
    8.7856  -16.6150   26.3480 C   0  0  0  0  0  0  0  0  0  0  0  0
    8.9521  -16.5611   27.6298 O   0  0  0  0  0  0  0  0  0  0  0  0
    8.5652  -17.8458   25.8512 O   0  0  0  0  0  0  0  0  0  0  0  0
  2  1  1  6
  3  2  1  0
  4  6  1  0
  4  2  1  0
  4  5  1  1
  6  7  2  0
  8  9  1  0
  8  6  1  0
 10 11  1  0
  9 10  1  6
 11 12  1  0
 12 13  1  0
 14 13  1  0
 15  9  1  0
 16 15  2  0
 17 18  1  0
 19 18  1  0
 20 19  1  0
 21 20  1  6
 21 22  1  0
 21 23  1  0
 22 15  1  0
 23 25  1  0
 24 23  2  0
M  END
$$$$
