TKM.pdb
     RDKit          3D

 25 24  0  0  1  0  0  0  0  0999 V2000
    6.3061  -18.1832   26.2235 C   0  0  0  0  0  0  0  0  0  0  0  0
    6.4718  -19.3917   25.3529 C   0  0  1  0  0  0  0  0  0  0  0  0
    5.5997  -20.3870   25.8368 O   0  0  0  0  0  0  0  0  0  0  0  0
    6.0551  -19.1364   23.9220 C   0  0  2  0  0  0  0  0  0  0  0  0
    6.0579  -20.4087   23.2290 N   0  0  0  0  0  0  0  0  0  0  0  0
    7.0034  -18.2418   23.2083 C   0  0  0  0  0  0  0  0  0  0  0  0
    8.1271  -18.6738   22.8899 O   0  0  0  0  0  0  0  0  0  0  0  0
    6.6937  -16.9094   22.8674 N   0  0  0  0  0  0  0  0  0  0  0  0
    7.6695  -15.9332   22.3916 C   0  0  1  0  0  0  0  0  0  0  0  0
    6.9738  -14.8718   21.6146 C   0  0  0  0  0  0  0  0  0  0  0  0
    7.7966  -13.7624   21.0772 C   0  0  0  0  0  0  0  0  0  0  0  0
    7.6587  -13.8630   19.5396 C   0  0  0  0  0  0  0  0  0  0  0  0
    8.5466  -12.8380   18.8743 C   0  0  0  0  0  0  0  0  0  0  0  0
    8.3202  -12.9353   17.4457 N   0  0  0  0  0  0  0  0  0  0  0  0
    8.4427  -15.4848   23.5610 C   0  0  0  0  0  0  0  0  0  0  0  0
    7.8603  -14.8467   24.4619 O   0  0  0  0  0  0  0  0  0  0  0  0
   10.4642  -13.1249   28.8244 C   0  0  0  0  0  0  0  0  0  0  0  0
    9.3137  -14.2283   27.9289 S   0  0  0  0  0  0  0  0  0  0  0  0
   10.1437  -15.6759   27.3927 C   0  0  0  0  0  0  0  0  0  0  0  0
   10.0236  -16.0835   25.9916 C   0  0  0  0  0  0  0  0  0  0  0  0
   10.6437  -15.4041   24.8652 C   0  0  2  0  0  0  0  0  0  0  0  0
    9.8058  -15.7740   23.6598 N   0  0  0  0  0  0  0  0  0  0  0  0
   12.0084  -15.9499   24.4564 C   0  0  0  0  0  0  0  0  0  0  0  0
   13.0501  -15.3109   24.8805 O   0  0  0  0  0  0  0  0  0  0  0  0
   12.2694  -17.0274   23.6942 O   0  0  0  0  0  0  0  0  0  0  0  0
  2  1  1  1
  3  2  1  0
  4  6  1  0
  4  2  1  0
  4  5  1  6
  6  7  2  0
  8  9  1  0
  8  6  1  0
 10 11  1  0
  9 10  1  1
 11 12  1  0
 12 13  1  0
 14 13  1  0
 15  9  1  0
 16 15  2  0
 17 18  1  0
 19 18  1  0
 20 19  1  0
 21 20  1  1
 21 22  1  0
 21 23  1  0
 22 15  1  0
 23 25  1  0
 24 23  2  0
M  END
$$$$
