TKM.pdb
     RDKit          3D

 25 24  0  0  1  0  0  0  0  0999 V2000
   10.1197  -14.0955   17.2727 C   0  0  0  0  0  0  0  0  0  0  0  0
    9.5228  -14.4359   18.6045 C   0  0  1  0  0  0  0  0  0  0  0  0
   10.1092  -13.5858   19.5629 O   0  0  0  0  0  0  0  0  0  0  0  0
    8.0371  -14.1605   18.6608 C   0  0  2  0  0  0  0  0  0  0  0  0
    7.8475  -12.7333   18.4996 N   0  0  0  0  0  0  0  0  0  0  0  0
    7.4410  -14.5411   19.9681 C   0  0  0  0  0  0  0  0  0  0  0  0
    7.1101  -13.6481   20.7706 O   0  0  0  0  0  0  0  0  0  0  0  0
    7.2270  -15.8800   20.3540 N   0  0  0  0  0  0  0  0  0  0  0  0
    6.5939  -16.2848   21.6057 C   0  0  1  0  0  0  0  0  0  0  0  0
    6.0195  -17.6493   21.4546 C   0  0  0  0  0  0  0  0  0  0  0  0
    4.7159  -17.7731   20.7606 C   0  0  0  0  0  0  0  0  0  0  0  0
    4.4740  -19.2946   20.6201 C   0  0  0  0  0  0  0  0  0  0  0  0
    3.1358  -19.5456   19.9660 C   0  0  0  0  0  0  0  0  0  0  0  0
    3.0067  -20.9783   19.7863 N   0  0  0  0  0  0  0  0  0  0  0  0
    7.5912  -16.1116   22.6742 C   0  0  0  0  0  0  0  0  0  0  0  0
    8.7976  -16.2916   22.4097 O   0  0  0  0  0  0  0  0  0  0  0  0
    6.8042  -10.5539   26.8780 C   0  0  0  0  0  0  0  0  0  0  0  0
    6.7325  -12.2419   27.5770 S   0  0  0  0  0  0  0  0  0  0  0  0
    7.8589  -13.2981   26.7476 C   0  0  0  0  0  0  0  0  0  0  0  0
    7.3346  -14.3178   25.8371 C   0  0  0  0  0  0  0  0  0  0  0  0
    8.1433  -15.1854   24.9956 C   0  0  2  0  0  0  0  0  0  0  0  0
    7.1906  -15.7476   23.9621 N   0  0  0  0  0  0  0  0  0  0  0  0
    8.6343  -16.4619   25.6716 C   0  0  0  0  0  0  0  0  0  0  0  0
    9.5875  -16.3412   26.5379 O   0  0  0  0  0  0  0  0  0  0  0  0
    8.1969  -17.7188   25.4739 O   0  0  0  0  0  0  0  0  0  0  0  0
  2  1  1  6
  3  2  1  0
  4  6  1  0
  4  2  1  0
  4  5  1  1
  6  7  2  0
  8  9  1  0
  8  6  1  0
 10 11  1  0
  9 10  1  6
 11 12  1  0
 12 13  1  0
 14 13  1  0
 15  9  1  0
 16 15  2  0
 17 18  1  0
 19 18  1  0
 20 19  1  0
 21 20  1  1
 21 22  1  0
 21 23  1  0
 22 15  1  0
 23 25  1  0
 24 23  2  0
M  END
$$$$
