TKM.pdb
     RDKit          3D

 25 24  0  0  1  0  0  0  0  0999 V2000
   10.7499  -14.1414   20.6750 C   0  0  0  0  0  0  0  0  0  0  0  0
    9.7226  -13.2186   20.0926 C   0  0  1  0  0  0  0  0  0  0  0  0
   10.2699  -12.6582   18.9215 O   0  0  0  0  0  0  0  0  0  0  0  0
    8.4706  -13.9462   19.6572 C   0  0  2  0  0  0  0  0  0  0  0  0
    7.5995  -12.9804   19.0192 N   0  0  0  0  0  0  0  0  0  0  0  0
    7.7246  -14.5240   20.8056 C   0  0  0  0  0  0  0  0  0  0  0  0
    6.8383  -13.8472   21.3597 O   0  0  0  0  0  0  0  0  0  0  0  0
    7.9708  -15.8177   21.3088 N   0  0  0  0  0  0  0  0  0  0  0  0
    7.0648  -16.5426   22.1948 C   0  0  1  0  0  0  0  0  0  0  0  0
    6.9418  -17.9528   21.7357 C   0  0  0  0  0  0  0  0  0  0  0  0
    6.0970  -18.8664   22.5407 C   0  0  0  0  0  0  0  0  0  0  0  0
    6.1980  -20.2395   21.8352 C   0  0  0  0  0  0  0  0  0  0  0  0
    5.4806  -21.2909   22.6485 C   0  0  0  0  0  0  0  0  0  0  0  0
    6.2520  -21.4994   23.8582 N   0  0  0  0  0  0  0  0  0  0  0  0
    7.5496  -16.3445   23.5703 C   0  0  0  0  0  0  0  0  0  0  0  0
    6.8822  -16.8061   24.5186 O   0  0  0  0  0  0  0  0  0  0  0  0
    6.4233  -10.5652   25.6202 C   0  0  0  0  0  0  0  0  0  0  0  0
    6.8398  -12.1455   26.4402 S   0  0  0  0  0  0  0  0  0  0  0  0
    7.5520  -13.2633   25.2931 C   0  0  0  0  0  0  0  0  0  0  0  0
    8.0878  -14.5349   25.7825 C   0  0  0  0  0  0  0  0  0  0  0  0
    9.2041  -15.2564   25.1923 C   0  0  2  0  0  0  0  0  0  0  0  0
    8.7406  -15.6537   23.8069 N   0  0  0  0  0  0  0  0  0  0  0  0
    9.4883  -16.6210   25.8124 C   0  0  0  0  0  0  0  0  0  0  0  0
    9.9931  -16.6338   27.0034 O   0  0  0  0  0  0  0  0  0  0  0  0
    9.2809  -17.8329   25.2660 O   0  0  0  0  0  0  0  0  0  0  0  0
  2  1  1  6
  3  2  1  0
  4  6  1  0
  4  2  1  0
  4  5  1  1
  6  7  2  0
  8  9  1  0
  8  6  1  0
 10 11  1  0
  9 10  1  6
 11 12  1  0
 12 13  1  0
 14 13  1  0
 15  9  1  0
 16 15  2  0
 17 18  1  0
 19 18  1  0
 20 19  1  0
 21 20  1  1
 21 22  1  0
 21 23  1  0
 22 15  1  0
 23 25  1  0
 24 23  2  0
M  END
$$$$
