TKM.pdb
     RDKit          3D

 25 24  0  0  1  0  0  0  0  0999 V2000
   10.1803  -13.2555   20.4062 C   0  0  0  0  0  0  0  0  0  0  0  0
    9.0727  -13.0447   19.4190 C   0  0  1  0  0  0  0  0  0  0  0  0
    9.6524  -12.5754   18.2236 O   0  0  0  0  0  0  0  0  0  0  0  0
    8.3654  -14.3316   19.0585 C   0  0  2  0  0  0  0  0  0  0  0  0
    7.2934  -14.0027   18.1410 N   0  0  0  0  0  0  0  0  0  0  0  0
    7.7495  -14.9884   20.2410 C   0  0  0  0  0  0  0  0  0  0  0  0
    6.8620  -14.3901   20.8777 O   0  0  0  0  0  0  0  0  0  0  0  0
    8.1225  -16.2725   20.6875 N   0  0  0  0  0  0  0  0  0  0  0  0
    7.6189  -16.8989   21.9063 C   0  0  1  0  0  0  0  0  0  0  0  0
    7.6973  -18.3791   21.7744 C   0  0  0  0  0  0  0  0  0  0  0  0
    7.3796  -19.1934   22.9712 C   0  0  0  0  0  0  0  0  0  0  0  0
    7.6441  -20.6576   22.5475 C   0  0  0  0  0  0  0  0  0  0  0  0
    7.2919  -21.5934   23.6797 C   0  0  0  0  0  0  0  0  0  0  0  0
    5.8454  -21.6645   23.7449 N   0  0  0  0  0  0  0  0  0  0  0  0
    8.3518  -16.3050   23.0361 C   0  0  0  0  0  0  0  0  0  0  0  0
    9.5909  -16.1805   22.9539 O   0  0  0  0  0  0  0  0  0  0  0  0
    6.4931  -10.4294   27.0312 C   0  0  0  0  0  0  0  0  0  0  0  0
    6.0822  -12.0784   26.3567 S   0  0  0  0  0  0  0  0  0  0  0  0
    7.3901  -13.2067   26.6542 C   0  0  0  0  0  0  0  0  0  0  0  0
    7.2994  -14.5585   26.0993 C   0  0  0  0  0  0  0  0  0  0  0  0
    8.3547  -15.2336   25.3607 C   0  0  2  0  0  0  0  0  0  0  0  0
    7.6676  -15.8846   24.1792 N   0  0  0  0  0  0  0  0  0  0  0  0
    8.9544  -16.4489   26.0613 C   0  0  0  0  0  0  0  0  0  0  0  0
   10.1024  -16.2911   26.6364 O   0  0  0  0  0  0  0  0  0  0  0  0
    8.4334  -17.6859   26.1543 O   0  0  0  0  0  0  0  0  0  0  0  0
  2  1  1  1
  3  2  1  0
  4  6  1  0
  4  2  1  0
  4  5  1  6
  6  7  2  0
  8  9  1  0
  8  6  1  0
 10 11  1  0
  9 10  1  6
 11 12  1  0
 12 13  1  0
 14 13  1  0
 15  9  1  0
 16 15  2  0
 17 18  1  0
 19 18  1  0
 20 19  1  0
 21 20  1  1
 21 22  1  0
 21 23  1  0
 22 15  1  0
 23 25  1  0
 24 23  2  0
M  END
$$$$
