TKM.pdb
     RDKit          3D

 25 24  0  0  1  0  0  0  0  0999 V2000
   10.5925  -13.5777   19.7922 C   0  0  0  0  0  0  0  0  0  0  0  0
    9.4074  -12.9930   19.0855 C   0  0  1  0  0  0  0  0  0  0  0  0
    9.8542  -12.4981   17.8443 O   0  0  0  0  0  0  0  0  0  0  0  0
    8.3554  -14.0302   18.7629 C   0  0  2  0  0  0  0  0  0  0  0  0
    7.2494  -13.3504   18.1200 N   0  0  0  0  0  0  0  0  0  0  0  0
    7.8202  -14.6905   19.9822 C   0  0  0  0  0  0  0  0  0  0  0  0
    7.0513  -14.0582   20.7305 O   0  0  0  0  0  0  0  0  0  0  0  0
    8.1418  -16.0150   20.3425 N   0  0  0  0  0  0  0  0  0  0  0  0
    7.6465  -16.6854   21.5411 C   0  0  1  0  0  0  0  0  0  0  0  0
    7.6808  -18.1591   21.3373 C   0  0  0  0  0  0  0  0  0  0  0  0
    6.6225  -18.7608   20.4921 C   0  0  0  0  0  0  0  0  0  0  0  0
    6.9611  -20.2691   20.4304 C   0  0  0  0  0  0  0  0  0  0  0  0
    5.8672  -21.0136   19.7018 C   0  0  0  0  0  0  0  0  0  0  0  0
    6.2453  -22.4128   19.6721 N   0  0  0  0  0  0  0  0  0  0  0  0
    8.4192  -16.1665   22.6812 C   0  0  0  0  0  0  0  0  0  0  0  0
    9.6460  -15.9812   22.5454 O   0  0  0  0  0  0  0  0  0  0  0  0
    6.3293  -11.0659   28.2747 C   0  0  0  0  0  0  0  0  0  0  0  0
    5.9880  -12.1582   26.8486 S   0  0  0  0  0  0  0  0  0  0  0  0
    7.3736  -13.1768   26.5100 C   0  0  0  0  0  0  0  0  0  0  0  0
    7.2901  -14.1456   25.4155 C   0  0  0  0  0  0  0  0  0  0  0  0
    8.3867  -14.9787   24.9483 C   0  0  2  0  0  0  0  0  0  0  0  0
    7.7856  -15.8831   23.8935 N   0  0  0  0  0  0  0  0  0  0  0  0
    8.8949  -16.0008   25.9605 C   0  0  0  0  0  0  0  0  0  0  0  0
    9.8546  -15.6280   26.7438 O   0  0  0  0  0  0  0  0  0  0  0  0
    8.4668  -17.2634   26.1413 O   0  0  0  0  0  0  0  0  0  0  0  0
  2  1  1  6
  3  2  1  0
  4  6  1  0
  4  2  1  0
  4  5  1  1
  6  7  2  0
  8  9  1  0
  8  6  1  0
 10 11  1  0
  9 10  1  6
 11 12  1  0
 12 13  1  0
 14 13  1  0
 15  9  1  0
 16 15  2  0
 17 18  1  0
 19 18  1  0
 20 19  1  0
 21 20  1  1
 21 22  1  0
 21 23  1  0
 22 15  1  0
 23 25  1  0
 24 23  2  0
M  END
$$$$
