QIK.pdb
     RDKit          3D

 27 26  0  0  1  0  0  0  0  0999 V2000
    7.3581  -19.3437   21.1421 N   0  0  0  0  0  0  0  0  0  0  0  0
    6.7008  -18.7541   20.0287 C   0  0  0  0  0  0  0  0  0  0  0  0
    6.1539  -19.4857   19.1727 O   0  0  0  0  0  0  0  0  0  0  0  0
    6.6961  -17.2576   19.9347 C   0  0  0  0  0  0  0  0  0  0  0  0
    7.3422  -16.7376   21.1816 C   0  0  0  0  0  0  0  0  0  0  0  0
    7.2891  -15.2477   21.2838 C   0  0  2  0  0  0  0  0  0  0  0  0
    7.8584  -14.5493   20.1739 N   0  0  0  0  0  0  0  0  0  0  0  0
    8.0043  -14.8150   22.5418 C   0  0  0  0  0  0  0  0  0  0  0  0
    9.2492  -14.6342   22.5204 O   0  0  0  0  0  0  0  0  0  0  0  0
    5.8214  -11.2631   25.7023 C   0  0  0  0  0  0  0  0  0  0  0  0
    6.8130  -12.1323   25.0163 C   0  0  0  0  0  0  0  0  0  0  0  0
    7.2385  -13.3547   25.8141 C   0  0  2  0  0  0  0  0  0  0  0  0
    7.8262  -12.9839   27.1269 C   0  0  0  0  0  0  0  0  0  0  0  0
    8.0963  -14.2646   24.9591 C   0  0  2  0  0  0  0  0  0  0  0  0
    7.3017  -14.6082   23.7471 N   0  0  0  0  0  0  0  0  0  0  0  0
    8.5020  -15.5201   25.6042 C   0  0  0  0  0  0  0  0  0  0  0  0
    7.6047  -16.4098   25.8110 O   0  0  0  0  0  0  0  0  0  0  0  0
    9.8064  -15.8276   26.0102 N   0  0  0  0  0  0  0  0  0  0  0  0
   10.1447  -17.1201   26.6050 C   0  0  1  0  0  0  0  0  0  0  0  0
   11.3539  -17.7176   25.9750 C   0  0  0  0  0  0  0  0  0  0  0  0
   11.8390  -18.9742   26.5773 C   0  0  0  0  0  0  0  0  0  0  0  0
   13.0122  -19.6969   26.0899 C   0  0  0  0  0  0  0  0  0  0  0  0
   13.4920  -20.9408   26.7418 C   0  0  0  0  0  0  0  0  0  0  0  0
   14.6657  -21.3958   25.9466 N   0  0  0  0  0  0  0  0  0  0  0  0
   10.3969  -16.9256   28.0925 C   0  0  0  0  0  0  0  0  0  0  0  0
   10.6477  -15.8323   28.6102 O   0  0  0  0  0  0  0  0  0  0  0  0
   10.3313  -18.0643   28.8694 O   0  0  0  0  0  0  0  0  0  0  0  0
  1  2  1  0
  2  3  2  0
  4  2  1  0
  4  5  1  0
  6  7  1  6
  6  5  1  0
  8  6  1  0
  9  8  2  0
 11 10  1  0
 12 13  1  1
 12 14  1  0
 12 11  1  0
 14 15  1  6
 15  8  1  0
 16 14  1  0
 16 17  2  0
 18 16  1  0
 19 18  1  0
 19 20  1  6
 21 20  1  0
 22 23  1  0
 22 21  1  0
 23 24  1  0
 25 27  1  0
 25 19  1  0
 26 25  2  0
M  END
$$$$
