QIK.pdb
     RDKit          3D

 27 26  0  0  1  0  0  0  0  0999 V2000
    8.2594  -11.9817   18.6981 N   0  0  0  0  0  0  0  0  0  0  0  0
    7.8141  -13.1486   18.0204 C   0  0  0  0  0  0  0  0  0  0  0  0
    7.6843  -13.1311   16.7754 O   0  0  0  0  0  0  0  0  0  0  0  0
    7.5169  -14.3638   18.8469 C   0  0  0  0  0  0  0  0  0  0  0  0
    7.8229  -14.0120   20.2700 C   0  0  0  0  0  0  0  0  0  0  0  0
    7.6842  -15.1757   21.1973 C   0  0  2  0  0  0  0  0  0  0  0  0
    6.3412  -15.6173   21.4094 N   0  0  0  0  0  0  0  0  0  0  0  0
    8.2879  -14.8143   22.5339 C   0  0  0  0  0  0  0  0  0  0  0  0
    9.4917  -14.4544   22.5975 O   0  0  0  0  0  0  0  0  0  0  0  0
    5.7968  -11.6820   25.6937 C   0  0  0  0  0  0  0  0  0  0  0  0
    6.8698  -12.4855   25.0515 C   0  0  0  0  0  0  0  0  0  0  0  0
    7.2848  -13.7222   25.8327 C   0  0  2  0  0  0  0  0  0  0  0  0
    7.7797  -13.3807   27.1909 C   0  0  0  0  0  0  0  0  0  0  0  0
    8.2213  -14.5756   25.0024 C   0  0  2  0  0  0  0  0  0  0  0  0
    7.5256  -14.8723   23.7192 N   0  0  0  0  0  0  0  0  0  0  0  0
    8.6024  -15.8543   25.6159 C   0  0  0  0  0  0  0  0  0  0  0  0
    7.7140  -16.7726   25.6986 O   0  0  0  0  0  0  0  0  0  0  0  0
    9.8748  -16.1550   26.1175 N   0  0  0  0  0  0  0  0  0  0  0  0
   10.1663  -17.4334   26.7652 C   0  0  1  0  0  0  0  0  0  0  0  0
   11.1955  -18.2078   26.0188 C   0  0  0  0  0  0  0  0  0  0  0  0
   11.6103  -19.4842   26.6317 C   0  0  0  0  0  0  0  0  0  0  0  0
   12.6652  -20.3330   26.0813 C   0  0  0  0  0  0  0  0  0  0  0  0
   13.0465  -21.6190   26.7164 C   0  0  0  0  0  0  0  0  0  0  0  0
   14.2222  -22.1220   25.9537 N   0  0  0  0  0  0  0  0  0  0  0  0
   10.6644  -17.1663   28.1776 C   0  0  0  0  0  0  0  0  0  0  0  0
   11.0659  -16.0653   28.5685 O   0  0  0  0  0  0  0  0  0  0  0  0
   10.6486  -18.2461   29.0370 O   0  0  0  0  0  0  0  0  0  0  0  0
  1  2  1  0
  2  3  2  0
  4  2  1  0
  4  5  1  0
  6  7  1  1
  6  5  1  0
  8  6  1  0
  9  8  2  0
 11 10  1  0
 12 13  1  1
 12 14  1  0
 12 11  1  0
 14 15  1  6
 15  8  1  0
 16 14  1  0
 16 17  2  0
 18 16  1  0
 19 18  1  0
 19 20  1  6
 21 20  1  0
 22 23  1  0
 22 21  1  0
 23 24  1  0
 25 27  1  0
 25 19  1  0
 26 25  2  0
M  END
$$$$
