QIK.pdb
     RDKit          3D

 27 26  0  0  1  0  0  0  0  0999 V2000
   10.3359  -17.0200   19.1155 N   0  0  0  0  0  0  0  0  0  0  0  0
    9.0124  -16.8436   18.6291 C   0  0  0  0  0  0  0  0  0  0  0  0
    8.6779  -17.3621   17.5400 O   0  0  0  0  0  0  0  0  0  0  0  0
    8.0669  -16.0300   19.4612 C   0  0  0  0  0  0  0  0  0  0  0  0
    8.7712  -15.7158   20.7449 C   0  0  0  0  0  0  0  0  0  0  0  0
    7.9738  -16.0936   21.9509 C   0  0  2  0  0  0  0  0  0  0  0  0
    6.6095  -15.6671   21.9261 N   0  0  0  0  0  0  0  0  0  0  0  0
    8.6357  -15.5153   23.1793 C   0  0  0  0  0  0  0  0  0  0  0  0
    9.8908  -15.4557   23.2416 O   0  0  0  0  0  0  0  0  0  0  0  0
    5.9916  -11.7580   25.8678 C   0  0  0  0  0  0  0  0  0  0  0  0
    7.1362  -12.5255   25.3111 C   0  0  0  0  0  0  0  0  0  0  0  0
    7.6560  -13.6295   26.2182 C   0  0  2  0  0  0  0  0  0  0  0  0
    8.1852  -13.0931   27.4983 C   0  0  0  0  0  0  0  0  0  0  0  0
    8.6068  -14.5290   25.4555 C   0  0  2  0  0  0  0  0  0  0  0  0
    7.8714  -15.0380   24.2644 N   0  0  0  0  0  0  0  0  0  0  0  0
    9.1027  -15.6876   26.2094 C   0  0  0  0  0  0  0  0  0  0  0  0
    8.2738  -16.6199   26.4977 O   0  0  0  0  0  0  0  0  0  0  0  0
   10.4250  -15.8591   26.6375 N   0  0  0  0  0  0  0  0  0  0  0  0
   10.8486  -17.0481   27.3761 C   0  0  1  0  0  0  0  0  0  0  0  0
   12.0731  -17.6560   26.7872 C   0  0  0  0  0  0  0  0  0  0  0  0
   12.6450  -18.7970   27.5277 C   0  0  0  0  0  0  0  0  0  0  0  0
   13.8707  -19.4828   27.1229 C   0  0  0  0  0  0  0  0  0  0  0  0
   14.3928  -20.6565   27.8660 C   0  0  0  0  0  0  0  0  0  0  0  0
   15.6023  -21.1084   27.1243 N   0  0  0  0  0  0  0  0  0  0  0  0
   11.1261  -16.6567   28.8198 C   0  0  0  0  0  0  0  0  0  0  0  0
   11.2593  -17.4706   29.7395 O   0  0  0  0  0  0  0  0  0  0  0  0
   11.2267  -15.3030   29.0690 O   0  0  0  0  0  0  0  0  0  0  0  0
  1  2  1  0
  2  3  2  0
  4  2  1  0
  4  5  1  0
  6  7  1  6
  6  5  1  0
  8  6  1  0
  9  8  2  0
 11 10  1  0
 12 13  1  1
 12 14  1  0
 12 11  1  0
 14 15  1  6
 15  8  1  0
 16 14  1  0
 16 17  2  0
 18 16  1  0
 19 18  1  0
 19 20  1  6
 21 20  1  0
 22 23  1  0
 22 21  1  0
 23 24  1  0
 25 27  1  0
 25 19  1  0
 26 25  2  0
M  END
$$$$
