QIK.pdb
     RDKit          3D

 27 26  0  0  1  0  0  0  0  0999 V2000
    5.4790  -19.3075   20.4667 N   0  0  0  0  0  0  0  0  0  0  0  0
    6.4971  -18.5281   19.8539 C   0  0  0  0  0  0  0  0  0  0  0  0
    7.4533  -19.0974   19.2807 O   0  0  0  0  0  0  0  0  0  0  0  0
    6.3711  -17.0358   19.9269 C   0  0  0  0  0  0  0  0  0  0  0  0
    7.2255  -16.5787   21.0687 C   0  0  0  0  0  0  0  0  0  0  0  0
    7.1271  -15.1078   21.3136 C   0  0  2  0  0  0  0  0  0  0  0  0
    7.5968  -14.2880   20.2407 N   0  0  0  0  0  0  0  0  0  0  0  0
    7.9086  -14.7631   22.5594 C   0  0  0  0  0  0  0  0  0  0  0  0
    9.1528  -14.5910   22.4872 O   0  0  0  0  0  0  0  0  0  0  0  0
    5.9226  -11.3976   26.1166 C   0  0  0  0  0  0  0  0  0  0  0  0
    6.8768  -12.2063   25.3135 C   0  0  0  0  0  0  0  0  0  0  0  0
    7.2876  -13.5206   25.9582 C   0  0  2  0  0  0  0  0  0  0  0  0
    7.8918  -13.3161   27.2996 C   0  0  0  0  0  0  0  0  0  0  0  0
    8.1229  -14.3375   24.9940 C   0  0  2  0  0  0  0  0  0  0  0  0
    7.2688  -14.6292   23.8092 N   0  0  0  0  0  0  0  0  0  0  0  0
    8.6096  -15.6170   25.5260 C   0  0  0  0  0  0  0  0  0  0  0  0
    7.7542  -16.5443   25.7446 O   0  0  0  0  0  0  0  0  0  0  0  0
    9.9492  -15.9091   25.8108 N   0  0  0  0  0  0  0  0  0  0  0  0
   10.3661  -17.2254   26.2928 C   0  0  1  0  0  0  0  0  0  0  0  0
   11.6114  -17.6893   25.6219 C   0  0  0  0  0  0  0  0  0  0  0  0
   12.1774  -18.9570   26.1214 C   0  0  0  0  0  0  0  0  0  0  0  0
   13.3980  -19.5568   25.5858 C   0  0  0  0  0  0  0  0  0  0  0  0
   13.9291  -20.8434   26.1008 C   0  0  0  0  0  0  0  0  0  0  0  0
   15.0585  -21.2112   25.2029 N   0  0  0  0  0  0  0  0  0  0  0  0
   10.6028  -17.1469   27.7934 C   0  0  0  0  0  0  0  0  0  0  0  0
   10.7742  -16.0891   28.4082 O   0  0  0  0  0  0  0  0  0  0  0  0
   10.6187  -18.3522   28.4654 O   0  0  0  0  0  0  0  0  0  0  0  0
  1  2  1  0
  2  3  2  0
  4  2  1  0
  4  5  1  0
  6  7  1  6
  6  5  1  0
  8  6  1  0
  9  8  2  0
 11 10  1  0
 12 13  1  1
 12 14  1  0
 12 11  1  0
 14 15  1  6
 15  8  1  0
 16 14  1  0
 16 17  2  0
 18 16  1  0
 19 18  1  0
 19 20  1  6
 21 20  1  0
 22 23  1  0
 22 21  1  0
 23 24  1  0
 25 27  1  0
 25 19  1  0
 26 25  2  0
M  END
$$$$
