QIK.pdb
     RDKit          3D

 27 26  0  0  1  0  0  0  0  0999 V2000
    9.4337  -18.1601   19.9102 N   0  0  0  0  0  0  0  0  0  0  0  0
    8.1300  -18.0857   19.3496 C   0  0  0  0  0  0  0  0  0  0  0  0
    7.8662  -18.7255   18.3064 O   0  0  0  0  0  0  0  0  0  0  0  0
    7.1183  -17.2287   20.0497 C   0  0  0  0  0  0  0  0  0  0  0  0
    7.7642  -16.7216   21.3020 C   0  0  0  0  0  0  0  0  0  0  0  0
    7.3953  -15.3072   21.6125 C   0  0  2  0  0  0  0  0  0  0  0  0
    7.6801  -14.3702   20.5710 N   0  0  0  0  0  0  0  0  0  0  0  0
    8.1232  -14.8720   22.8625 C   0  0  0  0  0  0  0  0  0  0  0  0
    9.3749  -14.7467   22.8435 O   0  0  0  0  0  0  0  0  0  0  0  0
    5.8330  -11.3620   26.1256 C   0  0  0  0  0  0  0  0  0  0  0  0
    6.8272  -12.1826   25.3857 C   0  0  0  0  0  0  0  0  0  0  0  0
    7.3401  -13.3927   26.1502 C   0  0  2  0  0  0  0  0  0  0  0  0
    7.9377  -13.0121   27.4558 C   0  0  0  0  0  0  0  0  0  0  0  0
    8.2268  -14.2374   25.2586 C   0  0  2  0  0  0  0  0  0  0  0  0
    7.4247  -14.6016   24.0576 N   0  0  0  0  0  0  0  0  0  0  0  0
    8.7157  -15.4803   25.8693 C   0  0  0  0  0  0  0  0  0  0  0  0
    7.9070  -16.4694   25.9550 O   0  0  0  0  0  0  0  0  0  0  0  0
   10.0108  -15.6744   26.3653 N   0  0  0  0  0  0  0  0  0  0  0  0
   10.4316  -16.9490   26.9459 C   0  0  1  0  0  0  0  0  0  0  0  0
   11.5876  -17.5340   26.2130 C   0  0  0  0  0  0  0  0  0  0  0  0
   12.1259  -18.7939   26.7608 C   0  0  0  0  0  0  0  0  0  0  0  0
   13.2652  -19.5000   26.1779 C   0  0  0  0  0  0  0  0  0  0  0  0
   13.6886  -20.8373   26.6626 C   0  0  0  0  0  0  0  0  0  0  0  0
   15.1027  -20.6864   27.1037 N   0  0  0  0  0  0  0  0  0  0  0  0
   10.8202  -16.7225   28.3992 C   0  0  0  0  0  0  0  0  0  0  0  0
   10.9884  -15.6057   28.9000 O   0  0  0  0  0  0  0  0  0  0  0  0
   10.9831  -17.8595   29.1642 O   0  0  0  0  0  0  0  0  0  0  0  0
  1  2  1  0
  2  3  2  0
  4  2  1  0
  4  5  1  0
  6  7  1  6
  6  5  1  0
  8  6  1  0
  9  8  2  0
 11 10  1  0
 12 13  1  1
 12 14  1  0
 12 11  1  0
 14 15  1  6
 15  8  1  0
 16 14  1  0
 16 17  2  0
 18 16  1  0
 19 18  1  0
 19 20  1  6
 21 20  1  0
 22 23  1  0
 22 21  1  0
 23 24  1  0
 25 27  1  0
 25 19  1  0
 26 25  2  0
M  END
$$$$
