QIK.pdb
     RDKit          3D

 27 26  0  0  1  0  0  0  0  0999 V2000
    9.5089  -17.3364   18.5059 N   0  0  0  0  0  0  0  0  0  0  0  0
    8.3006  -16.6043   18.3531 C   0  0  0  0  0  0  0  0  0  0  0  0
    7.7385  -16.5616   17.2354 O   0  0  0  0  0  0  0  0  0  0  0  0
    7.7506  -15.9073   19.5615 C   0  0  0  0  0  0  0  0  0  0  0  0
    8.6324  -16.2698   20.7163 C   0  0  0  0  0  0  0  0  0  0  0  0
    7.8632  -16.5576   21.9648 C   0  0  2  0  0  0  0  0  0  0  0  0
    6.4751  -16.2207   21.9056 N   0  0  0  0  0  0  0  0  0  0  0  0
    8.4916  -15.8057   23.1142 C   0  0  0  0  0  0  0  0  0  0  0  0
    9.7362  -15.6229   23.1335 O   0  0  0  0  0  0  0  0  0  0  0  0
    6.2164  -11.5924   25.3342 C   0  0  0  0  0  0  0  0  0  0  0  0
    7.1522  -12.6519   24.8748 C   0  0  0  0  0  0  0  0  0  0  0  0
    7.5325  -13.6642   25.9437 C   0  0  2  0  0  0  0  0  0  0  0  0
    8.0633  -13.0080   27.1660 C   0  0  0  0  0  0  0  0  0  0  0  0
    8.4211  -14.7396   25.3532 C   0  0  2  0  0  0  0  0  0  0  0  0
    7.7076  -15.3013   24.1726 N   0  0  0  0  0  0  0  0  0  0  0  0
    8.7367  -15.8501   26.2608 C   0  0  0  0  0  0  0  0  0  0  0  0
    7.7639  -16.4764   26.8095 O   0  0  0  0  0  0  0  0  0  0  0  0
   10.0299  -16.2875   26.5730 N   0  0  0  0  0  0  0  0  0  0  0  0
   10.2672  -17.3995   27.4927 C   0  0  1  0  0  0  0  0  0  0  0  0
   11.1941  -18.4084   26.9107 C   0  0  0  0  0  0  0  0  0  0  0  0
   10.7974  -18.9688   25.6047 C   0  0  0  0  0  0  0  0  0  0  0  0
   11.6105  -19.9320   24.8647 C   0  0  0  0  0  0  0  0  0  0  0  0
   11.1408  -20.5415   23.5957 C   0  0  0  0  0  0  0  0  0  0  0  0
   12.2312  -21.4509   23.1476 N   0  0  0  0  0  0  0  0  0  0  0  0
   10.8637  -16.8528   28.7810 C   0  0  0  0  0  0  0  0  0  0  0  0
   11.2104  -15.6769   28.9335 O   0  0  0  0  0  0  0  0  0  0  0  0
   11.0069  -17.7594   29.8116 O   0  0  0  0  0  0  0  0  0  0  0  0
  1  2  1  0
  2  3  2  0
  4  2  1  0
  4  5  1  0
  6  7  1  6
  6  5  1  0
  8  6  1  0
  9  8  2  0
 11 10  1  0
 12 13  1  1
 12 14  1  0
 12 11  1  0
 14 15  1  6
 15  8  1  0
 16 14  1  0
 16 17  2  0
 18 16  1  0
 19 18  1  0
 19 20  1  6
 21 20  1  0
 22 23  1  0
 22 21  1  0
 23 24  1  0
 25 27  1  0
 25 19  1  0
 26 25  2  0
M  END
$$$$
