QIK.pdb
     RDKit          3D

 27 26  0  0  1  0  0  0  0  0999 V2000
    8.2991  -12.1916   18.3435 N   0  0  0  0  0  0  0  0  0  0  0  0
    7.7020  -13.3627   17.8039 C   0  0  0  0  0  0  0  0  0  0  0  0
    7.5329  -13.4591   16.5674 O   0  0  0  0  0  0  0  0  0  0  0  0
    7.2976  -14.4432   18.7617 C   0  0  0  0  0  0  0  0  0  0  0  0
    7.8052  -14.0443   20.1129 C   0  0  0  0  0  0  0  0  0  0  0  0
    8.2426  -15.2126   20.9358 C   0  0  2  0  0  0  0  0  0  0  0  0
    7.2495  -16.2251   21.1161 N   0  0  0  0  0  0  0  0  0  0  0  0
    8.6796  -14.7207   22.2954 C   0  0  0  0  0  0  0  0  0  0  0  0
    9.8445  -14.2718   22.4512 O   0  0  0  0  0  0  0  0  0  0  0  0
    7.0564  -12.0282   27.4586 C   0  0  0  0  0  0  0  0  0  0  0  0
    7.9407  -12.9735   26.7281 C   0  0  0  0  0  0  0  0  0  0  0  0
    7.3868  -13.4537   25.3960 C   0  0  2  0  0  0  0  0  0  0  0  0
    5.9978  -13.9642   25.5240 C   0  0  0  0  0  0  0  0  0  0  0  0
    8.3636  -14.4048   24.7357 C   0  0  2  0  0  0  0  0  0  0  0  0
    7.8037  -14.7542   23.4004 N   0  0  0  0  0  0  0  0  0  0  0  0
    8.6011  -15.6558   25.4673 C   0  0  0  0  0  0  0  0  0  0  0  0
    7.7010  -16.5650   25.4165 O   0  0  0  0  0  0  0  0  0  0  0  0
    9.7480  -15.9393   26.2191 N   0  0  0  0  0  0  0  0  0  0  0  0
   10.0272  -17.2834   26.7234 C   0  0  1  0  0  0  0  0  0  0  0  0
   11.0632  -17.9743   25.9078 C   0  0  0  0  0  0  0  0  0  0  0  0
   11.4293  -19.3336   26.3498 C   0  0  0  0  0  0  0  0  0  0  0  0
   12.3836  -20.1796   25.6357 C   0  0  0  0  0  0  0  0  0  0  0  0
   12.6883  -21.5627   26.0793 C   0  0  0  0  0  0  0  0  0  0  0  0
   13.7237  -22.0771   25.1411 N   0  0  0  0  0  0  0  0  0  0  0  0
   10.5081  -17.1781   28.1628 C   0  0  0  0  0  0  0  0  0  0  0  0
   10.7203  -18.1540   28.8901 O   0  0  0  0  0  0  0  0  0  0  0  0
   10.7053  -15.8986   28.6408 O   0  0  0  0  0  0  0  0  0  0  0  0
  1  2  1  0
  2  3  2  0
  4  2  1  0
  4  5  1  0
  6  7  1  1
  6  5  1  0
  8  6  1  0
  9  8  2  0
 11 10  1  0
 12 13  1  1
 12 14  1  0
 12 11  1  0
 14 15  1  6
 15  8  1  0
 16 14  1  0
 16 17  2  0
 18 16  1  0
 19 18  1  0
 19 20  1  6
 21 20  1  0
 22 23  1  0
 22 21  1  0
 23 24  1  0
 25 27  1  0
 25 19  1  0
 26 25  2  0
M  END
$$$$
