FAN.pdb
     RDKit          3D

 25 25  0  0  1  0  0  0  0  0999 V2000
   25.7709  -22.1410  -14.1790 N   0  0  0  0  0  0  0  0  0  0  0  0
   25.1852  -21.7124  -12.9389 C   0  0  1  0  0  0  0  0  0  0  0  0
   25.7409  -20.3608  -12.4881 C   0  0  0  0  0  0  0  0  0  0  0  0
   27.1594  -20.3937  -12.1886 C   0  0  0  0  0  0  0  0  0  0  0  0
   27.6339  -21.0781  -11.0927 C   0  0  0  0  0  0  0  0  0  0  0  0
   29.0000  -21.1147  -10.7968 C   0  0  0  0  0  0  0  0  0  0  0  0
   29.8782  -20.4586  -11.6117 C   0  0  0  0  0  0  0  0  0  0  0  0
   29.4369  -19.7676  -12.7114 C   0  0  0  0  0  0  0  0  0  0  0  0
   28.0657  -19.7417  -12.9923 C   0  0  0  0  0  0  0  0  0  0  0  0
   23.7148  -21.5076  -13.0439 C   0  0  0  0  0  0  0  0  0  0  0  0
   23.1785  -21.7985  -14.1435 O   0  0  0  0  0  0  0  0  0  0  0  0
   21.0277  -20.2916  -10.7233 C   0  0  0  0  0  0  0  0  0  0  0  0
   21.4646  -20.8825  -12.0691 C   0  0  2  0  0  0  0  0  0  0  0  0
   22.8995  -21.0169  -12.0075 N   0  0  0  0  0  0  0  0  0  0  0  0
   21.0393  -19.9331  -13.1281 C   0  0  0  0  0  0  0  0  0  0  0  0
   19.8116  -19.7085  -13.2963 O   0  0  0  0  0  0  0  0  0  0  0  0
   21.1550  -16.5132  -17.0448 N   0  0  0  0  0  0  0  0  0  0  0  0
   22.0285  -16.1508  -15.9595 C   0  0  0  0  0  0  0  0  0  0  0  0
   22.5374  -15.0230  -16.0064 O   0  0  0  0  0  0  0  0  0  0  0  0
   22.2868  -17.0910  -14.8632 C   0  0  0  0  0  0  0  0  0  0  0  0
   21.5861  -18.3822  -15.0448 C   0  0  2  0  0  0  0  0  0  0  0  0
   22.0014  -19.2837  -13.9444 N   0  0  0  0  0  0  0  0  0  0  0  0
   21.9011  -19.0417  -16.3084 C   0  0  0  0  0  0  0  0  0  0  0  0
   22.9405  -19.6750  -16.5058 O   0  0  0  0  0  0  0  0  0  0  0  0
   21.0089  -18.9884  -17.4009 O   0  0  0  0  0  0  0  0  0  0  0  0
  2  1  1  6
  2 10  1  0
  3  2  1  0
  4  3  1  0
  5  4  2  0
  6  5  1  0
  7  8  1  0
  7  6  2  0
  8  9  2  0
  9  4  1  0
 10 14  1  0
 10 11  2  0
 13 12  1  1
 14 13  1  0
 15 22  1  0
 15 13  1  0
 16 15  2  0
 18 20  1  0
 18 17  1  0
 19 18  2  0
 21 20  1  1
 21 23  1  0
 21 22  1  0
 23 25  1  0
 24 23  2  0
M  END
$$$$
