FAN.pdb
     RDKit          3D

 25 25  0  0  1  0  0  0  0  0999 V2000
   22.9363  -18.4965  -16.3368 N   0  0  0  0  0  0  0  0  0  0  0  0
   21.8092  -17.9696  -15.6182 C   0  0  1  0  0  0  0  0  0  0  0  0
   20.6736  -17.5696  -16.5614 C   0  0  0  0  0  0  0  0  0  0  0  0
   20.9981  -16.4333  -17.4019 C   0  0  0  0  0  0  0  0  0  0  0  0
   21.0104  -15.1563  -16.8888 C   0  0  0  0  0  0  0  0  0  0  0  0
   21.3220  -14.0552  -17.6923 C   0  0  0  0  0  0  0  0  0  0  0  0
   21.6195  -14.2528  -19.0108 C   0  0  0  0  0  0  0  0  0  0  0  0
   21.6157  -15.5132  -19.5523 C   0  0  0  0  0  0  0  0  0  0  0  0
   21.3013  -16.6038  -18.7329 C   0  0  0  0  0  0  0  0  0  0  0  0
   21.2065  -18.9671  -14.6925 C   0  0  0  0  0  0  0  0  0  0  0  0
   21.2124  -20.1667  -15.0694 O   0  0  0  0  0  0  0  0  0  0  0  0
   19.7199  -18.8445  -11.2520 C   0  0  0  0  0  0  0  0  0  0  0  0
   20.0441  -19.6121  -12.5392 C   0  0  2  0  0  0  0  0  0  0  0  0
   20.6396  -18.6581  -13.4425 N   0  0  0  0  0  0  0  0  0  0  0  0
   18.7660  -20.1540  -13.0651 C   0  0  0  0  0  0  0  0  0  0  0  0
   18.0784  -19.4528  -13.8535 O   0  0  0  0  0  0  0  0  0  0  0  0
   17.7172  -22.5438  -15.7537 N   0  0  0  0  0  0  0  0  0  0  0  0
   17.5878  -23.6400  -14.8297 C   0  0  0  0  0  0  0  0  0  0  0  0
   17.8484  -24.7696  -15.2649 O   0  0  0  0  0  0  0  0  0  0  0  0
   17.1658  -23.4031  -13.4446 C   0  0  0  0  0  0  0  0  0  0  0  0
   17.0062  -21.9640  -13.1374 C   0  0  2  0  0  0  0  0  0  0  0  0
   18.3199  -21.4468  -12.6867 N   0  0  0  0  0  0  0  0  0  0  0  0
   16.0335  -21.6994  -12.0816 C   0  0  0  0  0  0  0  0  0  0  0  0
   16.2362  -21.9471  -10.8908 O   0  0  0  0  0  0  0  0  0  0  0  0
   14.7755  -21.1307  -12.3751 O   0  0  0  0  0  0  0  0  0  0  0  0
  2  1  1  6
  2 10  1  0
  3  2  1  0
  4  3  1  0
  5  4  2  0
  6  5  1  0
  7  8  1  0
  7  6  2  0
  8  9  2  0
  9  4  1  0
 10 14  1  0
 10 11  2  0
 13 12  1  1
 14 13  1  0
 15 22  1  0
 15 13  1  0
 16 15  2  0
 18 20  1  0
 18 17  1  0
 19 18  2  0
 21 20  1  1
 21 23  1  0
 21 22  1  0
 23 25  1  0
 24 23  2  0
M  END
$$$$
