FAN.pdb
     RDKit          3D

 25 25  0  0  1  0  0  0  0  0999 V2000
   27.4929  -21.2335  -11.0604 N   0  0  0  0  0  0  0  0  0  0  0  0
   26.2631  -20.9153  -11.7320 C   0  0  1  0  0  0  0  0  0  0  0  0
   25.2414  -20.2951  -10.7777 C   0  0  0  0  0  0  0  0  0  0  0  0
   25.6662  -20.3117   -9.3912 C   0  0  0  0  0  0  0  0  0  0  0  0
   24.9898  -21.0597   -8.4546 C   0  0  0  0  0  0  0  0  0  0  0  0
   25.3926  -21.0811   -7.1158 C   0  0  0  0  0  0  0  0  0  0  0  0
   26.4778  -20.3455   -6.7325 C   0  0  0  0  0  0  0  0  0  0  0  0
   27.1731  -19.5896   -7.6420 C   0  0  0  0  0  0  0  0  0  0  0  0
   26.7554  -19.5801   -8.9781 C   0  0  0  0  0  0  0  0  0  0  0  0
   26.4468  -19.9039  -12.8084 C   0  0  0  0  0  0  0  0  0  0  0  0
   26.7767  -18.7453  -12.4478 O   0  0  0  0  0  0  0  0  0  0  0  0
   27.4101  -19.4175  -16.1434 C   0  0  0  0  0  0  0  0  0  0  0  0
   26.2199  -19.1517  -15.2140 C   0  0  2  0  0  0  0  0  0  0  0  0
   26.2774  -20.1578  -14.1818 N   0  0  0  0  0  0  0  0  0  0  0  0
   24.9861  -19.2634  -16.0320 C   0  0  0  0  0  0  0  0  0  0  0  0
   24.8764  -20.2114  -16.8539 O   0  0  0  0  0  0  0  0  0  0  0  0
   20.3651  -21.3908  -14.9591 N   0  0  0  0  0  0  0  0  0  0  0  0
   21.0658  -20.4924  -15.8390 C   0  0  0  0  0  0  0  0  0  0  0  0
   20.9282  -20.6828  -17.0547 O   0  0  0  0  0  0  0  0  0  0  0  0
   21.8963  -19.4117  -15.2958 C   0  0  0  0  0  0  0  0  0  0  0  0
   22.5647  -18.6219  -16.3542 C   0  0  2  0  0  0  0  0  0  0  0  0
   23.9395  -18.3154  -15.8932 N   0  0  0  0  0  0  0  0  0  0  0  0
   21.8965  -17.3572  -16.6453 C   0  0  0  0  0  0  0  0  0  0  0  0
   22.0668  -16.3291  -15.9860 O   0  0  0  0  0  0  0  0  0  0  0  0
   20.9959  -17.2403  -17.7258 O   0  0  0  0  0  0  0  0  0  0  0  0
  2  1  1  1
  2 10  1  0
  3  2  1  0
  4  3  1  0
  5  4  2  0
  6  5  1  0
  7  8  1  0
  7  6  2  0
  8  9  2  0
  9  4  1  0
 10 14  1  0
 10 11  2  0
 13 12  1  6
 14 13  1  0
 15 22  1  0
 15 13  1  0
 16 15  2  0
 18 20  1  0
 18 17  1  0
 19 18  2  0
 21 20  1  1
 21 23  1  0
 21 22  1  0
 23 25  1  0
 24 23  2  0
M  END
$$$$
