FAN.pdb
     RDKit          3D

 25 25  0  0  1  0  0  0  0  0999 V2000
   23.7498  -14.8609  -19.1785 N   0  0  0  0  0  0  0  0  0  0  0  0
   22.8122  -15.5844  -18.3650 C   0  0  1  0  0  0  0  0  0  0  0  0
   22.7964  -15.0687  -16.9252 C   0  0  0  0  0  0  0  0  0  0  0  0
   24.0585  -15.2529  -16.2350 C   0  0  0  0  0  0  0  0  0  0  0  0
   24.3608  -16.4483  -15.6235 C   0  0  0  0  0  0  0  0  0  0  0  0
   25.5752  -16.6341  -14.9558 C   0  0  0  0  0  0  0  0  0  0  0  0
   26.4769  -15.6091  -14.9108 C   0  0  0  0  0  0  0  0  0  0  0  0
   26.2053  -14.4054  -15.5103 C   0  0  0  0  0  0  0  0  0  0  0  0
   24.9844  -14.2373  -16.1743 C   0  0  0  0  0  0  0  0  0  0  0  0
   21.4102  -15.4356  -18.8418 C   0  0  0  0  0  0  0  0  0  0  0  0
   21.0452  -14.2803  -19.1784 O   0  0  0  0  0  0  0  0  0  0  0  0
   18.6707  -17.7337  -19.8588 C   0  0  0  0  0  0  0  0  0  0  0  0
   19.1085  -16.3524  -19.3573 C   0  0  2  0  0  0  0  0  0  0  0  0
   20.4821  -16.4886  -18.9384 N   0  0  0  0  0  0  0  0  0  0  0  0
   18.2158  -15.9881  -18.2285 C   0  0  0  0  0  0  0  0  0  0  0  0
   18.5949  -16.2092  -17.0480 O   0  0  0  0  0  0  0  0  0  0  0  0
   13.9092  -16.1149  -15.1378 N   0  0  0  0  0  0  0  0  0  0  0  0
   15.3230  -15.8439  -15.1492 C   0  0  0  0  0  0  0  0  0  0  0  0
   15.8080  -15.3698  -14.1133 O   0  0  0  0  0  0  0  0  0  0  0  0
   16.1275  -16.1251  -16.3435 C   0  0  0  0  0  0  0  0  0  0  0  0
   16.0421  -15.0462  -17.3532 C   0  0  2  0  0  0  0  0  0  0  0  0
   16.9488  -15.3972  -18.4717 N   0  0  0  0  0  0  0  0  0  0  0  0
   16.4445  -13.7392  -16.8427 C   0  0  0  0  0  0  0  0  0  0  0  0
   17.6159  -13.4267  -16.6178 O   0  0  0  0  0  0  0  0  0  0  0  0
   15.4887  -12.7365  -16.5719 O   0  0  0  0  0  0  0  0  0  0  0  0
  2  1  1  6
  2 10  1  0
  3  2  1  0
  4  3  1  0
  5  4  2  0
  6  5  1  0
  7  8  1  0
  7  6  2  0
  8  9  2  0
  9  4  1  0
 10 14  1  0
 10 11  2  0
 13 12  1  1
 14 13  1  0
 15 22  1  0
 15 13  1  0
 16 15  2  0
 18 20  1  0
 18 17  1  0
 19 18  2  0
 21 20  1  1
 21 23  1  0
 21 22  1  0
 23 25  1  0
 24 23  2  0
M  END
$$$$
