FAN.pdb
     RDKit          3D

 25 25  0  0  1  0  0  0  0  0999 V2000
   25.8172  -17.6116  -18.1822 N   0  0  0  0  0  0  0  0  0  0  0  0
   26.3011  -17.8198  -16.8454 C   0  0  1  0  0  0  0  0  0  0  0  0
   25.4171  -17.1244  -15.8090 C   0  0  0  0  0  0  0  0  0  0  0  0
   25.5907  -15.6850  -15.7787 C   0  0  0  0  0  0  0  0  0  0  0  0
   26.6315  -15.1139  -15.0822 C   0  0  0  0  0  0  0  0  0  0  0  0
   26.8059  -13.7270  -15.0479 C   0  0  0  0  0  0  0  0  0  0  0  0
   25.9262  -12.9258  -15.7186 C   0  0  0  0  0  0  0  0  0  0  0  0
   24.8787  -13.4643  -16.4219 C   0  0  0  0  0  0  0  0  0  0  0  0
   24.7194  -14.8549  -16.4453 C   0  0  0  0  0  0  0  0  0  0  0  0
   26.2949  -19.2557  -16.4542 C   0  0  0  0  0  0  0  0  0  0  0  0
   25.4950  -20.0074  -17.0676 O   0  0  0  0  0  0  0  0  0  0  0  0
   28.5205  -21.4312  -14.4110 C   0  0  0  0  0  0  0  0  0  0  0  0
   27.1803  -21.2189  -15.1252 C   0  0  2  0  0  0  0  0  0  0  0  0
   27.1142  -19.8168  -15.4574 N   0  0  0  0  0  0  0  0  0  0  0  0
   26.1072  -21.6183  -14.1802 C   0  0  0  0  0  0  0  0  0  0  0  0
   25.9958  -22.8290  -13.8518 O   0  0  0  0  0  0  0  0  0  0  0  0
   26.7232  -19.8782  -10.2833 N   0  0  0  0  0  0  0  0  0  0  0  0
   25.7724  -20.8205  -10.8126 C   0  0  0  0  0  0  0  0  0  0  0  0
   26.0847  -22.0175  -10.7585 O   0  0  0  0  0  0  0  0  0  0  0  0
   24.5020  -20.3587  -11.3832 C   0  0  0  0  0  0  0  0  0  0  0  0
   24.1768  -21.0285  -12.6625 C   0  0  2  0  0  0  0  0  0  0  0  0
   25.2148  -20.6506  -13.6504 N   0  0  0  0  0  0  0  0  0  0  0  0
   22.8781  -20.6433  -13.2065 C   0  0  0  0  0  0  0  0  0  0  0  0
   21.8086  -20.8522  -12.6294 O   0  0  0  0  0  0  0  0  0  0  0  0
   22.7744  -19.9938  -14.4553 O   0  0  0  0  0  0  0  0  0  0  0  0
  2  1  1  6
  2 10  1  0
  3  2  1  0
  4  3  1  0
  5  4  2  0
  6  5  1  0
  7  8  1  0
  7  6  2  0
  8  9  2  0
  9  4  1  0
 10 14  1  0
 10 11  2  0
 13 12  1  1
 14 13  1  0
 15 22  1  0
 15 13  1  0
 16 15  2  0
 18 20  1  0
 18 17  1  0
 19 18  2  0
 21 20  1  1
 21 23  1  0
 21 22  1  0
 23 25  1  0
 24 23  2  0
M  END
$$$$
