FAN.pdb
     RDKit          3D

 25 25  0  0  1  0  0  0  0  0999 V2000
   19.3408  -15.4102    8.0898 N   0  0  0  0  0  0  0  0  0  0  0  0
   20.2813  -16.0639    7.2223 C   0  0  1  0  0  0  0  0  0  0  0  0
   21.2543  -15.0680    6.5896 C   0  0  0  0  0  0  0  0  0  0  0  0
   20.5964  -13.9208    5.9946 C   0  0  0  0  0  0  0  0  0  0  0  0
   19.6259  -14.0840    5.0323 C   0  0  0  0  0  0  0  0  0  0  0  0
   18.9868  -12.9833    4.4535 C   0  0  0  0  0  0  0  0  0  0  0  0
   19.3334  -11.7235    4.8518 C   0  0  0  0  0  0  0  0  0  0  0  0
   20.2969  -11.5275    5.8085 C   0  0  0  0  0  0  0  0  0  0  0  0
   20.9262  -12.6412    6.3771 C   0  0  0  0  0  0  0  0  0  0  0  0
   21.1439  -17.0367    7.9466 C   0  0  0  0  0  0  0  0  0  0  0  0
   22.0557  -17.5913    7.2815 O   0  0  0  0  0  0  0  0  0  0  0  0
   22.3499  -17.6439   11.2557 C   0  0  0  0  0  0  0  0  0  0  0  0
   21.8007  -18.3478   10.0091 C   0  0  2  0  0  0  0  0  0  0  0  0
   21.0065  -17.3699    9.3066 N   0  0  0  0  0  0  0  0  0  0  0  0
   20.9848  -19.4978   10.4737 C   0  0  0  0  0  0  0  0  0  0  0  0
   19.7911  -19.3034   10.8248 O   0  0  0  0  0  0  0  0  0  0  0  0
   19.4357  -24.3160   11.6450 N   0  0  0  0  0  0  0  0  0  0  0  0
   20.7423  -24.4055   11.0475 C   0  0  0  0  0  0  0  0  0  0  0  0
   21.2132  -25.5417   10.9045 O   0  0  0  0  0  0  0  0  0  0  0  0
   21.4600  -23.1935   10.6366 C   0  0  0  0  0  0  0  0  0  0  0  0
   20.7415  -21.9540   11.0084 C   0  0  2  0  0  0  0  0  0  0  0  0
   21.5392  -20.8031   10.5234 N   0  0  0  0  0  0  0  0  0  0  0  0
   20.5580  -21.7981   12.4481 C   0  0  0  0  0  0  0  0  0  0  0  0
   19.5841  -22.2390   13.0626 O   0  0  0  0  0  0  0  0  0  0  0  0
   21.5111  -21.1162   13.2349 O   0  0  0  0  0  0  0  0  0  0  0  0
  2  1  1  1
  2 10  1  0
  3  2  1  0
  4  3  1  0
  5  4  2  0
  6  5  1  0
  7  8  1  0
  7  6  2  0
  8  9  2  0
  9  4  1  0
 10 14  1  0
 10 11  2  0
 13 12  1  1
 14 13  1  0
 15 22  1  0
 15 13  1  0
 16 15  2  0
 18 20  1  0
 18 17  1  0
 19 18  2  0
 21 20  1  1
 21 23  1  0
 21 22  1  0
 23 25  1  0
 24 23  2  0
M  END
$$$$
