FAN.pdb
     RDKit          3D

 25 25  0  0  1  0  0  0  0  0999 V2000
   26.1796  -22.0727  -11.9388 N   0  0  0  0  0  0  0  0  0  0  0  0
   25.1491  -21.1898  -12.4110 C   0  0  1  0  0  0  0  0  0  0  0  0
   25.1107  -19.8864  -11.6118 C   0  0  0  0  0  0  0  0  0  0  0  0
   25.0992  -20.0926  -10.1764 C   0  0  0  0  0  0  0  0  0  0  0  0
   26.2164  -19.8303   -9.4165 C   0  0  0  0  0  0  0  0  0  0  0  0
   26.2138  -20.0265   -8.0321 C   0  0  0  0  0  0  0  0  0  0  0  0
   25.0804  -20.4871   -7.4245 C   0  0  0  0  0  0  0  0  0  0  0  0
   23.9507  -20.7580   -8.1540 C   0  0  0  0  0  0  0  0  0  0  0  0
   23.9715  -20.5557   -9.5390 C   0  0  0  0  0  0  0  0  0  0  0  0
   25.3619  -20.7688  -13.8226 C   0  0  0  0  0  0  0  0  0  0  0  0
   24.4398  -20.1053  -14.3619 O   0  0  0  0  0  0  0  0  0  0  0  0
   28.1157  -20.2187  -16.1270 C   0  0  0  0  0  0  0  0  0  0  0  0
   26.6870  -20.7551  -15.9785 C   0  0  2  0  0  0  0  0  0  0  0  0
   26.5109  -21.0614  -14.5800 N   0  0  0  0  0  0  0  0  0  0  0  0
   26.5778  -21.9653  -16.8314 C   0  0  0  0  0  0  0  0  0  0  0  0
   26.7604  -21.8615  -18.0732 O   0  0  0  0  0  0  0  0  0  0  0  0
   28.8922  -24.4229  -17.7295 N   0  0  0  0  0  0  0  0  0  0  0  0
   28.4300  -25.3968  -16.7756 C   0  0  0  0  0  0  0  0  0  0  0  0
   29.2891  -26.1268  -16.2636 O   0  0  0  0  0  0  0  0  0  0  0  0
   27.0044  -25.4989  -16.4439 C   0  0  0  0  0  0  0  0  0  0  0  0
   26.1924  -24.4472  -17.0961 C   0  0  2  0  0  0  0  0  0  0  0  0
   26.2714  -23.2269  -16.2588 N   0  0  0  0  0  0  0  0  0  0  0  0
   24.7842  -24.8041  -17.2375 C   0  0  0  0  0  0  0  0  0  0  0  0
   23.8993  -24.3994  -16.4800 O   0  0  0  0  0  0  0  0  0  0  0  0
   24.3483  -25.6542  -18.2765 O   0  0  0  0  0  0  0  0  0  0  0  0
  2  1  1  1
  2 10  1  0
  3  2  1  0
  4  3  1  0
  5  4  2  0
  6  5  1  0
  7  8  1  0
  7  6  2  0
  8  9  2  0
  9  4  1  0
 10 14  1  0
 10 11  2  0
 13 12  1  1
 14 13  1  0
 15 22  1  0
 15 13  1  0
 16 15  2  0
 18 20  1  0
 18 17  1  0
 19 18  2  0
 21 20  1  1
 21 23  1  0
 21 22  1  0
 23 25  1  0
 24 23  2  0
M  END
$$$$
