FAN.pdb
     RDKit          3D

 25 25  0  0  1  0  0  0  0  0999 V2000
   21.1407  -11.4113  -21.3453 N   0  0  0  0  0  0  0  0  0  0  0  0
   20.8151  -11.0768  -19.9864 C   0  0  1  0  0  0  0  0  0  0  0  0
   21.7973  -11.7068  -18.9977 C   0  0  0  0  0  0  0  0  0  0  0  0
   21.8716  -13.1512  -19.1030 C   0  0  0  0  0  0  0  0  0  0  0  0
   22.8417  -13.7542  -19.8709 C   0  0  0  0  0  0  0  0  0  0  0  0
   22.9202  -15.1461  -19.9778 C   0  0  0  0  0  0  0  0  0  0  0  0
   22.0164  -15.9200  -19.3070 C   0  0  0  0  0  0  0  0  0  0  0  0
   21.0375  -15.3495  -18.5336 C   0  0  0  0  0  0  0  0  0  0  0  0
   20.9741  -13.9543  -18.4382 C   0  0  0  0  0  0  0  0  0  0  0  0
   20.8926   -9.6136  -19.7254 C   0  0  0  0  0  0  0  0  0  0  0  0
   21.3832   -8.9000  -20.6372 O   0  0  0  0  0  0  0  0  0  0  0  0
   19.0949   -7.1882  -19.3029 C   0  0  0  0  0  0  0  0  0  0  0  0
   20.2553   -7.5697  -18.3762 C   0  0  2  0  0  0  0  0  0  0  0  0
   20.4589   -8.9880  -18.5422 N   0  0  0  0  0  0  0  0  0  0  0  0
   19.8475   -7.2242  -16.9912 C   0  0  0  0  0  0  0  0  0  0  0  0
   18.9138   -7.8695  -16.4456 O   0  0  0  0  0  0  0  0  0  0  0  0
   22.7747   -6.7528  -14.8038 N   0  0  0  0  0  0  0  0  0  0  0  0
   22.4938   -5.4247  -14.3249 C   0  0  0  0  0  0  0  0  0  0  0  0
   23.4520   -4.7779  -13.8815 O   0  0  0  0  0  0  0  0  0  0  0  0
   21.1293   -4.8875  -14.3710 C   0  0  0  0  0  0  0  0  0  0  0  0
   20.1478   -5.8718  -14.8795 C   0  0  2  0  0  0  0  0  0  0  0  0
   20.4992   -6.1795  -16.2860 N   0  0  0  0  0  0  0  0  0  0  0  0
   18.7717   -5.3854  -14.8569 C   0  0  0  0  0  0  0  0  0  0  0  0
   18.2598   -4.7462  -15.7787 O   0  0  0  0  0  0  0  0  0  0  0  0
   17.9311   -5.6273  -13.7491 O   0  0  0  0  0  0  0  0  0  0  0  0
  2  1  1  6
  2 10  1  0
  3  2  1  0
  4  3  1  0
  5  4  2  0
  6  5  1  0
  7  8  1  0
  7  6  2  0
  8  9  2  0
  9  4  1  0
 10 14  1  0
 10 11  2  0
 13 12  1  6
 14 13  1  0
 15 22  1  0
 15 13  1  0
 16 15  2  0
 18 20  1  0
 18 17  1  0
 19 18  2  0
 21 20  1  6
 21 23  1  0
 21 22  1  0
 23 25  1  0
 24 23  2  0
M  END
$$$$
