ADT.pdb
     RDKit          3D

 21 20  0  0  1  0  0  0  0  0999 V2000
   17.6219  -10.0532  -16.1921 C   0  0  0  0  0  0  0  0  0  0  0  0
   17.9951   -8.7021  -16.6983 C   0  0  2  0  0  0  0  0  0  0  0  0
   18.5930   -8.7959  -18.0114 N   0  0  0  0  0  0  0  0  0  0  0  0
   18.9036   -8.0078  -15.7466 C   0  0  0  0  0  0  0  0  0  0  0  0
   18.5030   -7.8134  -14.5763 O   0  0  0  0  0  0  0  0  0  0  0  0
   20.1818   -7.5713  -16.1276 N   0  0  0  0  0  0  0  0  0  0  0  0
   21.1162   -6.9263  -15.2313 C   0  0  1  0  0  0  0  0  0  0  0  0
   22.4019   -7.6836  -15.1104 C   0  0  0  0  0  0  0  0  0  0  0  0
   22.3128   -8.9813  -14.4732 C   0  0  0  0  0  0  0  0  0  0  0  0
   21.8163   -9.1292  -13.3427 O   0  0  0  0  0  0  0  0  0  0  0  0
   21.2672   -5.5275  -15.6084 C   0  0  0  0  0  0  0  0  0  0  0  0
   21.8127   -5.1204  -16.6704 O   0  0  0  0  0  0  0  0  0  0  0  0
   22.7863  -10.1135  -15.1169 O   0  0  0  0  0  0  0  0  0  0  0  0
   18.5455   -3.2593  -16.0239 C   0  0  0  0  0  0  0  0  0  0  0  0
   19.3859   -2.5751  -14.9864 C   0  0  1  0  0  0  0  0  0  0  0  0
   18.8110   -2.8195  -13.7436 O   0  0  0  0  0  0  0  0  0  0  0  0
   20.7783   -3.1156  -15.0365 C   0  0  2  0  0  0  0  0  0  0  0  0
   20.7710   -4.5268  -14.7289 N   0  0  0  0  0  0  0  0  0  0  0  0
   21.7049   -2.3644  -14.1497 C   0  0  0  0  0  0  0  0  0  0  0  0
   22.2348   -2.9388  -13.1729 O   0  0  0  0  0  0  0  0  0  0  0  0
   21.9716   -1.0419  -14.4116 O   0  0  0  0  0  0  0  0  0  0  0  0
  2  1  1  1
  2  4  1  0
  3  2  1  0
  4  5  2  0
  6  7  1  0
  6  4  1  0
  7 11  1  0
  8  9  1  0
  7  8  1  6
  9 10  2  0
 11 18  1  0
 11 12  2  0
 13  9  1  0
 15 14  1  6
 15 17  1  0
 16 15  1  0
 17 19  1  0
 17 18  1  1
 19 20  2  0
 19 21  1  0
M  END
$$$$
