ADT.pdb
     RDKit          3D

 21 20  0  0  1  0  0  0  0  0999 V2000
   19.6569  -11.8929  -19.6071 C   0  0  0  0  0  0  0  0  0  0  0  0
   20.7078  -11.1958  -18.8129 C   0  0  2  0  0  0  0  0  0  0  0  0
   21.3700  -12.1199  -17.9197 N   0  0  0  0  0  0  0  0  0  0  0  0
   20.1348  -10.0460  -18.0627 C   0  0  0  0  0  0  0  0  0  0  0  0
   19.5874   -9.1257  -18.7117 O   0  0  0  0  0  0  0  0  0  0  0  0
   20.1949   -9.9716  -16.6625 N   0  0  0  0  0  0  0  0  0  0  0  0
   19.6642   -8.8712  -15.8880 C   0  0  1  0  0  0  0  0  0  0  0  0
   18.7958   -9.3370  -14.7610 C   0  0  0  0  0  0  0  0  0  0  0  0
   18.2873   -8.3008  -13.8859 C   0  0  0  0  0  0  0  0  0  0  0  0
   17.7895   -7.2498  -14.3264 O   0  0  0  0  0  0  0  0  0  0  0  0
   20.7501   -7.9845  -15.4929 C   0  0  0  0  0  0  0  0  0  0  0  0
   21.8419   -8.3608  -14.9856 O   0  0  0  0  0  0  0  0  0  0  0  0
   18.3418   -8.4549  -12.5098 O   0  0  0  0  0  0  0  0  0  0  0  0
   22.4943   -3.3938  -15.9012 C   0  0  0  0  0  0  0  0  0  0  0  0
   21.3484   -4.3398  -16.1084 C   0  0  1  0  0  0  0  0  0  0  0  0
   21.2356   -4.5796  -17.4739 O   0  0  0  0  0  0  0  0  0  0  0  0
   21.6131   -5.6129  -15.3718 C   0  0  2  0  0  0  0  0  0  0  0  0
   20.5906   -6.5845  -15.6828 N   0  0  0  0  0  0  0  0  0  0  0  0
   21.7403   -5.3983  -13.9065 C   0  0  0  0  0  0  0  0  0  0  0  0
   20.7245   -5.4536  -13.1786 O   0  0  0  0  0  0  0  0  0  0  0  0
   22.9760   -5.1401  -13.3635 O   0  0  0  0  0  0  0  0  0  0  0  0
  2  1  1  1
  2  4  1  0
  3  2  1  0
  4  5  2  0
  6  7  1  0
  6  4  1  0
  7 11  1  0
  8  9  1  0
  7  8  1  1
  9 10  2  0
 11 18  1  0
 11 12  2  0
 13  9  1  0
 15 14  1  6
 15 17  1  0
 16 15  1  0
 17 19  1  0
 17 18  1  1
 19 20  2  0
 19 21  1  0
M  END
$$$$
