ADT.pdb
     RDKit          3D

 21 20  0  0  1  0  0  0  0  0999 V2000
   18.2295  -14.0270  -15.9172 C   0  0  0  0  0  0  0  0  0  0  0  0
   17.7437  -12.7278  -16.4623 C   0  0  2  0  0  0  0  0  0  0  0  0
   17.6875  -12.7689  -17.9065 N   0  0  0  0  0  0  0  0  0  0  0  0
   18.5940  -11.6009  -15.9931 C   0  0  0  0  0  0  0  0  0  0  0  0
   18.7121  -11.4182  -14.7600 O   0  0  0  0  0  0  0  0  0  0  0  0
   19.2567  -10.7495  -16.8907 N   0  0  0  0  0  0  0  0  0  0  0  0
   20.1057   -9.6507  -16.4856 C   0  0  1  0  0  0  0  0  0  0  0  0
   21.4527   -9.7041  -17.1368 C   0  0  0  0  0  0  0  0  0  0  0  0
   22.3468   -8.6069  -16.8290 C   0  0  0  0  0  0  0  0  0  0  0  0
   22.4376   -8.1303  -15.6840 O   0  0  0  0  0  0  0  0  0  0  0  0
   19.3935   -8.3927  -16.6636 C   0  0  0  0  0  0  0  0  0  0  0  0
   19.0484   -7.9090  -17.7762 O   0  0  0  0  0  0  0  0  0  0  0  0
   23.1398   -8.0486  -17.8189 O   0  0  0  0  0  0  0  0  0  0  0  0
   16.1633   -7.5101  -15.2819 C   0  0  0  0  0  0  0  0  0  0  0  0
   17.0950   -6.4835  -14.7082 C   0  0  1  0  0  0  0  0  0  0  0  0
   17.4266   -6.8832  -13.4178 O   0  0  0  0  0  0  0  0  0  0  0  0
   18.3194   -6.3897  -15.5599 C   0  0  2  0  0  0  0  0  0  0  0  0
   19.0509   -7.6342  -15.5109 N   0  0  0  0  0  0  0  0  0  0  0  0
   19.1758   -5.2335  -15.1873 C   0  0  0  0  0  0  0  0  0  0  0  0
   20.3288   -5.4299  -14.7439 O   0  0  0  0  0  0  0  0  0  0  0  0
   18.6916   -3.9557  -15.3336 O   0  0  0  0  0  0  0  0  0  0  0  0
  2  1  1  6
  2  4  1  0
  3  2  1  0
  4  5  2  0
  6  7  1  0
  6  4  1  0
  7 11  1  0
  8  9  1  0
  7  8  1  6
  9 10  2  0
 11 18  1  0
 11 12  2  0
 13  9  1  0
 15 14  1  6
 15 17  1  0
 16 15  1  0
 17 19  1  0
 17 18  1  1
 19 20  2  0
 19 21  1  0
M  END
$$$$
