ADT.pdb
     RDKit          3D

 21 20  0  0  1  0  0  0  0  0999 V2000
   15.8424   -7.6405  -17.5886 C   0  0  0  0  0  0  0  0  0  0  0  0
   16.6117   -8.9168  -17.5776 C   0  0  2  0  0  0  0  0  0  0  0  0
   15.7644  -10.0206  -17.1848 N   0  0  0  0  0  0  0  0  0  0  0  0
   17.8014   -8.8151  -16.6903 C   0  0  0  0  0  0  0  0  0  0  0  0
   17.6369   -8.9527  -15.4566 O   0  0  0  0  0  0  0  0  0  0  0  0
   19.0863   -8.5707  -17.1994 N   0  0  0  0  0  0  0  0  0  0  0  0
   20.2729   -8.4593  -16.3797 C   0  0  1  0  0  0  0  0  0  0  0  0
   21.3341   -9.4359  -16.7814 C   0  0  0  0  0  0  0  0  0  0  0  0
   22.5762   -9.3588  -16.0404 C   0  0  0  0  0  0  0  0  0  0  0  0
   23.0924   -8.2715  -15.7278 O   0  0  0  0  0  0  0  0  0  0  0  0
   20.7086   -7.0701  -16.3388 C   0  0  0  0  0  0  0  0  0  0  0  0
   21.1537   -6.4231  -17.3260 O   0  0  0  0  0  0  0  0  0  0  0  0
   23.2350  -10.5146  -15.6522 O   0  0  0  0  0  0  0  0  0  0  0  0
   18.8393   -4.2654  -15.7560 C   0  0  0  0  0  0  0  0  0  0  0  0
   19.8315   -4.1496  -14.6366 C   0  0  1  0  0  0  0  0  0  0  0  0
   19.2122   -4.5894  -13.4714 O   0  0  0  0  0  0  0  0  0  0  0  0
   21.0297   -4.9884  -14.9433 C   0  0  2  0  0  0  0  0  0  0  0  0
   20.6373   -6.3692  -15.1039 N   0  0  0  0  0  0  0  0  0  0  0  0
   22.0987   -4.8360  -13.9219 C   0  0  0  0  0  0  0  0  0  0  0  0
   22.4555   -5.8233  -13.2417 O   0  0  0  0  0  0  0  0  0  0  0  0
   22.6868   -3.6083  -13.7334 O   0  0  0  0  0  0  0  0  0  0  0  0
  2  1  1  1
  2  4  1  0
  3  2  1  0
  4  5  2  0
  6  7  1  0
  6  4  1  0
  7 11  1  0
  8  9  1  0
  7  8  1  6
  9 10  2  0
 11 18  1  0
 11 12  2  0
 13  9  1  0
 15 14  1  6
 15 17  1  0
 16 15  1  0
 17 19  1  0
 17 18  1  1
 19 20  2  0
 19 21  1  0
M  END
$$$$
