ADT.pdb
     RDKit          3D

 21 20  0  0  1  0  0  0  0  0999 V2000
   21.3490  -12.2280  -19.3533 C   0  0  0  0  0  0  0  0  0  0  0  0
   22.1686  -11.1205  -18.7854 C   0  0  2  0  0  0  0  0  0  0  0  0
   23.2640  -11.6458  -18.0013 N   0  0  0  0  0  0  0  0  0  0  0  0
   21.3292  -10.1956  -17.9772 C   0  0  0  0  0  0  0  0  0  0  0  0
   20.1704  -10.5582  -17.6709 O   0  0  0  0  0  0  0  0  0  0  0  0
   21.8015   -8.9425  -17.5574 N   0  0  0  0  0  0  0  0  0  0  0  0
   21.3284   -8.2546  -16.3762 C   0  0  1  0  0  0  0  0  0  0  0  0
   21.2829   -9.1504  -15.1776 C   0  0  0  0  0  0  0  0  0  0  0  0
   20.8667   -8.5264  -13.9384 C   0  0  0  0  0  0  0  0  0  0  0  0
   19.8214   -7.8580  -13.8541 O   0  0  0  0  0  0  0  0  0  0  0  0
   22.0893   -7.0266  -16.1894 C   0  0  0  0  0  0  0  0  0  0  0  0
   23.3398   -6.9679  -16.0358 O   0  0  0  0  0  0  0  0  0  0  0  0
   21.6347   -8.6597  -12.7927 O   0  0  0  0  0  0  0  0  0  0  0  0
   21.7775   -4.1566  -18.4964 C   0  0  0  0  0  0  0  0  0  0  0  0
   21.5022   -3.5843  -17.1371 C   0  0  1  0  0  0  0  0  0  0  0  0
   20.1244   -3.4496  -17.0027 O   0  0  0  0  0  0  0  0  0  0  0  0
   22.0448   -4.5024  -16.0901 C   0  0  2  0  0  0  0  0  0  0  0  0
   21.3917   -5.7879  -16.1748 N   0  0  0  0  0  0  0  0  0  0  0  0
   21.9415   -3.9220  -14.7256 C   0  0  0  0  0  0  0  0  0  0  0  0
   21.2460   -4.4932  -13.8570 O   0  0  0  0  0  0  0  0  0  0  0  0
   22.6129   -2.7598  -14.4302 O   0  0  0  0  0  0  0  0  0  0  0  0
  2  1  1  1
  2  4  1  0
  3  2  1  0
  4  5  2  0
  6  7  1  0
  6  4  1  0
  7 11  1  0
  8  9  1  0
  7  8  1  1
  9 10  2  0
 11 18  1  0
 11 12  2  0
 13  9  1  0
 15 14  1  6
 15 17  1  0
 16 15  1  0
 17 19  1  0
 17 18  1  1
 19 20  2  0
 19 21  1  0
M  END
$$$$
