VLQ.pdb
     RDKit          3D

 25 24  0  0  1  0  0  0  0  0999 V2000
    6.3696  -20.7132   25.0498 C   0  0  0  0  0  0  0  0  0  0  0  0
    7.0503  -19.4058   24.7240 C   0  0  1  0  0  0  0  0  0  0  0  0
    8.3392  -19.5930   23.9922 C   0  0  0  0  0  0  0  0  0  0  0  0
    6.0828  -18.5085   24.0068 C   0  0  2  0  0  0  0  0  0  0  0  0
    5.6875  -19.0488   22.7399 N   0  0  0  0  0  0  0  0  0  0  0  0
    6.6848  -17.1473   23.8735 C   0  0  0  0  0  0  0  0  0  0  0  0
    7.2206  -16.8028   22.8025 O   0  0  0  0  0  0  0  0  0  0  0  0
    7.1493  -11.8325   24.7418 C   0  0  0  0  0  0  0  0  0  0  0  0
    7.3670  -12.6867   26.0285 C   0  0  1  0  0  0  0  0  0  0  0  0
    6.7269  -11.8484   27.1336 C   0  0  0  0  0  0  0  0  0  0  0  0
    6.7474  -14.0115   25.8130 C   0  0  0  0  0  0  0  0  0  0  0  0
    7.3868  -14.8966   24.8290 C   0  0  2  0  0  0  0  0  0  0  0  0
    6.6596  -16.2348   24.9441 N   0  0  0  0  0  0  0  0  0  0  0  0
    8.7730  -15.2636   25.0639 C   0  0  0  0  0  0  0  0  0  0  0  0
    9.6653  -14.3386   24.9266 O   0  0  0  0  0  0  0  0  0  0  0  0
   11.4124  -18.5992   29.3714 N   0  0  0  0  0  0  0  0  0  0  0  0
   10.2060  -18.9424   28.7130 C   0  0  0  0  0  0  0  0  0  0  0  0
    9.3789  -19.7303   29.1820 O   0  0  0  0  0  0  0  0  0  0  0  0
    9.9179  -18.3080   27.3627 C   0  0  0  0  0  0  0  0  0  0  0  0
   10.9767  -17.3001   27.0374 C   0  0  0  0  0  0  0  0  0  0  0  0
   10.7417  -16.7186   25.6661 C   0  0  2  0  0  0  0  0  0  0  0  0
    9.3178  -16.5112   25.4459 N   0  0  0  0  0  0  0  0  0  0  0  0
   11.4466  -17.4616   24.6503 C   0  0  0  0  0  0  0  0  0  0  0  0
   12.8153  -17.6673   24.5550 O   0  0  0  0  0  0  0  0  0  0  0  0
   10.7709  -18.0093   23.7067 O   0  0  0  0  0  0  0  0  0  0  0  0
  2  1  1  6
  2  3  1  0
  4  2  1  0
  4  5  1  6
  6  4  1  0
  6  7  2  0
  9 11  1  0
  9  8  1  6
 10  9  1  0
 12 11  1  1
 12 13  1  0
 13  6  1  0
 14 12  1  0
 15 14  2  0
 17 16  1  0
 17 18  2  0
 19 20  1  0
 19 17  1  0
 21 20  1  1
 21 23  1  0
 21 22  1  0
 22 14  1  0
 23 24  1  0
 25 23  2  0
M  END
$$$$
