VLQ.pdb
     RDKit          3D

 25 24  0  0  1  0  0  0  0  0999 V2000
    7.8834  -19.7355   20.0370 C   0  0  0  0  0  0  0  0  0  0  0  0
    8.4196  -19.5943   18.6329 C   0  0  1  0  0  0  0  0  0  0  0  0
    7.8579  -20.6132   17.6956 C   0  0  0  0  0  0  0  0  0  0  0  0
    8.2199  -18.1809   18.1659 C   0  0  2  0  0  0  0  0  0  0  0  0
    8.5911  -18.0120   16.7922 N   0  0  0  0  0  0  0  0  0  0  0  0
    8.9715  -17.2568   19.0683 C   0  0  0  0  0  0  0  0  0  0  0  0
   10.1937  -17.0787   18.9033 O   0  0  0  0  0  0  0  0  0  0  0  0
    6.7549  -12.6362   20.4625 C   0  0  0  0  0  0  0  0  0  0  0  0
    7.8512  -13.6614   20.0384 C   0  0  1  0  0  0  0  0  0  0  0  0
    8.9727  -12.7853   19.4832 C   0  0  0  0  0  0  0  0  0  0  0  0
    8.2164  -14.4636   21.2252 C   0  0  0  0  0  0  0  0  0  0  0  0
    9.1037  -15.6149   21.0069 C   0  0  2  0  0  0  0  0  0  0  0  0
    8.3212  -16.5750   20.1132 N   0  0  0  0  0  0  0  0  0  0  0  0
    9.4232  -16.4388   22.1604 C   0  0  0  0  0  0  0  0  0  0  0  0
    8.7069  -16.2772   23.2241 O   0  0  0  0  0  0  0  0  0  0  0  0
   15.5666  -17.7934   22.3507 N   0  0  0  0  0  0  0  0  0  0  0  0
   15.0764  -16.4689   22.4608 C   0  0  0  0  0  0  0  0  0  0  0  0
   15.6114  -15.5008   21.9118 O   0  0  0  0  0  0  0  0  0  0  0  0
   13.8301  -16.2304   23.2967 C   0  0  0  0  0  0  0  0  0  0  0  0
   12.6081  -16.3895   22.4457 C   0  0  0  0  0  0  0  0  0  0  0  0
   11.5942  -17.2603   23.1438 C   0  0  2  0  0  0  0  0  0  0  0  0
   10.4178  -17.4333   22.3040 N   0  0  0  0  0  0  0  0  0  0  0  0
   11.3578  -16.8149   24.4954 C   0  0  0  0  0  0  0  0  0  0  0  0
   10.3560  -15.9634   24.9380 O   0  0  0  0  0  0  0  0  0  0  0  0
   12.1404  -17.2260   25.4256 O   0  0  0  0  0  0  0  0  0  0  0  0
  2  1  1  1
  2  3  1  0
  4  2  1  0
  4  5  1  6
  6  4  1  0
  6  7  2  0
  9 11  1  0
  9  8  1  1
 10  9  1  0
 12 11  1  1
 12 13  1  0
 13  6  1  0
 14 12  1  0
 15 14  2  0
 17 16  1  0
 17 18  2  0
 19 20  1  0
 19 17  1  0
 21 20  1  6
 21 23  1  0
 21 22  1  0
 22 14  1  0
 23 24  1  0
 25 23  2  0
M  END
$$$$
