VLQ.pdb
     RDKit          3D

 25 24  0  0  1  0  0  0  0  0999 V2000
   10.0314  -15.4403   19.5838 C   0  0  0  0  0  0  0  0  0  0  0  0
    8.5323  -15.5936   19.6725 C   0  0  1  0  0  0  0  0  0  0  0  0
    7.9330  -16.1408   18.4181 C   0  0  0  0  0  0  0  0  0  0  0  0
    8.1873  -16.3935   20.8959 C   0  0  2  0  0  0  0  0  0  0  0  0
    6.7891  -16.7003   20.9600 N   0  0  0  0  0  0  0  0  0  0  0  0
    8.6571  -15.6586   22.1093 C   0  0  0  0  0  0  0  0  0  0  0  0
    9.8689  -15.4100   22.2596 O   0  0  0  0  0  0  0  0  0  0  0  0
    8.2596  -12.0674   26.2063 C   0  0  0  0  0  0  0  0  0  0  0  0
    7.2569  -13.2602   26.2736 C   0  0  1  0  0  0  0  0  0  0  0  0
    5.9879  -12.6360   26.8513 C   0  0  0  0  0  0  0  0  0  0  0  0
    7.1128  -13.8191   24.9127 C   0  0  0  0  0  0  0  0  0  0  0  0
    8.2601  -14.5600   24.3691 C   0  0  2  0  0  0  0  0  0  0  0  0
    7.7498  -15.2359   23.0981 N   0  0  0  0  0  0  0  0  0  0  0  0
    8.7609  -15.6793   25.1488 C   0  0  0  0  0  0  0  0  0  0  0  0
    7.9069  -16.5757   25.5200 O   0  0  0  0  0  0  0  0  0  0  0  0
   12.2829  -20.0935   23.0251 N   0  0  0  0  0  0  0  0  0  0  0  0
   12.5187  -18.8682   23.6957 C   0  0  0  0  0  0  0  0  0  0  0  0
   13.6396  -18.3626   23.8087 O   0  0  0  0  0  0  0  0  0  0  0  0
   11.3314  -18.1420   24.3055 C   0  0  0  0  0  0  0  0  0  0  0  0
   11.6002  -17.8496   25.7495 C   0  0  0  0  0  0  0  0  0  0  0  0
   10.4271  -17.1288   26.3644 C   0  0  2  0  0  0  0  0  0  0  0  0
   10.0817  -15.9606   25.5675 N   0  0  0  0  0  0  0  0  0  0  0  0
   10.6255  -16.9069   27.7759 C   0  0  0  0  0  0  0  0  0  0  0  0
   10.7962  -17.8665   28.7631 O   0  0  0  0  0  0  0  0  0  0  0  0
   10.6512  -15.7005   28.2125 O   0  0  0  0  0  0  0  0  0  0  0  0
  2  1  1  6
  2  3  1  0
  4  2  1  0
  4  5  1  1
  6  4  1  0
  6  7  2  0
  9 11  1  0
  9  8  1  6
 10  9  1  0
 12 11  1  1
 12 13  1  0
 13  6  1  0
 14 12  1  0
 15 14  2  0
 17 16  1  0
 17 18  2  0
 19 20  1  0
 19 17  1  0
 21 20  1  6
 21 23  1  0
 21 22  1  0
 22 14  1  0
 23 24  1  0
 25 23  2  0
M  END
$$$$
