VLQ.pdb
     RDKit          3D

 25 24  0  0  1  0  0  0  0  0999 V2000
    9.0744  -12.5021   20.3161 C   0  0  0  0  0  0  0  0  0  0  0  0
    7.7313  -13.1829   20.4214 C   0  0  1  0  0  0  0  0  0  0  0  0
    6.9505  -13.1188   19.1493 C   0  0  0  0  0  0  0  0  0  0  0  0
    7.9233  -14.5820   20.9327 C   0  0  2  0  0  0  0  0  0  0  0  0
    6.7166  -15.3511   20.8582 N   0  0  0  0  0  0  0  0  0  0  0  0
    8.4674  -14.5241   22.3233 C   0  0  0  0  0  0  0  0  0  0  0  0
    9.6669  -14.2458   22.5144 O   0  0  0  0  0  0  0  0  0  0  0  0
    5.4590  -12.6499   26.6226 C   0  0  0  0  0  0  0  0  0  0  0  0
    6.7485  -12.8217   25.7621 C   0  0  1  0  0  0  0  0  0  0  0  0
    7.7848  -11.9632   26.4853 C   0  0  0  0  0  0  0  0  0  0  0  0
    7.0700  -14.2630   25.6956 C   0  0  0  0  0  0  0  0  0  0  0  0
    8.2064  -14.6563   24.8503 C   0  0  2  0  0  0  0  0  0  0  0  0
    7.6446  -14.7803   23.4355 N   0  0  0  0  0  0  0  0  0  0  0  0
    8.7865  -15.9685   25.0812 C   0  0  0  0  0  0  0  0  0  0  0  0
    8.0231  -16.9964   24.9042 O   0  0  0  0  0  0  0  0  0  0  0  0
   12.9329  -20.2031   22.6656 N   0  0  0  0  0  0  0  0  0  0  0  0
   13.2532  -19.7523   23.9698 C   0  0  0  0  0  0  0  0  0  0  0  0
   14.4121  -19.6071   24.3707 O   0  0  0  0  0  0  0  0  0  0  0  0
   12.1120  -19.4322   24.9206 C   0  0  0  0  0  0  0  0  0  0  0  0
   11.6725  -18.0135   24.7293 C   0  0  0  0  0  0  0  0  0  0  0  0
   10.5359  -17.6871   25.6649 C   0  0  2  0  0  0  0  0  0  0  0  0
   10.1025  -16.3115   25.4678 N   0  0  0  0  0  0  0  0  0  0  0  0
   10.8403  -18.0761   27.0202 C   0  0  0  0  0  0  0  0  0  0  0  0
   10.9887  -17.2453   28.1213 O   0  0  0  0  0  0  0  0  0  0  0  0
   11.0032  -19.3218   27.2822 O   0  0  0  0  0  0  0  0  0  0  0  0
  2  1  1  6
  2  3  1  0
  4  2  1  0
  4  5  1  1
  6  4  1  0
  6  7  2  0
  9 11  1  0
  9  8  1  1
 10  9  1  0
 12 11  1  1
 12 13  1  0
 13  6  1  0
 14 12  1  0
 15 14  2  0
 17 16  1  0
 17 18  2  0
 19 20  1  0
 19 17  1  0
 21 20  1  6
 21 23  1  0
 21 22  1  0
 22 14  1  0
 23 24  1  0
 25 23  2  0
M  END
$$$$
