VLQ.pdb
     RDKit          3D

 25 24  0  0  1  0  0  0  0  0999 V2000
    7.9936  -18.1385   22.8504 C   0  0  0  0  0  0  0  0  0  0  0  0
    8.3081  -17.4266   21.5569 C   0  0  1  0  0  0  0  0  0  0  0  0
    7.8781  -18.2001   20.3533 C   0  0  0  0  0  0  0  0  0  0  0  0
    7.7415  -16.0365   21.6056 C   0  0  2  0  0  0  0  0  0  0  0  0
    7.8326  -15.3751   20.3377 N   0  0  0  0  0  0  0  0  0  0  0  0
    8.4240  -15.2679   22.6903 C   0  0  0  0  0  0  0  0  0  0  0  0
    9.5313  -14.7368   22.4786 O   0  0  0  0  0  0  0  0  0  0  0  0
    5.6602  -12.2785   26.3205 C   0  0  0  0  0  0  0  0  0  0  0  0
    6.7830  -12.6870   25.3180 C   0  0  1  0  0  0  0  0  0  0  0  0
    7.5649  -11.3926   25.1011 C   0  0  0  0  0  0  0  0  0  0  0  0
    7.5600  -13.7910   25.9205 C   0  0  0  0  0  0  0  0  0  0  0  0
    8.5918  -14.4177   25.0820 C   0  0  2  0  0  0  0  0  0  0  0  0
    7.8365  -15.1289   23.9611 N   0  0  0  0  0  0  0  0  0  0  0  0
    9.3714  -15.4912   25.6748 C   0  0  0  0  0  0  0  0  0  0  0  0
    8.7939  -16.2212   26.5716 O   0  0  0  0  0  0  0  0  0  0  0  0
   10.9634  -17.4651   30.2022 N   0  0  0  0  0  0  0  0  0  0  0  0
   11.1199  -18.6298   29.4113 C   0  0  0  0  0  0  0  0  0  0  0  0
   11.5048  -19.7111   29.8667 O   0  0  0  0  0  0  0  0  0  0  0  0
   10.7973  -18.5414   27.9291 C   0  0  0  0  0  0  0  0  0  0  0  0
   10.7227  -17.1059   27.5089 C   0  0  0  0  0  0  0  0  0  0  0  0
   11.3903  -16.9173   26.1702 C   0  0  2  0  0  0  0  0  0  0  0  0
   10.7022  -15.8864   25.4067 N   0  0  0  0  0  0  0  0  0  0  0  0
   11.5989  -18.1788   25.5024 C   0  0  0  0  0  0  0  0  0  0  0  0
   10.9309  -18.6609   24.3862 O   0  0  0  0  0  0  0  0  0  0  0  0
   12.4919  -18.9784   25.9605 O   0  0  0  0  0  0  0  0  0  0  0  0
  2  1  1  1
  2  3  1  0
  4  2  1  0
  4  5  1  6
  6  4  1  0
  6  7  2  0
  9 11  1  0
  9  8  1  1
 10  9  1  0
 12 11  1  1
 12 13  1  0
 13  6  1  0
 14 12  1  0
 15 14  2  0
 17 16  1  0
 17 18  2  0
 19 20  1  0
 19 17  1  0
 21 20  1  1
 21 23  1  0
 21 22  1  0
 22 14  1  0
 23 24  1  0
 25 23  2  0
M  END
$$$$
