VLQ.pdb
     RDKit          3D

 25 24  0  0  1  0  0  0  0  0999 V2000
    6.7898  -17.8229   23.0532 C   0  0  0  0  0  0  0  0  0  0  0  0
    7.2707  -17.2732   21.7321 C   0  0  1  0  0  0  0  0  0  0  0  0
    6.7099  -18.0125   20.5611 C   0  0  0  0  0  0  0  0  0  0  0  0
    7.0080  -15.7952   21.6850 C   0  0  2  0  0  0  0  0  0  0  0  0
    7.2579  -15.2468   20.3850 N   0  0  0  0  0  0  0  0  0  0  0  0
    7.8179  -15.1205   22.7442 C   0  0  0  0  0  0  0  0  0  0  0  0
    9.0134  -14.8393   22.5330 O   0  0  0  0  0  0  0  0  0  0  0  0
    5.7068  -11.7171   26.6987 C   0  0  0  0  0  0  0  0  0  0  0  0
    6.6000  -12.2850   25.5531 C   0  0  1  0  0  0  0  0  0  0  0  0
    7.5882  -11.1551   25.2689 C   0  0  0  0  0  0  0  0  0  0  0  0
    7.2125  -13.5442   26.0268 C   0  0  0  0  0  0  0  0  0  0  0  0
    8.1312  -14.2287   25.1059 C   0  0  2  0  0  0  0  0  0  0  0  0
    7.2533  -14.7919   23.9903 N   0  0  0  0  0  0  0  0  0  0  0  0
    8.8157  -15.4103   25.6028 C   0  0  0  0  0  0  0  0  0  0  0  0
    8.1517  -16.1995   26.3819 O   0  0  0  0  0  0  0  0  0  0  0  0
    8.4735  -20.1980   23.6872 N   0  0  0  0  0  0  0  0  0  0  0  0
    9.4784  -20.6453   24.5797 C   0  0  0  0  0  0  0  0  0  0  0  0
    9.7721  -21.8356   24.7275 O   0  0  0  0  0  0  0  0  0  0  0  0
   10.2309  -19.6067   25.3946 C   0  0  0  0  0  0  0  0  0  0  0  0
    9.7298  -18.2359   25.0596 C   0  0  0  0  0  0  0  0  0  0  0  0
   10.6000  -17.1881   25.7066 C   0  0  2  0  0  0  0  0  0  0  0  0
   10.1330  -15.8566   25.3488 N   0  0  0  0  0  0  0  0  0  0  0  0
   12.0003  -17.4573   25.4881 C   0  0  0  0  0  0  0  0  0  0  0  0
   12.7832  -18.4109   26.1223 O   0  0  0  0  0  0  0  0  0  0  0  0
   12.6343  -16.7571   24.6195 O   0  0  0  0  0  0  0  0  0  0  0  0
  2  1  1  1
  2  3  1  0
  4  2  1  0
  4  5  1  6
  6  4  1  0
  6  7  2  0
  9 11  1  0
  9  8  1  1
 10  9  1  0
 12 11  1  1
 12 13  1  0
 13  6  1  0
 14 12  1  0
 15 14  2  0
 17 16  1  0
 17 18  2  0
 19 20  1  0
 19 17  1  0
 21 20  1  6
 21 23  1  0
 21 22  1  0
 22 14  1  0
 23 24  1  0
 25 23  2  0
M  END
$$$$
