SFN.pdb
     RDKit          3D

 26 26  0  0  1  0  0  0  0  0999 V2000
   20.7916  -11.5683  -21.9476 O   0  0  0  0  0  0  0  0  0  0  0  0
   21.0567  -10.6769  -20.9209 C   0  0  0  0  0  0  0  0  0  0  0  0
   21.1667  -11.4585  -19.6058 C   0  0  2  0  0  0  0  0  0  0  0  0
   20.1018  -12.4373  -19.6287 N   0  0  0  0  0  0  0  0  0  0  0  0
   20.8941  -10.4905  -18.5251 C   0  0  0  0  0  0  0  0  0  0  0  0
   19.7204  -10.3401  -18.1181 O   0  0  0  0  0  0  0  0  0  0  0  0
   21.8911   -9.6965  -17.8968 N   0  0  0  0  0  0  0  0  0  0  0  0
   21.5709   -8.7881  -16.8152 C   0  0  1  0  0  0  0  0  0  0  0  0
   22.6380   -8.7644  -15.7594 C   0  0  0  0  0  0  0  0  0  0  0  0
   22.3939   -7.8395  -14.6657 C   0  0  0  0  0  0  0  0  0  0  0  0
   22.7285   -6.5109  -14.7860 C   0  0  0  0  0  0  0  0  0  0  0  0
   22.4982   -5.6112  -13.7372 C   0  0  0  0  0  0  0  0  0  0  0  0
   21.9289   -6.0822  -12.5797 C   0  0  0  0  0  0  0  0  0  0  0  0
   21.5879   -7.3908  -12.4328 C   0  0  0  0  0  0  0  0  0  0  0  0
   21.8281   -8.2592  -13.4893 C   0  0  0  0  0  0  0  0  0  0  0  0
   21.2036   -7.4671  -17.3552 C   0  0  0  0  0  0  0  0  0  0  0  0
   21.9081   -6.9562  -18.2962 O   0  0  0  0  0  0  0  0  0  0  0  0
   16.7925   -4.4096  -19.6436 N   0  0  0  0  0  0  0  0  0  0  0  0
   18.0820   -4.3748  -19.0114 C   0  0  0  0  0  0  0  0  0  0  0  0
   18.8367   -3.3868  -19.1464 O   0  0  0  0  0  0  0  0  0  0  0  0
   18.4784   -5.5232  -18.2123 C   0  0  0  0  0  0  0  0  0  0  0  0
   19.8320   -5.3592  -17.5088 C   0  0  2  0  0  0  0  0  0  0  0  0
   20.1035   -6.6892  -16.9122 N   0  0  0  0  0  0  0  0  0  0  0  0
   19.6249   -4.4377  -16.3769 C   0  0  0  0  0  0  0  0  0  0  0  0
   20.0633   -3.1276  -16.3432 O   0  0  0  0  0  0  0  0  0  0  0  0
   19.0132   -4.8364  -15.3570 O   0  0  0  0  0  0  0  0  0  0  0  0
  1  2  1  0
  2  3  1  0
  3  5  1  0
  3  4  1  6
  5  6  2  0
  7  8  1  0
  7  5  1  0
  8  9  1  1
  9 10  1  0
 10 15  2  0
 11 12  2  0
 11 10  1  0
 12 13  1  0
 13 14  2  0
 15 14  1  0
 16  8  1  0
 17 16  2  0
 18 19  1  0
 19 20  2  0
 21 19  1  0
 22 21  1  6
 22 23  1  0
 23 16  1  0
 24 25  1  0
 24 22  1  0
 26 24  2  0
M  END
$$$$
