SFN.pdb
     RDKit          3D

 26 26  0  0  1  0  0  0  0  0999 V2000
   26.6111  -19.3546  -16.5389 O   0  0  0  0  0  0  0  0  0  0  0  0
   26.6440  -20.6462  -17.0389 C   0  0  0  0  0  0  0  0  0  0  0  0
   27.6873  -21.4517  -16.2545 C   0  0  2  0  0  0  0  0  0  0  0  0
   27.7041  -22.7721  -16.8452 N   0  0  0  0  0  0  0  0  0  0  0  0
   27.1749  -21.5593  -14.8742 C   0  0  0  0  0  0  0  0  0  0  0  0
   26.1962  -22.3028  -14.6395 O   0  0  0  0  0  0  0  0  0  0  0  0
   27.7246  -20.8631  -13.7641 N   0  0  0  0  0  0  0  0  0  0  0  0
   27.1317  -20.9444  -12.4451 C   0  0  1  0  0  0  0  0  0  0  0  0
   28.0538  -20.4339  -11.3761 C   0  0  0  0  0  0  0  0  0  0  0  0
   27.4627  -20.3453  -10.0516 C   0  0  0  0  0  0  0  0  0  0  0  0
   26.2193  -19.7840   -9.8772 C   0  0  0  0  0  0  0  0  0  0  0  0
   25.6410  -19.6930   -8.6046 C   0  0  0  0  0  0  0  0  0  0  0  0
   26.3419  -20.1772   -7.5275 C   0  0  0  0  0  0  0  0  0  0  0  0
   27.5732  -20.7373   -7.6703 C   0  0  0  0  0  0  0  0  0  0  0  0
   28.1211  -20.8138   -8.9438 C   0  0  0  0  0  0  0  0  0  0  0  0
   25.7921  -20.3306  -12.4535 C   0  0  0  0  0  0  0  0  0  0  0  0
   25.6293  -19.1877  -13.0106 O   0  0  0  0  0  0  0  0  0  0  0  0
   20.7248  -19.8246  -13.0242 N   0  0  0  0  0  0  0  0  0  0  0  0
   21.4374  -20.8053  -13.7950 C   0  0  0  0  0  0  0  0  0  0  0  0
   20.9036  -21.3582  -14.7815 O   0  0  0  0  0  0  0  0  0  0  0  0
   22.7955  -21.1319  -13.3906 C   0  0  0  0  0  0  0  0  0  0  0  0
   23.2890  -20.3505  -12.1659 C   0  0  2  0  0  0  0  0  0  0  0  0
   24.6314  -20.9131  -11.8832 N   0  0  0  0  0  0  0  0  0  0  0  0
   22.4348  -20.7391  -11.0290 C   0  0  0  0  0  0  0  0  0  0  0  0
   21.1242  -20.3350  -10.8600 O   0  0  0  0  0  0  0  0  0  0  0  0
   22.8967  -21.4867  -10.1339 O   0  0  0  0  0  0  0  0  0  0  0  0
  1  2  1  0
  2  3  1  0
  3  5  1  0
  3  4  1  6
  5  6  2  0
  7  8  1  0
  7  5  1  0
  8  9  1  1
  9 10  1  0
 10 15  2  0
 11 12  2  0
 11 10  1  0
 12 13  1  0
 13 14  2  0
 15 14  1  0
 16  8  1  0
 17 16  2  0
 18 19  1  0
 19 20  2  0
 21 19  1  0
 22 21  1  6
 22 23  1  0
 23 16  1  0
 24 25  1  0
 24 22  1  0
 26 24  2  0
M  END
$$$$
