SFN.pdb
     RDKit          3D

 26 26  0  0  1  0  0  0  0  0999 V2000
   26.4948  -24.1892  -19.0697 O   0  0  0  0  0  0  0  0  0  0  0  0
   26.0562  -23.4261  -17.9999 C   0  0  0  0  0  0  0  0  0  0  0  0
   26.8969  -23.7781  -16.7662 C   0  0  2  0  0  0  0  0  0  0  0  0
   27.1034  -25.2091  -16.8144 N   0  0  0  0  0  0  0  0  0  0  0  0
   26.0605  -23.4618  -15.5916 C   0  0  0  0  0  0  0  0  0  0  0  0
   25.3311  -24.3519  -15.1003 O   0  0  0  0  0  0  0  0  0  0  0  0
   26.0211  -22.1887  -14.9615 N   0  0  0  0  0  0  0  0  0  0  0  0
   25.1567  -21.9261  -13.8294 C   0  0  1  0  0  0  0  0  0  0  0  0
   25.6642  -20.7988  -12.9775 C   0  0  0  0  0  0  0  0  0  0  0  0
   24.9229  -20.5827  -11.7466 C   0  0  0  0  0  0  0  0  0  0  0  0
   25.4342  -21.0004  -10.5402 C   0  0  0  0  0  0  0  0  0  0  0  0
   24.7272  -20.7977   -9.3480 C   0  0  0  0  0  0  0  0  0  0  0  0
   23.5069  -20.1705   -9.4056 C   0  0  0  0  0  0  0  0  0  0  0  0
   22.9768  -19.7468  -10.5844 C   0  0  0  0  0  0  0  0  0  0  0  0
   23.7004  -19.9615  -11.7498 C   0  0  0  0  0  0  0  0  0  0  0  0
   23.7612  -21.7829  -14.2804 C   0  0  0  0  0  0  0  0  0  0  0  0
   23.5039  -21.0525  -15.3018 O   0  0  0  0  0  0  0  0  0  0  0  0
   18.6043  -24.2402  -15.0872 N   0  0  0  0  0  0  0  0  0  0  0  0
   19.0786  -23.4124  -14.0132 C   0  0  0  0  0  0  0  0  0  0  0  0
   18.2919  -22.6867  -13.3665 O   0  0  0  0  0  0  0  0  0  0  0  0
   20.4993  -23.4469  -13.7050 C   0  0  0  0  0  0  0  0  0  0  0  0
   21.2834  -22.2370  -14.2298 C   0  0  2  0  0  0  0  0  0  0  0  0
   22.6442  -22.4035  -13.6649 N   0  0  0  0  0  0  0  0  0  0  0  0
   20.7165  -21.0386  -13.5850 C   0  0  0  0  0  0  0  0  0  0  0  0
   20.9963  -20.6385  -12.2923 O   0  0  0  0  0  0  0  0  0  0  0  0
   19.9212  -20.3088  -14.2238 O   0  0  0  0  0  0  0  0  0  0  0  0
  1  2  1  0
  2  3  1  0
  3  5  1  0
  3  4  1  6
  5  6  2  0
  7  8  1  0
  7  5  1  0
  8  9  1  6
  9 10  1  0
 10 15  2  0
 11 12  2  0
 11 10  1  0
 12 13  1  0
 13 14  2  0
 15 14  1  0
 16  8  1  0
 17 16  2  0
 18 19  1  0
 19 20  2  0
 21 19  1  0
 22 21  1  1
 22 23  1  0
 23 16  1  0
 24 25  1  0
 24 22  1  0
 26 24  2  0
M  END
$$$$
