SFN.pdb
     RDKit          3D

 26 26  0  0  1  0  0  0  0  0999 V2000
   27.9336  -18.7708  -16.4647 O   0  0  0  0  0  0  0  0  0  0  0  0
   27.3438  -19.9982  -16.2102 C   0  0  0  0  0  0  0  0  0  0  0  0
   28.1447  -20.7119  -15.1140 C   0  0  2  0  0  0  0  0  0  0  0  0
   28.5718  -21.9717  -15.6827 N   0  0  0  0  0  0  0  0  0  0  0  0
   27.1934  -20.9874  -14.0193 C   0  0  0  0  0  0  0  0  0  0  0  0
   26.6294  -22.1029  -13.9629 O   0  0  0  0  0  0  0  0  0  0  0  0
   26.8621  -20.0556  -12.9988 N   0  0  0  0  0  0  0  0  0  0  0  0
   25.8854  -20.3637  -11.9747 C   0  0  1  0  0  0  0  0  0  0  0  0
   26.0693  -19.5236  -10.7441 C   0  0  0  0  0  0  0  0  0  0  0  0
   26.9856  -20.0749   -9.7603 C   0  0  0  0  0  0  0  0  0  0  0  0
   28.2097  -20.5696  -10.1453 C   0  0  0  0  0  0  0  0  0  0  0  0
   29.0999  -21.1041   -9.2049 C   0  0  0  0  0  0  0  0  0  0  0  0
   28.7263  -21.1254   -7.8836 C   0  0  0  0  0  0  0  0  0  0  0  0
   27.5221  -20.6431   -7.4743 C   0  0  0  0  0  0  0  0  0  0  0  0
   26.6605  -20.1194   -8.4289 C   0  0  0  0  0  0  0  0  0  0  0  0
   24.5273  -20.3377  -12.5459 C   0  0  0  0  0  0  0  0  0  0  0  0
   24.2467  -19.4818  -13.4579 O   0  0  0  0  0  0  0  0  0  0  0  0
   19.7427  -21.6670  -14.0675 N   0  0  0  0  0  0  0  0  0  0  0  0
   20.6668  -22.7668  -14.0510 C   0  0  0  0  0  0  0  0  0  0  0  0
   20.3711  -23.8617  -14.5781 O   0  0  0  0  0  0  0  0  0  0  0  0
   21.9528  -22.5644  -13.4031 C   0  0  0  0  0  0  0  0  0  0  0  0
   22.1612  -21.1467  -12.8546 C   0  0  2  0  0  0  0  0  0  0  0  0
   23.4721  -21.2051  -12.1642 N   0  0  0  0  0  0  0  0  0  0  0  0
   21.1526  -20.9358  -11.8003 C   0  0  0  0  0  0  0  0  0  0  0  0
   19.8529  -20.5265  -12.0304 O   0  0  0  0  0  0  0  0  0  0  0  0
   21.4604  -21.1311  -10.6002 O   0  0  0  0  0  0  0  0  0  0  0  0
  1  2  1  0
  2  3  1  0
  3  5  1  0
  3  4  1  6
  5  6  2  0
  7  8  1  0
  7  5  1  0
  8  9  1  1
  9 10  1  0
 10 15  2  0
 11 12  2  0
 11 10  1  0
 12 13  1  0
 13 14  2  0
 15 14  1  0
 16  8  1  0
 17 16  2  0
 18 19  1  0
 19 20  2  0
 21 19  1  0
 22 21  1  1
 22 23  1  0
 23 16  1  0
 24 25  1  0
 24 22  1  0
 26 24  2  0
M  END
$$$$
