SFN.pdb
     RDKit          3D

 26 26  0  0  1  0  0  0  0  0999 V2000
   28.2524  -18.9700  -14.4957 O   0  0  0  0  0  0  0  0  0  0  0  0
   27.5230  -19.8922  -13.7632 C   0  0  0  0  0  0  0  0  0  0  0  0
   28.4766  -20.9776  -13.2483 C   0  0  2  0  0  0  0  0  0  0  0  0
   28.1929  -22.1646  -14.0251 N   0  0  0  0  0  0  0  0  0  0  0  0
   28.0960  -21.2309  -11.8446 C   0  0  0  0  0  0  0  0  0  0  0  0
   27.1183  -21.9718  -11.5982 O   0  0  0  0  0  0  0  0  0  0  0  0
   28.7750  -20.6812  -10.7238 N   0  0  0  0  0  0  0  0  0  0  0  0
   28.2254  -20.7619   -9.3862 C   0  0  1  0  0  0  0  0  0  0  0  0
   29.1731  -20.2301   -8.3504 C   0  0  0  0  0  0  0  0  0  0  0  0
   28.6135  -20.1120   -7.0146 C   0  0  0  0  0  0  0  0  0  0  0  0
   28.6942  -21.1600   -6.1277 C   0  0  0  0  0  0  0  0  0  0  0  0
   28.1571  -21.0567   -4.8381 C   0  0  0  0  0  0  0  0  0  0  0  0
   27.5448  -19.8831   -4.4728 C   0  0  0  0  0  0  0  0  0  0  0  0
   27.4504  -18.8304   -5.3290 C   0  0  0  0  0  0  0  0  0  0  0  0
   27.9919  -18.9619   -6.6007 C   0  0  0  0  0  0  0  0  0  0  0  0
   26.8771  -20.1682   -9.3561 C   0  0  0  0  0  0  0  0  0  0  0  0
   26.6655  -19.0611   -9.9663 O   0  0  0  0  0  0  0  0  0  0  0  0
   21.8242  -19.7995   -9.8598 N   0  0  0  0  0  0  0  0  0  0  0  0
   22.7107  -20.4197  -10.8050 C   0  0  0  0  0  0  0  0  0  0  0  0
   22.3154  -20.7242  -11.9517 O   0  0  0  0  0  0  0  0  0  0  0  0
   24.0782  -20.6802  -10.3845 C   0  0  0  0  0  0  0  0  0  0  0  0
   24.3906  -20.2246   -8.9531 C   0  0  2  0  0  0  0  0  0  0  0  0
   25.7585  -20.7336   -8.6921 N   0  0  0  0  0  0  0  0  0  0  0  0
   23.4962  -20.9750   -8.0530 C   0  0  0  0  0  0  0  0  0  0  0  0
   22.1527  -20.7027   -7.8783 O   0  0  0  0  0  0  0  0  0  0  0  0
   23.9521  -21.9327   -7.3835 O   0  0  0  0  0  0  0  0  0  0  0  0
  1  2  1  0
  2  3  1  0
  3  5  1  0
  3  4  1  6
  5  6  2  0
  7  8  1  0
  7  5  1  0
  8  9  1  1
  9 10  1  0
 10 15  2  0
 11 12  2  0
 11 10  1  0
 12 13  1  0
 13 14  2  0
 15 14  1  0
 16  8  1  0
 17 16  2  0
 18 19  1  0
 19 20  2  0
 21 19  1  0
 22 21  1  6
 22 23  1  0
 23 16  1  0
 24 25  1  0
 24 22  1  0
 26 24  2  0
M  END
$$$$
