MTT.pdb
     RDKit          3D

 23 22  0  0  1  0  0  0  0  0999 V2000
    7.7823  -10.8656   27.1155 C   0  0  0  0  0  0  0  0  0  0  0  0
    6.0446  -11.2027   26.9740 S   0  0  0  0  0  0  0  0  0  0  0  0
    5.6371  -12.7910   26.2748 C   0  0  0  0  0  0  0  0  0  0  0  0
    6.7322  -13.4624   25.5378 C   0  0  0  0  0  0  0  0  0  0  0  0
    6.3073  -14.7449   24.8874 C   0  0  2  0  0  0  0  0  0  0  0  0
    5.2364  -15.3300   25.6690 N   0  0  0  0  0  0  0  0  0  0  0  0
    7.5178  -15.6480   24.9154 C   0  0  0  0  0  0  0  0  0  0  0  0
    7.7276  -16.3839   25.9120 O   0  0  0  0  0  0  0  0  0  0  0  0
    8.7579  -16.8963   21.4231 C   0  0  0  0  0  0  0  0  0  0  0  0
    9.8907  -16.7958   22.3833 C   0  0  1  0  0  0  0  0  0  0  0  0
   10.6016  -15.6229   22.0247 O   0  0  0  0  0  0  0  0  0  0  0  0
    9.5134  -16.6459   23.8305 C   0  0  2  0  0  0  0  0  0  0  0  0
    8.4078  -15.6710   23.8387 N   0  0  0  0  0  0  0  0  0  0  0  0
   10.5493  -16.1233   24.7088 C   0  0  0  0  0  0  0  0  0  0  0  0
   11.2031  -15.1010   24.4011 O   0  0  0  0  0  0  0  0  0  0  0  0
   10.5322  -14.3772   27.7418 C   0  0  0  0  0  0  0  0  0  0  0  0
   11.2136  -15.6713   28.0742 C   0  0  1  0  0  0  0  0  0  0  0  0
   10.2900  -16.5619   28.6023 O   0  0  0  0  0  0  0  0  0  0  0  0
   11.8778  -16.2911   26.8466 C   0  0  2  0  0  0  0  0  0  0  0  0
   10.8448  -16.7579   25.9378 N   0  0  0  0  0  0  0  0  0  0  0  0
   12.7637  -17.4081   27.2594 C   0  0  0  0  0  0  0  0  0  0  0  0
   13.9236  -17.1803   27.9811 O   0  0  0  0  0  0  0  0  0  0  0  0
   12.4784  -18.5951   26.9609 O   0  0  0  0  0  0  0  0  0  0  0  0
  2  3  1  0
  2  1  1  0
  3  4  1  0
  4  5  1  0
  5  7  1  0
  5  6  1  1
  7  8  2  0
 10  9  1  6
 10 12  1  0
 11 10  1  0
 12 14  1  0
 13  7  1  0
 12 13  1  6
 14 15  2  0
 17 16  1  6
 17 18  1  0
 17 19  1  0
 19 21  1  0
 19 20  1  6
 20 14  1  0
 21 23  2  0
 21 22  1  0
M  END
$$$$
