MTT.pdb
     RDKit          3D

 23 22  0  0  1  0  0  0  0  0999 V2000
    8.2557  -11.2075   19.7626 C   0  0  0  0  0  0  0  0  0  0  0  0
    8.7142  -12.6462   18.8282 S   0  0  0  0  0  0  0  0  0  0  0  0
    7.4150  -13.8453   18.6001 C   0  0  0  0  0  0  0  0  0  0  0  0
    7.0181  -14.5933   19.8150 C   0  0  0  0  0  0  0  0  0  0  0  0
    7.9023  -15.7704   20.0995 C   0  0  2  0  0  0  0  0  0  0  0  0
    7.4359  -16.9008   19.3218 N   0  0  0  0  0  0  0  0  0  0  0  0
    7.7485  -16.0613   21.5738 C   0  0  0  0  0  0  0  0  0  0  0  0
    6.6230  -16.3745   22.0365 O   0  0  0  0  0  0  0  0  0  0  0  0
    9.3983  -18.7368   23.0666 C   0  0  0  0  0  0  0  0  0  0  0  0
    9.6536  -17.5831   23.9717 C   0  0  1  0  0  0  0  0  0  0  0  0
   10.9466  -17.1065   23.6390 O   0  0  0  0  0  0  0  0  0  0  0  0
    8.7150  -16.4177   23.8307 C   0  0  2  0  0  0  0  0  0  0  0  0
    8.8509  -15.9842   22.4284 N   0  0  0  0  0  0  0  0  0  0  0  0
    9.0048  -15.2609   24.6646 C   0  0  0  0  0  0  0  0  0  0  0  0
    9.9283  -14.4678   24.3722 O   0  0  0  0  0  0  0  0  0  0  0  0
    6.7168  -12.3906   25.8597 C   0  0  0  0  0  0  0  0  0  0  0  0
    7.2150  -13.1699   27.0403 C   0  0  1  0  0  0  0  0  0  0  0  0
    6.2552  -14.0939   27.4272 O   0  0  0  0  0  0  0  0  0  0  0  0
    8.5240  -13.8921   26.7282 C   0  0  2  0  0  0  0  0  0  0  0  0
    8.2476  -15.0005   25.8305 N   0  0  0  0  0  0  0  0  0  0  0  0
    9.1497  -14.3728   27.9854 C   0  0  0  0  0  0  0  0  0  0  0  0
    9.6285  -13.4879   28.9373 O   0  0  0  0  0  0  0  0  0  0  0  0
    9.2598  -15.6033   28.2158 O   0  0  0  0  0  0  0  0  0  0  0  0
  2  3  1  0
  2  1  1  0
  3  4  1  0
  4  5  1  0
  5  7  1  0
  5  6  1  6
  7  8  2  0
 10  9  1  6
 10 12  1  0
 11 10  1  0
 12 14  1  0
 13  7  1  0
 12 13  1  6
 14 15  2  0
 17 16  1  6
 17 18  1  0
 17 19  1  0
 19 21  1  0
 19 20  1  6
 20 14  1  0
 21 23  2  0
 21 22  1  0
M  END
$$$$
