MTT.pdb
     RDKit          3D

 23 22  0  0  1  0  0  0  0  0999 V2000
    7.9846  -11.3892   20.3285 C   0  0  0  0  0  0  0  0  0  0  0  0
    7.9024  -12.4172   18.8829 S   0  0  0  0  0  0  0  0  0  0  0  0
    8.5132  -14.0777   19.1003 C   0  0  0  0  0  0  0  0  0  0  0  0
    8.5028  -14.5832   20.4922 C   0  0  0  0  0  0  0  0  0  0  0  0
    8.9820  -15.9990   20.6104 C   0  0  2  0  0  0  0  0  0  0  0  0
    8.1452  -16.8437   19.7821 N   0  0  0  0  0  0  0  0  0  0  0  0
    8.8156  -16.3760   22.0636 C   0  0  0  0  0  0  0  0  0  0  0  0
    7.6654  -16.5554   22.5366 O   0  0  0  0  0  0  0  0  0  0  0  0
    9.9461  -19.3600   23.3994 C   0  0  0  0  0  0  0  0  0  0  0  0
   10.4511  -18.3199   24.3366 C   0  0  1  0  0  0  0  0  0  0  0  0
   11.8018  -18.0907   23.9722 O   0  0  0  0  0  0  0  0  0  0  0  0
    9.7562  -16.9884   24.2761 C   0  0  2  0  0  0  0  0  0  0  0  0
    9.9337  -16.5269   22.8874 N   0  0  0  0  0  0  0  0  0  0  0  0
   10.2921  -15.9494   25.1426 C   0  0  0  0  0  0  0  0  0  0  0  0
   11.2826  -15.2660   24.7969 O   0  0  0  0  0  0  0  0  0  0  0  0
    8.8155  -12.7946   26.5542 C   0  0  0  0  0  0  0  0  0  0  0  0
    9.1306  -13.7143   27.6964 C   0  0  1  0  0  0  0  0  0  0  0  0
    7.9872  -14.4085   28.0646 O   0  0  0  0  0  0  0  0  0  0  0  0
   10.2361  -14.7042   27.3356 C   0  0  2  0  0  0  0  0  0  0  0  0
    9.7056  -15.6825   26.4017 N   0  0  0  0  0  0  0  0  0  0  0  0
   10.7442  -15.3659   28.5632 C   0  0  0  0  0  0  0  0  0  0  0  0
   11.4081  -14.6510   29.5463 O   0  0  0  0  0  0  0  0  0  0  0  0
   10.5819  -16.5996   28.7392 O   0  0  0  0  0  0  0  0  0  0  0  0
  2  3  1  0
  2  1  1  0
  3  4  1  0
  4  5  1  0
  5  7  1  0
  5  6  1  6
  7  8  2  0
 10  9  1  6
 10 12  1  0
 11 10  1  0
 12 14  1  0
 13  7  1  0
 12 13  1  6
 14 15  2  0
 17 16  1  6
 17 18  1  0
 17 19  1  0
 19 21  1  0
 19 20  1  6
 20 14  1  0
 21 23  2  0
 21 22  1  0
M  END
$$$$
