MTT.pdb
     RDKit          3D

 23 22  0  0  1  0  0  0  0  0999 V2000
    6.9433  -11.5335   27.1102 C   0  0  0  0  0  0  0  0  0  0  0  0
    5.9495  -11.3973   25.6450 S   0  0  0  0  0  0  0  0  0  0  0  0
    6.5564  -12.3006   24.2331 C   0  0  0  0  0  0  0  0  0  0  0  0
    7.2511  -13.5717   24.5407 C   0  0  0  0  0  0  0  0  0  0  0  0
    7.7481  -14.2843   23.3186 C   0  0  2  0  0  0  0  0  0  0  0  0
    6.6161  -14.5937   22.4684 N   0  0  0  0  0  0  0  0  0  0  0  0
    8.3863  -15.5618   23.8111 C   0  0  0  0  0  0  0  0  0  0  0  0
    7.6737  -16.4617   24.3222 O   0  0  0  0  0  0  0  0  0  0  0  0
   10.4085  -17.8764   21.8861 C   0  0  0  0  0  0  0  0  0  0  0  0
   11.1745  -17.5564   23.1215 C   0  0  1  0  0  0  0  0  0  0  0  0
   12.1271  -16.5762   22.7455 O   0  0  0  0  0  0  0  0  0  0  0  0
   10.3786  -16.9721   24.2547 C   0  0  2  0  0  0  0  0  0  0  0  0
    9.7663  -15.7503   23.7023 N   0  0  0  0  0  0  0  0  0  0  0  0
   11.1394  -16.5741   25.4297 C   0  0  0  0  0  0  0  0  0  0  0  0
   11.9857  -15.6533   25.3709 O   0  0  0  0  0  0  0  0  0  0  0  0
   10.4849  -14.7191   28.2550 C   0  0  0  0  0  0  0  0  0  0  0  0
   10.7891  -16.0794   28.8088 C   0  0  1  0  0  0  0  0  0  0  0  0
    9.6055  -16.7714   29.0211 O   0  0  0  0  0  0  0  0  0  0  0  0
   11.6898  -16.8817   27.8721 C   0  0  2  0  0  0  0  0  0  0  0  0
   10.9413  -17.2182   26.6732 N   0  0  0  0  0  0  0  0  0  0  0  0
   12.1700  -18.1075   28.5576 C   0  0  0  0  0  0  0  0  0  0  0  0
   13.0413  -18.0390   29.6321 O   0  0  0  0  0  0  0  0  0  0  0  0
   11.7936  -19.2438   28.1750 O   0  0  0  0  0  0  0  0  0  0  0  0
  2  3  1  0
  2  1  1  0
  3  4  1  0
  4  5  1  0
  5  7  1  0
  5  6  1  6
  7  8  2  0
 10  9  1  6
 10 12  1  0
 11 10  1  0
 12 14  1  0
 13  7  1  0
 12 13  1  6
 14 15  2  0
 17 16  1  6
 17 18  1  0
 17 19  1  0
 19 21  1  0
 19 20  1  6
 20 14  1  0
 21 23  2  0
 21 22  1  0
M  END
$$$$
