MTT.pdb
     RDKit          3D

 23 22  0  0  1  0  0  0  0  0999 V2000
    7.8709  -12.2161   27.1110 C   0  0  0  0  0  0  0  0  0  0  0  0
    6.3951  -12.5538   26.1831 S   0  0  0  0  0  0  0  0  0  0  0  0
    6.6091  -13.6529   24.7960 C   0  0  0  0  0  0  0  0  0  0  0  0
    7.5298  -13.1737   23.7397 C   0  0  0  0  0  0  0  0  0  0  0  0
    7.6328  -14.1125   22.5751 C   0  0  2  0  0  0  0  0  0  0  0  0
    6.3269  -14.2339   21.9590 N   0  0  0  0  0  0  0  0  0  0  0  0
    8.0571  -15.4439   23.1488 C   0  0  0  0  0  0  0  0  0  0  0  0
    7.1887  -16.2947   23.4663 O   0  0  0  0  0  0  0  0  0  0  0  0
   12.1860  -16.5544   22.9641 C   0  0  0  0  0  0  0  0  0  0  0  0
   10.9838  -17.4123   22.7795 C   0  0  1  0  0  0  0  0  0  0  0  0
   11.3987  -18.7336   23.0818 O   0  0  0  0  0  0  0  0  0  0  0  0
    9.8174  -17.1102   23.6780 C   0  0  2  0  0  0  0  0  0  0  0  0
    9.4111  -15.7368   23.3292 N   0  0  0  0  0  0  0  0  0  0  0  0
   10.0928  -17.1235   25.1068 C   0  0  0  0  0  0  0  0  0  0  0  0
   10.5520  -16.1133   25.6865 O   0  0  0  0  0  0  0  0  0  0  0  0
    7.6748  -18.4953   27.9215 C   0  0  0  0  0  0  0  0  0  0  0  0
    9.0037  -19.1893   27.9656 C   0  0  1  0  0  0  0  0  0  0  0  0
    8.9101  -20.4162   27.3246 O   0  0  0  0  0  0  0  0  0  0  0  0
   10.0998  -18.3519   27.3101 C   0  0  2  0  0  0  0  0  0  0  0  0
    9.8471  -18.2814   25.8811 N   0  0  0  0  0  0  0  0  0  0  0  0
   11.4289  -18.9534   27.5834 C   0  0  0  0  0  0  0  0  0  0  0  0
   11.9436  -19.0131   28.8678 O   0  0  0  0  0  0  0  0  0  0  0  0
   12.1222  -19.4258   26.6477 O   0  0  0  0  0  0  0  0  0  0  0  0
  2  3  1  0
  2  1  1  0
  3  4  1  0
  4  5  1  0
  5  7  1  0
  5  6  1  1
  7  8  2  0
 10  9  1  1
 10 12  1  0
 11 10  1  0
 12 14  1  0
 13  7  1  0
 12 13  1  6
 14 15  2  0
 17 16  1  6
 17 18  1  0
 17 19  1  0
 19 21  1  0
 19 20  1  6
 20 14  1  0
 21 23  2  0
 21 22  1  0
M  END
$$$$
