MTT.pdb
     RDKit          3D

 23 22  0  0  1  0  0  0  0  0999 V2000
    7.7473  -11.3612   19.5666 C   0  0  0  0  0  0  0  0  0  0  0  0
    8.3635  -12.3335   18.2146 S   0  0  0  0  0  0  0  0  0  0  0  0
    8.6802  -14.0455   18.5971 C   0  0  0  0  0  0  0  0  0  0  0  0
    8.2998  -14.4740   19.9627 C   0  0  0  0  0  0  0  0  0  0  0  0
    8.5343  -15.9341   20.2107 C   0  0  2  0  0  0  0  0  0  0  0  0
    7.7175  -16.6990   19.2901 N   0  0  0  0  0  0  0  0  0  0  0  0
    8.0893  -16.1928   21.6308 C   0  0  0  0  0  0  0  0  0  0  0  0
    6.8791  -16.4257   21.8756 O   0  0  0  0  0  0  0  0  0  0  0  0
    8.9815  -18.9165   23.4564 C   0  0  0  0  0  0  0  0  0  0  0  0
    9.2405  -17.7863   24.3897 C   0  0  1  0  0  0  0  0  0  0  0  0
   10.6374  -17.5509   24.3372 O   0  0  0  0  0  0  0  0  0  0  0  0
    8.5706  -16.4852   24.0470 C   0  0  2  0  0  0  0  0  0  0  0  0
    9.0157  -16.1749   22.6764 N   0  0  0  0  0  0  0  0  0  0  0  0
    8.9270  -15.3458   24.8792 C   0  0  0  0  0  0  0  0  0  0  0  0
    9.9645  -14.6815   24.6565 O   0  0  0  0  0  0  0  0  0  0  0  0
    6.7121  -12.2786   25.9148 C   0  0  0  0  0  0  0  0  0  0  0  0
    7.1546  -13.0510   27.1220 C   0  0  1  0  0  0  0  0  0  0  0  0
    6.1433  -13.9134   27.5198 O   0  0  0  0  0  0  0  0  0  0  0  0
    8.4278  -13.8480   26.8466 C   0  0  2  0  0  0  0  0  0  0  0  0
    8.1074  -14.9570   25.9643 N   0  0  0  0  0  0  0  0  0  0  0  0
    9.0054  -14.3374   28.1233 C   0  0  0  0  0  0  0  0  0  0  0  0
    9.4655  -13.4595   29.0906 O   0  0  0  0  0  0  0  0  0  0  0  0
    9.0904  -15.5694   28.3567 O   0  0  0  0  0  0  0  0  0  0  0  0
  2  3  1  0
  2  1  1  0
  3  4  1  0
  4  5  1  0
  5  7  1  0
  5  6  1  6
  7  8  2  0
 10  9  1  6
 10 12  1  0
 11 10  1  0
 12 14  1  0
 13  7  1  0
 12 13  1  6
 14 15  2  0
 17 16  1  6
 17 18  1  0
 17 19  1  0
 19 21  1  0
 19 20  1  6
 20 14  1  0
 21 23  2  0
 21 22  1  0
M  END
$$$$
