MTT.pdb
     RDKit          3D

 23 22  0  0  1  0  0  0  0  0999 V2000
    8.4522  -11.3446   20.3938 C   0  0  0  0  0  0  0  0  0  0  0  0
    8.1259  -12.3654   18.9781 S   0  0  0  0  0  0  0  0  0  0  0  0
    8.6864  -14.0520   19.1166 C   0  0  0  0  0  0  0  0  0  0  0  0
    8.6316  -14.6315   20.4783 C   0  0  0  0  0  0  0  0  0  0  0  0
    9.2823  -15.9790   20.5736 C   0  0  2  0  0  0  0  0  0  0  0  0
    8.6112  -16.8848   19.6630 N   0  0  0  0  0  0  0  0  0  0  0  0
    9.0819  -16.4393   21.9983 C   0  0  0  0  0  0  0  0  0  0  0  0
    7.9583  -16.8638   22.3675 O   0  0  0  0  0  0  0  0  0  0  0  0
   10.3059  -19.2235   23.2506 C   0  0  0  0  0  0  0  0  0  0  0  0
   10.6983  -18.2321   24.2890 C   0  0  1  0  0  0  0  0  0  0  0  0
   12.0579  -17.9207   24.0354 O   0  0  0  0  0  0  0  0  0  0  0  0
    9.9471  -16.9303   24.2711 C   0  0  2  0  0  0  0  0  0  0  0  0
   10.1391  -16.3964   22.9105 N   0  0  0  0  0  0  0  0  0  0  0  0
   10.4146  -15.9114   25.1989 C   0  0  0  0  0  0  0  0  0  0  0  0
   11.3462  -15.1339   24.8903 O   0  0  0  0  0  0  0  0  0  0  0  0
    8.6618  -12.9960   26.7267 C   0  0  0  0  0  0  0  0  0  0  0  0
    9.0671  -13.9149   27.8407 C   0  0  1  0  0  0  0  0  0  0  0  0
    7.9966  -14.7259   28.1884 O   0  0  0  0  0  0  0  0  0  0  0  0
   10.2611  -14.7832   27.4499 C   0  0  2  0  0  0  0  0  0  0  0  0
    9.8263  -15.7713   26.4775 N   0  0  0  0  0  0  0  0  0  0  0  0
   10.8260  -15.4400   28.6551 C   0  0  0  0  0  0  0  0  0  0  0  0
   11.4291  -14.7044   29.6618 O   0  0  0  0  0  0  0  0  0  0  0  0
   10.7692  -16.6882   28.7898 O   0  0  0  0  0  0  0  0  0  0  0  0
  2  3  1  0
  2  1  1  0
  3  4  1  0
  4  5  1  0
  5  7  1  0
  5  6  1  6
  7  8  2  0
 10  9  1  6
 10 12  1  0
 11 10  1  0
 12 14  1  0
 13  7  1  0
 12 13  1  6
 14 15  2  0
 17 16  1  6
 17 18  1  0
 17 19  1  0
 19 21  1  0
 19 20  1  6
 20 14  1  0
 21 23  2  0
 21 22  1  0
M  END
$$$$
