MTT.pdb
     RDKit          3D

 23 22  0  0  1  0  0  0  0  0999 V2000
    7.1753  -11.4842   26.2946 C   0  0  0  0  0  0  0  0  0  0  0  0
    5.9133  -11.9594   25.1394 S   0  0  0  0  0  0  0  0  0  0  0  0
    6.3200  -13.3543   24.1067 C   0  0  0  0  0  0  0  0  0  0  0  0
    7.4232  -13.1338   23.1437 C   0  0  0  0  0  0  0  0  0  0  0  0
    7.6770  -14.3147   22.2553 C   0  0  2  0  0  0  0  0  0  0  0  0
    6.4208  -14.7305   21.6645 N   0  0  0  0  0  0  0  0  0  0  0  0
    8.2094  -15.4060   23.1538 C   0  0  0  0  0  0  0  0  0  0  0  0
    7.4164  -16.0823   23.8557 O   0  0  0  0  0  0  0  0  0  0  0  0
   10.4085  -17.9950   21.7996 C   0  0  0  0  0  0  0  0  0  0  0  0
   10.9924  -17.5603   23.0977 C   0  0  1  0  0  0  0  0  0  0  0  0
   12.0531  -16.6783   22.7712 O   0  0  0  0  0  0  0  0  0  0  0  0
   10.0696  -16.8050   24.0127 C   0  0  2  0  0  0  0  0  0  0  0  0
    9.5802  -15.6694   23.2103 N   0  0  0  0  0  0  0  0  0  0  0  0
   10.6760  -16.2490   25.2130 C   0  0  0  0  0  0  0  0  0  0  0  0
   11.3197  -15.1758   25.1750 O   0  0  0  0  0  0  0  0  0  0  0  0
   10.6296  -15.1551   29.7885 C   0  0  0  0  0  0  0  0  0  0  0  0
   10.0630  -15.7747   28.5457 C   0  0  1  0  0  0  0  0  0  0  0  0
    9.3920  -14.8098   27.8084 O   0  0  0  0  0  0  0  0  0  0  0  0
   11.1524  -16.4106   27.6849 C   0  0  2  0  0  0  0  0  0  0  0  0
   10.5529  -16.9079   26.4585 N   0  0  0  0  0  0  0  0  0  0  0  0
   11.8136  -17.5084   28.4337 C   0  0  0  0  0  0  0  0  0  0  0  0
   12.7532  -17.2473   29.4172 O   0  0  0  0  0  0  0  0  0  0  0  0
   11.5332  -18.7089   28.1898 O   0  0  0  0  0  0  0  0  0  0  0  0
  2  3  1  0
  2  1  1  0
  3  4  1  0
  4  5  1  0
  5  7  1  0
  5  6  1  1
  7  8  2  0
 10  9  1  6
 10 12  1  0
 11 10  1  0
 12 14  1  0
 13  7  1  0
 12 13  1  6
 14 15  2  0
 17 16  1  1
 17 18  1  0
 17 19  1  0
 19 21  1  0
 19 20  1  6
 20 14  1  0
 21 23  2  0
 21 22  1  0
M  END
$$$$
