MTT.pdb
     RDKit          3D

 23 22  0  0  1  0  0  0  0  0999 V2000
    8.2347  -11.5180   20.9065 C   0  0  0  0  0  0  0  0  0  0  0  0
    7.9581  -12.4447   19.4173 S   0  0  0  0  0  0  0  0  0  0  0  0
    7.8457  -14.2103   19.6353 C   0  0  0  0  0  0  0  0  0  0  0  0
    9.1361  -14.9125   19.8223 C   0  0  0  0  0  0  0  0  0  0  0  0
    8.9754  -16.3660   20.1534 C   0  0  2  0  0  0  0  0  0  0  0  0
    7.9948  -16.9417   19.2551 N   0  0  0  0  0  0  0  0  0  0  0  0
    8.4643  -16.4163   21.5740 C   0  0  0  0  0  0  0  0  0  0  0  0
    7.2328  -16.3127   21.8008 O   0  0  0  0  0  0  0  0  0  0  0  0
    8.7415  -19.2057   23.4905 C   0  0  0  0  0  0  0  0  0  0  0  0
    9.1848  -18.1272   24.4154 C   0  0  1  0  0  0  0  0  0  0  0  0
   10.6005  -18.1943   24.4410 O   0  0  0  0  0  0  0  0  0  0  0  0
    8.8267  -16.7252   24.0088 C   0  0  2  0  0  0  0  0  0  0  0  0
    9.3530  -16.5776   22.6398 N   0  0  0  0  0  0  0  0  0  0  0  0
    9.4130  -15.6599   24.8082 C   0  0  0  0  0  0  0  0  0  0  0  0
   10.4668  -15.0870   24.4494 O   0  0  0  0  0  0  0  0  0  0  0  0
    7.6917  -12.4250   25.9669 C   0  0  0  0  0  0  0  0  0  0  0  0
    8.1457  -13.2092   27.1621 C   0  0  1  0  0  0  0  0  0  0  0  0
    7.0862  -13.9527   27.6614 O   0  0  0  0  0  0  0  0  0  0  0  0
    9.3068  -14.1400   26.8186 C   0  0  2  0  0  0  0  0  0  0  0  0
    8.8052  -15.2414   26.0148 N   0  0  0  0  0  0  0  0  0  0  0  0
    9.9411  -14.6397   28.0639 C   0  0  0  0  0  0  0  0  0  0  0  0
   10.5999  -13.7845   28.9316 O   0  0  0  0  0  0  0  0  0  0  0  0
    9.8941  -15.8599   28.3610 O   0  0  0  0  0  0  0  0  0  0  0  0
  2  3  1  0
  2  1  1  0
  3  4  1  0
  4  5  1  0
  5  7  1  0
  5  6  1  6
  7  8  2  0
 10  9  1  6
 10 12  1  0
 11 10  1  0
 12 14  1  0
 13  7  1  0
 12 13  1  6
 14 15  2  0
 17 16  1  6
 17 18  1  0
 17 19  1  0
 19 21  1  0
 19 20  1  1
 20 14  1  0
 21 23  2  0
 21 22  1  0
M  END
$$$$
