MTT.pdb
     RDKit          3D

 23 22  0  0  1  0  0  0  0  0999 V2000
    8.1084  -11.3794   20.3819 C   0  0  0  0  0  0  0  0  0  0  0  0
    7.8434  -12.3907   18.9466 S   0  0  0  0  0  0  0  0  0  0  0  0
    8.1124  -14.1358   19.1912 C   0  0  0  0  0  0  0  0  0  0  0  0
    8.1517  -14.5826   20.6025 C   0  0  0  0  0  0  0  0  0  0  0  0
    8.3875  -16.0561   20.7496 C   0  0  2  0  0  0  0  0  0  0  0  0
    7.3051  -16.7672   20.0994 N   0  0  0  0  0  0  0  0  0  0  0  0
    8.3687  -16.3355   22.2339 C   0  0  0  0  0  0  0  0  0  0  0  0
    7.2720  -16.4357   22.8388 O   0  0  0  0  0  0  0  0  0  0  0  0
    9.9902  -19.2556   23.5443 C   0  0  0  0  0  0  0  0  0  0  0  0
   10.3920  -18.1251   24.4252 C   0  0  1  0  0  0  0  0  0  0  0  0
   11.6850  -17.7362   23.9934 O   0  0  0  0  0  0  0  0  0  0  0  0
    9.5266  -16.8982   24.3547 C   0  0  2  0  0  0  0  0  0  0  0  0
    9.5647  -16.4837   22.9407 N   0  0  0  0  0  0  0  0  0  0  0  0
    9.9693  -15.7593   25.1450 C   0  0  0  0  0  0  0  0  0  0  0  0
   10.8670  -14.9925   24.7283 O   0  0  0  0  0  0  0  0  0  0  0  0
    8.2534  -12.6827   26.4092 C   0  0  0  0  0  0  0  0  0  0  0  0
    8.6618  -13.5037   27.5960 C   0  0  1  0  0  0  0  0  0  0  0  0
    7.5890  -14.2738   28.0213 O   0  0  0  0  0  0  0  0  0  0  0  0
    9.8470  -14.4113   27.2736 C   0  0  2  0  0  0  0  0  0  0  0  0
    9.3944  -15.4870   26.4083 N   0  0  0  0  0  0  0  0  0  0  0  0
   10.4283  -14.9506   28.5284 C   0  0  0  0  0  0  0  0  0  0  0  0
   11.0603  -14.1255   29.4438 O   0  0  0  0  0  0  0  0  0  0  0  0
   10.3593  -16.1778   28.7900 O   0  0  0  0  0  0  0  0  0  0  0  0
  2  3  1  0
  2  1  1  0
  3  4  1  0
  4  5  1  0
  5  7  1  0
  5  6  1  6
  7  8  2  0
 10  9  1  6
 10 12  1  0
 11 10  1  0
 12 14  1  0
 13  7  1  0
 12 13  1  6
 14 15  2  0
 17 16  1  6
 17 18  1  0
 17 19  1  0
 19 21  1  0
 19 20  1  6
 20 14  1  0
 21 23  2  0
 21 22  1  0
M  END
$$$$
