CKW.pdb
     RDKit          3D

 30 31  0  0  1  0  0  0  0  0999 V2000
    7.5116  -20.7763   21.2788 N   0  0  0  0  0  0  0  0  0  0  0  0
    6.9367  -19.6409   21.9224 C   0  0  1  0  0  0  0  0  0  0  0  0
    6.9367  -19.8270   23.4248 C   0  0  0  0  0  0  0  0  0  0  0  0
    8.6249  -19.8559   24.0877 S   0  0  0  0  0  0  0  0  0  0  0  0
    7.5855  -18.3582   21.6031 C   0  0  0  0  0  0  0  0  0  0  0  0
    8.7063  -18.3966   21.0417 O   0  0  0  0  0  0  0  0  0  0  0  0
    7.0270  -17.0889   21.8883 N   0  0  0  0  0  0  0  0  0  0  0  0
    7.7127  -15.9106   21.4403 C   0  0  1  0  0  0  0  0  0  0  0  0
    6.7777  -14.7461   21.2033 C   0  0  0  0  0  0  0  0  0  0  0  0
    7.4478  -13.5639   20.5933 C   0  0  0  0  0  0  0  0  0  0  0  0
    7.5869  -13.7893   19.1077 C   0  0  0  0  0  0  0  0  0  0  0  0
    8.3411  -12.6971   18.3958 C   0  0  0  0  0  0  0  0  0  0  0  0
    8.4167  -12.9412   16.9741 N   0  0  0  0  0  0  0  0  0  0  0  0
    8.7847  -15.5623   22.4233 C   0  0  0  0  0  0  0  0  0  0  0  0
    9.6446  -14.6770   22.1857 O   0  0  0  0  0  0  0  0  0  0  0  0
    8.8567  -16.2335   23.6658 N   0  0  0  0  0  0  0  0  0  0  0  0
    9.8143  -15.8093   24.7090 C   0  0  1  0  0  0  0  0  0  0  0  0
    9.0947  -15.9222   26.0263 C   0  0  0  0  0  0  0  0  0  0  0  0
    7.8227  -15.1578   25.9882 C   0  0  0  0  0  0  0  0  0  0  0  0
    6.5609  -15.7430   25.7934 C   0  0  0  0  0  0  0  0  0  0  0  0
    5.6665  -14.7623   25.8785 N   0  0  0  0  0  0  0  0  0  0  0  0
    6.2617  -13.5721   26.1154 C   0  0  0  0  0  0  0  0  0  0  0  0
    5.7760  -12.2930   26.2683 C   0  0  0  0  0  0  0  0  0  0  0  0
    6.6402  -11.2430   26.4897 C   0  0  0  0  0  0  0  0  0  0  0  0
    7.9890  -11.4811   26.5562 C   0  0  0  0  0  0  0  0  0  0  0  0
    8.4751  -12.7437   26.4060 C   0  0  0  0  0  0  0  0  0  0  0  0
    7.6083  -13.8212   26.1825 C   0  0  0  0  0  0  0  0  0  0  0  0
   11.0060  -16.6389   24.5766 C   0  0  0  0  0  0  0  0  0  0  0  0
   12.1102  -16.4530   25.3867 O   0  0  0  0  0  0  0  0  0  0  0  0
   11.0510  -17.5460   23.7159 O   0  0  0  0  0  0  0  0  0  0  0  0
  2  3  1  0
  2  5  1  0
  2  1  1  6
  4  3  1  0
  5  6  2  0
  7  8  1  0
  7  5  1  0
  8 14  1  0
  8  9  1  1
 10  9  1  0
 11 12  1  0
 11 10  1  0
 13 12  1  0
 14 15  2  0
 14 16  1  0
 16 17  1  0
 17 28  1  0
 17 18  1  1
 19 18  1  0
 20 19  2  0
 21 20  1  0
 22 21  1  0
 22 27  2  0
 23 22  1  0
 24 23  2  0
 24 25  1  0
 25 26  2  0
 26 27  1  0
 27 19  1  0
 28 30  2  0
 28 29  1  0
M  END
$$$$
