CKW.pdb
     RDKit          3D

 30 31  0  0  1  0  0  0  0  0999 V2000
    5.7245  -19.3590   19.6451 N   0  0  0  0  0  0  0  0  0  0  0  0
    5.5767  -18.3376   20.6294 C   0  0  1  0  0  0  0  0  0  0  0  0
    5.3491  -18.9478   21.9960 C   0  0  0  0  0  0  0  0  0  0  0  0
    3.5823  -19.1933   22.3249 S   0  0  0  0  0  0  0  0  0  0  0  0
    6.7046  -17.3948   20.7125 C   0  0  0  0  0  0  0  0  0  0  0  0
    7.8565  -17.8748   20.8380 O   0  0  0  0  0  0  0  0  0  0  0  0
    6.5725  -15.9862   20.6599 N   0  0  0  0  0  0  0  0  0  0  0  0
    7.7525  -15.1734   20.7393 C   0  0  1  0  0  0  0  0  0  0  0  0
    7.6143  -13.8693   19.9866 C   0  0  0  0  0  0  0  0  0  0  0  0
    7.1420  -14.0424   18.5846 C   0  0  0  0  0  0  0  0  0  0  0  0
    8.2924  -13.7852   17.6425 C   0  0  0  0  0  0  0  0  0  0  0  0
    7.9135  -13.8600   16.1867 C   0  0  0  0  0  0  0  0  0  0  0  0
    9.0347  -13.5569   15.3280 N   0  0  0  0  0  0  0  0  0  0  0  0
    8.0950  -14.9436   22.1769 C   0  0  0  0  0  0  0  0  0  0  0  0
    7.3277  -14.3204   22.9534 O   0  0  0  0  0  0  0  0  0  0  0  0
    9.3125  -15.4311   22.7054 N   0  0  0  0  0  0  0  0  0  0  0  0
    9.7123  -15.1388   24.0983 C   0  0  1  0  0  0  0  0  0  0  0  0
    8.5668  -15.5691   24.9749 C   0  0  0  0  0  0  0  0  0  0  0  0
    8.6919  -14.9632   26.3243 C   0  0  0  0  0  0  0  0  0  0  0  0
    9.4266  -15.5346   27.3762 C   0  0  0  0  0  0  0  0  0  0  0  0
    9.3561  -14.6860   28.3978 N   0  0  0  0  0  0  0  0  0  0  0  0
    8.6214  -13.5960   28.0830 C   0  0  0  0  0  0  0  0  0  0  0  0
    8.2578  -12.4721   28.7902 C   0  0  0  0  0  0  0  0  0  0  0  0
    7.4682  -11.5071   28.2039 C   0  0  0  0  0  0  0  0  0  0  0  0
    7.0462  -11.6743   26.9100 C   0  0  0  0  0  0  0  0  0  0  0  0
    7.4028  -12.7833   26.2057 C   0  0  0  0  0  0  0  0  0  0  0  0
    8.2067  -13.7716   26.7880 C   0  0  0  0  0  0  0  0  0  0  0  0
   10.9771  -15.8207   24.3459 C   0  0  0  0  0  0  0  0  0  0  0  0
   11.2758  -17.0302   23.7475 O   0  0  0  0  0  0  0  0  0  0  0  0
   11.8258  -15.3166   25.1147 O   0  0  0  0  0  0  0  0  0  0  0  0
  2  3  1  0
  2  5  1  0
  2  1  1  6
  4  3  1  0
  5  6  2  0
  7  8  1  0
  7  5  1  0
  8 14  1  0
  8  9  1  1
 10  9  1  0
 11 12  1  0
 11 10  1  0
 13 12  1  0
 14 15  2  0
 14 16  1  0
 16 17  1  0
 17 28  1  0
 17 18  1  1
 19 18  1  0
 20 19  2  0
 21 20  1  0
 22 21  1  0
 22 27  2  0
 23 22  1  0
 24 23  2  0
 24 25  1  0
 25 26  2  0
 26 27  1  0
 27 19  1  0
 28 30  2  0
 28 29  1  0
M  END
$$$$
