CKW.pdb
     RDKit          3D

 30 31  0  0  1  0  0  0  0  0999 V2000
    9.1435  -19.2861   20.2817 N   0  0  0  0  0  0  0  0  0  0  0  0
   10.1233  -18.7218   19.4125 C   0  0  1  0  0  0  0  0  0  0  0  0
    9.8026  -19.0485   17.9695 C   0  0  0  0  0  0  0  0  0  0  0  0
    8.1596  -19.8007   17.8111 S   0  0  0  0  0  0  0  0  0  0  0  0
   10.2957  -17.2653   19.5423 C   0  0  0  0  0  0  0  0  0  0  0  0
   11.1949  -16.7221   18.8572 O   0  0  0  0  0  0  0  0  0  0  0  0
    9.5140  -16.4417   20.3879 N   0  0  0  0  0  0  0  0  0  0  0  0
    9.8014  -15.0371   20.4503 C   0  0  1  0  0  0  0  0  0  0  0  0
    8.8279  -14.2062   19.6450 C   0  0  0  0  0  0  0  0  0  0  0  0
    8.6028  -14.7275   18.2680 C   0  0  0  0  0  0  0  0  0  0  0  0
    8.2697  -13.5742   17.3535 C   0  0  0  0  0  0  0  0  0  0  0  0
    8.0331  -13.9822   15.9231 C   0  0  0  0  0  0  0  0  0  0  0  0
    7.6360  -12.8584   15.1071 N   0  0  0  0  0  0  0  0  0  0  0  0
    9.8373  -14.6060   21.8819 C   0  0  0  0  0  0  0  0  0  0  0  0
    9.5085  -13.4459   22.2370 O   0  0  0  0  0  0  0  0  0  0  0  0
   10.2496  -15.5103   22.8877 N   0  0  0  0  0  0  0  0  0  0  0  0
    9.5349  -15.5948   24.1789 C   0  0  1  0  0  0  0  0  0  0  0  0
    8.0689  -15.7002   23.8541 C   0  0  0  0  0  0  0  0  0  0  0  0
    7.2564  -15.0485   24.9119 C   0  0  0  0  0  0  0  0  0  0  0  0
    6.3033  -15.7200   25.6950 C   0  0  0  0  0  0  0  0  0  0  0  0
    5.8273  -14.8326   26.5637 N   0  0  0  0  0  0  0  0  0  0  0  0
    6.4067  -13.6225   26.3991 C   0  0  0  0  0  0  0  0  0  0  0  0
    6.2450  -12.4100   27.0308 C   0  0  0  0  0  0  0  0  0  0  0  0
    6.9783  -11.3144   26.6305 C   0  0  0  0  0  0  0  0  0  0  0  0
    7.8707  -11.4400   25.5971 C   0  0  0  0  0  0  0  0  0  0  0  0
    8.0351  -12.6364   24.9688 C   0  0  0  0  0  0  0  0  0  0  0  0
    7.2981  -13.7593   25.3663 C   0  0  0  0  0  0  0  0  0  0  0  0
   10.0922  -16.7215   24.9179 C   0  0  0  0  0  0  0  0  0  0  0  0
   11.0057  -17.5837   24.3415 O   0  0  0  0  0  0  0  0  0  0  0  0
    9.7487  -16.9309   26.1028 O   0  0  0  0  0  0  0  0  0  0  0  0
  2  3  1  0
  2  5  1  0
  2  1  1  1
  4  3  1  0
  5  6  2  0
  7  8  1  0
  7  5  1  0
  8 14  1  0
  8  9  1  6
 10  9  1  0
 11 12  1  0
 11 10  1  0
 13 12  1  0
 14 15  2  0
 14 16  1  0
 16 17  1  0
 17 28  1  0
 17 18  1  6
 19 18  1  0
 20 19  2  0
 21 20  1  0
 22 21  1  0
 22 27  2  0
 23 22  1  0
 24 23  2  0
 24 25  1  0
 25 26  2  0
 26 27  1  0
 27 19  1  0
 28 30  2  0
 28 29  1  0
M  END
$$$$
