CKW.pdb
     RDKit          3D

 30 31  0  0  1  0  0  0  0  0999 V2000
    5.9666  -19.3072   20.6591 N   0  0  0  0  0  0  0  0  0  0  0  0
    6.3585  -18.5346   21.7920 C   0  0  1  0  0  0  0  0  0  0  0  0
    6.6258  -19.4341   22.9799 C   0  0  0  0  0  0  0  0  0  0  0  0
    6.8412  -18.4722   24.5026 S   0  0  0  0  0  0  0  0  0  0  0  0
    7.5337  -17.6747   21.5739 C   0  0  0  0  0  0  0  0  0  0  0  0
    8.4971  -18.1572   20.9322 O   0  0  0  0  0  0  0  0  0  0  0  0
    7.6452  -16.3427   22.0407 N   0  0  0  0  0  0  0  0  0  0  0  0
    8.8170  -15.5845   21.7071 C   0  0  1  0  0  0  0  0  0  0  0  0
    8.4917  -14.1856   21.2341 C   0  0  0  0  0  0  0  0  0  0  0  0
    7.5856  -14.1564   20.0522 C   0  0  0  0  0  0  0  0  0  0  0  0
    8.3301  -13.5742   18.8757 C   0  0  0  0  0  0  0  0  0  0  0  0
    7.4840  -13.4159   17.6398 C   0  0  0  0  0  0  0  0  0  0  0  0
    8.2073  -12.7516   16.5804 N   0  0  0  0  0  0  0  0  0  0  0  0
    9.7409  -15.5651   22.8831 C   0  0  0  0  0  0  0  0  0  0  0  0
   10.9393  -15.1994   22.7830 O   0  0  0  0  0  0  0  0  0  0  0  0
    9.2788  -15.9650   24.1582 N   0  0  0  0  0  0  0  0  0  0  0  0
   10.2219  -16.2154   25.2687 C   0  0  1  0  0  0  0  0  0  0  0  0
    9.9330  -15.1791   26.3215 C   0  0  0  0  0  0  0  0  0  0  0  0
    8.5077  -14.7681   26.2656 C   0  0  0  0  0  0  0  0  0  0  0  0
    7.4346  -15.6685   26.1642 C   0  0  0  0  0  0  0  0  0  0  0  0
    6.3207  -14.9427   26.1998 N   0  0  0  0  0  0  0  0  0  0  0  0
    6.5955  -13.6244   26.3169 C   0  0  0  0  0  0  0  0  0  0  0  0
    5.8014  -12.5016   26.3812 C   0  0  0  0  0  0  0  0  0  0  0  0
    6.3719  -11.2517   26.4849 C   0  0  0  0  0  0  0  0  0  0  0  0
    7.7375  -11.1337   26.5231 C   0  0  0  0  0  0  0  0  0  0  0  0
    8.5277  -12.2404   26.4603 C   0  0  0  0  0  0  0  0  0  0  0  0
    7.9618  -13.5175   26.3568 C   0  0  0  0  0  0  0  0  0  0  0  0
   10.0465  -17.5997   25.6919 C   0  0  0  0  0  0  0  0  0  0  0  0
   10.8317  -18.1580   26.6828 O   0  0  0  0  0  0  0  0  0  0  0  0
    9.1703  -18.3164   25.1586 O   0  0  0  0  0  0  0  0  0  0  0  0
  2  3  1  0
  2  5  1  0
  2  1  1  6
  4  3  1  0
  5  6  2  0
  7  8  1  0
  7  5  1  0
  8 14  1  0
  8  9  1  1
 10  9  1  0
 11 12  1  0
 11 10  1  0
 13 12  1  0
 14 15  2  0
 14 16  1  0
 16 17  1  0
 17 28  1  0
 17 18  1  1
 19 18  1  0
 20 19  2  0
 21 20  1  0
 22 21  1  0
 22 27  2  0
 23 22  1  0
 24 23  2  0
 24 25  1  0
 25 26  2  0
 26 27  1  0
 27 19  1  0
 28 30  2  0
 28 29  1  0
M  END
$$$$
