GCQ.pdb
     RDKit          3D

 20 19  0  0  1  0  0  0  0  0999 V2000
   18.2179  -11.9188  -17.3288 N   0  0  0  0  0  0  0  0  0  0  0  0
   17.7196  -10.5744  -17.1132 C   0  0  0  0  0  0  0  0  0  0  0  0
   18.5297   -9.9420  -16.0604 C   0  0  0  0  0  0  0  0  0  0  0  0
   17.9793   -9.4461  -15.0337 O   0  0  0  0  0  0  0  0  0  0  0  0
   19.9574   -9.8503  -16.1300 N   0  0  0  0  0  0  0  0  0  0  0  0
   20.6770   -9.1623  -15.1120 C   0  0  1  0  0  0  0  0  0  0  0  0
   21.9632   -9.8867  -14.7866 C   0  0  0  0  0  0  0  0  0  0  0  0
   22.9227   -9.0734  -13.5116 S   0  0  0  0  0  0  0  0  0  0  0  0
   21.0013   -7.7579  -15.4709 C   0  0  0  0  0  0  0  0  0  0  0  0
   21.4676   -7.4942  -16.6085 O   0  0  0  0  0  0  0  0  0  0  0  0
   17.6930   -2.7295  -14.6737 N   0  0  0  0  0  0  0  0  0  0  0  0
   18.9465   -2.1161  -15.0257 C   0  0  0  0  0  0  0  0  0  0  0  0
   18.9767   -0.8792  -15.2169 O   0  0  0  0  0  0  0  0  0  0  0  0
   20.1313   -2.9970  -15.1390 C   0  0  0  0  0  0  0  0  0  0  0  0
   19.8475   -4.4273  -14.8397 C   0  0  0  0  0  0  0  0  0  0  0  0
   21.0837   -5.2824  -14.9375 C   0  0  2  0  0  0  0  0  0  0  0  0
   20.8115   -6.6670  -14.5836 N   0  0  0  0  0  0  0  0  0  0  0  0
   22.0182   -4.7356  -13.8856 C   0  0  0  0  0  0  0  0  0  0  0  0
   22.6328   -3.6568  -14.0501 O   0  0  0  0  0  0  0  0  0  0  0  0
   22.2295   -5.4114  -12.6954 O   0  0  0  0  0  0  0  0  0  0  0  0
  1  2  1  0
  3  4  2  0
  3  2  1  0
  5  3  1  0
  6  5  1  0
  7  8  1  0
  6  7  1  6
  9  6  1  0
  9 10  2  0
 11 12  1  0
 12 14  1  0
 13 12  2  0
 14 15  1  0
 16 17  1  0
 16 15  1  1
 17  9  1  0
 18 16  1  0
 19 18  2  0
 20 18  1  0
M  END
$$$$
