GCQ.pdb
     RDKit          3D

 20 19  0  0  1  0  0  0  0  0999 V2000
   21.7835  -17.5563  -16.0017 N   0  0  0  0  0  0  0  0  0  0  0  0
   21.3816  -16.3587  -16.7133 C   0  0  0  0  0  0  0  0  0  0  0  0
   21.7733  -15.1887  -15.9121 C   0  0  0  0  0  0  0  0  0  0  0  0
   21.0424  -14.7851  -14.9603 O   0  0  0  0  0  0  0  0  0  0  0  0
   22.9773  -14.4512  -16.1532 N   0  0  0  0  0  0  0  0  0  0  0  0
   23.2555  -13.2762  -15.3987 C   0  0  1  0  0  0  0  0  0  0  0  0
   24.7413  -12.9993  -15.3727 C   0  0  0  0  0  0  0  0  0  0  0  0
   25.6796  -14.2843  -14.5505 S   0  0  0  0  0  0  0  0  0  0  0  0
   22.5573  -12.0703  -15.9134 C   0  0  0  0  0  0  0  0  0  0  0  0
   22.5394  -11.8370  -17.1488 O   0  0  0  0  0  0  0  0  0  0  0  0
   16.9030   -7.8036  -16.0161 N   0  0  0  0  0  0  0  0  0  0  0  0
   17.7094   -8.6733  -15.2008 C   0  0  0  0  0  0  0  0  0  0  0  0
   17.1359   -9.5057  -14.4620 O   0  0  0  0  0  0  0  0  0  0  0  0
   19.1801   -8.5257  -15.2903 C   0  0  0  0  0  0  0  0  0  0  0  0
   19.9345   -9.6969  -14.7659 C   0  0  0  0  0  0  0  0  0  0  0  0
   21.1810   -9.9718  -15.5656 C   0  0  2  0  0  0  0  0  0  0  0  0
   21.8917  -11.1414  -15.0724 N   0  0  0  0  0  0  0  0  0  0  0  0
   22.0723   -8.7790  -15.3175 C   0  0  0  0  0  0  0  0  0  0  0  0
   23.0084   -8.8204  -14.4866 O   0  0  0  0  0  0  0  0  0  0  0  0
   21.8847   -7.5908  -16.0038 O   0  0  0  0  0  0  0  0  0  0  0  0
  1  2  1  0
  3  4  2  0
  3  2  1  0
  5  3  1  0
  6  5  1  0
  7  8  1  0
  6  7  1  6
  9  6  1  0
  9 10  2  0
 11 12  1  0
 12 14  1  0
 13 12  2  0
 14 15  1  0
 16 17  1  0
 16 15  1  1
 17  9  1  0
 18 16  1  0
 19 18  2  0
 20 18  1  0
M  END
$$$$
