GCQ.pdb
     RDKit          3D

 20 19  0  0  1  0  0  0  0  0999 V2000
   30.8179  -21.5003  -10.8814 N   0  0  0  0  0  0  0  0  0  0  0  0
   29.9276  -20.7184  -11.7168 C   0  0  0  0  0  0  0  0  0  0  0  0
   28.5417  -21.0982  -11.4017 C   0  0  0  0  0  0  0  0  0  0  0  0
   28.0076  -22.1047  -11.9537 O   0  0  0  0  0  0  0  0  0  0  0  0
   27.7299  -20.3702  -10.4729 N   0  0  0  0  0  0  0  0  0  0  0  0
   26.3883  -20.7793  -10.2271 C   0  0  1  0  0  0  0  0  0  0  0  0
   25.8906  -20.2134   -8.9168 C   0  0  0  0  0  0  0  0  0  0  0  0
   27.0102  -20.5160   -7.5520 S   0  0  0  0  0  0  0  0  0  0  0  0
   25.4472  -20.3793  -11.3045 C   0  0  0  0  0  0  0  0  0  0  0  0
   25.5250  -19.2302  -11.8089 O   0  0  0  0  0  0  0  0  0  0  0  0
   23.4380  -23.8440  -15.9927 N   0  0  0  0  0  0  0  0  0  0  0  0
   22.5390  -22.7275  -16.1209 C   0  0  0  0  0  0  0  0  0  0  0  0
   21.7664  -22.6889  -17.1053 O   0  0  0  0  0  0  0  0  0  0  0  0
   22.5864  -21.6866  -15.0688 C   0  0  0  0  0  0  0  0  0  0  0  0
   23.5260  -21.9983  -13.9571 C   0  0  0  0  0  0  0  0  0  0  0  0
   23.5749  -20.8963  -12.9312 C   0  0  2  0  0  0  0  0  0  0  0  0
   24.4389  -21.2390  -11.8121 N   0  0  0  0  0  0  0  0  0  0  0  0
   22.1687  -20.8075  -12.3897 C   0  0  0  0  0  0  0  0  0  0  0  0
   21.7924  -21.5074  -11.4216 O   0  0  0  0  0  0  0  0  0  0  0  0
   21.2405  -19.9442  -12.9475 O   0  0  0  0  0  0  0  0  0  0  0  0
  1  2  1  0
  3  4  2  0
  3  2  1  0
  5  3  1  0
  6  5  1  0
  7  8  1  0
  6  7  1  1
  9  6  1  0
  9 10  2  0
 11 12  1  0
 12 14  1  0
 13 12  2  0
 14 15  1  0
 16 17  1  0
 16 15  1  6
 17  9  1  0
 18 16  1  0
 19 18  2  0
 20 18  1  0
M  END
$$$$
