ATV.pdb
     RDKit          3D

 20 19  0  0  1  0  0  0  0  0999 V2000
    8.7941  -18.3102   14.9870 C   0  0  0  0  0  0  0  0  0  0  0  0
    9.2042  -16.8809   14.9232 C   0  0  2  0  0  0  0  0  0  0  0  0
   10.3021  -16.6221   14.0409 N   0  0  0  0  0  0  0  0  0  0  0  0
    9.4073  -16.2519   16.2705 C   0  0  0  0  0  0  0  0  0  0  0  0
   10.5209  -16.3228   16.8311 O   0  0  0  0  0  0  0  0  0  0  0  0
    7.9854  -13.0352   19.7170 C   0  0  0  0  0  0  0  0  0  0  0  0
    7.6207  -13.7939   18.4782 C   0  0  1  0  0  0  0  0  0  0  0  0
    7.5648  -12.8873   17.4194 O   0  0  0  0  0  0  0  0  0  0  0  0
    8.5598  -14.9364   18.1928 C   0  0  2  0  0  0  0  0  0  0  0  0
    8.3590  -15.5708   16.9374 N   0  0  0  0  0  0  0  0  0  0  0  0
    8.6141  -15.9063   19.3308 C   0  0  0  0  0  0  0  0  0  0  0  0
    7.7717  -16.8359   19.4346 O   0  0  0  0  0  0  0  0  0  0  0  0
   11.8392  -15.9005   22.3105 C   0  0  0  0  0  0  0  0  0  0  0  0
   11.0544  -17.1384   21.8637 C   0  0  2  0  0  0  0  0  0  0  0  0
   11.7930  -17.7009   20.6660 C   0  0  0  0  0  0  0  0  0  0  0  0
    9.7110  -16.7315   21.4583 C   0  0  2  0  0  0  0  0  0  0  0  0
    9.5787  -15.8561   20.3396 N   0  0  0  0  0  0  0  0  0  0  0  0
    8.9391  -16.2324   22.6422 C   0  0  0  0  0  0  0  0  0  0  0  0
    8.5978  -17.1152   23.6496 O   0  0  0  0  0  0  0  0  0  0  0  0
    8.5814  -15.0402   22.7672 O   0  0  0  0  0  0  0  0  0  0  0  0
  2  1  1  1
  2  4  1  0
  3  2  1  0
  4 10  1  0
  4  5  2  0
  7  6  1  1
  7  8  1  0
  9  7  1  0
  9 10  1  6
 11 12  2  0
 11  9  1  0
 14 13  1  6
 14 16  1  0
 14 15  1  0
 16 17  1  6
 17 11  1  0
 18 16  1  0
 19 18  1  0
 20 18  2  0
M  END
$$$$
