ATV.pdb
     RDKit          3D

 20 19  0  0  1  0  0  0  0  0999 V2000
    8.7269  -14.0859   14.2745 C   0  0  0  0  0  0  0  0  0  0  0  0
    8.4364  -15.5451   14.3119 C   0  0  2  0  0  0  0  0  0  0  0  0
    7.5260  -15.9904   13.3002 N   0  0  0  0  0  0  0  0  0  0  0  0
    8.0524  -16.0482   15.6725 C   0  0  0  0  0  0  0  0  0  0  0  0
    6.8882  -15.8834   16.0934 O   0  0  0  0  0  0  0  0  0  0  0  0
    8.5311  -18.8168   19.6208 C   0  0  0  0  0  0  0  0  0  0  0  0
    8.9740  -18.4761   18.2312 C   0  0  1  0  0  0  0  0  0  0  0  0
    8.3791  -19.3844   17.3554 O   0  0  0  0  0  0  0  0  0  0  0  0
    8.6732  -17.0493   17.8534 C   0  0  2  0  0  0  0  0  0  0  0  0
    8.9835  -16.7131   16.5083 N   0  0  0  0  0  0  0  0  0  0  0  0
    9.2473  -16.0823   18.8403 C   0  0  0  0  0  0  0  0  0  0  0  0
   10.4536  -15.7278   18.7781 O   0  0  0  0  0  0  0  0  0  0  0  0
    6.7778  -13.9843   21.7551 C   0  0  0  0  0  0  0  0  0  0  0  0
    8.1081  -13.4578   21.2064 C   0  0  2  0  0  0  0  0  0  0  0  0
    7.7726  -12.6846   19.9470 C   0  0  0  0  0  0  0  0  0  0  0  0
    8.9662  -14.5903   20.8665 C   0  0  2  0  0  0  0  0  0  0  0  0
    8.5081  -15.5132   19.8797 N   0  0  0  0  0  0  0  0  0  0  0  0
    9.4167  -15.2937   22.1110 C   0  0  0  0  0  0  0  0  0  0  0  0
    8.9463  -16.5657   22.3782 O   0  0  0  0  0  0  0  0  0  0  0  0
   10.2077  -14.7811   22.9334 O   0  0  0  0  0  0  0  0  0  0  0  0
  2  1  1  1
  2  4  1  0
  3  2  1  0
  4 10  1  0
  4  5  2  0
  7  6  1  1
  7  8  1  0
  9  7  1  0
  9 10  1  6
 11 12  2  0
 11  9  1  0
 14 13  1  6
 14 16  1  0
 14 15  1  0
 16 17  1  6
 17 11  1  0
 18 16  1  0
 19 18  1  0
 20 18  2  0
M  END
$$$$
