ATV.pdb
     RDKit          3D

 20 19  0  0  1  0  0  0  0  0999 V2000
    8.4470  -12.3000   19.1195 C   0  0  0  0  0  0  0  0  0  0  0  0
    8.4690  -13.7844   19.0130 C   0  0  2  0  0  0  0  0  0  0  0  0
    7.8167  -14.3009   17.8474 N   0  0  0  0  0  0  0  0  0  0  0  0
    8.0216  -14.4846   20.2625 C   0  0  0  0  0  0  0  0  0  0  0  0
    6.8161  -14.7698   20.4209 O   0  0  0  0  0  0  0  0  0  0  0  0
    8.4924  -17.7990   23.5925 C   0  0  0  0  0  0  0  0  0  0  0  0
    9.0779  -16.9898   22.4765 C   0  0  1  0  0  0  0  0  0  0  0  0
    8.8588  -17.6798   21.2840 O   0  0  0  0  0  0  0  0  0  0  0  0
    8.5352  -15.5858   22.4230 C   0  0  2  0  0  0  0  0  0  0  0  0
    8.9374  -14.8365   21.2848 N   0  0  0  0  0  0  0  0  0  0  0  0
    8.7624  -14.8548   23.7086 C   0  0  0  0  0  0  0  0  0  0  0  0
    9.9068  -14.4388   24.0274 O   0  0  0  0  0  0  0  0  0  0  0  0
    6.2932  -12.1673   25.3305 C   0  0  0  0  0  0  0  0  0  0  0  0
    6.7341  -13.1740   26.3983 C   0  0  2  0  0  0  0  0  0  0  0  0
    7.1654  -12.3579   27.6001 C   0  0  0  0  0  0  0  0  0  0  0  0
    7.8744  -13.9359   25.8944 C   0  0  2  0  0  0  0  0  0  0  0  0
    7.7482  -14.5849   24.6302 N   0  0  0  0  0  0  0  0  0  0  0  0
    8.3787  -14.8755   26.9477 C   0  0  0  0  0  0  0  0  0  0  0  0
    9.3923  -14.4647   27.7930 O   0  0  0  0  0  0  0  0  0  0  0  0
    7.9234  -16.0303   27.1031 O   0  0  0  0  0  0  0  0  0  0  0  0
  2  1  1  1
  2  4  1  0
  3  2  1  0
  4 10  1  0
  4  5  2  0
  7  6  1  1
  7  8  1  0
  9  7  1  0
  9 10  1  6
 11 12  2  0
 11  9  1  0
 14 13  1  6
 14 16  1  0
 14 15  1  0
 16 17  1  6
 17 11  1  0
 18 16  1  0
 19 18  1  0
 20 18  2  0
M  END
$$$$
