ATV.pdb
     RDKit          3D

 20 19  0  0  1  0  0  0  0  0999 V2000
    6.2231  -19.7154   21.2456 C   0  0  0  0  0  0  0  0  0  0  0  0
    5.9224  -18.5316   20.3951 C   0  0  2  0  0  0  0  0  0  0  0  0
    5.6613  -18.8440   19.0221 N   0  0  0  0  0  0  0  0  0  0  0  0
    6.9192  -17.4190   20.5372 C   0  0  0  0  0  0  0  0  0  0  0  0
    8.1419  -17.6731   20.5422 O   0  0  0  0  0  0  0  0  0  0  0  0
    8.2891  -12.7916   20.0156 C   0  0  0  0  0  0  0  0  0  0  0  0
    7.2703  -13.8753   19.8397 C   0  0  1  0  0  0  0  0  0  0  0  0
    7.3245  -14.3054   18.5138 O   0  0  0  0  0  0  0  0  0  0  0  0
    7.4520  -15.0135   20.8093 C   0  0  2  0  0  0  0  0  0  0  0  0
    6.5108  -16.0687   20.6695 N   0  0  0  0  0  0  0  0  0  0  0  0
    7.5724  -14.5266   22.2189 C   0  0  0  0  0  0  0  0  0  0  0  0
    6.7066  -13.7622   22.7197 O   0  0  0  0  0  0  0  0  0  0  0  0
    6.3957  -14.0878   24.7895 C   0  0  0  0  0  0  0  0  0  0  0  0
    7.6227  -14.8286   25.3314 C   0  0  2  0  0  0  0  0  0  0  0  0
    7.9014  -14.2446   26.7017 C   0  0  0  0  0  0  0  0  0  0  0  0
    8.7619  -14.5715   24.4535 C   0  0  2  0  0  0  0  0  0  0  0  0
    8.6274  -14.8736   23.0657 N   0  0  0  0  0  0  0  0  0  0  0  0
   10.0085  -15.1724   25.0293 C   0  0  0  0  0  0  0  0  0  0  0  0
   10.5524  -14.6320   26.1794 O   0  0  0  0  0  0  0  0  0  0  0  0
   10.5917  -16.1521   24.5144 O   0  0  0  0  0  0  0  0  0  0  0  0
  2  1  1  1
  2  4  1  0
  3  2  1  0
  4 10  1  0
  4  5  2  0
  7  6  1  6
  7  8  1  0
  9  7  1  0
  9 10  1  1
 11 12  2  0
 11  9  1  0
 14 13  1  6
 14 16  1  0
 14 15  1  0
 16 17  1  6
 17 11  1  0
 18 16  1  0
 19 18  1  0
 20 18  2  0
M  END
$$$$
