ATV.pdb
     RDKit          3D

 20 19  0  0  1  0  0  0  0  0999 V2000
    8.5889  -12.1694   19.2326 C   0  0  0  0  0  0  0  0  0  0  0  0
    8.5804  -13.6572   19.1924 C   0  0  2  0  0  0  0  0  0  0  0  0
    8.1202  -14.2102   17.9542 N   0  0  0  0  0  0  0  0  0  0  0  0
    7.9036  -14.2877   20.3741 C   0  0  0  0  0  0  0  0  0  0  0  0
    6.6697  -14.4792   20.3580 O   0  0  0  0  0  0  0  0  0  0  0  0
    7.2409  -17.3682   23.7935 C   0  0  0  0  0  0  0  0  0  0  0  0
    8.0228  -16.7799   22.6596 C   0  0  1  0  0  0  0  0  0  0  0  0
    7.5320  -17.3221   21.4717 O   0  0  0  0  0  0  0  0  0  0  0  0
    7.9933  -15.2740   22.6464 C   0  0  2  0  0  0  0  0  0  0  0  0
    8.6312  -14.6774   21.5257 N   0  0  0  0  0  0  0  0  0  0  0  0
    8.4527  -14.6995   23.9492 C   0  0  0  0  0  0  0  0  0  0  0  0
    9.6768  -14.6306   24.2348 O   0  0  0  0  0  0  0  0  0  0  0  0
    5.6494  -13.1841   26.9409 C   0  0  0  0  0  0  0  0  0  0  0  0
    7.0251  -12.5583   26.6884 C   0  0  2  0  0  0  0  0  0  0  0  0
    6.8168  -11.4801   25.6441 C   0  0  0  0  0  0  0  0  0  0  0  0
    7.9245  -13.5803   26.1580 C   0  0  2  0  0  0  0  0  0  0  0  0
    7.5813  -14.2082   24.9238 N   0  0  0  0  0  0  0  0  0  0  0  0
    8.2477  -14.5896   27.2179 C   0  0  0  0  0  0  0  0  0  0  0  0
    9.0300  -14.2151   28.2942 O   0  0  0  0  0  0  0  0  0  0  0  0
    7.8407  -15.7718   27.1778 O   0  0  0  0  0  0  0  0  0  0  0  0
  2  1  1  6
  2  4  1  0
  3  2  1  0
  4 10  1  0
  4  5  2  0
  7  6  1  1
  7  8  1  0
  9  7  1  0
  9 10  1  6
 11 12  2  0
 11  9  1  0
 14 13  1  6
 14 16  1  0
 14 15  1  0
 16 17  1  6
 17 11  1  0
 18 16  1  0
 19 18  1  0
 20 18  2  0
M  END
$$$$
