RKY.pdb
     RDKit          3D

 33 33  0  0  1  0  0  0  0  0999 V2000
   10.1687  -22.8208   15.5301 N   0  0  0  0  0  0  0  0  0  0  0  0
    9.4121  -23.5272   16.5229 C   0  0  0  0  0  0  0  0  0  0  0  0
    8.9136  -24.6695   16.2460 N   0  0  0  0  0  0  0  0  0  0  0  0
    9.1981  -22.9771   17.8104 N   0  0  0  0  0  0  0  0  0  0  0  0
    9.7319  -21.6818   18.1609 C   0  0  0  0  0  0  0  0  0  0  0  0
    9.4000  -21.2724   19.5844 C   0  0  0  0  0  0  0  0  0  0  0  0
    9.8784  -19.8668   19.8105 C   0  0  0  0  0  0  0  0  0  0  0  0
    9.6816  -19.3964   21.2118 C   0  0  2  0  0  0  0  0  0  0  0  0
    8.5139  -19.8304   21.8863 N   0  0  0  0  0  0  0  0  0  0  0  0
    9.7850  -17.8986   21.3089 C   0  0  0  0  0  0  0  0  0  0  0  0
   10.8596  -17.3740   20.8490 O   0  0  0  0  0  0  0  0  0  0  0  0
    8.2751  -25.1669   16.8842 N   0  0  0  0  0  0  0  0  0  0  0  0
    8.7862  -17.0820   21.8638 C   0  0  1  0  0  0  0  0  0  0  0  0
    8.7787  -15.6338   21.7678 C   0  0  0  0  0  0  0  0  0  0  0  0
    7.4300  -15.0828   21.4831 C   0  0  0  0  0  0  0  0  0  0  0  0
    7.3965  -13.6186   21.1224 C   0  0  0  0  0  0  0  0  0  0  0  0
    7.7163  -13.3548   19.6719 C   0  0  0  0  0  0  0  0  0  0  0  0
    7.6270  -11.8576   19.3664 N   0  0  0  0  0  0  0  0  0  0  0  0
    7.8286  -11.6057   17.9656 C   0  0  0  0  0  0  0  0  0  0  0  0
    9.4072  -15.0241   22.9900 O   0  0  0  0  0  0  0  0  0  0  0  0
    9.2425  -13.8070   23.2379 O   0  0  0  0  0  0  0  0  0  0  0  0
    6.1169  -10.9670   26.6996 C   0  0  0  0  0  0  0  0  0  0  0  0
    6.6713  -12.1985   26.4096 C   0  0  0  0  0  0  0  0  0  0  0  0
    7.6945  -12.7318   27.1858 C   0  0  0  0  0  0  0  0  0  0  0  0
    8.2537  -13.9448   26.9154 C   0  0  0  0  0  0  0  0  0  0  0  0
    7.7799  -14.6781   25.8164 C   0  0  0  0  0  0  0  0  0  0  0  0
    8.4309  -15.9721   25.5388 C   0  0  2  0  0  0  0  0  0  0  0  0
    9.8955  -15.7906   25.3185 N   0  0  0  0  0  0  0  0  0  0  0  0
   10.1926  -15.7908   23.8858 C   0  0  0  0  0  0  0  0  0  0  0  0
   10.7364  -16.7727   26.0310 O   0  0  0  0  0  0  0  0  0  0  0  0
   11.6668  -17.6102   25.4216 C   0  0  0  0  0  0  0  0  0  0  0  0
    6.7660  -14.1556   25.0425 C   0  0  0  0  0  0  0  0  0  0  0  0
    6.2225  -12.9336   25.3380 O   0  0  0  0  0  0  0  0  0  0  0  0
  1  2  1  0
  2  3  2  0
  4  2  1  0
  4  5  1  0
  6  5  1  0
  7  6  1  0
  8  7  1  0
  8  9  1  6
 10  8  1  0
 11 10  2  0
 12 10  1  0
 13 12  1  0
 13 14  1  6
 14 15  1  0
 16 15  1  0
 16 17  1  0
 17 18  1  0
 19 13  1  0
 19 28  1  0
 20 19  2  0
 21 22  1  0
 22 32  2  0
 23 24  2  0
 23 22  1  0
 24 25  1  0
 25 26  1  0
 25 31  2  0
 27 28  1  0
 27 26  1  6
 29 27  1  0
 29 30  1  0
 32 31  1  0
 33 29  2  0
M  END
$$$$
