RKY.pdb
     RDKit          3D

 33 33  0  0  1  0  0  0  0  0999 V2000
    7.8263  -12.8928   17.6658 N   0  0  0  0  0  0  0  0  0  0  0  0
    8.0994  -12.6115   19.0454 C   0  0  0  0  0  0  0  0  0  0  0  0
    8.4435  -11.4330   19.3959 N   0  0  0  0  0  0  0  0  0  0  0  0
    8.0023  -13.6221   20.0329 N   0  0  0  0  0  0  0  0  0  0  0  0
    7.6394  -14.9738   19.6768 C   0  0  0  0  0  0  0  0  0  0  0  0
    6.2995  -15.3959   20.2518 C   0  0  0  0  0  0  0  0  0  0  0  0
    6.4492  -15.6050   21.7316 C   0  0  0  0  0  0  0  0  0  0  0  0
    7.5706  -16.5218   22.0860 C   0  0  2  0  0  0  0  0  0  0  0  0
    7.6846  -17.7261   21.3488 N   0  0  0  0  0  0  0  0  0  0  0  0
    7.5803  -16.8358   23.5573 C   0  0  0  0  0  0  0  0  0  0  0  0
    7.1039  -15.9335   24.3322 O   0  0  0  0  0  0  0  0  0  0  0  0
    8.7348  -11.2018   20.3572 N   0  0  0  0  0  0  0  0  0  0  0  0
    8.0733  -18.0356   24.0957 C   0  0  2  0  0  0  0  0  0  0  0  0
    8.1192  -18.3265   25.5169 C   0  0  0  0  0  0  0  0  0  0  0  0
    8.3414  -19.7662   25.8028 C   0  0  0  0  0  0  0  0  0  0  0  0
    8.3535  -20.1370   27.2648 C   0  0  0  0  0  0  0  0  0  0  0  0
    8.5848  -21.6084   27.5044 C   0  0  0  0  0  0  0  0  0  0  0  0
    8.6342  -21.9065   29.0049 N   0  0  0  0  0  0  0  0  0  0  0  0
    8.9992  -23.2759   29.2454 C   0  0  0  0  0  0  0  0  0  0  0  0
    9.1209  -17.4387   26.2016 O   0  0  0  0  0  0  0  0  0  0  0  0
   10.2908  -17.3577   25.7603 O   0  0  0  0  0  0  0  0  0  0  0  0
    6.7208  -12.4159   23.6589 C   0  0  0  0  0  0  0  0  0  0  0  0
    7.3097  -12.9151   24.8044 C   0  0  0  0  0  0  0  0  0  0  0  0
    8.6683  -13.2082   24.8502 C   0  0  0  0  0  0  0  0  0  0  0  0
    9.2669  -13.7012   25.9709 C   0  0  0  0  0  0  0  0  0  0  0  0
    8.4842  -13.9198   27.1153 C   0  0  0  0  0  0  0  0  0  0  0  0
    9.1625  -14.4823   28.2980 C   0  0  2  0  0  0  0  0  0  0  0  0
    9.7737  -15.8053   27.9776 N   0  0  0  0  0  0  0  0  0  0  0  0
    8.7823  -16.6782   27.3481 C   0  0  0  0  0  0  0  0  0  0  0  0
   10.4037  -16.4719   29.1342 O   0  0  0  0  0  0  0  0  0  0  0  0
   10.0534  -17.7325   29.6106 C   0  0  0  0  0  0  0  0  0  0  0  0
    7.1368  -13.6317   27.0770 C   0  0  0  0  0  0  0  0  0  0  0  0
    6.5619  -13.1369   25.9366 O   0  0  0  0  0  0  0  0  0  0  0  0
  1  2  1  0
  2  3  2  0
  4  2  1  0
  4  5  1  0
  6  5  1  0
  7  6  1  0
  8  7  1  0
  8  9  1  6
 10  8  1  0
 11 10  2  0
 12 10  1  0
 13 12  1  0
 13 14  1  6
 14 15  1  0
 16 15  1  0
 16 17  1  0
 17 18  1  0
 19 13  1  0
 19 28  1  0
 20 19  2  0
 21 22  1  0
 22 32  2  0
 23 24  2  0
 23 22  1  0
 24 25  1  0
 25 26  1  0
 25 31  2  0
 27 28  1  0
 27 26  1  6
 29 27  1  0
 29 30  1  0
 32 31  1  0
 33 29  2  0
M  END
$$$$
