RKY.pdb
     RDKit          3D

 33 33  0  0  1  0  0  0  0  0999 V2000
    8.7322  -15.9057   16.4890 N   0  0  0  0  0  0  0  0  0  0  0  0
    8.5839  -14.7066   15.7163 C   0  0  0  0  0  0  0  0  0  0  0  0
    8.5547  -14.7734   14.4416 N   0  0  0  0  0  0  0  0  0  0  0  0
    8.4764  -13.4402   16.3414 N   0  0  0  0  0  0  0  0  0  0  0  0
    8.3101  -13.3315   17.7717 C   0  0  0  0  0  0  0  0  0  0  0  0
    6.9448  -13.7974   18.2441 C   0  0  0  0  0  0  0  0  0  0  0  0
    7.0162  -14.1027   19.7129 C   0  0  0  0  0  0  0  0  0  0  0  0
    8.2144  -14.9066   20.0894 C   0  0  2  0  0  0  0  0  0  0  0  0
    8.7060  -15.8291   19.1333 N   0  0  0  0  0  0  0  0  0  0  0  0
    8.0134  -15.6111   21.4035 C   0  0  0  0  0  0  0  0  0  0  0  0
    7.3920  -14.9525   22.3099 O   0  0  0  0  0  0  0  0  0  0  0  0
    8.5008  -13.9366   13.8422 N   0  0  0  0  0  0  0  0  0  0  0  0
    8.4638  -16.9150   21.6665 C   0  0  1  0  0  0  0  0  0  0  0  0
    8.2859  -17.5918   22.9381 C   0  0  0  0  0  0  0  0  0  0  0  0
    8.0434  -19.0484   22.7859 C   0  0  0  0  0  0  0  0  0  0  0  0
    7.7841  -19.7949   24.0706 C   0  0  0  0  0  0  0  0  0  0  0  0
    7.4793  -21.2571   23.8590 C   0  0  0  0  0  0  0  0  0  0  0  0
    7.2652  -21.9604   25.2016 N   0  0  0  0  0  0  0  0  0  0  0  0
    7.1203  -23.3792   25.0215 C   0  0  0  0  0  0  0  0  0  0  0  0
    9.4356  -17.2891   23.8584 O   0  0  0  0  0  0  0  0  0  0  0  0
    9.9691  -18.2111   24.5182 O   0  0  0  0  0  0  0  0  0  0  0  0
    5.8872  -10.7902   28.1115 C   0  0  0  0  0  0  0  0  0  0  0  0
    6.4137  -11.7269   27.2434 C   0  0  0  0  0  0  0  0  0  0  0  0
    7.3846  -11.3820   26.3095 C   0  0  0  0  0  0  0  0  0  0  0  0
    7.9156  -12.2920   25.4450 C   0  0  0  0  0  0  0  0  0  0  0  0
    7.4661  -13.6204   25.5009 C   0  0  0  0  0  0  0  0  0  0  0  0
    8.0428  -14.5683   24.5293 C   0  0  2  0  0  0  0  0  0  0  0  0
    9.3686  -15.0661   24.9994 N   0  0  0  0  0  0  0  0  0  0  0  0
    9.9447  -15.9755   24.0084 C   0  0  0  0  0  0  0  0  0  0  0  0
    9.3352  -15.6948   26.3347 O   0  0  0  0  0  0  0  0  0  0  0  0
    8.3596  -15.4567   27.2991 C   0  0  0  0  0  0  0  0  0  0  0  0
    6.5037  -13.9694   26.4241 C   0  0  0  0  0  0  0  0  0  0  0  0
    5.9877  -13.0335   27.2808 O   0  0  0  0  0  0  0  0  0  0  0  0
  1  2  1  0
  2  3  2  0
  4  2  1  0
  4  5  1  0
  6  5  1  0
  7  6  1  0
  8  7  1  0
  8  9  1  6
 10  8  1  0
 11 10  2  0
 12 10  1  0
 13 12  1  0
 13 14  1  1
 14 15  1  0
 16 15  1  0
 16 17  1  0
 17 18  1  0
 19 13  1  0
 19 28  1  0
 20 19  2  0
 21 22  1  0
 22 32  2  0
 23 24  2  0
 23 22  1  0
 24 25  1  0
 25 26  1  0
 25 31  2  0
 27 28  1  0
 27 26  1  6
 29 27  1  0
 29 30  1  0
 32 31  1  0
 33 29  2  0
M  END
$$$$
