RKY.pdb
     RDKit          3D

 33 33  0  0  1  0  0  0  0  0999 V2000
    9.7611  -13.7164   14.7968 N   0  0  0  0  0  0  0  0  0  0  0  0
    8.5424  -13.4626   15.5092 C   0  0  0  0  0  0  0  0  0  0  0  0
    7.4255  -13.5131   14.8926 N   0  0  0  0  0  0  0  0  0  0  0  0
    8.5523  -13.1473   16.8899 N   0  0  0  0  0  0  0  0  0  0  0  0
    8.4594  -14.1868   17.8880 C   0  0  0  0  0  0  0  0  0  0  0  0
    7.0452  -14.7082   18.0672 C   0  0  0  0  0  0  0  0  0  0  0  0
    6.8255  -15.0306   19.5175 C   0  0  0  0  0  0  0  0  0  0  0  0
    8.0429  -15.5653   20.1925 C   0  0  2  0  0  0  0  0  0  0  0  0
    8.7527  -16.5982   19.5322 N   0  0  0  0  0  0  0  0  0  0  0  0
    7.7470  -15.9892   21.6055 C   0  0  0  0  0  0  0  0  0  0  0  0
    7.0515  -15.1738   22.3076 O   0  0  0  0  0  0  0  0  0  0  0  0
    6.5237  -13.3411   15.3611 N   0  0  0  0  0  0  0  0  0  0  0  0
    8.1873  -17.1997   22.1652 C   0  0  1  0  0  0  0  0  0  0  0  0
    7.8873  -17.6208   23.5214 C   0  0  0  0  0  0  0  0  0  0  0  0
    7.6366  -19.0801   23.6288 C   0  0  0  0  0  0  0  0  0  0  0  0
    6.2274  -19.5154   23.3128 C   0  0  0  0  0  0  0  0  0  0  0  0
    6.1651  -20.7307   22.4212 C   0  0  0  0  0  0  0  0  0  0  0  0
    4.7149  -21.1812   22.2286 N   0  0  0  0  0  0  0  0  0  0  0  0
    4.6422  -22.3210   21.3558 C   0  0  0  0  0  0  0  0  0  0  0  0
    8.9557  -17.1456   24.4664 O   0  0  0  0  0  0  0  0  0  0  0  0
   10.0079  -17.8111   24.6076 O   0  0  0  0  0  0  0  0  0  0  0  0
    6.5982  -10.1500   25.7091 C   0  0  0  0  0  0  0  0  0  0  0  0
    6.9133  -11.4350   26.1060 C   0  0  0  0  0  0  0  0  0  0  0  0
    5.9218  -12.3692   26.3853 C   0  0  0  0  0  0  0  0  0  0  0  0
    6.2132  -13.6413   26.7780 C   0  0  0  0  0  0  0  0  0  0  0  0
    7.5592  -14.0186   26.9043 C   0  0  0  0  0  0  0  0  0  0  0  0
    7.8334  -15.3940   27.3605 C   0  0  2  0  0  0  0  0  0  0  0  0
    9.0273  -15.9544   26.6627 N   0  0  0  0  0  0  0  0  0  0  0  0
    8.8114  -15.9518   25.2155 C   0  0  0  0  0  0  0  0  0  0  0  0
    9.4236  -17.2961   27.1337 O   0  0  0  0  0  0  0  0  0  0  0  0
   10.1309  -17.5480   28.3063 C   0  0  0  0  0  0  0  0  0  0  0  0
    8.5473  -13.0976   26.6293 C   0  0  0  0  0  0  0  0  0  0  0  0
    8.2250  -11.8258   26.2363 O   0  0  0  0  0  0  0  0  0  0  0  0
  1  2  1  0
  2  3  2  0
  4  2  1  0
  4  5  1  0
  6  5  1  0
  7  6  1  0
  8  7  1  0
  8  9  1  6
 10  8  1  0
 11 10  2  0
 12 10  1  0
 13 12  1  0
 13 14  1  1
 14 15  1  0
 16 15  1  0
 16 17  1  0
 17 18  1  0
 19 13  1  0
 19 28  1  0
 20 19  2  0
 21 22  1  0
 22 32  2  0
 23 24  2  0
 23 22  1  0
 24 25  1  0
 25 26  1  0
 25 31  2  0
 27 28  1  0
 27 26  1  6
 29 27  1  0
 29 30  1  0
 32 31  1  0
 33 29  2  0
M  END
$$$$
