RKY.pdb
     RDKit          3D

 33 33  0  0  1  0  0  0  0  0999 V2000
    7.7053  -13.2681   15.2179 N   0  0  0  0  0  0  0  0  0  0  0  0
    7.9077  -14.5331   15.8628 C   0  0  0  0  0  0  0  0  0  0  0  0
    8.3633  -15.5202   15.1934 N   0  0  0  0  0  0  0  0  0  0  0  0
    7.6034  -14.7138   17.2342 N   0  0  0  0  0  0  0  0  0  0  0  0
    7.1108  -13.6175   18.0347 C   0  0  0  0  0  0  0  0  0  0  0  0
    8.1482  -13.0828   19.0052 C   0  0  0  0  0  0  0  0  0  0  0  0
    7.9465  -13.7367   20.3422 C   0  0  0  0  0  0  0  0  0  0  0  0
    9.0597  -14.6529   20.7231 C   0  0  2  0  0  0  0  0  0  0  0  0
    9.5294  -15.5526   19.7348 N   0  0  0  0  0  0  0  0  0  0  0  0
    8.7384  -15.4164   21.9791 C   0  0  0  0  0  0  0  0  0  0  0  0
    7.5971  -15.9976   22.0123 O   0  0  0  0  0  0  0  0  0  0  0  0
    8.5185  -16.4501   15.6101 N   0  0  0  0  0  0  0  0  0  0  0  0
    9.6086  -15.5135   23.0771 C   0  0  2  0  0  0  0  0  0  0  0  0
   10.1402  -16.7669   23.5801 C   0  0  0  0  0  0  0  0  0  0  0  0
   10.4908  -17.7195   22.4969 C   0  0  0  0  0  0  0  0  0  0  0  0
    9.9385  -19.1133   22.6626 C   0  0  0  0  0  0  0  0  0  0  0  0
   10.9926  -20.1878   22.5619 C   0  0  0  0  0  0  0  0  0  0  0  0
   10.3756  -21.5686   22.7977 N   0  0  0  0  0  0  0  0  0  0  0  0
   11.3558  -22.6059   22.6259 C   0  0  0  0  0  0  0  0  0  0  0  0
   11.2858  -16.5111   24.5196 O   0  0  0  0  0  0  0  0  0  0  0  0
   12.4133  -16.2084   24.0644 O   0  0  0  0  0  0  0  0  0  0  0  0
    6.1111  -11.0981   27.2609 C   0  0  0  0  0  0  0  0  0  0  0  0
    6.8151  -12.2085   26.8371 C   0  0  0  0  0  0  0  0  0  0  0  0
    6.1894  -13.2420   26.1486 C   0  0  0  0  0  0  0  0  0  0  0  0
    6.8672  -14.3450   25.7227 C   0  0  0  0  0  0  0  0  0  0  0  0
    8.2420  -14.4388   25.9892 C   0  0  0  0  0  0  0  0  0  0  0  0
    8.9337  -15.6610   25.5388 C   0  0  2  0  0  0  0  0  0  0  0  0
    9.9070  -16.1278   26.5690 N   0  0  0  0  0  0  0  0  0  0  0  0
   11.1322  -16.6024   25.9250 C   0  0  0  0  0  0  0  0  0  0  0  0
    9.3658  -17.1482   27.4882 O   0  0  0  0  0  0  0  0  0  0  0  0
    9.1062  -18.4711   27.1403 C   0  0  0  0  0  0  0  0  0  0  0  0
    8.8688  -13.4181   26.6714 C   0  0  0  0  0  0  0  0  0  0  0  0
    8.1623  -12.3210   27.0875 O   0  0  0  0  0  0  0  0  0  0  0  0
  1  2  1  0
  2  3  2  0
  4  2  1  0
  4  5  1  0
  6  5  1  0
  7  6  1  0
  8  7  1  0
  8  9  1  6
 10  8  1  0
 11 10  2  0
 12 10  1  0
 13 12  1  0
 13 14  1  1
 14 15  1  0
 16 15  1  0
 16 17  1  0
 17 18  1  0
 19 13  1  0
 19 28  1  0
 20 19  2  0
 21 22  1  0
 22 32  2  0
 23 24  2  0
 23 22  1  0
 24 25  1  0
 25 26  1  0
 25 31  2  0
 27 28  1  0
 27 26  1  1
 29 27  1  0
 29 30  1  0
 32 31  1  0
 33 29  2  0
M  END
$$$$
