RKY.pdb
     RDKit          3D

 33 33  0  0  1  0  0  0  0  0999 V2000
   10.9794  -20.6130   22.7716 N   0  0  0  0  0  0  0  0  0  0  0  0
   12.2954  -20.0843   22.5582 C   0  0  0  0  0  0  0  0  0  0  0  0
   12.9888  -19.6884   23.5545 N   0  0  0  0  0  0  0  0  0  0  0  0
   12.8430  -19.9843   21.2558 N   0  0  0  0  0  0  0  0  0  0  0  0
   12.0177  -20.1834   20.0876 C   0  0  0  0  0  0  0  0  0  0  0  0
   10.7609  -19.3325   20.1012 C   0  0  0  0  0  0  0  0  0  0  0  0
   10.4704  -18.8710   18.7017 C   0  0  0  0  0  0  0  0  0  0  0  0
    9.2441  -18.0285   18.6024 C   0  0  2  0  0  0  0  0  0  0  0  0
    8.7862  -17.6960   17.3037 N   0  0  0  0  0  0  0  0  0  0  0  0
    9.3712  -16.7733   19.4221 C   0  0  0  0  0  0  0  0  0  0  0  0
   10.2502  -15.9276   19.0302 O   0  0  0  0  0  0  0  0  0  0  0  0
   13.9276  -19.2761   23.4496 N   0  0  0  0  0  0  0  0  0  0  0  0
    8.5925  -16.5017   20.5588 C   0  0  1  0  0  0  0  0  0  0  0  0
    8.6889  -15.2775   21.3324 C   0  0  0  0  0  0  0  0  0  0  0  0
    7.4637  -14.4438   21.2457 C   0  0  0  0  0  0  0  0  0  0  0  0
    7.5318  -13.3006   20.2640 C   0  0  0  0  0  0  0  0  0  0  0  0
    7.6047  -13.7531   18.8268 C   0  0  0  0  0  0  0  0  0  0  0  0
    7.5962  -12.5475   17.8836 N   0  0  0  0  0  0  0  0  0  0  0  0
    7.5883  -12.9697   16.5095 C   0  0  0  0  0  0  0  0  0  0  0  0
    9.0822  -15.5833   22.7509 O   0  0  0  0  0  0  0  0  0  0  0  0
    8.4407  -16.4350   23.4089 O   0  0  0  0  0  0  0  0  0  0  0  0
   10.8594  -15.5540   31.0903 C   0  0  0  0  0  0  0  0  0  0  0  0
   10.5099  -15.4204   29.7606 C   0  0  0  0  0  0  0  0  0  0  0  0
   10.3751  -14.1685   29.1706 C   0  0  0  0  0  0  0  0  0  0  0  0
   10.0312  -14.0168   27.8606 C   0  0  0  0  0  0  0  0  0  0  0  0
    9.8059  -15.1636   27.0834 C   0  0  0  0  0  0  0  0  0  0  0  0
    9.4064  -14.9577   25.6787 C   0  0  2  0  0  0  0  0  0  0  0  0
   10.5391  -15.2629   24.7566 N   0  0  0  0  0  0  0  0  0  0  0  0
   10.1709  -14.9304   23.3801 C   0  0  0  0  0  0  0  0  0  0  0  0
   11.0318  -16.6514   24.8494 O   0  0  0  0  0  0  0  0  0  0  0  0
   12.2328  -17.0285   25.4443 C   0  0  0  0  0  0  0  0  0  0  0  0
    9.9376  -16.4079   27.6617 C   0  0  0  0  0  0  0  0  0  0  0  0
   10.2845  -16.5302   28.9810 O   0  0  0  0  0  0  0  0  0  0  0  0
  1  2  1  0
  2  3  2  0
  4  2  1  0
  4  5  1  0
  6  5  1  0
  7  6  1  0
  8  7  1  0
  8  9  1  6
 10  8  1  0
 11 10  2  0
 12 10  1  0
 13 12  1  0
 13 14  1  1
 14 15  1  0
 16 15  1  0
 16 17  1  0
 17 18  1  0
 19 13  1  0
 19 28  1  0
 20 19  2  0
 21 22  1  0
 22 32  2  0
 23 24  2  0
 23 22  1  0
 24 25  1  0
 25 26  1  0
 25 31  2  0
 27 28  1  0
 27 26  1  1
 29 27  1  0
 29 30  1  0
 32 31  1  0
 33 29  2  0
M  END
$$$$
