RKY.pdb
     RDKit          3D

 33 33  0  0  1  0  0  0  0  0999 V2000
    7.1021  -12.4919   13.3583 N   0  0  0  0  0  0  0  0  0  0  0  0
    7.6458  -13.7167   13.8694 C   0  0  0  0  0  0  0  0  0  0  0  0
    8.3405  -14.4688   13.1066 N   0  0  0  0  0  0  0  0  0  0  0  0
    7.4206  -14.1161   15.2094 N   0  0  0  0  0  0  0  0  0  0  0  0
    7.3155  -13.1379   16.2666 C   0  0  0  0  0  0  0  0  0  0  0  0
    8.5143  -13.1441   17.1976 C   0  0  0  0  0  0  0  0  0  0  0  0
    8.5117  -14.4226   17.9857 C   0  0  0  0  0  0  0  0  0  0  0  0
    9.6641  -14.5373   18.9251 C   0  0  2  0  0  0  0  0  0  0  0  0
   10.9234  -14.8765   18.3722 N   0  0  0  0  0  0  0  0  0  0  0  0
    9.3537  -15.4686   20.0653 C   0  0  0  0  0  0  0  0  0  0  0  0
    8.3553  -15.1490   20.8019 O   0  0  0  0  0  0  0  0  0  0  0  0
    8.7662  -15.3493   13.4321 N   0  0  0  0  0  0  0  0  0  0  0  0
   10.0887  -16.6323   20.3442 C   0  0  1  0  0  0  0  0  0  0  0  0
    9.8480  -17.4858   21.4932 C   0  0  0  0  0  0  0  0  0  0  0  0
   10.4096  -18.8496   21.3249 C   0  0  0  0  0  0  0  0  0  0  0  0
   10.1815  -19.7867   22.4846 C   0  0  0  0  0  0  0  0  0  0  0  0
   10.6661  -21.1907   22.2204 C   0  0  0  0  0  0  0  0  0  0  0  0
   10.4445  -22.0751   23.4499 N   0  0  0  0  0  0  0  0  0  0  0  0
   10.7916  -23.4416   23.1697 C   0  0  0  0  0  0  0  0  0  0  0  0
   10.3223  -16.8155   22.7527 O   0  0  0  0  0  0  0  0  0  0  0  0
   11.4929  -16.3743   22.8246 O   0  0  0  0  0  0  0  0  0  0  0  0
   10.7582  -13.7877   30.9784 C   0  0  0  0  0  0  0  0  0  0  0  0
   10.3045  -14.2846   29.7720 C   0  0  0  0  0  0  0  0  0  0  0  0
   10.0440  -13.4437   28.6956 C   0  0  0  0  0  0  0  0  0  0  0  0
    9.5961  -13.9155   27.4980 C   0  0  0  0  0  0  0  0  0  0  0  0
    9.3914  -15.2960   27.3487 C   0  0  0  0  0  0  0  0  0  0  0  0
    8.8777  -15.7640   26.0478 C   0  0  1  0  0  0  0  0  0  0  0  0
   10.0013  -16.1097   25.1290 N   0  0  0  0  0  0  0  0  0  0  0  0
    9.4777  -16.6635   23.8800 C   0  0  0  0  0  0  0  0  0  0  0  0
   11.0081  -17.0108   25.7235 O   0  0  0  0  0  0  0  0  0  0  0  0
   10.8009  -18.3599   25.9985 C   0  0  0  0  0  0  0  0  0  0  0  0
    9.6474  -16.1355   28.4116 C   0  0  0  0  0  0  0  0  0  0  0  0
   10.0971  -15.6333   29.6039 O   0  0  0  0  0  0  0  0  0  0  0  0
  1  2  1  0
  2  3  2  0
  4  2  1  0
  4  5  1  0
  6  5  1  0
  7  6  1  0
  8  7  1  0
  8  9  1  6
 10  8  1  0
 11 10  2  0
 12 10  1  0
 13 12  1  0
 13 14  1  1
 14 15  1  0
 16 15  1  0
 16 17  1  0
 17 18  1  0
 19 13  1  0
 19 28  1  0
 20 19  2  0
 21 22  1  0
 22 32  2  0
 23 24  2  0
 23 22  1  0
 24 25  1  0
 25 26  1  0
 25 31  2  0
 27 28  1  0
 27 26  1  6
 29 27  1  0
 29 30  1  0
 32 31  1  0
 33 29  2  0
M  END
$$$$
