RKY.pdb
     RDKit          3D

 33 33  0  0  1  0  0  0  0  0999 V2000
    8.7497  -14.9360   14.6119 N   0  0  0  0  0  0  0  0  0  0  0  0
    7.6231  -14.2401   15.1628 C   0  0  0  0  0  0  0  0  0  0  0  0
    7.2205  -13.1564   14.6209 N   0  0  0  0  0  0  0  0  0  0  0  0
    6.9478  -14.7289   16.3079 N   0  0  0  0  0  0  0  0  0  0  0  0
    7.6839  -15.2280   17.4456 C   0  0  0  0  0  0  0  0  0  0  0  0
    8.8320  -14.3210   17.8496 C   0  0  0  0  0  0  0  0  0  0  0  0
    8.9341  -14.3034   19.3480 C   0  0  0  0  0  0  0  0  0  0  0  0
    9.6185  -15.5053   19.9054 C   0  0  2  0  0  0  0  0  0  0  0  0
    9.6798  -16.6586   19.0850 N   0  0  0  0  0  0  0  0  0  0  0  0
    9.0611  -15.8809   21.2514 C   0  0  0  0  0  0  0  0  0  0  0  0
    8.8717  -14.9177   22.0748 O   0  0  0  0  0  0  0  0  0  0  0  0
    6.3892  -12.6448   14.9519 N   0  0  0  0  0  0  0  0  0  0  0  0
    8.7515  -17.1981   21.6276 C   0  0  1  0  0  0  0  0  0  0  0  0
    8.2617  -17.5705   22.9421 C   0  0  0  0  0  0  0  0  0  0  0  0
    7.8879  -19.0044   23.0321 C   0  0  0  0  0  0  0  0  0  0  0  0
    7.4358  -19.4669   24.3947 C   0  0  0  0  0  0  0  0  0  0  0  0
    7.0963  -20.9359   24.4430 C   0  0  0  0  0  0  0  0  0  0  0  0
    6.5281  -21.3106   25.8141 N   0  0  0  0  0  0  0  0  0  0  0  0
    6.2125  -22.7117   25.8745 C   0  0  0  0  0  0  0  0  0  0  0  0
    9.2446  -17.1606   24.0034 O   0  0  0  0  0  0  0  0  0  0  0  0
   10.3774  -17.6942   24.0475 O   0  0  0  0  0  0  0  0  0  0  0  0
    5.4049  -11.2950   26.0794 C   0  0  0  0  0  0  0  0  0  0  0  0
    6.5694  -12.0337   25.9994 C   0  0  0  0  0  0  0  0  0  0  0  0
    7.4347  -12.1392   27.0828 C   0  0  0  0  0  0  0  0  0  0  0  0
    8.5878  -12.8631   27.0228 C   0  0  0  0  0  0  0  0  0  0  0  0
    8.9106  -13.5230   25.8269 C   0  0  0  0  0  0  0  0  0  0  0  0
   10.1812  -14.2711   25.7919 C   0  0  1  0  0  0  0  0  0  0  0  0
    9.9365  -15.7358   25.9372 N   0  0  0  0  0  0  0  0  0  0  0  0
    8.9288  -16.1757   24.9717 C   0  0  0  0  0  0  0  0  0  0  0  0
    9.5712  -16.1511   27.3059 O   0  0  0  0  0  0  0  0  0  0  0  0
    8.3667  -16.7550   27.6565 C   0  0  0  0  0  0  0  0  0  0  0  0
    8.0576  -13.4227   24.7488 C   0  0  0  0  0  0  0  0  0  0  0  0
    6.9051  -12.6880   24.8378 O   0  0  0  0  0  0  0  0  0  0  0  0
  1  2  1  0
  2  3  2  0
  4  2  1  0
  4  5  1  0
  6  5  1  0
  7  6  1  0
  8  7  1  0
  8  9  1  6
 10  8  1  0
 11 10  2  0
 12 10  1  0
 13 12  1  0
 13 14  1  1
 14 15  1  0
 16 15  1  0
 16 17  1  0
 17 18  1  0
 19 13  1  0
 19 28  1  0
 20 19  2  0
 21 22  1  0
 22 32  2  0
 23 24  2  0
 23 22  1  0
 24 25  1  0
 25 26  1  0
 25 31  2  0
 27 28  1  0
 27 26  1  6
 29 27  1  0
 29 30  1  0
 32 31  1  0
 33 29  2  0
M  END
$$$$
