RKY.pdb
     RDKit          3D

 33 33  0  0  1  0  0  0  0  0999 V2000
   16.9821  -21.0005   19.5576 N   0  0  0  0  0  0  0  0  0  0  0  0
   16.9859  -19.6670   19.0296 C   0  0  0  0  0  0  0  0  0  0  0  0
   17.9295  -19.2949   18.2540 N   0  0  0  0  0  0  0  0  0  0  0  0
   15.9621  -18.7452   19.3586 N   0  0  0  0  0  0  0  0  0  0  0  0
   14.7197  -19.1946   19.9416 C   0  0  0  0  0  0  0  0  0  0  0  0
   13.5043  -18.5175   19.3347 C   0  0  0  0  0  0  0  0  0  0  0  0
   13.1219  -17.3448   20.1917 C   0  0  0  0  0  0  0  0  0  0  0  0
   12.4180  -17.7374   21.4463 C   0  0  2  0  0  0  0  0  0  0  0  0
   12.1316  -19.1126   21.6290 N   0  0  0  0  0  0  0  0  0  0  0  0
   11.1601  -16.9362   21.6450 C   0  0  0  0  0  0  0  0  0  0  0  0
   11.2708  -15.6665   21.5148 O   0  0  0  0  0  0  0  0  0  0  0  0
   17.9975  -18.3363   17.8816 N   0  0  0  0  0  0  0  0  0  0  0  0
    9.9143  -17.5046   21.9566 C   0  0  1  0  0  0  0  0  0  0  0  0
    8.6843  -16.7434   22.0755 C   0  0  0  0  0  0  0  0  0  0  0  0
    7.5056  -17.4660   21.5348 C   0  0  0  0  0  0  0  0  0  0  0  0
    6.2245  -16.6707   21.4989 C   0  0  0  0  0  0  0  0  0  0  0  0
    5.0656  -17.4341   20.9073 C   0  0  0  0  0  0  0  0  0  0  0  0
    3.8231  -16.5440   20.8242 N   0  0  0  0  0  0  0  0  0  0  0  0
    2.7364  -17.2362   20.1867 C   0  0  0  0  0  0  0  0  0  0  0  0
    8.4841  -16.2888   23.4945 O   0  0  0  0  0  0  0  0  0  0  0  0
    7.5408  -15.5140   23.7767 O   0  0  0  0  0  0  0  0  0  0  0  0
    5.9226  -10.8926   26.2355 C   0  0  0  0  0  0  0  0  0  0  0  0
    6.3223  -12.2148   26.2224 C   0  0  0  0  0  0  0  0  0  0  0  0
    7.5460  -12.6057   26.7548 C   0  0  0  0  0  0  0  0  0  0  0  0
    7.9573  -13.9050   26.7509 C   0  0  0  0  0  0  0  0  0  0  0  0
    7.1165  -14.8789   26.1902 C   0  0  0  0  0  0  0  0  0  0  0  0
    7.6100  -16.2687   26.1778 C   0  0  2  0  0  0  0  0  0  0  0  0
    9.0796  -16.3056   25.9221 N   0  0  0  0  0  0  0  0  0  0  0  0
    9.3399  -16.7129   24.5410 C   0  0  0  0  0  0  0  0  0  0  0  0
    9.8334  -17.1487   26.8709 O   0  0  0  0  0  0  0  0  0  0  0  0
   10.0695  -16.8255   28.2044 C   0  0  0  0  0  0  0  0  0  0  0  0
    5.9021  -14.4986   25.6603 C   0  0  0  0  0  0  0  0  0  0  0  0
    5.5145  -13.1851   25.6781 O   0  0  0  0  0  0  0  0  0  0  0  0
  1  2  1  0
  2  3  2  0
  4  2  1  0
  4  5  1  0
  6  5  1  0
  7  6  1  0
  8  7  1  0
  8  9  1  6
 10  8  1  0
 11 10  2  0
 12 10  1  0
 13 12  1  0
 13 14  1  6
 14 15  1  0
 16 15  1  0
 16 17  1  0
 17 18  1  0
 19 13  1  0
 19 28  1  0
 20 19  2  0
 21 22  1  0
 22 32  2  0
 23 24  2  0
 23 22  1  0
 24 25  1  0
 25 26  1  0
 25 31  2  0
 27 28  1  0
 27 26  1  6
 29 27  1  0
 29 30  1  0
 32 31  1  0
 33 29  2  0
M  END
$$$$
