RKY.pdb
     RDKit          3D

 33 33  0  0  1  0  0  0  0  0999 V2000
   16.6019  -12.0830   17.0998 N   0  0  0  0  0  0  0  0  0  0  0  0
   16.9001  -13.2777   16.3644 C   0  0  0  0  0  0  0  0  0  0  0  0
   17.4311  -13.1934   15.2064 N   0  0  0  0  0  0  0  0  0  0  0  0
   16.6088  -14.5578   16.8960 N   0  0  0  0  0  0  0  0  0  0  0  0
   15.7644  -14.7028   18.0585 C   0  0  0  0  0  0  0  0  0  0  0  0
   14.2959  -14.4687   17.7540 C   0  0  0  0  0  0  0  0  0  0  0  0
   13.5149  -14.5475   19.0344 C   0  0  0  0  0  0  0  0  0  0  0  0
   13.0584  -15.9290   19.3613 C   0  0  2  0  0  0  0  0  0  0  0  0
   12.8111  -16.8065   18.2770 N   0  0  0  0  0  0  0  0  0  0  0  0
   11.8602  -15.9116   20.2710 C   0  0  0  0  0  0  0  0  0  0  0  0
   11.9249  -15.1219   21.2778 O   0  0  0  0  0  0  0  0  0  0  0  0
   17.5720  -14.0136   14.5984 N   0  0  0  0  0  0  0  0  0  0  0  0
   10.7149  -16.6985   20.0677 C   0  0  1  0  0  0  0  0  0  0  0  0
    9.5738  -16.7140   20.9644 C   0  0  0  0  0  0  0  0  0  0  0  0
    8.6076  -17.7957   20.6479 C   0  0  0  0  0  0  0  0  0  0  0  0
    7.3809  -17.8391   21.5245 C   0  0  0  0  0  0  0  0  0  0  0  0
    6.3998  -18.9127   21.1236 C   0  0  0  0  0  0  0  0  0  0  0  0
    5.1528  -18.8580   22.0096 N   0  0  0  0  0  0  0  0  0  0  0  0
    4.2145  -19.8825   21.6405 C   0  0  0  0  0  0  0  0  0  0  0  0
   10.0323  -16.7476   22.3958 O   0  0  0  0  0  0  0  0  0  0  0  0
   10.8083  -17.6516   22.7838 O   0  0  0  0  0  0  0  0  0  0  0  0
   10.7133  -15.2634   30.9873 C   0  0  0  0  0  0  0  0  0  0  0  0
   10.4413  -15.1147   29.6412 C   0  0  0  0  0  0  0  0  0  0  0  0
    9.1363  -15.1299   29.1611 C   0  0  0  0  0  0  0  0  0  0  0  0
    8.8485  -14.9848   27.8369 C   0  0  0  0  0  0  0  0  0  0  0  0
    9.9058  -14.8148   26.9296 C   0  0  0  0  0  0  0  0  0  0  0  0
    9.5555  -14.6913   25.5023 C   0  0  2  0  0  0  0  0  0  0  0  0
    9.9493  -15.9202   24.7531 N   0  0  0  0  0  0  0  0  0  0  0  0
    9.6100  -15.7764   23.3371 C   0  0  0  0  0  0  0  0  0  0  0  0
    9.3854  -17.1674   25.3059 O   0  0  0  0  0  0  0  0  0  0  0  0
    8.0802  -17.6067   25.1010 C   0  0  0  0  0  0  0  0  0  0  0  0
   11.2020  -14.7989   27.3985 C   0  0  0  0  0  0  0  0  0  0  0  0
   11.4616  -14.9470   28.7351 O   0  0  0  0  0  0  0  0  0  0  0  0
  1  2  1  0
  2  3  2  0
  4  2  1  0
  4  5  1  0
  6  5  1  0
  7  6  1  0
  8  7  1  0
  8  9  1  6
 10  8  1  0
 11 10  2  0
 12 10  1  0
 13 12  1  0
 13 14  1  6
 14 15  1  0
 16 15  1  0
 16 17  1  0
 17 18  1  0
 19 13  1  0
 19 28  1  0
 20 19  2  0
 21 22  1  0
 22 32  2  0
 23 24  2  0
 23 22  1  0
 24 25  1  0
 25 26  1  0
 25 31  2  0
 27 28  1  0
 27 26  1  6
 29 27  1  0
 29 30  1  0
 32 31  1  0
 33 29  2  0
M  END
$$$$
