RKY.pdb
     RDKit          3D

 33 33  0  0  1  0  0  0  0  0999 V2000
    7.6364  -12.8920   14.8389 N   0  0  0  0  0  0  0  0  0  0  0  0
    8.2461  -14.1744   15.0406 C   0  0  0  0  0  0  0  0  0  0  0  0
    8.1626  -15.0661   14.1306 N   0  0  0  0  0  0  0  0  0  0  0  0
    8.9370  -14.4774   16.2393 N   0  0  0  0  0  0  0  0  0  0  0  0
    8.9269  -13.5583   17.3530 C   0  0  0  0  0  0  0  0  0  0  0  0
    7.6032  -13.5459   18.0958 C   0  0  0  0  0  0  0  0  0  0  0  0
    7.7697  -14.2735   19.3991 C   0  0  0  0  0  0  0  0  0  0  0  0
    7.2998  -15.6878   19.3477 C   0  0  2  0  0  0  0  0  0  0  0  0
    6.0421  -15.9345   18.7441 N   0  0  0  0  0  0  0  0  0  0  0  0
    7.3330  -16.3283   20.7086 C   0  0  0  0  0  0  0  0  0  0  0  0
    6.4283  -15.9519   21.5340 O   0  0  0  0  0  0  0  0  0  0  0  0
    8.5941  -15.9975   14.2238 N   0  0  0  0  0  0  0  0  0  0  0  0
    8.2824  -17.2879   21.0963 C   0  0  1  0  0  0  0  0  0  0  0  0
    8.2844  -17.9485   22.3886 C   0  0  0  0  0  0  0  0  0  0  0  0
    8.7869  -19.3438   22.3210 C   0  0  0  0  0  0  0  0  0  0  0  0
    8.8210  -20.0796   23.6372 C   0  0  0  0  0  0  0  0  0  0  0  0
    9.4274  -21.4571   23.5343 C   0  0  0  0  0  0  0  0  0  0  0  0
    9.3659  -22.1728   24.8859 N   0  0  0  0  0  0  0  0  0  0  0  0
    9.8606  -23.5182   24.7783 C   0  0  0  0  0  0  0  0  0  0  0  0
    9.0204  -17.1164   23.4017 O   0  0  0  0  0  0  0  0  0  0  0  0
   10.2008  -16.7594   23.1803 O   0  0  0  0  0  0  0  0  0  0  0  0
   11.4158  -13.8967   31.1795 C   0  0  0  0  0  0  0  0  0  0  0  0
   10.6606  -14.3257   30.1054 C   0  0  0  0  0  0  0  0  0  0  0  0
    9.8217  -15.4302   30.2064 C   0  0  0  0  0  0  0  0  0  0  0  0
    9.0692  -15.8682   29.1579 C   0  0  0  0  0  0  0  0  0  0  0  0
    9.1453  -15.1804   27.9369 C   0  0  0  0  0  0  0  0  0  0  0  0
    8.3390  -15.7029   26.8179 C   0  0  1  0  0  0  0  0  0  0  0  0
    9.2118  -16.0776   25.6671 N   0  0  0  0  0  0  0  0  0  0  0  0
    8.4154  -16.7156   24.6185 C   0  0  0  0  0  0  0  0  0  0  0  0
   10.3662  -16.9197   26.0378 O   0  0  0  0  0  0  0  0  0  0  0  0
   10.2752  -18.2253   26.5131 C   0  0  0  0  0  0  0  0  0  0  0  0
    9.9749  -14.0848   27.8295 C   0  0  0  0  0  0  0  0  0  0  0  0
   10.7199  -13.6669   28.9002 O   0  0  0  0  0  0  0  0  0  0  0  0
  1  2  1  0
  2  3  2  0
  4  2  1  0
  4  5  1  0
  6  5  1  0
  7  6  1  0
  8  7  1  0
  8  9  1  1
 10  8  1  0
 11 10  2  0
 12 10  1  0
 13 12  1  0
 13 14  1  6
 14 15  1  0
 16 15  1  0
 16 17  1  0
 17 18  1  0
 19 13  1  0
 19 28  1  0
 20 19  2  0
 21 22  1  0
 22 32  2  0
 23 24  2  0
 23 22  1  0
 24 25  1  0
 25 26  1  0
 25 31  2  0
 27 28  1  0
 27 26  1  6
 29 27  1  0
 29 30  1  0
 32 31  1  0
 33 29  2  0
M  END
$$$$
