MYG.pdb
     RDKit          3D

 25 25  0  0  1  0  0  0  0  0999 V2000
    6.5988  -12.9162   20.0840 C   0  0  0  0  0  0  0  0  0  0  0  0
    8.0975  -13.5403   19.3161 S   0  0  0  0  0  0  0  0  0  0  0  0
    8.2417  -15.3271   19.5399 C   0  0  0  0  0  0  0  0  0  0  0  0
    8.2952  -15.7072   21.0021 C   0  0  0  0  0  0  0  0  0  0  0  0
    9.5039  -15.1027   21.6871 C   0  0  2  0  0  0  0  0  0  0  0  0
   10.7176  -15.3434   20.9409 N   0  0  0  0  0  0  0  0  0  0  0  0
    9.6652  -15.6540   23.0479 C   0  0  0  0  0  0  0  0  0  0  0  0
   10.8101  -15.8929   23.5197 O   0  0  0  0  0  0  0  0  0  0  0  0
    6.7008  -10.3879   26.4403 O   0  0  0  0  0  0  0  0  0  0  0  0
    6.8391  -11.7520   26.3123 C   0  0  0  0  0  0  0  0  0  0  0  0
    5.7541  -12.5807   26.2176 C   0  0  0  0  0  0  0  0  0  0  0  0
    5.9378  -13.9446   26.0903 C   0  0  0  0  0  0  0  0  0  0  0  0
    7.1917  -14.5005   26.0555 C   0  0  0  0  0  0  0  0  0  0  0  0
    7.3897  -15.9584   25.9229 C   0  0  0  0  0  0  0  0  0  0  0  0
    8.7016  -16.2523   25.2626 C   0  0  2  0  0  0  0  0  0  0  0  0
    8.5410  -15.9249   23.8476 N   0  0  0  0  0  0  0  0  0  0  0  0
    9.1660  -17.6447   25.4144 C   0  0  0  0  0  0  0  0  0  0  0  0
    9.5730  -18.0875   26.5153 O   0  0  0  0  0  0  0  0  0  0  0  0
    8.2703  -13.6681   26.1504 C   0  0  0  0  0  0  0  0  0  0  0  0
    8.1083  -12.2917   26.2792 C   0  0  0  0  0  0  0  0  0  0  0  0
    9.1686  -18.5442   24.3045 N   0  0  0  0  0  0  0  0  0  0  0  0
   10.3963  -19.1599   23.8946 C   0  0  0  0  0  0  0  0  0  0  0  0
   11.0102  -19.9556   24.9915 C   0  0  0  0  0  0  0  0  0  0  0  0
   12.0670  -19.4270   25.7185 O   0  0  0  0  0  0  0  0  0  0  0  0
   10.6196  -21.1095   25.3089 O   0  0  0  0  0  0  0  0  0  0  0  0
  2  1  1  0
  3  2  1  0
  4  3  1  0
  5  4  1  0
  5  6  1  6
  5  7  1  0
  7  8  2  0
  9 10  1  0
 10 11  2  0
 11 12  1  0
 13 12  2  0
 13 14  1  0
 15 14  1  1
 15 17  1  0
 16  7  1  0
 16 15  1  0
 17 21  1  0
 17 18  2  0
 19 13  1  0
 20 10  1  0
 20 19  2  0
 21 22  1  0
 23 22  1  0
 23 24  1  0
 25 23  2  0
M  END
$$$$
