MYG.pdb
     RDKit          3D

 25 25  0  0  1  0  0  0  0  0999 V2000
    7.5826  -11.5062   19.2143 C   0  0  0  0  0  0  0  0  0  0  0  0
    7.1048  -12.9442   18.2503 S   0  0  0  0  0  0  0  0  0  0  0  0
    7.4140  -14.4688   19.1687 C   0  0  0  0  0  0  0  0  0  0  0  0
    7.6895  -14.1978   20.6302 C   0  0  0  0  0  0  0  0  0  0  0  0
    7.8424  -15.4862   21.4127 C   0  0  2  0  0  0  0  0  0  0  0  0
    6.6651  -16.3175   21.3095 N   0  0  0  0  0  0  0  0  0  0  0  0
    8.1023  -15.2051   22.8393 C   0  0  0  0  0  0  0  0  0  0  0  0
    7.6463  -14.1658   23.3893 O   0  0  0  0  0  0  0  0  0  0  0  0
   11.1475  -14.6239   30.8586 O   0  0  0  0  0  0  0  0  0  0  0  0
   10.5440  -14.9376   29.6613 C   0  0  0  0  0  0  0  0  0  0  0  0
   10.0411  -13.9715   28.8327 C   0  0  0  0  0  0  0  0  0  0  0  0
    9.4430  -14.3301   27.6395 C   0  0  0  0  0  0  0  0  0  0  0  0
    9.3364  -15.6429   27.2553 C   0  0  0  0  0  0  0  0  0  0  0  0
    8.6942  -16.0281   25.9820 C   0  0  0  0  0  0  0  0  0  0  0  0
    9.5489  -15.6251   24.8197 C   0  0  2  0  0  0  0  0  0  0  0  0
    8.8666  -16.0938   23.6156 N   0  0  0  0  0  0  0  0  0  0  0  0
   10.9276  -16.1494   24.8616 C   0  0  0  0  0  0  0  0  0  0  0  0
   11.6959  -15.9074   25.8232 O   0  0  0  0  0  0  0  0  0  0  0  0
    9.8402  -16.6023   28.0866 C   0  0  0  0  0  0  0  0  0  0  0  0
   10.4467  -16.2636   29.2928 C   0  0  0  0  0  0  0  0  0  0  0  0
   11.4397  -16.9571   23.8003 N   0  0  0  0  0  0  0  0  0  0  0  0
   12.7590  -17.5080   23.9027 C   0  0  0  0  0  0  0  0  0  0  0  0
   13.7985  -16.5431   23.4538 C   0  0  0  0  0  0  0  0  0  0  0  0
   14.5846  -16.8408   22.3500 O   0  0  0  0  0  0  0  0  0  0  0  0
   14.0147  -15.4444   24.0289 O   0  0  0  0  0  0  0  0  0  0  0  0
  2  1  1  0
  3  2  1  0
  4  3  1  0
  5  4  1  0
  5  6  1  1
  5  7  1  0
  7  8  2  0
  9 10  1  0
 10 11  2  0
 11 12  1  0
 13 12  2  0
 13 14  1  0
 15 14  1  1
 15 17  1  0
 16  7  1  0
 16 15  1  0
 17 21  1  0
 17 18  2  0
 19 13  1  0
 20 10  1  0
 20 19  2  0
 21 22  1  0
 23 22  1  0
 23 24  1  0
 25 23  2  0
M  END
$$$$
