MYG.pdb
     RDKit          3D

 25 25  0  0  1  0  0  0  0  0999 V2000
    7.0650  -12.7611   16.9562 C   0  0  0  0  0  0  0  0  0  0  0  0
    8.0918  -12.6939   18.4282 S   0  0  0  0  0  0  0  0  0  0  0  0
    8.2256  -14.3231   19.1969 C   0  0  0  0  0  0  0  0  0  0  0  0
    8.9393  -14.2589   20.5281 C   0  0  0  0  0  0  0  0  0  0  0  0
    9.0466  -15.6295   21.1650 C   0  0  2  0  0  0  0  0  0  0  0  0
    7.7714  -16.3083   21.1915 N   0  0  0  0  0  0  0  0  0  0  0  0
    9.5592  -15.5265   22.5465 C   0  0  0  0  0  0  0  0  0  0  0  0
   10.6606  -14.9622   22.7895 O   0  0  0  0  0  0  0  0  0  0  0  0
    5.9736  -10.4933   26.2528 O   0  0  0  0  0  0  0  0  0  0  0  0
    6.4894  -11.7653   26.1416 C   0  0  0  0  0  0  0  0  0  0  0  0
    7.8169  -11.9854   25.8921 C   0  0  0  0  0  0  0  0  0  0  0  0
    8.2932  -13.2786   25.7880 C   0  0  0  0  0  0  0  0  0  0  0  0
    7.4646  -14.3630   25.9290 C   0  0  0  0  0  0  0  0  0  0  0  0
    7.9715  -15.7458   25.8145 C   0  0  0  0  0  0  0  0  0  0  0  0
    9.2279  -15.7788   24.9996 C   0  0  2  0  0  0  0  0  0  0  0  0
    8.8267  -16.0578   23.6224 N   0  0  0  0  0  0  0  0  0  0  0  0
   10.2253  -16.7683   25.4506 C   0  0  0  0  0  0  0  0  0  0  0  0
   10.9828  -16.5435   26.4250 O   0  0  0  0  0  0  0  0  0  0  0  0
    6.1409  -14.1366   26.1779 C   0  0  0  0  0  0  0  0  0  0  0  0
    5.6399  -12.8426   26.2866 C   0  0  0  0  0  0  0  0  0  0  0  0
   10.3646  -18.0264   24.7884 N   0  0  0  0  0  0  0  0  0  0  0  0
   11.3662  -18.9520   25.2295 C   0  0  0  0  0  0  0  0  0  0  0  0
   10.9611  -19.6536   26.4773 C   0  0  0  0  0  0  0  0  0  0  0  0
   11.8112  -20.5892   27.0491 O   0  0  0  0  0  0  0  0  0  0  0  0
    9.8658  -19.4452   27.0616 O   0  0  0  0  0  0  0  0  0  0  0  0
  2  1  1  0
  3  2  1  0
  4  3  1  0
  5  4  1  0
  5  6  1  1
  5  7  1  0
  7  8  2  0
  9 10  1  0
 10 11  2  0
 11 12  1  0
 13 12  2  0
 13 14  1  0
 15 14  1  1
 15 17  1  0
 16  7  1  0
 16 15  1  0
 17 21  1  0
 17 18  2  0
 19 13  1  0
 20 10  1  0
 20 19  2  0
 21 22  1  0
 23 22  1  0
 23 24  1  0
 25 23  2  0
M  END
$$$$
