MYG.pdb
     RDKit          3D

 25 25  0  0  1  0  0  0  0  0999 V2000
   11.8247  -25.2957   15.7557 C   0  0  0  0  0  0  0  0  0  0  0  0
   11.3300  -24.7477   17.3929 S   0  0  0  0  0  0  0  0  0  0  0  0
   10.8576  -23.0042   17.3746 C   0  0  0  0  0  0  0  0  0  0  0  0
   10.4339  -22.5230   18.7438 C   0  0  0  0  0  0  0  0  0  0  0  0
   10.0494  -23.6806   19.6426 C   0  0  2  0  0  0  0  0  0  0  0  0
    8.6674  -24.0618   19.4621 N   0  0  0  0  0  0  0  0  0  0  0  0
   10.2660  -23.3358   21.0624 C   0  0  0  0  0  0  0  0  0  0  0  0
    9.4194  -22.6528   21.7006 O   0  0  0  0  0  0  0  0  0  0  0  0
    6.8051  -26.7631   25.3579 O   0  0  0  0  0  0  0  0  0  0  0  0
    8.0276  -26.2259   25.0217 C   0  0  0  0  0  0  0  0  0  0  0  0
    8.5029  -25.0883   25.6156 C   0  0  0  0  0  0  0  0  0  0  0  0
    9.7356  -24.5827   25.2483 C   0  0  0  0  0  0  0  0  0  0  0  0
   10.5077  -25.1948   24.2935 C   0  0  0  0  0  0  0  0  0  0  0  0
   11.8240  -24.6537   23.8973 C   0  0  0  0  0  0  0  0  0  0  0  0
   11.6578  -23.3814   23.1245 C   0  0  2  0  0  0  0  0  0  0  0  0
   11.4250  -23.7636   21.7334 N   0  0  0  0  0  0  0  0  0  0  0  0
   12.8032  -22.4555   23.2142 C   0  0  0  0  0  0  0  0  0  0  0  0
   13.2964  -22.1221   24.3185 O   0  0  0  0  0  0  0  0  0  0  0  0
   10.0278  -26.3297   23.7046 C   0  0  0  0  0  0  0  0  0  0  0  0
    8.7891  -26.8563   24.0592 C   0  0  0  0  0  0  0  0  0  0  0  0
   13.3952  -21.9018   22.0378 N   0  0  0  0  0  0  0  0  0  0  0  0
   14.5026  -21.0000   22.1594 C   0  0  0  0  0  0  0  0  0  0  0  0
   15.0350  -20.5941   20.8309 C   0  0  0  0  0  0  0  0  0  0  0  0
   14.4531  -21.0918   19.6738 O   0  0  0  0  0  0  0  0  0  0  0  0
   16.0064  -19.8064   20.6881 O   0  0  0  0  0  0  0  0  0  0  0  0
  2  1  1  0
  3  2  1  0
  4  3  1  0
  5  4  1  0
  5  6  1  1
  5  7  1  0
  7  8  2  0
  9 10  1  0
 10 11  2  0
 11 12  1  0
 13 12  2  0
 13 14  1  0
 15 14  1  1
 15 17  1  0
 16  7  1  0
 16 15  1  0
 17 21  1  0
 17 18  2  0
 19 13  1  0
 20 10  1  0
 20 19  2  0
 21 22  1  0
 23 22  1  0
 23 24  1  0
 25 23  2  0
M  END
$$$$
