MYG.pdb
     RDKit          3D

 25 25  0  0  1  0  0  0  0  0999 V2000
    8.4041  -11.6261   19.7101 C   0  0  0  0  0  0  0  0  0  0  0  0
    7.2669  -12.8840   19.1185 S   0  0  0  0  0  0  0  0  0  0  0  0
    7.6357  -14.4886   19.8617 C   0  0  0  0  0  0  0  0  0  0  0  0
    8.5889  -14.3613   21.0282 C   0  0  0  0  0  0  0  0  0  0  0  0
    8.9557  -15.7183   21.5937 C   0  0  2  0  0  0  0  0  0  0  0  0
    7.8599  -16.6545   21.4908 N   0  0  0  0  0  0  0  0  0  0  0  0
    9.3526  -15.6050   23.0119 C   0  0  0  0  0  0  0  0  0  0  0  0
   10.2427  -14.7878   23.3732 O   0  0  0  0  0  0  0  0  0  0  0  0
    6.1015  -10.8098   26.6447 O   0  0  0  0  0  0  0  0  0  0  0  0
    6.5437  -12.1092   26.5343 C   0  0  0  0  0  0  0  0  0  0  0  0
    7.8396  -12.4551   26.8058 C   0  0  0  0  0  0  0  0  0  0  0  0
    8.2417  -13.7716   26.6823 C   0  0  0  0  0  0  0  0  0  0  0  0
    7.3695  -14.7555   26.2904 C   0  0  0  0  0  0  0  0  0  0  0  0
    7.7986  -16.1625   26.1545 C   0  0  0  0  0  0  0  0  0  0  0  0
    9.0907  -16.2471   25.4015 C   0  0  2  0  0  0  0  0  0  0  0  0
    8.7438  -16.4092   23.9913 N   0  0  0  0  0  0  0  0  0  0  0  0
    9.9831  -17.3390   25.8360 C   0  0  0  0  0  0  0  0  0  0  0  0
   10.2338  -17.5426   27.0482 O   0  0  0  0  0  0  0  0  0  0  0  0
    6.0776  -14.4039   26.0210 C   0  0  0  0  0  0  0  0  0  0  0  0
    5.6512  -13.0842   26.1389 C   0  0  0  0  0  0  0  0  0  0  0  0
   10.5978  -18.2091   24.8842 N   0  0  0  0  0  0  0  0  0  0  0  0
   11.9838  -18.5464   25.0246 C   0  0  0  0  0  0  0  0  0  0  0  0
   12.3961  -19.6060   24.0651 C   0  0  0  0  0  0  0  0  0  0  0  0
   12.3345  -20.9396   24.4426 O   0  0  0  0  0  0  0  0  0  0  0  0
   12.8082  -19.3606   22.9012 O   0  0  0  0  0  0  0  0  0  0  0  0
  2  1  1  0
  3  2  1  0
  4  3  1  0
  5  4  1  0
  5  6  1  1
  5  7  1  0
  7  8  2  0
  9 10  1  0
 10 11  2  0
 11 12  1  0
 13 12  2  0
 13 14  1  0
 15 14  1  1
 15 17  1  0
 16  7  1  0
 16 15  1  0
 17 21  1  0
 17 18  2  0
 19 13  1  0
 20 10  1  0
 20 19  2  0
 21 22  1  0
 23 22  1  0
 23 24  1  0
 25 23  2  0
M  END
$$$$
