MYG.pdb
     RDKit          3D

 25 25  0  0  1  0  0  0  0  0999 V2000
    7.5191  -11.6973   19.2477 C   0  0  0  0  0  0  0  0  0  0  0  0
    6.7899  -13.2123   18.6164 S   0  0  0  0  0  0  0  0  0  0  0  0
    7.7305  -14.6562   19.1584 C   0  0  0  0  0  0  0  0  0  0  0  0
    8.3844  -14.4282   20.5023 C   0  0  0  0  0  0  0  0  0  0  0  0
    9.0760  -15.6808   21.0007 C   0  0  2  0  0  0  0  0  0  0  0  0
    8.1436  -16.7691   21.1851 N   0  0  0  0  0  0  0  0  0  0  0  0
    9.7661  -15.4239   22.2811 C   0  0  0  0  0  0  0  0  0  0  0  0
   10.8192  -14.7312   22.3230 O   0  0  0  0  0  0  0  0  0  0  0  0
   11.2164  -14.8573   30.8793 O   0  0  0  0  0  0  0  0  0  0  0  0
   10.6488  -15.0995   29.6483 C   0  0  0  0  0  0  0  0  0  0  0  0
   10.3894  -16.3702   29.2115 C   0  0  0  0  0  0  0  0  0  0  0  0
    9.8186  -16.5687   27.9686 C   0  0  0  0  0  0  0  0  0  0  0  0
    9.4998  -15.5162   27.1481 C   0  0  0  0  0  0  0  0  0  0  0  0
    8.8928  -15.7268   25.8179 C   0  0  0  0  0  0  0  0  0  0  0  0
    9.9417  -15.6846   24.7494 C   0  0  2  0  0  0  0  0  0  0  0  0
    9.2610  -15.9488   23.4836 N   0  0  0  0  0  0  0  0  0  0  0  0
   11.0507  -16.6389   24.9410 C   0  0  0  0  0  0  0  0  0  0  0  0
   11.8659  -16.5208   25.8872 O   0  0  0  0  0  0  0  0  0  0  0  0
    9.7610  -14.2505   27.5898 C   0  0  0  0  0  0  0  0  0  0  0  0
   10.3354  -14.0278   28.8379 C   0  0  0  0  0  0  0  0  0  0  0  0
   11.2366  -17.7391   24.0489 N   0  0  0  0  0  0  0  0  0  0  0  0
   12.2944  -18.6758   24.2901 C   0  0  0  0  0  0  0  0  0  0  0  0
   13.4785  -18.4077   23.4303 C   0  0  0  0  0  0  0  0  0  0  0  0
   14.7354  -18.2891   24.0055 O   0  0  0  0  0  0  0  0  0  0  0  0
   13.4084  -18.2785   22.1800 O   0  0  0  0  0  0  0  0  0  0  0  0
  2  1  1  0
  3  2  1  0
  4  3  1  0
  5  4  1  0
  5  6  1  1
  5  7  1  0
  7  8  2  0
  9 10  1  0
 10 11  2  0
 11 12  1  0
 13 12  2  0
 13 14  1  0
 15 14  1  1
 15 17  1  0
 16  7  1  0
 16 15  1  0
 17 21  1  0
 17 18  2  0
 19 13  1  0
 20 10  1  0
 20 19  2  0
 21 22  1  0
 23 22  1  0
 23 24  1  0
 25 23  2  0
M  END
$$$$
