MYG.pdb
     RDKit          3D

 25 25  0  0  1  0  0  0  0  0999 V2000
    8.7228  -11.7076   19.9629 C   0  0  0  0  0  0  0  0  0  0  0  0
    7.2713  -12.7637   19.9062 S   0  0  0  0  0  0  0  0  0  0  0  0
    7.5327  -14.2723   20.8648 C   0  0  0  0  0  0  0  0  0  0  0  0
    8.7157  -15.0635   20.3549 C   0  0  0  0  0  0  0  0  0  0  0  0
    8.9285  -16.3254   21.1661 C   0  0  2  0  0  0  0  0  0  0  0  0
    7.6943  -17.0512   21.3597 N   0  0  0  0  0  0  0  0  0  0  0  0
    9.5054  -16.0072   22.4881 C   0  0  0  0  0  0  0  0  0  0  0  0
   10.5612  -15.3247   22.5881 O   0  0  0  0  0  0  0  0  0  0  0  0
    6.0150  -10.8104   26.3954 O   0  0  0  0  0  0  0  0  0  0  0  0
    6.5606  -12.0700   26.2860 C   0  0  0  0  0  0  0  0  0  0  0  0
    7.7538  -12.3921   26.8737 C   0  0  0  0  0  0  0  0  0  0  0  0
    8.2658  -13.6687   26.7389 C   0  0  0  0  0  0  0  0  0  0  0  0
    7.6055  -14.6359   26.0241 C   0  0  0  0  0  0  0  0  0  0  0  0
    8.1531  -15.9999   25.8761 C   0  0  0  0  0  0  0  0  0  0  0  0
    9.3468  -15.9912   24.9713 C   0  0  2  0  0  0  0  0  0  0  0  0
    8.8866  -16.4609   23.6663 N   0  0  0  0  0  0  0  0  0  0  0  0
   10.4776  -16.8152   25.4402 C   0  0  0  0  0  0  0  0  0  0  0  0
   11.1579  -16.4912   26.4431 O   0  0  0  0  0  0  0  0  0  0  0  0
    6.4152  -14.3081   25.4401 C   0  0  0  0  0  0  0  0  0  0  0  0
    5.8812  -13.0287   25.5631 C   0  0  0  0  0  0  0  0  0  0  0  0
   10.8401  -18.0199   24.7633 N   0  0  0  0  0  0  0  0  0  0  0  0
   11.9629  -18.7816   25.2254 C   0  0  0  0  0  0  0  0  0  0  0  0
   11.5671  -19.7877   26.2473 C   0  0  0  0  0  0  0  0  0  0  0  0
   11.4820  -21.1278   25.8984 O   0  0  0  0  0  0  0  0  0  0  0  0
   11.2975  -19.4901   27.4404 O   0  0  0  0  0  0  0  0  0  0  0  0
  2  1  1  0
  3  2  1  0
  4  3  1  0
  5  4  1  0
  5  6  1  1
  5  7  1  0
  7  8  2  0
  9 10  1  0
 10 11  2  0
 11 12  1  0
 13 12  2  0
 13 14  1  0
 15 14  1  1
 15 17  1  0
 16  7  1  0
 16 15  1  0
 17 21  1  0
 17 18  2  0
 19 13  1  0
 20 10  1  0
 20 19  2  0
 21 22  1  0
 23 22  1  0
 23 24  1  0
 25 23  2  0
M  END
$$$$
