MYG.pdb
     RDKit          3D

 25 25  0  0  1  0  0  0  0  0999 V2000
    8.2327  -12.0539   19.0769 C   0  0  0  0  0  0  0  0  0  0  0  0
    6.7905  -13.0026   19.5722 S   0  0  0  0  0  0  0  0  0  0  0  0
    7.2763  -14.5807   20.3049 C   0  0  0  0  0  0  0  0  0  0  0  0
    8.6499  -14.5091   20.9324 C   0  0  0  0  0  0  0  0  0  0  0  0
    9.0191  -15.8151   21.6061 C   0  0  2  0  0  0  0  0  0  0  0  0
    7.8946  -16.7201   21.6709 N   0  0  0  0  0  0  0  0  0  0  0  0
    9.5161  -15.5755   22.9763 C   0  0  0  0  0  0  0  0  0  0  0  0
   10.4865  -14.7982   23.1878 O   0  0  0  0  0  0  0  0  0  0  0  0
    6.1476  -10.7244   26.5056 O   0  0  0  0  0  0  0  0  0  0  0  0
    6.6353  -12.0111   26.4538 C   0  0  0  0  0  0  0  0  0  0  0  0
    5.8665  -13.0564   26.0187 C   0  0  0  0  0  0  0  0  0  0  0  0
    6.3955  -14.3326   25.9826 C   0  0  0  0  0  0  0  0  0  0  0  0
    7.6854  -14.5871   26.3750 C   0  0  0  0  0  0  0  0  0  0  0  0
    8.2512  -15.9512   26.3403 C   0  0  0  0  0  0  0  0  0  0  0  0
    9.4363  -16.0051   25.4258 C   0  0  2  0  0  0  0  0  0  0  0  0
    8.9152  -16.2120   24.0764 N   0  0  0  0  0  0  0  0  0  0  0  0
   10.4204  -17.0530   25.7587 C   0  0  0  0  0  0  0  0  0  0  0  0
   10.7937  -17.2557   26.9391 O   0  0  0  0  0  0  0  0  0  0  0  0
    8.4475  -13.5398   26.8080 C   0  0  0  0  0  0  0  0  0  0  0  0
    7.9349  -12.2464   26.8525 C   0  0  0  0  0  0  0  0  0  0  0  0
   10.9871  -17.8798   24.7408 N   0  0  0  0  0  0  0  0  0  0  0  0
   11.9425  -18.8872   25.0968 C   0  0  0  0  0  0  0  0  0  0  0  0
   12.5018  -19.5685   23.8984 C   0  0  0  0  0  0  0  0  0  0  0  0
   13.3477  -20.6569   24.0562 O   0  0  0  0  0  0  0  0  0  0  0  0
   12.2482  -19.2089   22.7190 O   0  0  0  0  0  0  0  0  0  0  0  0
  2  1  1  0
  3  2  1  0
  4  3  1  0
  5  4  1  0
  5  6  1  1
  5  7  1  0
  7  8  2  0
  9 10  1  0
 10 11  2  0
 11 12  1  0
 13 12  2  0
 13 14  1  0
 15 14  1  1
 15 17  1  0
 16  7  1  0
 16 15  1  0
 17 21  1  0
 17 18  2  0
 19 13  1  0
 20 10  1  0
 20 19  2  0
 21 22  1  0
 23 22  1  0
 23 24  1  0
 25 23  2  0
M  END
$$$$
