MYG.pdb
     RDKit          3D

 25 25  0  0  1  0  0  0  0  0999 V2000
    6.1710  -11.5183   27.1969 C   0  0  0  0  0  0  0  0  0  0  0  0
    6.9984  -12.9927   26.5913 S   0  0  0  0  0  0  0  0  0  0  0  0
    5.8771  -14.4090   26.5931 C   0  0  0  0  0  0  0  0  0  0  0  0
    6.5807  -15.6826   26.1827 C   0  0  0  0  0  0  0  0  0  0  0  0
    6.3909  -15.9687   24.7069 C   0  0  2  0  0  0  0  0  0  0  0  0
    5.5301  -17.1087   24.4895 N   0  0  0  0  0  0  0  0  0  0  0  0
    7.6900  -16.2219   24.0511 C   0  0  0  0  0  0  0  0  0  0  0  0
    8.0993  -17.3985   23.8549 O   0  0  0  0  0  0  0  0  0  0  0  0
    6.4252  -13.9728   17.6968 O   0  0  0  0  0  0  0  0  0  0  0  0
    7.3066  -14.0525   18.7517 C   0  0  0  0  0  0  0  0  0  0  0  0
    8.1252  -15.1352   18.9269 C   0  0  0  0  0  0  0  0  0  0  0  0
    8.9955  -15.1746   19.9997 C   0  0  0  0  0  0  0  0  0  0  0  0
    9.0647  -14.1476   20.9068 C   0  0  0  0  0  0  0  0  0  0  0  0
    9.9920  -14.1898   22.0561 C   0  0  0  0  0  0  0  0  0  0  0  0
    9.7354  -15.4049   22.8935 C   0  0  2  0  0  0  0  0  0  0  0  0
    8.4995  -15.1519   23.6311 N   0  0  0  0  0  0  0  0  0  0  0  0
   10.8255  -15.7473   23.8272 C   0  0  0  0  0  0  0  0  0  0  0  0
   10.9058  -15.2272   24.9660 O   0  0  0  0  0  0  0  0  0  0  0  0
    8.2454  -13.0699   20.7265 C   0  0  0  0  0  0  0  0  0  0  0  0
    7.3614  -13.0094   19.6530 C   0  0  0  0  0  0  0  0  0  0  0  0
   11.8356  -16.6902   23.4643 N   0  0  0  0  0  0  0  0  0  0  0  0
   12.8836  -16.9979   24.3925 C   0  0  0  0  0  0  0  0  0  0  0  0
   13.8970  -17.9121   23.8006 C   0  0  0  0  0  0  0  0  0  0  0  0
   14.9013  -17.3978   22.9933 O   0  0  0  0  0  0  0  0  0  0  0  0
   13.8995  -19.1563   23.9921 O   0  0  0  0  0  0  0  0  0  0  0  0
  2  1  1  0
  3  2  1  0
  4  3  1  0
  5  4  1  0
  5  6  1  1
  5  7  1  0
  7  8  2  0
  9 10  1  0
 10 11  2  0
 11 12  1  0
 13 12  2  0
 13 14  1  0
 15 14  1  1
 15 17  1  0
 16  7  1  0
 16 15  1  0
 17 21  1  0
 17 18  2  0
 19 13  1  0
 20 10  1  0
 20 19  2  0
 21 22  1  0
 23 22  1  0
 23 24  1  0
 25 23  2  0
M  END
$$$$
