MYG.pdb
     RDKit          3D

 25 25  0  0  1  0  0  0  0  0999 V2000
    6.6917  -11.5639   18.2415 C   0  0  0  0  0  0  0  0  0  0  0  0
    7.6186  -13.0719   18.5459 S   0  0  0  0  0  0  0  0  0  0  0  0
    7.1662  -13.7976   20.1370 C   0  0  0  0  0  0  0  0  0  0  0  0
    8.0470  -14.9751   20.4878 C   0  0  0  0  0  0  0  0  0  0  0  0
    7.6069  -15.6293   21.7816 C   0  0  2  0  0  0  0  0  0  0  0  0
    6.2607  -15.2482   22.1426 N   0  0  0  0  0  0  0  0  0  0  0  0
    8.5164  -15.2672   22.8876 C   0  0  0  0  0  0  0  0  0  0  0  0
    9.0925  -14.1456   22.9131 O   0  0  0  0  0  0  0  0  0  0  0  0
    5.7598  -11.1492   26.6736 O   0  0  0  0  0  0  0  0  0  0  0  0
    6.5475  -12.2755   26.5878 C   0  0  0  0  0  0  0  0  0  0  0  0
    7.8839  -12.2444   26.8805 C   0  0  0  0  0  0  0  0  0  0  0  0
    8.6380  -13.3983   26.7813 C   0  0  0  0  0  0  0  0  0  0  0  0
    8.0801  -14.5901   26.3930 C   0  0  0  0  0  0  0  0  0  0  0  0
    8.8855  -15.8236   26.2831 C   0  0  0  0  0  0  0  0  0  0  0  0
    9.6829  -15.8189   25.0151 C   0  0  2  0  0  0  0  0  0  0  0  0
    8.7593  -16.1693   23.9383 N   0  0  0  0  0  0  0  0  0  0  0  0
   10.8387  -16.7363   25.0144 C   0  0  0  0  0  0  0  0  0  0  0  0
   10.7724  -17.8804   25.5246 O   0  0  0  0  0  0  0  0  0  0  0  0
    6.7459  -14.6145   26.1023 C   0  0  0  0  0  0  0  0  0  0  0  0
    5.9676  -13.4643   26.1956 C   0  0  0  0  0  0  0  0  0  0  0  0
   12.0831  -16.3508   24.4282 N   0  0  0  0  0  0  0  0  0  0  0  0
   13.1787  -17.2750   24.4200 C   0  0  0  0  0  0  0  0  0  0  0  0
   14.4031  -16.6775   23.8227 C   0  0  0  0  0  0  0  0  0  0  0  0
   15.6385  -16.9032   24.4126 O   0  0  0  0  0  0  0  0  0  0  0  0
   14.3870  -15.9608   22.7880 O   0  0  0  0  0  0  0  0  0  0  0  0
  2  1  1  0
  3  2  1  0
  4  3  1  0
  5  4  1  0
  5  6  1  1
  5  7  1  0
  7  8  2  0
  9 10  1  0
 10 11  2  0
 11 12  1  0
 13 12  2  0
 13 14  1  0
 15 14  1  1
 15 17  1  0
 16  7  1  0
 16 15  1  0
 17 21  1  0
 17 18  2  0
 19 13  1  0
 20 10  1  0
 20 19  2  0
 21 22  1  0
 23 22  1  0
 23 24  1  0
 25 23  2  0
M  END
$$$$
