MYG.pdb
     RDKit          3D

 25 25  0  0  1  0  0  0  0  0999 V2000
    7.6741  -12.0607   19.9526 C   0  0  0  0  0  0  0  0  0  0  0  0
    7.6029  -13.5239   18.9136 S   0  0  0  0  0  0  0  0  0  0  0  0
    7.0360  -14.9574   19.8553 C   0  0  0  0  0  0  0  0  0  0  0  0
    8.1738  -15.6370   20.5827 C   0  0  0  0  0  0  0  0  0  0  0  0
    8.9574  -14.6523   21.4267 C   0  0  2  0  0  0  0  0  0  0  0  0
   10.2035  -14.2809   20.7966 N   0  0  0  0  0  0  0  0  0  0  0  0
    9.2488  -15.2200   22.7588 C   0  0  0  0  0  0  0  0  0  0  0  0
   10.4365  -15.4188   23.1337 O   0  0  0  0  0  0  0  0  0  0  0  0
    6.7049  -10.4855   27.0442 O   0  0  0  0  0  0  0  0  0  0  0  0
    6.8715  -11.8218   26.7564 C   0  0  0  0  0  0  0  0  0  0  0  0
    7.9071  -12.5480   27.2789 C   0  0  0  0  0  0  0  0  0  0  0  0
    8.0373  -13.8874   26.9641 C   0  0  0  0  0  0  0  0  0  0  0  0
    7.1479  -14.5197   26.1323 C   0  0  0  0  0  0  0  0  0  0  0  0
    7.2877  -15.9504   25.7920 C   0  0  0  0  0  0  0  0  0  0  0  0
    8.4935  -16.1701   24.9310 C   0  0  2  0  0  0  0  0  0  0  0  0
    8.2039  -15.5517   23.6390 N   0  0  0  0  0  0  0  0  0  0  0  0
    8.8655  -17.5861   24.7467 C   0  0  0  0  0  0  0  0  0  0  0  0
    8.0485  -18.4303   24.3067 O   0  0  0  0  0  0  0  0  0  0  0  0
    6.1166  -13.7894   25.6142 C   0  0  0  0  0  0  0  0  0  0  0  0
    5.9665  -12.4394   25.9180 C   0  0  0  0  0  0  0  0  0  0  0  0
   10.1789  -18.0488   25.0654 N   0  0  0  0  0  0  0  0  0  0  0  0
   10.5322  -19.4131   24.8036 C   0  0  0  0  0  0  0  0  0  0  0  0
   11.8941  -19.7388   25.3057 C   0  0  0  0  0  0  0  0  0  0  0  0
   12.1487  -20.9917   25.8447 O   0  0  0  0  0  0  0  0  0  0  0  0
   12.8551  -18.9264   25.2708 O   0  0  0  0  0  0  0  0  0  0  0  0
  2  1  1  0
  3  2  1  0
  4  3  1  0
  5  4  1  0
  5  6  1  6
  5  7  1  0
  7  8  2  0
  9 10  1  0
 10 11  2  0
 11 12  1  0
 13 12  2  0
 13 14  1  0
 15 14  1  1
 15 17  1  0
 16  7  1  0
 16 15  1  0
 17 21  1  0
 17 18  2  0
 19 13  1  0
 20 10  1  0
 20 19  2  0
 21 22  1  0
 23 22  1  0
 23 24  1  0
 25 23  2  0
M  END
$$$$
