MYG.pdb
     RDKit          3D

 25 25  0  0  1  0  0  0  0  0999 V2000
    7.5155  -12.9492   19.0192 C   0  0  0  0  0  0  0  0  0  0  0  0
    8.3942  -13.9553   17.8187 S   0  0  0  0  0  0  0  0  0  0  0  0
    7.8369  -15.6724   17.8841 C   0  0  0  0  0  0  0  0  0  0  0  0
    8.6328  -16.4834   18.8813 C   0  0  0  0  0  0  0  0  0  0  0  0
    7.7855  -16.8814   20.0727 C   0  0  2  0  0  0  0  0  0  0  0  0
    6.4026  -17.0788   19.7034 N   0  0  0  0  0  0  0  0  0  0  0  0
    7.8530  -15.8528   21.1305 C   0  0  0  0  0  0  0  0  0  0  0  0
    7.7745  -14.6260   20.8486 O   0  0  0  0  0  0  0  0  0  0  0  0
    6.8200  -11.3459   28.3331 O   0  0  0  0  0  0  0  0  0  0  0  0
    6.9425  -12.3900   27.4437 C   0  0  0  0  0  0  0  0  0  0  0  0
    7.8838  -13.3697   27.6075 C   0  0  0  0  0  0  0  0  0  0  0  0
    7.9725  -14.4002   26.6908 C   0  0  0  0  0  0  0  0  0  0  0  0
    7.1342  -14.4719   25.6070 C   0  0  0  0  0  0  0  0  0  0  0  0
    7.2300  -15.5708   24.6245 C   0  0  0  0  0  0  0  0  0  0  0  0
    8.1621  -15.2008   23.5119 C   0  0  2  0  0  0  0  0  0  0  0  0
    8.0070  -16.2221   22.4783 N   0  0  0  0  0  0  0  0  0  0  0  0
    9.5785  -15.0893   23.9102 C   0  0  0  0  0  0  0  0  0  0  0  0
    9.9680  -14.2165   24.7227 O   0  0  0  0  0  0  0  0  0  0  0  0
    6.1969  -13.4912   25.4493 C   0  0  0  0  0  0  0  0  0  0  0  0
    6.0900  -12.4443   26.3603 C   0  0  0  0  0  0  0  0  0  0  0  0
   10.5636  -15.9781   23.3804 N   0  0  0  0  0  0  0  0  0  0  0  0
   11.9245  -15.8682   23.8166 C   0  0  0  0  0  0  0  0  0  0  0  0
   12.8181  -16.8062   23.0853 C   0  0  0  0  0  0  0  0  0  0  0  0
   14.0741  -16.3830   22.6750 O   0  0  0  0  0  0  0  0  0  0  0  0
   12.4964  -17.9913   22.8084 O   0  0  0  0  0  0  0  0  0  0  0  0
  2  1  1  0
  3  2  1  0
  4  3  1  0
  5  4  1  0
  5  6  1  6
  5  7  1  0
  7  8  2  0
  9 10  1  0
 10 11  2  0
 11 12  1  0
 13 12  2  0
 13 14  1  0
 15 14  1  1
 15 17  1  0
 16  7  1  0
 16 15  1  0
 17 21  1  0
 17 18  2  0
 19 13  1  0
 20 10  1  0
 20 19  2  0
 21 22  1  0
 23 22  1  0
 23 24  1  0
 25 23  2  0
M  END
$$$$
