MYG.pdb
     RDKit          3D

 25 25  0  0  1  0  0  0  0  0999 V2000
    8.0782  -11.8401   20.0278 C   0  0  0  0  0  0  0  0  0  0  0  0
    6.9309  -13.1587   19.6154 S   0  0  0  0  0  0  0  0  0  0  0  0
    7.3379  -14.6727   20.5128 C   0  0  0  0  0  0  0  0  0  0  0  0
    8.7714  -14.6727   20.9928 C   0  0  0  0  0  0  0  0  0  0  0  0
    9.1013  -15.9428   21.7503 C   0  0  2  0  0  0  0  0  0  0  0  0
    7.9468  -16.8014   21.8831 N   0  0  0  0  0  0  0  0  0  0  0  0
    9.6185  -15.6296   23.0980 C   0  0  0  0  0  0  0  0  0  0  0  0
   10.5798  -14.8283   23.2540 O   0  0  0  0  0  0  0  0  0  0  0  0
    6.0635  -10.7340   26.3385 O   0  0  0  0  0  0  0  0  0  0  0  0
    6.6579  -11.9749   26.3939 C   0  0  0  0  0  0  0  0  0  0  0  0
    7.8377  -12.1801   27.0563 C   0  0  0  0  0  0  0  0  0  0  0  0
    8.4001  -13.4422   27.0872 C   0  0  0  0  0  0  0  0  0  0  0  0
    7.8037  -14.5100   26.4655 C   0  0  0  0  0  0  0  0  0  0  0  0
    8.4053  -15.8588   26.4946 C   0  0  0  0  0  0  0  0  0  0  0  0
    9.5798  -15.9301   25.5677 C   0  0  2  0  0  0  0  0  0  0  0  0
    9.0473  -16.2212   24.2384 N   0  0  0  0  0  0  0  0  0  0  0  0
   10.5955  -16.9334   25.9411 C   0  0  0  0  0  0  0  0  0  0  0  0
   11.2945  -16.8102   26.9755 O   0  0  0  0  0  0  0  0  0  0  0  0
    6.6264  -14.2986   25.8061 C   0  0  0  0  0  0  0  0  0  0  0  0
    6.0424  -13.0360   25.7624 C   0  0  0  0  0  0  0  0  0  0  0  0
   10.8203  -18.0888   25.1315 N   0  0  0  0  0  0  0  0  0  0  0  0
   11.8151  -19.0442   25.5214 C   0  0  0  0  0  0  0  0  0  0  0  0
   11.3492  -19.9024   26.6437 C   0  0  0  0  0  0  0  0  0  0  0  0
   12.1922  -20.8734   27.1648 O   0  0  0  0  0  0  0  0  0  0  0  0
   10.2072  -19.7993   27.1633 O   0  0  0  0  0  0  0  0  0  0  0  0
  2  1  1  0
  3  2  1  0
  4  3  1  0
  5  4  1  0
  5  6  1  1
  5  7  1  0
  7  8  2  0
  9 10  1  0
 10 11  2  0
 11 12  1  0
 13 12  2  0
 13 14  1  0
 15 14  1  1
 15 17  1  0
 16  7  1  0
 16 15  1  0
 17 21  1  0
 17 18  2  0
 19 13  1  0
 20 10  1  0
 20 19  2  0
 21 22  1  0
 23 22  1  0
 23 24  1  0
 25 23  2  0
M  END
$$$$
