VKG.pdb
     RDKit          3D

 21 20  0  0  1  0  0  0  0  0999 V2000
    9.2091  -15.3602   18.9883 C   0  0  0  0  0  0  0  0  0  0  0  0
    7.7197  -14.9907   18.8844 C   0  0  2  0  0  0  0  0  0  0  0  0
    7.4020  -14.9868   17.4220 C   0  0  0  0  0  0  0  0  0  0  0  0
    7.5929  -13.6313   19.5461 C   0  0  2  0  0  0  0  0  0  0  0  0
    8.4839  -12.7513   18.7710 N   0  0  0  0  0  0  0  0  0  0  0  0
    8.0541  -13.6299   20.9579 C   0  0  0  0  0  0  0  0  0  0  0  0
    9.2612  -13.3978   21.1781 O   0  0  0  0  0  0  0  0  0  0  0  0
    7.1734  -13.8795   22.0390 N   0  0  0  0  0  0  0  0  0  0  0  0
    7.5710  -13.9578   23.4328 C   0  0  1  0  0  0  0  0  0  0  0  0
    6.3858  -13.6901   24.3082 C   0  0  0  0  0  0  0  0  0  0  0  0
    6.6805  -13.6620   25.7739 C   0  0  0  0  0  0  0  0  0  0  0  0
    6.2172  -12.4098   26.4706 C   0  0  0  0  0  0  0  0  0  0  0  0
    6.5028  -12.4160   27.9365 C   0  0  0  0  0  0  0  0  0  0  0  0
    6.0804  -11.2229   28.6150 N   0  0  0  0  0  0  0  0  0  0  0  0
    8.2525  -15.2294   23.7350 C   0  0  0  0  0  0  0  0  0  0  0  0
    7.7156  -16.3070   23.4161 O   0  0  0  0  0  0  0  0  0  0  0  0
    9.5058  -15.2544   24.3819 N   0  0  0  0  0  0  0  0  0  0  0  0
   10.0100  -16.5322   24.8459 C   0  0  0  0  0  0  0  0  0  0  0  0
   11.2375  -16.9404   24.1505 C   0  0  0  0  0  0  0  0  0  0  0  0
   12.1888  -16.1393   24.0430 O   0  0  0  0  0  0  0  0  0  0  0  0
   11.3592  -18.2023   23.6099 O   0  0  0  0  0  0  0  0  0  0  0  0
  2  4  1  0
  2  1  1  6
  3  2  1  0
  4  5  1  6
  6  4  1  0
  7  6  2  0
  8  6  1  0
  9  8  1  0
  9 10  1  1
 10 11  1  0
 11 12  1  0
 13 14  1  0
 13 12  1  0
 15 17  1  0
 15  9  1  0
 16 15  2  0
 18 19  1  0
 18 17  1  0
 19 21  1  0
 20 19  2  0
M  END
$$$$
