VKG.pdb
     RDKit          3D

 21 20  0  0  1  0  0  0  0  0999 V2000
    7.3776  -13.7628   21.5999 C   0  0  0  0  0  0  0  0  0  0  0  0
    8.1712  -13.4082   20.3310 C   0  0  2  0  0  0  0  0  0  0  0  0
    7.1479  -13.1039   19.2822 C   0  0  0  0  0  0  0  0  0  0  0  0
    9.0186  -14.6299   20.0289 C   0  0  2  0  0  0  0  0  0  0  0  0
    8.0488  -15.7202   19.8299 N   0  0  0  0  0  0  0  0  0  0  0  0
    9.9134  -15.0055   21.1534 C   0  0  0  0  0  0  0  0  0  0  0  0
   10.7994  -14.1929   21.4916 O   0  0  0  0  0  0  0  0  0  0  0  0
    9.7865  -16.2390   21.8382 N   0  0  0  0  0  0  0  0  0  0  0  0
   10.7018  -16.7215   22.8562 C   0  0  1  0  0  0  0  0  0  0  0  0
   10.1077  -17.9138   23.5404 C   0  0  0  0  0  0  0  0  0  0  0  0
    8.9308  -17.6160   24.4134 C   0  0  0  0  0  0  0  0  0  0  0  0
    8.2921  -18.8363   25.0224 C   0  0  0  0  0  0  0  0  0  0  0  0
    7.0518  -18.5244   25.7936 C   0  0  0  0  0  0  0  0  0  0  0  0
    6.3833  -19.6850   26.3115 N   0  0  0  0  0  0  0  0  0  0  0  0
   12.0479  -16.9659   22.3077 C   0  0  0  0  0  0  0  0  0  0  0  0
   12.1771  -17.6451   21.2718 O   0  0  0  0  0  0  0  0  0  0  0  0
   13.2005  -16.4463   22.9334 N   0  0  0  0  0  0  0  0  0  0  0  0
   14.4942  -16.7880   22.3748 C   0  0  0  0  0  0  0  0  0  0  0  0
   15.6000  -16.0935   23.0471 C   0  0  0  0  0  0  0  0  0  0  0  0
   15.3650  -15.3279   24.0046 O   0  0  0  0  0  0  0  0  0  0  0  0
   16.9033  -16.2734   22.6365 O   0  0  0  0  0  0  0  0  0  0  0  0
  2  4  1  0
  2  1  1  1
  3  2  1  0
  4  5  1  1
  6  4  1  0
  7  6  2  0
  8  6  1  0
  9  8  1  0
  9 10  1  6
 10 11  1  0
 11 12  1  0
 13 14  1  0
 13 12  1  0
 15 17  1  0
 15  9  1  0
 16 15  2  0
 18 19  1  0
 18 17  1  0
 19 21  1  0
 20 19  2  0
M  END
$$$$
