VKG.pdb
     RDKit          3D

 21 20  0  0  1  0  0  0  0  0999 V2000
    1.0462  -19.9099   21.6355 C   0  0  0  0  0  0  0  0  0  0  0  0
    2.3080  -19.5536   22.4395 C   0  0  2  0  0  0  0  0  0  0  0  0
    2.5765  -18.1087   22.1570 C   0  0  0  0  0  0  0  0  0  0  0  0
    3.3883  -20.4913   21.9340 C   0  0  2  0  0  0  0  0  0  0  0  0
    2.8097  -21.8389   22.0692 N   0  0  0  0  0  0  0  0  0  0  0  0
    4.6293  -20.4363   22.7482 C   0  0  0  0  0  0  0  0  0  0  0  0
    4.5868  -20.8930   23.9098 O   0  0  0  0  0  0  0  0  0  0  0  0
    5.8363  -19.8898   22.2470 N   0  0  0  0  0  0  0  0  0  0  0  0
    7.0742  -19.7833   22.9974 C   0  0  1  0  0  0  0  0  0  0  0  0
    8.1028  -20.6930   22.3998 C   0  0  0  0  0  0  0  0  0  0  0  0
    8.7184  -20.1979   21.1303 C   0  0  0  0  0  0  0  0  0  0  0  0
    9.7213  -21.1433   20.5234 C   0  0  0  0  0  0  0  0  0  0  0  0
   10.3229  -20.6252   19.2584 C   0  0  0  0  0  0  0  0  0  0  0  0
   11.3543  -21.4665   18.7193 N   0  0  0  0  0  0  0  0  0  0  0  0
    7.5216  -18.3838   23.1156 C   0  0  0  0  0  0  0  0  0  0  0  0
    7.2620  -17.5750   22.2048 O   0  0  0  0  0  0  0  0  0  0  0  0
    8.2424  -17.9368   24.2428 N   0  0  0  0  0  0  0  0  0  0  0  0
    8.6524  -16.5466   24.2846 C   0  0  0  0  0  0  0  0  0  0  0  0
   10.0750  -16.3683   23.9661 C   0  0  0  0  0  0  0  0  0  0  0  0
   10.7752  -17.3571   23.6656 O   0  0  0  0  0  0  0  0  0  0  0  0
   10.6558  -15.1188   23.9932 O   0  0  0  0  0  0  0  0  0  0  0  0
  2  4  1  0
  2  1  1  6
  3  2  1  0
  4  5  1  1
  6  4  1  0
  7  6  2  0
  8  6  1  0
  9  8  1  0
  9 10  1  6
 10 11  1  0
 11 12  1  0
 13 14  1  0
 13 12  1  0
 15 17  1  0
 15  9  1  0
 16 15  2  0
 18 19  1  0
 18 17  1  0
 19 21  1  0
 20 19  2  0
M  END
$$$$
