VKG.pdb
     RDKit          3D

 21 20  0  0  1  0  0  0  0  0999 V2000
    7.9226  -13.0127   21.4812 C   0  0  0  0  0  0  0  0  0  0  0  0
    8.0097  -13.5131   20.0294 C   0  0  2  0  0  0  0  0  0  0  0  0
    7.0926  -12.6330   19.2394 C   0  0  0  0  0  0  0  0  0  0  0  0
    7.5795  -14.9672   20.0760 C   0  0  2  0  0  0  0  0  0  0  0  0
    6.1678  -14.9285   20.4938 N   0  0  0  0  0  0  0  0  0  0  0  0
    8.3368  -15.7626   21.0760 C   0  0  0  0  0  0  0  0  0  0  0  0
    7.9821  -15.6890   22.2711 O   0  0  0  0  0  0  0  0  0  0  0  0
    9.4294  -16.5875   20.7122 N   0  0  0  0  0  0  0  0  0  0  0  0
   10.2248  -17.3694   21.6411 C   0  0  1  0  0  0  0  0  0  0  0  0
   10.5193  -18.7107   21.0437 C   0  0  0  0  0  0  0  0  0  0  0  0
    9.3209  -19.5772   20.8226 C   0  0  0  0  0  0  0  0  0  0  0  0
    9.5844  -20.7830   19.9596 C   0  0  0  0  0  0  0  0  0  0  0  0
    8.3926  -21.6715   19.8162 C   0  0  0  0  0  0  0  0  0  0  0  0
    8.6077  -22.7952   18.9483 N   0  0  0  0  0  0  0  0  0  0  0  0
   11.4296  -16.6399   22.0760 C   0  0  0  0  0  0  0  0  0  0  0  0
   11.8911  -15.7309   21.3605 O   0  0  0  0  0  0  0  0  0  0  0  0
   12.0766  -16.9500   23.2905 N   0  0  0  0  0  0  0  0  0  0  0  0
   13.2159  -16.1437   23.6832 C   0  0  0  0  0  0  0  0  0  0  0  0
   13.8224  -16.5989   24.9410 C   0  0  0  0  0  0  0  0  0  0  0  0
   13.3189  -17.5554   25.5654 O   0  0  0  0  0  0  0  0  0  0  0  0
   14.9466  -15.9842   25.4485 O   0  0  0  0  0  0  0  0  0  0  0  0
  2  4  1  0
  2  1  1  1
  3  2  1  0
  4  5  1  1
  6  4  1  0
  7  6  2  0
  8  6  1  0
  9  8  1  0
  9 10  1  6
 10 11  1  0
 11 12  1  0
 13 14  1  0
 13 12  1  0
 15 17  1  0
 15  9  1  0
 16 15  2  0
 18 19  1  0
 18 17  1  0
 19 21  1  0
 20 19  2  0
M  END
$$$$
