VKG.pdb
     RDKit          3D

 21 20  0  0  1  0  0  0  0  0999 V2000
    8.7050  -22.3094   20.7662 C   0  0  0  0  0  0  0  0  0  0  0  0
    9.6535  -21.1054   20.8941 C   0  0  2  0  0  0  0  0  0  0  0  0
   10.1554  -21.1301   22.3038 C   0  0  0  0  0  0  0  0  0  0  0  0
    8.8103  -19.8887   20.5616 C   0  0  2  0  0  0  0  0  0  0  0  0
    8.3726  -20.1031   19.1719 N   0  0  0  0  0  0  0  0  0  0  0  0
    9.5802  -18.6196   20.6141 C   0  0  0  0  0  0  0  0  0  0  0  0
   10.4898  -18.4528   19.7748 O   0  0  0  0  0  0  0  0  0  0  0  0
    9.3108  -17.6135   21.5742 N   0  0  0  0  0  0  0  0  0  0  0  0
   10.0214  -16.3520   21.6767 C   0  0  1  0  0  0  0  0  0  0  0  0
    9.0378  -15.2230   21.7020 C   0  0  0  0  0  0  0  0  0  0  0  0
    8.2238  -15.0704   20.4571 C   0  0  0  0  0  0  0  0  0  0  0  0
    7.7536  -13.6633   20.1981 C   0  0  0  0  0  0  0  0  0  0  0  0
    6.9029  -13.5463   18.9762 C   0  0  0  0  0  0  0  0  0  0  0  0
    6.4169  -12.2171   18.7328 N   0  0  0  0  0  0  0  0  0  0  0  0
   10.9578  -16.3443   22.8150 C   0  0  0  0  0  0  0  0  0  0  0  0
   10.5238  -16.5076   23.9709 O   0  0  0  0  0  0  0  0  0  0  0  0
   12.3425  -16.1541   22.6246 N   0  0  0  0  0  0  0  0  0  0  0  0
   13.1932  -16.1042   23.7977 C   0  0  0  0  0  0  0  0  0  0  0  0
   14.6204  -16.0397   23.4571 C   0  0  0  0  0  0  0  0  0  0  0  0
   15.4709  -15.8975   24.3598 O   0  0  0  0  0  0  0  0  0  0  0  0
   15.0413  -16.1342   22.1482 O   0  0  0  0  0  0  0  0  0  0  0  0
  2  4  1  0
  2  1  1  1
  3  2  1  0
  4  5  1  6
  6  4  1  0
  7  6  2  0
  8  6  1  0
  9  8  1  0
  9 10  1  1
 10 11  1  0
 11 12  1  0
 13 14  1  0
 13 12  1  0
 15 17  1  0
 15  9  1  0
 16 15  2  0
 18 19  1  0
 18 17  1  0
 19 21  1  0
 20 19  2  0
M  END
$$$$
