VKG.pdb
     RDKit          3D

 21 20  0  0  1  0  0  0  0  0999 V2000
    7.9738  -13.0673   27.2844 C   0  0  0  0  0  0  0  0  0  0  0  0
    7.1358  -12.3059   26.2434 C   0  0  2  0  0  0  0  0  0  0  0  0
    6.3222  -11.3179   27.0190 C   0  0  0  0  0  0  0  0  0  0  0  0
    6.3100  -13.3640   25.5361 C   0  0  2  0  0  0  0  0  0  0  0  0
    5.6006  -14.0711   26.6158 N   0  0  0  0  0  0  0  0  0  0  0  0
    7.1418  -14.3527   24.8034 C   0  0  0  0  0  0  0  0  0  0  0  0
    7.2377  -15.5030   25.2800 O   0  0  0  0  0  0  0  0  0  0  0  0
    7.8141  -14.0276   23.5997 N   0  0  0  0  0  0  0  0  0  0  0  0
    8.6223  -14.9512   22.8246 C   0  0  1  0  0  0  0  0  0  0  0  0
    8.9894  -14.3206   21.5168 C   0  0  0  0  0  0  0  0  0  0  0  0
    7.8778  -14.2494   20.5192 C   0  0  0  0  0  0  0  0  0  0  0  0
    8.3042  -13.7717   19.1561 C   0  0  0  0  0  0  0  0  0  0  0  0
    7.1711  -13.6792   18.1876 C   0  0  0  0  0  0  0  0  0  0  0  0
    7.5624  -13.2424   16.8768 N   0  0  0  0  0  0  0  0  0  0  0  0
    9.7833  -15.4366   23.5920 C   0  0  0  0  0  0  0  0  0  0  0  0
   10.4178  -14.6459   24.3155 O   0  0  0  0  0  0  0  0  0  0  0  0
   10.1957  -16.7840   23.5249 N   0  0  0  0  0  0  0  0  0  0  0  0
   11.3112  -17.1993   24.3529 C   0  0  0  0  0  0  0  0  0  0  0  0
   12.6017  -17.0795   23.6620 C   0  0  0  0  0  0  0  0  0  0  0  0
   12.6487  -16.6115   22.5057 O   0  0  0  0  0  0  0  0  0  0  0  0
   13.7715  -17.4778   24.2722 O   0  0  0  0  0  0  0  0  0  0  0  0
  2  4  1  0
  2  1  1  1
  3  2  1  0
  4  5  1  1
  6  4  1  0
  7  6  2  0
  8  6  1  0
  9  8  1  0
  9 10  1  6
 10 11  1  0
 11 12  1  0
 13 14  1  0
 13 12  1  0
 15 17  1  0
 15  9  1  0
 16 15  2  0
 18 19  1  0
 18 17  1  0
 19 21  1  0
 20 19  2  0
M  END
$$$$
