VKG.pdb
     RDKit          3D

 21 20  0  0  1  0  0  0  0  0999 V2000
    8.2024  -15.0010   14.9262 C   0  0  0  0  0  0  0  0  0  0  0  0
    9.2754  -14.8326   16.0152 C   0  0  2  0  0  0  0  0  0  0  0  0
    9.8668  -16.1923   16.2182 C   0  0  0  0  0  0  0  0  0  0  0  0
    8.5404  -14.2930   17.2278 C   0  0  2  0  0  0  0  0  0  0  0  0
    8.1111  -12.9399   16.8358 N   0  0  0  0  0  0  0  0  0  0  0  0
    9.4102  -14.1741   18.4258 C   0  0  0  0  0  0  0  0  0  0  0  0
   10.3064  -13.3044   18.4133 O   0  0  0  0  0  0  0  0  0  0  0  0
    9.2489  -15.0069   19.5603 N   0  0  0  0  0  0  0  0  0  0  0  0
   10.0853  -14.9662   20.7459 C   0  0  1  0  0  0  0  0  0  0  0  0
    9.4481  -15.7698   21.8371 C   0  0  0  0  0  0  0  0  0  0  0  0
   10.2688  -15.9048   23.0797 C   0  0  0  0  0  0  0  0  0  0  0  0
    9.5407  -15.5253   24.3422 C   0  0  0  0  0  0  0  0  0  0  0  0
   10.3635  -15.7199   25.5732 C   0  0  0  0  0  0  0  0  0  0  0  0
    9.6340  -15.5276   26.7951 N   0  0  0  0  0  0  0  0  0  0  0  0
   11.4719  -15.3689   20.4494 C   0  0  0  0  0  0  0  0  0  0  0  0
   11.6858  -16.4137   19.8060 O   0  0  0  0  0  0  0  0  0  0  0  0
   12.5690  -14.5943   20.8809 N   0  0  0  0  0  0  0  0  0  0  0  0
   13.8997  -15.0159   20.4884 C   0  0  0  0  0  0  0  0  0  0  0  0
   14.7101  -15.4604   21.6298 C   0  0  0  0  0  0  0  0  0  0  0  0
   14.1579  -15.7499   22.7113 O   0  0  0  0  0  0  0  0  0  0  0  0
   16.0805  -15.5646   21.5277 O   0  0  0  0  0  0  0  0  0  0  0  0
  2  4  1  0
  2  1  1  6
  3  2  1  0
  4  5  1  6
  6  4  1  0
  7  6  2  0
  8  6  1  0
  9  8  1  0
  9 10  1  1
 10 11  1  0
 11 12  1  0
 13 14  1  0
 13 12  1  0
 15 17  1  0
 15  9  1  0
 16 15  2  0
 18 19  1  0
 18 17  1  0
 19 21  1  0
 20 19  2  0
M  END
$$$$
