VKG.pdb
     RDKit          3D

 21 20  0  0  1  0  0  0  0  0999 V2000
    7.2309  -21.4142   18.7526 C   0  0  0  0  0  0  0  0  0  0  0  0
    6.8004  -21.2384   20.2187 C   0  0  2  0  0  0  0  0  0  0  0  0
    7.9680  -21.6833   21.0423 C   0  0  0  0  0  0  0  0  0  0  0  0
    5.5646  -22.1029   20.3841 C   0  0  2  0  0  0  0  0  0  0  0  0
    4.6810  -21.7123   19.2725 N   0  0  0  0  0  0  0  0  0  0  0  0
    4.8461  -21.8470   21.6587 C   0  0  0  0  0  0  0  0  0  0  0  0
    4.3625  -20.7098   21.8387 O   0  0  0  0  0  0  0  0  0  0  0  0
    4.6986  -22.8439   22.6542 N   0  0  0  0  0  0  0  0  0  0  0  0
    4.1530  -22.6187   23.9802 C   0  0  1  0  0  0  0  0  0  0  0  0
    2.8904  -23.4074   24.1437 C   0  0  0  0  0  0  0  0  0  0  0  0
    1.6800  -22.7934   23.5161 C   0  0  0  0  0  0  0  0  0  0  0  0
    0.4655  -22.7794   24.4065 C   0  0  0  0  0  0  0  0  0  0  0  0
   -0.7389  -22.1954   23.7441 C   0  0  0  0  0  0  0  0  0  0  0  0
   -1.9031  -22.1599   24.5841 N   0  0  0  0  0  0  0  0  0  0  0  0
    5.1517  -22.8793   25.0325 C   0  0  0  0  0  0  0  0  0  0  0  0
    5.5326  -24.0459   25.2452 O   0  0  0  0  0  0  0  0  0  0  0  0
    5.6887  -21.8318   25.8099 N   0  0  0  0  0  0  0  0  0  0  0  0
    6.7417  -22.1518   26.7539 C   0  0  0  0  0  0  0  0  0  0  0  0
    8.0573  -22.2715   26.1121 C   0  0  0  0  0  0  0  0  0  0  0  0
    8.2784  -23.2043   25.3127 O   0  0  0  0  0  0  0  0  0  0  0  0
    9.0605  -21.3649   26.3787 O   0  0  0  0  0  0  0  0  0  0  0  0
  2  4  1  0
  2  1  1  6
  3  2  1  0
  4  5  1  6
  6  4  1  0
  7  6  2  0
  8  6  1  0
  9  8  1  0
  9 10  1  1
 10 11  1  0
 11 12  1  0
 13 14  1  0
 13 12  1  0
 15 17  1  0
 15  9  1  0
 16 15  2  0
 18 19  1  0
 18 17  1  0
 19 21  1  0
 20 19  2  0
M  END
$$$$
