VKG.pdb
     RDKit          3D

 21 20  0  0  1  0  0  0  0  0999 V2000
    7.5412  -13.8533   18.3796 C   0  0  0  0  0  0  0  0  0  0  0  0
    7.7092  -13.5933   19.8862 C   0  0  2  0  0  0  0  0  0  0  0  0
    8.4636  -12.3054   19.9957 C   0  0  0  0  0  0  0  0  0  0  0  0
    8.4622  -14.7960   20.4231 C   0  0  2  0  0  0  0  0  0  0  0  0
    7.5208  -15.9203   20.2869 N   0  0  0  0  0  0  0  0  0  0  0  0
    8.8186  -14.6616   21.8587 C   0  0  0  0  0  0  0  0  0  0  0  0
    9.7485  -13.8842   22.1596 O   0  0  0  0  0  0  0  0  0  0  0  0
    8.1404  -15.3795   22.8743 N   0  0  0  0  0  0  0  0  0  0  0  0
    8.5099  -15.3811   24.2780 C   0  0  1  0  0  0  0  0  0  0  0  0
    7.3534  -14.9044   25.1015 C   0  0  0  0  0  0  0  0  0  0  0  0
    7.3391  -13.4341   25.3735 C   0  0  0  0  0  0  0  0  0  0  0  0
    6.2539  -12.9942   26.3205 C   0  0  0  0  0  0  0  0  0  0  0  0
    6.3558  -11.5529   26.6983 C   0  0  0  0  0  0  0  0  0  0  0  0
    5.3428  -11.1217   27.6202 N   0  0  0  0  0  0  0  0  0  0  0  0
    9.0359  -16.6911   24.7021 C   0  0  0  0  0  0  0  0  0  0  0  0
    8.3803  -17.7236   24.4672 O   0  0  0  0  0  0  0  0  0  0  0  0
   10.2718  -16.8030   25.3730 N   0  0  0  0  0  0  0  0  0  0  0  0
   10.7497  -18.1304   25.7080 C   0  0  0  0  0  0  0  0  0  0  0  0
   11.3300  -18.1974   27.0555 C   0  0  0  0  0  0  0  0  0  0  0  0
   11.3578  -17.1768   27.7737 O   0  0  0  0  0  0  0  0  0  0  0  0
   11.8487  -19.3765   27.5455 O   0  0  0  0  0  0  0  0  0  0  0  0
  2  4  1  0
  2  1  1  6
  3  2  1  0
  4  5  1  1
  6  4  1  0
  7  6  2  0
  8  6  1  0
  9  8  1  0
  9 10  1  1
 10 11  1  0
 11 12  1  0
 13 14  1  0
 13 12  1  0
 15 17  1  0
 15  9  1  0
 16 15  2  0
 18 19  1  0
 18 17  1  0
 19 21  1  0
 20 19  2  0
M  END
$$$$
