SAL.pdb
     RDKit          3D

 20 19  0  0  1  0  0  0  0  0999 V2000
   26.3824  -24.2255  -16.9847 O   0  0  0  0  0  0  0  0  0  0  0  0
   27.1148  -23.5401  -17.9302 C   0  0  0  0  0  0  0  0  0  0  0  0
   28.2179  -22.7484  -17.2242 C   0  0  2  0  0  0  0  0  0  0  0  0
   29.1902  -23.6696  -16.6489 N   0  0  0  0  0  0  0  0  0  0  0  0
   27.6738  -21.8342  -16.1866 C   0  0  0  0  0  0  0  0  0  0  0  0
   28.0682  -22.0469  -14.9833 O   0  0  0  0  0  0  0  0  0  0  0  0
   25.6887  -18.6808  -16.1021 C   0  0  0  0  0  0  0  0  0  0  0  0
   26.4189  -19.8610  -15.4459 C   0  0  2  0  0  0  0  0  0  0  0  0
   26.7753  -20.7857  -16.4833 N   0  0  0  0  0  0  0  0  0  0  0  0
   25.4404  -20.4463  -14.4853 C   0  0  0  0  0  0  0  0  0  0  0  0
   24.7089  -21.3824  -14.8971 O   0  0  0  0  0  0  0  0  0  0  0  0
   26.7013  -21.5234  -10.5823 C   0  0  0  0  0  0  0  0  0  0  0  0
   25.3516  -21.0426   -9.8986 C   0  0  1  0  0  0  0  0  0  0  0  0
   25.8108  -20.4419   -8.5847 C   0  0  0  0  0  0  0  0  0  0  0  0
   24.7005  -20.1023  -10.8455 C   0  0  0  0  0  0  0  0  0  0  0  0
   24.3618  -20.5988  -12.1864 C   0  0  2  0  0  0  0  0  0  0  0  0
   25.3093  -20.0009  -13.1689 N   0  0  0  0  0  0  0  0  0  0  0  0
   23.0251  -20.3025  -12.6638 C   0  0  0  0  0  0  0  0  0  0  0  0
   22.6443  -19.3011  -13.3164 O   0  0  0  0  0  0  0  0  0  0  0  0
   21.9880  -21.2369  -12.3792 O   0  0  0  0  0  0  0  0  0  0  0  0
  2  1  1  0
  3  2  1  0
  3  5  1  0
  3  4  1  1
  5  6  2  0
  8  7  1  6
  9  8  1  0
  9  5  1  0
 10  8  1  0
 10 11  2  0
 13 12  1  6
 13 14  1  0
 13 15  1  0
 16 15  1  1
 16 17  1  0
 16 18  1  0
 17 10  1  0
 18 19  2  0
 18 20  1  0
M  END
$$$$
