SAL.pdb
     RDKit          3D

 20 19  0  0  1  0  0  0  0  0999 V2000
   10.2205  -22.1339   -0.9337 O   0  0  0  0  0  0  0  0  0  0  0  0
   11.1378  -21.3671   -0.2475 C   0  0  0  0  0  0  0  0  0  0  0  0
   10.6465  -19.9181   -0.2146 C   0  0  2  0  0  0  0  0  0  0  0  0
   10.5026  -19.4189   -1.5766 N   0  0  0  0  0  0  0  0  0  0  0  0
   11.5445  -19.0408    0.5806 C   0  0  0  0  0  0  0  0  0  0  0  0
   12.6518  -18.7100    0.0209 O   0  0  0  0  0  0  0  0  0  0  0  0
   11.3933  -17.1142    3.7651 C   0  0  0  0  0  0  0  0  0  0  0  0
   12.1270  -17.7005    2.5508 C   0  0  2  0  0  0  0  0  0  0  0  0
   11.2198  -18.5846    1.8771 N   0  0  0  0  0  0  0  0  0  0  0  0
   13.3030  -18.4252    3.1116 C   0  0  0  0  0  0  0  0  0  0  0  0
   13.1381  -19.6224    3.4584 O   0  0  0  0  0  0  0  0  0  0  0  0
   18.1286  -18.7539    0.7953 C   0  0  0  0  0  0  0  0  0  0  0  0
   16.8768  -19.2164    1.6552 C   0  0  1  0  0  0  0  0  0  0  0  0
   17.1155  -20.6986    1.8652 C   0  0  0  0  0  0  0  0  0  0  0  0
   16.8675  -18.3836    2.8845 C   0  0  0  0  0  0  0  0  0  0  0  0
   15.7440  -18.5448    3.8178 C   0  0  2  0  0  0  0  0  0  0  0  0
   14.5582  -17.8333    3.2629 N   0  0  0  0  0  0  0  0  0  0  0  0
   15.9445  -18.0354    5.1605 C   0  0  0  0  0  0  0  0  0  0  0  0
   15.4874  -16.9795    5.6602 O   0  0  0  0  0  0  0  0  0  0  0  0
   16.7522  -18.7966    6.0538 O   0  0  0  0  0  0  0  0  0  0  0  0
  2  1  1  0
  3  2  1  0
  3  5  1  0
  3  4  1  6
  5  6  2  0
  8  7  1  1
  9  8  1  0
  9  5  1  0
 10  8  1  0
 10 11  2  0
 13 12  1  6
 13 14  1  0
 13 15  1  0
 16 15  1  6
 16 17  1  0
 16 18  1  0
 17 10  1  0
 18 19  2  0
 18 20  1  0
M  END
$$$$
