SAL.pdb
     RDKit          3D

 20 19  0  0  1  0  0  0  0  0999 V2000
   13.8613   -9.8679  -15.0943 O   0  0  0  0  0  0  0  0  0  0  0  0
   15.2053   -9.5613  -15.0887 C   0  0  0  0  0  0  0  0  0  0  0  0
   15.6780   -9.3796  -16.5328 C   0  0  2  0  0  0  0  0  0  0  0  0
   15.6993  -10.6717  -17.2073 N   0  0  0  0  0  0  0  0  0  0  0  0
   17.0074   -8.7195  -16.6074 C   0  0  0  0  0  0  0  0  0  0  0  0
   18.0213   -9.4587  -16.3348 O   0  0  0  0  0  0  0  0  0  0  0  0
   18.3676   -5.3224  -17.3675 C   0  0  0  0  0  0  0  0  0  0  0  0
   18.4842   -6.7857  -16.9182 C   0  0  2  0  0  0  0  0  0  0  0  0
   17.1704   -7.3608  -16.9565 N   0  0  0  0  0  0  0  0  0  0  0  0
   19.0320   -6.7313  -15.5327 C   0  0  0  0  0  0  0  0  0  0  0  0
   18.2095   -6.7033  -14.5821 O   0  0  0  0  0  0  0  0  0  0  0  0
   21.1079   -8.5430  -11.2283 C   0  0  0  0  0  0  0  0  0  0  0  0
   22.2045   -8.3673  -12.3627 C   0  0  1  0  0  0  0  0  0  0  0  0
   22.9945   -9.6594  -12.2994 C   0  0  0  0  0  0  0  0  0  0  0  0
   21.4750   -8.1183  -13.6319 C   0  0  0  0  0  0  0  0  0  0  0  0
   20.9652   -6.7626  -13.8794 C   0  0  2  0  0  0  0  0  0  0  0  0
   20.4003   -6.7105  -15.2573 N   0  0  0  0  0  0  0  0  0  0  0  0
   21.9304   -5.6847  -13.7842 C   0  0  0  0  0  0  0  0  0  0  0  0
   22.3767   -5.1396  -12.7463 O   0  0  0  0  0  0  0  0  0  0  0  0
   22.4623   -5.1509  -14.9932 O   0  0  0  0  0  0  0  0  0  0  0  0
  2  1  1  0
  3  2  1  0
  3  5  1  0
  3  4  1  1
  5  6  2  0
  8  7  1  1
  9  8  1  0
  9  5  1  0
 10  8  1  0
 10 11  2  0
 13 12  1  1
 13 14  1  0
 13 15  1  0
 16 15  1  6
 16 17  1  0
 16 18  1  0
 17 10  1  0
 18 19  2  0
 18 20  1  0
M  END
$$$$
