SAL.pdb
     RDKit          3D

 20 19  0  0  1  0  0  0  0  0999 V2000
   30.8883  -19.1102  -12.4705 O   0  0  0  0  0  0  0  0  0  0  0  0
   29.6356  -19.6254  -12.7262 C   0  0  0  0  0  0  0  0  0  0  0  0
   29.4881  -20.9584  -11.9890 C   0  0  2  0  0  0  0  0  0  0  0  0
   30.2498  -21.9890  -12.6838 N   0  0  0  0  0  0  0  0  0  0  0  0
   28.0653  -21.3601  -11.8386 C   0  0  0  0  0  0  0  0  0  0  0  0
   27.5637  -22.0367  -12.8079 O   0  0  0  0  0  0  0  0  0  0  0  0
   25.3080  -20.8842   -9.3616 C   0  0  0  0  0  0  0  0  0  0  0  0
   25.8768  -21.2702  -10.7343 C   0  0  2  0  0  0  0  0  0  0  0  0
   27.2908  -21.0294  -10.7049 N   0  0  0  0  0  0  0  0  0  0  0  0
   25.1784  -20.3891  -11.7134 C   0  0  0  0  0  0  0  0  0  0  0  0
   25.3059  -19.1462  -11.5724 O   0  0  0  0  0  0  0  0  0  0  0  0
   26.0634  -19.7429  -16.6908 C   0  0  0  0  0  0  0  0  0  0  0  0
   25.6148  -19.4763  -15.1915 C   0  0  1  0  0  0  0  0  0  0  0  0
   25.6675  -17.9666  -15.0656 C   0  0  0  0  0  0  0  0  0  0  0  0
   24.2732  -20.0912  -15.0277 C   0  0  0  0  0  0  0  0  0  0  0  0
   23.6387  -20.0189  -13.7043 C   0  0  2  0  0  0  0  0  0  0  0  0
   24.4021  -20.8849  -12.7622 N   0  0  0  0  0  0  0  0  0  0  0  0
   22.2540  -20.4428  -13.6304 C   0  0  0  0  0  0  0  0  0  0  0  0
   21.7875  -21.4537  -13.0524 O   0  0  0  0  0  0  0  0  0  0  0  0
   21.2709  -19.6415  -14.2793 O   0  0  0  0  0  0  0  0  0  0  0  0
  2  1  1  0
  3  2  1  0
  3  5  1  0
  3  4  1  6
  5  6  2  0
  8  7  1  1
  9  8  1  0
  9  5  1  0
 10  8  1  0
 10 11  2  0
 13 12  1  6
 13 14  1  0
 13 15  1  0
 16 15  1  6
 16 17  1  0
 16 18  1  0
 17 10  1  0
 18 19  2  0
 18 20  1  0
M  END
$$$$
