SAL.pdb
     RDKit          3D

 20 19  0  0  1  0  0  0  0  0999 V2000
   19.4306  -11.1980  -17.3284 O   0  0  0  0  0  0  0  0  0  0  0  0
   19.5215   -9.8371  -17.5285 C   0  0  0  0  0  0  0  0  0  0  0  0
   18.1157   -9.2736  -17.7480 C   0  0  2  0  0  0  0  0  0  0  0  0
   17.8632   -9.1304  -19.1766 N   0  0  0  0  0  0  0  0  0  0  0  0
   17.9140   -7.9822  -17.0408 C   0  0  0  0  0  0  0  0  0  0  0  0
   18.1104   -6.9207  -17.7361 O   0  0  0  0  0  0  0  0  0  0  0  0
   16.4094   -6.6989  -13.9363 C   0  0  0  0  0  0  0  0  0  0  0  0
   17.4557   -6.6148  -15.0566 C   0  0  2  0  0  0  0  0  0  0  0  0
   17.5280   -7.9027  -15.6847 N   0  0  0  0  0  0  0  0  0  0  0  0
   18.7322   -6.2495  -14.3785 C   0  0  0  0  0  0  0  0  0  0  0  0
   18.6977   -5.3172  -13.5356 O   0  0  0  0  0  0  0  0  0  0  0  0
   20.8683   -9.0923  -12.5968 C   0  0  0  0  0  0  0  0  0  0  0  0
   22.3255   -8.6185  -13.0119 C   0  0  1  0  0  0  0  0  0  0  0  0
   23.0414   -9.9129  -13.3433 C   0  0  0  0  0  0  0  0  0  0  0  0
   22.1635   -7.6639  -14.1377 C   0  0  0  0  0  0  0  0  0  0  0  0
   21.2245   -6.5470  -13.9647 C   0  0  2  0  0  0  0  0  0  0  0  0
   19.9426   -6.8934  -14.6408 N   0  0  0  0  0  0  0  0  0  0  0  0
   21.6435   -5.2654  -14.4982 C   0  0  0  0  0  0  0  0  0  0  0  0
   21.4060   -4.7889  -15.6340 O   0  0  0  0  0  0  0  0  0  0  0  0
   22.4210   -4.4122  -13.6632 O   0  0  0  0  0  0  0  0  0  0  0  0
  2  1  1  0
  3  2  1  0
  3  5  1  0
  3  4  1  6
  5  6  2  0
  8  7  1  1
  9  8  1  0
  9  5  1  0
 10  8  1  0
 10 11  2  0
 13 12  1  6
 13 14  1  0
 13 15  1  0
 16 15  1  6
 16 17  1  0
 16 18  1  0
 17 10  1  0
 18 19  2  0
 18 20  1  0
M  END
$$$$
