SAL.pdb
     RDKit          3D

 20 19  0  0  1  0  0  0  0  0999 V2000
   17.8518  -16.1427  -16.4417 O   0  0  0  0  0  0  0  0  0  0  0  0
   18.4625  -14.9069  -16.4457 C   0  0  0  0  0  0  0  0  0  0  0  0
   18.2091  -14.2333  -17.7963 C   0  0  2  0  0  0  0  0  0  0  0  0
   18.9353  -14.9439  -18.8417 N   0  0  0  0  0  0  0  0  0  0  0  0
   18.5748  -12.7930  -17.7805 C   0  0  0  0  0  0  0  0  0  0  0  0
   19.7958  -12.5170  -18.0665 O   0  0  0  0  0  0  0  0  0  0  0  0
   16.8652   -9.5113  -17.2822 C   0  0  0  0  0  0  0  0  0  0  0  0
   18.0979  -10.4073  -17.4672 C   0  0  2  0  0  0  0  0  0  0  0  0
   17.6505  -11.7705  -17.4730 N   0  0  0  0  0  0  0  0  0  0  0  0
   18.9798  -10.1119  -16.3020 C   0  0  0  0  0  0  0  0  0  0  0  0
   19.0947  -10.9995  -15.4190 O   0  0  0  0  0  0  0  0  0  0  0  0
   22.6496  -10.2088  -13.1887 C   0  0  0  0  0  0  0  0  0  0  0  0
   23.0526   -9.7246  -14.6459 C   0  0  1  0  0  0  0  0  0  0  0  0
   24.1332  -10.7031  -15.0616 C   0  0  0  0  0  0  0  0  0  0  0  0
   21.8138   -9.7452  -15.4644 C   0  0  0  0  0  0  0  0  0  0  0  0
   20.8004   -8.7127  -15.2070 C   0  0  2  0  0  0  0  0  0  0  0  0
   19.6701   -8.9072  -16.1584 N   0  0  0  0  0  0  0  0  0  0  0  0
   21.2331   -7.3362  -15.3505 C   0  0  0  0  0  0  0  0  0  0  0  0
   21.3898   -6.6843  -16.4107 O   0  0  0  0  0  0  0  0  0  0  0  0
   21.5258   -6.5976  -14.1679 O   0  0  0  0  0  0  0  0  0  0  0  0
  2  1  1  0
  3  2  1  0
  3  5  1  0
  3  4  1  6
  5  6  2  0
  8  7  1  1
  9  8  1  0
  9  5  1  0
 10  8  1  0
 10 11  2  0
 13 12  1  1
 13 14  1  0
 13 15  1  0
 16 15  1  6
 16 17  1  0
 16 18  1  0
 17 10  1  0
 18 19  2  0
 18 20  1  0
M  END
$$$$
