SAL.pdb
     RDKit          3D

 20 19  0  0  1  0  0  0  0  0999 V2000
   15.6214   -7.5615  -14.2773 O   0  0  0  0  0  0  0  0  0  0  0  0
   16.9974   -7.6445  -14.2702 C   0  0  0  0  0  0  0  0  0  0  0  0
   17.4305   -8.7743  -15.2072 C   0  0  2  0  0  0  0  0  0  0  0  0
   16.9263  -10.0468  -14.7056 N   0  0  0  0  0  0  0  0  0  0  0  0
   18.9053   -8.8199  -15.3841 C   0  0  0  0  0  0  0  0  0  0  0  0
   19.5794   -9.2786  -14.3921 O   0  0  0  0  0  0  0  0  0  0  0  0
   21.3859   -8.2941  -18.1066 C   0  0  0  0  0  0  0  0  0  0  0  0
   20.9820   -8.4374  -16.6324 C   0  0  2  0  0  0  0  0  0  0  0  0
   19.5496   -8.3904  -16.5652 N   0  0  0  0  0  0  0  0  0  0  0  0
   21.6139   -7.2809  -15.9353 C   0  0  0  0  0  0  0  0  0  0  0  0
   22.8700   -7.2417  -15.8939 O   0  0  0  0  0  0  0  0  0  0  0  0
   21.9146   -1.9050  -15.1688 C   0  0  0  0  0  0  0  0  0  0  0  0
   20.9148   -2.6457  -14.1829 C   0  0  1  0  0  0  0  0  0  0  0  0
   19.7842   -1.6513  -14.0068 C   0  0  0  0  0  0  0  0  0  0  0  0
   20.5483   -3.9320  -14.8276 C   0  0  0  0  0  0  0  0  0  0  0  0
   21.4898   -5.0542  -14.7115 C   0  0  2  0  0  0  0  0  0  0  0  0
   20.8750   -6.2584  -15.3377 N   0  0  0  0  0  0  0  0  0  0  0  0
   21.8746   -5.4350  -13.3663 C   0  0  0  0  0  0  0  0  0  0  0  0
   22.8265   -4.9890  -12.6818 O   0  0  0  0  0  0  0  0  0  0  0  0
   21.1036   -6.4338  -12.7047 O   0  0  0  0  0  0  0  0  0  0  0  0
  2  1  1  0
  3  2  1  0
  3  5  1  0
  3  4  1  1
  5  6  2  0
  8  7  1  6
  9  8  1  0
  9  5  1  0
 10  8  1  0
 10 11  2  0
 13 12  1  6
 13 14  1  0
 13 15  1  0
 16 15  1  1
 16 17  1  0
 16 18  1  0
 17 10  1  0
 18 19  2  0
 18 20  1  0
M  END
$$$$
