SAL.pdb
     RDKit          3D

 20 19  0  0  1  0  0  0  0  0999 V2000
   17.3740  -10.5509  -18.8707 O   0  0  0  0  0  0  0  0  0  0  0  0
   17.8661   -9.8850  -17.7686 C   0  0  0  0  0  0  0  0  0  0  0  0
   18.6141  -10.8819  -16.8805 C   0  0  2  0  0  0  0  0  0  0  0  0
   17.6591  -11.7718  -16.2315 N   0  0  0  0  0  0  0  0  0  0  0  0
   19.4734  -10.2019  -15.8768 C   0  0  0  0  0  0  0  0  0  0  0  0
   18.8605   -9.5239  -14.9749 O   0  0  0  0  0  0  0  0  0  0  0  0
   23.1120   -9.8770  -15.1031 C   0  0  0  0  0  0  0  0  0  0  0  0
   21.6378   -9.4646  -14.9884 C   0  0  2  0  0  0  0  0  0  0  0  0
   20.8833  -10.2831  -15.8935 N   0  0  0  0  0  0  0  0  0  0  0  0
   21.5994   -8.0241  -15.3706 C   0  0  0  0  0  0  0  0  0  0  0  0
   21.2240   -7.7410  -16.5368 O   0  0  0  0  0  0  0  0  0  0  0  0
   20.7330   -3.4879  -16.9638 C   0  0  0  0  0  0  0  0  0  0  0  0
   20.1585   -3.8199  -15.5216 C   0  0  1  0  0  0  0  0  0  0  0  0
   18.6801   -3.5085  -15.6454 C   0  0  0  0  0  0  0  0  0  0  0  0
   20.4981   -5.2375  -15.2388 C   0  0  0  0  0  0  0  0  0  0  0  0
   21.8792   -5.5505  -14.8468 C   0  0  2  0  0  0  0  0  0  0  0  0
   21.9587   -6.9967  -14.4966 N   0  0  0  0  0  0  0  0  0  0  0  0
   22.4082   -4.8179  -13.7127 C   0  0  0  0  0  0  0  0  0  0  0  0
   22.4752   -5.1919  -12.5172 O   0  0  0  0  0  0  0  0  0  0  0  0
   22.9254   -3.5101  -13.9403 O   0  0  0  0  0  0  0  0  0  0  0  0
  2  1  1  0
  3  2  1  0
  3  5  1  0
  3  4  1  1
  5  6  2  0
  8  7  1  6
  9  8  1  0
  9  5  1  0
 10  8  1  0
 10 11  2  0
 13 12  1  6
 13 14  1  0
 13 15  1  0
 16 15  1  1
 16 17  1  0
 16 18  1  0
 17 10  1  0
 18 19  2  0
 18 20  1  0
M  END
$$$$
