SAL.pdb
     RDKit          3D

 20 19  0  0  1  0  0  0  0  0999 V2000
   14.0410   -8.2376   -9.0307 O   0  0  0  0  0  0  0  0  0  0  0  0
   15.0332   -8.6264   -9.9051 C   0  0  0  0  0  0  0  0  0  0  0  0
   14.3983   -8.9664  -11.2554 C   0  0  2  0  0  0  0  0  0  0  0  0
   13.7489  -10.2692  -11.1769 N   0  0  0  0  0  0  0  0  0  0  0  0
   15.3881   -8.9322  -12.3633 C   0  0  0  0  0  0  0  0  0  0  0  0
   15.8755  -10.0651  -12.7207 O   0  0  0  0  0  0  0  0  0  0  0  0
   16.3419   -6.5389  -15.0045 C   0  0  0  0  0  0  0  0  0  0  0  0
   16.5903   -7.8133  -14.1854 C   0  0  2  0  0  0  0  0  0  0  0  0
   15.7838   -7.7360  -13.0014 N   0  0  0  0  0  0  0  0  0  0  0  0
   18.0479   -7.8040  -13.8723 C   0  0  0  0  0  0  0  0  0  0  0  0
   18.4185   -7.1832  -12.8436 O   0  0  0  0  0  0  0  0  0  0  0  0
   23.0521   -9.9524  -13.6225 C   0  0  0  0  0  0  0  0  0  0  0  0
   22.5782   -9.6126  -15.0991 C   0  0  1  0  0  0  0  0  0  0  0  0
   23.1781  -10.7277  -15.9325 C   0  0  0  0  0  0  0  0  0  0  0  0
   21.0947   -9.5534  -15.0722 C   0  0  0  0  0  0  0  0  0  0  0  0
   20.4625   -8.4182  -14.3861 C   0  0  2  0  0  0  0  0  0  0  0  0
   18.9991   -8.4479  -14.6654 N   0  0  0  0  0  0  0  0  0  0  0  0
   20.9310   -7.0980  -14.7603 C   0  0  0  0  0  0  0  0  0  0  0  0
   21.7557   -6.3726  -14.1541 O   0  0  0  0  0  0  0  0  0  0  0  0
   20.4177   -6.5171  -15.9556 O   0  0  0  0  0  0  0  0  0  0  0  0
  2  1  1  0
  3  2  1  0
  3  5  1  0
  3  4  1  1
  5  6  2  0
  8  7  1  6
  9  8  1  0
  9  5  1  0
 10  8  1  0
 10 11  2  0
 13 12  1  1
 13 14  1  0
 13 15  1  0
 16 15  1  6
 16 17  1  0
 16 18  1  0
 17 10  1  0
 18 19  2  0
 18 20  1  0
M  END
$$$$
