SAL.pdb
     RDKit          3D

 20 19  0  0  1  0  0  0  0  0999 V2000
   17.1653  -14.9908  -18.7443 O   0  0  0  0  0  0  0  0  0  0  0  0
   17.4795  -14.0212  -17.8162 C   0  0  0  0  0  0  0  0  0  0  0  0
   18.9208  -13.5620  -18.0481 C   0  0  2  0  0  0  0  0  0  0  0  0
   19.8417  -14.6204  -17.6522 N   0  0  0  0  0  0  0  0  0  0  0  0
   19.2268  -12.2964  -17.3319 C   0  0  0  0  0  0  0  0  0  0  0  0
   19.4967  -12.4060  -16.0813 O   0  0  0  0  0  0  0  0  0  0  0  0
   19.5160   -8.6602  -18.1429 C   0  0  0  0  0  0  0  0  0  0  0  0
   19.5022   -9.8631  -17.1892 C   0  0  2  0  0  0  0  0  0  0  0  0
   19.2276  -11.0358  -17.9687 N   0  0  0  0  0  0  0  0  0  0  0  0
   18.4178   -9.5764  -16.2070 C   0  0  0  0  0  0  0  0  0  0  0  0
   17.2972  -10.1114  -16.4043 O   0  0  0  0  0  0  0  0  0  0  0  0
   15.2024   -9.6412  -12.2465 C   0  0  0  0  0  0  0  0  0  0  0  0
   16.6220   -9.0358  -11.8745 C   0  0  1  0  0  0  0  0  0  0  0  0
   16.9769   -9.7298  -10.5744 C   0  0  0  0  0  0  0  0  0  0  0  0
   17.5228   -9.3143  -13.0216 C   0  0  0  0  0  0  0  0  0  0  0  0
   17.5024   -8.3811  -14.1565 C   0  0  2  0  0  0  0  0  0  0  0  0
   18.5982   -8.7503  -15.0963 N   0  0  0  0  0  0  0  0  0  0  0  0
   17.6814   -6.9777  -13.8390 C   0  0  0  0  0  0  0  0  0  0  0  0
   16.8016   -6.1406  -13.5245 O   0  0  0  0  0  0  0  0  0  0  0  0
   19.0017   -6.4439  -13.8764 O   0  0  0  0  0  0  0  0  0  0  0  0
  2  1  1  0
  3  2  1  0
  3  5  1  0
  3  4  1  1
  5  6  2  0
  8  7  1  6
  9  8  1  0
  9  5  1  0
 10  8  1  0
 10 11  2  0
 13 12  1  6
 13 14  1  0
 13 15  1  0
 16 15  1  1
 16 17  1  0
 16 18  1  0
 17 10  1  0
 18 19  2  0
 18 20  1  0
M  END
$$$$
