SAL.pdb
     RDKit          3D

 20 19  0  0  1  0  0  0  0  0999 V2000
   26.5027  -14.4358  -19.4166 O   0  0  0  0  0  0  0  0  0  0  0  0
   27.6065  -13.6760  -19.0931 C   0  0  0  0  0  0  0  0  0  0  0  0
   28.6972  -13.9160  -20.1394 C   0  0  2  0  0  0  0  0  0  0  0  0
   29.0735  -15.3243  -20.1403 N   0  0  0  0  0  0  0  0  0  0  0  0
   29.8840  -13.0492  -19.9193 C   0  0  0  0  0  0  0  0  0  0  0  0
   30.7869  -13.5161  -19.1348 O   0  0  0  0  0  0  0  0  0  0  0  0
   31.3173   -9.9715  -21.4350 C   0  0  0  0  0  0  0  0  0  0  0  0
   31.2719  -11.0777  -20.3716 C   0  0  2  0  0  0  0  0  0  0  0  0
   30.0323  -11.7831  -20.5273 N   0  0  0  0  0  0  0  0  0  0  0  0
   31.3533  -10.3703  -19.0618 C   0  0  0  0  0  0  0  0  0  0  0  0
   30.2740  -10.1177  -18.4683 O   0  0  0  0  0  0  0  0  0  0  0  0
   35.5909  -10.1186  -14.6987 C   0  0  0  0  0  0  0  0  0  0  0  0
   34.2918   -9.3362  -15.1682 C   0  0  1  0  0  0  0  0  0  0  0  0
   34.7237   -7.8832  -15.1505 C   0  0  0  0  0  0  0  0  0  0  0  0
   33.9173   -9.8820  -16.4974 C   0  0  0  0  0  0  0  0  0  0  0  0
   32.6723   -9.4029  -17.1134 C   0  0  2  0  0  0  0  0  0  0  0  0
   32.5627   -9.9851  -18.4807 N   0  0  0  0  0  0  0  0  0  0  0  0
   32.5382   -7.9666  -17.2606 C   0  0  0  0  0  0  0  0  0  0  0  0
   33.0236   -7.2353  -18.1567 O   0  0  0  0  0  0  0  0  0  0  0  0
   31.7688   -7.2612  -16.2909 O   0  0  0  0  0  0  0  0  0  0  0  0
  2  1  1  0
  3  2  1  0
  3  5  1  0
  3  4  1  1
  5  6  2  0
  8  7  1  6
  9  8  1  0
  9  5  1  0
 10  8  1  0
 10 11  2  0
 13 12  1  6
 13 14  1  0
 13 15  1  0
 16 15  1  6
 16 17  1  0
 16 18  1  0
 17 10  1  0
 18 19  2  0
 18 20  1  0
M  END
$$$$
