GYE.pdb
     RDKit          3D

 26 26  0  0  1  0  0  0  0  0999 V2000
    8.3305  -13.3913   17.6086 N   0  0  0  0  0  0  0  0  0  0  0  0
    7.8024  -14.3624   18.5442 C   0  0  0  0  0  0  0  0  0  0  0  0
    8.2604  -14.0826   19.9338 C   0  0  0  0  0  0  0  0  0  0  0  0
    9.3750  -13.5274   20.1571 O   0  0  0  0  0  0  0  0  0  0  0  0
    7.2227  -12.6391   28.6627 O   0  0  0  0  0  0  0  0  0  0  0  0
    7.0949  -12.9180   27.3133 C   0  0  0  0  0  0  0  0  0  0  0  0
    6.4718  -14.0944   26.9122 C   0  0  0  0  0  0  0  0  0  0  0  0
    6.3513  -14.3592   25.5682 C   0  0  0  0  0  0  0  0  0  0  0  0
    6.8266  -13.5006   24.5856 C   0  0  0  0  0  0  0  0  0  0  0  0
    6.6457  -13.8859   23.2054 C   0  0  0  0  0  0  0  0  0  0  0  0
    7.8498  -14.2314   22.4162 C   0  0  2  0  0  0  0  0  0  0  0  0
    7.4604  -14.4310   21.0338 N   0  0  0  0  0  0  0  0  0  0  0  0
    8.4716  -15.4950   22.8858 C   0  0  0  0  0  0  0  0  0  0  0  0
    8.0094  -16.6263   22.5814 O   0  0  0  0  0  0  0  0  0  0  0  0
    7.4371  -12.3466   25.0293 C   0  0  0  0  0  0  0  0  0  0  0  0
    7.5712  -12.0559   26.3729 C   0  0  0  0  0  0  0  0  0  0  0  0
    9.6073  -15.4570   23.6928 N   0  0  0  0  0  0  0  0  0  0  0  0
   10.2392  -16.6571   24.2511 C   0  0  1  0  0  0  0  0  0  0  0  0
   11.6407  -16.6243   23.7807 C   0  0  0  0  0  0  0  0  0  0  0  0
   12.0763  -17.5411   22.7129 C   0  0  0  0  0  0  0  0  0  0  0  0
   13.3111  -17.1714   21.9953 C   0  0  0  0  0  0  0  0  0  0  0  0
   13.3040  -16.3430   21.0569 O   0  0  0  0  0  0  0  0  0  0  0  0
    9.9317  -16.8831   25.6393 C   0  0  0  0  0  0  0  0  0  0  0  0
    9.4962  -15.9693   26.4196 O   0  0  0  0  0  0  0  0  0  0  0  0
   14.5044  -17.7545   22.3694 O   0  0  0  0  0  0  0  0  0  0  0  0
   10.0681  -18.1298   26.2822 O   0  0  0  0  0  0  0  0  0  0  0  0
  1  2  1  0
  2  3  1  0
  3 12  1  0
  3  4  2  0
  6 16  2  0
  6  5  1  0
  7  6  1  0
  8  9  1  0
  8  7  2  0
  9 15  2  0
 10  9  1  0
 11 10  1  1
 11 13  1  0
 12 11  1  0
 13 14  2  0
 13 17  1  0
 15 16  1  0
 17 18  1  0
 18 23  1  0
 18 19  1  1
 20 21  1  0
 20 19  1  0
 21 25  1  0
 22 21  2  0
 23 26  1  0
 24 23  2  0
M  END
$$$$
