GYE.pdb
     RDKit          3D

 26 26  0  0  1  0  0  0  0  0999 V2000
    6.8337  -19.6684   20.0316 N   0  0  0  0  0  0  0  0  0  0  0  0
    6.2590  -18.7280   20.9711 C   0  0  0  0  0  0  0  0  0  0  0  0
    7.3164  -18.0045   21.7309 C   0  0  0  0  0  0  0  0  0  0  0  0
    8.5301  -18.3548   21.6602 O   0  0  0  0  0  0  0  0  0  0  0  0
    8.0720  -12.2077   18.1062 O   0  0  0  0  0  0  0  0  0  0  0  0
    7.9198  -12.8231   19.3363 C   0  0  0  0  0  0  0  0  0  0  0  0
    8.9745  -12.8154   20.2421 C   0  0  0  0  0  0  0  0  0  0  0  0
    8.8100  -13.4304   21.4608 C   0  0  0  0  0  0  0  0  0  0  0  0
    7.6311  -14.0637   21.8321 C   0  0  0  0  0  0  0  0  0  0  0  0
    7.5757  -14.6785   23.1379 C   0  0  0  0  0  0  0  0  0  0  0  0
    7.9637  -16.1027   23.2531 C   0  0  2  0  0  0  0  0  0  0  0  0
    6.9880  -16.9107   22.5477 N   0  0  0  0  0  0  0  0  0  0  0  0
    7.9738  -16.5577   24.6662 C   0  0  0  0  0  0  0  0  0  0  0  0
    6.9276  -16.9280   25.2615 O   0  0  0  0  0  0  0  0  0  0  0  0
    6.6125  -14.0465   20.9028 C   0  0  0  0  0  0  0  0  0  0  0  0
    6.7510  -13.4360   19.6717 C   0  0  0  0  0  0  0  0  0  0  0  0
    9.1691  -16.5859   25.3824 N   0  0  0  0  0  0  0  0  0  0  0  0
    9.3774  -17.4226   26.5689 C   0  0  1  0  0  0  0  0  0  0  0  0
    9.0187  -18.7962   26.1552 C   0  0  0  0  0  0  0  0  0  0  0  0
   10.0272  -19.6525   25.5070 C   0  0  0  0  0  0  0  0  0  0  0  0
    9.6457  -21.0600   25.2838 C   0  0  0  0  0  0  0  0  0  0  0  0
    8.5412  -21.5106   25.6634 O   0  0  0  0  0  0  0  0  0  0  0  0
   10.6146  -17.1582   27.2561 C   0  0  0  0  0  0  0  0  0  0  0  0
   11.6099  -16.5720   26.7093 O   0  0  0  0  0  0  0  0  0  0  0  0
   10.5301  -21.9006   24.6394 O   0  0  0  0  0  0  0  0  0  0  0  0
   10.8578  -17.5066   28.5999 O   0  0  0  0  0  0  0  0  0  0  0  0
  1  2  1  0
  2  3  1  0
  3 12  1  0
  3  4  2  0
  6 16  2  0
  6  5  1  0
  7  6  1  0
  8  9  1  0
  8  7  2  0
  9 15  2  0
 10  9  1  0
 11 10  1  1
 11 13  1  0
 12 11  1  0
 13 14  2  0
 13 17  1  0
 15 16  1  0
 17 18  1  0
 18 23  1  0
 18 19  1  6
 20 21  1  0
 20 19  1  0
 21 25  1  0
 22 21  2  0
 23 26  1  0
 24 23  2  0
M  END
$$$$
