GYE.pdb
     RDKit          3D

 26 26  0  0  1  0  0  0  0  0999 V2000
    6.7644  -14.3242   19.6749 N   0  0  0  0  0  0  0  0  0  0  0  0
    6.3656  -14.8153   20.9776 C   0  0  0  0  0  0  0  0  0  0  0  0
    7.4933  -14.7562   21.9490 C   0  0  0  0  0  0  0  0  0  0  0  0
    8.6859  -14.5926   21.5594 O   0  0  0  0  0  0  0  0  0  0  0  0
   11.0424  -14.5418   30.1661 O   0  0  0  0  0  0  0  0  0  0  0  0
   10.2134  -14.5380   29.0580 C   0  0  0  0  0  0  0  0  0  0  0  0
    9.7508  -15.7439   28.5435 C   0  0  0  0  0  0  0  0  0  0  0  0
    8.9277  -15.7259   27.4422 C   0  0  0  0  0  0  0  0  0  0  0  0
    8.5340  -14.5511   26.8150 C   0  0  0  0  0  0  0  0  0  0  0  0
    7.6690  -14.6562   25.6631 C   0  0  0  0  0  0  0  0  0  0  0  0
    8.2978  -14.8448   24.3360 C   0  0  2  0  0  0  0  0  0  0  0  0
    7.2568  -14.8814   23.3272 N   0  0  0  0  0  0  0  0  0  0  0  0
    9.0358  -16.1304   24.2545 C   0  0  0  0  0  0  0  0  0  0  0  0
    8.4639  -17.2186   23.9809 O   0  0  0  0  0  0  0  0  0  0  0  0
    9.0167  -13.3796   27.3592 C   0  0  0  0  0  0  0  0  0  0  0  0
    9.8445  -13.3691   28.4647 C   0  0  0  0  0  0  0  0  0  0  0  0
   10.4100  -16.1627   24.4842 N   0  0  0  0  0  0  0  0  0  0  0  0
   11.2276  -17.3679   24.3100 C   0  0  1  0  0  0  0  0  0  0  0  0
   12.0218  -17.1363   23.0844 C   0  0  0  0  0  0  0  0  0  0  0  0
   13.0236  -18.1307   22.6624 C   0  0  0  0  0  0  0  0  0  0  0  0
   13.8042  -17.8022   21.4543 C   0  0  0  0  0  0  0  0  0  0  0  0
   15.0334  -17.5716   21.5076 O   0  0  0  0  0  0  0  0  0  0  0  0
   11.8570  -17.8230   25.5223 C   0  0  0  0  0  0  0  0  0  0  0  0
   12.2593  -19.0235   25.6964 O   0  0  0  0  0  0  0  0  0  0  0  0
   13.1614  -17.7481   20.2346 O   0  0  0  0  0  0  0  0  0  0  0  0
   12.1045  -16.9978   26.6376 O   0  0  0  0  0  0  0  0  0  0  0  0
  1  2  1  0
  2  3  1  0
  3 12  1  0
  3  4  2  0
  6 16  2  0
  6  5  1  0
  7  6  1  0
  8  9  1  0
  8  7  2  0
  9 15  2  0
 10  9  1  0
 11 10  1  1
 11 13  1  0
 12 11  1  0
 13 14  2  0
 13 17  1  0
 15 16  1  0
 17 18  1  0
 18 23  1  0
 18 19  1  6
 20 21  1  0
 20 19  1  0
 21 25  1  0
 22 21  2  0
 23 26  1  0
 24 23  2  0
M  END
$$$$
