GYE.pdb
     RDKit          3D

 26 26  0  0  1  0  0  0  0  0999 V2000
    9.7185  -17.1785   18.0990 N   0  0  0  0  0  0  0  0  0  0  0  0
    8.5960  -17.1640   19.0140 C   0  0  0  0  0  0  0  0  0  0  0  0
    8.9324  -16.4460   20.2751 C   0  0  0  0  0  0  0  0  0  0  0  0
   10.1267  -16.1348   20.5534 O   0  0  0  0  0  0  0  0  0  0  0  0
    6.9690  -11.7950   27.6474 O   0  0  0  0  0  0  0  0  0  0  0  0
    6.9327  -12.5747   26.5047 C   0  0  0  0  0  0  0  0  0  0  0  0
    7.3618  -12.0395   25.2954 C   0  0  0  0  0  0  0  0  0  0  0  0
    7.3204  -12.8251   24.1676 C   0  0  0  0  0  0  0  0  0  0  0  0
    6.8666  -14.1375   24.1798 C   0  0  0  0  0  0  0  0  0  0  0  0
    6.8663  -14.8649   22.9320 C   0  0  0  0  0  0  0  0  0  0  0  0
    8.1625  -15.3600   22.4153 C   0  0  2  0  0  0  0  0  0  0  0  0
    7.9254  -16.0962   21.1888 N   0  0  0  0  0  0  0  0  0  0  0  0
    8.8155  -16.2913   23.3692 C   0  0  0  0  0  0  0  0  0  0  0  0
    8.4094  -17.4707   23.5433 O   0  0  0  0  0  0  0  0  0  0  0  0
    6.4511  -14.6262   25.4005 C   0  0  0  0  0  0  0  0  0  0  0  0
    6.4823  -13.8590   26.5486 C   0  0  0  0  0  0  0  0  0  0  0  0
    9.9185  -15.8719   24.1108 N   0  0  0  0  0  0  0  0  0  0  0  0
   10.7036  -16.7697   24.9645 C   0  0  1  0  0  0  0  0  0  0  0  0
   12.1193  -16.4409   24.6920 C   0  0  0  0  0  0  0  0  0  0  0  0
   12.6685  -16.6343   23.3387 C   0  0  0  0  0  0  0  0  0  0  0  0
   14.0565  -16.1827   23.1243 C   0  0  0  0  0  0  0  0  0  0  0  0
   14.7526  -15.7282   24.0601 O   0  0  0  0  0  0  0  0  0  0  0  0
   10.2142  -16.8620   26.3153 C   0  0  0  0  0  0  0  0  0  0  0  0
   10.4366  -17.8650   27.0755 O   0  0  0  0  0  0  0  0  0  0  0  0
   14.6004  -16.2642   21.8588 O   0  0  0  0  0  0  0  0  0  0  0  0
    9.4496  -15.8595   26.9450 O   0  0  0  0  0  0  0  0  0  0  0  0
  1  2  1  0
  2  3  1  0
  3 12  1  0
  3  4  2  0
  6 16  2  0
  6  5  1  0
  7  6  1  0
  8  9  1  0
  8  7  2  0
  9 15  2  0
 10  9  1  0
 11 10  1  1
 11 13  1  0
 12 11  1  0
 13 14  2  0
 13 17  1  0
 15 16  1  0
 17 18  1  0
 18 23  1  0
 18 19  1  1
 20 21  1  0
 20 19  1  0
 21 25  1  0
 22 21  2  0
 23 26  1  0
 24 23  2  0
M  END
$$$$
