GYE.pdb
     RDKit          3D

 26 26  0  0  1  0  0  0  0  0999 V2000
    8.2642  -17.0483   17.8783 N   0  0  0  0  0  0  0  0  0  0  0  0
    7.5210  -17.2564   19.1038 C   0  0  0  0  0  0  0  0  0  0  0  0
    8.0729  -16.4379   20.2193 C   0  0  0  0  0  0  0  0  0  0  0  0
    9.2818  -16.0647   20.2224 O   0  0  0  0  0  0  0  0  0  0  0  0
    7.3807  -12.1870   28.0973 O   0  0  0  0  0  0  0  0  0  0  0  0
    7.1869  -12.7834   26.8637 C   0  0  0  0  0  0  0  0  0  0  0  0
    6.7274  -14.0940   26.8002 C   0  0  0  0  0  0  0  0  0  0  0  0
    6.5391  -14.6746   25.5681 C   0  0  0  0  0  0  0  0  0  0  0  0
    6.7883  -14.0083   24.3753 C   0  0  0  0  0  0  0  0  0  0  0  0
    6.5566  -14.7215   23.1409 C   0  0  0  0  0  0  0  0  0  0  0  0
    7.7269  -15.2977   22.4404 C   0  0  2  0  0  0  0  0  0  0  0  0
    7.2589  -16.0600   21.2991 N   0  0  0  0  0  0  0  0  0  0  0  0
    8.4857  -16.2299   23.3118 C   0  0  0  0  0  0  0  0  0  0  0  0
    8.0754  -17.3916   23.5730 O   0  0  0  0  0  0  0  0  0  0  0  0
    7.2424  -12.7111   24.4864 C   0  0  0  0  0  0  0  0  0  0  0  0
    7.4401  -12.1039   25.7111 C   0  0  0  0  0  0  0  0  0  0  0  0
    9.6973  -15.8312   23.8734 N   0  0  0  0  0  0  0  0  0  0  0  0
   10.6180  -16.7564   24.5424 C   0  0  1  0  0  0  0  0  0  0  0  0
   11.9089  -16.6137   23.8355 C   0  0  0  0  0  0  0  0  0  0  0  0
   12.9520  -15.7313   24.3870 C   0  0  0  0  0  0  0  0  0  0  0  0
   14.2950  -15.8508   23.7882 C   0  0  0  0  0  0  0  0  0  0  0  0
   15.3290  -15.8849   24.4928 O   0  0  0  0  0  0  0  0  0  0  0  0
   10.5536  -16.7019   25.9796 C   0  0  0  0  0  0  0  0  0  0  0  0
   10.0827  -15.7037   26.6239 O   0  0  0  0  0  0  0  0  0  0  0  0
   14.4130  -15.9271   22.4155 O   0  0  0  0  0  0  0  0  0  0  0  0
   10.9917  -17.7399   26.8263 O   0  0  0  0  0  0  0  0  0  0  0  0
  1  2  1  0
  2  3  1  0
  3 12  1  0
  3  4  2  0
  6 16  2  0
  6  5  1  0
  7  6  1  0
  8  9  1  0
  8  7  2  0
  9 15  2  0
 10  9  1  0
 11 10  1  1
 11 13  1  0
 12 11  1  0
 13 14  2  0
 13 17  1  0
 15 16  1  0
 17 18  1  0
 18 23  1  0
 18 19  1  1
 20 21  1  0
 20 19  1  0
 21 25  1  0
 22 21  2  0
 23 26  1  0
 24 23  2  0
M  END
$$$$
