GYE.pdb
     RDKit          3D

 26 26  0  0  1  0  0  0  0  0999 V2000
    5.6470  -18.8050   24.9301 N   0  0  0  0  0  0  0  0  0  0  0  0
    6.5381  -17.7638   25.3985 C   0  0  0  0  0  0  0  0  0  0  0  0
    7.1337  -17.0068   24.2622 C   0  0  0  0  0  0  0  0  0  0  0  0
    6.8293  -17.2763   23.0641 O   0  0  0  0  0  0  0  0  0  0  0  0
    5.1915  -11.9850   27.8719 O   0  0  0  0  0  0  0  0  0  0  0  0
    6.0561  -12.4473   26.8954 C   0  0  0  0  0  0  0  0  0  0  0  0
    6.1357  -11.7802   25.6782 C   0  0  0  0  0  0  0  0  0  0  0  0
    6.9989  -12.2501   24.7166 C   0  0  0  0  0  0  0  0  0  0  0  0
    7.8008  -13.3682   24.9054 C   0  0  0  0  0  0  0  0  0  0  0  0
    8.6671  -13.7702   23.8219 C   0  0  0  0  0  0  0  0  0  0  0  0
    8.6939  -15.2026   23.4478 C   0  0  2  0  0  0  0  0  0  0  0  0
    8.0519  -15.9709   24.4967 N   0  0  0  0  0  0  0  0  0  0  0  0
   10.0825  -15.7109   23.3161 C   0  0  0  0  0  0  0  0  0  0  0  0
   10.9988  -15.3803   24.1142 O   0  0  0  0  0  0  0  0  0  0  0  0
    7.6889  -13.9978   26.1271 C   0  0  0  0  0  0  0  0  0  0  0  0
    6.8302  -13.5469   27.1104 C   0  0  0  0  0  0  0  0  0  0  0  0
   10.4109  -16.5859   22.2822 N   0  0  0  0  0  0  0  0  0  0  0  0
   11.5223  -17.5400   22.3570 C   0  0  1  0  0  0  0  0  0  0  0  0
   11.4222  -18.1635   23.6941 C   0  0  0  0  0  0  0  0  0  0  0  0
   12.4106  -19.1754   24.1060 C   0  0  0  0  0  0  0  0  0  0  0  0
   12.3301  -19.6387   25.5043 C   0  0  0  0  0  0  0  0  0  0  0  0
   13.1019  -20.5167   25.9522 O   0  0  0  0  0  0  0  0  0  0  0  0
   11.6745  -18.3483   21.1754 C   0  0  0  0  0  0  0  0  0  0  0  0
   12.8064  -18.5990   20.6374 O   0  0  0  0  0  0  0  0  0  0  0  0
   11.3789  -19.0892   26.3393 O   0  0  0  0  0  0  0  0  0  0  0  0
   10.6004  -18.9541   20.4932 O   0  0  0  0  0  0  0  0  0  0  0  0
  1  2  1  0
  2  3  1  0
  3 12  1  0
  3  4  2  0
  6 16  2  0
  6  5  1  0
  7  6  1  0
  8  9  1  0
  8  7  2  0
  9 15  2  0
 10  9  1  0
 11 10  1  1
 11 13  1  0
 12 11  1  0
 13 14  2  0
 13 17  1  0
 15 16  1  0
 17 18  1  0
 18 23  1  0
 18 19  1  1
 20 21  1  0
 20 19  1  0
 21 25  1  0
 22 21  2  0
 23 26  1  0
 24 23  2  0
M  END
$$$$
