GYE.pdb
     RDKit          3D

 26 26  0  0  1  0  0  0  0  0999 V2000
    8.9882  -16.9396   17.7773 N   0  0  0  0  0  0  0  0  0  0  0  0
    7.9809  -16.9382   18.8179 C   0  0  0  0  0  0  0  0  0  0  0  0
    8.4594  -16.2270   20.0362 C   0  0  0  0  0  0  0  0  0  0  0  0
    9.6795  -15.9254   20.1821 O   0  0  0  0  0  0  0  0  0  0  0  0
    7.3696  -11.9512   27.8179 O   0  0  0  0  0  0  0  0  0  0  0  0
    7.2009  -12.6614   26.6423 C   0  0  0  0  0  0  0  0  0  0  0  0
    7.4505  -12.0400   25.4239 C   0  0  0  0  0  0  0  0  0  0  0  0
    7.2789  -12.7571   24.2633 C   0  0  0  0  0  0  0  0  0  0  0  0
    6.8648  -14.0826   24.2508 C   0  0  0  0  0  0  0  0  0  0  0  0
    6.7164  -14.7330   22.9698 C   0  0  0  0  0  0  0  0  0  0  0  0
    7.9433  -15.1683   22.2646 C   0  0  2  0  0  0  0  0  0  0  0  0
    7.5618  -15.8730   21.0560 N   0  0  0  0  0  0  0  0  0  0  0  0
    8.7470  -16.1071   23.0871 C   0  0  0  0  0  0  0  0  0  0  0  0
    8.4196  -17.3128   23.2457 O   0  0  0  0  0  0  0  0  0  0  0  0
    6.6290  -14.6579   25.4816 C   0  0  0  0  0  0  0  0  0  0  0  0
    6.7936  -13.9606   26.6625 C   0  0  0  0  0  0  0  0  0  0  0  0
    9.9091  -15.6651   23.7169 N   0  0  0  0  0  0  0  0  0  0  0  0
   10.8657  -16.5670   24.3670 C   0  0  1  0  0  0  0  0  0  0  0  0
   12.2036  -16.0980   23.9468 C   0  0  0  0  0  0  0  0  0  0  0  0
   13.4091  -16.7866   24.4399 C   0  0  0  0  0  0  0  0  0  0  0  0
   14.7050  -16.2258   24.0124 C   0  0  0  0  0  0  0  0  0  0  0  0
   15.7696  -16.4980   24.6118 O   0  0  0  0  0  0  0  0  0  0  0  0
   10.5746  -16.8204   25.7541 C   0  0  0  0  0  0  0  0  0  0  0  0
   10.8991  -17.9016   26.3532 O   0  0  0  0  0  0  0  0  0  0  0  0
   14.7430  -15.3795   22.9233 O   0  0  0  0  0  0  0  0  0  0  0  0
    9.9127  -15.9065   26.5985 O   0  0  0  0  0  0  0  0  0  0  0  0
  1  2  1  0
  2  3  1  0
  3 12  1  0
  3  4  2  0
  6 16  2  0
  6  5  1  0
  7  6  1  0
  8  9  1  0
  8  7  2  0
  9 15  2  0
 10  9  1  0
 11 10  1  1
 11 13  1  0
 12 11  1  0
 13 14  2  0
 13 17  1  0
 15 16  1  0
 17 18  1  0
 18 23  1  0
 18 19  1  1
 20 21  1  0
 20 19  1  0
 21 25  1  0
 22 21  2  0
 23 26  1  0
 24 23  2  0
M  END
$$$$
