RVK.pdb
     RDKit          3D

 28 27  0  0  1  0  0  0  0  0999 V2000
    5.5652  -17.5916   18.7051 N   0  0  0  0  0  0  0  0  0  0  0  0
    6.0357  -18.9459   18.6311 C   0  0  0  0  0  0  0  0  0  0  0  0
    5.4156  -19.7469   17.8400 N   0  0  0  0  0  0  0  0  0  0  0  0
    7.1431  -19.3315   19.4202 N   0  0  0  0  0  0  0  0  0  0  0  0
    7.7962  -18.3830   20.2732 C   0  0  0  0  0  0  0  0  0  0  0  0
    6.9627  -17.9731   21.4507 C   0  0  0  0  0  0  0  0  0  0  0  0
    7.6379  -17.1330   22.4691 C   0  0  0  0  0  0  0  0  0  0  0  0
    7.7940  -15.6752   22.1274 C   0  0  2  0  0  0  0  0  0  0  0  0
    8.6096  -15.4479   20.9813 N   0  0  0  0  0  0  0  0  0  0  0  0
    8.3658  -15.0202   23.3534 C   0  0  0  0  0  0  0  0  0  0  0  0
    9.6019  -15.1097   23.5908 O   0  0  0  0  0  0  0  0  0  0  0  0
    5.7664  -20.7073   17.6453 C   0  0  0  0  0  0  0  0  0  0  0  0
    5.9751  -12.9948   26.4548 C   0  0  1  0  0  0  0  0  0  0  0  0
    7.2759  -12.5502   25.8837 C   0  0  0  0  0  0  0  0  0  0  0  0
    7.1149  -11.4784   24.8177 C   0  0  1  0  0  0  0  0  0  0  0  0
    8.2082  -13.6389   25.4633 N   0  0  0  0  0  0  0  0  0  0  0  0
    7.5948  -14.2900   24.2872 C   0  0  0  0  0  0  0  0  0  0  0  0
    8.5993  -14.6187   26.4630 O   0  0  0  0  0  0  0  0  0  0  0  0
    7.7512  -15.5459   26.7311 N   0  0  0  0  0  0  0  0  0  0  0  0
    9.7954  -14.7032   27.1942 C   0  0  1  0  0  0  0  0  0  0  0  0
   10.1689  -15.8609   27.9866 C   0  0  0  0  0  0  0  0  0  0  0  0
   11.2548  -16.6613   27.3134 C   0  0  0  0  0  0  0  0  0  0  0  0
   11.6499  -17.9043   28.0781 C   0  0  0  0  0  0  0  0  0  0  0  0
   12.8090  -18.5566   27.3063 C   0  0  0  0  0  0  0  0  0  0  0  0
   13.1535  -19.8227   28.0547 N   0  0  0  0  0  0  0  0  0  0  0  0
   14.1504  -20.6118   27.3585 C   0  0  0  0  0  0  0  0  0  0  0  0
   10.4644  -15.4850   29.3761 O   0  0  0  0  0  0  0  0  0  0  0  0
   10.6520  -16.2444   30.3295 O   0  0  0  0  0  0  0  0  0  0  0  0
  2  1  1  0
  2  3  2  0
  4  2  1  0
  5  4  1  0
  6  5  1  0
  7  8  1  0
  7  6  1  0
  8  9  1  6
 10  8  1  0
 11 10  2  0
 13 12  1  1
 13 14  1  0
 15 16  1  6
 15 13  1  0
 16 10  1  0
 17 15  1  0
 18 17  2  0
 19 17  1  0
 20 26  1  0
 20 19  1  0
 21 22  1  0
 20 21  1  1
 23 24  1  0
 23 22  1  0
 25 24  1  0
 26 28  1  0
 27 26  2  0
M  END
$$$$
