RVK.pdb
     RDKit          3D

 28 27  0  0  1  0  0  0  0  0999 V2000
    7.9410  -19.8903   13.6708 N   0  0  0  0  0  0  0  0  0  0  0  0
    6.8555  -20.7954   13.9225 C   0  0  0  0  0  0  0  0  0  0  0  0
    6.8673  -21.9222   13.3044 N   0  0  0  0  0  0  0  0  0  0  0  0
    5.8377  -20.4120   14.8251 N   0  0  0  0  0  0  0  0  0  0  0  0
    6.0306  -19.3041   15.7135 C   0  0  0  0  0  0  0  0  0  0  0  0
    7.3332  -19.3590   16.4547 C   0  0  0  0  0  0  0  0  0  0  0  0
    7.5788  -18.2668   17.4271 C   0  0  0  0  0  0  0  0  0  0  0  0
    8.3127  -17.0629   16.8995 C   0  0  2  0  0  0  0  0  0  0  0  0
    9.3286  -17.3897   15.9554 N   0  0  0  0  0  0  0  0  0  0  0  0
    8.8785  -16.3614   18.1024 C   0  0  0  0  0  0  0  0  0  0  0  0
   10.0584  -16.6110   18.4736 O   0  0  0  0  0  0  0  0  0  0  0  0
    6.1185  -22.6320   13.4421 C   0  0  0  0  0  0  0  0  0  0  0  0
    8.3809  -12.6394   21.4000 C   0  0  1  0  0  0  0  0  0  0  0  0
    7.8770  -13.5752   20.3578 C   0  0  0  0  0  0  0  0  0  0  0  0
    6.4443  -14.0178   20.6074 C   0  0  2  0  0  0  0  0  0  0  0  0
    8.7773  -14.7179   20.0188 N   0  0  0  0  0  0  0  0  0  0  0  0
    8.1620  -15.4145   18.8701 C   0  0  0  0  0  0  0  0  0  0  0  0
    9.1156  -15.6511   21.0805 O   0  0  0  0  0  0  0  0  0  0  0  0
    8.2741  -16.5929   21.3165 N   0  0  0  0  0  0  0  0  0  0  0  0
   10.2532  -15.6754   21.9037 C   0  0  1  0  0  0  0  0  0  0  0  0
   10.4892  -16.6920   22.9129 C   0  0  0  0  0  0  0  0  0  0  0  0
   11.8035  -17.3957   22.6882 C   0  0  0  0  0  0  0  0  0  0  0  0
   11.8858  -18.1095   21.3579 C   0  0  0  0  0  0  0  0  0  0  0  0
   13.3243  -18.6346   21.2186 C   0  0  0  0  0  0  0  0  0  0  0  0
   13.3653  -19.4120   19.9241 N   0  0  0  0  0  0  0  0  0  0  0  0
   14.7057  -19.8589   19.6003 C   0  0  0  0  0  0  0  0  0  0  0  0
   10.3139  -16.1512   24.2679 O   0  0  0  0  0  0  0  0  0  0  0  0
   10.3645  -16.7742   25.3310 O   0  0  0  0  0  0  0  0  0  0  0  0
  2  1  1  0
  2  3  2  0
  4  2  1  0
  5  4  1  0
  6  5  1  0
  7  8  1  0
  7  6  1  0
  8  9  1  6
 10  8  1  0
 11 10  2  0
 13 12  1  6
 13 14  1  0
 15 16  1  1
 15 13  1  0
 16 10  1  0
 17 15  1  0
 18 17  2  0
 19 17  1  0
 20 26  1  0
 20 19  1  0
 21 22  1  0
 20 21  1  1
 23 24  1  0
 23 22  1  0
 25 24  1  0
 26 28  1  0
 27 26  2  0
M  END
$$$$
