RVK.pdb
     RDKit          3D

 28 27  0  0  1  0  0  0  0  0999 V2000
   10.1237  -13.4625   18.4276 N   0  0  0  0  0  0  0  0  0  0  0  0
    8.7771  -13.4209   17.9319 C   0  0  0  0  0  0  0  0  0  0  0  0
    8.5898  -13.7261   16.6975 N   0  0  0  0  0  0  0  0  0  0  0  0
    7.7337  -13.0514   18.8107 N   0  0  0  0  0  0  0  0  0  0  0  0
    6.8223  -14.0357   19.3149 C   0  0  0  0  0  0  0  0  0  0  0  0
    7.4820  -15.3431   19.6386 C   0  0  0  0  0  0  0  0  0  0  0  0
    8.2787  -15.3818   20.8886 C   0  0  0  0  0  0  0  0  0  0  0  0
    7.6310  -16.0599   22.0662 C   0  0  2  0  0  0  0  0  0  0  0  0
    6.2078  -16.0726   21.9981 N   0  0  0  0  0  0  0  0  0  0  0  0
    8.1211  -15.3314   23.2862 C   0  0  0  0  0  0  0  0  0  0  0  0
    9.3611  -15.1942   23.4759 O   0  0  0  0  0  0  0  0  0  0  0  0
    7.6402  -13.7316   16.2712 C   0  0  0  0  0  0  0  0  0  0  0  0
    6.2336  -12.1700   24.9527 C   0  0  1  0  0  0  0  0  0  0  0  0
    6.7215  -13.1701   25.9415 C   0  0  0  0  0  0  0  0  0  0  0  0
    7.0428  -12.5529   27.2930 C   0  0  2  0  0  0  0  0  0  0  0  0
    7.7978  -14.0880   25.4619 N   0  0  0  0  0  0  0  0  0  0  0  0
    7.2670  -14.7729   24.2650 C   0  0  0  0  0  0  0  0  0  0  0  0
    8.3487  -15.0399   26.4120 O   0  0  0  0  0  0  0  0  0  0  0  0
    7.5520  -15.9444   26.8569 N   0  0  0  0  0  0  0  0  0  0  0  0
    9.6535  -15.1184   26.9256 C   0  0  1  0  0  0  0  0  0  0  0  0
   10.0754  -16.1188   27.8894 C   0  0  0  0  0  0  0  0  0  0  0  0
   11.0554  -17.0899   27.2815 C   0  0  0  0  0  0  0  0  0  0  0  0
   11.5499  -18.1362   28.2543 C   0  0  0  0  0  0  0  0  0  0  0  0
   12.6069  -18.9730   27.5146 C   0  0  0  0  0  0  0  0  0  0  0  0
   13.0538  -20.0406   28.4853 N   0  0  0  0  0  0  0  0  0  0  0  0
   14.0917  -20.8840   27.9262 C   0  0  0  0  0  0  0  0  0  0  0  0
   10.5330  -15.4971   29.1398 O   0  0  0  0  0  0  0  0  0  0  0  0
   10.6902  -14.2939   29.3596 O   0  0  0  0  0  0  0  0  0  0  0  0
  2  1  1  0
  2  3  2  0
  4  2  1  0
  5  4  1  0
  6  5  1  0
  7  8  1  0
  7  6  1  0
  8  9  1  6
 10  8  1  0
 11 10  2  0
 13 12  1  1
 13 14  1  0
 15 16  1  6
 15 13  1  0
 16 10  1  0
 17 15  1  0
 18 17  2  0
 19 17  1  0
 20 26  1  0
 20 19  1  0
 21 22  1  0
 20 21  1  1
 23 24  1  0
 23 22  1  0
 25 24  1  0
 26 28  1  0
 27 26  2  0
M  END
$$$$
