RVK.pdb
     RDKit          3D

 28 27  0  0  1  0  0  0  0  0999 V2000
    8.7237  -12.8645   16.2552 N   0  0  0  0  0  0  0  0  0  0  0  0
    8.4360  -14.2546   16.0416 C   0  0  0  0  0  0  0  0  0  0  0  0
    7.4563  -14.5446   15.2618 N   0  0  0  0  0  0  0  0  0  0  0  0
    9.2312  -15.2272   16.6893 N   0  0  0  0  0  0  0  0  0  0  0  0
    9.5086  -15.1260   18.0916 C   0  0  0  0  0  0  0  0  0  0  0  0
    8.4469  -14.3904   18.8539 C   0  0  0  0  0  0  0  0  0  0  0  0
    8.7238  -14.1456   20.2899 C   0  0  0  0  0  0  0  0  0  0  0  0
    7.8118  -14.8373   21.2676 C   0  0  2  0  0  0  0  0  0  0  0  0
    6.4399  -14.4888   21.1042 N   0  0  0  0  0  0  0  0  0  0  0  0
    8.3169  -14.4735   22.6357 C   0  0  0  0  0  0  0  0  0  0  0  0
    9.5250  -14.6854   22.9324 O   0  0  0  0  0  0  0  0  0  0  0  0
    7.1770  -15.5296   15.0738 C   0  0  0  0  0  0  0  0  0  0  0  0
    7.5759  -11.9991   26.8821 C   0  0  2  0  0  0  0  0  0  0  0  0
    7.0974  -12.6420   25.6276 C   0  0  0  0  0  0  0  0  0  0  0  0
    5.6853  -13.1915   25.7496 C   0  0  2  0  0  0  0  0  0  0  0  0
    8.0372  -13.6161   24.9960 N   0  0  0  0  0  0  0  0  0  0  0  0
    7.5115  -13.8943   23.6433 C   0  0  0  0  0  0  0  0  0  0  0  0
    8.3194  -14.8476   25.7145 O   0  0  0  0  0  0  0  0  0  0  0  0
    7.3843  -15.7280   25.7485 N   0  0  0  0  0  0  0  0  0  0  0  0
    9.4908  -15.2251   26.3910 C   0  0  1  0  0  0  0  0  0  0  0  0
    9.6495  -16.5006   27.0660 C   0  0  0  0  0  0  0  0  0  0  0  0
   10.5412  -17.4304   26.2829 C   0  0  0  0  0  0  0  0  0  0  0  0
   10.8254  -18.7343   26.9937 C   0  0  0  0  0  0  0  0  0  0  0  0
   11.7917  -19.5306   26.1012 C   0  0  0  0  0  0  0  0  0  0  0  0
   12.0404  -20.8396   26.8128 N   0  0  0  0  0  0  0  0  0  0  0  0
   13.0270  -21.6518   26.1285 C   0  0  0  0  0  0  0  0  0  0  0  0
   10.0461  -16.3173   28.4690 O   0  0  0  0  0  0  0  0  0  0  0  0
   10.3813  -15.2646   29.0171 O   0  0  0  0  0  0  0  0  0  0  0  0
  2  1  1  0
  2  3  2  0
  4  2  1  0
  5  4  1  0
  6  5  1  0
  7  8  1  0
  7  6  1  0
  8  9  1  1
 10  8  1  0
 11 10  2  0
 13 12  1  6
 13 14  1  0
 15 16  1  1
 15 13  1  0
 16 10  1  0
 17 15  1  0
 18 17  2  0
 19 17  1  0
 20 26  1  0
 20 19  1  0
 21 22  1  0
 20 21  1  1
 23 24  1  0
 23 22  1  0
 25 24  1  0
 26 28  1  0
 27 26  2  0
M  END
$$$$
