RVK.pdb
     RDKit          3D

 28 27  0  0  1  0  0  0  0  0999 V2000
    9.8473  -20.1492   14.5048 N   0  0  0  0  0  0  0  0  0  0  0  0
    8.5022  -20.4598   14.1109 C   0  0  0  0  0  0  0  0  0  0  0  0
    8.2470  -20.4997   12.8519 N   0  0  0  0  0  0  0  0  0  0  0  0
    7.5336  -20.7040   15.1108 N   0  0  0  0  0  0  0  0  0  0  0  0
    7.8524  -20.5181   16.4956 C   0  0  0  0  0  0  0  0  0  0  0  0
    8.8301  -19.4061   16.7342 C   0  0  0  0  0  0  0  0  0  0  0  0
    8.4266  -18.3827   17.7285 C   0  0  0  0  0  0  0  0  0  0  0  0
    8.4557  -16.9534   17.2569 C   0  0  2  0  0  0  0  0  0  0  0  0
    9.1686  -16.7759   16.0360 N   0  0  0  0  0  0  0  0  0  0  0  0
    9.0675  -16.1590   18.3767 C   0  0  0  0  0  0  0  0  0  0  0  0
   10.3202  -16.1562   18.5289 O   0  0  0  0  0  0  0  0  0  0  0  0
    7.3105  -20.7741   12.4898 C   0  0  0  0  0  0  0  0  0  0  0  0
    6.7738  -14.1155   21.5399 C   0  0  1  0  0  0  0  0  0  0  0  0
    7.9863  -13.6076   20.8416 C   0  0  0  0  0  0  0  0  0  0  0  0
    7.6579  -12.6097   19.7428 C   0  0  1  0  0  0  0  0  0  0  0  0
    8.9643  -14.6455   20.3973 N   0  0  0  0  0  0  0  0  0  0  0  0
    8.3177  -15.3928   19.2986 C   0  0  0  0  0  0  0  0  0  0  0  0
    9.4984  -15.5474   21.4042 O   0  0  0  0  0  0  0  0  0  0  0  0
    8.8152  -16.6056   21.6577 N   0  0  0  0  0  0  0  0  0  0  0  0
   10.6785  -15.4296   22.1564 C   0  0  1  0  0  0  0  0  0  0  0  0
   11.0991  -16.4073   23.1438 C   0  0  0  0  0  0  0  0  0  0  0  0
   12.5419  -16.2097   23.5341 C   0  0  0  0  0  0  0  0  0  0  0  0
   13.0315  -17.2075   24.5590 C   0  0  0  0  0  0  0  0  0  0  0  0
   13.8502  -18.2651   23.8001 C   0  0  0  0  0  0  0  0  0  0  0  0
   14.3857  -19.2137   24.8467 N   0  0  0  0  0  0  0  0  0  0  0  0
   15.1364  -20.3053   24.2581 C   0  0  0  0  0  0  0  0  0  0  0  0
   10.1651  -16.4586   24.2770 O   0  0  0  0  0  0  0  0  0  0  0  0
    9.4756  -15.5354   24.7166 O   0  0  0  0  0  0  0  0  0  0  0  0
  2  1  1  0
  2  3  2  0
  4  2  1  0
  5  4  1  0
  6  5  1  0
  7  8  1  0
  7  6  1  0
  8  9  1  6
 10  8  1  0
 11 10  2  0
 13 12  1  1
 13 14  1  0
 15 16  1  6
 15 13  1  0
 16 10  1  0
 17 15  1  0
 18 17  2  0
 19 17  1  0
 20 26  1  0
 20 19  1  0
 21 22  1  0
 20 21  1  1
 23 24  1  0
 23 22  1  0
 25 24  1  0
 26 28  1  0
 27 26  2  0
M  END
$$$$
