RVK.pdb
     RDKit          3D

 28 27  0  0  1  0  0  0  0  0999 V2000
    9.4055  -13.3606   17.6530 N   0  0  0  0  0  0  0  0  0  0  0  0
    8.7309  -12.9479   18.8512 C   0  0  0  0  0  0  0  0  0  0  0  0
    9.3281  -12.0944   19.6041 N   0  0  0  0  0  0  0  0  0  0  0  0
    7.4594  -13.4910   19.1444 N   0  0  0  0  0  0  0  0  0  0  0  0
    6.8653  -14.4654   18.2776 C   0  0  0  0  0  0  0  0  0  0  0  0
    7.0727  -15.8762   18.7421 C   0  0  0  0  0  0  0  0  0  0  0  0
    6.7414  -16.1531   20.1606 C   0  0  0  0  0  0  0  0  0  0  0  0
    6.8993  -17.5808   20.6111 C   0  0  2  0  0  0  0  0  0  0  0  0
    6.0223  -18.4840   19.9436 N   0  0  0  0  0  0  0  0  0  0  0  0
    6.6650  -17.5761   22.0958 C   0  0  0  0  0  0  0  0  0  0  0  0
    5.5179  -17.3054   22.5465 O   0  0  0  0  0  0  0  0  0  0  0  0
    8.9257  -11.7887   20.5141 C   0  0  0  0  0  0  0  0  0  0  0  0
    7.5058  -19.3232   26.5140 C   0  0  1  0  0  0  0  0  0  0  0  0
    7.5947  -19.1789   25.0351 C   0  0  0  0  0  0  0  0  0  0  0  0
    8.8213  -19.8602   24.4501 C   0  0  2  0  0  0  0  0  0  0  0  0
    7.4004  -17.7967   24.5031 N   0  0  0  0  0  0  0  0  0  0  0  0
    7.6677  -17.8611   23.0512 C   0  0  0  0  0  0  0  0  0  0  0  0
    8.1488  -16.7192   25.1286 O   0  0  0  0  0  0  0  0  0  0  0  0
    9.3894  -16.6128   24.8116 N   0  0  0  0  0  0  0  0  0  0  0  0
    7.7046  -15.7553   26.0484 C   0  0  1  0  0  0  0  0  0  0  0  0
    8.5894  -14.8154   26.7127 C   0  0  0  0  0  0  0  0  0  0  0  0
    7.8278  -13.6342   27.2585 C   0  0  0  0  0  0  0  0  0  0  0  0
    7.2800  -12.7215   26.1847 C   0  0  0  0  0  0  0  0  0  0  0  0
    6.3960  -11.6793   26.8897 C   0  0  0  0  0  0  0  0  0  0  0  0
    5.8223  -10.8065   25.7984 N   0  0  0  0  0  0  0  0  0  0  0  0
    4.8801   -9.8351   26.3179 C   0  0  0  0  0  0  0  0  0  0  0  0
    9.4469  -15.4916   27.6958 O   0  0  0  0  0  0  0  0  0  0  0  0
    9.1664  -16.4848   28.3709 O   0  0  0  0  0  0  0  0  0  0  0  0
  2  1  1  0
  2  3  2  0
  4  2  1  0
  5  4  1  0
  6  5  1  0
  7  8  1  0
  7  6  1  0
  8  9  1  6
 10  8  1  0
 11 10  2  0
 13 12  1  6
 13 14  1  0
 15 16  1  1
 15 13  1  0
 16 10  1  0
 17 15  1  0
 18 17  2  0
 19 17  1  0
 20 26  1  0
 20 19  1  0
 21 22  1  0
 20 21  1  1
 23 24  1  0
 23 22  1  0
 25 24  1  0
 26 28  1  0
 27 26  2  0
M  END
$$$$
