YHE.pdb
     RDKit          3D

 32 33  0  0  1  0  0  0  0  0999 V2000
    5.6617  -10.3407   27.6598 O   0  0  0  0  0  0  0  0  0  0  0  0
    6.2328  -11.4875   27.0813 C   0  0  0  0  0  0  0  0  0  0  0  0
    5.8607  -12.7457   27.5049 C   0  0  0  0  0  0  0  0  0  0  0  0
    6.4245  -13.8940   26.9341 C   0  0  0  0  0  0  0  0  0  0  0  0
    7.3594  -13.7617   25.9403 C   0  0  0  0  0  0  0  0  0  0  0  0
    7.9562  -14.9657   25.3354 C   0  0  0  0  0  0  0  0  0  0  0  0
    7.2066  -15.2487   24.0324 C   0  0  2  0  0  0  0  0  0  0  0  0
    6.0652  -16.1121   24.2633 N   0  0  0  0  0  0  0  0  0  0  0  0
    8.1780  -15.8693   23.0973 C   0  0  0  0  0  0  0  0  0  0  0  0
    8.2814  -17.1205   23.0622 O   0  0  0  0  0  0  0  0  0  0  0  0
    7.7311  -12.5187   25.5176 C   0  0  0  0  0  0  0  0  0  0  0  0
    7.1752  -11.3690   26.0799 C   0  0  0  0  0  0  0  0  0  0  0  0
    8.9554  -15.0160   22.2757 N   0  0  0  0  0  0  0  0  0  0  0  0
    9.9601  -15.5513   21.3902 C   0  0  1  0  0  0  0  0  0  0  0  0
   10.3199  -14.6329   20.2939 C   0  0  0  0  0  0  0  0  0  0  0  0
    9.2202  -14.3938   19.3592 C   0  0  0  0  0  0  0  0  0  0  0  0
    8.4184  -13.3198   19.2089 C   0  0  0  0  0  0  0  0  0  0  0  0
    7.5194  -13.5749   18.2114 N   0  0  0  0  0  0  0  0  0  0  0  0
    7.7574  -14.8060   17.7384 C   0  0  0  0  0  0  0  0  0  0  0  0
    8.7836  -15.2984   18.4319 N   0  0  0  0  0  0  0  0  0  0  0  0
   11.1397  -15.9235   22.2340 C   0  0  0  0  0  0  0  0  0  0  0  0
   11.3772  -15.1989   23.2219 O   0  0  0  0  0  0  0  0  0  0  0  0
   11.9720  -17.0207   21.9755 N   0  0  0  0  0  0  0  0  0  0  0  0
   13.0581  -17.4552   22.8291 C   0  0  1  0  0  0  0  0  0  0  0  0
   12.9846  -18.8883   23.2105 C   0  0  0  0  0  0  0  0  0  0  0  0
   14.1453  -19.4661   23.9299 C   0  0  0  0  0  0  0  0  0  0  0  0
   13.7723  -20.2867   25.0996 C   0  0  0  0  0  0  0  0  0  0  0  0
   12.9937  -19.9226   26.0122 O   0  0  0  0  0  0  0  0  0  0  0  0
   14.3246  -16.9914   22.2625 C   0  0  0  0  0  0  0  0  0  0  0  0
   15.3764  -16.9491   22.9417 O   0  0  0  0  0  0  0  0  0  0  0  0
   14.3052  -21.5793   25.2431 O   0  0  0  0  0  0  0  0  0  0  0  0
   14.3934  -16.5808   20.9463 O   0  0  0  0  0  0  0  0  0  0  0  0
  2 12  2  0
  2  1  1  0
  3  2  1  0
  4  5  1  0
  4  3  2  0
  5 11  2  0
  6  5  1  0
  7  9  1  0
  7  6  1  0
  7  8  1  1
  9 10  2  0
 11 12  1  0
 13  9  1  0
 14 13  1  0
 14 15  1  6
 16 15  1  0
 16 17  2  0
 18 17  1  0
 19 18  1  0
 20 19  2  0
 20 16  1  0
 21 14  1  0
 22 21  2  0
 23 21  1  0
 24 23  1  0
 24 25  1  6
 26 25  1  0
 27 31  1  0
 27 26  1  0
 28 27  2  0
 29 24  1  0
 29 32  1  0
 30 29  2  0
M  END
$$$$
