YHE.pdb
     RDKit          3D

 32 33  0  0  1  0  0  0  0  0999 V2000
    5.6086  -10.4517   28.1237 O   0  0  0  0  0  0  0  0  0  0  0  0
    6.1499  -11.6311   27.5832 C   0  0  0  0  0  0  0  0  0  0  0  0
    7.1700  -12.2951   28.2308 C   0  0  0  0  0  0  0  0  0  0  0  0
    7.7153  -13.4710   27.6996 C   0  0  0  0  0  0  0  0  0  0  0  0
    7.2257  -13.9662   26.5188 C   0  0  0  0  0  0  0  0  0  0  0  0
    7.7948  -15.2029   25.9547 C   0  0  0  0  0  0  0  0  0  0  0  0
    6.6917  -15.8961   25.1531 C   0  0  2  0  0  0  0  0  0  0  0  0
    6.3310  -17.1665   25.7512 N   0  0  0  0  0  0  0  0  0  0  0  0
    7.2026  -16.0710   23.7705 C   0  0  0  0  0  0  0  0  0  0  0  0
    7.6485  -17.1913   23.4191 O   0  0  0  0  0  0  0  0  0  0  0  0
    6.2162  -13.3126   25.8740 C   0  0  0  0  0  0  0  0  0  0  0  0
    5.6665  -12.1408   26.3951 C   0  0  0  0  0  0  0  0  0  0  0  0
    7.1655  -14.9562   22.8969 N   0  0  0  0  0  0  0  0  0  0  0  0
    7.7482  -15.0258   21.5795 C   0  0  1  0  0  0  0  0  0  0  0  0
    7.2658  -13.9681   20.6721 C   0  0  0  0  0  0  0  0  0  0  0  0
    7.8965  -14.0101   19.3527 C   0  0  0  0  0  0  0  0  0  0  0  0
    8.7276  -13.1337   18.7526 C   0  0  0  0  0  0  0  0  0  0  0  0
    9.0369  -13.6000   17.5056 N   0  0  0  0  0  0  0  0  0  0  0  0
    8.4006  -14.7655   17.3250 C   0  0  0  0  0  0  0  0  0  0  0  0
    7.7132  -15.0113   18.4401 N   0  0  0  0  0  0  0  0  0  0  0  0
    9.2354  -14.9959   21.7520 C   0  0  0  0  0  0  0  0  0  0  0  0
    9.6827  -14.2672   22.6610 O   0  0  0  0  0  0  0  0  0  0  0  0
   10.1299  -15.7291   20.9613 N   0  0  0  0  0  0  0  0  0  0  0  0
   11.5663  -15.7552   21.1436 C   0  0  1  0  0  0  0  0  0  0  0  0
   12.0106  -16.5919   22.2870 C   0  0  0  0  0  0  0  0  0  0  0  0
   11.6908  -18.0390   22.2419 C   0  0  0  0  0  0  0  0  0  0  0  0
   12.2565  -18.8091   23.3679 C   0  0  0  0  0  0  0  0  0  0  0  0
   11.7627  -19.8617   23.8366 O   0  0  0  0  0  0  0  0  0  0  0  0
   12.2059  -16.0145   19.8537 C   0  0  0  0  0  0  0  0  0  0  0  0
   13.4387  -15.8676   19.6859 O   0  0  0  0  0  0  0  0  0  0  0  0
   13.4357  -18.3673   23.9922 O   0  0  0  0  0  0  0  0  0  0  0  0
   11.4561  -16.4319   18.7724 O   0  0  0  0  0  0  0  0  0  0  0  0
  2 12  2  0
  2  1  1  0
  3  2  1  0
  4  5  1  0
  4  3  2  0
  5 11  2  0
  6  5  1  0
  7  9  1  0
  7  6  1  0
  7  8  1  1
  9 10  2  0
 11 12  1  0
 13  9  1  0
 14 13  1  0
 14 15  1  6
 16 15  1  0
 16 17  2  0
 18 17  1  0
 19 18  1  0
 20 19  2  0
 20 16  1  0
 21 14  1  0
 22 21  2  0
 23 21  1  0
 24 23  1  0
 24 25  1  1
 26 25  1  0
 27 31  1  0
 27 26  1  0
 28 27  2  0
 29 24  1  0
 29 32  1  0
 30 29  2  0
M  END
$$$$
