YHE.pdb
     RDKit          3D

 32 33  0  0  1  0  0  0  0  0999 V2000
    5.5806  -12.2171   19.1137 O   0  0  0  0  0  0  0  0  0  0  0  0
    6.8645  -12.7486   19.3264 C   0  0  0  0  0  0  0  0  0  0  0  0
    7.0303  -13.9150   20.0425 C   0  0  0  0  0  0  0  0  0  0  0  0
    8.3059  -14.4520   20.2593 C   0  0  0  0  0  0  0  0  0  0  0  0
    9.4030  -13.8062   19.7509 C   0  0  0  0  0  0  0  0  0  0  0  0
   10.7476  -14.3659   19.9752 C   0  0  0  0  0  0  0  0  0  0  0  0
   11.2381  -14.9388   18.6443 C   0  0  2  0  0  0  0  0  0  0  0  0
   10.3866  -16.0234   18.1971 N   0  0  0  0  0  0  0  0  0  0  0  0
   12.6349  -15.3946   18.8549 C   0  0  0  0  0  0  0  0  0  0  0  0
   12.8539  -16.6075   19.0962 O   0  0  0  0  0  0  0  0  0  0  0  0
    9.2441  -12.6514   19.0415 C   0  0  0  0  0  0  0  0  0  0  0  0
    7.9778  -12.1088   18.8202 C   0  0  0  0  0  0  0  0  0  0  0  0
   13.6724  -14.4332   18.7741 N   0  0  0  0  0  0  0  0  0  0  0  0
   15.0565  -14.8364   18.7320 C   0  0  1  0  0  0  0  0  0  0  0  0
   15.8606  -14.0609   17.7693 C   0  0  0  0  0  0  0  0  0  0  0  0
   15.8753  -14.6463   16.4286 C   0  0  0  0  0  0  0  0  0  0  0  0
   15.2623  -15.7476   15.9487 C   0  0  0  0  0  0  0  0  0  0  0  0
   15.5959  -15.9014   14.6321 N   0  0  0  0  0  0  0  0  0  0  0  0
   16.4162  -14.8990   14.2885 C   0  0  0  0  0  0  0  0  0  0  0  0
   16.5837  -14.1430   15.3733 N   0  0  0  0  0  0  0  0  0  0  0  0
   15.5876  -14.7394   20.1287 C   0  0  0  0  0  0  0  0  0  0  0  0
   16.8150  -14.9084   20.2779 O   0  0  0  0  0  0  0  0  0  0  0  0
   14.7927  -14.4744   21.2517 N   0  0  0  0  0  0  0  0  0  0  0  0
   14.9212  -15.1384   22.5323 C   0  0  1  0  0  0  0  0  0  0  0  0
   13.7409  -15.9594   22.9031 C   0  0  0  0  0  0  0  0  0  0  0  0
   13.8950  -17.4338   22.8721 C   0  0  0  0  0  0  0  0  0  0  0  0
   12.7935  -18.1616   23.5338 C   0  0  0  0  0  0  0  0  0  0  0  0
   11.6122  -18.2079   23.1169 O   0  0  0  0  0  0  0  0  0  0  0  0
   16.2256  -15.7973   22.5988 C   0  0  0  0  0  0  0  0  0  0  0  0
   16.7263  -16.3738   21.6057 O   0  0  0  0  0  0  0  0  0  0  0  0
   13.0406  -18.8698   24.7224 O   0  0  0  0  0  0  0  0  0  0  0  0
   16.9476  -15.8021   23.7754 O   0  0  0  0  0  0  0  0  0  0  0  0
  2 12  2  0
  2  1  1  0
  3  2  1  0
  4  5  1  0
  4  3  2  0
  5 11  2  0
  6  5  1  0
  7  9  1  0
  7  6  1  0
  7  8  1  1
  9 10  2  0
 11 12  1  0
 13  9  1  0
 14 13  1  0
 14 15  1  6
 16 15  1  0
 16 17  2  0
 18 17  1  0
 19 18  1  0
 20 19  2  0
 20 16  1  0
 21 14  1  0
 22 21  2  0
 23 21  1  0
 24 23  1  0
 24 25  1  6
 26 25  1  0
 27 31  1  0
 27 26  1  0
 28 27  2  0
 29 24  1  0
 29 32  1  0
 30 29  2  0
M  END
$$$$
