YHE.pdb
     RDKit          3D

 32 33  0  0  1  0  0  0  0  0999 V2000
   17.2101  -17.4261   14.9473 O   0  0  0  0  0  0  0  0  0  0  0  0
   16.4061  -17.0263   16.0288 C   0  0  0  0  0  0  0  0  0  0  0  0
   16.7007  -15.8792   16.7348 C   0  0  0  0  0  0  0  0  0  0  0  0
   15.9050  -15.4732   17.8138 C   0  0  0  0  0  0  0  0  0  0  0  0
   14.8185  -16.2292   18.1707 C   0  0  0  0  0  0  0  0  0  0  0  0
   13.9773  -15.8074   19.3046 C   0  0  0  0  0  0  0  0  0  0  0  0
   12.8290  -14.9680   18.7416 C   0  0  2  0  0  0  0  0  0  0  0  0
   13.3230  -13.7486   18.1330 N   0  0  0  0  0  0  0  0  0  0  0  0
   11.9076  -14.6791   19.8689 C   0  0  0  0  0  0  0  0  0  0  0  0
   12.1741  -13.7335   20.6513 O   0  0  0  0  0  0  0  0  0  0  0  0
   14.5228  -17.3653   17.4751 C   0  0  0  0  0  0  0  0  0  0  0  0
   15.3093  -17.7779   16.3989 C   0  0  0  0  0  0  0  0  0  0  0  0
   10.7551  -15.4899   20.0164 N   0  0  0  0  0  0  0  0  0  0  0  0
    9.7340  -15.1603   20.9801 C   0  0  1  0  0  0  0  0  0  0  0  0
    8.3775  -15.1238   20.4027 C   0  0  0  0  0  0  0  0  0  0  0  0
    8.2977  -14.3396   19.1702 C   0  0  0  0  0  0  0  0  0  0  0  0
    8.0188  -13.0337   18.9813 C   0  0  0  0  0  0  0  0  0  0  0  0
    8.0412  -12.7658   17.6412 N   0  0  0  0  0  0  0  0  0  0  0  0
    8.3331  -13.9014   16.9923 C   0  0  0  0  0  0  0  0  0  0  0  0
    8.4874  -14.8496   17.9161 N   0  0  0  0  0  0  0  0  0  0  0  0
    9.8509  -16.1451   22.1020 C   0  0  0  0  0  0  0  0  0  0  0  0
    8.9108  -16.1794   22.9221 O   0  0  0  0  0  0  0  0  0  0  0  0
   10.9391  -17.0108   22.2734 N   0  0  0  0  0  0  0  0  0  0  0  0
   11.0698  -17.9739   23.3470 C   0  0  1  0  0  0  0  0  0  0  0  0
   11.9341  -19.1334   23.0106 C   0  0  0  0  0  0  0  0  0  0  0  0
   13.3824  -18.8769   22.8236 C   0  0  0  0  0  0  0  0  0  0  0  0
   14.1104  -20.0002   22.2000 C   0  0  0  0  0  0  0  0  0  0  0  0
   14.6477  -20.9432   22.8275 O   0  0  0  0  0  0  0  0  0  0  0  0
   11.3781  -17.2645   24.5888 C   0  0  0  0  0  0  0  0  0  0  0  0
   11.3219  -17.8308   25.7048 O   0  0  0  0  0  0  0  0  0  0  0  0
   14.2360  -20.0591   20.8014 O   0  0  0  0  0  0  0  0  0  0  0  0
   11.7424  -15.9333   24.5619 O   0  0  0  0  0  0  0  0  0  0  0  0
  2 12  2  0
  2  1  1  0
  3  2  1  0
  4  5  1  0
  4  3  2  0
  5 11  2  0
  6  5  1  0
  7  9  1  0
  7  6  1  0
  7  8  1  1
  9 10  2  0
 11 12  1  0
 13  9  1  0
 14 13  1  0
 14 15  1  6
 16 15  1  0
 16 17  2  0
 18 17  1  0
 19 18  1  0
 20 19  2  0
 20 16  1  0
 21 14  1  0
 22 21  2  0
 23 21  1  0
 24 23  1  0
 24 25  1  6
 26 25  1  0
 27 31  1  0
 27 26  1  0
 28 27  2  0
 29 24  1  0
 29 32  1  0
 30 29  2  0
M  END
$$$$
