YHE.pdb
     RDKit          3D

 32 33  0  0  1  0  0  0  0  0999 V2000
    5.2712  -10.3181   27.7129 O   0  0  0  0  0  0  0  0  0  0  0  0
    5.9141  -11.4463   27.1744 C   0  0  0  0  0  0  0  0  0  0  0  0
    6.8597  -11.3065   26.1808 C   0  0  0  0  0  0  0  0  0  0  0  0
    7.5053  -12.4251   25.6385 C   0  0  0  0  0  0  0  0  0  0  0  0
    7.1904  -13.6754   26.1043 C   0  0  0  0  0  0  0  0  0  0  0  0
    7.8661  -14.8562   25.5382 C   0  0  0  0  0  0  0  0  0  0  0  0
    7.1743  -15.1960   24.2169 C   0  0  2  0  0  0  0  0  0  0  0  0
    6.0060  -16.0254   24.4372 N   0  0  0  0  0  0  0  0  0  0  0  0
    8.1767  -15.8830   23.3647 C   0  0  0  0  0  0  0  0  0  0  0  0
    8.2200  -17.1382   23.3602 O   0  0  0  0  0  0  0  0  0  0  0  0
    6.2551  -13.8189   27.0875 C   0  0  0  0  0  0  0  0  0  0  0  0
    5.6067  -12.7108   27.6340 C   0  0  0  0  0  0  0  0  0  0  0  0
    9.0510  -15.0865   22.5846 N   0  0  0  0  0  0  0  0  0  0  0  0
   10.0094  -15.6914   21.6927 C   0  0  1  0  0  0  0  0  0  0  0  0
   10.2878  -14.8759   20.4960 C   0  0  0  0  0  0  0  0  0  0  0  0
    9.0961  -14.6124   19.6893 C   0  0  0  0  0  0  0  0  0  0  0  0
    8.2872  -13.5338   19.6508 C   0  0  0  0  0  0  0  0  0  0  0  0
    7.2865  -13.7632   18.7486 N   0  0  0  0  0  0  0  0  0  0  0  0
    7.4680  -14.9828   18.2235 C   0  0  0  0  0  0  0  0  0  0  0  0
    8.5599  -15.4935   18.7921 N   0  0  0  0  0  0  0  0  0  0  0  0
   11.2435  -15.9704   22.4936 C   0  0  0  0  0  0  0  0  0  0  0  0
   11.9407  -14.9868   22.8156 O   0  0  0  0  0  0  0  0  0  0  0  0
   11.6457  -17.2525   22.8906 N   0  0  0  0  0  0  0  0  0  0  0  0
   12.8143  -17.5414   23.6957 C   0  0  1  0  0  0  0  0  0  0  0  0
   12.6345  -18.6855   24.6248 C   0  0  0  0  0  0  0  0  0  0  0  0
   11.5131  -18.6129   25.5921 C   0  0  0  0  0  0  0  0  0  0  0  0
   11.3653  -19.8238   26.4243 C   0  0  0  0  0  0  0  0  0  0  0  0
   11.8912  -19.9887   27.5503 O   0  0  0  0  0  0  0  0  0  0  0  0
   13.9925  -17.5788   22.8294 C   0  0  0  0  0  0  0  0  0  0  0  0
   13.9263  -17.9665   21.6400 O   0  0  0  0  0  0  0  0  0  0  0  0
   10.5862  -20.8978   25.9607 O   0  0  0  0  0  0  0  0  0  0  0  0
   15.2256  -17.1837   23.3081 O   0  0  0  0  0  0  0  0  0  0  0  0
  2 12  2  0
  2  1  1  0
  3  2  1  0
  4  5  1  0
  4  3  2  0
  5 11  2  0
  6  5  1  0
  7  9  1  0
  7  6  1  0
  7  8  1  1
  9 10  2  0
 11 12  1  0
 13  9  1  0
 14 13  1  0
 14 15  1  6
 16 15  1  0
 16 17  2  0
 18 17  1  0
 19 18  1  0
 20 19  2  0
 20 16  1  0
 21 14  1  0
 22 21  2  0
 23 21  1  0
 24 23  1  0
 24 25  1  6
 26 25  1  0
 27 31  1  0
 27 26  1  0
 28 27  2  0
 29 24  1  0
 29 32  1  0
 30 29  2  0
M  END
$$$$
