YHE.pdb
     RDKit          3D

 32 33  0  0  1  0  0  0  0  0999 V2000
    5.7169  -10.3107   27.5759 O   0  0  0  0  0  0  0  0  0  0  0  0
    6.2160  -11.5444   27.1230 C   0  0  0  0  0  0  0  0  0  0  0  0
    7.4576  -11.9885   27.5256 C   0  0  0  0  0  0  0  0  0  0  0  0
    7.9629  -13.2164   27.0793 C   0  0  0  0  0  0  0  0  0  0  0  0
    7.2099  -13.9853   26.2302 C   0  0  0  0  0  0  0  0  0  0  0  0
    7.7355  -15.2782   25.7573 C   0  0  0  0  0  0  0  0  0  0  0  0
    6.9538  -15.6634   24.5001 C   0  0  2  0  0  0  0  0  0  0  0  0
    5.9211  -16.6342   24.8042 N   0  0  0  0  0  0  0  0  0  0  0  0
    7.9354  -16.2004   23.5247 C   0  0  0  0  0  0  0  0  0  0  0  0
    8.0673  -17.4440   23.4096 O   0  0  0  0  0  0  0  0  0  0  0  0
    5.9805  -13.5501   25.8289 C   0  0  0  0  0  0  0  0  0  0  0  0
    5.4685  -12.3286   26.2679 C   0  0  0  0  0  0  0  0  0  0  0  0
    8.6894  -15.2787   22.7571 N   0  0  0  0  0  0  0  0  0  0  0  0
    9.6599  -15.7347   21.7926 C   0  0  1  0  0  0  0  0  0  0  0  0
    9.9510  -14.7401   20.7435 C   0  0  0  0  0  0  0  0  0  0  0  0
    8.8786  -14.6145   19.7562 C   0  0  0  0  0  0  0  0  0  0  0  0
    7.7570  -15.3438   19.5861 C   0  0  0  0  0  0  0  0  0  0  0  0
    7.0705  -14.8552   18.5099 N   0  0  0  0  0  0  0  0  0  0  0  0
    7.7608  -13.8225   18.0070 C   0  0  0  0  0  0  0  0  0  0  0  0
    8.8512  -13.6789   18.7599 N   0  0  0  0  0  0  0  0  0  0  0  0
   10.8848  -16.1366   22.5545 C   0  0  0  0  0  0  0  0  0  0  0  0
   11.2187  -15.4069   23.5102 O   0  0  0  0  0  0  0  0  0  0  0  0
   11.6578  -17.2659   22.2543 N   0  0  0  0  0  0  0  0  0  0  0  0
   12.5805  -17.9047   23.1696 C   0  0  1  0  0  0  0  0  0  0  0  0
   11.9841  -19.0282   23.9356 C   0  0  0  0  0  0  0  0  0  0  0  0
   12.8724  -19.7768   24.8572 C   0  0  0  0  0  0  0  0  0  0  0  0
   12.2118  -20.9148   25.5274 C   0  0  0  0  0  0  0  0  0  0  0  0
   12.3825  -22.1203   25.2290 O   0  0  0  0  0  0  0  0  0  0  0  0
   13.8335  -18.1820   22.4672 C   0  0  0  0  0  0  0  0  0  0  0  0
   13.8744  -18.3367   21.2247 O   0  0  0  0  0  0  0  0  0  0  0  0
   11.3165  -20.6773   26.5846 O   0  0  0  0  0  0  0  0  0  0  0  0
   15.0196  -18.2834   23.1661 O   0  0  0  0  0  0  0  0  0  0  0  0
  2 12  2  0
  2  1  1  0
  3  2  1  0
  4  5  1  0
  4  3  2  0
  5 11  2  0
  6  5  1  0
  7  9  1  0
  7  6  1  0
  7  8  1  1
  9 10  2  0
 11 12  1  0
 13  9  1  0
 14 13  1  0
 14 15  1  6
 16 15  1  0
 16 17  2  0
 18 17  1  0
 19 18  1  0
 20 19  2  0
 20 16  1  0
 21 14  1  0
 22 21  2  0
 23 21  1  0
 24 23  1  0
 24 25  1  6
 26 25  1  0
 27 31  1  0
 27 26  1  0
 28 27  2  0
 29 24  1  0
 29 32  1  0
 30 29  2  0
M  END
$$$$
