YHE.pdb
     RDKit          3D

 32 33  0  0  1  0  0  0  0  0999 V2000
    6.1772  -10.2869   26.1594 O   0  0  0  0  0  0  0  0  0  0  0  0
    6.3793  -11.6636   25.9592 C   0  0  0  0  0  0  0  0  0  0  0  0
    7.5195  -12.1209   25.3333 C   0  0  0  0  0  0  0  0  0  0  0  0
    7.7292  -13.4909   25.1297 C   0  0  0  0  0  0  0  0  0  0  0  0
    6.7855  -14.3873   25.5600 C   0  0  0  0  0  0  0  0  0  0  0  0
    7.0003  -15.8299   25.3492 C   0  0  0  0  0  0  0  0  0  0  0  0
    6.6950  -16.1333   23.8813 C   0  0  2  0  0  0  0  0  0  0  0  0
    5.7048  -17.1851   23.7604 N   0  0  0  0  0  0  0  0  0  0  0  0
    7.9776  -16.5169   23.2402 C   0  0  0  0  0  0  0  0  0  0  0  0
    8.2856  -17.7321   23.1646 O   0  0  0  0  0  0  0  0  0  0  0  0
    5.6554  -13.9397   26.1801 C   0  0  0  0  0  0  0  0  0  0  0  0
    5.4375  -12.5771   26.3874 C   0  0  0  0  0  0  0  0  0  0  0  0
    8.8086  -15.4862   22.7357 N   0  0  0  0  0  0  0  0  0  0  0  0
    9.9595  -15.7919   21.9221 C   0  0  1  0  0  0  0  0  0  0  0  0
   10.2292  -14.7754   20.8883 C   0  0  0  0  0  0  0  0  0  0  0  0
    9.0833  -14.5263   20.0134 C   0  0  0  0  0  0  0  0  0  0  0  0
    8.5676  -15.2716   19.0147 C   0  0  0  0  0  0  0  0  0  0  0  0
    7.5023  -14.6087   18.4726 N   0  0  0  0  0  0  0  0  0  0  0  0
    7.3515  -13.4507   19.1301 C   0  0  0  0  0  0  0  0  0  0  0  0
    8.3061  -13.4027   20.0590 N   0  0  0  0  0  0  0  0  0  0  0  0
   11.1185  -15.9840   22.8505 C   0  0  0  0  0  0  0  0  0  0  0  0
   11.9444  -15.0511   22.9214 O   0  0  0  0  0  0  0  0  0  0  0  0
   11.3178  -17.1335   23.6264 N   0  0  0  0  0  0  0  0  0  0  0  0
   12.4182  -17.3305   24.5469 C   0  0  1  0  0  0  0  0  0  0  0  0
   12.0399  -18.0522   25.7882 C   0  0  0  0  0  0  0  0  0  0  0  0
   10.5954  -18.2747   26.0380 C   0  0  0  0  0  0  0  0  0  0  0  0
   10.3152  -19.0402   27.2693 C   0  0  0  0  0  0  0  0  0  0  0  0
   11.1869  -19.5654   28.0013 O   0  0  0  0  0  0  0  0  0  0  0  0
   13.5688  -17.8527   23.8094 C   0  0  0  0  0  0  0  0  0  0  0  0
   13.4585  -18.3049   22.6464 O   0  0  0  0  0  0  0  0  0  0  0  0
    8.9867  -19.2196   27.6917 O   0  0  0  0  0  0  0  0  0  0  0  0
   14.8232  -17.8620   24.3856 O   0  0  0  0  0  0  0  0  0  0  0  0
  2 12  2  0
  2  1  1  0
  3  2  1  0
  4  5  1  0
  4  3  2  0
  5 11  2  0
  6  5  1  0
  7  9  1  0
  7  6  1  0
  7  8  1  1
  9 10  2  0
 11 12  1  0
 13  9  1  0
 14 13  1  0
 14 15  1  6
 16 15  1  0
 16 17  2  0
 18 17  1  0
 19 18  1  0
 20 19  2  0
 20 16  1  0
 21 14  1  0
 22 21  2  0
 23 21  1  0
 24 23  1  0
 24 25  1  1
 26 25  1  0
 27 31  1  0
 27 26  1  0
 28 27  2  0
 29 24  1  0
 29 32  1  0
 30 29  2  0
M  END
$$$$
