CEP.pdb
     RDKit          3D

 23 23  0  0  1  0  0  0  0  0999 V2000
   14.6727  -11.3679  -11.5785 N   0  0  0  0  0  0  0  0  0  0  0  0
   15.0025   -9.9533  -11.5935 C   0  0  1  0  0  0  0  0  0  0  0  0
   15.1549   -9.3732  -10.2062 C   0  0  0  0  0  0  0  0  0  0  0  0
   13.6243   -9.4772   -9.2557 S   0  0  0  0  0  0  0  0  0  0  0  0
   16.2823   -9.7785  -12.3115 C   0  0  0  0  0  0  0  0  0  0  0  0
   17.2074  -10.6594  -12.2416 O   0  0  0  0  0  0  0  0  0  0  0  0
   16.4951   -8.6131  -13.0937 N   0  0  0  0  0  0  0  0  0  0  0  0
   17.6928   -8.4087  -13.9050 C   0  0  1  0  0  0  0  0  0  0  0  0
   17.3346   -8.0668  -15.3128 C   0  0  0  0  0  0  0  0  0  0  0  0
   18.6100   -7.8176  -16.1124 C   0  0  0  0  0  0  0  0  0  0  0  0
   18.1946   -7.4698  -17.4816 C   0  0  0  0  0  0  0  0  0  0  0  0
   18.4809   -8.2906  -18.4091 O   0  0  0  0  0  0  0  0  0  0  0  0
   18.5983   -7.4120  -13.2828 C   0  0  0  0  0  0  0  0  0  0  0  0
   18.0078   -6.4816  -12.6379 O   0  0  0  0  0  0  0  0  0  0  0  0
   17.5083   -6.2954  -17.8016 O   0  0  0  0  0  0  0  0  0  0  0  0
   19.9971   -7.4163  -13.3389 N   0  0  0  0  0  0  0  0  0  0  0  0
   20.8663   -8.3248  -14.0307 C   0  0  0  0  0  0  0  0  0  0  0  0
   22.2009   -8.2805  -13.2670 C   0  0  0  0  0  0  0  0  0  0  0  0
   21.8209   -7.4976  -12.0384 C   0  0  0  0  0  0  0  0  0  0  0  0
   20.8681   -6.4635  -12.6643 C   0  0  1  0  0  0  0  0  0  0  0  0
   21.6399   -5.6281  -13.6058 C   0  0  0  0  0  0  0  0  0  0  0  0
   22.3925   -4.5767  -13.0656 O   0  0  0  0  0  0  0  0  0  0  0  0
   21.6760   -5.7848  -14.8542 O   0  0  0  0  0  0  0  0  0  0  0  0
  2  5  1  0
  2  1  1  1
  2  3  1  0
  4  3  1  0
  5  6  2  0
  7  8  1  0
  7  5  1  0
  8 13  1  0
  8  9  1  6
 10  9  1  0
 10 11  1  0
 11 15  1  0
 11 12  2  0
 13 14  2  0
 13 16  1  0
 16 20  1  0
 16 17  1  0
 17 18  1  0
 19 18  1  0
 20 19  1  0
 21 22  1  0
 20 21  1  6
 23 21  2  0
M  END
$$$$
