CEP.pdb
     RDKit          3D

 23 23  0  0  1  0  0  0  0  0999 V2000
   23.8660  -14.0546  -17.5718 N   0  0  0  0  0  0  0  0  0  0  0  0
   23.1484  -13.0260  -18.3048 C   0  0  1  0  0  0  0  0  0  0  0  0
   21.7055  -13.3923  -18.5660 C   0  0  0  0  0  0  0  0  0  0  0  0
   21.5553  -14.9005  -19.5456 S   0  0  0  0  0  0  0  0  0  0  0  0
   23.1734  -11.7806  -17.5097 C   0  0  0  0  0  0  0  0  0  0  0  0
   22.9918  -11.7988  -16.2434 O   0  0  0  0  0  0  0  0  0  0  0  0
   23.4012  -10.5383  -18.1577 N   0  0  0  0  0  0  0  0  0  0  0  0
   23.3793   -9.2588  -17.4526 C   0  0  1  0  0  0  0  0  0  0  0  0
   24.2500   -8.2565  -18.1339 C   0  0  0  0  0  0  0  0  0  0  0  0
   25.7117   -8.5576  -17.8156 C   0  0  0  0  0  0  0  0  0  0  0  0
   26.5185   -7.5427  -18.5137 C   0  0  0  0  0  0  0  0  0  0  0  0
   26.9158   -6.5414  -17.8387 O   0  0  0  0  0  0  0  0  0  0  0  0
   21.9897   -8.7773  -17.2584 C   0  0  0  0  0  0  0  0  0  0  0  0
   21.1582   -9.1714  -18.1437 O   0  0  0  0  0  0  0  0  0  0  0  0
   26.8630   -7.6309  -19.8651 O   0  0  0  0  0  0  0  0  0  0  0  0
   21.5348   -7.9618  -16.2155 N   0  0  0  0  0  0  0  0  0  0  0  0
   22.2720   -7.4229  -15.1086 C   0  0  0  0  0  0  0  0  0  0  0  0
   21.2339   -7.1854  -13.9985 C   0  0  0  0  0  0  0  0  0  0  0  0
   20.0231   -7.8799  -14.5625 C   0  0  0  0  0  0  0  0  0  0  0  0
   20.1638   -7.4994  -16.0472 C   0  0  1  0  0  0  0  0  0  0  0  0
   20.0359   -6.0334  -16.1670 C   0  0  0  0  0  0  0  0  0  0  0  0
   18.7456   -5.4916  -16.0949 O   0  0  0  0  0  0  0  0  0  0  0  0
   20.9927   -5.2317  -16.3285 O   0  0  0  0  0  0  0  0  0  0  0  0
  2  5  1  0
  2  1  1  1
  2  3  1  0
  4  3  1  0
  5  6  2  0
  7  8  1  0
  7  5  1  0
  8 13  1  0
  8  9  1  6
 10  9  1  0
 10 11  1  0
 11 15  1  0
 11 12  2  0
 13 14  2  0
 13 16  1  0
 16 20  1  0
 16 17  1  0
 17 18  1  0
 19 18  1  0
 20 19  1  0
 21 22  1  0
 20 21  1  1
 23 21  2  0
M  END
$$$$
