CEP.pdb
     RDKit          3D

 23 23  0  0  1  0  0  0  0  0999 V2000
   23.5843  -13.1620  -18.1546 N   0  0  0  0  0  0  0  0  0  0  0  0
   23.6185  -12.4723  -16.8765 C   0  0  1  0  0  0  0  0  0  0  0  0
   25.0245  -12.1666  -16.4139 C   0  0  0  0  0  0  0  0  0  0  0  0
   25.8829  -13.6434  -15.8312 S   0  0  0  0  0  0  0  0  0  0  0  0
   22.8884  -11.1948  -17.0142 C   0  0  0  0  0  0  0  0  0  0  0  0
   23.0430  -10.4503  -18.0431 O   0  0  0  0  0  0  0  0  0  0  0  0
   21.9988  -10.7805  -15.9884 N   0  0  0  0  0  0  0  0  0  0  0  0
   21.2228   -9.5447  -16.0613 C   0  0  1  0  0  0  0  0  0  0  0  0
   19.7861   -9.7946  -15.7441 C   0  0  0  0  0  0  0  0  0  0  0  0
   19.0246   -8.4727  -15.7751 C   0  0  0  0  0  0  0  0  0  0  0  0
   17.6076   -8.7905  -15.5316 C   0  0  0  0  0  0  0  0  0  0  0  0
   17.2151   -8.8385  -14.3234 O   0  0  0  0  0  0  0  0  0  0  0  0
   21.8232   -8.4839  -15.2158 C   0  0  0  0  0  0  0  0  0  0  0  0
   22.4219   -8.9074  -14.1706 O   0  0  0  0  0  0  0  0  0  0  0  0
   16.6882   -9.0366  -16.5548 O   0  0  0  0  0  0  0  0  0  0  0  0
   21.7923   -7.1074  -15.4693 N   0  0  0  0  0  0  0  0  0  0  0  0
   21.1722   -6.4074  -16.5577 C   0  0  0  0  0  0  0  0  0  0  0  0
   21.9554   -5.0912  -16.7008 C   0  0  0  0  0  0  0  0  0  0  0  0
   23.1275   -5.3355  -15.7880 C   0  0  0  0  0  0  0  0  0  0  0  0
   22.4235   -6.0866  -14.6439 C   0  0  1  0  0  0  0  0  0  0  0  0
   21.4472   -5.1732  -14.0176 C   0  0  0  0  0  0  0  0  0  0  0  0
   20.1015   -5.3232  -14.3788 O   0  0  0  0  0  0  0  0  0  0  0  0
   21.7266   -4.2710  -13.1856 O   0  0  0  0  0  0  0  0  0  0  0  0
  2  5  1  0
  2  1  1  6
  2  3  1  0
  4  3  1  0
  5  6  2  0
  7  8  1  0
  7  5  1  0
  8 13  1  0
  8  9  1  1
 10  9  1  0
 10 11  1  0
 11 15  1  0
 11 12  2  0
 13 14  2  0
 13 16  1  0
 16 20  1  0
 16 17  1  0
 17 18  1  0
 19 18  1  0
 20 19  1  0
 21 22  1  0
 20 21  1  6
 23 21  2  0
M  END
$$$$
