CEP.pdb
     RDKit          3D

 23 23  0  0  1  0  0  0  0  0999 V2000
   41.0178  -10.6243   -8.0987 N   0  0  0  0  0  0  0  0  0  0  0  0
   39.7923   -9.8460   -8.0488 C   0  0  1  0  0  0  0  0  0  0  0  0
   39.3584   -9.5275   -6.6366 C   0  0  0  0  0  0  0  0  0  0  0  0
   38.2591  -10.7907   -5.9636 S   0  0  0  0  0  0  0  0  0  0  0  0
   40.0175   -8.5716   -8.7625 C   0  0  0  0  0  0  0  0  0  0  0  0
   41.1925   -8.0819   -8.8901 O   0  0  0  0  0  0  0  0  0  0  0  0
   38.9133   -7.8732   -9.3177 N   0  0  0  0  0  0  0  0  0  0  0  0
   39.0517   -6.6025  -10.0252 C   0  0  1  0  0  0  0  0  0  0  0  0
   37.8959   -6.3699  -10.9402 C   0  0  0  0  0  0  0  0  0  0  0  0
   38.0637   -5.0210  -11.6334 C   0  0  0  0  0  0  0  0  0  0  0  0
   36.8942   -4.8431  -12.5102 C   0  0  0  0  0  0  0  0  0  0  0  0
   36.2364   -3.7608  -12.4004 O   0  0  0  0  0  0  0  0  0  0  0  0
   39.2707   -5.4823   -9.0777 C   0  0  0  0  0  0  0  0  0  0  0  0
   38.6639   -5.6000   -7.9605 O   0  0  0  0  0  0  0  0  0  0  0  0
   36.4822   -5.7966  -13.4450 O   0  0  0  0  0  0  0  0  0  0  0  0
   40.0669   -4.3528   -9.3018 N   0  0  0  0  0  0  0  0  0  0  0  0
   40.8074   -3.9937  -10.4773 C   0  0  0  0  0  0  0  0  0  0  0  0
   41.9463   -3.0841   -9.9851 C   0  0  0  0  0  0  0  0  0  0  0  0
   41.8420   -3.2492   -8.4923 C   0  0  0  0  0  0  0  0  0  0  0  0
   40.3116   -3.2919   -8.3341 C   0  0  1  0  0  0  0  0  0  0  0  0
   39.7621   -1.9900   -8.7616 C   0  0  0  0  0  0  0  0  0  0  0  0
   39.7860   -0.9438   -7.8296 O   0  0  0  0  0  0  0  0  0  0  0  0
   39.2742   -1.7447   -9.8957 O   0  0  0  0  0  0  0  0  0  0  0  0
  2  5  1  0
  2  1  1  1
  2  3  1  0
  4  3  1  0
  5  6  2  0
  7  8  1  0
  7  5  1  0
  8 13  1  0
  8  9  1  1
 10  9  1  0
 10 11  1  0
 11 15  1  0
 11 12  2  0
 13 14  2  0
 13 16  1  0
 16 20  1  0
 16 17  1  0
 17 18  1  0
 19 18  1  0
 20 19  1  0
 21 22  1  0
 20 21  1  6
 23 21  2  0
M  END
$$$$
