CEP.pdb
     RDKit          3D

 23 23  0  0  1  0  0  0  0  0999 V2000
   15.3660  -13.7014  -15.2777 N   0  0  0  0  0  0  0  0  0  0  0  0
   15.2900  -12.2625  -15.4625 C   0  0  1  0  0  0  0  0  0  0  0  0
   14.6383  -11.5562  -14.2961 C   0  0  0  0  0  0  0  0  0  0  0  0
   12.9056  -12.0225  -14.1031 S   0  0  0  0  0  0  0  0  0  0  0  0
   16.6629  -11.7367  -15.6138 C   0  0  0  0  0  0  0  0  0  0  0  0
   17.6329  -12.2082  -14.9257 O   0  0  0  0  0  0  0  0  0  0  0  0
   16.9155  -10.6884  -16.5372 N   0  0  0  0  0  0  0  0  0  0  0  0
   18.2571  -10.1812  -16.8154 C   0  0  1  0  0  0  0  0  0  0  0  0
   18.3292   -9.5756  -18.1775 C   0  0  0  0  0  0  0  0  0  0  0  0
   19.7472   -9.0732  -18.4325 C   0  0  0  0  0  0  0  0  0  0  0  0
   19.7476   -8.4562  -19.7695 C   0  0  0  0  0  0  0  0  0  0  0  0
   19.9344   -9.2192  -20.7690 O   0  0  0  0  0  0  0  0  0  0  0  0
   18.7125   -9.2562  -15.7489 C   0  0  0  0  0  0  0  0  0  0  0  0
   17.7770   -8.6205  -15.1564 O   0  0  0  0  0  0  0  0  0  0  0  0
   19.5531   -7.0893  -19.9853 O   0  0  0  0  0  0  0  0  0  0  0  0
   20.0372   -9.0399  -15.3514 N   0  0  0  0  0  0  0  0  0  0  0  0
   21.2464   -9.5322  -15.9470 C   0  0  0  0  0  0  0  0  0  0  0  0
   22.2861   -9.5517  -14.8133 C   0  0  0  0  0  0  0  0  0  0  0  0
   21.4248   -9.2838  -13.6079 C   0  0  0  0  0  0  0  0  0  0  0  0
   20.4506   -8.2495  -14.1997 C   0  0  1  0  0  0  0  0  0  0  0  0
   21.2198   -7.0472  -14.5776 C   0  0  0  0  0  0  0  0  0  0  0  0
   21.5059   -6.8671  -15.9376 O   0  0  0  0  0  0  0  0  0  0  0  0
   21.6388   -6.1716  -13.7764 O   0  0  0  0  0  0  0  0  0  0  0  0
  2  5  1  0
  2  1  1  1
  2  3  1  0
  4  3  1  0
  5  6  2  0
  7  8  1  0
  7  5  1  0
  8 13  1  0
  8  9  1  6
 10  9  1  0
 10 11  1  0
 11 15  1  0
 11 12  2  0
 13 14  2  0
 13 16  1  0
 16 20  1  0
 16 17  1  0
 17 18  1  0
 19 18  1  0
 20 19  1  0
 21 22  1  0
 20 21  1  6
 23 21  2  0
M  END
$$$$
