CEP.pdb
     RDKit          3D

 23 23  0  0  1  0  0  0  0  0999 V2000
   23.1533  -12.6432  -17.8418 N   0  0  0  0  0  0  0  0  0  0  0  0
   23.0587  -12.1500  -16.4787 C   0  0  1  0  0  0  0  0  0  0  0  0
   24.4069  -12.0225  -15.8076 C   0  0  0  0  0  0  0  0  0  0  0  0
   25.1685  -13.6305  -15.5048 S   0  0  0  0  0  0  0  0  0  0  0  0
   22.4274  -10.8140  -16.5069 C   0  0  0  0  0  0  0  0  0  0  0  0
   22.8327   -9.9061  -17.3121 O   0  0  0  0  0  0  0  0  0  0  0  0
   21.3520  -10.5269  -15.6258 N   0  0  0  0  0  0  0  0  0  0  0  0
   20.6604   -9.2400  -15.6096 C   0  0  1  0  0  0  0  0  0  0  0  0
   19.2859   -9.3775  -15.0448 C   0  0  0  0  0  0  0  0  0  0  0  0
   18.4181  -10.1731  -16.0154 C   0  0  0  0  0  0  0  0  0  0  0  0
   17.0817  -10.2778  -15.4061 C   0  0  0  0  0  0  0  0  0  0  0  0
   16.1536   -9.5617  -15.8979 O   0  0  0  0  0  0  0  0  0  0  0  0
   21.4674   -8.2063  -14.9162 C   0  0  0  0  0  0  0  0  0  0  0  0
   22.3000   -8.6614  -14.0619 O   0  0  0  0  0  0  0  0  0  0  0  0
   16.7924  -11.1182  -14.3278 O   0  0  0  0  0  0  0  0  0  0  0  0
   21.3951   -6.8237  -15.1234 N   0  0  0  0  0  0  0  0  0  0  0  0
   20.5730   -6.0946  -16.0463 C   0  0  0  0  0  0  0  0  0  0  0  0
   21.3201   -4.7762  -16.3112 C   0  0  0  0  0  0  0  0  0  0  0  0
   22.6505   -5.0459  -15.6600 C   0  0  0  0  0  0  0  0  0  0  0  0
   22.1866   -5.8257  -14.4168 C   0  0  1  0  0  0  0  0  0  0  0  0
   21.3627   -4.9274  -13.5836 C   0  0  0  0  0  0  0  0  0  0  0  0
   22.0361   -4.0421  -12.7312 O   0  0  0  0  0  0  0  0  0  0  0  0
   20.1045   -4.8933  -13.5777 O   0  0  0  0  0  0  0  0  0  0  0  0
  2  5  1  0
  2  1  1  6
  2  3  1  0
  4  3  1  0
  5  6  2  0
  7  8  1  0
  7  5  1  0
  8 13  1  0
  8  9  1  1
 10  9  1  0
 10 11  1  0
 11 15  1  0
 11 12  2  0
 13 14  2  0
 13 16  1  0
 16 20  1  0
 16 17  1  0
 17 18  1  0
 19 18  1  0
 20 19  1  0
 21 22  1  0
 20 21  1  1
 23 21  2  0
M  END
$$$$
