ISH.pdb
     RDKit          3D

 25 25  0  0  1  0  0  0  0  0999 V2000
    6.4142  -11.1901   26.1564 C   0  0  0  0  0  0  0  0  0  0  0  0
    5.8811  -12.5258   25.6791 C   0  0  0  0  0  0  0  0  0  0  0  0
    7.0351  -13.3743   25.2644 C   0  0  2  0  0  0  0  0  0  0  0  0
    7.9256  -12.6473   24.2802 C   0  0  0  0  0  0  0  0  0  0  0  0
    6.5969  -14.7080   24.7786 C   0  0  2  0  0  0  0  0  0  0  0  0
    5.6813  -15.3291   25.7503 N   0  0  0  0  0  0  0  0  0  0  0  0
    7.6571  -15.6615   24.4395 C   0  0  0  0  0  0  0  0  0  0  0  0
    8.1426  -16.4453   25.2854 O   0  0  0  0  0  0  0  0  0  0  0  0
    9.9279  -15.2847   20.9971 O   0  0  0  0  0  0  0  0  0  0  0  0
    9.5631  -16.5708   21.3519 C   0  0  0  0  0  0  0  0  0  0  0  0
    9.2252  -16.6729   22.8383 C   0  0  2  0  0  0  0  0  0  0  0  0
    8.1706  -15.7215   23.1161 N   0  0  0  0  0  0  0  0  0  0  0  0
   10.4455  -16.2891   23.5696 C   0  0  0  0  0  0  0  0  0  0  0  0
   10.9594  -15.1731   23.3745 O   0  0  0  0  0  0  0  0  0  0  0  0
   11.0079  -17.1945   24.4771 N   0  0  0  0  0  0  0  0  0  0  0  0
   11.4008  -16.7570   25.7943 C   0  0  1  0  0  0  0  0  0  0  0  0
   10.2232  -16.0076   26.3639 C   0  0  0  0  0  0  0  0  0  0  0  0
   10.4834  -15.5714   27.7409 C   0  0  0  0  0  0  0  0  0  0  0  0
   11.5793  -15.7502   28.5345 C   0  0  0  0  0  0  0  0  0  0  0  0
   11.3178  -15.1624   29.7107 N   0  0  0  0  0  0  0  0  0  0  0  0
   10.0935  -14.6181   29.6873 C   0  0  0  0  0  0  0  0  0  0  0  0
    9.5753  -14.8678   28.4747 N   0  0  0  0  0  0  0  0  0  0  0  0
   11.8406  -17.8948   26.6109 C   0  0  0  0  0  0  0  0  0  0  0  0
   11.7254  -19.1941   26.1527 O   0  0  0  0  0  0  0  0  0  0  0  0
   12.3279  -17.6961   27.7394 O   0  0  0  0  0  0  0  0  0  0  0  0
  2  1  1  0
  2  3  1  0
  3  5  1  0
  3  4  1  6
  5  7  1  0
  5  6  1  1
  7  8  2  0
 10  9  1  0
 11 10  1  6
 12 11  1  0
 12  7  1  0
 13 11  1  0
 14 13  2  0
 15 13  1  0
 16 15  1  0
 16 17  1  1
 18 17  1  0
 19 18  2  0
 20 19  1  0
 21 20  1  0
 21 22  2  0
 22 18  1  0
 23 16  1  0
 23 24  1  0
 25 23  2  0
M  END
$$$$
