ISH.pdb
     RDKit          3D

 25 25  0  0  1  0  0  0  0  0999 V2000
    7.4439  -11.8101   19.5592 C   0  0  0  0  0  0  0  0  0  0  0  0
    7.6147  -13.0744   18.7416 C   0  0  0  0  0  0  0  0  0  0  0  0
    8.5602  -13.9771   19.4592 C   0  0  2  0  0  0  0  0  0  0  0  0
    9.9008  -13.3089   19.6745 C   0  0  0  0  0  0  0  0  0  0  0  0
    8.6696  -15.3035   18.7994 C   0  0  2  0  0  0  0  0  0  0  0  0
    7.3299  -15.8370   18.5015 N   0  0  0  0  0  0  0  0  0  0  0  0
    9.4470  -16.3244   19.5077 C   0  0  0  0  0  0  0  0  0  0  0  0
    9.0126  -16.9017   20.5293 O   0  0  0  0  0  0  0  0  0  0  0  0
   13.0706  -17.5736   17.9876 O   0  0  0  0  0  0  0  0  0  0  0  0
   12.3554  -18.4499   18.7835 C   0  0  0  0  0  0  0  0  0  0  0  0
   11.4603  -17.7101   19.7762 C   0  0  2  0  0  0  0  0  0  0  0  0
   10.7386  -16.6917   19.0436 N   0  0  0  0  0  0  0  0  0  0  0  0
   12.3607  -17.0741   20.7541 C   0  0  0  0  0  0  0  0  0  0  0  0
   12.8804  -15.9742   20.4939 O   0  0  0  0  0  0  0  0  0  0  0  0
   12.6162  -17.7246   21.9671 N   0  0  0  0  0  0  0  0  0  0  0  0
   13.5038  -17.1334   22.9383 C   0  0  1  0  0  0  0  0  0  0  0  0
   12.9086  -17.4239   24.2926 C   0  0  0  0  0  0  0  0  0  0  0  0
   11.5974  -16.7830   24.4481 C   0  0  0  0  0  0  0  0  0  0  0  0
   11.1650  -15.5464   24.0655 C   0  0  0  0  0  0  0  0  0  0  0  0
    9.8828  -15.4401   24.4423 N   0  0  0  0  0  0  0  0  0  0  0  0
    9.4901  -16.5680   25.0501 C   0  0  0  0  0  0  0  0  0  0  0  0
   10.5441  -17.3988   25.0560 N   0  0  0  0  0  0  0  0  0  0  0  0
   14.8730  -17.6333   22.7642 C   0  0  0  0  0  0  0  0  0  0  0  0
   15.9133  -17.1627   23.5437 O   0  0  0  0  0  0  0  0  0  0  0  0
   15.1122  -18.4975   21.9002 O   0  0  0  0  0  0  0  0  0  0  0  0
  2  1  1  0
  2  3  1  0
  3  5  1  0
  3  4  1  6
  5  7  1  0
  5  6  1  1
  7  8  2  0
 10  9  1  0
 11 10  1  6
 12 11  1  0
 12  7  1  0
 13 11  1  0
 14 13  2  0
 15 13  1  0
 16 15  1  0
 16 17  1  1
 18 17  1  0
 19 18  2  0
 20 19  1  0
 21 20  1  0
 21 22  2  0
 22 18  1  0
 23 16  1  0
 23 24  1  0
 25 23  2  0
M  END
$$$$
