ISH.pdb
     RDKit          3D

 25 25  0  0  1  0  0  0  0  0999 V2000
    7.5656  -11.7844   19.3938 C   0  0  0  0  0  0  0  0  0  0  0  0
    7.5143  -13.2938   19.2715 C   0  0  0  0  0  0  0  0  0  0  0  0
    7.7196  -13.8848   20.6252 C   0  0  2  0  0  0  0  0  0  0  0  0
    9.0077  -13.3934   21.2493 C   0  0  0  0  0  0  0  0  0  0  0  0
    7.6092  -15.3660   20.6065 C   0  0  2  0  0  0  0  0  0  0  0  0
    6.3825  -15.7772   19.9033 N   0  0  0  0  0  0  0  0  0  0  0  0
    7.6687  -16.0429   21.9051 C   0  0  0  0  0  0  0  0  0  0  0  0
    6.6956  -16.0608   22.6914 O   0  0  0  0  0  0  0  0  0  0  0  0
   10.9730  -18.3073   22.8628 O   0  0  0  0  0  0  0  0  0  0  0  0
    9.7445  -18.6654   23.3875 C   0  0  0  0  0  0  0  0  0  0  0  0
    8.8256  -17.4559   23.5517 C   0  0  2  0  0  0  0  0  0  0  0  0
    8.8558  -16.7090   22.3123 N   0  0  0  0  0  0  0  0  0  0  0  0
    9.4005  -16.6410   24.6365 C   0  0  0  0  0  0  0  0  0  0  0  0
   10.3476  -15.8708   24.3975 O   0  0  0  0  0  0  0  0  0  0  0  0
    8.8658  -16.7497   25.9256 N   0  0  0  0  0  0  0  0  0  0  0  0
    9.5281  -16.1251   27.0445 C   0  0  1  0  0  0  0  0  0  0  0  0
    8.4673  -15.3620   27.7964 C   0  0  0  0  0  0  0  0  0  0  0  0
    8.0129  -14.1910   27.0372 C   0  0  0  0  0  0  0  0  0  0  0  0
    8.4842  -13.6509   25.8759 C   0  0  0  0  0  0  0  0  0  0  0  0
    7.7255  -12.5809   25.5991 N   0  0  0  0  0  0  0  0  0  0  0  0
    6.7904  -12.4264   26.5465 C   0  0  0  0  0  0  0  0  0  0  0  0
    6.9639  -13.4169   27.4353 N   0  0  0  0  0  0  0  0  0  0  0  0
   10.2366  -17.1241   27.8537 C   0  0  0  0  0  0  0  0  0  0  0  0
   11.0423  -16.7492   28.9129 O   0  0  0  0  0  0  0  0  0  0  0  0
   10.1165  -18.3348   27.5888 O   0  0  0  0  0  0  0  0  0  0  0  0
  2  1  1  0
  2  3  1  0
  3  5  1  0
  3  4  1  6
  5  7  1  0
  5  6  1  1
  7  8  2  0
 10  9  1  0
 11 10  1  6
 12 11  1  0
 12  7  1  0
 13 11  1  0
 14 13  2  0
 15 13  1  0
 16 15  1  0
 16 17  1  1
 18 17  1  0
 19 18  2  0
 20 19  1  0
 21 20  1  0
 21 22  2  0
 22 18  1  0
 23 16  1  0
 23 24  1  0
 25 23  2  0
M  END
$$$$
