ISH.pdb
     RDKit          3D

 25 25  0  0  1  0  0  0  0  0999 V2000
    7.4289  -11.7048   19.6212 C   0  0  0  0  0  0  0  0  0  0  0  0
    7.8552  -13.0680   19.1152 C   0  0  0  0  0  0  0  0  0  0  0  0
    7.9304  -14.0007   20.2763 C   0  0  2  0  0  0  0  0  0  0  0  0
    8.8555  -13.4684   21.3493 C   0  0  0  0  0  0  0  0  0  0  0  0
    8.2631  -15.3857   19.8548 C   0  0  2  0  0  0  0  0  0  0  0  0
    7.3725  -15.8145   18.7634 N   0  0  0  0  0  0  0  0  0  0  0  0
    8.2621  -16.4074   20.9057 C   0  0  0  0  0  0  0  0  0  0  0  0
    7.2067  -16.9423   21.3126 O   0  0  0  0  0  0  0  0  0  0  0  0
   11.7778  -18.1269   22.1420 O   0  0  0  0  0  0  0  0  0  0  0  0
   10.5806  -18.7909   22.3389 C   0  0  0  0  0  0  0  0  0  0  0  0
    9.4226  -17.8174   22.5522 C   0  0  2  0  0  0  0  0  0  0  0  0
    9.4829  -16.8248   21.5006 N   0  0  0  0  0  0  0  0  0  0  0  0
    9.6556  -17.1734   23.8569 C   0  0  0  0  0  0  0  0  0  0  0  0
   10.4749  -16.2421   23.9505 O   0  0  0  0  0  0  0  0  0  0  0  0
    8.9449  -17.6252   24.9752 N   0  0  0  0  0  0  0  0  0  0  0  0
    9.2348  -17.0962   26.2854 C   0  0  1  0  0  0  0  0  0  0  0  0
    7.9322  -16.5672   26.8296 C   0  0  0  0  0  0  0  0  0  0  0  0
    7.6153  -15.2486   26.2683 C   0  0  0  0  0  0  0  0  0  0  0  0
    8.3060  -14.4740   25.3820 C   0  0  0  0  0  0  0  0  0  0  0  0
    7.5927  -13.3548   25.1929 N   0  0  0  0  0  0  0  0  0  0  0  0
    6.4742  -13.3958   25.9299 C   0  0  0  0  0  0  0  0  0  0  0  0
    6.4839  -14.5617   26.5946 N   0  0  0  0  0  0  0  0  0  0  0  0
    9.8686  -18.1159   27.1299 C   0  0  0  0  0  0  0  0  0  0  0  0
   10.3143  -17.8168   28.4040 O   0  0  0  0  0  0  0  0  0  0  0  0
   10.0123  -19.2754   26.6993 O   0  0  0  0  0  0  0  0  0  0  0  0
  2  1  1  0
  2  3  1  0
  3  5  1  0
  3  4  1  1
  5  7  1  0
  5  6  1  6
  7  8  2  0
 10  9  1  0
 11 10  1  6
 12 11  1  0
 12  7  1  0
 13 11  1  0
 14 13  2  0
 15 13  1  0
 16 15  1  0
 16 17  1  1
 18 17  1  0
 19 18  2  0
 20 19  1  0
 21 20  1  0
 21 22  2  0
 22 18  1  0
 23 16  1  0
 23 24  1  0
 25 23  2  0
M  END
$$$$
