ISH.pdb
     RDKit          3D

 25 25  0  0  1  0  0  0  0  0999 V2000
    6.1937  -11.6169   27.2511 C   0  0  0  0  0  0  0  0  0  0  0  0
    5.7613  -12.7833   26.3859 C   0  0  0  0  0  0  0  0  0  0  0  0
    6.9818  -13.4545   25.8533 C   0  0  2  0  0  0  0  0  0  0  0  0
    7.8245  -12.4965   25.0395 C   0  0  0  0  0  0  0  0  0  0  0  0
    6.6530  -14.7058   25.1232 C   0  0  2  0  0  0  0  0  0  0  0  0
    5.6174  -15.4617   25.8474 N   0  0  0  0  0  0  0  0  0  0  0  0
    7.7743  -15.5986   24.8172 C   0  0  0  0  0  0  0  0  0  0  0  0
    8.2798  -16.3515   25.6793 O   0  0  0  0  0  0  0  0  0  0  0  0
    9.9946  -15.1621   21.3305 O   0  0  0  0  0  0  0  0  0  0  0  0
    9.7804  -16.4524   21.7801 C   0  0  0  0  0  0  0  0  0  0  0  0
    9.4723  -16.4861   23.2761 C   0  0  2  0  0  0  0  0  0  0  0  0
    8.3266  -15.6328   23.5086 N   0  0  0  0  0  0  0  0  0  0  0  0
   10.6537  -15.9274   23.9568 C   0  0  0  0  0  0  0  0  0  0  0  0
   10.6075  -14.7808   24.4370 O   0  0  0  0  0  0  0  0  0  0  0  0
   11.8149  -16.7035   24.0510 N   0  0  0  0  0  0  0  0  0  0  0  0
   12.5817  -16.7226   25.2726 C   0  0  1  0  0  0  0  0  0  0  0  0
   11.6514  -17.2136   26.3526 C   0  0  0  0  0  0  0  0  0  0  0  0
   11.2138  -16.1140   27.2207 C   0  0  0  0  0  0  0  0  0  0  0  0
   11.3086  -14.7628   27.0544 C   0  0  0  0  0  0  0  0  0  0  0  0
   10.7619  -14.1904   28.1365 N   0  0  0  0  0  0  0  0  0  0  0  0
   10.3248  -15.1344   28.9812 C   0  0  0  0  0  0  0  0  0  0  0  0
   10.6013  -16.3220   28.4206 N   0  0  0  0  0  0  0  0  0  0  0  0
   13.7960  -17.5317   25.1123 C   0  0  0  0  0  0  0  0  0  0  0  0
   13.9362  -18.4143   24.0574 O   0  0  0  0  0  0  0  0  0  0  0  0
   14.7230  -17.4284   25.9372 O   0  0  0  0  0  0  0  0  0  0  0  0
  2  1  1  0
  2  3  1  0
  3  5  1  0
  3  4  1  6
  5  7  1  0
  5  6  1  1
  7  8  2  0
 10  9  1  0
 11 10  1  6
 12 11  1  0
 12  7  1  0
 13 11  1  0
 14 13  2  0
 15 13  1  0
 16 15  1  0
 16 17  1  1
 18 17  1  0
 19 18  2  0
 20 19  1  0
 21 20  1  0
 21 22  2  0
 22 18  1  0
 23 16  1  0
 23 24  1  0
 25 23  2  0
M  END
$$$$
