ISH.pdb
     RDKit          3D

 25 25  0  0  1  0  0  0  0  0999 V2000
    7.8531  -11.7319   19.1875 C   0  0  0  0  0  0  0  0  0  0  0  0
    8.3872  -13.1161   18.8795 C   0  0  0  0  0  0  0  0  0  0  0  0
    8.1638  -13.9847   20.0709 C   0  0  2  0  0  0  0  0  0  0  0  0
    8.8958  -13.4522   21.2837 C   0  0  0  0  0  0  0  0  0  0  0  0
    8.4708  -15.4095   19.7842 C   0  0  2  0  0  0  0  0  0  0  0  0
    7.7493  -15.8544   18.5802 N   0  0  0  0  0  0  0  0  0  0  0  0
    8.2271  -16.3628   20.8705 C   0  0  0  0  0  0  0  0  0  0  0  0
    7.0853  -16.8099   21.1197 O   0  0  0  0  0  0  0  0  0  0  0  0
   11.1786  -18.6752   22.2539 O   0  0  0  0  0  0  0  0  0  0  0  0
    9.8584  -18.9994   22.5086 C   0  0  0  0  0  0  0  0  0  0  0  0
    9.0055  -17.7537   22.7427 C   0  0  2  0  0  0  0  0  0  0  0  0
    9.3016  -16.8123   21.6841 N   0  0  0  0  0  0  0  0  0  0  0  0
    9.4321  -17.1948   24.0377 C   0  0  0  0  0  0  0  0  0  0  0  0
   10.3831  -16.3942   24.0838 O   0  0  0  0  0  0  0  0  0  0  0  0
    8.7540  -17.5784   25.2008 N   0  0  0  0  0  0  0  0  0  0  0  0
    9.1243  -17.0199   26.4781 C   0  0  1  0  0  0  0  0  0  0  0  0
    7.8618  -16.4568   27.0796 C   0  0  0  0  0  0  0  0  0  0  0  0
    7.5048  -15.1722   26.4659 C   0  0  0  0  0  0  0  0  0  0  0  0
    8.2027  -14.3792   25.6018 C   0  0  0  0  0  0  0  0  0  0  0  0
    7.4394  -13.3082   25.3413 N   0  0  0  0  0  0  0  0  0  0  0  0
    6.2825  -13.3977   26.0116 C   0  0  0  0  0  0  0  0  0  0  0  0
    6.3185  -14.5454   26.7063 N   0  0  0  0  0  0  0  0  0  0  0  0
    9.7902  -18.0270   27.3131 C   0  0  0  0  0  0  0  0  0  0  0  0
   10.5579  -17.6615   28.4033 O   0  0  0  0  0  0  0  0  0  0  0  0
    9.6675  -19.2361   27.0423 O   0  0  0  0  0  0  0  0  0  0  0  0
  2  1  1  0
  2  3  1  0
  3  5  1  0
  3  4  1  1
  5  7  1  0
  5  6  1  6
  7  8  2  0
 10  9  1  0
 11 10  1  6
 12 11  1  0
 12  7  1  0
 13 11  1  0
 14 13  2  0
 15 13  1  0
 16 15  1  0
 16 17  1  1
 18 17  1  0
 19 18  2  0
 20 19  1  0
 21 20  1  0
 21 22  2  0
 22 18  1  0
 23 16  1  0
 23 24  1  0
 25 23  2  0
M  END
$$$$
