ISH.pdb
     RDKit          3D

 25 25  0  0  1  0  0  0  0  0999 V2000
    8.1419  -14.7572   14.8163 C   0  0  0  0  0  0  0  0  0  0  0  0
    7.5473  -14.0149   15.9959 C   0  0  0  0  0  0  0  0  0  0  0  0
    8.3703  -14.3104   17.2038 C   0  0  2  0  0  0  0  0  0  0  0  0
    8.4799  -15.8008   17.4424 C   0  0  0  0  0  0  0  0  0  0  0  0
    7.8943  -13.5629   18.3960 C   0  0  2  0  0  0  0  0  0  0  0  0
    7.7239  -12.1372   18.0695 N   0  0  0  0  0  0  0  0  0  0  0  0
    8.7050  -13.6843   19.6110 C   0  0  0  0  0  0  0  0  0  0  0  0
    9.8675  -13.2272   19.6837 O   0  0  0  0  0  0  0  0  0  0  0  0
    7.3816  -16.0154   22.7956 O   0  0  0  0  0  0  0  0  0  0  0  0
    8.2146  -14.9493   23.0826 C   0  0  0  0  0  0  0  0  0  0  0  0
    9.0714  -14.5613   21.8787 C   0  0  2  0  0  0  0  0  0  0  0  0
    8.1817  -14.3367   20.7595 N   0  0  0  0  0  0  0  0  0  0  0  0
    9.9412  -15.7170   21.5974 C   0  0  0  0  0  0  0  0  0  0  0  0
    9.6495  -16.5027   20.6781 O   0  0  0  0  0  0  0  0  0  0  0  0
   11.0884  -15.9106   22.3759 N   0  0  0  0  0  0  0  0  0  0  0  0
   12.3785  -16.0599   21.7484 C   0  0  1  0  0  0  0  0  0  0  0  0
   12.5159  -14.9146   20.7777 C   0  0  0  0  0  0  0  0  0  0  0  0
   13.7311  -15.0463   19.9653 C   0  0  0  0  0  0  0  0  0  0  0  0
   14.6966  -16.0109   19.9657 C   0  0  0  0  0  0  0  0  0  0  0  0
   15.6003  -15.6683   19.0365 N   0  0  0  0  0  0  0  0  0  0  0  0
   15.2385  -14.5196   18.4488 C   0  0  0  0  0  0  0  0  0  0  0  0
   14.0866  -14.1325   19.0183 N   0  0  0  0  0  0  0  0  0  0  0  0
   13.4435  -16.1238   22.7566 C   0  0  0  0  0  0  0  0  0  0  0  0
   13.1829  -15.8791   24.0922 O   0  0  0  0  0  0  0  0  0  0  0  0
   14.6071  -16.4025   22.4123 O   0  0  0  0  0  0  0  0  0  0  0  0
  2  1  1  0
  2  3  1  0
  3  5  1  0
  3  4  1  1
  5  7  1  0
  5  6  1  6
  7  8  2  0
 10  9  1  0
 11 10  1  1
 12 11  1  0
 12  7  1  0
 13 11  1  0
 14 13  2  0
 15 13  1  0
 16 15  1  0
 16 17  1  6
 18 17  1  0
 19 18  2  0
 20 19  1  0
 21 20  1  0
 21 22  2  0
 22 18  1  0
 23 16  1  0
 23 24  1  0
 25 23  2  0
M  END
$$$$
