ISH.pdb
     RDKit          3D

 25 25  0  0  1  0  0  0  0  0999 V2000
    7.3557  -11.9370   19.7983 C   0  0  0  0  0  0  0  0  0  0  0  0
    7.8837  -12.8915   18.7465 C   0  0  0  0  0  0  0  0  0  0  0  0
    8.4701  -14.0767   19.4359 C   0  0  2  0  0  0  0  0  0  0  0  0
    9.4976  -13.6602   20.4659 C   0  0  0  0  0  0  0  0  0  0  0  0
    8.9868  -15.0806   18.4705 C   0  0  2  0  0  0  0  0  0  0  0  0
    7.9942  -15.3275   17.4112 N   0  0  0  0  0  0  0  0  0  0  0  0
    9.4214  -16.3635   19.0304 C   0  0  0  0  0  0  0  0  0  0  0  0
    8.7260  -17.3996   18.9381 O   0  0  0  0  0  0  0  0  0  0  0  0
   12.5268  -17.9548   18.0663 O   0  0  0  0  0  0  0  0  0  0  0  0
   11.4528  -18.5170   18.7320 C   0  0  0  0  0  0  0  0  0  0  0  0
   11.1534  -17.7870   20.0402 C   0  0  2  0  0  0  0  0  0  0  0  0
   10.6674  -16.4655   19.7054 N   0  0  0  0  0  0  0  0  0  0  0  0
   12.4355  -17.6774   20.7582 C   0  0  0  0  0  0  0  0  0  0  0  0
   13.0971  -18.7017   21.0046 O   0  0  0  0  0  0  0  0  0  0  0  0
   12.8884  -16.4130   21.1527 N   0  0  0  0  0  0  0  0  0  0  0  0
   14.0990  -16.2809   21.9258 C   0  0  1  0  0  0  0  0  0  0  0  0
   14.7479  -14.9932   21.4858 C   0  0  0  0  0  0  0  0  0  0  0  0
   15.0469  -15.0098   20.0490 C   0  0  0  0  0  0  0  0  0  0  0  0
   15.7763  -15.8925   19.3063 C   0  0  0  0  0  0  0  0  0  0  0  0
   15.7509  -15.4597   18.0376 N   0  0  0  0  0  0  0  0  0  0  0  0
   15.0300  -14.3332   17.9535 C   0  0  0  0  0  0  0  0  0  0  0  0
   14.5940  -14.0521   19.1912 N   0  0  0  0  0  0  0  0  0  0  0  0
   13.8083  -16.3464   23.3632 C   0  0  0  0  0  0  0  0  0  0  0  0
   14.8199  -16.2835   24.3035 O   0  0  0  0  0  0  0  0  0  0  0  0
   12.6313  -16.4612   23.7529 O   0  0  0  0  0  0  0  0  0  0  0  0
  2  1  1  0
  2  3  1  0
  3  5  1  0
  3  4  1  1
  5  7  1  0
  5  6  1  6
  7  8  2  0
 10  9  1  0
 11 10  1  6
 12 11  1  0
 12  7  1  0
 13 11  1  0
 14 13  2  0
 15 13  1  0
 16 15  1  0
 16 17  1  1
 18 17  1  0
 19 18  2  0
 20 19  1  0
 21 20  1  0
 21 22  2  0
 22 18  1  0
 23 16  1  0
 23 24  1  0
 25 23  2  0
M  END
$$$$
