ISH.pdb
     RDKit          3D

 25 25  0  0  1  0  0  0  0  0999 V2000
    7.6677  -11.6199   19.9684 C   0  0  0  0  0  0  0  0  0  0  0  0
    7.1444  -13.0323   19.8028 C   0  0  0  0  0  0  0  0  0  0  0  0
    7.9030  -13.9281   20.7225 C   0  0  2  0  0  0  0  0  0  0  0  0
    9.3962  -13.7749   20.5306 C   0  0  0  0  0  0  0  0  0  0  0  0
    7.4449  -15.3379   20.6267 C   0  0  2  0  0  0  0  0  0  0  0  0
    5.9742  -15.3999   20.6637 N   0  0  0  0  0  0  0  0  0  0  0  0
    7.9905  -16.2718   21.6159 C   0  0  0  0  0  0  0  0  0  0  0  0
    7.5795  -16.3049   22.7972 O   0  0  0  0  0  0  0  0  0  0  0  0
    9.9049  -19.6374   20.5168 O   0  0  0  0  0  0  0  0  0  0  0  0
    9.4431  -19.4790   21.8108 C   0  0  0  0  0  0  0  0  0  0  0  0
    9.5719  -18.0320   22.2840 C   0  0  2  0  0  0  0  0  0  0  0  0
    9.0198  -17.1809   21.2518 N   0  0  0  0  0  0  0  0  0  0  0  0
   11.0146  -17.7678   22.4264 C   0  0  0  0  0  0  0  0  0  0  0  0
   11.5885  -17.0127   21.6214 O   0  0  0  0  0  0  0  0  0  0  0  0
   11.7176  -18.3762   23.4730 N   0  0  0  0  0  0  0  0  0  0  0  0
   13.1478  -18.2212   23.5772 C   0  0  1  0  0  0  0  0  0  0  0  0
   13.4079  -16.7426   23.7143 C   0  0  0  0  0  0  0  0  0  0  0  0
   14.8303  -16.4706   23.9530 C   0  0  0  0  0  0  0  0  0  0  0  0
   15.5175  -16.3097   25.1211 C   0  0  0  0  0  0  0  0  0  0  0  0
   16.7978  -16.0759   24.7995 N   0  0  0  0  0  0  0  0  0  0  0  0
   16.9431  -16.0836   23.4674 C   0  0  0  0  0  0  0  0  0  0  0  0
   15.7325  -16.3266   22.9413 N   0  0  0  0  0  0  0  0  0  0  0  0
   13.6799  -19.0295   24.6810 C   0  0  0  0  0  0  0  0  0  0  0  0
   14.8793  -19.7067   24.5614 O   0  0  0  0  0  0  0  0  0  0  0  0
   13.0459  -19.1134   25.7494 O   0  0  0  0  0  0  0  0  0  0  0  0
  2  1  1  0
  2  3  1  0
  3  5  1  0
  3  4  1  6
  5  7  1  0
  5  6  1  1
  7  8  2  0
 10  9  1  0
 11 10  1  6
 12 11  1  0
 12  7  1  0
 13 11  1  0
 14 13  2  0
 15 13  1  0
 16 15  1  0
 16 17  1  1
 18 17  1  0
 19 18  2  0
 20 19  1  0
 21 20  1  0
 21 22  2  0
 22 18  1  0
 23 16  1  0
 23 24  1  0
 25 23  2  0
M  END
$$$$
