ISH.pdb
     RDKit          3D

 25 25  0  0  1  0  0  0  0  0999 V2000
    7.7767  -11.8513   20.5296 C   0  0  0  0  0  0  0  0  0  0  0  0
    7.5118  -13.3103   20.2177 C   0  0  0  0  0  0  0  0  0  0  0  0
    8.7001  -13.8650   19.5078 C   0  0  2  0  0  0  0  0  0  0  0  0
    9.0132  -13.0712   18.2580 C   0  0  0  0  0  0  0  0  0  0  0  0
    8.5643  -15.3223   19.2536 C   0  0  2  0  0  0  0  0  0  0  0  0
    7.5217  -15.5688   18.2435 N   0  0  0  0  0  0  0  0  0  0  0  0
    8.3111  -16.1695   20.4225 C   0  0  0  0  0  0  0  0  0  0  0  0
    7.1631  -16.5701   20.7178 O   0  0  0  0  0  0  0  0  0  0  0  0
   11.2141  -18.4435   22.1502 O   0  0  0  0  0  0  0  0  0  0  0  0
    9.8602  -18.6757   22.3112 C   0  0  0  0  0  0  0  0  0  0  0  0
    9.0728  -17.3717   22.4276 C   0  0  2  0  0  0  0  0  0  0  0  0
    9.3832  -16.5652   21.2666 N   0  0  0  0  0  0  0  0  0  0  0  0
    9.5603  -16.6986   23.6444 C   0  0  0  0  0  0  0  0  0  0  0  0
   10.5605  -15.9612   23.5860 O   0  0  0  0  0  0  0  0  0  0  0  0
    8.8836  -16.9033   24.8526 N   0  0  0  0  0  0  0  0  0  0  0  0
    9.3061  -16.2185   26.0497 C   0  0  1  0  0  0  0  0  0  0  0  0
    8.0486  -15.7919   26.7636 C   0  0  0  0  0  0  0  0  0  0  0  0
    7.4914  -14.5671   26.1776 C   0  0  0  0  0  0  0  0  0  0  0  0
    7.9361  -13.7996   25.1404 C   0  0  0  0  0  0  0  0  0  0  0  0
    7.0727  -12.7838   24.9994 N   0  0  0  0  0  0  0  0  0  0  0  0
    6.0971  -12.8833   25.9127 C   0  0  0  0  0  0  0  0  0  0  0  0
    6.3512  -13.9813   26.6414 N   0  0  0  0  0  0  0  0  0  0  0  0
   10.1923  -17.0707   26.8517 C   0  0  0  0  0  0  0  0  0  0  0  0
   10.8537  -16.5758   27.9603 O   0  0  0  0  0  0  0  0  0  0  0  0
   10.3583  -18.2635   26.5352 O   0  0  0  0  0  0  0  0  0  0  0  0
  2  1  1  0
  2  3  1  0
  3  5  1  0
  3  4  1  6
  5  7  1  0
  5  6  1  6
  7  8  2  0
 10  9  1  0
 11 10  1  6
 12 11  1  0
 12  7  1  0
 13 11  1  0
 14 13  2  0
 15 13  1  0
 16 15  1  0
 16 17  1  1
 18 17  1  0
 19 18  2  0
 20 19  1  0
 21 20  1  0
 21 22  2  0
 22 18  1  0
 23 16  1  0
 23 24  1  0
 25 23  2  0
M  END
$$$$
