ISH.pdb
     RDKit          3D

 25 25  0  0  1  0  0  0  0  0999 V2000
  215.6617 -114.6501    3.7410 C   0  0  0  0  0  0  0  0  0  0  0  0
  216.9122 -115.2210    3.1036 C   0  0  0  0  0  0  0  0  0  0  0  0
  216.5686 -116.5308    2.4792 C   0  0  2  0  0  0  0  0  0  0  0  0
  217.7927 -117.4090    2.3362 C   0  0  0  0  0  0  0  0  0  0  0  0
  215.8223 -116.3598    1.2062 C   0  0  2  0  0  0  0  0  0  0  0  0
  214.6755 -117.2822    1.1594 N   0  0  0  0  0  0  0  0  0  0  0  0
  216.5981 -116.4942   -0.0301 C   0  0  0  0  0  0  0  0  0  0  0  0
  217.3291 -117.4850   -0.2525 O   0  0  0  0  0  0  0  0  0  0  0  0
  213.6912 -113.3916   -0.1561 O   0  0  0  0  0  0  0  0  0  0  0  0
  214.3969 -114.5298   -0.5019 C   0  0  0  0  0  0  0  0  0  0  0  0
  215.8840 -114.2367   -0.6930 C   0  0  2  0  0  0  0  0  0  0  0  0
  216.5388 -115.4835   -1.0268 N   0  0  0  0  0  0  0  0  0  0  0  0
  216.3814 -113.7464    0.6045 C   0  0  0  0  0  0  0  0  0  0  0  0
  217.1107 -114.4729    1.3029 O   0  0  0  0  0  0  0  0  0  0  0  0
  216.0211 -112.4624    1.0301 N   0  0  0  0  0  0  0  0  0  0  0  0
  216.8114 -111.3187    0.6456 C   0  0  1  0  0  0  0  0  0  0  0  0
  216.2214 -110.1316    1.3636 C   0  0  0  0  0  0  0  0  0  0  0  0
  214.9354 -110.4689    1.9855 C   0  0  0  0  0  0  0  0  0  0  0  0
  213.7141 -109.8699    1.8754 C   0  0  0  0  0  0  0  0  0  0  0  0
  212.8626 -110.5597    2.6478 N   0  0  0  0  0  0  0  0  0  0  0  0
  213.5045 -111.5746    3.2424 C   0  0  0  0  0  0  0  0  0  0  0  0
  214.7829 -111.5225    2.8369 N   0  0  0  0  0  0  0  0  0  0  0  0
  218.2328 -111.5481    0.9320 C   0  0  0  0  0  0  0  0  0  0  0  0
  218.6478 -112.0429    2.1545 O   0  0  0  0  0  0  0  0  0  0  0  0
  219.0887 -111.2950    0.0639 O   0  0  0  0  0  0  0  0  0  0  0  0
  2  1  1  0
  2  3  1  0
  3  5  1  0
  3  4  1  6
  5  7  1  0
  5  6  1  6
  7  8  2  0
 10  9  1  0
 11 10  1  1
 12 11  1  0
 12  7  1  0
 13 11  1  0
 14 13  2  0
 15 13  1  0
 16 15  1  0
 16 17  1  1
 18 17  1  0
 19 18  2  0
 20 19  1  0
 21 20  1  0
 21 22  2  0
 22 18  1  0
 23 16  1  0
 23 24  1  0
 25 23  2  0
M  END
$$$$
