ISH.pdb
     RDKit          3D

 25 25  0  0  1  0  0  0  0  0999 V2000
   10.0900  -16.0520   16.0025 C   0  0  0  0  0  0  0  0  0  0  0  0
    9.7935  -14.9301   16.9768 C   0  0  0  0  0  0  0  0  0  0  0  0
    8.3141  -14.7746   17.0824 C   0  0  2  0  0  0  0  0  0  0  0  0
    7.6947  -14.4849   15.7324 C   0  0  0  0  0  0  0  0  0  0  0  0
    7.9331  -13.7850   18.1227 C   0  0  2  0  0  0  0  0  0  0  0  0
    8.4241  -12.4459   17.7569 N   0  0  0  0  0  0  0  0  0  0  0  0
    8.3436  -14.0889   19.4964 C   0  0  0  0  0  0  0  0  0  0  0  0
    9.4537  -13.7352   19.9529 O   0  0  0  0  0  0  0  0  0  0  0  0
    6.2165  -16.8346   21.7818 O   0  0  0  0  0  0  0  0  0  0  0  0
    6.8125  -15.7834   22.4547 C   0  0  0  0  0  0  0  0  0  0  0  0
    7.9780  -15.1933   21.6627 C   0  0  2  0  0  0  0  0  0  0  0  0
    7.4750  -14.8067   20.3618 N   0  0  0  0  0  0  0  0  0  0  0  0
    8.9677  -16.2745   21.5111 C   0  0  0  0  0  0  0  0  0  0  0  0
    8.8644  -17.0813   20.5699 O   0  0  0  0  0  0  0  0  0  0  0  0
   10.0134  -16.3742   22.4363 N   0  0  0  0  0  0  0  0  0  0  0  0
   11.3827  -16.4257   21.9858 C   0  0  1  0  0  0  0  0  0  0  0  0
   11.5780  -15.2381   21.0778 C   0  0  0  0  0  0  0  0  0  0  0  0
   12.9018  -15.2625   20.4443 C   0  0  0  0  0  0  0  0  0  0  0  0
   13.9257  -16.1566   20.5662 C   0  0  0  0  0  0  0  0  0  0  0  0
   14.9235  -15.7269   19.7806 N   0  0  0  0  0  0  0  0  0  0  0  0
   14.5647  -14.5913   19.1663 C   0  0  0  0  0  0  0  0  0  0  0  0
   13.3189  -14.3012   19.5725 N   0  0  0  0  0  0  0  0  0  0  0  0
   12.3049  -16.4672   23.1271 C   0  0  0  0  0  0  0  0  0  0  0  0
   11.9281  -15.9978   24.3718 O   0  0  0  0  0  0  0  0  0  0  0  0
   13.4509  -16.9320   22.9815 O   0  0  0  0  0  0  0  0  0  0  0  0
  2  1  1  0
  2  3  1  0
  3  5  1  0
  3  4  1  6
  5  7  1  0
  5  6  1  6
  7  8  2  0
 10  9  1  0
 11 10  1  1
 12 11  1  0
 12  7  1  0
 13 11  1  0
 14 13  2  0
 15 13  1  0
 16 15  1  0
 16 17  1  1
 18 17  1  0
 19 18  2  0
 20 19  1  0
 21 20  1  0
 21 22  2  0
 22 18  1  0
 23 16  1  0
 23 24  1  0
 25 23  2  0
M  END
$$$$
