ASV.pdb
     RDKit          3D

 19 18  0  0  1  0  0  0  0  0999 V2000
    8.5268  -12.4693   19.0577 C   0  0  0  0  0  0  0  0  0  0  0  0
    8.5244  -13.9938   19.1002 C   0  0  2  0  0  0  0  0  0  0  0  0
    7.7756  -14.4506   17.9636 N   0  0  0  0  0  0  0  0  0  0  0  0
    7.8587  -14.3833   20.3648 C   0  0  0  0  0  0  0  0  0  0  0  0
    6.5958  -14.4433   20.3881 O   0  0  0  0  0  0  0  0  0  0  0  0
    9.2460  -17.1098   23.0143 O   0  0  0  0  0  0  0  0  0  0  0  0
    7.9342  -16.6582   22.9148 C   0  0  0  0  0  0  0  0  0  0  0  0
    7.8430  -15.1705   22.7124 C   0  0  2  0  0  0  0  0  0  0  0  0
    8.5246  -14.6957   21.5561 N   0  0  0  0  0  0  0  0  0  0  0  0
    8.2932  -14.5235   23.9687 C   0  0  0  0  0  0  0  0  0  0  0  0
    9.5167  -14.2840   24.1327 O   0  0  0  0  0  0  0  0  0  0  0  0
    5.6757  -13.0343   27.0066 C   0  0  0  0  0  0  0  0  0  0  0  0
    7.0635  -12.4731   26.7826 C   0  0  2  0  0  0  0  0  0  0  0  0
    6.9612  -11.3153   25.8387 C   0  0  0  0  0  0  0  0  0  0  0  0
    7.9394  -13.5873   26.2550 C   0  0  2  0  0  0  0  0  0  0  0  0
    7.4237  -14.1451   25.0262 N   0  0  0  0  0  0  0  0  0  0  0  0
    8.2211  -14.6103   27.2741 C   0  0  0  0  0  0  0  0  0  0  0  0
    7.7124  -15.7379   27.1642 O   0  0  0  0  0  0  0  0  0  0  0  0
    9.0375  -14.3289   28.3391 O   0  0  0  0  0  0  0  0  0  0  0  0
  2  4  1  0
  2  1  1  6
  2  3  1  0
  4  5  2  0
  6  7  1  0
  8  7  1  1
  8  9  1  0
  8 10  1  0
  9  4  1  0
 10 11  2  0
 10 16  1  0
 13 12  1  6
 13 15  1  0
 14 13  1  0
 15 17  1  0
 15 16  1  6
 17 18  2  0
 17 19  1  0
M  END
$$$$
