ASV.pdb
     RDKit          3D

 19 18  0  0  1  0  0  0  0  0999 V2000
   12.2034  -17.0506   14.9857 C   0  0  0  0  0  0  0  0  0  0  0  0
   10.8068  -17.1506   14.3814 C   0  0  2  0  0  0  0  0  0  0  0  0
   10.7833  -16.3061   13.2205 N   0  0  0  0  0  0  0  0  0  0  0  0
    9.8612  -16.6618   15.4115 C   0  0  0  0  0  0  0  0  0  0  0  0
    9.5851  -15.4280   15.4402 O   0  0  0  0  0  0  0  0  0  0  0  0
    8.0626  -19.0228   18.5270 O   0  0  0  0  0  0  0  0  0  0  0  0
    7.3786  -17.9905   17.8936 C   0  0  0  0  0  0  0  0  0  0  0  0
    8.2982  -16.9532   17.3097 C   0  0  2  0  0  0  0  0  0  0  0  0
    9.2378  -17.4676   16.3719 N   0  0  0  0  0  0  0  0  0  0  0  0
    8.9299  -16.2328   18.4417 C   0  0  0  0  0  0  0  0  0  0  0  0
   10.1382  -16.4517   18.7123 O   0  0  0  0  0  0  0  0  0  0  0  0
    6.9187  -13.6570   21.3249 C   0  0  0  0  0  0  0  0  0  0  0  0
    8.2463  -13.2989   20.6922 C   0  0  2  0  0  0  0  0  0  0  0  0
    7.9875  -12.4102   19.5154 C   0  0  0  0  0  0  0  0  0  0  0  0
    8.9475  -14.5850   20.3161 C   0  0  2  0  0  0  0  0  0  0  0  0
    8.2548  -15.2908   19.2630 N   0  0  0  0  0  0  0  0  0  0  0  0
    9.2291  -15.4333   21.4846 C   0  0  0  0  0  0  0  0  0  0  0  0
    8.5096  -16.4200   21.7104 O   0  0  0  0  0  0  0  0  0  0  0  0
   10.2755  -15.1437   22.3220 O   0  0  0  0  0  0  0  0  0  0  0  0
  2  4  1  0
  2  1  1  1
  2  3  1  0
  4  5  2  0
  6  7  1  0
  8  7  1  1
  8  9  1  0
  8 10  1  0
  9  4  1  0
 10 11  2  0
 10 16  1  0
 13 12  1  6
 13 15  1  0
 14 13  1  0
 15 17  1  0
 15 16  1  6
 17 18  2  0
 17 19  1  0
M  END
$$$$
