ASV.pdb
     RDKit          3D

 19 18  0  0  1  0  0  0  0  0999 V2000
   11.7573  -16.2403   20.6973 C   0  0  0  0  0  0  0  0  0  0  0  0
   10.3664  -16.5520   20.1551 C   0  0  2  0  0  0  0  0  0  0  0  0
   10.2914  -16.0001   18.8317 N   0  0  0  0  0  0  0  0  0  0  0  0
    9.3984  -15.8909   21.0606 C   0  0  0  0  0  0  0  0  0  0  0  0
    9.1955  -14.6501   20.9248 O   0  0  0  0  0  0  0  0  0  0  0  0
    6.9606  -17.9142   23.9238 O   0  0  0  0  0  0  0  0  0  0  0  0
    6.5331  -16.7746   23.2506 C   0  0  0  0  0  0  0  0  0  0  0  0
    7.6700  -15.8823   22.8336 C   0  0  2  0  0  0  0  0  0  0  0  0
    8.6777  -16.5384   22.0713 N   0  0  0  0  0  0  0  0  0  0  0  0
    8.1907  -15.2261   24.0575 C   0  0  0  0  0  0  0  0  0  0  0  0
    9.3198  -15.5584   24.5003 O   0  0  0  0  0  0  0  0  0  0  0  0
    5.8172  -12.8141   26.6787 C   0  0  0  0  0  0  0  0  0  0  0  0
    7.2768  -12.4670   26.4786 C   0  0  2  0  0  0  0  0  0  0  0  0
    7.3685  -11.3586   25.4763 C   0  0  0  0  0  0  0  0  0  0  0  0
    7.9998  -13.7202   26.0385 C   0  0  2  0  0  0  0  0  0  0  0  0
    7.4917  -14.2257   24.7842 N   0  0  0  0  0  0  0  0  0  0  0  0
    8.0410  -14.7445   27.0938 C   0  0  0  0  0  0  0  0  0  0  0  0
    7.2120  -15.6691   27.0800 O   0  0  0  0  0  0  0  0  0  0  0  0
    8.9837  -14.6857   28.0877 O   0  0  0  0  0  0  0  0  0  0  0  0
  2  4  1  0
  2  1  1  1
  2  3  1  0
  4  5  2  0
  6  7  1  0
  8  7  1  1
  8  9  1  0
  8 10  1  0
  9  4  1  0
 10 11  2  0
 10 16  1  0
 13 12  1  6
 13 15  1  0
 14 13  1  0
 15 17  1  0
 15 16  1  6
 17 18  2  0
 17 19  1  0
M  END
$$$$
