ASV.pdb
     RDKit          3D

 19 18  0  0  1  0  0  0  0  0999 V2000
    8.4214  -12.4953   19.0237 C   0  0  0  0  0  0  0  0  0  0  0  0
    8.5174  -14.0167   19.0675 C   0  0  2  0  0  0  0  0  0  0  0  0
    7.8415  -14.5200   17.9050 N   0  0  0  0  0  0  0  0  0  0  0  0
    7.8336  -14.4510   20.3077 C   0  0  0  0  0  0  0  0  0  0  0  0
    6.5728  -14.5481   20.2991 O   0  0  0  0  0  0  0  0  0  0  0  0
    9.0363  -17.2337   22.9445 O   0  0  0  0  0  0  0  0  0  0  0  0
    7.7596  -16.6876   22.8655 C   0  0  0  0  0  0  0  0  0  0  0  0
    7.7739  -15.1964   22.6682 C   0  0  2  0  0  0  0  0  0  0  0  0
    8.4801  -14.7678   21.5085 N   0  0  0  0  0  0  0  0  0  0  0  0
    8.2778  -14.5876   23.9231 C   0  0  0  0  0  0  0  0  0  0  0  0
    9.5135  -14.4020   24.0635 O   0  0  0  0  0  0  0  0  0  0  0  0
    5.7879  -13.0185   27.0336 C   0  0  0  0  0  0  0  0  0  0  0  0
    7.1814  -12.4960   26.7577 C   0  0  2  0  0  0  0  0  0  0  0  0
    7.0776  -11.3470   25.8033 C   0  0  0  0  0  0  0  0  0  0  0  0
    8.0109  -13.6385   26.2158 C   0  0  2  0  0  0  0  0  0  0  0  0
    7.4478  -14.1890   25.0047 N   0  0  0  0  0  0  0  0  0  0  0  0
    8.2892  -14.6627   27.2347 C   0  0  0  0  0  0  0  0  0  0  0  0
    7.7395  -15.7731   27.1502 O   0  0  0  0  0  0  0  0  0  0  0  0
    9.1470  -14.4011   28.2719 O   0  0  0  0  0  0  0  0  0  0  0  0
  2  4  1  0
  2  1  1  6
  2  3  1  0
  4  5  2  0
  6  7  1  0
  8  7  1  1
  8  9  1  0
  8 10  1  0
  9  4  1  0
 10 11  2  0
 10 16  1  0
 13 12  1  6
 13 15  1  0
 14 13  1  0
 15 17  1  0
 15 16  1  6
 17 18  2  0
 17 19  1  0
M  END
$$$$
