ASV.pdb
     RDKit          3D

 19 18  0  0  1  0  0  0  0  0999 V2000
    8.7160  -12.3725   19.0328 C   0  0  0  0  0  0  0  0  0  0  0  0
    8.5821  -13.8908   18.9813 C   0  0  2  0  0  0  0  0  0  0  0  0
    7.8180  -14.2116   17.8088 N   0  0  0  0  0  0  0  0  0  0  0  0
    7.8622  -14.2967   20.2106 C   0  0  0  0  0  0  0  0  0  0  0  0
    6.5986  -14.2470   20.2139 O   0  0  0  0  0  0  0  0  0  0  0  0
    8.9243  -17.2548   22.7621 O   0  0  0  0  0  0  0  0  0  0  0  0
    7.6676  -16.6636   22.6861 C   0  0  0  0  0  0  0  0  0  0  0  0
    7.7342  -15.1696   22.5242 C   0  0  2  0  0  0  0  0  0  0  0  0
    8.4768  -14.7381   21.3885 N   0  0  0  0  0  0  0  0  0  0  0  0
    8.2327  -14.6067   23.8025 C   0  0  0  0  0  0  0  0  0  0  0  0
    9.4691  -14.4411   23.9608 O   0  0  0  0  0  0  0  0  0  0  0  0
    5.7399  -13.1161   26.9397 C   0  0  0  0  0  0  0  0  0  0  0  0
    7.1655  -12.6466   26.7439 C   0  0  2  0  0  0  0  0  0  0  0  0
    7.1491  -11.4280   25.8741 C   0  0  0  0  0  0  0  0  0  0  0  0
    7.9558  -13.7878   26.1437 C   0  0  2  0  0  0  0  0  0  0  0  0
    7.3967  -14.2315   24.8878 N   0  0  0  0  0  0  0  0  0  0  0  0
    8.1653  -14.8882   27.0976 C   0  0  0  0  0  0  0  0  0  0  0  0
    7.5548  -15.9580   26.9392 O   0  0  0  0  0  0  0  0  0  0  0  0
    9.0258  -14.7416   28.1549 O   0  0  0  0  0  0  0  0  0  0  0  0
  2  4  1  0
  2  1  1  1
  2  3  1  0
  4  5  2  0
  6  7  1  0
  8  7  1  1
  8  9  1  0
  8 10  1  0
  9  4  1  0
 10 11  2  0
 10 16  1  0
 13 12  1  6
 13 15  1  0
 14 13  1  0
 15 17  1  0
 15 16  1  6
 17 18  2  0
 17 19  1  0
M  END
$$$$
