ASV.pdb
     RDKit          3D

 19 18  0  0  1  0  0  0  0  0999 V2000
   -1.8026  -22.3577   12.3765 C   0  0  0  0  0  0  0  0  0  0  0  0
   -1.9404  -20.8397   12.3299 C   0  0  2  0  0  0  0  0  0  0  0  0
   -1.0169  -20.3580   11.3417 N   0  0  0  0  0  0  0  0  0  0  0  0
   -1.5840  -20.3382   13.6774 C   0  0  0  0  0  0  0  0  0  0  0  0
   -0.3613  -20.1778   13.9575 O   0  0  0  0  0  0  0  0  0  0  0  0
   -4.2138  -19.8857   17.0690 O   0  0  0  0  0  0  0  0  0  0  0  0
   -3.2387  -18.9413   16.7661 C   0  0  0  0  0  0  0  0  0  0  0  0
   -2.1096  -19.5093   15.9506 C   0  0  2  0  0  0  0  0  0  0  0  0
   -2.5056  -20.0222   14.6829 N   0  0  0  0  0  0  0  0  0  0  0  0
   -1.4090  -20.5058   16.7965 C   0  0  0  0  0  0  0  0  0  0  0  0
   -1.6580  -21.7285   16.6403 O   0  0  0  0  0  0  0  0  0  0  0  0
    2.3138  -20.0964   18.2490 C   0  0  0  0  0  0  0  0  0  0  0  0
    1.4068  -20.6949   19.3026 C   0  0  2  0  0  0  0  0  0  0  0  0
    2.1548  -21.7807   20.0122 C   0  0  0  0  0  0  0  0  0  0  0  0
    0.1561  -21.1942   18.6146 C   0  0  2  0  0  0  0  0  0  0  0  0
   -0.4543  -20.1736   17.7945 N   0  0  0  0  0  0  0  0  0  0  0  0
   -0.7907  -21.8164   19.5533 C   0  0  0  0  0  0  0  0  0  0  0  0
   -0.6322  -23.0030   19.8836 O   0  0  0  0  0  0  0  0  0  0  0  0
   -1.8417  -21.0988   20.0634 O   0  0  0  0  0  0  0  0  0  0  0  0
  2  4  1  0
  2  1  1  1
  2  3  1  0
  4  5  2  0
  6  7  1  0
  8  7  1  1
  8  9  1  0
  8 10  1  0
  9  4  1  0
 10 11  2  0
 10 16  1  0
 13 12  1  6
 13 15  1  0
 14 13  1  0
 15 17  1  0
 15 16  1  1
 17 18  2  0
 17 19  1  0
M  END
$$$$
