NQP.pdb
     RDKit          3D

 25 25  0  0  1  0  0  0  0  0999 V2000
   14.6722  -12.4173  -15.8435 N   0  0  0  0  0  0  0  0  0  0  0  0
   14.8656  -11.8932  -14.5380 C   0  0  0  0  0  0  0  0  0  0  0  0
   13.8995  -11.8643  -13.7127 O   0  0  0  0  0  0  0  0  0  0  0  0
   16.2061  -11.3855  -14.1640 C   0  0  0  0  0  0  0  0  0  0  0  0
   17.1480  -11.4529  -15.3187 C   0  0  2  0  0  0  0  0  0  0  0  0
   17.6226  -12.8222  -15.4180 N   0  0  0  0  0  0  0  0  0  0  0  0
   18.2560  -10.5028  -15.2984 C   0  0  0  0  0  0  0  0  0  0  0  0
   18.8711  -10.2746  -14.2056 O   0  0  0  0  0  0  0  0  0  0  0  0
   21.7004   -8.5494  -20.2864 N   0  0  0  0  0  0  0  0  0  0  0  0
   22.1296   -7.7879  -19.1885 C   0  0  0  0  0  0  0  0  0  0  0  0
   23.2025   -7.1081  -19.3004 O   0  0  0  0  0  0  0  0  0  0  0  0
   21.4125   -7.7202  -17.8948 C   0  0  0  0  0  0  0  0  0  0  0  0
   20.1683   -8.5528  -17.8825 C   0  0  0  0  0  0  0  0  0  0  0  0
   19.8484   -8.9156  -16.4219 C   0  0  2  0  0  0  0  0  0  0  0  0
   18.7187   -9.7906  -16.4428 N   0  0  0  0  0  0  0  0  0  0  0  0
   19.6349   -7.7058  -15.6474 C   0  0  0  0  0  0  0  0  0  0  0  0
   18.4434   -7.1792  -15.7329 O   0  0  0  0  0  0  0  0  0  0  0  0
   20.5156   -6.9959  -14.8082 N   0  0  0  0  0  0  0  0  0  0  0  0
   21.8838   -7.3098  -14.5284 C   0  0  0  0  0  0  0  0  0  0  0  0
   22.4096   -6.1280  -13.6803 C   0  0  0  0  0  0  0  0  0  0  0  0
   21.1129   -5.7195  -12.9530 C   0  0  0  0  0  0  0  0  0  0  0  0
   20.1544   -5.7972  -14.0950 C   0  0  1  0  0  0  0  0  0  0  0  0
   20.2653   -4.5814  -14.9332 C   0  0  0  0  0  0  0  0  0  0  0  0
   20.8114   -4.5359  -16.2029 O   0  0  0  0  0  0  0  0  0  0  0  0
   19.8283   -3.5091  -14.4507 O   0  0  0  0  0  0  0  0  0  0  0  0
  2  3  2  0
  2  1  1  0
  4  2  1  0
  5  4  1  0
  5  7  1  0
  5  6  1  1
  7  8  2  0
  9 10  1  0
 10 12  1  0
 11 10  2  0
 12 13  1  0
 14 13  1  6
 14 16  1  0
 15  7  1  0
 15 14  1  0
 16 17  2  0
 18 16  1  0
 18 22  1  0
 19 18  1  0
 20 21  1  0
 20 19  1  0
 21 22  1  0
 22 23  1  6
 23 25  2  0
 23 24  1  0
M  END
$$$$
