NQP.pdb
     RDKit          3D

 25 25  0  0  1  0  0  0  0  0999 V2000
   25.7937  -16.7456  -14.7234 N   0  0  0  0  0  0  0  0  0  0  0  0
   26.4710  -15.5168  -14.9416 C   0  0  0  0  0  0  0  0  0  0  0  0
   27.6811  -15.3821  -14.5772 O   0  0  0  0  0  0  0  0  0  0  0  0
   25.7417  -14.4063  -15.5969 C   0  0  0  0  0  0  0  0  0  0  0  0
   24.3115  -14.7632  -15.8254 C   0  0  2  0  0  0  0  0  0  0  0  0
   24.2788  -15.8429  -16.7965 N   0  0  0  0  0  0  0  0  0  0  0  0
   23.4315  -13.6658  -16.2157 C   0  0  0  0  0  0  0  0  0  0  0  0
   23.5619  -13.1312  -17.3654 O   0  0  0  0  0  0  0  0  0  0  0  0
   18.3264  -13.4462  -17.4568 N   0  0  0  0  0  0  0  0  0  0  0  0
   18.2388  -12.1298  -16.9785 C   0  0  0  0  0  0  0  0  0  0  0  0
   17.3775  -11.3477  -17.5004 O   0  0  0  0  0  0  0  0  0  0  0  0
   19.0887  -11.5820  -15.8968 C   0  0  0  0  0  0  0  0  0  0  0  0
   20.0801  -12.5793  -15.3833 C   0  0  0  0  0  0  0  0  0  0  0  0
   21.4850  -12.1264  -15.8176 C   0  0  2  0  0  0  0  0  0  0  0  0
   22.4043  -13.1315  -15.3850 N   0  0  0  0  0  0  0  0  0  0  0  0
   21.7674  -10.8073  -15.2797 C   0  0  0  0  0  0  0  0  0  0  0  0
   22.0419  -10.7605  -14.0043 O   0  0  0  0  0  0  0  0  0  0  0  0
   21.7925   -9.5515  -15.9172 N   0  0  0  0  0  0  0  0  0  0  0  0
   21.5178   -9.2762  -17.2947 C   0  0  0  0  0  0  0  0  0  0  0  0
   21.5374   -7.7343  -17.4156 C   0  0  0  0  0  0  0  0  0  0  0  0
   22.5646   -7.3904  -16.3184 C   0  0  0  0  0  0  0  0  0  0  0  0
   22.0965   -8.3147  -15.2434 C   0  0  1  0  0  0  0  0  0  0  0  0
   20.9188   -7.7372  -14.5560 C   0  0  0  0  0  0  0  0  0  0  0  0
   20.9586   -6.6994  -13.6429 O   0  0  0  0  0  0  0  0  0  0  0  0
   19.7973   -8.2306  -14.8253 O   0  0  0  0  0  0  0  0  0  0  0  0
  2  3  2  0
  2  1  1  0
  4  2  1  0
  5  4  1  0
  5  7  1  0
  5  6  1  6
  7  8  2  0
  9 10  1  0
 10 12  1  0
 11 10  2  0
 12 13  1  0
 14 13  1  1
 14 16  1  0
 15  7  1  0
 15 14  1  0
 16 17  2  0
 18 16  1  0
 18 22  1  0
 19 18  1  0
 20 21  1  0
 20 19  1  0
 21 22  1  0
 22 23  1  6
 23 25  2  0
 23 24  1  0
M  END
$$$$
