NQP.pdb
     RDKit          3D

 25 25  0  0  1  0  0  0  0  0999 V2000
   19.5962  -20.4668  -11.0132 N   0  0  0  0  0  0  0  0  0  0  0  0
   20.8211  -19.7511  -10.9528 C   0  0  0  0  0  0  0  0  0  0  0  0
   20.9775  -18.6952  -11.6426 O   0  0  0  0  0  0  0  0  0  0  0  0
   21.9020  -20.2587  -10.0760 C   0  0  0  0  0  0  0  0  0  0  0  0
   23.1718  -20.4392  -10.8375 C   0  0  2  0  0  0  0  0  0  0  0  0
   22.9353  -21.4533  -11.8504 N   0  0  0  0  0  0  0  0  0  0  0  0
   24.3580  -20.7432  -10.0430 C   0  0  0  0  0  0  0  0  0  0  0  0
   24.3023  -21.6484   -9.1474 O   0  0  0  0  0  0  0  0  0  0  0  0
   29.0833  -19.3700  -12.9133 N   0  0  0  0  0  0  0  0  0  0  0  0
   28.8115  -20.7183  -12.6349 C   0  0  0  0  0  0  0  0  0  0  0  0
   29.1137  -21.5945  -13.5104 O   0  0  0  0  0  0  0  0  0  0  0  0
   28.1903  -21.1969  -11.3788 C   0  0  0  0  0  0  0  0  0  0  0  0
   27.9952  -20.0998  -10.3791 C   0  0  0  0  0  0  0  0  0  0  0  0
   26.7945  -20.4687   -9.4904 C   0  0  2  0  0  0  0  0  0  0  0  0
   25.6132  -20.0866  -10.1982 N   0  0  0  0  0  0  0  0  0  0  0  0
   26.9273  -19.8332   -8.1913 C   0  0  0  0  0  0  0  0  0  0  0  0
   26.3379  -18.6755   -8.0621 O   0  0  0  0  0  0  0  0  0  0  0  0
   27.5986  -20.2663   -7.0313 N   0  0  0  0  0  0  0  0  0  0  0  0
   28.4092  -21.4374   -6.8887 C   0  0  0  0  0  0  0  0  0  0  0  0
   29.0175  -21.3436   -5.4697 C   0  0  0  0  0  0  0  0  0  0  0  0
   27.8897  -20.5850   -4.7419 C   0  0  0  0  0  0  0  0  0  0  0  0
   27.5756  -19.5565   -5.7777 C   0  0  1  0  0  0  0  0  0  0  0  0
   28.5730  -18.4632   -5.7248 C   0  0  0  0  0  0  0  0  0  0  0  0
   28.6809  -17.5314   -4.7086 O   0  0  0  0  0  0  0  0  0  0  0  0
   29.3830  -18.3778   -6.6788 O   0  0  0  0  0  0  0  0  0  0  0  0
  2  3  2  0
  2  1  1  0
  4  2  1  0
  5  4  1  0
  5  7  1  0
  5  6  1  6
  7  8  2  0
  9 10  1  0
 10 12  1  0
 11 10  2  0
 12 13  1  0
 14 13  1  6
 14 16  1  0
 15  7  1  0
 15 14  1  0
 16 17  2  0
 18 16  1  0
 18 22  1  0
 19 18  1  0
 20 21  1  0
 20 19  1  0
 21 22  1  0
 22 23  1  6
 23 25  2  0
 23 24  1  0
M  END
$$$$
