NQP.pdb
     RDKit          3D

 25 25  0  0  1  0  0  0  0  0999 V2000
   28.9940  -21.3082  -14.8838 N   0  0  0  0  0  0  0  0  0  0  0  0
   27.8638  -20.4490  -14.9118 C   0  0  0  0  0  0  0  0  0  0  0  0
   27.1962  -20.3081  -15.9841 O   0  0  0  0  0  0  0  0  0  0  0  0
   27.4848  -19.7274  -13.6748 C   0  0  0  0  0  0  0  0  0  0  0  0
   27.5149  -20.6357  -12.4919 C   0  0  2  0  0  0  0  0  0  0  0  0
   26.6768  -21.7820  -12.7979 N   0  0  0  0  0  0  0  0  0  0  0  0
   27.1520  -20.0340  -11.2124 C   0  0  0  0  0  0  0  0  0  0  0  0
   27.6385  -18.9017  -10.8873 O   0  0  0  0  0  0  0  0  0  0  0  0
   21.7143  -20.9595   -8.4023 N   0  0  0  0  0  0  0  0  0  0  0  0
   22.1857  -20.2298   -9.5044 C   0  0  0  0  0  0  0  0  0  0  0  0
   21.3417  -19.8062  -10.3611 O   0  0  0  0  0  0  0  0  0  0  0  0
   23.6131  -19.9155   -9.7418 C   0  0  0  0  0  0  0  0  0  0  0  0
   24.5064  -20.4492   -8.6656 C   0  0  0  0  0  0  0  0  0  0  0  0
   25.9541  -20.0518   -9.0029 C   0  0  2  0  0  0  0  0  0  0  0  0
   26.2662  -20.6332  -10.2706 N   0  0  0  0  0  0  0  0  0  0  0  0
   26.8436  -20.4710   -7.9342 C   0  0  0  0  0  0  0  0  0  0  0  0
   27.0920  -21.7510   -7.8707 O   0  0  0  0  0  0  0  0  0  0  0  0
   27.4906  -19.7123   -6.9393 N   0  0  0  0  0  0  0  0  0  0  0  0
   27.3687  -18.3047   -6.7103 C   0  0  0  0  0  0  0  0  0  0  0  0
   28.1652  -18.0307   -5.4130 C   0  0  0  0  0  0  0  0  0  0  0  0
   29.2445  -19.1264   -5.5222 C   0  0  0  0  0  0  0  0  0  0  0  0
   28.3917  -20.2699   -5.9630 C   0  0  1  0  0  0  0  0  0  0  0  0
   27.6819  -20.8504   -4.8001 C   0  0  0  0  0  0  0  0  0  0  0  0
   28.2835  -21.5345   -3.7596 O   0  0  0  0  0  0  0  0  0  0  0  0
   26.4362  -20.7088   -4.7581 O   0  0  0  0  0  0  0  0  0  0  0  0
  2  3  2  0
  2  1  1  0
  4  2  1  0
  5  4  1  0
  5  7  1  0
  5  6  1  6
  7  8  2  0
  9 10  1  0
 10 12  1  0
 11 10  2  0
 12 13  1  0
 14 13  1  1
 14 16  1  0
 15  7  1  0
 15 14  1  0
 16 17  2  0
 18 16  1  0
 18 22  1  0
 19 18  1  0
 20 21  1  0
 20 19  1  0
 21 22  1  0
 22 23  1  1
 23 25  2  0
 23 24  1  0
M  END
$$$$
