NQP.pdb
     RDKit          3D

 25 25  0  0  1  0  0  0  0  0999 V2000
   13.1948  -23.3512    1.3058 N   0  0  0  0  0  0  0  0  0  0  0  0
   14.2534  -24.0787    1.9111 C   0  0  0  0  0  0  0  0  0  0  0  0
   14.1222  -25.3213    2.1434 O   0  0  0  0  0  0  0  0  0  0  0  0
   15.5019  -23.3628    2.2625 C   0  0  0  0  0  0  0  0  0  0  0  0
   15.3886  -21.9059    1.9635 C   0  0  2  0  0  0  0  0  0  0  0  0
   15.4659  -21.7469    0.5217 N   0  0  0  0  0  0  0  0  0  0  0  0
   16.3384  -21.0350    2.6493 C   0  0  0  0  0  0  0  0  0  0  0  0
   17.5316  -20.9352    2.2126 O   0  0  0  0  0  0  0  0  0  0  0  0
   14.8865  -15.7144    5.8164 N   0  0  0  0  0  0  0  0  0  0  0  0
   16.2793  -15.8747    5.8773 C   0  0  0  0  0  0  0  0  0  0  0  0
   16.9857  -14.9070    6.3136 O   0  0  0  0  0  0  0  0  0  0  0  0
   16.9915  -17.1054    5.4642 C   0  0  0  0  0  0  0  0  0  0  0  0
   16.0675  -18.1485    4.9168 C   0  0  0  0  0  0  0  0  0  0  0  0
   16.9205  -19.3139    4.3860 C   0  0  2  0  0  0  0  0  0  0  0  0
   16.0232  -20.2620    3.8043 N   0  0  0  0  0  0  0  0  0  0  0  0
   17.7322  -19.8611    5.4587 C   0  0  0  0  0  0  0  0  0  0  0  0
   17.1589  -20.7726    6.1968 O   0  0  0  0  0  0  0  0  0  0  0  0
   19.0552  -19.5644    5.8402 N   0  0  0  0  0  0  0  0  0  0  0  0
   19.9267  -18.5930    5.2522 C   0  0  0  0  0  0  0  0  0  0  0  0
   21.1869  -18.5780    6.1489 C   0  0  0  0  0  0  0  0  0  0  0  0
   21.1945  -20.0432    6.6288 C   0  0  0  0  0  0  0  0  0  0  0  0
   19.7417  -20.2122    6.9288 C   0  0  1  0  0  0  0  0  0  0  0  0
   19.4220  -19.6083    8.2426 C   0  0  0  0  0  0  0  0  0  0  0  0
   19.7165  -20.1708    9.4711 O   0  0  0  0  0  0  0  0  0  0  0  0
   18.8377  -18.4982    8.2376 O   0  0  0  0  0  0  0  0  0  0  0  0
  2  3  2  0
  2  1  1  0
  4  2  1  0
  5  4  1  0
  5  7  1  0
  5  6  1  6
  7  8  2  0
  9 10  1  0
 10 12  1  0
 11 10  2  0
 12 13  1  0
 14 13  1  1
 14 16  1  0
 15  7  1  0
 15 14  1  0
 16 17  2  0
 18 16  1  0
 18 22  1  0
 19 18  1  0
 20 21  1  0
 20 19  1  0
 21 22  1  0
 22 23  1  1
 23 25  2  0
 23 24  1  0
M  END
$$$$
