LKA.pdb
     RDKit          3D

 23 22  0  0  1  0  0  0  0  0999 V2000
   22.2744  -14.4152  -15.6192 C   0  0  0  0  0  0  0  0  0  0  0  0
   22.6295  -13.0584  -16.1917 C   0  0  2  0  0  0  0  0  0  0  0  0
   23.9076  -12.5927  -15.5560 C   0  0  0  0  0  0  0  0  0  0  0  0
   21.4743  -12.1375  -15.9300 C   0  0  0  0  0  0  0  0  0  0  0  0
   20.2088  -12.5700  -16.6295 C   0  0  2  0  0  0  0  0  0  0  0  0
   20.3989  -12.7415  -18.0359 N   0  0  0  0  0  0  0  0  0  0  0  0
   19.1454  -11.5846  -16.3102 C   0  0  0  0  0  0  0  0  0  0  0  0
   19.0796  -10.4857  -16.9149 O   0  0  0  0  0  0  0  0  0  0  0  0
   18.1439  -11.8254  -15.3062 N   0  0  0  0  0  0  0  0  0  0  0  0
   17.0147  -10.9574  -15.1057 C   0  0  1  0  0  0  0  0  0  0  0  0
   15.8033  -11.5983  -14.5297 C   0  0  0  0  0  0  0  0  0  0  0  0
   15.1625  -12.6824  -15.3029 C   0  0  0  0  0  0  0  0  0  0  0  0
   13.9735  -13.3413  -14.7071 C   0  0  0  0  0  0  0  0  0  0  0  0
   13.5080  -14.3920  -15.7317 C   0  0  0  0  0  0  0  0  0  0  0  0
   14.4101  -15.5112  -15.7821 N   0  0  0  0  0  0  0  0  0  0  0  0
   17.4519   -9.8839  -14.1370 C   0  0  0  0  0  0  0  0  0  0  0  0
   18.2372  -10.1415  -13.1937 O   0  0  0  0  0  0  0  0  0  0  0  0
   16.8392   -6.1655  -13.7918 C   0  0  0  0  0  0  0  0  0  0  0  0
   17.2376   -7.5304  -13.3415 C   0  0  2  0  0  0  0  0  0  0  0  0
   16.9549   -8.5742  -14.3163 N   0  0  0  0  0  0  0  0  0  0  0  0
   16.6074   -7.9288  -12.0455 C   0  0  0  0  0  0  0  0  0  0  0  0
   16.9910   -7.3094  -10.8583 O   0  0  0  0  0  0  0  0  0  0  0  0
   15.7447   -8.8073  -12.0184 O   0  0  0  0  0  0  0  0  0  0  0  0
  2  1  1  1
  2  3  1  0
  4  2  1  0
  4  5  1  0
  5  7  1  0
  5  6  1  6
  7  9  1  0
  8  7  2  0
  9 10  1  0
 10 11  1  1
 12 11  1  0
 13 14  1  0
 13 12  1  0
 14 15  1  0
 16 17  2  0
 16 10  1  0
 19 18  1  6
 19 21  1  0
 19 20  1  0
 20 16  1  0
 21 22  1  0
 23 21  2  0
M  END
$$$$
