LKA.pdb
     RDKit          3D

 23 22  0  0  1  0  0  0  0  0999 V2000
   14.7201  -11.3590  -15.1284 C   0  0  0  0  0  0  0  0  0  0  0  0
   15.7877  -12.3977  -15.4047 C   0  0  2  0  0  0  0  0  0  0  0  0
   15.4235  -13.6601  -14.6780 C   0  0  0  0  0  0  0  0  0  0  0  0
   17.1034  -11.8261  -14.9651 C   0  0  0  0  0  0  0  0  0  0  0  0
   17.4714  -10.5634  -15.7053 C   0  0  2  0  0  0  0  0  0  0  0  0
   17.5151  -10.7585  -17.1207 N   0  0  0  0  0  0  0  0  0  0  0  0
   18.7567  -10.0642  -15.1551 C   0  0  0  0  0  0  0  0  0  0  0  0
   18.9627  -10.0372  -13.9163 O   0  0  0  0  0  0  0  0  0  0  0  0
   19.8247   -9.5894  -15.9936 N   0  0  0  0  0  0  0  0  0  0  0  0
   21.0440   -9.0370  -15.4673 C   0  0  1  0  0  0  0  0  0  0  0  0
   22.2618   -9.2636  -16.2892 C   0  0  0  0  0  0  0  0  0  0  0  0
   22.8547  -10.6172  -16.2855 C   0  0  0  0  0  0  0  0  0  0  0  0
   23.9151  -10.9057  -17.2831 C   0  0  0  0  0  0  0  0  0  0  0  0
   24.3962  -12.3394  -16.9939 C   0  0  0  0  0  0  0  0  0  0  0  0
   25.3690  -12.7714  -17.9613 N   0  0  0  0  0  0  0  0  0  0  0  0
   20.8444   -7.5426  -15.3724 C   0  0  0  0  0  0  0  0  0  0  0  0
   20.2093   -6.9152  -16.2533 O   0  0  0  0  0  0  0  0  0  0  0  0
   21.6239   -4.8715  -12.8213 C   0  0  0  0  0  0  0  0  0  0  0  0
   21.3437   -5.4078  -14.1845 C   0  0  2  0  0  0  0  0  0  0  0  0
   21.3916   -6.8608  -14.2632 N   0  0  0  0  0  0  0  0  0  0  0  0
   22.2602   -4.8602  -15.2311 C   0  0  0  0  0  0  0  0  0  0  0  0
   21.9473   -3.6716  -15.8866 O   0  0  0  0  0  0  0  0  0  0  0  0
   23.2983   -5.4561  -15.5212 O   0  0  0  0  0  0  0  0  0  0  0  0
  2  1  1  1
  2  3  1  0
  4  2  1  0
  4  5  1  0
  5  7  1  0
  5  6  1  6
  7  9  1  0
  8  7  2  0
  9 10  1  0
 10 11  1  6
 12 11  1  0
 13 14  1  0
 13 12  1  0
 14 15  1  0
 16 17  2  0
 16 10  1  0
 19 18  1  1
 19 21  1  0
 19 20  1  0
 20 16  1  0
 21 22  1  0
 23 21  2  0
M  END
$$$$
