LKA.pdb
     RDKit          3D

 23 22  0  0  1  0  0  0  0  0999 V2000
   27.0471  -18.4317   -6.7055 C   0  0  0  0  0  0  0  0  0  0  0  0
   27.3598  -19.9127   -6.6432 C   0  0  2  0  0  0  0  0  0  0  0  0
   28.7276  -20.0862   -6.0487 C   0  0  0  0  0  0  0  0  0  0  0  0
   27.2515  -20.4597   -8.0361 C   0  0  0  0  0  0  0  0  0  0  0  0
   25.8472  -20.3931   -8.5852 C   0  0  2  0  0  0  0  0  0  0  0  0
   24.9208  -21.1421   -7.7953 N   0  0  0  0  0  0  0  0  0  0  0  0
   25.8842  -20.8372  -10.0013 C   0  0  0  0  0  0  0  0  0  0  0  0
   26.7018  -21.7106  -10.3839 O   0  0  0  0  0  0  0  0  0  0  0  0
   25.0007  -20.3028  -11.0028 N   0  0  0  0  0  0  0  0  0  0  0  0
   24.9801  -20.7787  -12.3600 C   0  0  1  0  0  0  0  0  0  0  0  0
   23.6336  -21.0581  -12.9247 C   0  0  0  0  0  0  0  0  0  0  0  0
   23.5451  -21.9866  -14.0708 C   0  0  0  0  0  0  0  0  0  0  0  0
   24.1620  -23.3279  -13.9179 C   0  0  0  0  0  0  0  0  0  0  0  0
   24.0325  -24.0174  -15.2884 C   0  0  0  0  0  0  0  0  0  0  0  0
   24.6364  -25.3228  -15.2780 N   0  0  0  0  0  0  0  0  0  0  0  0
   25.6042  -19.7000  -13.2136 C   0  0  0  0  0  0  0  0  0  0  0  0
   25.2777  -18.4964  -13.0802 O   0  0  0  0  0  0  0  0  0  0  0  0
   28.6136  -19.4665  -15.4145 C   0  0  0  0  0  0  0  0  0  0  0  0
   27.2387  -19.0743  -14.9898 C   0  0  2  0  0  0  0  0  0  0  0  0
   26.5703  -20.0767  -14.1725 N   0  0  0  0  0  0  0  0  0  0  0  0
   26.3406  -18.7444  -16.1386 C   0  0  0  0  0  0  0  0  0  0  0  0
   26.5142  -17.5581  -16.8478 O   0  0  0  0  0  0  0  0  0  0  0  0
   25.4409  -19.5190  -16.4662 O   0  0  0  0  0  0  0  0  0  0  0  0
  2  1  1  6
  2  3  1  0
  4  2  1  0
  4  5  1  0
  5  7  1  0
  5  6  1  1
  7  9  1  0
  8  7  2  0
  9 10  1  0
 10 11  1  6
 12 11  1  0
 13 14  1  0
 13 12  1  0
 14 15  1  0
 16 17  2  0
 16 10  1  0
 19 18  1  6
 19 21  1  0
 19 20  1  0
 20 16  1  0
 21 22  1  0
 23 21  2  0
M  END
$$$$
