GGT.pdb
     RDKit          3D

 16 15  0  0  1  0  0  0  0  0999 V2000
    5.9936  -19.2983   22.5521 N   0  0  0  0  0  0  0  0  0  0  0  0
    5.8323  -18.1081   23.3745 C   0  0  0  0  0  0  0  0  0  0  0  0
    6.7310  -17.0524   22.8379 C   0  0  0  0  0  0  0  0  0  0  0  0
    7.9206  -17.3128   22.4920 O   0  0  0  0  0  0  0  0  0  0  0  0
    6.2630  -15.7348   22.7069 N   0  0  0  0  0  0  0  0  0  0  0  0
    7.1339  -14.6755   22.2262 C   0  0  0  0  0  0  0  0  0  0  0  0
    7.6941  -13.9060   23.3624 C   0  0  0  0  0  0  0  0  0  0  0  0
    8.4915  -12.9462   23.2189 O   0  0  0  0  0  0  0  0  0  0  0  0
    6.2333  -11.6655   25.8360 C   0  0  0  0  0  0  0  0  0  0  0  0
    6.7253  -12.8924   26.5387 C   0  0  1  0  0  0  0  0  0  0  0  0
    5.7157  -13.8382   26.7092 O   0  0  0  0  0  0  0  0  0  0  0  0
    7.8744  -13.5678   25.8487 C   0  0  2  0  0  0  0  0  0  0  0  0
    7.3198  -14.2604   24.6830 N   0  0  0  0  0  0  0  0  0  0  0  0
    8.5728  -14.5419   26.7104 C   0  0  0  0  0  0  0  0  0  0  0  0
    8.4946  -15.7707   26.4529 O   0  0  0  0  0  0  0  0  0  0  0  0
    9.3339  -14.1921   27.8192 O   0  0  0  0  0  0  0  0  0  0  0  0
  2  1  1  0
  3  5  1  0
  3  2  1  0
  4  3  2  0
  6  5  1  0
  7  6  1  0
  8  7  2  0
 10 12  1  0
 10  9  1  6
 11 10  1  0
 12 13  1  6
 13  7  1  0
 14 16  1  0
 14 12  1  0
 15 14  2  0
M  END
$$$$
