GGT.pdb
     RDKit          3D

 16 15  0  0  1  0  0  0  0  0999 V2000
    7.9153  -18.6095   20.7120 N   0  0  0  0  0  0  0  0  0  0  0  0
    8.4147  -17.3340   21.2050 C   0  0  0  0  0  0  0  0  0  0  0  0
    7.2683  -16.3910   21.2860 C   0  0  0  0  0  0  0  0  0  0  0  0
    6.3051  -16.4524   20.4669 O   0  0  0  0  0  0  0  0  0  0  0  0
    7.2410  -15.4068   22.2874 N   0  0  0  0  0  0  0  0  0  0  0  0
    7.6338  -14.0371   22.0018 C   0  0  0  0  0  0  0  0  0  0  0  0
    7.5047  -13.1946   23.2144 C   0  0  0  0  0  0  0  0  0  0  0  0
    7.6951  -11.9531   23.2151 O   0  0  0  0  0  0  0  0  0  0  0  0
    6.4643  -11.4851   26.1903 C   0  0  0  0  0  0  0  0  0  0  0  0
    6.8764  -12.8617   26.6099 C   0  0  1  0  0  0  0  0  0  0  0  0
    5.7850  -13.7199   26.7334 O   0  0  0  0  0  0  0  0  0  0  0  0
    7.8654  -13.5081   25.6843 C   0  0  2  0  0  0  0  0  0  0  0  0
    7.1489  -13.8078   24.4421 N   0  0  0  0  0  0  0  0  0  0  0  0
    8.4388  -14.7536   26.2312 C   0  0  0  0  0  0  0  0  0  0  0  0
    8.1341  -15.8596   25.7152 O   0  0  0  0  0  0  0  0  0  0  0  0
    9.3174  -14.7970   27.3071 O   0  0  0  0  0  0  0  0  0  0  0  0
  2  1  1  0
  3  5  1  0
  3  2  1  0
  4  3  2  0
  6  5  1  0
  7  6  1  0
  8  7  2  0
 10 12  1  0
 10  9  1  6
 11 10  1  0
 12 13  1  6
 13  7  1  0
 14 16  1  0
 14 12  1  0
 15 14  2  0
M  END
$$$$
