GGT.pdb
     RDKit          3D

 16 15  0  0  1  0  0  0  0  0999 V2000
    8.4655  -17.4501   18.6598 N   0  0  0  0  0  0  0  0  0  0  0  0
    9.1125  -16.8331   19.8087 C   0  0  0  0  0  0  0  0  0  0  0  0
    8.0520  -16.2897   20.6975 C   0  0  0  0  0  0  0  0  0  0  0  0
    6.8259  -16.5063   20.4694 O   0  0  0  0  0  0  0  0  0  0  0  0
    8.4043  -15.5184   21.8170 N   0  0  0  0  0  0  0  0  0  0  0  0
    7.4111  -15.1406   22.8083 C   0  0  0  0  0  0  0  0  0  0  0  0
    8.0488  -14.4210   23.9364 C   0  0  0  0  0  0  0  0  0  0  0  0
    9.2903  -14.2604   24.0384 O   0  0  0  0  0  0  0  0  0  0  0  0
    6.3143  -11.1597   25.9025 C   0  0  0  0  0  0  0  0  0  0  0  0
    6.6925  -12.3615   26.7111 C   0  0  1  0  0  0  0  0  0  0  0  0
    5.6080  -13.2107   26.9251 O   0  0  0  0  0  0  0  0  0  0  0  0
    7.7999  -13.1753   26.1078 C   0  0  2  0  0  0  0  0  0  0  0  0
    7.2280  -13.8818   24.9588 N   0  0  0  0  0  0  0  0  0  0  0  0
    8.3738  -14.1565   27.0496 C   0  0  0  0  0  0  0  0  0  0  0  0
    9.0769  -13.7582   28.0137 O   0  0  0  0  0  0  0  0  0  0  0  0
    8.1896  -15.5302   26.9477 O   0  0  0  0  0  0  0  0  0  0  0  0
  2  1  1  0
  3  5  1  0
  3  2  1  0
  4  3  2  0
  6  5  1  0
  7  6  1  0
  8  7  2  0
 10 12  1  0
 10  9  1  6
 11 10  1  0
 12 13  1  6
 13  7  1  0
 14 16  1  0
 14 12  1  0
 15 14  2  0
M  END
$$$$
