GGT.pdb
     RDKit          3D

 16 15  0  0  1  0  0  0  0  0999 V2000
    4.7972  -20.5617   21.0319 N   0  0  0  0  0  0  0  0  0  0  0  0
    4.0168  -20.3801   22.2473 C   0  0  0  0  0  0  0  0  0  0  0  0
    4.6978  -19.3565   23.0830 C   0  0  0  0  0  0  0  0  0  0  0  0
    4.2888  -18.1592   23.1223 O   0  0  0  0  0  0  0  0  0  0  0  0
    5.8195  -19.7121   23.8496 N   0  0  0  0  0  0  0  0  0  0  0  0
    6.5309  -18.7213   24.6396 C   0  0  0  0  0  0  0  0  0  0  0  0
    7.4930  -17.9746   23.7948 C   0  0  0  0  0  0  0  0  0  0  0  0
    8.5989  -18.4445   23.4288 O   0  0  0  0  0  0  0  0  0  0  0  0
    8.0080  -13.7232   21.2193 C   0  0  0  0  0  0  0  0  0  0  0  0
    7.2040  -14.7463   21.9594 C   0  0  1  0  0  0  0  0  0  0  0  0
    6.1410  -15.2281   21.1971 O   0  0  0  0  0  0  0  0  0  0  0  0
    8.0050  -15.9264   22.4266 C   0  0  2  0  0  0  0  0  0  0  0  0
    7.1613  -16.6630   23.3711 N   0  0  0  0  0  0  0  0  0  0  0  0
    9.2647  -15.5414   23.0929 C   0  0  0  0  0  0  0  0  0  0  0  0
   10.2775  -15.2649   22.3998 O   0  0  0  0  0  0  0  0  0  0  0  0
    9.4203  -15.4591   24.4714 O   0  0  0  0  0  0  0  0  0  0  0  0
  2  1  1  0
  3  5  1  0
  3  2  1  0
  4  3  2  0
  6  5  1  0
  7  6  1  0
  8  7  2  0
 10 12  1  0
 10  9  1  6
 11 10  1  0
 12 13  1  1
 13  7  1  0
 14 16  1  0
 14 12  1  0
 15 14  2  0
M  END
$$$$
