GGT.pdb
     RDKit          3D

 16 15  0  0  1  0  0  0  0  0999 V2000
    9.1808  -15.0690   15.5011 N   0  0  0  0  0  0  0  0  0  0  0  0
    7.9923  -14.7732   16.2879 C   0  0  0  0  0  0  0  0  0  0  0  0
    8.4027  -13.9330   17.4436 C   0  0  0  0  0  0  0  0  0  0  0  0
    9.6134  -13.8548   17.8048 O   0  0  0  0  0  0  0  0  0  0  0  0
    7.4369  -13.2057   18.1582 N   0  0  0  0  0  0  0  0  0  0  0  0
    7.8149  -12.3532   19.2726 C   0  0  0  0  0  0  0  0  0  0  0  0
    8.0194  -13.1597   20.4993 C   0  0  0  0  0  0  0  0  0  0  0  0
    8.3439  -12.6619   21.6059 O   0  0  0  0  0  0  0  0  0  0  0  0
    7.1005  -17.5775   22.5442 C   0  0  0  0  0  0  0  0  0  0  0  0
    7.1235  -16.6229   21.3913 C   0  0  1  0  0  0  0  0  0  0  0  0
    5.8450  -16.1864   21.0477 O   0  0  0  0  0  0  0  0  0  0  0  0
    7.9750  -15.4092   21.6247 C   0  0  2  0  0  0  0  0  0  0  0  0
    7.8432  -14.5649   20.4347 N   0  0  0  0  0  0  0  0  0  0  0  0
    9.3987  -15.7356   21.8381 C   0  0  0  0  0  0  0  0  0  0  0  0
   10.1526  -15.9156   20.8472 O   0  0  0  0  0  0  0  0  0  0  0  0
    9.9869  -15.8629   23.0907 O   0  0  0  0  0  0  0  0  0  0  0  0
  2  1  1  0
  3  5  1  0
  3  2  1  0
  4  3  2  0
  6  5  1  0
  7  6  1  0
  8  7  2  0
 10 12  1  0
 10  9  1  1
 11 10  1  0
 12 13  1  6
 13  7  1  0
 14 16  1  0
 14 12  1  0
 15 14  2  0
M  END
$$$$
