GGT.pdb
     RDKit          3D

 16 15  0  0  1  0  0  0  0  0999 V2000
    3.7356  -20.4975   19.4748 N   0  0  0  0  0  0  0  0  0  0  0  0
    2.8125  -20.0124   20.4905 C   0  0  0  0  0  0  0  0  0  0  0  0
    3.4786  -18.9065   21.2275 C   0  0  0  0  0  0  0  0  0  0  0  0
    3.4110  -17.7093   20.8218 O   0  0  0  0  0  0  0  0  0  0  0  0
    4.2012  -19.1821   22.3998 N   0  0  0  0  0  0  0  0  0  0  0  0
    4.7766  -18.1097   23.1940 C   0  0  0  0  0  0  0  0  0  0  0  0
    6.1414  -17.7830   22.7170 C   0  0  0  0  0  0  0  0  0  0  0  0
    6.8196  -18.5497   21.9891 O   0  0  0  0  0  0  0  0  0  0  0  0
    6.8679  -14.2701   21.2771 C   0  0  0  0  0  0  0  0  0  0  0  0
    7.8979  -14.6331   22.3010 C   0  0  1  0  0  0  0  0  0  0  0  0
    7.6608  -14.0105   23.5254 O   0  0  0  0  0  0  0  0  0  0  0  0
    8.0117  -16.1086   22.5514 C   0  0  2  0  0  0  0  0  0  0  0  0
    6.7229  -16.5462   23.0936 N   0  0  0  0  0  0  0  0  0  0  0  0
    9.0854  -16.4509   23.5048 C   0  0  0  0  0  0  0  0  0  0  0  0
    8.7894  -16.8536   24.6592 O   0  0  0  0  0  0  0  0  0  0  0  0
   10.4411  -16.3587   23.2134 O   0  0  0  0  0  0  0  0  0  0  0  0
  2  1  1  0
  3  5  1  0
  3  2  1  0
  4  3  2  0
  6  5  1  0
  7  6  1  0
  8  7  2  0
 10 12  1  0
 10  9  1  6
 11 10  1  0
 12 13  1  1
 13  7  1  0
 14 16  1  0
 14 12  1  0
 15 14  2  0
M  END
$$$$
