GGT.pdb
     RDKit          3D

 16 15  0  0  1  0  0  0  0  0999 V2000
    8.0276  -14.4090   14.6621 N   0  0  0  0  0  0  0  0  0  0  0  0
    8.6506  -13.6954   15.7674 C   0  0  0  0  0  0  0  0  0  0  0  0
    7.7448  -13.7860   16.9427 C   0  0  0  0  0  0  0  0  0  0  0  0
    6.6441  -14.4079   16.8802 O   0  0  0  0  0  0  0  0  0  0  0  0
    8.1061  -13.1733   18.1537 N   0  0  0  0  0  0  0  0  0  0  0  0
    7.2682  -13.2973   19.3345 C   0  0  0  0  0  0  0  0  0  0  0  0
    7.7257  -14.4242   20.1817 C   0  0  0  0  0  0  0  0  0  0  0  0
    7.2387  -14.6803   21.3108 O   0  0  0  0  0  0  0  0  0  0  0  0
    9.6293  -18.8960   20.0761 C   0  0  0  0  0  0  0  0  0  0  0  0
    9.2180  -17.5891   19.4730 C   0  0  1  0  0  0  0  0  0  0  0  0
    7.9626  -17.6623   18.8716 O   0  0  0  0  0  0  0  0  0  0  0  0
    9.1922  -16.4505   20.4506 C   0  0  2  0  0  0  0  0  0  0  0  0
    8.7646  -15.2634   19.7060 N   0  0  0  0  0  0  0  0  0  0  0  0
   10.5069  -16.1923   21.0703 C   0  0  0  0  0  0  0  0  0  0  0  0
   11.3571  -15.4933   20.4610 O   0  0  0  0  0  0  0  0  0  0  0  0
   10.8875  -16.6787   22.3152 O   0  0  0  0  0  0  0  0  0  0  0  0
  2  1  1  0
  3  5  1  0
  3  2  1  0
  4  3  2  0
  6  5  1  0
  7  6  1  0
  8  7  2  0
 10 12  1  0
 10  9  1  1
 11 10  1  0
 12 13  1  6
 13  7  1  0
 14 16  1  0
 14 12  1  0
 15 14  2  0
M  END
$$$$
