TAQ.pdb
     RDKit          3D

 22 21  0  0  1  0  0  0  0  0999 V2000
   25.2995  -20.3796  -17.9834 C   0  0  0  0  0  0  0  0  0  0  0  0
   24.7719  -19.0333  -17.5043 C   0  0  1  0  0  0  0  0  0  0  0  0
   23.4133  -18.9161  -17.7631 O   0  0  0  0  0  0  0  0  0  0  0  0
   24.9599  -18.9175  -15.9903 C   0  0  2  0  0  0  0  0  0  0  0  0
   24.1279  -19.8749  -15.2938 N   0  0  0  0  0  0  0  0  0  0  0  0
   24.5726  -17.5298  -15.6354 C   0  0  0  0  0  0  0  0  0  0  0  0
   23.3760  -17.1962  -15.4509 O   0  0  0  0  0  0  0  0  0  0  0  0
   26.5286  -14.3009  -15.0370 C   0  0  0  0  0  0  0  0  0  0  0  0
   25.3383  -15.1605  -15.2824 C   0  0  2  0  0  0  0  0  0  0  0  0
   25.5902  -16.5453  -15.5005 N   0  0  0  0  0  0  0  0  0  0  0  0
   24.4836  -14.6388  -16.4335 C   0  0  0  0  0  0  0  0  0  0  0  0
   24.6888  -15.0580  -17.5880 O   0  0  0  0  0  0  0  0  0  0  0  0
   18.6333  -14.4497  -17.0660 N   0  0  0  0  0  0  0  0  0  0  0  0
   18.8458  -13.2229  -17.7244 C   0  0  0  0  0  0  0  0  0  0  0  0
   17.9069  -12.7081  -18.3644 O   0  0  0  0  0  0  0  0  0  0  0  0
   20.1592  -12.5575  -17.6601 C   0  0  0  0  0  0  0  0  0  0  0  0
   21.1552  -13.1915  -16.7447 C   0  0  0  0  0  0  0  0  0  0  0  0
   22.6001  -13.0066  -17.0760 C   0  0  2  0  0  0  0  0  0  0  0  0
   23.4744  -13.6917  -16.1879 N   0  0  0  0  0  0  0  0  0  0  0  0
   22.9745  -11.6721  -17.5650 C   0  0  0  0  0  0  0  0  0  0  0  0
   23.6708  -10.8768  -16.8138 O   0  0  0  0  0  0  0  0  0  0  0  0
   22.6785  -11.0869  -18.7808 O   0  0  0  0  0  0  0  0  0  0  0  0
  2  1  1  1
  2  4  1  0
  3  2  1  0
  4  6  1  0
  4  5  1  1
  6 10  1  0
  7  6  2  0
  9  8  1  6
  9 11  1  0
 10  9  1  0
 11 19  1  0
 11 12  2  0
 14 13  1  0
 15 14  2  0
 16 14  1  0
 18 17  1  1
 17 16  1  0
 18 20  1  0
 19 18  1  0
 20 22  1  0
 21 20  2  0
M  END
$$$$
