TAQ.pdb
     RDKit          3D

 22 21  0  0  1  0  0  0  0  0999 V2000
   17.9016  -11.8337  -19.0860 C   0  0  0  0  0  0  0  0  0  0  0  0
   18.4142  -10.9515  -17.9548 C   0  0  1  0  0  0  0  0  0  0  0  0
   17.3853  -10.1890  -17.4197 O   0  0  0  0  0  0  0  0  0  0  0  0
   18.9654  -11.8289  -16.8290 C   0  0  2  0  0  0  0  0  0  0  0  0
   17.9001  -12.5616  -16.1792 N   0  0  0  0  0  0  0  0  0  0  0  0
   19.6235  -10.9030  -15.8744 C   0  0  0  0  0  0  0  0  0  0  0  0
   18.9684  -10.1981  -15.0675 O   0  0  0  0  0  0  0  0  0  0  0  0
   23.2525  -10.1969  -14.9393 C   0  0  0  0  0  0  0  0  0  0  0  0
   21.7871   -9.9474  -15.0198 C   0  0  2  0  0  0  0  0  0  0  0  0
   21.0428  -10.8106  -15.8740 N   0  0  0  0  0  0  0  0  0  0  0  0
   21.4729   -8.5039  -15.4009 C   0  0  0  0  0  0  0  0  0  0  0  0
   21.0684   -8.2478  -16.5505 O   0  0  0  0  0  0  0  0  0  0  0  0
   18.7113   -4.7468  -17.0750 N   0  0  0  0  0  0  0  0  0  0  0  0
   19.0216   -3.7966  -16.0828 C   0  0  0  0  0  0  0  0  0  0  0  0
   18.6561   -2.6143  -16.2404 O   0  0  0  0  0  0  0  0  0  0  0  0
   19.7696   -4.1926  -14.8761 C   0  0  0  0  0  0  0  0  0  0  0  0
   20.0452   -5.6549  -14.7437 C   0  0  0  0  0  0  0  0  0  0  0  0
   21.4708   -6.0672  -14.5722 C   0  0  2  0  0  0  0  0  0  0  0  0
   21.6411   -7.4746  -14.4587 N   0  0  0  0  0  0  0  0  0  0  0  0
   22.2955   -5.1750  -13.7451 C   0  0  0  0  0  0  0  0  0  0  0  0
   22.5012   -5.4537  -12.4954 O   0  0  0  0  0  0  0  0  0  0  0  0
   22.9272   -4.0023  -14.1109 O   0  0  0  0  0  0  0  0  0  0  0  0
  2  1  1  6
  2  4  1  0
  3  2  1  0
  4  6  1  0
  4  5  1  1
  6 10  1  0
  7  6  2  0
  9  8  1  6
  9 11  1  0
 10  9  1  0
 11 19  1  0
 11 12  2  0
 14 13  1  0
 15 14  2  0
 16 14  1  0
 18 17  1  1
 17 16  1  0
 18 20  1  0
 19 18  1  0
 20 22  1  0
 21 20  2  0
M  END
$$$$
