TAQ.pdb
     RDKit          3D

 22 21  0  0  1  0  0  0  0  0999 V2000
   18.3867  -11.0836  -18.4216 C   0  0  0  0  0  0  0  0  0  0  0  0
   18.7614  -12.4142  -17.7814 C   0  0  1  0  0  0  0  0  0  0  0  0
   18.7197  -13.4397  -18.7158 O   0  0  0  0  0  0  0  0  0  0  0  0
   20.1931  -12.3416  -17.2467 C   0  0  2  0  0  0  0  0  0  0  0  0
   20.6276  -13.6342  -16.7625 N   0  0  0  0  0  0  0  0  0  0  0  0
   20.1675  -11.3497  -16.1436 C   0  0  0  0  0  0  0  0  0  0  0  0
   19.4872  -11.5250  -15.1026 O   0  0  0  0  0  0  0  0  0  0  0  0
   21.9753   -8.0481  -15.4996 C   0  0  0  0  0  0  0  0  0  0  0  0
   20.9497   -9.1101  -15.3086 C   0  0  2  0  0  0  0  0  0  0  0  0
   20.9382  -10.1610  -16.2700 N   0  0  0  0  0  0  0  0  0  0  0  0
   19.5409   -8.5332  -15.2081 C   0  0  0  0  0  0  0  0  0  0  0  0
   18.8457   -8.4314  -16.2362 O   0  0  0  0  0  0  0  0  0  0  0  0
   16.2978   -8.6574   -9.7320 N   0  0  0  0  0  0  0  0  0  0  0  0
   15.4519   -7.9044  -10.5693 C   0  0  0  0  0  0  0  0  0  0  0  0
   14.3510   -7.5175  -10.1284 O   0  0  0  0  0  0  0  0  0  0  0  0
   15.8603   -7.5798  -11.9477 C   0  0  0  0  0  0  0  0  0  0  0  0
   17.2076   -8.0827  -12.3526 C   0  0  0  0  0  0  0  0  0  0  0  0
   17.7939   -7.5259  -13.6087 C   0  0  2  0  0  0  0  0  0  0  0  0
   19.0365   -8.1203  -13.9628 N   0  0  0  0  0  0  0  0  0  0  0  0
   17.6037   -6.0831  -13.8140 C   0  0  0  0  0  0  0  0  0  0  0  0
   18.1270   -5.2345  -12.9847 O   0  0  0  0  0  0  0  0  0  0  0  0
   16.9036   -5.4416  -14.8172 O   0  0  0  0  0  0  0  0  0  0  0  0
  2  1  1  6
  2  4  1  0
  3  2  1  0
  4  6  1  0
  4  5  1  1
  6 10  1  0
  7  6  2  0
  9  8  1  6
  9 11  1  0
 10  9  1  0
 11 19  1  0
 11 12  2  0
 14 13  1  0
 15 14  2  0
 16 14  1  0
 18 17  1  1
 17 16  1  0
 18 20  1  0
 19 18  1  0
 20 22  1  0
 21 20  2  0
M  END
$$$$
