TAQ.pdb
     RDKit          3D

 22 21  0  0  1  0  0  0  0  0999 V2000
   24.9773  -13.2095  -15.5621 C   0  0  0  0  0  0  0  0  0  0  0  0
   25.5057  -13.2895  -16.9887 C   0  0  1  0  0  0  0  0  0  0  0  0
   26.4475  -14.3018  -17.1092 O   0  0  0  0  0  0  0  0  0  0  0  0
   24.3567  -13.6187  -17.9439 C   0  0  2  0  0  0  0  0  0  0  0  0
   24.8531  -13.8613  -19.2813 N   0  0  0  0  0  0  0  0  0  0  0  0
   23.4580  -12.4382  -17.9241 C   0  0  0  0  0  0  0  0  0  0  0  0
   23.8881  -11.2680  -18.0744 O   0  0  0  0  0  0  0  0  0  0  0  0
   19.7048  -11.9999  -18.1281 C   0  0  0  0  0  0  0  0  0  0  0  0
   21.0927  -11.5979  -17.7698 C   0  0  2  0  0  0  0  0  0  0  0  0
   22.0637  -12.6391  -17.7276 N   0  0  0  0  0  0  0  0  0  0  0  0
   21.1445  -10.8366  -16.4486 C   0  0  0  0  0  0  0  0  0  0  0  0
   21.3303  -11.4620  -15.3879 O   0  0  0  0  0  0  0  0  0  0  0  0
   23.1449   -4.8746  -15.9767 N   0  0  0  0  0  0  0  0  0  0  0  0
   22.5477   -5.0759  -14.7172 C   0  0  0  0  0  0  0  0  0  0  0  0
   22.6711   -4.1969  -13.8406 O   0  0  0  0  0  0  0  0  0  0  0  0
   21.7892   -6.3082  -14.4376 C   0  0  0  0  0  0  0  0  0  0  0  0
   21.7750   -7.3165  -15.5400 C   0  0  0  0  0  0  0  0  0  0  0  0
   20.9099   -8.5198  -15.3523 C   0  0  2  0  0  0  0  0  0  0  0  0
   20.9821   -9.4405  -16.4338 N   0  0  0  0  0  0  0  0  0  0  0  0
   19.6147   -8.2763  -14.7017 C   0  0  0  0  0  0  0  0  0  0  0  0
   19.4603   -8.5425  -13.4419 O   0  0  0  0  0  0  0  0  0  0  0  0
   18.4525   -7.7784  -15.2580 O   0  0  0  0  0  0  0  0  0  0  0  0
  2  1  1  1
  2  4  1  0
  3  2  1  0
  4  6  1  0
  4  5  1  6
  6 10  1  0
  7  6  2  0
  9  8  1  1
  9 11  1  0
 10  9  1  0
 11 19  1  0
 11 12  2  0
 14 13  1  0
 15 14  2  0
 16 14  1  0
 18 17  1  6
 17 16  1  0
 18 20  1  0
 19 18  1  0
 20 22  1  0
 21 20  2  0
M  END
$$$$
