TAQ.pdb
     RDKit          3D

 22 21  0  0  1  0  0  0  0  0999 V2000
   24.7665  -13.5435  -15.3167 C   0  0  0  0  0  0  0  0  0  0  0  0
   24.2440  -12.1492  -15.6386 C   0  0  1  0  0  0  0  0  0  0  0  0
   25.1669  -11.4395  -16.3943 O   0  0  0  0  0  0  0  0  0  0  0  0
   22.9631  -12.2599  -16.4681 C   0  0  2  0  0  0  0  0  0  0  0  0
   23.2534  -12.7436  -17.8007 N   0  0  0  0  0  0  0  0  0  0  0  0
   22.3904  -10.8921  -16.5198 C   0  0  0  0  0  0  0  0  0  0  0  0
   22.8595   -9.9987  -17.2674 O   0  0  0  0  0  0  0  0  0  0  0  0
   19.1559   -9.3759  -15.2579 C   0  0  0  0  0  0  0  0  0  0  0  0
   20.5638   -9.3489  -15.7408 C   0  0  2  0  0  0  0  0  0  0  0  0
   21.2738  -10.5828  -15.6948 N   0  0  0  0  0  0  0  0  0  0  0  0
   21.3939   -8.2881  -15.0242 C   0  0  0  0  0  0  0  0  0  0  0  0
   22.0117   -8.5913  -13.9864 O   0  0  0  0  0  0  0  0  0  0  0  0
   22.7338   -2.7059  -17.9585 N   0  0  0  0  0  0  0  0  0  0  0  0
   23.1550   -2.4677  -16.6358 C   0  0  0  0  0  0  0  0  0  0  0  0
   23.6670   -1.3661  -16.3519 O   0  0  0  0  0  0  0  0  0  0  0  0
   22.9952   -3.5057  -15.6018 C   0  0  0  0  0  0  0  0  0  0  0  0
   22.2973   -4.7502  -16.0449 C   0  0  0  0  0  0  0  0  0  0  0  0
   22.0538   -5.8004  -15.0107 C   0  0  2  0  0  0  0  0  0  0  0  0
   21.4568   -6.9800  -15.5348 N   0  0  0  0  0  0  0  0  0  0  0  0
   21.6334   -5.3079  -13.6913 C   0  0  0  0  0  0  0  0  0  0  0  0
   22.5101   -4.8158  -12.8721 O   0  0  0  0  0  0  0  0  0  0  0  0
   20.3651   -5.2881  -13.1443 O   0  0  0  0  0  0  0  0  0  0  0  0
  2  1  1  6
  2  4  1  0
  3  2  1  0
  4  6  1  0
  4  5  1  6
  6 10  1  0
  7  6  2  0
  9  8  1  1
  9 11  1  0
 10  9  1  0
 11 19  1  0
 11 12  2  0
 14 13  1  0
 15 14  2  0
 16 14  1  0
 18 17  1  6
 17 16  1  0
 18 20  1  0
 19 18  1  0
 20 22  1  0
 21 20  2  0
M  END
$$$$
