TAQ.pdb
     RDKit          3D

 22 21  0  0  1  0  0  0  0  0999 V2000
   16.7250  -11.7102  -14.1100 C   0  0  0  0  0  0  0  0  0  0  0  0
   15.9410  -10.7798  -13.1933 C   0  0  1  0  0  0  0  0  0  0  0  0
   15.4900  -11.4595  -12.0703 O   0  0  0  0  0  0  0  0  0  0  0  0
   16.8516   -9.6500  -12.7081 C   0  0  2  0  0  0  0  0  0  0  0  0
   17.9038  -10.1659  -11.8590 N   0  0  0  0  0  0  0  0  0  0  0  0
   15.9787   -8.7172  -11.9536 C   0  0  0  0  0  0  0  0  0  0  0  0
   14.9318   -8.2323  -12.4496 O   0  0  0  0  0  0  0  0  0  0  0  0
   15.9682   -7.4135   -8.3671 C   0  0  0  0  0  0  0  0  0  0  0  0
   15.5925   -7.4658   -9.8066 C   0  0  2  0  0  0  0  0  0  0  0  0
   16.3402   -8.3600  -10.6251 N   0  0  0  0  0  0  0  0  0  0  0  0
   15.6168   -6.0846  -10.4544 C   0  0  0  0  0  0  0  0  0  0  0  0
   16.6264   -5.7221  -11.0868 O   0  0  0  0  0  0  0  0  0  0  0  0
   10.1531   -2.6840  -10.9128 N   0  0  0  0  0  0  0  0  0  0  0  0
   11.1293   -1.7585  -11.3302 C   0  0  0  0  0  0  0  0  0  0  0  0
   10.7703   -0.6179  -11.6858 O   0  0  0  0  0  0  0  0  0  0  0  0
   12.5548   -2.1325  -11.3487 C   0  0  0  0  0  0  0  0  0  0  0  0
   12.8677   -3.4931  -10.8168 C   0  0  0  0  0  0  0  0  0  0  0  0
   14.3067   -3.8915  -10.7677 C   0  0  2  0  0  0  0  0  0  0  0  0
   14.5062   -5.2314  -10.3348 N   0  0  0  0  0  0  0  0  0  0  0  0
   15.2408   -2.8469  -10.3246 C   0  0  0  0  0  0  0  0  0  0  0  0
   15.5640   -2.7534   -9.0722 O   0  0  0  0  0  0  0  0  0  0  0  0
   15.8702   -1.8780  -11.0816 O   0  0  0  0  0  0  0  0  0  0  0  0
  2  1  1  6
  2  4  1  0
  3  2  1  0
  4  6  1  0
  4  5  1  1
  6 10  1  0
  7  6  2  0
  9  8  1  1
  9 11  1  0
 10  9  1  0
 11 19  1  0
 11 12  2  0
 14 13  1  0
 15 14  2  0
 16 14  1  0
 18 17  1  1
 17 16  1  0
 18 20  1  0
 19 18  1  0
 20 22  1  0
 21 20  2  0
M  END
$$$$
