TAQ.pdb
     RDKit          3D

 22 21  0  0  1  0  0  0  0  0999 V2000
   15.6163  -11.5634  -11.0981 C   0  0  0  0  0  0  0  0  0  0  0  0
   14.1252  -11.6212  -10.7915 C   0  0  1  0  0  0  0  0  0  0  0  0
   13.7395  -12.9133  -10.4627 O   0  0  0  0  0  0  0  0  0  0  0  0
   13.8139  -10.7312   -9.5865 C   0  0  2  0  0  0  0  0  0  0  0  0
   12.4020  -10.7667   -9.2717 N   0  0  0  0  0  0  0  0  0  0  0  0
   14.2310   -9.3605   -9.9724 C   0  0  0  0  0  0  0  0  0  0  0  0
   13.5923   -8.6787  -10.8116 O   0  0  0  0  0  0  0  0  0  0  0  0
   16.1204   -6.6112   -8.4733 C   0  0  0  0  0  0  0  0  0  0  0  0
   15.8842   -7.4931   -9.6492 C   0  0  2  0  0  0  0  0  0  0  0  0
   15.3930   -8.8011   -9.3724 N   0  0  0  0  0  0  0  0  0  0  0  0
   17.1254   -7.6201  -10.5273 C   0  0  0  0  0  0  0  0  0  0  0  0
   18.1510   -8.1541  -10.0651 O   0  0  0  0  0  0  0  0  0  0  0  0
   16.6967   -7.9493  -16.8178 N   0  0  0  0  0  0  0  0  0  0  0  0
   16.3100   -8.8066  -15.7695 C   0  0  0  0  0  0  0  0  0  0  0  0
   15.5785   -9.7843  -16.0248 O   0  0  0  0  0  0  0  0  0  0  0  0
   16.7612   -8.5514  -14.3898 C   0  0  0  0  0  0  0  0  0  0  0  0
   17.6422   -7.3578  -14.2137 C   0  0  0  0  0  0  0  0  0  0  0  0
   18.1304   -7.0687  -12.8317 C   0  0  2  0  0  0  0  0  0  0  0  0
   17.1068   -7.1356  -11.8466 N   0  0  0  0  0  0  0  0  0  0  0  0
   19.1611   -6.0262  -12.7267 C   0  0  0  0  0  0  0  0  0  0  0  0
   18.8468   -4.8427  -12.2998 O   0  0  0  0  0  0  0  0  0  0  0  0
   20.5047   -6.1104  -13.0360 O   0  0  0  0  0  0  0  0  0  0  0  0
  2  1  1  1
  2  4  1  0
  3  2  1  0
  4  6  1  0
  4  5  1  6
  6 10  1  0
  7  6  2  0
  9  8  1  1
  9 11  1  0
 10  9  1  0
 11 19  1  0
 11 12  2  0
 14 13  1  0
 15 14  2  0
 16 14  1  0
 18 17  1  6
 17 16  1  0
 18 20  1  0
 19 18  1  0
 20 22  1  0
 21 20  2  0
M  END
$$$$
