TAQ.pdb
     RDKit          3D

 22 21  0  0  1  0  0  0  0  0999 V2000
   17.2651  -10.4160  -18.2165 C   0  0  0  0  0  0  0  0  0  0  0  0
   17.2211  -10.9704  -16.7983 C   0  0  1  0  0  0  0  0  0  0  0  0
   16.0688  -11.7174  -16.5968 O   0  0  0  0  0  0  0  0  0  0  0  0
   18.4141  -11.9018  -16.5739 C   0  0  2  0  0  0  0  0  0  0  0  0
   18.0158  -13.0782  -15.8313 N   0  0  0  0  0  0  0  0  0  0  0  0
   19.4111  -11.1118  -15.8099 C   0  0  0  0  0  0  0  0  0  0  0  0
   19.2266  -10.7813  -14.6125 O   0  0  0  0  0  0  0  0  0  0  0  0
   22.9081   -9.7848  -16.5445 C   0  0  0  0  0  0  0  0  0  0  0  0
   21.5749   -9.8324  -15.8838 C   0  0  2  0  0  0  0  0  0  0  0  0
   20.6148  -10.7155  -16.4556 N   0  0  0  0  0  0  0  0  0  0  0  0
   20.9457   -8.4475  -15.7653 C   0  0  0  0  0  0  0  0  0  0  0  0
   19.9070   -8.1899  -16.4021 O   0  0  0  0  0  0  0  0  0  0  0  0
   18.1863   -4.5620  -16.5625 N   0  0  0  0  0  0  0  0  0  0  0  0
   18.4418   -3.8665  -15.3648 C   0  0  0  0  0  0  0  0  0  0  0  0
   17.9220   -2.7456  -15.1921 O   0  0  0  0  0  0  0  0  0  0  0  0
   19.3126   -4.4533  -14.3305 C   0  0  0  0  0  0  0  0  0  0  0  0
   19.7471   -5.8606  -14.5810 C   0  0  0  0  0  0  0  0  0  0  0  0
   21.2130   -6.1046  -14.7340 C   0  0  2  0  0  0  0  0  0  0  0  0
   21.5379   -7.4732  -14.9434 N   0  0  0  0  0  0  0  0  0  0  0  0
   22.0864   -5.2805  -13.8866 C   0  0  0  0  0  0  0  0  0  0  0  0
   22.5016   -4.1270  -14.3096 O   0  0  0  0  0  0  0  0  0  0  0  0
   22.5737   -5.5601  -12.6247 O   0  0  0  0  0  0  0  0  0  0  0  0
  2  1  1  6
  2  4  1  0
  3  2  1  0
  4  6  1  0
  4  5  1  1
  6 10  1  0
  7  6  2  0
  9  8  1  6
  9 11  1  0
 10  9  1  0
 11 19  1  0
 11 12  2  0
 14 13  1  0
 15 14  2  0
 16 14  1  0
 18 17  1  1
 17 16  1  0
 18 20  1  0
 19 18  1  0
 20 22  1  0
 21 20  2  0
M  END
$$$$
