TAQ.pdb
     RDKit          3D

 22 21  0  0  1  0  0  0  0  0999 V2000
   19.0012  -13.7656  -14.8590 C   0  0  0  0  0  0  0  0  0  0  0  0
   18.5370  -14.7444  -15.9301 C   0  0  1  0  0  0  0  0  0  0  0  0
   18.8187  -16.0517  -15.5584 O   0  0  0  0  0  0  0  0  0  0  0  0
   17.0206  -14.6355  -16.1026 C   0  0  2  0  0  0  0  0  0  0  0  0
   16.5433  -15.5943  -17.0755 N   0  0  0  0  0  0  0  0  0  0  0  0
   16.7602  -13.2486  -16.5614 C   0  0  0  0  0  0  0  0  0  0  0  0
   17.2765  -12.7824  -17.6069 O   0  0  0  0  0  0  0  0  0  0  0  0
   14.3570  -10.5035  -15.5004 C   0  0  0  0  0  0  0  0  0  0  0  0
   15.5899  -11.0679  -16.1149 C   0  0  2  0  0  0  0  0  0  0  0  0
   15.8980  -12.4202  -15.7910 N   0  0  0  0  0  0  0  0  0  0  0  0
   16.8179  -10.2106  -15.8238 C   0  0  0  0  0  0  0  0  0  0  0  0
   17.5173  -10.4613  -14.8245 O   0  0  0  0  0  0  0  0  0  0  0  0
   19.2755   -6.4093  -20.3808 N   0  0  0  0  0  0  0  0  0  0  0  0
   19.9680   -5.9862  -19.2297 C   0  0  0  0  0  0  0  0  0  0  0  0
   20.8643   -5.1260  -19.3436 O   0  0  0  0  0  0  0  0  0  0  0  0
   19.6401   -6.5529  -17.9093 C   0  0  0  0  0  0  0  0  0  0  0  0
   18.4949   -7.5121  -17.8896 C   0  0  0  0  0  0  0  0  0  0  0  0
   18.1631   -8.1509  -16.5805 C   0  0  2  0  0  0  0  0  0  0  0  0
   17.1524   -9.1466  -16.6791 N   0  0  0  0  0  0  0  0  0  0  0  0
   18.1787   -7.2564  -15.4145 C   0  0  0  0  0  0  0  0  0  0  0  0
   19.2991   -6.9800  -14.8228 O   0  0  0  0  0  0  0  0  0  0  0  0
   17.1152   -6.6219  -14.8025 O   0  0  0  0  0  0  0  0  0  0  0  0
  2  1  1  1
  2  4  1  0
  3  2  1  0
  4  6  1  0
  4  5  1  6
  6 10  1  0
  7  6  2  0
  9  8  1  1
  9 11  1  0
 10  9  1  0
 11 19  1  0
 11 12  2  0
 14 13  1  0
 15 14  2  0
 16 14  1  0
 18 17  1  6
 17 16  1  0
 18 20  1  0
 19 18  1  0
 20 22  1  0
 21 20  2  0
M  END
$$$$
