DYN.pdb
     RDKit          3D

 29 29  0  0  1  0  0  0  0  0999 V2000
   18.9634  -21.1342  -11.2622 N   0  0  0  0  0  0  0  0  0  0  0  0
   19.7744  -21.8161  -12.2300 C   0  0  1  0  0  0  0  0  0  0  0  0
   18.9851  -22.3627  -13.3953 C   0  0  0  0  0  0  0  0  0  0  0  0
   18.2327  -23.5346  -12.9181 C   0  0  0  0  0  0  0  0  0  0  0  0
   17.2330  -23.3761  -12.1950 O   0  0  0  0  0  0  0  0  0  0  0  0
   20.8736  -20.9121  -12.6626 C   0  0  0  0  0  0  0  0  0  0  0  0
   20.6560  -19.6668  -12.8377 O   0  0  0  0  0  0  0  0  0  0  0  0
   18.6332  -24.8005  -13.2704 O   0  0  0  0  0  0  0  0  0  0  0  0
   29.4352  -19.6055  -15.2001 O   0  0  0  0  0  0  0  0  0  0  0  0
   28.2072  -19.9188  -14.6009 C   0  0  0  0  0  0  0  0  0  0  0  0
   27.5187  -18.9948  -13.8505 C   0  0  0  0  0  0  0  0  0  0  0  0
   26.3030  -19.3546  -13.2760 C   0  0  0  0  0  0  0  0  0  0  0  0
   25.7660  -20.6125  -13.4362 C   0  0  0  0  0  0  0  0  0  0  0  0
   24.5105  -20.9843  -12.8142 C   0  0  0  0  0  0  0  0  0  0  0  0
   23.2529  -20.4526  -13.4022 C   0  0  2  0  0  0  0  0  0  0  0  0
   22.1872  -21.3539  -12.9009 N   0  0  0  0  0  0  0  0  0  0  0  0
   23.1640  -20.4490  -14.8678 C   0  0  0  0  0  0  0  0  0  0  0  0
   22.7895  -21.5141  -15.4700 O   0  0  0  0  0  0  0  0  0  0  0  0
   26.4729  -21.5194  -14.1909 C   0  0  0  0  0  0  0  0  0  0  0  0
   27.6778  -21.1702  -14.7632 C   0  0  0  0  0  0  0  0  0  0  0  0
   23.0366  -19.5264  -19.9198 N   0  0  0  0  0  0  0  0  0  0  0  0
   22.6704  -18.3537  -19.2149 C   0  0  0  0  0  0  0  0  0  0  0  0
   22.1447  -17.4069  -19.8590 O   0  0  0  0  0  0  0  0  0  0  0  0
   22.8749  -18.1895  -17.7688 C   0  0  0  0  0  0  0  0  0  0  0  0
   23.4004  -19.4667  -17.1370 C   0  0  2  0  0  0  0  0  0  0  0  0
   23.4579  -19.3453  -15.7055 N   0  0  0  0  0  0  0  0  0  0  0  0
   24.6901  -19.7855  -17.7799 C   0  0  0  0  0  0  0  0  0  0  0  0
   25.3664  -18.8264  -18.2278 O   0  0  0  0  0  0  0  0  0  0  0  0
   25.2134  -21.0555  -17.9280 O   0  0  0  0  0  0  0  0  0  0  0  0
  2  1  1  1
  3  4  1  0
  3  2  1  0
  4  8  1  0
  5  4  2  0
  6  2  1  0
  7  6  2  0
  9 10  1  0
 10 20  2  0
 10 11  1  0
 11 12  2  0
 12 13  1  0
 13 14  1  0
 15 14  1  6
 15 16  1  0
 15 17  1  0
 16  6  1  0
 17 26  1  0
 18 17  2  0
 19 13  2  0
 20 19  1  0
 22 21  1  0
 22 24  1  0
 23 22  2  0
 25 24  1  6
 25 27  1  0
 26 25  1  0
 27 29  1  0
 28 27  2  0
M  END
$$$$
