DYN.pdb
     RDKit          3D

 29 29  0  0  1  0  0  0  0  0999 V2000
   28.3309  -21.7263  -17.5993 N   0  0  0  0  0  0  0  0  0  0  0  0
   27.6923  -20.6357  -16.9196 C   0  0  1  0  0  0  0  0  0  0  0  0
   26.8767  -19.7541  -17.8346 C   0  0  0  0  0  0  0  0  0  0  0  0
   27.7927  -19.1656  -18.8255 C   0  0  0  0  0  0  0  0  0  0  0  0
   28.7947  -18.5347  -18.4443 O   0  0  0  0  0  0  0  0  0  0  0  0
   26.8918  -21.1740  -15.7874 C   0  0  0  0  0  0  0  0  0  0  0  0
   26.4748  -22.3801  -15.8057 O   0  0  0  0  0  0  0  0  0  0  0  0
   27.5419  -19.3128  -20.1680 O   0  0  0  0  0  0  0  0  0  0  0  0
   23.3382  -20.9539   -7.5235 O   0  0  0  0  0  0  0  0  0  0  0  0
   24.0812  -20.8192   -8.7046 C   0  0  0  0  0  0  0  0  0  0  0  0
   25.3698  -21.2896   -8.7991 C   0  0  0  0  0  0  0  0  0  0  0  0
   26.0660  -21.1316   -9.9941 C   0  0  0  0  0  0  0  0  0  0  0  0
   25.5020  -20.5160  -11.0893 C   0  0  0  0  0  0  0  0  0  0  0  0
   26.2439  -20.3357  -12.3215 C   0  0  0  0  0  0  0  0  0  0  0  0
   25.7016  -20.9498  -13.5620 C   0  0  2  0  0  0  0  0  0  0  0  0
   26.5500  -20.4145  -14.6543 N   0  0  0  0  0  0  0  0  0  0  0  0
   24.3087  -20.6293  -13.8981 C   0  0  0  0  0  0  0  0  0  0  0  0
   24.0625  -19.5861  -14.5969 O   0  0  0  0  0  0  0  0  0  0  0  0
   24.2121  -20.0538  -10.9706 C   0  0  0  0  0  0  0  0  0  0  0  0
   23.5162  -20.2067   -9.7902 C   0  0  0  0  0  0  0  0  0  0  0  0
   19.3256  -20.4782  -15.0411 N   0  0  0  0  0  0  0  0  0  0  0  0
   20.3831  -20.8074  -15.9240 C   0  0  0  0  0  0  0  0  0  0  0  0
   20.1590  -20.7807  -17.1637 O   0  0  0  0  0  0  0  0  0  0  0  0
   21.7281  -21.1785  -15.4625 C   0  0  0  0  0  0  0  0  0  0  0  0
   21.8571  -21.0251  -13.9571 C   0  0  2  0  0  0  0  0  0  0  0  0
   23.1761  -21.3888  -13.5151 N   0  0  0  0  0  0  0  0  0  0  0  0
   20.7645  -21.7971  -13.3339 C   0  0  0  0  0  0  0  0  0  0  0  0
   20.9980  -22.9953  -13.0378 O   0  0  0  0  0  0  0  0  0  0  0  0
   19.5046  -21.3066  -13.0497 O   0  0  0  0  0  0  0  0  0  0  0  0
  2  1  1  6
  3  4  1  0
  3  2  1  0
  4  8  1  0
  5  4  2  0
  6  2  1  0
  7  6  2  0
  9 10  1  0
 10 20  2  0
 10 11  1  0
 11 12  2  0
 12 13  1  0
 13 14  1  0
 15 14  1  1
 15 16  1  0
 15 17  1  0
 16  6  1  0
 17 26  1  0
 18 17  2  0
 19 13  2  0
 20 19  1  0
 22 21  1  0
 22 24  1  0
 23 22  2  0
 25 24  1  6
 25 27  1  0
 26 25  1  0
 27 29  1  0
 28 27  2  0
M  END
$$$$
