DYN.pdb
     RDKit          3D

 29 29  0  0  1  0  0  0  0  0999 V2000
   28.1010  -22.4661  -17.6777 N   0  0  0  0  0  0  0  0  0  0  0  0
   27.4143  -21.2970  -17.2076 C   0  0  1  0  0  0  0  0  0  0  0  0
   26.6179  -20.5966  -18.2822 C   0  0  0  0  0  0  0  0  0  0  0  0
   27.5716  -19.9515  -19.1997 C   0  0  0  0  0  0  0  0  0  0  0  0
   28.4146  -19.1521  -18.7549 O   0  0  0  0  0  0  0  0  0  0  0  0
   26.5807  -21.6659  -16.0322 C   0  0  0  0  0  0  0  0  0  0  0  0
   25.9100  -22.7517  -16.0300 O   0  0  0  0  0  0  0  0  0  0  0  0
   27.5310  -20.2314  -20.5439 O   0  0  0  0  0  0  0  0  0  0  0  0
   23.4913  -20.7856   -7.6327 O   0  0  0  0  0  0  0  0  0  0  0  0
   24.1532  -20.7120   -8.8663 C   0  0  0  0  0  0  0  0  0  0  0  0
   23.5631  -20.1297   -9.9634 C   0  0  0  0  0  0  0  0  0  0  0  0
   24.2618  -20.0813  -11.1664 C   0  0  0  0  0  0  0  0  0  0  0  0
   25.5309  -20.6008  -11.2926 C   0  0  0  0  0  0  0  0  0  0  0  0
   26.2406  -20.5661  -12.5560 C   0  0  0  0  0  0  0  0  0  0  0  0
   25.6196  -21.2392  -13.7271 C   0  0  2  0  0  0  0  0  0  0  0  0
   26.4774  -20.8683  -14.8786 N   0  0  0  0  0  0  0  0  0  0  0  0
   24.2471  -20.8394  -14.0622 C   0  0  0  0  0  0  0  0  0  0  0  0
   24.0498  -19.7070  -14.6246 O   0  0  0  0  0  0  0  0  0  0  0  0
   26.1002  -21.1781  -10.1816 C   0  0  0  0  0  0  0  0  0  0  0  0
   25.4143  -21.2297   -8.9866 C   0  0  0  0  0  0  0  0  0  0  0  0
   19.3268  -20.0759  -15.0389 N   0  0  0  0  0  0  0  0  0  0  0  0
   20.0003  -21.0294  -15.8411 C   0  0  0  0  0  0  0  0  0  0  0  0
   19.4448  -21.4185  -16.9031 O   0  0  0  0  0  0  0  0  0  0  0  0
   21.3153  -21.5857  -15.4931 C   0  0  0  0  0  0  0  0  0  0  0  0
   21.7777  -21.0991  -14.1308 C   0  0  2  0  0  0  0  0  0  0  0  0
   23.0846  -21.6112  -13.8192 N   0  0  0  0  0  0  0  0  0  0  0  0
   20.7301  -21.4492  -13.1520 C   0  0  0  0  0  0  0  0  0  0  0  0
   20.8096  -22.5726  -12.5957 O   0  0  0  0  0  0  0  0  0  0  0  0
   19.6684  -20.6390  -12.7982 O   0  0  0  0  0  0  0  0  0  0  0  0
  2  1  1  6
  3  4  1  0
  3  2  1  0
  4  8  1  0
  5  4  2  0
  6  2  1  0
  7  6  2  0
  9 10  1  0
 10 20  2  0
 10 11  1  0
 11 12  2  0
 12 13  1  0
 13 14  1  0
 15 14  1  1
 15 16  1  0
 15 17  1  0
 16  6  1  0
 17 26  1  0
 18 17  2  0
 19 13  2  0
 20 19  1  0
 22 21  1  0
 22 24  1  0
 23 22  2  0
 25 24  1  6
 25 27  1  0
 26 25  1  0
 27 29  1  0
 28 27  2  0
M  END
$$$$
