DYN.pdb
     RDKit          3D

 29 29  0  0  1  0  0  0  0  0999 V2000
   21.0346  -12.2399  -17.4809 N   0  0  0  0  0  0  0  0  0  0  0  0
   19.7614  -11.8683  -16.9331 C   0  0  1  0  0  0  0  0  0  0  0  0
   19.1105  -12.9680  -16.1290 C   0  0  0  0  0  0  0  0  0  0  0  0
   18.3758  -13.8346  -17.0652 C   0  0  0  0  0  0  0  0  0  0  0  0
   17.4230  -14.5214  -16.6553 O   0  0  0  0  0  0  0  0  0  0  0  0
   19.9189  -10.6115  -16.1532 C   0  0  0  0  0  0  0  0  0  0  0  0
   20.7211  -10.5616  -15.1619 O   0  0  0  0  0  0  0  0  0  0  0  0
   18.7410  -13.8848  -18.3884 O   0  0  0  0  0  0  0  0  0  0  0  0
   23.0552   -2.8720  -14.9634 O   0  0  0  0  0  0  0  0  0  0  0  0
   22.2673   -3.9549  -15.3779 C   0  0  0  0  0  0  0  0  0  0  0  0
   22.8198   -5.1882  -15.6319 C   0  0  0  0  0  0  0  0  0  0  0  0
   21.9948   -6.2321  -16.0412 C   0  0  0  0  0  0  0  0  0  0  0  0
   20.6369   -6.0674  -16.2005 C   0  0  0  0  0  0  0  0  0  0  0  0
   19.7903   -7.1548  -16.6497 C   0  0  0  0  0  0  0  0  0  0  0  0
   19.3867   -8.1847  -15.6564 C   0  0  2  0  0  0  0  0  0  0  0  0
   19.2165   -9.4288  -16.4455 N   0  0  0  0  0  0  0  0  0  0  0  0
   18.1260   -7.9487  -14.9417 C   0  0  0  0  0  0  0  0  0  0  0  0
   17.0237   -8.0145  -15.5882 O   0  0  0  0  0  0  0  0  0  0  0  0
   20.1075   -4.8249  -15.9405 C   0  0  0  0  0  0  0  0  0  0  0  0
   20.9183   -3.7861  -15.5346 C   0  0  0  0  0  0  0  0  0  0  0  0
   16.3012  -10.0252  -12.4411 N   0  0  0  0  0  0  0  0  0  0  0  0
   16.5003   -9.1414  -11.3523 C   0  0  0  0  0  0  0  0  0  0  0  0
   16.5202   -9.6208  -10.1872 O   0  0  0  0  0  0  0  0  0  0  0  0
   16.6846   -7.6927  -11.5177 C   0  0  0  0  0  0  0  0  0  0  0  0
   16.7361   -7.3067  -12.9857 C   0  0  2  0  0  0  0  0  0  0  0  0
   18.0077   -7.6497  -13.5623 N   0  0  0  0  0  0  0  0  0  0  0  0
   16.3807   -5.8778  -13.0847 C   0  0  0  0  0  0  0  0  0  0  0  0
   15.1957   -5.5562  -12.8198 O   0  0  0  0  0  0  0  0  0  0  0  0
   17.2482   -4.8648  -13.4454 O   0  0  0  0  0  0  0  0  0  0  0  0
  2  1  1  1
  3  4  1  0
  3  2  1  0
  4  8  1  0
  5  4  2  0
  6  2  1  0
  7  6  2  0
  9 10  1  0
 10 20  2  0
 10 11  1  0
 11 12  2  0
 12 13  1  0
 13 14  1  0
 15 14  1  6
 15 16  1  0
 15 17  1  0
 16  6  1  0
 17 26  1  0
 18 17  2  0
 19 13  2  0
 20 19  1  0
 22 21  1  0
 22 24  1  0
 23 22  2  0
 25 24  1  1
 25 27  1  0
 26 25  1  0
 27 29  1  0
 28 27  2  0
M  END
$$$$
