DYN.pdb
     RDKit          3D

 29 29  0  0  1  0  0  0  0  0999 V2000
   21.9107   -7.6986  -14.9565 N   0  0  0  0  0  0  0  0  0  0  0  0
   21.1756   -7.2373  -13.8137 C   0  0  1  0  0  0  0  0  0  0  0  0
   21.1768   -5.7347  -13.6663 C   0  0  0  0  0  0  0  0  0  0  0  0
   22.5651   -5.3080  -13.4258 C   0  0  0  0  0  0  0  0  0  0  0  0
   23.0899   -4.4601  -14.1696 O   0  0  0  0  0  0  0  0  0  0  0  0
   19.8004   -7.8020  -13.8634 C   0  0  0  0  0  0  0  0  0  0  0  0
   19.2610   -8.0941  -14.9826 O   0  0  0  0  0  0  0  0  0  0  0  0
   23.2797   -5.8445  -12.3826 O   0  0  0  0  0  0  0  0  0  0  0  0
   12.7294  -12.3119  -10.7527 O   0  0  0  0  0  0  0  0  0  0  0  0
   13.9424  -11.6693  -11.0372 C   0  0  0  0  0  0  0  0  0  0  0  0
   14.6244  -11.9098  -12.2068 C   0  0  0  0  0  0  0  0  0  0  0  0
   15.8253  -11.2465  -12.4429 C   0  0  0  0  0  0  0  0  0  0  0  0
   16.3538  -10.3532  -11.5378 C   0  0  0  0  0  0  0  0  0  0  0  0
   17.6167   -9.6854  -11.7830 C   0  0  0  0  0  0  0  0  0  0  0  0
   17.6462   -8.5889  -12.7865 C   0  0  2  0  0  0  0  0  0  0  0  0
   19.0242   -8.0452  -12.7162 N   0  0  0  0  0  0  0  0  0  0  0  0
   16.7255   -7.4677  -12.5605 C   0  0  0  0  0  0  0  0  0  0  0  0
   16.9483   -6.6675  -11.5871 O   0  0  0  0  0  0  0  0  0  0  0  0
   15.6535  -10.1292  -10.3754 C   0  0  0  0  0  0  0  0  0  0  0  0
   14.4634  -10.7824  -10.1346 C   0  0  0  0  0  0  0  0  0  0  0  0
   13.4109   -2.9837  -14.8754 N   0  0  0  0  0  0  0  0  0  0  0  0
   13.7189   -3.9925  -13.9301 C   0  0  0  0  0  0  0  0  0  0  0  0
   13.2712   -3.8726  -12.7584 O   0  0  0  0  0  0  0  0  0  0  0  0
   14.5356   -5.1714  -14.2515 C   0  0  0  0  0  0  0  0  0  0  0  0
   14.7400   -6.0510  -13.0304 C   0  0  2  0  0  0  0  0  0  0  0  0
   15.5813   -7.1745  -13.3421 N   0  0  0  0  0  0  0  0  0  0  0  0
   13.4065   -6.4069  -12.5078 C   0  0  0  0  0  0  0  0  0  0  0  0
   12.7208   -5.4872  -11.9960 O   0  0  0  0  0  0  0  0  0  0  0  0
   12.8516   -7.6718  -12.5369 O   0  0  0  0  0  0  0  0  0  0  0  0
  2  1  1  6
  3  4  1  0
  3  2  1  0
  4  8  1  0
  5  4  2  0
  6  2  1  0
  7  6  2  0
  9 10  1  0
 10 20  2  0
 10 11  1  0
 11 12  2  0
 12 13  1  0
 13 14  1  0
 15 14  1  1
 15 16  1  0
 15 17  1  0
 16  6  1  0
 17 26  1  0
 18 17  2  0
 19 13  2  0
 20 19  1  0
 22 21  1  0
 22 24  1  0
 23 22  2  0
 25 24  1  6
 25 27  1  0
 26 25  1  0
 27 29  1  0
 28 27  2  0
M  END
$$$$
