DYN.pdb
     RDKit          3D

 29 29  0  0  1  0  0  0  0  0999 V2000
   21.3461  -20.9097  -12.3460 N   0  0  0  0  0  0  0  0  0  0  0  0
   22.2341  -21.3961  -13.3628 C   0  0  1  0  0  0  0  0  0  0  0  0
   21.6054  -21.4456  -14.7346 C   0  0  0  0  0  0  0  0  0  0  0  0
   20.5375  -22.4585  -14.7030 C   0  0  0  0  0  0  0  0  0  0  0  0
   19.3462  -22.1014  -14.6706 O   0  0  0  0  0  0  0  0  0  0  0  0
   23.4837  -20.5895  -13.3396 C   0  0  0  0  0  0  0  0  0  0  0  0
   23.4303  -19.3147  -13.3101 O   0  0  0  0  0  0  0  0  0  0  0  0
   20.8552  -23.7948  -14.7094 O   0  0  0  0  0  0  0  0  0  0  0  0
   25.2712  -20.1468   -6.8624 O   0  0  0  0  0  0  0  0  0  0  0  0
   25.6744  -20.3265   -8.1930 C   0  0  0  0  0  0  0  0  0  0  0  0
   26.3094  -19.3266   -8.8914 C   0  0  0  0  0  0  0  0  0  0  0  0
   26.6901  -19.5543  -10.2109 C   0  0  0  0  0  0  0  0  0  0  0  0
   26.4495  -20.7548  -10.8413 C   0  0  0  0  0  0  0  0  0  0  0  0
   26.8291  -20.9734  -12.2230 C   0  0  0  0  0  0  0  0  0  0  0  0
   26.0043  -20.3393  -13.2849 C   0  0  2  0  0  0  0  0  0  0  0  0
   24.7697  -21.1584  -13.3483 N   0  0  0  0  0  0  0  0  0  0  0  0
   26.5790  -20.3157  -14.6358 C   0  0  0  0  0  0  0  0  0  0  0  0
   26.4490  -21.3455  -15.3842 O   0  0  0  0  0  0  0  0  0  0  0  0
   25.8130  -21.7395  -10.1223 C   0  0  0  0  0  0  0  0  0  0  0  0
   25.4330  -21.5214   -8.8149 C   0  0  0  0  0  0  0  0  0  0  0  0
   25.6860  -19.0899  -19.4449 N   0  0  0  0  0  0  0  0  0  0  0  0
   25.5822  -18.1803  -18.3641 C   0  0  0  0  0  0  0  0  0  0  0  0
   25.3698  -16.9653  -18.6217 O   0  0  0  0  0  0  0  0  0  0  0  0
   25.7108  -18.5869  -16.9577 C   0  0  0  0  0  0  0  0  0  0  0  0
   27.1511  -18.9183  -16.6082 C   0  0  2  0  0  0  0  0  0  0  0  0
   27.2818  -19.2284  -15.2103 N   0  0  0  0  0  0  0  0  0  0  0  0
   27.9925  -17.7977  -17.0713 C   0  0  0  0  0  0  0  0  0  0  0  0
   28.4272  -17.8482  -18.2487 O   0  0  0  0  0  0  0  0  0  0  0  0
   28.3400  -16.6966  -16.3126 O   0  0  0  0  0  0  0  0  0  0  0  0
  2  1  1  1
  3  4  1  0
  3  2  1  0
  4  8  1  0
  5  4  2  0
  6  2  1  0
  7  6  2  0
  9 10  1  0
 10 20  2  0
 10 11  1  0
 11 12  2  0
 12 13  1  0
 13 14  1  0
 15 14  1  1
 15 16  1  0
 15 17  1  0
 16  6  1  0
 17 26  1  0
 18 17  2  0
 19 13  2  0
 20 19  1  0
 22 21  1  0
 22 24  1  0
 23 22  2  0
 25 24  1  1
 25 27  1  0
 26 25  1  0
 27 29  1  0
 28 27  2  0
M  END
$$$$
