DYN.pdb
     RDKit          3D

 29 29  0  0  1  0  0  0  0  0999 V2000
   27.7662  -16.4885  -19.5090 N   0  0  0  0  0  0  0  0  0  0  0  0
   27.9458  -15.1356  -19.9526 C   0  0  1  0  0  0  0  0  0  0  0  0
   27.9749  -14.9962  -21.4558 C   0  0  0  0  0  0  0  0  0  0  0  0
   28.1898  -13.5744  -21.7710 C   0  0  0  0  0  0  0  0  0  0  0  0
   29.1210  -12.9537  -21.2278 O   0  0  0  0  0  0  0  0  0  0  0  0
   26.9063  -14.2783  -19.3227 C   0  0  0  0  0  0  0  0  0  0  0  0
   25.7059  -14.6961  -19.2073 O   0  0  0  0  0  0  0  0  0  0  0  0
   27.3643  -12.9342  -22.6629 O   0  0  0  0  0  0  0  0  0  0  0  0
   23.7480   -7.3454  -14.5999 O   0  0  0  0  0  0  0  0  0  0  0  0
   24.5153   -8.3157  -15.2596 C   0  0  0  0  0  0  0  0  0  0  0  0
   25.3017   -7.9950  -16.3410 C   0  0  0  0  0  0  0  0  0  0  0  0
   26.0452   -8.9946  -16.9619 C   0  0  0  0  0  0  0  0  0  0  0  0
   26.0174  -10.3004  -16.5252 C   0  0  0  0  0  0  0  0  0  0  0  0
   26.7773  -11.3382  -17.1935 C   0  0  0  0  0  0  0  0  0  0  0  0
   26.1037  -12.1217  -18.2623 C   0  0  2  0  0  0  0  0  0  0  0  0
   27.1666  -12.9885  -18.8265 N   0  0  0  0  0  0  0  0  0  0  0  0
   25.5320  -11.3554  -19.3765 C   0  0  0  0  0  0  0  0  0  0  0  0
   26.3107  -10.9134  -20.2907 O   0  0  0  0  0  0  0  0  0  0  0  0
   25.2234  -10.5967  -15.4420 C   0  0  0  0  0  0  0  0  0  0  0  0
   24.4842   -9.6118  -14.8216 C   0  0  0  0  0  0  0  0  0  0  0  0
   23.1556  -13.0599  -22.8618 N   0  0  0  0  0  0  0  0  0  0  0  0
   23.5061  -11.7285  -22.5288 C   0  0  0  0  0  0  0  0  0  0  0  0
   24.4971  -11.2073  -23.1069 O   0  0  0  0  0  0  0  0  0  0  0  0
   22.7690  -10.9274  -21.5415 C   0  0  0  0  0  0  0  0  0  0  0  0
   23.7160  -10.1922  -20.6093 C   0  0  2  0  0  0  0  0  0  0  0  0
   24.1588  -11.0516  -19.5451 N   0  0  0  0  0  0  0  0  0  0  0  0
   23.0370   -8.9601  -20.1632 C   0  0  0  0  0  0  0  0  0  0  0  0
   22.5001   -8.9736  -19.0277 O   0  0  0  0  0  0  0  0  0  0  0  0
   22.9451   -7.7921  -20.8954 O   0  0  0  0  0  0  0  0  0  0  0  0
  2  1  1  6
  3  4  1  0
  3  2  1  0
  4  8  1  0
  5  4  2  0
  6  2  1  0
  7  6  2  0
  9 10  1  0
 10 20  2  0
 10 11  1  0
 11 12  2  0
 12 13  1  0
 13 14  1  0
 15 14  1  1
 15 16  1  0
 15 17  1  0
 16  6  1  0
 17 26  1  0
 18 17  2  0
 19 13  2  0
 20 19  1  0
 22 21  1  0
 22 24  1  0
 23 22  2  0
 25 24  1  6
 25 27  1  0
 26 25  1  0
 27 29  1  0
 28 27  2  0
M  END
$$$$
