DYN.pdb
     RDKit          3D

 29 29  0  0  1  0  0  0  0  0999 V2000
   14.5256  -17.9099    2.3472 N   0  0  0  0  0  0  0  0  0  0  0  0
   14.3376  -17.6010    3.7359 C   0  0  1  0  0  0  0  0  0  0  0  0
   13.2179  -18.3843    4.3782 C   0  0  0  0  0  0  0  0  0  0  0  0
   11.9497  -17.9136    3.7974 C   0  0  0  0  0  0  0  0  0  0  0  0
   11.9538  -16.9786    2.9769 O   0  0  0  0  0  0  0  0  0  0  0  0
   15.6319  -17.7720    4.4488 C   0  0  0  0  0  0  0  0  0  0  0  0
   16.5868  -18.4239    3.9084 O   0  0  0  0  0  0  0  0  0  0  0  0
   10.7643  -18.5052    4.1604 O   0  0  0  0  0  0  0  0  0  0  0  0
   19.3297  -12.8934    2.2842 O   0  0  0  0  0  0  0  0  0  0  0  0
   18.9304  -13.6925    3.3646 C   0  0  0  0  0  0  0  0  0  0  0  0
   19.1758  -15.0454    3.3854 C   0  0  0  0  0  0  0  0  0  0  0  0
   18.7593  -15.7957    4.4814 C   0  0  0  0  0  0  0  0  0  0  0  0
   18.1062  -15.2229    5.5500 C   0  0  0  0  0  0  0  0  0  0  0  0
   17.6559  -16.0172    6.6758 C   0  0  0  0  0  0  0  0  0  0  0  0
   17.1896  -17.4041    6.4128 C   0  0  2  0  0  0  0  0  0  0  0  0
   15.8844  -17.2434    5.7272 N   0  0  0  0  0  0  0  0  0  0  0  0
   16.9603  -18.2533    7.5884 C   0  0  0  0  0  0  0  0  0  0  0  0
   15.9085  -18.0677    8.2932 O   0  0  0  0  0  0  0  0  0  0  0  0
   17.8720  -13.8683    5.5063 C   0  0  0  0  0  0  0  0  0  0  0  0
   18.2817  -13.1185    4.4241 C   0  0  0  0  0  0  0  0  0  0  0  0
   16.1746  -22.0328    7.8121 N   0  0  0  0  0  0  0  0  0  0  0  0
   17.4241  -22.3474    8.4003 C   0  0  0  0  0  0  0  0  0  0  0  0
   17.8962  -23.5021    8.2229 O   0  0  0  0  0  0  0  0  0  0  0  0
   18.1949  -21.3910    9.2072 C   0  0  0  0  0  0  0  0  0  0  0  0
   17.5284  -20.0267    9.2324 C   0  0  2  0  0  0  0  0  0  0  0  0
   17.8150  -19.2930    8.0296 N   0  0  0  0  0  0  0  0  0  0  0  0
   17.9402  -19.3511   10.4783 C   0  0  0  0  0  0  0  0  0  0  0  0
   18.6296  -18.3067   10.3699 O   0  0  0  0  0  0  0  0  0  0  0  0
   17.6273  -19.7759   11.7552 O   0  0  0  0  0  0  0  0  0  0  0  0
  2  1  1  6
  3  4  1  0
  3  2  1  0
  4  8  1  0
  5  4  2  0
  6  2  1  0
  7  6  2  0
  9 10  1  0
 10 20  2  0
 10 11  1  0
 11 12  2  0
 12 13  1  0
 13 14  1  0
 15 14  1  1
 15 16  1  0
 15 17  1  0
 16  6  1  0
 17 26  1  0
 18 17  2  0
 19 13  2  0
 20 19  1  0
 22 21  1  0
 22 24  1  0
 23 22  2  0
 25 24  1  6
 25 27  1  0
 26 25  1  0
 27 29  1  0
 28 27  2  0
M  END
$$$$
