DYN.pdb
     RDKit          3D

 29 29  0  0  1  0  0  0  0  0999 V2000
   28.2163  -20.8249  -17.0975 N   0  0  0  0  0  0  0  0  0  0  0  0
   27.8003  -22.1886  -16.9348 C   0  0  1  0  0  0  0  0  0  0  0  0
   28.9421  -23.1748  -16.9928 C   0  0  0  0  0  0  0  0  0  0  0  0
   29.6863  -22.9276  -18.2388 C   0  0  0  0  0  0  0  0  0  0  0  0
   29.1038  -22.4321  -19.2199 O   0  0  0  0  0  0  0  0  0  0  0  0
   27.0111  -22.3067  -15.6794 C   0  0  0  0  0  0  0  0  0  0  0  0
   26.3041  -23.3453  -15.4551 O   0  0  0  0  0  0  0  0  0  0  0  0
   31.0208  -23.2432  -18.3182 O   0  0  0  0  0  0  0  0  0  0  0  0
   24.8927  -20.2333   -7.1925 O   0  0  0  0  0  0  0  0  0  0  0  0
   25.4207  -20.3857   -8.4823 C   0  0  0  0  0  0  0  0  0  0  0  0
   26.0677  -21.5385   -8.8608 C   0  0  0  0  0  0  0  0  0  0  0  0
   26.5745  -21.6412  -10.1532 C   0  0  0  0  0  0  0  0  0  0  0  0
   26.4476  -20.6200  -11.0683 C   0  0  0  0  0  0  0  0  0  0  0  0
   26.9995  -20.7281  -12.4043 C   0  0  0  0  0  0  0  0  0  0  0  0
   26.2088  -21.4548  -13.4323 C   0  0  2  0  0  0  0  0  0  0  0  0
   26.9905  -21.3130  -14.6846 N   0  0  0  0  0  0  0  0  0  0  0  0
   24.8590  -20.9447  -13.7035 C   0  0  0  0  0  0  0  0  0  0  0  0
   24.7260  -19.8757  -14.3941 O   0  0  0  0  0  0  0  0  0  0  0  0
   25.7967  -19.4770  -10.6664 C   0  0  0  0  0  0  0  0  0  0  0  0
   25.2920  -19.3679   -9.3879 C   0  0  0  0  0  0  0  0  0  0  0  0
   22.4796  -23.0746  -16.3191 N   0  0  0  0  0  0  0  0  0  0  0  0
   22.0571  -21.8508  -15.7447 C   0  0  0  0  0  0  0  0  0  0  0  0
   22.1636  -20.7988  -16.4301 O   0  0  0  0  0  0  0  0  0  0  0  0
   21.5009  -21.7505  -14.3881 C   0  0  0  0  0  0  0  0  0  0  0  0
   22.3845  -20.9018  -13.4905 C   0  0  2  0  0  0  0  0  0  0  0  0
   23.6520  -21.5419  -13.2645 N   0  0  0  0  0  0  0  0  0  0  0  0
   21.6193  -20.6018  -12.2648 C   0  0  0  0  0  0  0  0  0  0  0  0
   21.7934  -21.3550  -11.2747 O   0  0  0  0  0  0  0  0  0  0  0  0
   20.7264  -19.5576  -12.1191 O   0  0  0  0  0  0  0  0  0  0  0  0
  2  1  1  1
  3  4  1  0
  3  2  1  0
  4  8  1  0
  5  4  2  0
  6  2  1  0
  7  6  2  0
  9 10  1  0
 10 20  2  0
 10 11  1  0
 11 12  2  0
 12 13  1  0
 13 14  1  0
 15 14  1  1
 15 16  1  0
 15 17  1  0
 16  6  1  0
 17 26  1  0
 18 17  2  0
 19 13  2  0
 20 19  1  0
 22 21  1  0
 22 24  1  0
 23 22  2  0
 25 24  1  6
 25 27  1  0
 26 25  1  0
 27 29  1  0
 28 27  2  0
M  END
$$$$
