DYN.pdb
     RDKit          3D

 29 29  0  0  1  0  0  0  0  0999 V2000
   22.8125  -35.8594   -5.2810 N   0  0  0  0  0  0  0  0  0  0  0  0
   24.0023  -36.4922   -5.7740 C   0  0  1  0  0  0  0  0  0  0  0  0
   24.1423  -36.4190   -7.2756 C   0  0  0  0  0  0  0  0  0  0  0  0
   23.2946  -37.4725   -7.8577 C   0  0  0  0  0  0  0  0  0  0  0  0
   22.5615  -38.1552   -7.1202 O   0  0  0  0  0  0  0  0  0  0  0  0
   25.1807  -35.9248   -5.0655 C   0  0  0  0  0  0  0  0  0  0  0  0
   26.3392  -36.4360   -5.2247 O   0  0  0  0  0  0  0  0  0  0  0  0
   23.3126  -37.7012   -9.2120 O   0  0  0  0  0  0  0  0  0  0  0  0
   26.4834  -31.8452   -9.6432 O   0  0  0  0  0  0  0  0  0  0  0  0
   26.4027  -32.0725   -8.2622 C   0  0  0  0  0  0  0  0  0  0  0  0
   25.2802  -31.7337   -7.5439 C   0  0  0  0  0  0  0  0  0  0  0  0
   25.2490  -31.9797   -6.1741 C   0  0  0  0  0  0  0  0  0  0  0  0
   26.3118  -32.5542   -5.5132 C   0  0  0  0  0  0  0  0  0  0  0  0
   26.2780  -32.7847   -4.0825 C   0  0  0  0  0  0  0  0  0  0  0  0
   26.3026  -34.1902   -3.5986 C   0  0  2  0  0  0  0  0  0  0  0  0
   25.1016  -34.8205   -4.1983 N   0  0  0  0  0  0  0  0  0  0  0  0
   26.2153  -34.3856   -2.1460 C   0  0  0  0  0  0  0  0  0  0  0  0
   25.0928  -34.1994   -1.5605 O   0  0  0  0  0  0  0  0  0  0  0  0
   27.4233  -32.8843   -6.2529 C   0  0  0  0  0  0  0  0  0  0  0  0
   27.4616  -32.6437   -7.6101 C   0  0  0  0  0  0  0  0  0  0  0  0
   24.8407  -36.2130    2.3222 N   0  0  0  0  0  0  0  0  0  0  0  0
   25.8663  -36.7672    1.5177 C   0  0  0  0  0  0  0  0  0  0  0  0
   26.6069  -37.6552    2.0186 O   0  0  0  0  0  0  0  0  0  0  0  0
   26.1071  -36.3555    0.1276 C   0  0  0  0  0  0  0  0  0  0  0  0
   27.0500  -35.1670    0.0592 C   0  0  2  0  0  0  0  0  0  0  0  0
   27.2854  -34.7763   -1.3043 N   0  0  0  0  0  0  0  0  0  0  0  0
   28.2665  -35.5174    0.8178 C   0  0  0  0  0  0  0  0  0  0  0  0
   29.0618  -36.3347    0.2911 O   0  0  0  0  0  0  0  0  0  0  0  0
   28.6007  -35.0176    2.0616 O   0  0  0  0  0  0  0  0  0  0  0  0
  2  1  1  1
  3  4  1  0
  3  2  1  0
  4  8  1  0
  5  4  2  0
  6  2  1  0
  7  6  2  0
  9 10  1  0
 10 20  2  0
 10 11  1  0
 11 12  2  0
 12 13  1  0
 13 14  1  0
 15 14  1  1
 15 16  1  0
 15 17  1  0
 16  6  1  0
 17 26  1  0
 18 17  2  0
 19 13  2  0
 20 19  1  0
 22 21  1  0
 22 24  1  0
 23 22  2  0
 25 24  1  6
 25 27  1  0
 26 25  1  0
 27 29  1  0
 28 27  2  0
M  END
$$$$
