DYN.pdb
     RDKit          3D

 29 29  0  0  1  0  0  0  0  0999 V2000
   20.7176  -11.9741  -19.6147 N   0  0  0  0  0  0  0  0  0  0  0  0
   21.4588  -10.7830  -19.3130 C   0  0  1  0  0  0  0  0  0  0  0  0
   21.5090   -9.8015  -20.4592 C   0  0  0  0  0  0  0  0  0  0  0  0
   22.2543  -10.4340  -21.5600 C   0  0  0  0  0  0  0  0  0  0  0  0
   23.2892  -11.0798  -21.3162 O   0  0  0  0  0  0  0  0  0  0  0  0
   20.9134  -10.1762  -18.0692 C   0  0  0  0  0  0  0  0  0  0  0  0
   19.6604   -9.9667  -17.9472 O   0  0  0  0  0  0  0  0  0  0  0  0
   21.8083  -10.3117  -22.8534 O   0  0  0  0  0  0  0  0  0  0  0  0
   17.9030  -14.8286  -14.9404 O   0  0  0  0  0  0  0  0  0  0  0  0
   18.7456  -13.7107  -14.8644 C   0  0  0  0  0  0  0  0  0  0  0  0
   18.3748  -12.5782  -14.1783 C   0  0  0  0  0  0  0  0  0  0  0  0
   19.2470  -11.4944  -14.1322 C   0  0  0  0  0  0  0  0  0  0  0  0
   20.4749  -11.5210  -14.7551 C   0  0  0  0  0  0  0  0  0  0  0  0
   21.3659  -10.3782  -14.7205 C   0  0  0  0  0  0  0  0  0  0  0  0
   21.1462   -9.2885  -15.7076 C   0  0  2  0  0  0  0  0  0  0  0  0
   21.7160   -9.8033  -16.9764 N   0  0  0  0  0  0  0  0  0  0  0  0
   21.8031   -8.0059  -15.4262 C   0  0  0  0  0  0  0  0  0  0  0  0
   22.8866   -7.7146  -16.0415 O   0  0  0  0  0  0  0  0  0  0  0  0
   20.8235  -12.6645  -15.4351 C   0  0  0  0  0  0  0  0  0  0  0  0
   19.9648  -13.7422  -15.4851 C   0  0  0  0  0  0  0  0  0  0  0  0
   22.8835   -3.0839  -14.6414 N   0  0  0  0  0  0  0  0  0  0  0  0
   22.4241   -3.7065  -15.8278 C   0  0  0  0  0  0  0  0  0  0  0  0
   22.4651   -3.0510  -16.9032 O   0  0  0  0  0  0  0  0  0  0  0  0
   21.9023   -5.0800  -15.8633 C   0  0  0  0  0  0  0  0  0  0  0  0
   21.9143   -5.7110  -14.4820 C   0  0  2  0  0  0  0  0  0  0  0  0
   21.3372   -7.0275  -14.5140 N   0  0  0  0  0  0  0  0  0  0  0  0
   21.2529   -4.7715  -13.5557 C   0  0  0  0  0  0  0  0  0  0  0  0
   21.8757   -3.7241  -13.2509 O   0  0  0  0  0  0  0  0  0  0  0  0
   20.0022   -4.9521  -12.9971 O   0  0  0  0  0  0  0  0  0  0  0  0
  2  1  1  6
  3  4  1  0
  3  2  1  0
  4  8  1  0
  5  4  2  0
  6  2  1  0
  7  6  2  0
  9 10  1  0
 10 20  2  0
 10 11  1  0
 11 12  2  0
 12 13  1  0
 13 14  1  0
 15 14  1  1
 15 16  1  0
 15 17  1  0
 16  6  1  0
 17 26  1  0
 18 17  2  0
 19 13  2  0
 20 19  1  0
 22 21  1  0
 22 24  1  0
 23 22  2  0
 25 24  1  6
 25 27  1  0
 26 25  1  0
 27 29  1  0
 28 27  2  0
M  END
$$$$
