DDT.pdb
     RDKit          3D

 24 23  0  0  1  0  0  0  0  0999 V2000
    9.3673  -19.2750   18.8287 N   0  0  0  0  0  0  0  0  0  0  0  0
    9.1363  -17.9270   19.2416 C   0  0  1  0  0  0  0  0  0  0  0  0
    7.8197  -17.4453   18.6783 C   0  0  0  0  0  0  0  0  0  0  0  0
    7.9697  -17.3484   17.2135 C   0  0  0  0  0  0  0  0  0  0  0  0
    9.0219  -17.7125   16.6502 O   0  0  0  0  0  0  0  0  0  0  0  0
    9.2493  -17.7699   20.6943 C   0  0  0  0  0  0  0  0  0  0  0  0
    8.2401  -18.0176   21.4047 O   0  0  0  0  0  0  0  0  0  0  0  0
    6.9346  -16.8491   16.4544 O   0  0  0  0  0  0  0  0  0  0  0  0
   10.4207  -17.3560   21.3671 N   0  0  0  0  0  0  0  0  0  0  0  0
   10.5258  -17.1800   22.7884 C   0  0  1  0  0  0  0  0  0  0  0  0
   11.9117  -17.3489   23.3022 C   0  0  0  0  0  0  0  0  0  0  0  0
   12.4618  -18.6958   23.1385 C   0  0  0  0  0  0  0  0  0  0  0  0
   11.7882  -19.7491   23.2605 O   0  0  0  0  0  0  0  0  0  0  0  0
    9.9462  -15.9046   23.2565 C   0  0  0  0  0  0  0  0  0  0  0  0
   10.1856  -14.8700   22.5837 O   0  0  0  0  0  0  0  0  0  0  0  0
   13.8055  -18.8436   22.8298 O   0  0  0  0  0  0  0  0  0  0  0  0
    6.6747  -12.9241   24.7038 C   0  0  0  0  0  0  0  0  0  0  0  0
    7.2271  -14.2613   24.2722 C   0  0  1  0  0  0  0  0  0  0  0  0
    7.2246  -14.2680   22.8790 O   0  0  0  0  0  0  0  0  0  0  0  0
    8.6400  -14.4687   24.7835 C   0  0  2  0  0  0  0  0  0  0  0  0
    9.1382  -15.7701   24.4138 N   0  0  0  0  0  0  0  0  0  0  0  0
    8.7004  -14.2831   26.2658 C   0  0  0  0  0  0  0  0  0  0  0  0
    9.0238  -15.2277   27.0267 O   0  0  0  0  0  0  0  0  0  0  0  0
    8.4061  -13.0719   26.8758 O   0  0  0  0  0  0  0  0  0  0  0  0
  2  1  1  1
  2  3  1  0
  3  4  1  0
  4  5  2  0
  4  8  1  0
  6  2  1  0
  6  7  2  0
  9  6  1  0
 10  9  1  0
 10 11  1  6
 12 11  1  0
 12 16  1  0
 13 12  2  0
 14 10  1  0
 14 21  1  0
 15 14  2  0
 18 17  1  6
 18 19  1  0
 18 20  1  0
 20 21  1  1
 20 22  1  0
 22 23  2  0
 22 24  1  0
M  END
$$$$
