DDT.pdb
     RDKit          3D

 24 23  0  0  1  0  0  0  0  0999 V2000
    9.0913  -17.6720   19.3268 N   0  0  0  0  0  0  0  0  0  0  0  0
    8.7754  -16.3928   19.8789 C   0  0  1  0  0  0  0  0  0  0  0  0
    7.6070  -15.7948   19.1307 C   0  0  0  0  0  0  0  0  0  0  0  0
    8.0250  -15.6055   17.7282 C   0  0  0  0  0  0  0  0  0  0  0  0
    7.2195  -15.1960   16.8678 O   0  0  0  0  0  0  0  0  0  0  0  0
    8.5780  -16.4538   21.3299 C   0  0  0  0  0  0  0  0  0  0  0  0
    7.4129  -16.3070   21.7833 O   0  0  0  0  0  0  0  0  0  0  0  0
    9.3228  -15.8843   17.3607 O   0  0  0  0  0  0  0  0  0  0  0  0
    9.6098  -16.6678   22.2710 N   0  0  0  0  0  0  0  0  0  0  0  0
    9.4058  -16.8197   23.6844 C   0  0  1  0  0  0  0  0  0  0  0  0
   10.4438  -17.6578   24.3427 C   0  0  0  0  0  0  0  0  0  0  0  0
   10.2326  -17.8749   25.7751 C   0  0  0  0  0  0  0  0  0  0  0  0
    9.1353  -17.6925   26.3588 O   0  0  0  0  0  0  0  0  0  0  0  0
    9.2519  -15.5297   24.3871 C   0  0  0  0  0  0  0  0  0  0  0  0
   10.1837  -14.6920   24.2858 O   0  0  0  0  0  0  0  0  0  0  0  0
   11.2932  -18.3083   26.5561 O   0  0  0  0  0  0  0  0  0  0  0  0
    6.6047  -11.8944   26.2603 C   0  0  0  0  0  0  0  0  0  0  0  0
    6.6708  -13.2762   25.6558 C   0  0  1  0  0  0  0  0  0  0  0  0
    6.3262  -13.1455   24.3123 O   0  0  0  0  0  0  0  0  0  0  0  0
    8.0630  -13.8668   25.7731 C   0  0  2  0  0  0  0  0  0  0  0  0
    8.1232  -15.1741   25.1682 N   0  0  0  0  0  0  0  0  0  0  0  0
    8.4945  -13.9279   27.2033 C   0  0  0  0  0  0  0  0  0  0  0  0
    8.7385  -15.0249   27.7626 O   0  0  0  0  0  0  0  0  0  0  0  0
    8.6476  -12.7899   27.9827 O   0  0  0  0  0  0  0  0  0  0  0  0
  2  1  1  6
  2  3  1  0
  3  4  1  0
  4  5  2  0
  4  8  1  0
  6  2  1  0
  6  7  2  0
  9  6  1  0
 10  9  1  0
 10 11  1  1
 12 11  1  0
 12 16  1  0
 13 12  2  0
 14 10  1  0
 14 21  1  0
 15 14  2  0
 18 17  1  6
 18 19  1  0
 18 20  1  0
 20 21  1  1
 20 22  1  0
 22 23  2  0
 22 24  1  0
M  END
$$$$
