DDT.pdb
     RDKit          3D

 24 23  0  0  1  0  0  0  0  0999 V2000
    7.7377  -16.0369   19.6732 N   0  0  0  0  0  0  0  0  0  0  0  0
    7.2424  -16.8826   20.7126 C   0  0  1  0  0  0  0  0  0  0  0  0
    7.2874  -18.3222   20.2565 C   0  0  0  0  0  0  0  0  0  0  0  0
    6.5041  -18.4200   19.0098 C   0  0  0  0  0  0  0  0  0  0  0  0
    6.9940  -18.0766   17.9148 O   0  0  0  0  0  0  0  0  0  0  0  0
    7.9265  -16.6457   21.9869 C   0  0  0  0  0  0  0  0  0  0  0  0
    7.2568  -16.7203   23.0502 O   0  0  0  0  0  0  0  0  0  0  0  0
    5.2126  -18.8971   19.0525 O   0  0  0  0  0  0  0  0  0  0  0  0
    9.2990  -16.3360   22.1144 N   0  0  0  0  0  0  0  0  0  0  0  0
    9.9591  -16.0527   23.3579 C   0  0  1  0  0  0  0  0  0  0  0  0
   11.4374  -15.9463   23.2294 C   0  0  0  0  0  0  0  0  0  0  0  0
   12.1372  -17.2308   23.1680 C   0  0  0  0  0  0  0  0  0  0  0  0
   13.1341  -17.4531   22.4367 O   0  0  0  0  0  0  0  0  0  0  0  0
    9.4074  -14.8687   24.0475 C   0  0  0  0  0  0  0  0  0  0  0  0
    9.1507  -13.8526   23.3533 O   0  0  0  0  0  0  0  0  0  0  0  0
   11.6914  -18.2812   23.9558 O   0  0  0  0  0  0  0  0  0  0  0  0
    6.3845  -12.3019   26.0418 C   0  0  0  0  0  0  0  0  0  0  0  0
    7.0850  -13.5023   25.4520 C   0  0  1  0  0  0  0  0  0  0  0  0
    7.1186  -13.3119   24.0723 O   0  0  0  0  0  0  0  0  0  0  0  0
    8.4984  -13.6372   25.9857 C   0  0  2  0  0  0  0  0  0  0  0  0
    9.1485  -14.8025   25.4400 N   0  0  0  0  0  0  0  0  0  0  0  0
    8.4988  -13.6850   27.4800 C   0  0  0  0  0  0  0  0  0  0  0  0
    8.9342  -14.6871   28.0983 O   0  0  0  0  0  0  0  0  0  0  0  0
    8.0242  -12.6380   28.2574 O   0  0  0  0  0  0  0  0  0  0  0  0
  2  1  1  6
  2  3  1  0
  3  4  1  0
  4  5  2  0
  4  8  1  0
  6  2  1  0
  6  7  2  0
  9  6  1  0
 10  9  1  0
 10 11  1  6
 12 11  1  0
 12 16  1  0
 13 12  2  0
 14 10  1  0
 14 21  1  0
 15 14  2  0
 18 17  1  1
 18 19  1  0
 18 20  1  0
 20 21  1  6
 20 22  1  0
 22 23  2  0
 22 24  1  0
M  END
$$$$
