DDT.pdb
     RDKit          3D

 24 23  0  0  1  0  0  0  0  0999 V2000
    9.7350  -18.0796   20.6738 N   0  0  0  0  0  0  0  0  0  0  0  0
   10.8947  -17.9475   21.4976 C   0  0  1  0  0  0  0  0  0  0  0  0
   11.7287  -16.7849   21.0123 C   0  0  0  0  0  0  0  0  0  0  0  0
   12.4058  -17.2086   19.7714 C   0  0  0  0  0  0  0  0  0  0  0  0
   12.8290  -18.3747   19.6368 O   0  0  0  0  0  0  0  0  0  0  0  0
   10.5528  -17.8747   22.9209 C   0  0  0  0  0  0  0  0  0  0  0  0
    9.4962  -17.2771   23.2541 O   0  0  0  0  0  0  0  0  0  0  0  0
   12.5745  -16.3056   18.7451 O   0  0  0  0  0  0  0  0  0  0  0  0
   11.3293  -18.4319   23.9614 N   0  0  0  0  0  0  0  0  0  0  0  0
   10.9692  -18.4061   25.3513 C   0  0  1  0  0  0  0  0  0  0  0  0
   11.5279  -19.5467   26.1259 C   0  0  0  0  0  0  0  0  0  0  0  0
   11.1212  -19.5853   27.5318 C   0  0  0  0  0  0  0  0  0  0  0  0
   10.3406  -18.7549   28.0601 O   0  0  0  0  0  0  0  0  0  0  0  0
   11.2895  -17.1218   26.0067 C   0  0  0  0  0  0  0  0  0  0  0  0
   11.9991  -16.3007   25.3722 O   0  0  0  0  0  0  0  0  0  0  0  0
   11.6144  -20.5900   28.3503 O   0  0  0  0  0  0  0  0  0  0  0  0
    8.4600  -15.1248   26.8388 C   0  0  0  0  0  0  0  0  0  0  0  0
    9.8689  -14.5878   26.7616 C   0  0  1  0  0  0  0  0  0  0  0  0
    9.8151  -13.2551   27.1642 O   0  0  0  0  0  0  0  0  0  0  0  0
   10.8072  -15.3602   27.6691 C   0  0  2  0  0  0  0  0  0  0  0  0
   10.8498  -16.7541   27.3036 N   0  0  0  0  0  0  0  0  0  0  0  0
   10.4086  -15.2032   29.1016 C   0  0  0  0  0  0  0  0  0  0  0  0
    9.9120  -16.1587   29.7467 O   0  0  0  0  0  0  0  0  0  0  0  0
   10.5632  -14.0079   29.7894 O   0  0  0  0  0  0  0  0  0  0  0  0
  2  1  1  6
  2  3  1  0
  3  4  1  0
  4  5  2  0
  4  8  1  0
  6  2  1  0
  6  7  2  0
  9  6  1  0
 10  9  1  0
 10 11  1  1
 12 11  1  0
 12 16  1  0
 13 12  2  0
 14 10  1  0
 14 21  1  0
 15 14  2  0
 18 17  1  1
 18 19  1  0
 18 20  1  0
 20 21  1  6
 20 22  1  0
 22 23  2  0
 22 24  1  0
M  END
$$$$
