PCP.pdb
     RDKit          3D

 21 22  0  0  1  0  0  0  0  0999 V2000
   22.3021  -16.7691  -17.5818 N   0  0  0  0  0  0  0  0  0  0  0  0
   20.8854  -16.6333  -17.3428 C   0  0  0  0  0  0  0  0  0  0  0  0
   20.8154  -15.8065  -16.0540 C   0  0  0  0  0  0  0  0  0  0  0  0
   21.9404  -16.4761  -15.2531 C   0  0  0  0  0  0  0  0  0  0  0  0
   22.9762  -16.6732  -16.3223 C   0  0  1  0  0  0  0  0  0  0  0  0
   23.8083  -17.8847  -16.1051 C   0  0  0  0  0  0  0  0  0  0  0  0
   23.5344  -18.9775  -16.6851 O   0  0  0  0  0  0  0  0  0  0  0  0
   24.9307  -17.8783  -15.2530 N   0  0  0  0  0  0  0  0  0  0  0  0
   25.7413  -19.0696  -14.9675 C   0  0  1  0  0  0  0  0  0  0  0  0
   27.1952  -18.5725  -14.8074 C   0  0  0  0  0  0  0  0  0  0  0  0
   28.3136  -19.7852  -14.1349 S   0  0  0  0  0  0  0  0  0  0  0  0
   25.3314  -19.5146  -13.5834 C   0  0  0  0  0  0  0  0  0  0  0  0
   25.4218  -18.5997  -12.7243 O   0  0  0  0  0  0  0  0  0  0  0  0
   24.8969  -20.8079  -13.3041 N   0  0  0  0  0  0  0  0  0  0  0  0
   24.2788  -21.7260  -14.2885 C   0  0  0  0  0  0  0  0  0  0  0  0
   24.9685  -23.0206  -13.9861 C   0  0  0  0  0  0  0  0  0  0  0  0
   25.6916  -22.8242  -12.6700 C   0  0  0  0  0  0  0  0  0  0  0  0
   24.9088  -21.5809  -12.1252 C   0  0  1  0  0  0  0  0  0  0  0  0
   25.5163  -21.1171  -10.9106 C   0  0  0  0  0  0  0  0  0  0  0  0
   26.9121  -20.8869  -10.9040 O   0  0  0  0  0  0  0  0  0  0  0  0
   24.9401  -20.8948   -9.8553 O   0  0  0  0  0  0  0  0  0  0  0  0
  2  1  1  0
  3  2  1  0
  4  3  1  0
  4  5  1  0
  5  1  1  0
  6  8  1  0
  5  6  1  1
  7  6  2  0
  9  8  1  0
  9 12  1  0
  9 10  1  1
 11 10  1  0
 12 13  2  0
 14 12  1  0
 14 15  1  0
 16 15  1  0
 17 16  1  0
 18 19  1  1
 18 17  1  0
 18 14  1  0
 19 20  1  0
 21 19  2  0
M  END
$$$$
