PCP.pdb
     RDKit          3D

 21 22  0  0  1  0  0  0  0  0999 V2000
   24.8657  -21.3653  -10.8510 N   0  0  0  0  0  0  0  0  0  0  0  0
   24.0584  -20.7010  -11.8458 C   0  0  0  0  0  0  0  0  0  0  0  0
   24.7950  -20.9900  -13.1586 C   0  0  0  0  0  0  0  0  0  0  0  0
   26.2437  -20.7842  -12.6956 C   0  0  0  0  0  0  0  0  0  0  0  0
   26.2084  -21.4355  -11.3430 C   0  0  1  0  0  0  0  0  0  0  0  0
   27.1331  -20.7987  -10.3701 C   0  0  0  0  0  0  0  0  0  0  0  0
   28.3271  -20.5202  -10.6901 O   0  0  0  0  0  0  0  0  0  0  0  0
   26.7325  -20.4766   -9.0579 N   0  0  0  0  0  0  0  0  0  0  0  0
   27.5600  -19.7040   -8.1220 C   0  0  1  0  0  0  0  0  0  0  0  0
   26.7523  -18.4314   -7.7831 C   0  0  0  0  0  0  0  0  0  0  0  0
   27.4921  -17.4079   -6.5265 S   0  0  0  0  0  0  0  0  0  0  0  0
   27.5745  -20.5040   -6.8408 C   0  0  0  0  0  0  0  0  0  0  0  0
   26.4434  -20.9605   -6.5317 O   0  0  0  0  0  0  0  0  0  0  0  0
   28.7305  -20.7089   -6.0918 N   0  0  0  0  0  0  0  0  0  0  0  0
   30.0959  -20.8244   -6.6542 C   0  0  0  0  0  0  0  0  0  0  0  0
   30.8962  -19.9806   -5.7104 C   0  0  0  0  0  0  0  0  0  0  0  0
   30.0016  -19.7011   -4.5209 C   0  0  0  0  0  0  0  0  0  0  0  0
   28.9533  -20.8508   -4.7070 C   0  0  1  0  0  0  0  0  0  0  0  0
   27.8998  -20.7098   -3.7427 C   0  0  0  0  0  0  0  0  0  0  0  0
   28.0017  -21.4278   -2.5280 O   0  0  0  0  0  0  0  0  0  0  0  0
   26.8993  -20.0175   -3.8638 O   0  0  0  0  0  0  0  0  0  0  0  0
  2  1  1  0
  3  2  1  0
  4  3  1  0
  4  5  1  0
  5  1  1  0
  6  8  1  0
  5  6  1  1
  7  6  2  0
  9  8  1  0
  9 12  1  0
  9 10  1  1
 11 10  1  0
 12 13  2  0
 14 12  1  0
 14 15  1  0
 16 15  1  0
 17 16  1  0
 18 19  1  1
 18 17  1  0
 18 14  1  0
 19 20  1  0
 21 19  2  0
M  END
$$$$
