PCP.pdb
     RDKit          3D

 21 22  0  0  1  0  0  0  0  0999 V2000
   23.7334  -18.6778  -18.8295 N   0  0  0  0  0  0  0  0  0  0  0  0
   23.0735  -19.7022  -19.6028 C   0  0  0  0  0  0  0  0  0  0  0  0
   21.8676  -20.0856  -18.7377 C   0  0  0  0  0  0  0  0  0  0  0  0
   22.5329  -20.1003  -17.3548 C   0  0  0  0  0  0  0  0  0  0  0  0
   23.4188  -18.8915  -17.4492 C   0  0  1  0  0  0  0  0  0  0  0  0
   24.6728  -19.0308  -16.6646 C   0  0  0  0  0  0  0  0  0  0  0  0
   25.7544  -19.3871  -17.2202 O   0  0  0  0  0  0  0  0  0  0  0  0
   24.7205  -18.7763  -15.2794 N   0  0  0  0  0  0  0  0  0  0  0  0
   25.9503  -18.8571  -14.4800 C   0  0  1  0  0  0  0  0  0  0  0  0
   26.2705  -17.4125  -14.0359 C   0  0  0  0  0  0  0  0  0  0  0  0
   27.1832  -17.3012  -12.5100 S   0  0  0  0  0  0  0  0  0  0  0  0
   25.5592  -19.5734  -13.2090 C   0  0  0  0  0  0  0  0  0  0  0  0
   24.4625  -19.1766  -12.7367 O   0  0  0  0  0  0  0  0  0  0  0  0
   26.3419  -20.5712  -12.6334 N   0  0  0  0  0  0  0  0  0  0  0  0
   27.4398  -21.2899  -13.3206 C   0  0  0  0  0  0  0  0  0  0  0  0
   28.5076  -21.3090  -12.2704 C   0  0  0  0  0  0  0  0  0  0  0  0
   27.8452  -20.8816  -10.9773 C   0  0  0  0  0  0  0  0  0  0  0  0
   26.3474  -21.1529  -11.3493 C   0  0  1  0  0  0  0  0  0  0  0  0
   25.4922  -20.6895  -10.2941 C   0  0  0  0  0  0  0  0  0  0  0  0
   24.9333  -21.6462   -9.4145 O   0  0  0  0  0  0  0  0  0  0  0  0
   25.1885  -19.5264  -10.0703 O   0  0  0  0  0  0  0  0  0  0  0  0
  2  1  1  0
  3  2  1  0
  4  3  1  0
  4  5  1  0
  5  1  1  0
  6  8  1  0
  5  6  1  1
  7  6  2  0
  9  8  1  0
  9 12  1  0
  9 10  1  1
 11 10  1  0
 12 13  2  0
 14 12  1  0
 14 15  1  0
 16 15  1  0
 17 16  1  0
 18 19  1  1
 18 17  1  0
 18 14  1  0
 19 20  1  0
 21 19  2  0
M  END
$$$$
