PCP.pdb
     RDKit          3D

 21 22  0  0  1  0  0  0  0  0999 V2000
   27.4367  -21.1050  -12.2237 N   0  0  0  0  0  0  0  0  0  0  0  0
   26.8499  -21.9263  -13.2552 C   0  0  0  0  0  0  0  0  0  0  0  0
   26.1545  -20.9123  -14.1705 C   0  0  0  0  0  0  0  0  0  0  0  0
   25.5416  -19.9839  -13.1133 C   0  0  0  0  0  0  0  0  0  0  0  0
   26.6609  -19.9065  -12.1152 C   0  0  1  0  0  0  0  0  0  0  0  0
   26.1804  -19.7446  -10.7187 C   0  0  0  0  0  0  0  0  0  0  0  0
   25.3430  -18.8429  -10.4167 O   0  0  0  0  0  0  0  0  0  0  0  0
   26.6274  -20.5767   -9.6728 N   0  0  0  0  0  0  0  0  0  0  0  0
   26.2358  -20.3981   -8.2683 C   0  0  1  0  0  0  0  0  0  0  0  0
   25.2289  -21.5273   -7.9555 C   0  0  0  0  0  0  0  0  0  0  0  0
   23.9503  -21.0693   -6.8026 S   0  0  0  0  0  0  0  0  0  0  0  0
   27.4644  -20.7422   -7.4598 C   0  0  0  0  0  0  0  0  0  0  0  0
   27.7468  -21.9680   -7.4893 O   0  0  0  0  0  0  0  0  0  0  0  0
   28.2003  -19.7880   -6.7617 N   0  0  0  0  0  0  0  0  0  0  0  0
   28.3931  -18.3839   -7.1925 C   0  0  0  0  0  0  0  0  0  0  0  0
   28.1879  -17.6324   -5.9133 C   0  0  0  0  0  0  0  0  0  0  0  0
   28.1993  -18.6631   -4.8038 C   0  0  0  0  0  0  0  0  0  0  0  0
   28.9165  -19.8404   -5.5486 C   0  0  1  0  0  0  0  0  0  0  0  0
   28.9279  -21.0086   -4.7151 C   0  0  0  0  0  0  0  0  0  0  0  0
   29.8672  -21.0700   -3.6590 O   0  0  0  0  0  0  0  0  0  0  0  0
   28.1933  -21.9799   -4.8247 O   0  0  0  0  0  0  0  0  0  0  0  0
  2  1  1  0
  3  2  1  0
  4  3  1  0
  4  5  1  0
  5  1  1  0
  6  8  1  0
  5  6  1  1
  7  6  2  0
  9  8  1  0
  9 12  1  0
  9 10  1  1
 11 10  1  0
 12 13  2  0
 14 12  1  0
 14 15  1  0
 16 15  1  0
 17 16  1  0
 18 19  1  1
 18 17  1  0
 18 14  1  0
 19 20  1  0
 21 19  2  0
M  END
$$$$
