PCP.pdb
     RDKit          3D

 21 22  0  0  1  0  0  0  0  0999 V2000
   27.2723  -21.4416  -12.5694 N   0  0  0  0  0  0  0  0  0  0  0  0
   26.4479  -21.8003  -13.6983 C   0  0  0  0  0  0  0  0  0  0  0  0
   26.6411  -20.6314  -14.6709 C   0  0  0  0  0  0  0  0  0  0  0  0
   26.5889  -19.4584  -13.6826 C   0  0  0  0  0  0  0  0  0  0  0  0
   27.3812  -20.0144  -12.5346 C   0  0  1  0  0  0  0  0  0  0  0  0
   26.9214  -19.5083  -11.2156 C   0  0  0  0  0  0  0  0  0  0  0  0
   26.5695  -18.3002  -11.0664 O   0  0  0  0  0  0  0  0  0  0  0  0
   26.8547  -20.3375  -10.0782 N   0  0  0  0  0  0  0  0  0  0  0  0
   26.2103  -19.9402   -8.8193 C   0  0  1  0  0  0  0  0  0  0  0  0
   24.8395  -20.6523   -8.7941 C   0  0  0  0  0  0  0  0  0  0  0  0
   23.9492  -20.4721   -7.2616 S   0  0  0  0  0  0  0  0  0  0  0  0
   27.0119  -20.6082   -7.7271 C   0  0  0  0  0  0  0  0  0  0  0  0
   26.8124  -21.8486   -7.6573 O   0  0  0  0  0  0  0  0  0  0  0  0
   27.8811  -19.9091   -6.8934 N   0  0  0  0  0  0  0  0  0  0  0  0
   28.5645  -18.6443   -7.2501 C   0  0  0  0  0  0  0  0  0  0  0  0
   28.3941  -17.8331   -6.0026 C   0  0  0  0  0  0  0  0  0  0  0  0
   27.9059  -18.7880   -4.9334 C   0  0  0  0  0  0  0  0  0  0  0  0
   28.3376  -20.1479   -5.5811 C   0  0  1  0  0  0  0  0  0  0  0  0
   27.8523  -21.2408   -4.7877 C   0  0  0  0  0  0  0  0  0  0  0  0
   26.4565  -21.3577   -4.5890 O   0  0  0  0  0  0  0  0  0  0  0  0
   28.5352  -22.1023   -4.2524 O   0  0  0  0  0  0  0  0  0  0  0  0
  2  1  1  0
  3  2  1  0
  4  3  1  0
  4  5  1  0
  5  1  1  0
  6  8  1  0
  5  6  1  1
  7  6  2  0
  9  8  1  0
  9 12  1  0
  9 10  1  6
 11 10  1  0
 12 13  2  0
 14 12  1  0
 14 15  1  0
 16 15  1  0
 17 16  1  0
 18 19  1  1
 18 17  1  0
 18 14  1  0
 19 20  1  0
 21 19  2  0
M  END
$$$$
