KVV.pdb
     RDKit          3D

 24 23  0  0  1  0  0  0  0  0999 V2000
   23.5492  -20.6902   -8.3880 N   0  0  0  0  0  0  0  0  0  0  0  0
   22.8402  -20.9304   -9.6080 C   0  0  1  0  0  0  0  0  0  0  0  0
   21.4668  -20.3447   -9.5524 C   0  0  0  0  0  0  0  0  0  0  0  0
   20.3932  -21.3529   -9.3953 C   0  0  0  0  0  0  0  0  0  0  0  0
   20.4055  -22.1566   -8.1312 C   0  0  0  0  0  0  0  0  0  0  0  0
   19.1989  -23.1383   -8.1386 C   0  0  0  0  0  0  0  0  0  0  0  0
   19.3222  -23.8809   -6.8952 N   0  0  0  0  0  0  0  0  0  0  0  0
   23.6407  -20.3199  -10.7308 C   0  0  0  0  0  0  0  0  0  0  0  0
   23.9487  -19.1064  -10.6980 O   0  0  0  0  0  0  0  0  0  0  0  0
   26.1156  -22.6424  -13.2774 C   0  0  0  0  0  0  0  0  0  0  0  0
   26.1954  -21.1565  -13.0533 C   0  0  1  0  0  0  0  0  0  0  0  0
   26.9944  -20.4371  -14.0974 C   0  0  0  0  0  0  0  0  0  0  0  0
   24.8381  -20.5119  -12.9328 C   0  0  2  0  0  0  0  0  0  0  0  0
   24.0680  -21.0837  -11.8478 N   0  0  0  0  0  0  0  0  0  0  0  0
   24.0900  -20.5212  -14.2111 C   0  0  0  0  0  0  0  0  0  0  0  0
   23.4534  -21.5642  -14.5115 O   0  0  0  0  0  0  0  0  0  0  0  0
   23.1959  -16.9570  -16.3758 C   0  0  0  0  0  0  0  0  0  0  0  0
   22.3675  -18.1981  -16.3672 C   0  0  2  0  0  0  0  0  0  0  0  0
   21.3807  -18.1321  -15.2312 C   0  0  0  0  0  0  0  0  0  0  0  0
   23.2302  -19.4369  -16.3066 C   0  0  2  0  0  0  0  0  0  0  0  0
   24.0422  -19.4401  -15.1157 N   0  0  0  0  0  0  0  0  0  0  0  0
   24.0036  -19.6701  -17.5332 C   0  0  0  0  0  0  0  0  0  0  0  0
   23.4309  -20.2717  -18.6434 O   0  0  0  0  0  0  0  0  0  0  0  0
   25.2118  -19.3342  -17.6242 O   0  0  0  0  0  0  0  0  0  0  0  0
  2  1  1  1
  2  8  1  0
  2  3  1  0
  4  5  1  0
  4  3  1  0
  6  5  1  0
  7  6  1  0
  8 14  1  0
  9  8  2  0
 11 12  1  6
 11 10  1  0
 13 11  1  0
 13 15  1  0
 13 14  1  1
 15 16  2  0
 15 21  1  0
 18 17  1  1
 18 20  1  0
 18 19  1  0
 20 22  1  0
 20 21  1  1
 22 24  2  0
 22 23  1  0
M  END
$$$$
