KVV.pdb
     RDKit          3D

 24 23  0  0  1  0  0  0  0  0999 V2000
   23.4356  -20.1449  -14.7282 N   0  0  0  0  0  0  0  0  0  0  0  0
   22.6325  -19.5775  -13.6882 C   0  0  1  0  0  0  0  0  0  0  0  0
   21.2572  -19.2679  -14.1833 C   0  0  0  0  0  0  0  0  0  0  0  0
   21.1746  -18.0201  -14.9770 C   0  0  0  0  0  0  0  0  0  0  0  0
   21.5537  -18.1169  -16.4231 C   0  0  0  0  0  0  0  0  0  0  0  0
   21.4861  -16.7014  -17.0644 C   0  0  0  0  0  0  0  0  0  0  0  0
   21.8671  -16.9083  -18.4518 N   0  0  0  0  0  0  0  0  0  0  0  0
   22.5854  -20.5692  -12.5531 C   0  0  0  0  0  0  0  0  0  0  0  0
   22.3838  -21.7834  -12.7848 O   0  0  0  0  0  0  0  0  0  0  0  0
   25.3276  -20.9166   -9.9594 C   0  0  0  0  0  0  0  0  0  0  0  0
   24.0184  -20.8636   -9.2195 C   0  0  1  0  0  0  0  0  0  0  0  0
   23.8049  -19.5810   -8.4742 C   0  0  0  0  0  0  0  0  0  0  0  0
   22.8329  -21.1235  -10.1137 C   0  0  2  0  0  0  0  0  0  0  0  0
   22.7646  -20.1715  -11.2027 N   0  0  0  0  0  0  0  0  0  0  0  0
   21.5599  -21.1993   -9.3604 C   0  0  0  0  0  0  0  0  0  0  0  0
   20.9201  -20.1311   -9.1791 O   0  0  0  0  0  0  0  0  0  0  0  0
   18.4879  -22.5790  -10.1866 C   0  0  0  0  0  0  0  0  0  0  0  0
   18.7145  -23.1763   -8.8381 C   0  0  2  0  0  0  0  0  0  0  0  0
   17.4096  -23.2239   -8.0874 C   0  0  0  0  0  0  0  0  0  0  0  0
   19.7871  -22.4319   -8.0780 C   0  0  2  0  0  0  0  0  0  0  0  0
   21.0149  -22.3881   -8.8318 N   0  0  0  0  0  0  0  0  0  0  0  0
   19.9706  -22.9153   -6.7034 C   0  0  0  0  0  0  0  0  0  0  0  0
   19.2093  -22.4183   -5.6565 O   0  0  0  0  0  0  0  0  0  0  0  0
   20.8227  -23.7962   -6.4230 O   0  0  0  0  0  0  0  0  0  0  0  0
  2  1  1  6
  2  8  1  0
  2  3  1  0
  4  5  1  0
  4  3  1  0
  6  5  1  0
  7  6  1  0
  8 14  1  0
  9  8  2  0
 11 12  1  6
 11 10  1  0
 13 11  1  0
 13 15  1  0
 13 14  1  6
 15 16  2  0
 15 21  1  0
 18 17  1  6
 18 20  1  0
 18 19  1  0
 20 22  1  0
 20 21  1  6
 22 24  2  0
 22 23  1  0
M  END
$$$$
