KVV.pdb
     RDKit          3D

 24 23  0  0  1  0  0  0  0  0999 V2000
   27.6523  -20.8993  -17.5987 N   0  0  0  0  0  0  0  0  0  0  0  0
   27.7435  -21.6594  -16.3894 C   0  0  1  0  0  0  0  0  0  0  0  0
   29.1466  -22.1116  -16.1466 C   0  0  0  0  0  0  0  0  0  0  0  0
   29.5311  -23.3111  -16.9258 C   0  0  0  0  0  0  0  0  0  0  0  0
   30.4364  -23.0893  -18.0986 C   0  0  0  0  0  0  0  0  0  0  0  0
   30.7271  -24.4547  -18.7846 C   0  0  0  0  0  0  0  0  0  0  0  0
   31.5349  -24.1179  -19.9451 N   0  0  0  0  0  0  0  0  0  0  0  0
   27.2569  -20.7852  -15.2611 C   0  0  0  0  0  0  0  0  0  0  0  0
   27.7322  -19.6373  -15.1030 O   0  0  0  0  0  0  0  0  0  0  0  0
   24.1392  -19.8303  -15.1917 C   0  0  0  0  0  0  0  0  0  0  0  0
   24.3740  -19.8032  -13.7056 C   0  0  1  0  0  0  0  0  0  0  0  0
   23.3031  -20.4964  -12.9190 C   0  0  0  0  0  0  0  0  0  0  0  0
   25.7187  -20.3635  -13.3180 C   0  0  2  0  0  0  0  0  0  0  0  0
   26.2593  -21.2220  -14.3513 N   0  0  0  0  0  0  0  0  0  0  0  0
   25.6955  -21.0310  -11.9960 C   0  0  0  0  0  0  0  0  0  0  0  0
   25.1977  -22.1848  -11.9292 O   0  0  0  0  0  0  0  0  0  0  0  0
   26.7656  -19.0648   -8.2215 C   0  0  0  0  0  0  0  0  0  0  0  0
   27.0013  -20.5092   -8.5124 C   0  0  2  0  0  0  0  0  0  0  0  0
   28.4201  -20.6992   -8.9811 C   0  0  0  0  0  0  0  0  0  0  0  0
   25.9934  -21.0443   -9.5026 C   0  0  2  0  0  0  0  0  0  0  0  0
   26.1936  -20.4616  -10.8056 N   0  0  0  0  0  0  0  0  0  0  0  0
   24.6052  -20.9459   -9.0332 C   0  0  0  0  0  0  0  0  0  0  0  0
   24.0951  -21.8343   -8.0989 O   0  0  0  0  0  0  0  0  0  0  0  0
   23.8273  -20.0546   -9.4591 O   0  0  0  0  0  0  0  0  0  0  0  0
  2  1  1  6
  2  8  1  0
  2  3  1  0
  4  5  1  0
  4  3  1  0
  6  5  1  0
  7  6  1  0
  8 14  1  0
  9  8  2  0
 11 12  1  1
 11 10  1  0
 13 11  1  0
 13 15  1  0
 13 14  1  6
 15 16  2  0
 15 21  1  0
 18 17  1  6
 18 20  1  0
 18 19  1  0
 20 22  1  0
 20 21  1  6
 22 24  2  0
 22 23  1  0
M  END
$$$$
