KVV.pdb
     RDKit          3D

 24 23  0  0  1  0  0  0  0  0999 V2000
   24.1355  -20.6163  -17.5812 N   0  0  0  0  0  0  0  0  0  0  0  0
   23.3572  -20.4917  -16.3866 C   0  0  1  0  0  0  0  0  0  0  0  0
   22.1199  -21.3257  -16.4651 C   0  0  0  0  0  0  0  0  0  0  0  0
   20.9229  -20.5781  -16.9146 C   0  0  0  0  0  0  0  0  0  0  0  0
   20.9647  -20.0130  -18.3013 C   0  0  0  0  0  0  0  0  0  0  0  0
   19.6687  -19.1918  -18.5572 C   0  0  0  0  0  0  0  0  0  0  0  0
   19.9062  -17.9168  -17.9008 N   0  0  0  0  0  0  0  0  0  0  0  0
   24.2230  -20.9210  -15.2289 C   0  0  0  0  0  0  0  0  0  0  0  0
   23.8737  -21.8790  -14.5018 O   0  0  0  0  0  0  0  0  0  0  0  0
   28.2483  -21.0983  -15.4427 C   0  0  0  0  0  0  0  0  0  0  0  0
   27.7726  -20.4195  -14.1867 C   0  0  1  0  0  0  0  0  0  0  0  0
   27.9770  -18.9348  -14.1961 C   0  0  0  0  0  0  0  0  0  0  0  0
   26.3297  -20.7218  -13.8719 C   0  0  2  0  0  0  0  0  0  0  0  0
   25.4452  -20.2672  -14.9245 N   0  0  0  0  0  0  0  0  0  0  0  0
   25.9203  -20.2126  -12.5427 C   0  0  0  0  0  0  0  0  0  0  0  0
   25.5114  -19.0249  -12.4691 O   0  0  0  0  0  0  0  0  0  0  0  0
   23.2779  -20.9035  -10.3159 C   0  0  0  0  0  0  0  0  0  0  0  0
   24.4704  -21.0425   -9.4298 C   0  0  2  0  0  0  0  0  0  0  0  0
   24.1544  -20.4680   -8.0737 C   0  0  0  0  0  0  0  0  0  0  0  0
   25.6949  -20.4108  -10.0495 C   0  0  2  0  0  0  0  0  0  0  0  0
   25.9574  -20.9685  -11.3524 N   0  0  0  0  0  0  0  0  0  0  0  0
   26.8692  -20.4263   -9.1676 C   0  0  0  0  0  0  0  0  0  0  0  0
   26.9780  -19.5534   -8.0959 O   0  0  0  0  0  0  0  0  0  0  0  0
   27.8192  -21.2297   -9.3495 O   0  0  0  0  0  0  0  0  0  0  0  0
  2  1  1  6
  2  8  1  0
  2  3  1  0
  4  5  1  0
  4  3  1  0
  6  5  1  0
  7  6  1  0
  8 14  1  0
  9  8  2  0
 11 12  1  6
 11 10  1  0
 13 11  1  0
 13 15  1  0
 13 14  1  6
 15 16  2  0
 15 21  1  0
 18 17  1  6
 18 20  1  0
 18 19  1  0
 20 22  1  0
 20 21  1  6
 22 24  2  0
 22 23  1  0
M  END
$$$$
