KVV.pdb
     RDKit          3D

 24 23  0  0  1  0  0  0  0  0999 V2000
   23.9435  -20.5762  -16.8401 N   0  0  0  0  0  0  0  0  0  0  0  0
   24.4952  -19.5971  -15.9538 C   0  0  1  0  0  0  0  0  0  0  0  0
   23.4607  -18.5971  -15.5510 C   0  0  0  0  0  0  0  0  0  0  0  0
   23.0317  -17.7045  -16.6523 C   0  0  0  0  0  0  0  0  0  0  0  0
   22.0353  -16.6407  -16.3063 C   0  0  0  0  0  0  0  0  0  0  0  0
   21.7432  -15.7839  -17.5711 C   0  0  0  0  0  0  0  0  0  0  0  0
   21.1819  -16.7223  -18.5288 N   0  0  0  0  0  0  0  0  0  0  0  0
   25.0388  -20.3240  -14.7495 C   0  0  0  0  0  0  0  0  0  0  0  0
   24.4329  -21.3173  -14.2862 O   0  0  0  0  0  0  0  0  0  0  0  0
   28.5942  -21.6189  -14.3763 C   0  0  0  0  0  0  0  0  0  0  0  0
   28.2598  -20.8701  -13.1146 C   0  0  1  0  0  0  0  0  0  0  0  0
   29.0010  -19.5751  -12.9743 C   0  0  0  0  0  0  0  0  0  0  0  0
   26.7816  -20.6171  -12.9618 C   0  0  2  0  0  0  0  0  0  0  0  0
   26.2367  -19.9174  -14.1065 N   0  0  0  0  0  0  0  0  0  0  0  0
   26.4508  -19.9399  -11.6867 C   0  0  0  0  0  0  0  0  0  0  0  0
   26.4412  -18.6817  -11.6751 O   0  0  0  0  0  0  0  0  0  0  0  0
   24.7700  -21.8597   -8.1480 C   0  0  0  0  0  0  0  0  0  0  0  0
   24.6110  -20.4478   -8.6037 C   0  0  2  0  0  0  0  0  0  0  0  0
   23.4246  -20.3515   -9.5266 C   0  0  0  0  0  0  0  0  0  0  0  0
   25.8780  -19.9279   -9.2417 C   0  0  2  0  0  0  0  0  0  0  0  0
   26.1454  -20.6094  -10.4834 N   0  0  0  0  0  0  0  0  0  0  0  0
   27.0289  -19.9174   -8.3295 C   0  0  0  0  0  0  0  0  0  0  0  0
   27.0944  -19.0361   -7.2611 O   0  0  0  0  0  0  0  0  0  0  0  0
   27.9972  -20.7050   -8.4813 O   0  0  0  0  0  0  0  0  0  0  0  0
  2  1  1  6
  2  8  1  0
  2  3  1  0
  4  5  1  0
  4  3  1  0
  6  5  1  0
  7  6  1  0
  8 14  1  0
  9  8  2  0
 11 12  1  6
 11 10  1  0
 13 11  1  0
 13 15  1  0
 13 14  1  6
 15 16  2  0
 15 21  1  0
 18 17  1  6
 18 20  1  0
 18 19  1  0
 20 22  1  0
 20 21  1  6
 22 24  2  0
 22 23  1  0
M  END
$$$$
