KVV.pdb
     RDKit          3D

 24 23  0  0  1  0  0  0  0  0999 V2000
   18.1434  -23.6782  -11.3982 N   0  0  0  0  0  0  0  0  0  0  0  0
   19.2155  -22.8536  -10.9303 C   0  0  1  0  0  0  0  0  0  0  0  0
   19.8767  -23.4624   -9.7367 C   0  0  0  0  0  0  0  0  0  0  0  0
   19.0814  -24.5347   -9.0952 C   0  0  0  0  0  0  0  0  0  0  0  0
   18.2081  -24.1292   -7.9477 C   0  0  0  0  0  0  0  0  0  0  0  0
   18.4164  -25.1246   -6.7708 C   0  0  0  0  0  0  0  0  0  0  0  0
   17.5443  -24.6343   -5.7163 N   0  0  0  0  0  0  0  0  0  0  0  0
   20.1964  -22.6904  -12.0641 C   0  0  0  0  0  0  0  0  0  0  0  0
   20.5684  -23.6877  -12.7241 O   0  0  0  0  0  0  0  0  0  0  0  0
   20.0031  -19.4858  -14.2718 C   0  0  0  0  0  0  0  0  0  0  0  0
   20.9570  -20.5678  -14.7005 C   0  0  1  0  0  0  0  0  0  0  0  0
   21.9972  -20.0969  -15.6711 C   0  0  0  0  0  0  0  0  0  0  0  0
   21.6329  -21.2439  -13.5349 C   0  0  2  0  0  0  0  0  0  0  0  0
   20.7260  -21.4230  -12.4202 N   0  0  0  0  0  0  0  0  0  0  0  0
   22.8835  -20.5611  -13.1303 C   0  0  0  0  0  0  0  0  0  0  0  0
   22.7838  -19.5074  -12.4498 O   0  0  0  0  0  0  0  0  0  0  0  0
   26.7394  -22.3360  -12.7914 C   0  0  0  0  0  0  0  0  0  0  0  0
   26.2375  -21.0798  -12.1617 C   0  0  2  0  0  0  0  0  0  0  0  0
   25.5097  -21.4167  -10.8867 C   0  0  0  0  0  0  0  0  0  0  0  0
   25.3796  -20.2869  -13.1198 C   0  0  2  0  0  0  0  0  0  0  0  0
   24.1798  -21.0115  -13.4558 N   0  0  0  0  0  0  0  0  0  0  0  0
   26.1126  -19.8056  -14.2980 C   0  0  0  0  0  0  0  0  0  0  0  0
   27.1344  -18.8757  -14.1815 O   0  0  0  0  0  0  0  0  0  0  0  0
   25.8428  -20.2169  -15.4551 O   0  0  0  0  0  0  0  0  0  0  0  0
  2  1  1  6
  2  8  1  0
  2  3  1  0
  4  5  1  0
  4  3  1  0
  6  5  1  0
  7  6  1  0
  8 14  1  0
  9  8  2  0
 11 12  1  6
 11 10  1  0
 13 11  1  0
 13 15  1  0
 13 14  1  1
 15 16  2  0
 15 21  1  0
 18 17  1  6
 18 20  1  0
 18 19  1  0
 20 22  1  0
 20 21  1  6
 22 24  2  0
 22 23  1  0
M  END
$$$$
