KVV.pdb
     RDKit          3D

 24 23  0  0  1  0  0  0  0  0999 V2000
   23.4807  -21.2533  -12.8423 N   0  0  0  0  0  0  0  0  0  0  0  0
   23.4929  -20.6289  -11.5544 C   0  0  1  0  0  0  0  0  0  0  0  0
   22.2070  -20.8680  -10.8321 C   0  0  0  0  0  0  0  0  0  0  0  0
   21.0197  -20.8909  -11.7173 C   0  0  0  0  0  0  0  0  0  0  0  0
   20.5006  -19.5642  -12.1803 C   0  0  0  0  0  0  0  0  0  0  0  0
   19.1846  -19.7818  -12.9803 C   0  0  0  0  0  0  0  0  0  0  0  0
   18.1314  -19.3370  -12.0827 N   0  0  0  0  0  0  0  0  0  0  0  0
   24.6576  -21.1952  -10.7819 C   0  0  0  0  0  0  0  0  0  0  0  0
   24.6717  -22.4055  -10.4599 O   0  0  0  0  0  0  0  0  0  0  0  0
   28.2074  -21.6153  -11.6287 C   0  0  0  0  0  0  0  0  0  0  0  0
   28.1763  -20.7904  -10.3706 C   0  0  1  0  0  0  0  0  0  0  0  0
   28.4812  -19.3410  -10.5989 C   0  0  0  0  0  0  0  0  0  0  0  0
   26.8717  -20.9138   -9.6253 C   0  0  2  0  0  0  0  0  0  0  0  0
   25.7627  -20.3925  -10.3968 N   0  0  0  0  0  0  0  0  0  0  0  0
   26.9343  -20.3197   -8.2699 C   0  0  0  0  0  0  0  0  0  0  0  0
   26.2333  -19.2998   -8.0427 O   0  0  0  0  0  0  0  0  0  0  0  0
   28.5842  -20.4489   -3.5911 C   0  0  0  0  0  0  0  0  0  0  0  0
   28.6567  -21.0001   -4.9758 C   0  0  2  0  0  0  0  0  0  0  0  0
   30.1003  -21.1598   -5.3748 C   0  0  0  0  0  0  0  0  0  0  0  0
   27.8830  -20.1444   -5.9514 C   0  0  2  0  0  0  0  0  0  0  0  0
   27.7267  -20.8193   -7.2154 N   0  0  0  0  0  0  0  0  0  0  0  0
   28.4183  -18.7834   -6.0860 C   0  0  0  0  0  0  0  0  0  0  0  0
   28.0906  -17.7867   -5.1796 O   0  0  0  0  0  0  0  0  0  0  0  0
   29.1924  -18.4698   -7.0258 O   0  0  0  0  0  0  0  0  0  0  0  0
  2  1  1  6
  2  8  1  0
  2  3  1  0
  4  5  1  0
  4  3  1  0
  6  5  1  0
  7  6  1  0
  8 14  1  0
  9  8  2  0
 11 12  1  6
 11 10  1  0
 13 11  1  0
 13 15  1  0
 13 14  1  6
 15 16  2  0
 15 21  1  0
 18 17  1  1
 18 20  1  0
 18 19  1  0
 20 22  1  0
 20 21  1  6
 22 24  2  0
 22 23  1  0
M  END
$$$$
