KVV.pdb
     RDKit          3D

 24 23  0  0  1  0  0  0  0  0999 V2000
   16.2396  -15.3873  -15.8357 N   0  0  0  0  0  0  0  0  0  0  0  0
   17.2526  -14.3949  -15.6422 C   0  0  1  0  0  0  0  0  0  0  0  0
   18.5000  -14.7526  -16.3827 C   0  0  0  0  0  0  0  0  0  0  0  0
   19.2403  -15.8910  -15.7912 C   0  0  0  0  0  0  0  0  0  0  0  0
   19.9909  -16.7719  -16.7424 C   0  0  0  0  0  0  0  0  0  0  0  0
   20.7651  -17.8525  -15.9348 C   0  0  0  0  0  0  0  0  0  0  0  0
   21.4596  -18.6366  -16.9425 N   0  0  0  0  0  0  0  0  0  0  0  0
   16.7003  -13.0767  -16.1235 C   0  0  0  0  0  0  0  0  0  0  0  0
   16.1720  -12.9903  -17.2557 O   0  0  0  0  0  0  0  0  0  0  0  0
   14.3087  -11.7247  -14.3954 C   0  0  0  0  0  0  0  0  0  0  0  0
   14.7246  -10.5462  -15.2336 C   0  0  1  0  0  0  0  0  0  0  0  0
   14.5432   -9.2284  -14.5432 C   0  0  0  0  0  0  0  0  0  0  0  0
   16.1433  -10.6570  -15.7310 C   0  0  2  0  0  0  0  0  0  0  0  0
   16.7572  -11.9044  -15.3258 N   0  0  0  0  0  0  0  0  0  0  0  0
   16.9682   -9.4844  -15.3588 C   0  0  0  0  0  0  0  0  0  0  0  0
   17.4546   -9.4529  -14.1987 O   0  0  0  0  0  0  0  0  0  0  0  0
   18.2100   -6.4478  -18.1921 C   0  0  0  0  0  0  0  0  0  0  0  0
   19.0199   -6.9590  -17.0479 C   0  0  2  0  0  0  0  0  0  0  0  0
   19.8675   -8.1141  -17.5127 C   0  0  0  0  0  0  0  0  0  0  0  0
   18.1444   -7.3260  -15.8726 C   0  0  2  0  0  0  0  0  0  0  0  0
   17.2462   -8.3996  -16.2163 N   0  0  0  0  0  0  0  0  0  0  0  0
   17.4625   -6.1732  -15.2703 C   0  0  0  0  0  0  0  0  0  0  0  0
   18.1204   -5.3225  -14.3951 O   0  0  0  0  0  0  0  0  0  0  0  0
   16.2588   -5.9133  -15.5240 O   0  0  0  0  0  0  0  0  0  0  0  0
  2  1  1  6
  2  8  1  0
  2  3  1  0
  4  5  1  0
  4  3  1  0
  6  5  1  0
  7  6  1  0
  8 14  1  0
  9  8  2  0
 11 12  1  1
 11 10  1  0
 13 11  1  0
 13 15  1  0
 13 14  1  1
 15 16  2  0
 15 21  1  0
 18 17  1  6
 18 20  1  0
 18 19  1  0
 20 22  1  0
 20 21  1  6
 22 24  2  0
 22 23  1  0
M  END
$$$$
