KVV.pdb
     RDKit          3D

 24 23  0  0  1  0  0  0  0  0999 V2000
   27.8750  -22.2264  -16.4503 N   0  0  0  0  0  0  0  0  0  0  0  0
   27.3022  -21.0797  -15.8135 C   0  0  1  0  0  0  0  0  0  0  0  0
   26.6843  -20.1628  -16.8185 C   0  0  0  0  0  0  0  0  0  0  0  0
   27.6518  -19.6011  -17.7892 C   0  0  0  0  0  0  0  0  0  0  0  0
   29.0478  -19.3774  -17.2942 C   0  0  0  0  0  0  0  0  0  0  0  0
   29.8916  -18.7223  -18.4248 C   0  0  0  0  0  0  0  0  0  0  0  0
   31.2142  -18.5543  -17.8457 N   0  0  0  0  0  0  0  0  0  0  0  0
   26.2721  -21.5701  -14.8274 C   0  0  0  0  0  0  0  0  0  0  0  0
   25.5753  -22.5766  -15.0919 O   0  0  0  0  0  0  0  0  0  0  0  0
   26.8722  -21.8150  -10.9641 C   0  0  0  0  0  0  0  0  0  0  0  0
   25.5228  -21.1970  -11.2125 C   0  0  1  0  0  0  0  0  0  0  0  0
   25.4516  -19.7475  -10.8384 C   0  0  0  0  0  0  0  0  0  0  0  0
   25.0570  -21.3677  -12.6360 C   0  0  2  0  0  0  0  0  0  0  0  0
   26.0567  -20.9212  -13.5838 N   0  0  0  0  0  0  0  0  0  0  0  0
   23.7384  -20.7390  -12.8808 C   0  0  0  0  0  0  0  0  0  0  0  0
   23.7031  -19.4914  -13.0402 O   0  0  0  0  0  0  0  0  0  0  0  0
   20.2861  -22.7777  -14.4009 C   0  0  0  0  0  0  0  0  0  0  0  0
   20.6676  -21.3402  -14.5214 C   0  0  2  0  0  0  0  0  0  0  0  0
   21.6057  -21.1686  -15.6872 C   0  0  0  0  0  0  0  0  0  0  0  0
   21.2530  -20.8147  -13.2315 C   0  0  2  0  0  0  0  0  0  0  0  0
   22.5184  -21.4437  -12.9475 N   0  0  0  0  0  0  0  0  0  0  0  0
   20.3161  -20.8664  -12.1017 C   0  0  0  0  0  0  0  0  0  0  0  0
   19.2355  -20.0015  -12.0207 O   0  0  0  0  0  0  0  0  0  0  0  0
   20.4571  -21.6948  -11.1663 O   0  0  0  0  0  0  0  0  0  0  0  0
  2  1  1  6
  2  8  1  0
  2  3  1  0
  4  5  1  0
  4  3  1  0
  6  5  1  0
  7  6  1  0
  8 14  1  0
  9  8  2  0
 11 12  1  6
 11 10  1  0
 13 11  1  0
 13 15  1  0
 13 14  1  6
 15 16  2  0
 15 21  1  0
 18 17  1  1
 18 20  1  0
 18 19  1  0
 20 22  1  0
 20 21  1  1
 22 24  2  0
 22 23  1  0
M  END
$$$$
