KVV.pdb
     RDKit          3D

 24 23  0  0  1  0  0  0  0  0999 V2000
   25.7996  -21.8316  -11.9551 N   0  0  0  0  0  0  0  0  0  0  0  0
   25.9688  -21.5640  -13.3509 C   0  0  1  0  0  0  0  0  0  0  0  0
   25.1819  -22.5270  -14.1791 C   0  0  0  0  0  0  0  0  0  0  0  0
   24.1837  -23.3025  -13.4071 C   0  0  0  0  0  0  0  0  0  0  0  0
   23.3040  -24.2308  -14.1870 C   0  0  0  0  0  0  0  0  0  0  0  0
   22.1602  -24.7443  -13.2665 C   0  0  0  0  0  0  0  0  0  0  0  0
   21.3228  -25.5525  -14.1372 N   0  0  0  0  0  0  0  0  0  0  0  0
   25.5212  -20.1462  -13.6031 C   0  0  0  0  0  0  0  0  0  0  0  0
   24.7765  -19.5646  -12.7810 O   0  0  0  0  0  0  0  0  0  0  0  0
   27.7624  -17.8693  -16.2631 C   0  0  0  0  0  0  0  0  0  0  0  0
   26.8919  -17.2310  -15.2148 C   0  0  1  0  0  0  0  0  0  0  0  0
   26.5256  -15.8114  -15.5259 C   0  0  0  0  0  0  0  0  0  0  0  0
   25.6374  -18.0204  -14.9397 C   0  0  2  0  0  0  0  0  0  0  0  0
   25.9196  -19.4294  -14.7612 N   0  0  0  0  0  0  0  0  0  0  0  0
   24.5864  -17.7881  -15.9572 C   0  0  0  0  0  0  0  0  0  0  0  0
   24.7512  -18.2930  -17.0979 O   0  0  0  0  0  0  0  0  0  0  0  0
   20.6555  -16.2827  -15.0736 C   0  0  0  0  0  0  0  0  0  0  0  0
   21.0328  -17.1568  -16.2226 C   0  0  2  0  0  0  0  0  0  0  0  0
   20.9178  -18.6009  -15.8103 C   0  0  0  0  0  0  0  0  0  0  0  0
   22.4088  -16.8172  -16.7457 C   0  0  2  0  0  0  0  0  0  0  0  0
   23.4122  -17.0389  -15.7349 N   0  0  0  0  0  0  0  0  0  0  0  0
   22.4886  -15.4836  -17.3556 C   0  0  0  0  0  0  0  0  0  0  0  0
   22.0493  -15.2553  -18.6507 O   0  0  0  0  0  0  0  0  0  0  0  0
   22.9570  -14.4994  -16.7288 O   0  0  0  0  0  0  0  0  0  0  0  0
  2  1  1  1
  2  8  1  0
  2  3  1  0
  4  5  1  0
  4  3  1  0
  6  5  1  0
  7  6  1  0
  8 14  1  0
  9  8  2  0
 11 12  1  6
 11 10  1  0
 13 11  1  0
 13 15  1  0
 13 14  1  6
 15 16  2  0
 15 21  1  0
 18 17  1  1
 18 20  1  0
 18 19  1  0
 20 22  1  0
 20 21  1  1
 22 24  2  0
 22 23  1  0
M  END
$$$$
