KVV.pdb
     RDKit          3D

 24 23  0  0  1  0  0  0  0  0999 V2000
   25.0872  -20.8275  -17.4686 N   0  0  0  0  0  0  0  0  0  0  0  0
   25.5744  -19.7889  -16.6128 C   0  0  1  0  0  0  0  0  0  0  0  0
   24.5416  -18.7265  -16.4198 C   0  0  0  0  0  0  0  0  0  0  0  0
   23.3625  -18.8718  -17.3044 C   0  0  0  0  0  0  0  0  0  0  0  0
   22.3934  -19.9608  -16.9595 C   0  0  0  0  0  0  0  0  0  0  0  0
   21.1541  -19.8561  -17.8936 C   0  0  0  0  0  0  0  0  0  0  0  0
   20.2894  -20.9490  -17.4805 N   0  0  0  0  0  0  0  0  0  0  0  0
   25.9505  -20.4195  -15.2956 C   0  0  0  0  0  0  0  0  0  0  0  0
   25.2181  -21.2980  -14.7854 O   0  0  0  0  0  0  0  0  0  0  0  0
   29.4520  -19.0724  -13.1808 C   0  0  0  0  0  0  0  0  0  0  0  0
   28.9700  -20.4917  -13.0486 C   0  0  1  0  0  0  0  0  0  0  0  0
   29.2882  -21.1095  -11.7208 C   0  0  0  0  0  0  0  0  0  0  0  0
   27.4946  -20.6337  -13.3235 C   0  0  2  0  0  0  0  0  0  0  0  0
   27.1279  -20.0479  -14.5960 N   0  0  0  0  0  0  0  0  0  0  0  0
   26.6588  -20.1206  -12.2135 C   0  0  0  0  0  0  0  0  0  0  0  0
   26.6043  -18.8746  -12.0466 O   0  0  0  0  0  0  0  0  0  0  0  0
   23.0662  -20.7968  -11.2646 C   0  0  0  0  0  0  0  0  0  0  0  0
   23.8682  -21.0156  -10.0255 C   0  0  2  0  0  0  0  0  0  0  0  0
   23.1200  -20.4607   -8.8418 C   0  0  0  0  0  0  0  0  0  0  0  0
   25.2544  -20.4288  -10.1546 C   0  0  2  0  0  0  0  0  0  0  0  0
   25.9189  -20.9337  -11.3298 N   0  0  0  0  0  0  0  0  0  0  0  0
   26.0603  -20.5612   -8.9340 C   0  0  0  0  0  0  0  0  0  0  0  0
   26.0829  -19.5622   -7.9728 O   0  0  0  0  0  0  0  0  0  0  0  0
   26.7591  -21.5829   -8.7135 O   0  0  0  0  0  0  0  0  0  0  0  0
  2  1  1  6
  2  8  1  0
  2  3  1  0
  4  5  1  0
  4  3  1  0
  6  5  1  0
  7  6  1  0
  8 14  1  0
  9  8  2  0
 11 12  1  1
 11 10  1  0
 13 11  1  0
 13 15  1  0
 13 14  1  6
 15 16  2  0
 15 21  1  0
 18 17  1  6
 18 20  1  0
 18 19  1  0
 20 22  1  0
 20 21  1  6
 22 24  2  0
 22 23  1  0
M  END
$$$$
