TFT.pdb
     RDKit          3D

 26 26  0  0  1  0  0  0  0  0999 V2000
    6.7468  -18.0737   18.3973 C   0  0  0  0  0  0  0  0  0  0  0  0
    7.3298  -17.5657   19.6960 C   0  0  1  0  0  0  0  0  0  0  0  0
    8.5596  -18.1520   19.9036 O   0  0  0  0  0  0  0  0  0  0  0  0
    7.3745  -16.0726   19.6534 C   0  0  2  0  0  0  0  0  0  0  0  0
    8.1595  -15.5644   18.5752 N   0  0  0  0  0  0  0  0  0  0  0  0
    7.8803  -15.5137   20.9454 C   0  0  0  0  0  0  0  0  0  0  0  0
    9.0650  -15.1400   21.0825 O   0  0  0  0  0  0  0  0  0  0  0  0
    7.0474  -15.3765   22.0838 N   0  0  0  0  0  0  0  0  0  0  0  0
    7.4980  -14.7953   23.3125 C   0  0  1  0  0  0  0  0  0  0  0  0
    6.4688  -14.2117   24.1782 C   0  0  0  0  0  0  0  0  0  0  0  0
    6.9097  -13.5692   25.4182 C   0  0  0  0  0  0  0  0  0  0  0  0
    7.2325  -14.2604   26.5743 C   0  0  0  0  0  0  0  0  0  0  0  0
    7.6253  -13.6242   27.7174 C   0  0  0  0  0  0  0  0  0  0  0  0
    7.7121  -12.2528   27.7501 C   0  0  0  0  0  0  0  0  0  0  0  0
    7.4003  -11.5268   26.6239 C   0  0  0  0  0  0  0  0  0  0  0  0
    7.0057  -12.1955   25.4817 C   0  0  0  0  0  0  0  0  0  0  0  0
    8.2853  -15.8338   24.0413 C   0  0  0  0  0  0  0  0  0  0  0  0
    7.7545  -16.9793   24.2668 O   0  0  0  0  0  0  0  0  0  0  0  0
   12.6805  -17.7960   25.0997 C   0  0  0  0  0  0  0  0  0  0  0  0
   11.8860  -16.6209   24.5343 C   0  0  1  0  0  0  0  0  0  0  0  0
   11.8586  -16.8179   23.1378 O   0  0  0  0  0  0  0  0  0  0  0  0
   10.5070  -16.5612   25.1025 C   0  0  2  0  0  0  0  0  0  0  0  0
    9.6047  -15.6488   24.5098 N   0  0  0  0  0  0  0  0  0  0  0  0
   10.4978  -16.6652   26.5872 C   0  0  0  0  0  0  0  0  0  0  0  0
   11.0201  -17.8369   27.1999 O   0  0  0  0  0  0  0  0  0  0  0  0
   10.0782  -15.8330   27.4056 O   0  0  0  0  0  0  0  0  0  0  0  0
  2  1  1  6
  2  3  1  0
  2  4  1  0
  4  6  1  0
  4  5  1  6
  6  7  2  0
  8  9  1  0
  8  6  1  0
  9 10  1  1
 10 11  1  0
 11 16  2  0
 12 11  1  0
 12 13  2  0
 13 14  1  0
 14 15  2  0
 16 15  1  0
 17 18  2  0
 17  9  1  0
 20 19  1  1
 20 22  1  0
 21 20  1  0
 22 24  1  0
 22 23  1  1
 23 17  1  0
 24 25  1  0
 26 24  2  0
M  END
$$$$
