TFT.pdb
     RDKit          3D

 26 26  0  0  1  0  0  0  0  0999 V2000
    8.5018  -18.4574   18.5452 C   0  0  0  0  0  0  0  0  0  0  0  0
    8.7102  -17.8941   19.9322 C   0  0  1  0  0  0  0  0  0  0  0  0
    9.5722  -18.7113   20.6311 O   0  0  0  0  0  0  0  0  0  0  0  0
    9.1836  -16.4817   19.8132 C   0  0  2  0  0  0  0  0  0  0  0  0
   10.4368  -16.3638   19.1403 N   0  0  0  0  0  0  0  0  0  0  0  0
    9.2760  -15.8315   21.1571 C   0  0  0  0  0  0  0  0  0  0  0  0
   10.3683  -15.6934   21.7484 O   0  0  0  0  0  0  0  0  0  0  0  0
    8.1335  -15.3367   21.8342 N   0  0  0  0  0  0  0  0  0  0  0  0
    8.1974  -14.7361   23.1325 C   0  0  1  0  0  0  0  0  0  0  0  0
    7.0777  -13.8680   23.5095 C   0  0  0  0  0  0  0  0  0  0  0  0
    7.0980  -13.2778   24.8496 C   0  0  0  0  0  0  0  0  0  0  0  0
    8.0193  -12.3295   25.2626 C   0  0  0  0  0  0  0  0  0  0  0  0
    8.0159  -11.8132   26.5271 C   0  0  0  0  0  0  0  0  0  0  0  0
    7.0781  -12.2304   27.4414 C   0  0  0  0  0  0  0  0  0  0  0  0
    6.1443  -13.1713   27.0732 C   0  0  0  0  0  0  0  0  0  0  0  0
    6.1707  -13.6768   25.7883 C   0  0  0  0  0  0  0  0  0  0  0  0
    8.3842  -15.8326   24.1287 C   0  0  0  0  0  0  0  0  0  0  0  0
    7.4658  -16.7169   24.2671 O   0  0  0  0  0  0  0  0  0  0  0  0
   10.8616  -18.4187   24.0828 C   0  0  0  0  0  0  0  0  0  0  0  0
   10.9996  -17.8907   25.5089 C   0  0  1  0  0  0  0  0  0  0  0  0
   12.2349  -17.2105   25.5442 O   0  0  0  0  0  0  0  0  0  0  0  0
    9.8699  -16.9865   25.8757 C   0  0  2  0  0  0  0  0  0  0  0  0
    9.5252  -15.9771   24.9483 N   0  0  0  0  0  0  0  0  0  0  0  0
    9.8823  -16.6157   27.3171 C   0  0  0  0  0  0  0  0  0  0  0  0
   10.0871  -17.6326   28.2892 O   0  0  0  0  0  0  0  0  0  0  0  0
    9.7317  -15.4894   27.8142 O   0  0  0  0  0  0  0  0  0  0  0  0
  2  1  1  6
  2  3  1  0
  2  4  1  0
  4  6  1  0
  4  5  1  1
  6  7  2  0
  8  9  1  0
  8  6  1  0
  9 10  1  1
 10 11  1  0
 11 16  2  0
 12 11  1  0
 12 13  2  0
 13 14  1  0
 14 15  2  0
 16 15  1  0
 17 18  2  0
 17  9  1  0
 20 19  1  6
 20 22  1  0
 21 20  1  0
 22 24  1  0
 22 23  1  6
 23 17  1  0
 24 25  1  0
 26 24  2  0
M  END
$$$$
