TFT.pdb
     RDKit          3D

 26 26  0  0  1  0  0  0  0  0999 V2000
    8.5313  -17.9854   18.5085 C   0  0  0  0  0  0  0  0  0  0  0  0
    8.5753  -17.6422   19.9798 C   0  0  1  0  0  0  0  0  0  0  0  0
    9.0180  -18.7371   20.6900 O   0  0  0  0  0  0  0  0  0  0  0  0
    9.4192  -16.4230   20.1658 C   0  0  2  0  0  0  0  0  0  0  0  0
   10.7740  -16.6097   19.7578 N   0  0  0  0  0  0  0  0  0  0  0  0
    9.3858  -15.9589   21.5874 C   0  0  0  0  0  0  0  0  0  0  0  0
   10.3363  -16.1684   22.3712 O   0  0  0  0  0  0  0  0  0  0  0  0
    8.2777  -15.2573   22.1244 N   0  0  0  0  0  0  0  0  0  0  0  0
    8.2619  -14.7282   23.4550 C   0  0  1  0  0  0  0  0  0  0  0  0
    7.2907  -13.6640   23.7262 C   0  0  0  0  0  0  0  0  0  0  0  0
    7.2439  -13.1182   25.0844 C   0  0  0  0  0  0  0  0  0  0  0  0
    8.3411  -12.5875   25.7423 C   0  0  0  0  0  0  0  0  0  0  0  0
    8.2615  -12.1015   27.0163 C   0  0  0  0  0  0  0  0  0  0  0  0
    7.0648  -12.1272   27.6922 C   0  0  0  0  0  0  0  0  0  0  0  0
    5.9494  -12.6459   27.0761 C   0  0  0  0  0  0  0  0  0  0  0  0
    6.0582  -13.1309   25.7875 C   0  0  0  0  0  0  0  0  0  0  0  0
    8.0776  -15.8740   24.3944 C   0  0  0  0  0  0  0  0  0  0  0  0
    6.9621  -16.5067   24.4002 O   0  0  0  0  0  0  0  0  0  0  0  0
    8.7625  -19.0307   24.1289 C   0  0  0  0  0  0  0  0  0  0  0  0
    9.5742  -18.7541   25.3924 C   0  0  1  0  0  0  0  0  0  0  0  0
   10.9154  -18.6518   24.9674 O   0  0  0  0  0  0  0  0  0  0  0  0
    9.1237  -17.5066   26.0771 C   0  0  2  0  0  0  0  0  0  0  0  0
    9.0635  -16.3292   25.2974 N   0  0  0  0  0  0  0  0  0  0  0  0
    9.6686  -17.3858   27.4569 C   0  0  0  0  0  0  0  0  0  0  0  0
   10.1732  -16.1300   27.8919 O   0  0  0  0  0  0  0  0  0  0  0  0
    9.7485  -18.2697   28.3234 O   0  0  0  0  0  0  0  0  0  0  0  0
  2  1  1  6
  2  3  1  0
  2  4  1  0
  4  6  1  0
  4  5  1  1
  6  7  2  0
  8  9  1  0
  8  6  1  0
  9 10  1  6
 10 11  1  0
 11 16  2  0
 12 11  1  0
 12 13  2  0
 13 14  1  0
 14 15  2  0
 16 15  1  0
 17 18  2  0
 17  9  1  0
 20 19  1  6
 20 22  1  0
 21 20  1  0
 22 24  1  0
 22 23  1  6
 23 17  1  0
 24 25  1  0
 26 24  2  0
M  END
$$$$
