TFT.pdb
     RDKit          3D

 26 26  0  0  1  0  0  0  0  0999 V2000
    7.6459  -18.2288   20.7626 C   0  0  0  0  0  0  0  0  0  0  0  0
    8.9203  -17.9374   20.0041 C   0  0  1  0  0  0  0  0  0  0  0  0
    8.8828  -18.5808   18.7859 O   0  0  0  0  0  0  0  0  0  0  0  0
    9.0904  -16.4566   19.8975 C   0  0  2  0  0  0  0  0  0  0  0  0
   10.1969  -16.0753   19.0806 N   0  0  0  0  0  0  0  0  0  0  0  0
    9.2310  -15.8337   21.2501 C   0  0  0  0  0  0  0  0  0  0  0  0
   10.3242  -15.8133   21.8555 O   0  0  0  0  0  0  0  0  0  0  0  0
    8.1359  -15.2331   21.9199 N   0  0  0  0  0  0  0  0  0  0  0  0
    8.2411  -14.6662   23.2307 C   0  0  1  0  0  0  0  0  0  0  0  0
    7.2402  -13.6576   23.5914 C   0  0  0  0  0  0  0  0  0  0  0  0
    7.2575  -13.1446   24.9630 C   0  0  0  0  0  0  0  0  0  0  0  0
    8.3381  -12.4888   25.5293 C   0  0  0  0  0  0  0  0  0  0  0  0
    8.3223  -12.0380   26.8185 C   0  0  0  0  0  0  0  0  0  0  0  0
    7.2099  -12.2278   27.6034 C   0  0  0  0  0  0  0  0  0  0  0  0
    6.1140  -12.8748   27.0808 C   0  0  0  0  0  0  0  0  0  0  0  0
    6.1570  -13.3205   25.7744 C   0  0  0  0  0  0  0  0  0  0  0  0
    8.2440  -15.7926   24.2109 C   0  0  0  0  0  0  0  0  0  0  0  0
    7.1638  -16.4554   24.4074 O   0  0  0  0  0  0  0  0  0  0  0  0
    9.9142  -18.9288   24.0330 C   0  0  0  0  0  0  0  0  0  0  0  0
   10.3619  -18.4274   25.4040 C   0  0  1  0  0  0  0  0  0  0  0  0
   11.7188  -18.0721   25.2540 O   0  0  0  0  0  0  0  0  0  0  0  0
    9.5431  -17.2669   25.8631 C   0  0  2  0  0  0  0  0  0  0  0  0
    9.3744  -16.1975   24.9544 N   0  0  0  0  0  0  0  0  0  0  0  0
    9.7960  -16.9199   27.2883 C   0  0  0  0  0  0  0  0  0  0  0  0
    9.8022  -17.9573   28.2602 O   0  0  0  0  0  0  0  0  0  0  0  0
   10.0125  -15.7982   27.7713 O   0  0  0  0  0  0  0  0  0  0  0  0
  2  1  1  6
  2  3  1  0
  2  4  1  0
  4  6  1  0
  4  5  1  6
  6  7  2  0
  8  9  1  0
  8  6  1  0
  9 10  1  1
 10 11  1  0
 11 16  2  0
 12 11  1  0
 12 13  2  0
 13 14  1  0
 14 15  2  0
 16 15  1  0
 17 18  2  0
 17  9  1  0
 20 19  1  6
 20 22  1  0
 21 20  1  0
 22 24  1  0
 22 23  1  6
 23 17  1  0
 24 25  1  0
 26 24  2  0
M  END
$$$$
