TFT.pdb
     RDKit          3D

 26 26  0  0  1  0  0  0  0  0999 V2000
    8.8906  -19.1354   19.3938 C   0  0  0  0  0  0  0  0  0  0  0  0
    9.0578  -18.3448   20.6711 C   0  0  1  0  0  0  0  0  0  0  0  0
   10.1071  -18.8668   21.3960 O   0  0  0  0  0  0  0  0  0  0  0  0
    9.2244  -16.9004   20.3262 C   0  0  2  0  0  0  0  0  0  0  0  0
   10.3729  -16.6442   19.5186 N   0  0  0  0  0  0  0  0  0  0  0  0
    9.2843  -16.0573   21.5603 C   0  0  0  0  0  0  0  0  0  0  0  0
   10.3705  -15.6654   22.0382 O   0  0  0  0  0  0  0  0  0  0  0  0
    8.1162  -15.6564   22.2556 N   0  0  0  0  0  0  0  0  0  0  0  0
    8.1553  -14.9578   23.5050 C   0  0  1  0  0  0  0  0  0  0  0  0
    6.9931  -14.1240   23.8269 C   0  0  0  0  0  0  0  0  0  0  0  0
    6.9833  -13.4455   25.1247 C   0  0  0  0  0  0  0  0  0  0  0  0
    6.1935  -13.8344   26.1941 C   0  0  0  0  0  0  0  0  0  0  0  0
    6.2005  -13.1662   27.3853 C   0  0  0  0  0  0  0  0  0  0  0  0
    7.0086  -12.0676   27.5568 C   0  0  0  0  0  0  0  0  0  0  0  0
    7.8093  -11.6467   26.5202 C   0  0  0  0  0  0  0  0  0  0  0  0
    7.7825  -12.3406   25.3264 C   0  0  0  0  0  0  0  0  0  0  0  0
    8.4054  -15.9654   24.5782 C   0  0  0  0  0  0  0  0  0  0  0  0
    7.4928  -16.8215   24.8593 O   0  0  0  0  0  0  0  0  0  0  0  0
   11.1368  -18.4540   24.6562 C   0  0  0  0  0  0  0  0  0  0  0  0
   11.2079  -17.8034   26.0358 C   0  0  1  0  0  0  0  0  0  0  0  0
   12.3795  -17.0177   26.0252 O   0  0  0  0  0  0  0  0  0  0  0  0
    9.9994  -16.9745   26.3194 C   0  0  2  0  0  0  0  0  0  0  0  0
    9.6015  -16.0534   25.3239 N   0  0  0  0  0  0  0  0  0  0  0  0
    9.9407  -16.5191   27.7352 C   0  0  0  0  0  0  0  0  0  0  0  0
   10.1429  -17.4682   28.7741 O   0  0  0  0  0  0  0  0  0  0  0  0
    9.7299  -15.3720   28.1573 O   0  0  0  0  0  0  0  0  0  0  0  0
  2  1  1  6
  2  3  1  0
  2  4  1  0
  4  6  1  0
  4  5  1  1
  6  7  2  0
  8  9  1  0
  8  6  1  0
  9 10  1  1
 10 11  1  0
 11 16  2  0
 12 11  1  0
 12 13  2  0
 13 14  1  0
 14 15  2  0
 16 15  1  0
 17 18  2  0
 17  9  1  0
 20 19  1  6
 20 22  1  0
 21 20  1  0
 22 24  1  0
 22 23  1  6
 23 17  1  0
 24 25  1  0
 26 24  2  0
M  END
$$$$
