TFT.pdb
     RDKit          3D

 26 26  0  0  1  0  0  0  0  0999 V2000
    8.1478  -20.1089   23.5526 C   0  0  0  0  0  0  0  0  0  0  0  0
    8.8071  -19.8657   22.2144 C   0  0  1  0  0  0  0  0  0  0  0  0
    8.6319  -20.9726   21.4124 O   0  0  0  0  0  0  0  0  0  0  0  0
    8.2587  -18.6051   21.6284 C   0  0  2  0  0  0  0  0  0  0  0  0
    8.7421  -18.3406   20.3118 N   0  0  0  0  0  0  0  0  0  0  0  0
    8.5483  -17.4326   22.5110 C   0  0  0  0  0  0  0  0  0  0  0  0
    9.6584  -16.8586   22.5006 O   0  0  0  0  0  0  0  0  0  0  0  0
    7.5831  -16.9077   23.4062 N   0  0  0  0  0  0  0  0  0  0  0  0
    7.8465  -15.7974   24.2713 C   0  0  1  0  0  0  0  0  0  0  0  0
    6.7253  -14.8899   24.5336 C   0  0  0  0  0  0  0  0  0  0  0  0
    6.9555  -13.7758   25.4559 C   0  0  0  0  0  0  0  0  0  0  0  0
    7.9110  -12.7929   25.2572 C   0  0  0  0  0  0  0  0  0  0  0  0
    8.1069  -11.7769   26.1489 C   0  0  0  0  0  0  0  0  0  0  0  0
    7.3446  -11.7026   27.2904 C   0  0  0  0  0  0  0  0  0  0  0  0
    6.3841  -12.6586   27.5273 C   0  0  0  0  0  0  0  0  0  0  0  0
    6.2071  -13.6751   26.6092 C   0  0  0  0  0  0  0  0  0  0  0  0
    8.4058  -16.3401   25.5450 C   0  0  0  0  0  0  0  0  0  0  0  0
    7.6613  -17.0626   26.2989 O   0  0  0  0  0  0  0  0  0  0  0  0
   11.4340  -18.5009   25.9217 C   0  0  0  0  0  0  0  0  0  0  0  0
   11.6445  -17.3765   26.9332 C   0  0  1  0  0  0  0  0  0  0  0  0
   12.6784  -16.5769   26.4026 O   0  0  0  0  0  0  0  0  0  0  0  0
   10.3980  -16.5834   27.1459 C   0  0  2  0  0  0  0  0  0  0  0  0
    9.7263  -16.1168   25.9931 N   0  0  0  0  0  0  0  0  0  0  0  0
   10.5076  -15.6485   28.2989 C   0  0  0  0  0  0  0  0  0  0  0  0
   10.9835  -16.1421   29.5442 O   0  0  0  0  0  0  0  0  0  0  0  0
   10.2287  -14.4404   28.3279 O   0  0  0  0  0  0  0  0  0  0  0  0
  2  1  1  1
  2  3  1  0
  2  4  1  0
  4  6  1  0
  4  5  1  6
  6  7  2  0
  8  9  1  0
  8  6  1  0
  9 10  1  1
 10 11  1  0
 11 16  2  0
 12 11  1  0
 12 13  2  0
 13 14  1  0
 14 15  2  0
 16 15  1  0
 17 18  2  0
 17  9  1  0
 20 19  1  6
 20 22  1  0
 21 20  1  0
 22 24  1  0
 22 23  1  6
 23 17  1  0
 24 25  1  0
 26 24  2  0
M  END
$$$$
