TFT.pdb
     RDKit          3D

 26 26  0  0  1  0  0  0  0  0999 V2000
    9.0728  -19.3591   19.4605 C   0  0  0  0  0  0  0  0  0  0  0  0
    9.2582  -18.5721   20.7375 C   0  0  1  0  0  0  0  0  0  0  0  0
   10.3835  -19.0243   21.3920 O   0  0  0  0  0  0  0  0  0  0  0  0
    9.3000  -17.1158   20.4049 C   0  0  2  0  0  0  0  0  0  0  0  0
   10.3718  -16.7700   19.5281 N   0  0  0  0  0  0  0  0  0  0  0  0
    9.3824  -16.2841   21.6454 C   0  0  0  0  0  0  0  0  0  0  0  0
   10.4668  -15.8160   22.0538 O   0  0  0  0  0  0  0  0  0  0  0  0
    8.2389  -15.9806   22.4257 N   0  0  0  0  0  0  0  0  0  0  0  0
    8.2907  -15.1546   23.5943 C   0  0  1  0  0  0  0  0  0  0  0  0
    7.0893  -14.3707   23.8972 C   0  0  0  0  0  0  0  0  0  0  0  0
    7.0928  -13.5703   25.1236 C   0  0  0  0  0  0  0  0  0  0  0  0
    7.7460  -12.3557   25.2519 C   0  0  0  0  0  0  0  0  0  0  0  0
    7.7393  -11.6449   26.4182 C   0  0  0  0  0  0  0  0  0  0  0  0
    7.0699  -12.1273   27.5177 C   0  0  0  0  0  0  0  0  0  0  0  0
    6.4077  -13.3302   27.4341 C   0  0  0  0  0  0  0  0  0  0  0  0
    6.4309  -14.0284   26.2427 C   0  0  0  0  0  0  0  0  0  0  0  0
    8.6665  -16.0261   24.7470 C   0  0  0  0  0  0  0  0  0  0  0  0
    7.8890  -16.9883   25.0850 O   0  0  0  0  0  0  0  0  0  0  0  0
   11.6895  -18.0648   24.9320 C   0  0  0  0  0  0  0  0  0  0  0  0
   11.6897  -17.3402   26.2762 C   0  0  1  0  0  0  0  0  0  0  0  0
   12.7415  -16.4030   26.2022 O   0  0  0  0  0  0  0  0  0  0  0  0
   10.3826  -16.6712   26.5442 C   0  0  2  0  0  0  0  0  0  0  0  0
    9.8443  -15.8711   25.5108 N   0  0  0  0  0  0  0  0  0  0  0  0
   10.2845  -16.1495   27.9347 C   0  0  0  0  0  0  0  0  0  0  0  0
   10.6415  -16.9991   29.0170 O   0  0  0  0  0  0  0  0  0  0  0  0
    9.9170  -15.0227   28.3003 O   0  0  0  0  0  0  0  0  0  0  0  0
  2  1  1  6
  2  3  1  0
  2  4  1  0
  4  6  1  0
  4  5  1  6
  6  7  2  0
  8  9  1  0
  8  6  1  0
  9 10  1  1
 10 11  1  0
 11 16  2  0
 12 11  1  0
 12 13  2  0
 13 14  1  0
 14 15  2  0
 16 15  1  0
 17 18  2  0
 17  9  1  0
 20 19  1  6
 20 22  1  0
 21 20  1  0
 22 24  1  0
 22 23  1  6
 23 17  1  0
 24 25  1  0
 26 24  2  0
M  END
$$$$
