TFT.pdb
     RDKit          3D

 26 26  0  0  1  0  0  0  0  0999 V2000
   10.0349  -19.7526   20.0580 C   0  0  0  0  0  0  0  0  0  0  0  0
   10.1126  -18.8843   21.2926 C   0  0  1  0  0  0  0  0  0  0  0  0
   11.3081  -19.1158   21.9379 O   0  0  0  0  0  0  0  0  0  0  0  0
    9.9107  -17.4585   20.8932 C   0  0  2  0  0  0  0  0  0  0  0  0
   10.8978  -16.9864   19.9767 N   0  0  0  0  0  0  0  0  0  0  0  0
    9.8755  -16.5649   22.0923 C   0  0  0  0  0  0  0  0  0  0  0  0
   10.9101  -16.0305   22.5461 O   0  0  0  0  0  0  0  0  0  0  0  0
    8.6706  -16.2746   22.7797 N   0  0  0  0  0  0  0  0  0  0  0  0
    8.6155  -15.4190   23.9266 C   0  0  1  0  0  0  0  0  0  0  0  0
    7.3627  -14.6881   24.1401 C   0  0  0  0  0  0  0  0  0  0  0  0
    7.2870  -13.7950   25.2983 C   0  0  0  0  0  0  0  0  0  0  0  0
    6.7910  -14.1734   26.5349 C   0  0  0  0  0  0  0  0  0  0  0  0
    6.7220  -13.3065   27.5881 C   0  0  0  0  0  0  0  0  0  0  0  0
    7.1524  -12.0090   27.4446 C   0  0  0  0  0  0  0  0  0  0  0  0
    7.6522  -11.5908   26.2330 C   0  0  0  0  0  0  0  0  0  0  0  0
    7.7104  -12.4880   25.1846 C   0  0  0  0  0  0  0  0  0  0  0  0
    8.9656  -16.2427   25.1218 C   0  0  0  0  0  0  0  0  0  0  0  0
    8.2337  -17.2515   25.4240 O   0  0  0  0  0  0  0  0  0  0  0  0
   11.9515  -18.1860   25.6126 C   0  0  0  0  0  0  0  0  0  0  0  0
   11.8773  -17.3985   26.9188 C   0  0  1  0  0  0  0  0  0  0  0  0
   12.9374  -16.4696   26.8630 O   0  0  0  0  0  0  0  0  0  0  0  0
   10.5609  -16.7130   27.0775 C   0  0  2  0  0  0  0  0  0  0  0  0
   10.0711  -15.9927   25.9643 N   0  0  0  0  0  0  0  0  0  0  0  0
   10.4018  -16.0893   28.4195 C   0  0  0  0  0  0  0  0  0  0  0  0
   10.6940  -16.8604   29.5775 O   0  0  0  0  0  0  0  0  0  0  0  0
   10.0319  -14.9352   28.6830 O   0  0  0  0  0  0  0  0  0  0  0  0
  2  1  1  6
  2  3  1  0
  2  4  1  0
  4  6  1  0
  4  5  1  6
  6  7  2  0
  8  9  1  0
  8  6  1  0
  9 10  1  1
 10 11  1  0
 11 16  2  0
 12 11  1  0
 12 13  2  0
 13 14  1  0
 14 15  2  0
 16 15  1  0
 17 18  2  0
 17  9  1  0
 20 19  1  6
 20 22  1  0
 21 20  1  0
 22 24  1  0
 22 23  1  6
 23 17  1  0
 24 25  1  0
 26 24  2  0
M  END
$$$$
