PKR.pdb
     RDKit          3D

 28 28  0  0  1  0  0  0  0  0999 V2000
   30.2219  -17.1011  -17.8950 N   0  0  0  0  0  0  0  0  0  0  0  0
   31.5658  -16.9085  -18.3626 C   0  0  0  0  0  0  0  0  0  0  0  0
   31.5654  -16.9899  -19.8495 C   0  0  0  0  0  0  0  0  0  0  0  0
   30.1375  -17.0988  -20.2611 C   0  0  0  0  0  0  0  0  0  0  0  0
   29.3417  -16.9836  -19.0038 C   0  0  1  0  0  0  0  0  0  0  0  0
   28.2950  -18.0694  -18.9203 C   0  0  0  0  0  0  0  0  0  0  0  0
   27.3481  -18.0797  -19.7483 O   0  0  0  0  0  0  0  0  0  0  0  0
   28.4199  -19.0367  -17.9116 N   0  0  0  0  0  0  0  0  0  0  0  0
   27.5411  -20.1517  -17.7088 C   0  0  1  0  0  0  0  0  0  0  0  0
   28.2712  -21.4509  -17.3445 C   0  0  0  0  0  0  0  0  0  0  0  0
   27.3423  -22.6330  -17.4270 C   0  0  0  0  0  0  0  0  0  0  0  0
   28.0915  -23.8918  -17.1083 C   0  0  0  0  0  0  0  0  0  0  0  0
   27.1796  -25.0855  -17.1339 C   0  0  0  0  0  0  0  0  0  0  0  0
   27.9158  -26.3027  -16.8688 N   0  0  0  0  0  0  0  0  0  0  0  0
   26.4139  -19.9167  -16.8161 C   0  0  0  0  0  0  0  0  0  0  0  0
   26.6089  -19.7915  -15.5643 O   0  0  0  0  0  0  0  0  0  0  0  0
   18.7546  -18.6725  -14.6541 N   0  0  0  0  0  0  0  0  0  0  0  0
   18.8215  -17.7976  -15.7811 C   0  0  0  0  0  0  0  0  0  0  0  0
   18.2209  -16.6801  -15.7202 N   0  0  0  0  0  0  0  0  0  0  0  0
   19.5470  -18.1907  -16.9269 N   0  0  0  0  0  0  0  0  0  0  0  0
   20.2453  -19.4384  -16.9471 C   0  0  0  0  0  0  0  0  0  0  0  0
   21.5228  -19.3318  -16.1366 C   0  0  0  0  0  0  0  0  0  0  0  0
   22.6758  -19.6651  -17.0761 C   0  0  0  0  0  0  0  0  0  0  0  0
   23.9793  -19.5759  -16.2845 C   0  0  2  0  0  0  0  0  0  0  0  0
   25.0645  -19.8112  -17.2412 N   0  0  0  0  0  0  0  0  0  0  0  0
   23.9248  -20.6468  -15.2587 C   0  0  0  0  0  0  0  0  0  0  0  0
   23.9232  -20.4207  -14.0401 O   0  0  0  0  0  0  0  0  0  0  0  0
   23.8732  -21.9671  -15.7175 O   0  0  0  0  0  0  0  0  0  0  0  0
  1  2  1  0
  3  2  1  0
  4  3  1  0
  5  4  1  0
  5  1  1  0
  6  8  1  0
  5  6  1  1
  7  6  2  0
  9  8  1  0
 10 11  1  0
  9 10  1  1
 12 11  1  0
 13 14  1  0
 13 12  1  0
 15 16  2  0
 15  9  1  0
 17 18  1  0
 18 19  2  0
 20 18  1  0
 20 21  1  0
 21 22  1  0
 22 23  1  0
 24 23  1  6
 24 25  1  0
 24 26  1  0
 25 15  1  0
 26 28  1  0
 27 26  2  0
M  END
$$$$
