PKR.pdb
     RDKit          3D

 28 28  0  0  1  0  0  0  0  0999 V2000
   27.0529  -20.1005  -18.3172 N   0  0  0  0  0  0  0  0  0  0  0  0
   27.9009  -19.6922  -19.4016 C   0  0  0  0  0  0  0  0  0  0  0  0
   28.8980  -18.7165  -18.8806 C   0  0  0  0  0  0  0  0  0  0  0  0
   28.7000  -18.6652  -17.4047 C   0  0  0  0  0  0  0  0  0  0  0  0
   27.6535  -19.6844  -17.0989 C   0  0  1  0  0  0  0  0  0  0  0  0
   26.5878  -19.1156  -16.1922 C   0  0  0  0  0  0  0  0  0  0  0  0
   26.9197  -18.6154  -15.0868 O   0  0  0  0  0  0  0  0  0  0  0  0
   25.2530  -19.1666  -16.6220 N   0  0  0  0  0  0  0  0  0  0  0  0
   24.1159  -18.7150  -15.8740 C   0  0  1  0  0  0  0  0  0  0  0  0
   23.0656  -17.9938  -16.7286 C   0  0  0  0  0  0  0  0  0  0  0  0
   23.7155  -17.0120  -17.6671 C   0  0  0  0  0  0  0  0  0  0  0  0
   22.6832  -16.4202  -18.5789 C   0  0  0  0  0  0  0  0  0  0  0  0
   23.3085  -15.4676  -19.5582 C   0  0  0  0  0  0  0  0  0  0  0  0
   23.6902  -14.2338  -18.9055 N   0  0  0  0  0  0  0  0  0  0  0  0
   23.4937  -19.7057  -15.0056 C   0  0  0  0  0  0  0  0  0  0  0  0
   22.8769  -20.6977  -15.5118 O   0  0  0  0  0  0  0  0  0  0  0  0
   20.2138  -21.2276   -8.5373 N   0  0  0  0  0  0  0  0  0  0  0  0
   21.0606  -22.1660   -7.8720 C   0  0  0  0  0  0  0  0  0  0  0  0
   20.5395  -22.9727   -7.0409 N   0  0  0  0  0  0  0  0  0  0  0  0
   22.4447  -22.1758   -8.1505 N   0  0  0  0  0  0  0  0  0  0  0  0
   23.0123  -21.1993   -9.0274 C   0  0  0  0  0  0  0  0  0  0  0  0
   22.5344  -21.4358  -10.4472 C   0  0  0  0  0  0  0  0  0  0  0  0
   23.2058  -20.3854  -11.3243 C   0  0  0  0  0  0  0  0  0  0  0  0
   22.8202  -20.6577  -12.7772 C   0  0  2  0  0  0  0  0  0  0  0  0
   23.5186  -19.6562  -13.5880 N   0  0  0  0  0  0  0  0  0  0  0  0
   21.3485  -20.4881  -12.8627 C   0  0  0  0  0  0  0  0  0  0  0  0
   20.5439  -21.3914  -12.5935 O   0  0  0  0  0  0  0  0  0  0  0  0
   20.8735  -19.2371  -13.2698 O   0  0  0  0  0  0  0  0  0  0  0  0
  1  2  1  0
  3  2  1  0
  4  3  1  0
  5  4  1  0
  5  1  1  0
  6  8  1  0
  5  6  1  1
  7  6  2  0
  9  8  1  0
 10 11  1  0
  9 10  1  6
 12 11  1  0
 13 14  1  0
 13 12  1  0
 15 16  2  0
 15  9  1  0
 17 18  1  0
 18 19  2  0
 20 18  1  0
 20 21  1  0
 21 22  1  0
 22 23  1  0
 24 23  1  1
 24 25  1  0
 24 26  1  0
 25 15  1  0
 26 28  1  0
 27 26  2  0
M  END
$$$$
