PKR.pdb
     RDKit          3D

 28 28  0  0  1  0  0  0  0  0999 V2000
   27.2617  -20.5688  -16.9434 N   0  0  0  0  0  0  0  0  0  0  0  0
   28.6103  -20.2867  -17.3478 C   0  0  0  0  0  0  0  0  0  0  0  0
   29.4306  -21.5131  -17.1465 C   0  0  0  0  0  0  0  0  0  0  0  0
   28.4825  -22.5869  -16.7364 C   0  0  0  0  0  0  0  0  0  0  0  0
   27.1226  -21.9755  -16.8014 C   0  0  1  0  0  0  0  0  0  0  0  0
   26.3328  -22.2693  -15.5478 C   0  0  0  0  0  0  0  0  0  0  0  0
   26.1336  -23.4642  -15.2091 O   0  0  0  0  0  0  0  0  0  0  0  0
   25.8462  -21.1864  -14.7998 N   0  0  0  0  0  0  0  0  0  0  0  0
   25.1481  -21.2795  -13.5506 C   0  0  1  0  0  0  0  0  0  0  0  0
   25.7526  -20.4072  -12.4427 C   0  0  0  0  0  0  0  0  0  0  0  0
   25.1445  -20.7360  -11.1051 C   0  0  0  0  0  0  0  0  0  0  0  0
   25.7542  -19.8714  -10.0429 C   0  0  0  0  0  0  0  0  0  0  0  0
   25.1644  -20.1737   -8.6946 C   0  0  0  0  0  0  0  0  0  0  0  0
   26.1797  -20.6587   -7.7846 N   0  0  0  0  0  0  0  0  0  0  0  0
   23.7023  -21.1128  -13.6179 C   0  0  0  0  0  0  0  0  0  0  0  0
   23.2041  -20.1309  -14.2569 O   0  0  0  0  0  0  0  0  0  0  0  0
   18.4907  -25.6459   -9.1037 N   0  0  0  0  0  0  0  0  0  0  0  0
   17.7354  -25.4361  -10.2978 C   0  0  0  0  0  0  0  0  0  0  0  0
   16.6242  -26.0373  -10.4281 N   0  0  0  0  0  0  0  0  0  0  0  0
   18.2361  -24.5733  -11.2970 N   0  0  0  0  0  0  0  0  0  0  0  0
   18.5373  -23.2098  -10.9896 C   0  0  0  0  0  0  0  0  0  0  0  0
   19.1589  -22.5306  -12.1948 C   0  0  0  0  0  0  0  0  0  0  0  0
   20.6711  -22.6222  -12.0275 C   0  0  0  0  0  0  0  0  0  0  0  0
   21.3243  -21.7369  -13.0873 C   0  0  2  0  0  0  0  0  0  0  0  0
   22.7663  -21.9870  -13.0076 N   0  0  0  0  0  0  0  0  0  0  0  0
   21.0006  -20.3348  -12.7247 C   0  0  0  0  0  0  0  0  0  0  0  0
   20.2076  -19.6326  -13.3681 O   0  0  0  0  0  0  0  0  0  0  0  0
   21.6359  -19.8051  -11.5967 O   0  0  0  0  0  0  0  0  0  0  0  0
  1  2  1  0
  3  2  1  0
  4  3  1  0
  5  4  1  0
  5  1  1  0
  6  8  1  0
  5  6  1  1
  7  6  2  0
  9  8  1  0
 10 11  1  0
  9 10  1  1
 12 11  1  0
 13 14  1  0
 13 12  1  0
 15 16  2  0
 15  9  1  0
 17 18  1  0
 18 19  2  0
 20 18  1  0
 20 21  1  0
 21 22  1  0
 22 23  1  0
 24 23  1  1
 24 25  1  0
 24 26  1  0
 25 15  1  0
 26 28  1  0
 27 26  2  0
M  END
$$$$
