PKR.pdb
     RDKit          3D

 28 28  0  0  1  0  0  0  0  0999 V2000
   29.1191  -21.8074  -12.3703 N   0  0  0  0  0  0  0  0  0  0  0  0
   30.4694  -21.6281  -11.9158 C   0  0  0  0  0  0  0  0  0  0  0  0
   30.4443  -20.8162  -10.6677 C   0  0  0  0  0  0  0  0  0  0  0  0
   29.0077  -20.6361  -10.3156 C   0  0  0  0  0  0  0  0  0  0  0  0
   28.2401  -21.4292  -11.3203 C   0  0  1  0  0  0  0  0  0  0  0  0
   27.1014  -20.6215  -11.8969 C   0  0  0  0  0  0  0  0  0  0  0  0
   26.3153  -20.0203  -11.1204 O   0  0  0  0  0  0  0  0  0  0  0  0
   26.9619  -20.5712  -13.2922 N   0  0  0  0  0  0  0  0  0  0  0  0
   25.9403  -19.8611  -14.0054 C   0  0  1  0  0  0  0  0  0  0  0  0
   26.3552  -19.4482  -15.4235 C   0  0  0  0  0  0  0  0  0  0  0  0
   27.4308  -18.3952  -15.3858 C   0  0  0  0  0  0  0  0  0  0  0  0
   27.9277  -18.1257  -16.7742 C   0  0  0  0  0  0  0  0  0  0  0  0
   29.0143  -17.0882  -16.7682 C   0  0  0  0  0  0  0  0  0  0  0  0
   29.5753  -16.9212  -18.0916 N   0  0  0  0  0  0  0  0  0  0  0  0
   24.6206  -20.4782  -14.0049 C   0  0  0  0  0  0  0  0  0  0  0  0
   24.4992  -21.7210  -14.2526 O   0  0  0  0  0  0  0  0  0  0  0  0
   18.1066  -23.0406  -10.6726 N   0  0  0  0  0  0  0  0  0  0  0  0
   19.1588  -22.6642   -9.7830 C   0  0  0  0  0  0  0  0  0  0  0  0
   19.4011  -23.4045   -8.7798 N   0  0  0  0  0  0  0  0  0  0  0  0
   19.8990  -21.4888  -10.0362 N   0  0  0  0  0  0  0  0  0  0  0  0
   19.4693  -20.5668  -11.0410 C   0  0  0  0  0  0  0  0  0  0  0  0
   20.1167  -20.9072  -12.3696 C   0  0  0  0  0  0  0  0  0  0  0  0
   21.4747  -20.2155  -12.3939 C   0  0  0  0  0  0  0  0  0  0  0  0
   22.1178  -20.4713  -13.7558 C   0  0  2  0  0  0  0  0  0  0  0  0
   23.4120  -19.7836  -13.7409 N   0  0  0  0  0  0  0  0  0  0  0  0
   21.2078  -19.8834  -14.7699 C   0  0  0  0  0  0  0  0  0  0  0  0
   21.2189  -18.6830  -15.0780 O   0  0  0  0  0  0  0  0  0  0  0  0
   20.3033  -20.7494  -15.3931 O   0  0  0  0  0  0  0  0  0  0  0  0
  1  2  1  0
  3  2  1  0
  4  3  1  0
  5  4  1  0
  5  1  1  0
  6  8  1  0
  5  6  1  6
  7  6  2  0
  9  8  1  0
 10 11  1  0
  9 10  1  6
 12 11  1  0
 13 14  1  0
 13 12  1  0
 15 16  2  0
 15  9  1  0
 17 18  1  0
 18 19  2  0
 20 18  1  0
 20 21  1  0
 21 22  1  0
 22 23  1  0
 24 23  1  1
 24 25  1  0
 24 26  1  0
 25 15  1  0
 26 28  1  0
 27 26  2  0
M  END
$$$$
