VWW.pdb
     RDKit          3D

 36 39  0  0  1  0  0  0  0  0999 V2000
   27.4169  -19.6963  -17.9586 C   0  0  0  0  0  0  0  0  0  0  0  0
   28.8598  -19.5838  -17.4901 C   0  0  2  0  0  0  0  0  0  0  0  0
   29.7433  -20.2820  -18.4941 C   0  0  0  0  0  0  0  0  0  0  0  0
   28.9897  -20.3322  -16.1768 C   0  0  2  0  0  0  0  0  0  0  0  0
   28.5288  -21.6834  -16.3867 N   0  0  0  0  0  0  0  0  0  0  0  0
   28.1625  -19.7084  -15.1181 C   0  0  0  0  0  0  0  0  0  0  0  0
   28.3986  -18.5260  -14.7702 O   0  0  0  0  0  0  0  0  0  0  0  0
   27.1232  -20.4854  -14.5336 N   0  0  0  0  0  0  0  0  0  0  0  0
   26.3117  -19.9309  -13.4977 C   0  0  1  0  0  0  0  0  0  0  0  0
   24.8617  -19.7898  -13.8914 C   0  0  0  0  0  0  0  0  0  0  0  0
   24.6407  -18.8518  -14.9824 C   0  0  0  0  0  0  0  0  0  0  0  0
   24.3954  -19.1404  -16.2898 C   0  0  0  0  0  0  0  0  0  0  0  0
   24.2435  -18.0029  -17.0033 N   0  0  0  0  0  0  0  0  0  0  0  0
   24.3930  -16.9555  -16.1430 C   0  0  0  0  0  0  0  0  0  0  0  0
   24.3345  -15.5924  -16.3512 C   0  0  0  0  0  0  0  0  0  0  0  0
   24.5354  -14.7954  -15.2400 C   0  0  0  0  0  0  0  0  0  0  0  0
   24.7807  -15.2879  -13.9892 C   0  0  0  0  0  0  0  0  0  0  0  0
   24.8361  -16.6469  -13.7972 C   0  0  0  0  0  0  0  0  0  0  0  0
   24.6421  -17.4786  -14.8753 C   0  0  0  0  0  0  0  0  0  0  0  0
   26.3376  -20.8849  -12.3437 C   0  0  0  0  0  0  0  0  0  0  0  0
   26.4662  -22.1266  -12.5610 O   0  0  0  0  0  0  0  0  0  0  0  0
   26.2247  -20.4607  -11.0096 N   0  0  0  0  0  0  0  0  0  0  0  0
   26.2976  -21.4482   -9.9282 C   0  0  1  0  0  0  0  0  0  0  0  0
   27.6311  -21.3658   -9.2297 C   0  0  0  0  0  0  0  0  0  0  0  0
   27.5885  -20.2370   -8.2654 C   0  0  0  0  0  0  0  0  0  0  0  0
   26.8710  -19.0555   -8.4361 C   0  0  0  0  0  0  0  0  0  0  0  0
   27.0727  -18.2693   -7.3681 N   0  0  0  0  0  0  0  0  0  0  0  0
   27.8944  -18.8710   -6.4870 C   0  0  0  0  0  0  0  0  0  0  0  0
   28.3940  -18.4814   -5.2608 C   0  0  0  0  0  0  0  0  0  0  0  0
   29.2367  -19.3089   -4.5489 C   0  0  0  0  0  0  0  0  0  0  0  0
   29.5484  -20.5258   -5.1168 C   0  0  0  0  0  0  0  0  0  0  0  0
   29.0519  -20.9282   -6.3490 C   0  0  0  0  0  0  0  0  0  0  0  0
   28.2159  -20.0943   -7.0437 C   0  0  0  0  0  0  0  0  0  0  0  0
   25.1693  -21.2720   -8.9828 C   0  0  0  0  0  0  0  0  0  0  0  0
   25.1050  -21.9792   -7.9372 O   0  0  0  0  0  0  0  0  0  0  0  0
   24.1562  -20.3557   -9.1821 O   0  0  0  0  0  0  0  0  0  0  0  0
  2  1  1  6
  3  2  1  0
  4  6  1  0
  4  5  1  6
  4  2  1  0
  6  7  2  0
  8  9  1  0
  8  6  1  0
  9 20  1  0
 10 11  1  0
  9 10  1  6
 11 19  1  0
 12 11  2  0
 12 13  1  0
 13 14  1  0
 14 15  2  0
 15 16  1  0
 17 16  2  0
 18 17  1  0
 19 18  2  0
 19 14  1  0
 20 21  2  0
 20 22  1  0
 22 23  1  0
 23 34  1  0
 23 24  1  1
 25 24  1  0
 26 25  2  0
 27 28  1  0
 27 26  1  0
 28 33  2  0
 29 28  1  0
 29 30  2  0
 30 31  1  0
 31 32  2  0
 33 25  1  0
 33 32  1  0
 34 35  2  0
 34 36  1  0
M  END
$$$$
