VWW.pdb
     RDKit          3D

 36 39  0  0  1  0  0  0  0  0999 V2000
   29.0679  -21.5085  -14.6516 C   0  0  0  0  0  0  0  0  0  0  0  0
   28.8798  -20.5411  -15.8105 C   0  0  2  0  0  0  0  0  0  0  0  0
   29.4812  -19.2122  -15.4253 C   0  0  0  0  0  0  0  0  0  0  0  0
   27.3912  -20.3231  -16.0068 C   0  0  2  0  0  0  0  0  0  0  0  0
   27.2163  -19.4145  -17.1140 N   0  0  0  0  0  0  0  0  0  0  0  0
   26.7714  -19.7258  -14.8012 C   0  0  0  0  0  0  0  0  0  0  0  0
   26.9270  -18.5018  -14.5723 O   0  0  0  0  0  0  0  0  0  0  0  0
   26.0170  -20.5751  -13.9439 N   0  0  0  0  0  0  0  0  0  0  0  0
   25.4377  -20.0521  -12.7481 C   0  0  1  0  0  0  0  0  0  0  0  0
   23.9289  -20.0851  -12.7562 C   0  0  0  0  0  0  0  0  0  0  0  0
   23.3364  -19.4439  -13.9210 C   0  0  0  0  0  0  0  0  0  0  0  0
   22.5344  -20.0102  -14.8635 C   0  0  0  0  0  0  0  0  0  0  0  0
   22.1808  -19.0957  -15.7934 N   0  0  0  0  0  0  0  0  0  0  0  0
   22.7645  -17.9125  -15.4482 C   0  0  0  0  0  0  0  0  0  0  0  0
   22.7287  -16.6712  -16.0504 C   0  0  0  0  0  0  0  0  0  0  0  0
   23.4464  -15.6684  -15.4263 C   0  0  0  0  0  0  0  0  0  0  0  0
   24.1638  -15.8528  -14.2779 C   0  0  0  0  0  0  0  0  0  0  0  0
   24.1902  -17.0939  -13.6899 C   0  0  0  0  0  0  0  0  0  0  0  0
   23.4901  -18.1221  -14.2768 C   0  0  0  0  0  0  0  0  0  0  0  0
   25.8661  -20.9333  -11.6155 C   0  0  0  0  0  0  0  0  0  0  0  0
   26.3025  -22.0976  -11.8590 O   0  0  0  0  0  0  0  0  0  0  0  0
   25.8062  -20.5223  -10.2739 N   0  0  0  0  0  0  0  0  0  0  0  0
   26.2314  -21.4439   -9.2156 C   0  0  1  0  0  0  0  0  0  0  0  0
   27.6698  -21.1890   -8.8428 C   0  0  0  0  0  0  0  0  0  0  0  0
   27.7032  -20.1643   -7.7683 C   0  0  0  0  0  0  0  0  0  0  0  0
   27.0443  -18.9377   -7.8012 C   0  0  0  0  0  0  0  0  0  0  0  0
   27.3059  -18.2761   -6.6640 N   0  0  0  0  0  0  0  0  0  0  0  0
   28.1117  -19.0047   -5.8682 C   0  0  0  0  0  0  0  0  0  0  0  0
   28.6533  -18.7680   -4.6209 C   0  0  0  0  0  0  0  0  0  0  0  0
   29.4653  -19.7046   -4.0168 C   0  0  0  0  0  0  0  0  0  0  0  0
   29.7035  -20.8707   -4.7124 C   0  0  0  0  0  0  0  0  0  0  0  0
   29.1643  -21.1197   -5.9671 C   0  0  0  0  0  0  0  0  0  0  0  0
   28.3595  -20.1787   -6.5536 C   0  0  0  0  0  0  0  0  0  0  0  0
   25.3322  -21.3419   -8.0414 C   0  0  0  0  0  0  0  0  0  0  0  0
   25.5780  -22.0109   -6.9975 O   0  0  0  0  0  0  0  0  0  0  0  0
   24.2108  -20.5372   -8.0196 O   0  0  0  0  0  0  0  0  0  0  0  0
  2  1  1  1
  3  2  1  0
  4  6  1  0
  4  5  1  6
  4  2  1  0
  6  7  2  0
  8  9  1  0
  8  6  1  0
  9 20  1  0
 10 11  1  0
  9 10  1  6
 11 19  1  0
 12 11  2  0
 12 13  1  0
 13 14  1  0
 14 15  2  0
 15 16  1  0
 17 16  2  0
 18 17  1  0
 19 18  2  0
 19 14  1  0
 20 21  2  0
 20 22  1  0
 22 23  1  0
 23 34  1  0
 23 24  1  1
 25 24  1  0
 26 25  2  0
 27 28  1  0
 27 26  1  0
 28 33  2  0
 29 28  1  0
 29 30  2  0
 30 31  1  0
 31 32  2  0
 33 25  1  0
 33 32  1  0
 34 35  2  0
 34 36  1  0
M  END
$$$$
