VWW.pdb
     RDKit          3D

 36 39  0  0  1  0  0  0  0  0999 V2000
   29.2491  -21.0055  -14.7465 C   0  0  0  0  0  0  0  0  0  0  0  0
   28.6147  -21.9383  -15.7670 C   0  0  2  0  0  0  0  0  0  0  0  0
   29.1873  -21.6195  -17.1258 C   0  0  0  0  0  0  0  0  0  0  0  0
   27.1285  -21.6381  -15.8215 C   0  0  2  0  0  0  0  0  0  0  0  0
   26.9673  -20.2530  -16.1928 N   0  0  0  0  0  0  0  0  0  0  0  0
   26.4875  -21.8530  -14.5034 C   0  0  0  0  0  0  0  0  0  0  0  0
   26.5121  -22.9966  -13.9872 O   0  0  0  0  0  0  0  0  0  0  0  0
   25.8640  -20.7409  -13.8713 N   0  0  0  0  0  0  0  0  0  0  0  0
   25.3477  -20.8683  -12.5461 C   0  0  1  0  0  0  0  0  0  0  0  0
   25.9941  -19.9222  -11.5640 C   0  0  0  0  0  0  0  0  0  0  0  0
   27.1473  -20.4884  -10.8793 C   0  0  0  0  0  0  0  0  0  0  0  0
   28.2021  -21.1466  -11.4331 C   0  0  0  0  0  0  0  0  0  0  0  0
   29.0777  -21.5242  -10.4756 N   0  0  0  0  0  0  0  0  0  0  0  0
   28.5821  -21.1034   -9.2769 C   0  0  0  0  0  0  0  0  0  0  0  0
   29.0762  -21.2284   -7.9944 C   0  0  0  0  0  0  0  0  0  0  0  0
   28.3073  -20.6769   -6.9869 C   0  0  0  0  0  0  0  0  0  0  0  0
   27.1201  -20.0362   -7.2048 C   0  0  0  0  0  0  0  0  0  0  0  0
   26.6409  -19.9195   -8.4868 C   0  0  0  0  0  0  0  0  0  0  0  0
   27.3733  -20.4538   -9.5211 C   0  0  0  0  0  0  0  0  0  0  0  0
   23.8977  -20.4960  -12.5881 C   0  0  0  0  0  0  0  0  0  0  0  0
   23.5675  -19.2804  -12.7250 O   0  0  0  0  0  0  0  0  0  0  0  0
   22.8698  -21.4470  -12.4817 N   0  0  0  0  0  0  0  0  0  0  0  0
   21.4714  -21.0077  -12.5198 C   0  0  1  0  0  0  0  0  0  0  0  0
   21.1861  -20.2721  -13.8045 C   0  0  0  0  0  0  0  0  0  0  0  0
   21.5250  -21.1638  -14.9429 C   0  0  0  0  0  0  0  0  0  0  0  0
   21.4188  -22.5525  -14.9405 C   0  0  0  0  0  0  0  0  0  0  0  0
   21.8144  -23.0182  -16.1347 N   0  0  0  0  0  0  0  0  0  0  0  0
   22.1817  -22.0029  -16.9395 C   0  0  0  0  0  0  0  0  0  0  0  0
   22.6519  -21.9637  -18.2366 C   0  0  0  0  0  0  0  0  0  0  0  0
   22.9597  -20.7613  -18.8377 C   0  0  0  0  0  0  0  0  0  0  0  0
   22.7757  -19.6195  -18.0876 C   0  0  0  0  0  0  0  0  0  0  0  0
   22.3034  -19.6467  -16.7826 C   0  0  0  0  0  0  0  0  0  0  0  0
   22.0023  -20.8496  -16.1998 C   0  0  0  0  0  0  0  0  0  0  0  0
   20.5566  -22.1588  -12.3299 C   0  0  0  0  0  0  0  0  0  0  0  0
   21.0148  -23.3367  -12.3318 O   0  0  0  0  0  0  0  0  0  0  0  0
   19.1960  -22.0166  -12.1458 O   0  0  0  0  0  0  0  0  0  0  0  0
  2  1  1  1
  3  2  1  0
  4  6  1  0
  4  5  1  1
  4  2  1  0
  6  7  2  0
  8  9  1  0
  8  6  1  0
  9 20  1  0
 10 11  1  0
  9 10  1  1
 11 19  1  0
 12 11  2  0
 12 13  1  0
 13 14  1  0
 14 15  2  0
 15 16  1  0
 17 16  2  0
 18 17  1  0
 19 18  2  0
 19 14  1  0
 20 21  2  0
 20 22  1  0
 22 23  1  0
 23 34  1  0
 23 24  1  6
 25 24  1  0
 26 25  2  0
 27 28  1  0
 27 26  1  0
 28 33  2  0
 29 28  1  0
 29 30  2  0
 30 31  1  0
 31 32  2  0
 33 25  1  0
 33 32  1  0
 34 35  2  0
 34 36  1  0
M  END
$$$$
