VWW.pdb
     RDKit          3D

 36 39  0  0  1  0  0  0  0  0999 V2000
   26.9632  -26.4820  -18.4018 C   0  0  0  0  0  0  0  0  0  0  0  0
   26.9989  -25.5790  -17.1780 C   0  0  2  0  0  0  0  0  0  0  0  0
   25.7023  -24.8104  -17.1142 C   0  0  0  0  0  0  0  0  0  0  0  0
   28.1140  -24.5683  -17.3693 C   0  0  2  0  0  0  0  0  0  0  0  0
   29.3716  -25.2540  -17.1945 N   0  0  0  0  0  0  0  0  0  0  0  0
   28.0272  -23.4762  -16.3723 C   0  0  0  0  0  0  0  0  0  0  0  0
   28.2649  -23.7253  -15.1655 O   0  0  0  0  0  0  0  0  0  0  0  0
   27.6739  -22.1759  -16.8304 N   0  0  0  0  0  0  0  0  0  0  0  0
   27.5898  -21.0904  -15.9066 C   0  0  1  0  0  0  0  0  0  0  0  0
   27.4134  -19.7511  -16.5794 C   0  0  0  0  0  0  0  0  0  0  0  0
   27.1769  -18.6564  -15.6495 C   0  0  0  0  0  0  0  0  0  0  0  0
   27.9859  -18.2343  -14.6396 C   0  0  0  0  0  0  0  0  0  0  0  0
   27.4261  -17.1882  -13.9928 N   0  0  0  0  0  0  0  0  0  0  0  0
   26.2306  -16.9258  -14.5940 C   0  0  0  0  0  0  0  0  0  0  0  0
   25.2698  -15.9711  -14.3291 C   0  0  0  0  0  0  0  0  0  0  0  0
   24.1555  -15.9823  -15.1468 C   0  0  0  0  0  0  0  0  0  0  0  0
   23.9758  -16.8703  -16.1698 C   0  0  0  0  0  0  0  0  0  0  0  0
   24.9407  -17.8149  -16.4216 C   0  0  0  0  0  0  0  0  0  0  0  0
   26.0670  -17.8409  -15.6325 C   0  0  0  0  0  0  0  0  0  0  0  0
   26.3638  -21.3005  -15.0726 C   0  0  0  0  0  0  0  0  0  0  0  0
   25.3162  -21.7716  -15.6076 O   0  0  0  0  0  0  0  0  0  0  0  0
   26.3203  -20.9955  -13.7024 N   0  0  0  0  0  0  0  0  0  0  0  0
   25.1180  -21.3179  -12.9275 C   0  0  1  0  0  0  0  0  0  0  0  0
   25.4926  -21.9888  -11.6303 C   0  0  0  0  0  0  0  0  0  0  0  0
   26.1834  -20.9955  -10.7690 C   0  0  0  0  0  0  0  0  0  0  0  0
   25.5580  -19.9968  -10.0263 C   0  0  0  0  0  0  0  0  0  0  0  0
   26.4953  -19.2900   -9.3771 N   0  0  0  0  0  0  0  0  0  0  0  0
   27.7232  -19.7703   -9.6509 C   0  0  0  0  0  0  0  0  0  0  0  0
   28.9854  -19.3955   -9.2369 C   0  0  0  0  0  0  0  0  0  0  0  0
   30.1017  -20.0739   -9.6790 C   0  0  0  0  0  0  0  0  0  0  0  0
   29.8940  -21.1290  -10.5415 C   0  0  0  0  0  0  0  0  0  0  0  0
   28.6295  -21.5151  -10.9645 C   0  0  0  0  0  0  0  0  0  0  0  0
   27.5307  -20.8305  -10.5161 C   0  0  0  0  0  0  0  0  0  0  0  0
   24.2998  -20.1024  -12.7023 C   0  0  0  0  0  0  0  0  0  0  0  0
   23.0964  -20.2108  -12.3314 O   0  0  0  0  0  0  0  0  0  0  0  0
   24.7878  -18.8231  -12.8785 O   0  0  0  0  0  0  0  0  0  0  0  0
  2  1  1  6
  3  2  1  0
  4  6  1  0
  4  5  1  1
  4  2  1  0
  6  7  2  0
  8  9  1  0
  8  6  1  0
  9 20  1  0
 10 11  1  0
  9 10  1  6
 11 19  1  0
 12 11  2  0
 12 13  1  0
 13 14  1  0
 14 15  2  0
 15 16  1  0
 17 16  2  0
 18 17  1  0
 19 18  2  0
 19 14  1  0
 20 21  2  0
 20 22  1  0
 22 23  1  0
 23 34  1  0
 23 24  1  1
 25 24  1  0
 26 25  2  0
 27 28  1  0
 27 26  1  0
 28 33  2  0
 29 28  1  0
 29 30  2  0
 30 31  1  0
 31 32  2  0
 33 25  1  0
 33 32  1  0
 34 35  2  0
 34 36  1  0
M  END
$$$$
