VWW.pdb
     RDKit          3D

 36 39  0  0  1  0  0  0  0  0999 V2000
   28.8976  -18.8227  -15.4482 C   0  0  0  0  0  0  0  0  0  0  0  0
   28.3783  -19.4703  -16.7229 C   0  0  2  0  0  0  0  0  0  0  0  0
   29.3724  -19.2129  -17.8282 C   0  0  0  0  0  0  0  0  0  0  0  0
   27.0840  -18.7799  -17.1100 C   0  0  2  0  0  0  0  0  0  0  0  0
   27.4021  -17.4321  -17.5155 N   0  0  0  0  0  0  0  0  0  0  0  0
   26.1429  -18.7213  -15.9674 C   0  0  0  0  0  0  0  0  0  0  0  0
   26.1918  -17.7452  -15.1802 O   0  0  0  0  0  0  0  0  0  0  0  0
   25.2127  -19.7866  -15.8092 N   0  0  0  0  0  0  0  0  0  0  0  0
   24.3058  -19.7863  -14.7061 C   0  0  1  0  0  0  0  0  0  0  0  0
   22.9403  -20.3224  -15.0607 C   0  0  0  0  0  0  0  0  0  0  0  0
   21.9828  -20.2526  -13.9664 C   0  0  0  0  0  0  0  0  0  0  0  0
   21.4167  -19.1385  -13.4272 C   0  0  0  0  0  0  0  0  0  0  0  0
   20.5746  -19.4750  -12.4254 N   0  0  0  0  0  0  0  0  0  0  0  0
   20.5942  -20.8338  -12.3117 C   0  0  0  0  0  0  0  0  0  0  0  0
   19.9242  -21.6843  -11.4558 C   0  0  0  0  0  0  0  0  0  0  0  0
   20.1783  -23.0338  -11.6127 C   0  0  0  0  0  0  0  0  0  0  0  0
   21.0363  -23.5391  -12.5485 C   0  0  0  0  0  0  0  0  0  0  0  0
   21.6962  -22.6803  -13.3935 C   0  0  0  0  0  0  0  0  0  0  0  0
   21.4737  -21.3284  -13.2732 C   0  0  0  0  0  0  0  0  0  0  0  0
   24.8581  -20.7122  -13.6667 C   0  0  0  0  0  0  0  0  0  0  0  0
   25.7506  -21.5523  -13.9877 O   0  0  0  0  0  0  0  0  0  0  0  0
   24.4263  -20.6921  -12.3304 N   0  0  0  0  0  0  0  0  0  0  0  0
   25.3944  -20.9246  -11.2541 C   0  0  1  0  0  0  0  0  0  0  0  0
   26.5664  -19.9859  -11.3890 C   0  0  0  0  0  0  0  0  0  0  0  0
   27.6123  -20.3959  -10.4175 C   0  0  0  0  0  0  0  0  0  0  0  0
   28.5713  -21.3830  -10.6318 C   0  0  0  0  0  0  0  0  0  0  0  0
   29.3416  -21.4818   -9.5380 N   0  0  0  0  0  0  0  0  0  0  0  0
   28.9421  -20.6041   -8.5981 C   0  0  0  0  0  0  0  0  0  0  0  0
   29.4024  -20.3238   -7.3274 C   0  0  0  0  0  0  0  0  0  0  0  0
   28.7972  -19.3527   -6.5577 C   0  0  0  0  0  0  0  0  0  0  0  0
   27.7263  -18.6873   -7.1151 C   0  0  0  0  0  0  0  0  0  0  0  0
   27.2548  -18.9605   -8.3918 C   0  0  0  0  0  0  0  0  0  0  0  0
   27.8671  -19.9285   -9.1435 C   0  0  0  0  0  0  0  0  0  0  0  0
   24.7415  -20.8029   -9.9286 C   0  0  0  0  0  0  0  0  0  0  0  0
   23.9767  -19.8257   -9.6886 O   0  0  0  0  0  0  0  0  0  0  0  0
   24.9244  -21.7192   -8.9124 O   0  0  0  0  0  0  0  0  0  0  0  0
  2  1  1  1
  3  2  1  0
  4  6  1  0
  4  5  1  1
  4  2  1  0
  6  7  2  0
  8  9  1  0
  8  6  1  0
  9 20  1  0
 10 11  1  0
  9 10  1  6
 11 19  1  0
 12 11  2  0
 12 13  1  0
 13 14  1  0
 14 15  2  0
 15 16  1  0
 17 16  2  0
 18 17  1  0
 19 18  2  0
 19 14  1  0
 20 21  2  0
 20 22  1  0
 22 23  1  0
 23 34  1  0
 23 24  1  1
 25 24  1  0
 26 25  2  0
 27 28  1  0
 27 26  1  0
 28 33  2  0
 29 28  1  0
 29 30  2  0
 30 31  1  0
 31 32  2  0
 33 25  1  0
 33 32  1  0
 34 35  2  0
 34 36  1  0
M  END
$$$$
