VWW.pdb
     RDKit          3D

 36 39  0  0  1  0  0  0  0  0999 V2000
   27.2748  -19.3098  -19.0036 C   0  0  0  0  0  0  0  0  0  0  0  0
   28.6833  -19.8725  -18.8861 C   0  0  2  0  0  0  0  0  0  0  0  0
   28.9313  -20.7871  -20.0600 C   0  0  0  0  0  0  0  0  0  0  0  0
   28.7494  -20.7214  -17.6305 C   0  0  2  0  0  0  0  0  0  0  0  0
   28.0876  -21.9741  -17.9044 N   0  0  0  0  0  0  0  0  0  0  0  0
   28.0619  -20.0602  -16.4971 C   0  0  0  0  0  0  0  0  0  0  0  0
   28.4732  -18.9448  -16.0950 O   0  0  0  0  0  0  0  0  0  0  0  0
   26.9515  -20.7254  -15.9057 N   0  0  0  0  0  0  0  0  0  0  0  0
   26.2505  -20.1194  -14.8192 C   0  0  1  0  0  0  0  0  0  0  0  0
   24.7619  -20.0290  -15.0504 C   0  0  0  0  0  0  0  0  0  0  0  0
   24.3156  -18.7105  -15.4765 C   0  0  0  0  0  0  0  0  0  0  0  0
   24.9106  -17.5116  -15.2294 C   0  0  0  0  0  0  0  0  0  0  0  0
   24.1998  -16.5080  -15.7894 N   0  0  0  0  0  0  0  0  0  0  0  0
   23.1224  -17.0658  -16.4122 C   0  0  0  0  0  0  0  0  0  0  0  0
   22.0903  -16.4949  -17.1288 C   0  0  0  0  0  0  0  0  0  0  0  0
   21.1434  -17.3652  -17.6349 C   0  0  0  0  0  0  0  0  0  0  0  0
   21.1887  -18.7196  -17.4590 C   0  0  0  0  0  0  0  0  0  0  0  0
   22.2221  -19.2735  -16.7434 C   0  0  0  0  0  0  0  0  0  0  0  0
   23.1876  -18.4448  -16.2209 C   0  0  0  0  0  0  0  0  0  0  0  0
   26.4316  -20.9967  -13.6191 C   0  0  0  0  0  0  0  0  0  0  0  0
   26.6395  -22.2367  -13.7760 O   0  0  0  0  0  0  0  0  0  0  0  0
   26.3814  -20.5010  -12.3060 N   0  0  0  0  0  0  0  0  0  0  0  0
   26.2746  -21.4376  -11.1830 C   0  0  1  0  0  0  0  0  0  0  0  0
   27.5458  -21.4342  -10.3725 C   0  0  0  0  0  0  0  0  0  0  0  0
   27.3744  -20.4985   -9.2319 C   0  0  0  0  0  0  0  0  0  0  0  0
   26.3707  -19.5397   -9.1175 C   0  0  0  0  0  0  0  0  0  0  0  0
   26.5333  -18.8798   -7.9610 N   0  0  0  0  0  0  0  0  0  0  0  0
   27.6023  -19.3534   -7.2931 C   0  0  0  0  0  0  0  0  0  0  0  0
   28.1718  -19.0138   -6.0825 C   0  0  0  0  0  0  0  0  0  0  0  0
   29.2908  -19.6745   -5.6209 C   0  0  0  0  0  0  0  0  0  0  0  0
   29.8020  -20.6758   -6.4187 C   0  0  0  0  0  0  0  0  0  0  0  0
   29.2377  -21.0261   -7.6376 C   0  0  0  0  0  0  0  0  0  0  0  0
   28.1262  -20.3598   -8.0821 C   0  0  0  0  0  0  0  0  0  0  0  0
   25.0898  -21.1216  -10.3498 C   0  0  0  0  0  0  0  0  0  0  0  0
   24.5309  -19.9923  -10.4489 O   0  0  0  0  0  0  0  0  0  0  0  0
   24.5454  -22.0124   -9.4466 O   0  0  0  0  0  0  0  0  0  0  0  0
  2  1  1  6
  3  2  1  0
  4  6  1  0
  4  5  1  6
  4  2  1  0
  6  7  2  0
  8  9  1  0
  8  6  1  0
  9 20  1  0
 10 11  1  0
  9 10  1  6
 11 19  1  0
 12 11  2  0
 12 13  1  0
 13 14  1  0
 14 15  2  0
 15 16  1  0
 17 16  2  0
 18 17  1  0
 19 18  2  0
 19 14  1  0
 20 21  2  0
 20 22  1  0
 22 23  1  0
 23 34  1  0
 23 24  1  1
 25 24  1  0
 26 25  2  0
 27 28  1  0
 27 26  1  0
 28 33  2  0
 29 28  1  0
 29 30  2  0
 30 31  1  0
 31 32  2  0
 33 25  1  0
 33 32  1  0
 34 35  2  0
 34 36  1  0
M  END
$$$$
