ADH.pdb
     RDKit          3D

 24 24  0  0  1  0  0  0  0  0999 V2000
   21.4612  -11.9788  -18.2915 C   0  0  0  0  0  0  0  0  0  0  0  0
   21.0469  -11.8814  -16.8385 C   0  0  2  0  0  0  0  0  0  0  0  0
   20.2357  -13.0324  -16.5000 N   0  0  0  0  0  0  0  0  0  0  0  0
   20.2314  -10.6311  -16.6597 C   0  0  0  0  0  0  0  0  0  0  0  0
   19.3391  -10.3867  -17.5258 O   0  0  0  0  0  0  0  0  0  0  0  0
   20.4568   -9.7626  -15.5619 N   0  0  0  0  0  0  0  0  0  0  0  0
   19.6607   -8.5257  -15.4932 C   0  0  1  0  0  0  0  0  0  0  0  0
   19.3831   -8.2722  -14.0436 C   0  0  0  0  0  0  0  0  0  0  0  0
   18.2459   -9.0503  -13.5582 C   0  0  0  0  0  0  0  0  0  0  0  0
   17.3462   -9.4731  -14.2979 O   0  0  0  0  0  0  0  0  0  0  0  0
   20.4798   -7.4331  -16.1236 C   0  0  0  0  0  0  0  0  0  0  0  0
   21.6770   -7.2179  -15.8293 O   0  0  0  0  0  0  0  0  0  0  0  0
   18.1497   -9.3457  -12.1787 O   0  0  0  0  0  0  0  0  0  0  0  0
   19.8810   -6.5929  -17.1040 N   0  0  0  0  0  0  0  0  0  0  0  0
   20.6743   -5.5201  -17.7798 C   0  0  1  0  0  0  0  0  0  0  0  0
   19.9545   -5.2263  -19.0465 C   0  0  0  0  0  0  0  0  0  0  0  0
   20.5128   -4.1419  -19.8487 C   0  0  0  0  0  0  0  0  0  0  0  0
   21.6466   -4.1219  -20.6159 C   0  0  0  0  0  0  0  0  0  0  0  0
   21.7305   -2.9057  -21.2434 N   0  0  0  0  0  0  0  0  0  0  0  0
   20.6702   -2.1875  -20.8741 C   0  0  0  0  0  0  0  0  0  0  0  0
   19.9478   -2.9214  -20.0468 N   0  0  0  0  0  0  0  0  0  0  0  0
   20.5431   -4.3200  -16.8672 C   0  0  0  0  0  0  0  0  0  0  0  0
   21.4942   -3.4685  -16.8600 O   0  0  0  0  0  0  0  0  0  0  0  0
   19.4750   -4.0981  -16.0561 O   0  0  0  0  0  0  0  0  0  0  0  0
  2  1  1  6
  2  3  1  0
  4  2  1  0
  5  4  2  0
  6  4  1  0
  7 11  1  0
  7  6  1  0
  7  8  1  1
  9  8  1  0
 10  9  2  0
 11 14  1  0
 12 11  2  0
 13  9  1  0
 14 15  1  0
 15 22  1  0
 15 16  1  6
 16 17  1  0
 17 21  1  0
 17 18  2  0
 18 19  1  0
 20 19  1  0
 21 20  2  0
 22 23  2  0
 22 24  1  0
M  END
$$$$
