ADH.pdb
     RDKit          3D

 24 24  0  0  1  0  0  0  0  0999 V2000
   17.0124  -10.5917  -19.5002 C   0  0  0  0  0  0  0  0  0  0  0  0
   18.1135  -10.3843  -18.4818 C   0  0  2  0  0  0  0  0  0  0  0  0
   17.6335  -10.7908  -17.1773 N   0  0  0  0  0  0  0  0  0  0  0  0
   18.4602   -8.9217  -18.4480 C   0  0  0  0  0  0  0  0  0  0  0  0
   18.9995   -8.4251  -19.4818 O   0  0  0  0  0  0  0  0  0  0  0  0
   18.1917   -8.1336  -17.3004 N   0  0  0  0  0  0  0  0  0  0  0  0
   18.5649   -6.7099  -17.3455 C   0  0  1  0  0  0  0  0  0  0  0  0
   17.3017   -5.9408  -17.5809 C   0  0  0  0  0  0  0  0  0  0  0  0
   17.5344   -4.4988  -17.6113 C   0  0  0  0  0  0  0  0  0  0  0  0
   18.4694   -3.9741  -18.2325 O   0  0  0  0  0  0  0  0  0  0  0  0
   19.2068   -6.3756  -16.0270 C   0  0  0  0  0  0  0  0  0  0  0  0
   18.6969   -6.6701  -14.9227 O   0  0  0  0  0  0  0  0  0  0  0  0
   16.6598   -3.6431  -16.9026 O   0  0  0  0  0  0  0  0  0  0  0  0
   20.4546   -5.6910  -16.0151 N   0  0  0  0  0  0  0  0  0  0  0  0
   21.1497   -5.3900  -14.7254 C   0  0  1  0  0  0  0  0  0  0  0  0
   22.4540   -6.0990  -14.7976 C   0  0  0  0  0  0  0  0  0  0  0  0
   22.3978   -7.5407  -14.5753 C   0  0  0  0  0  0  0  0  0  0  0  0
   21.3280   -8.3295  -14.2469 C   0  0  0  0  0  0  0  0  0  0  0  0
   21.7407   -9.6365  -14.2117 N   0  0  0  0  0  0  0  0  0  0  0  0
   23.0387   -9.6577  -14.5134 C   0  0  0  0  0  0  0  0  0  0  0  0
   23.4282   -8.4140  -14.7294 N   0  0  0  0  0  0  0  0  0  0  0  0
   21.4131   -3.9005  -14.7757 C   0  0  0  0  0  0  0  0  0  0  0  0
   21.0730   -3.2694  -15.8319 O   0  0  0  0  0  0  0  0  0  0  0  0
   21.9904   -3.1987  -13.7647 O   0  0  0  0  0  0  0  0  0  0  0  0
  2  1  1  6
  2  3  1  0
  4  2  1  0
  5  4  2  0
  6  4  1  0
  7 11  1  0
  7  6  1  0
  7  8  1  1
  9  8  1  0
 10  9  2  0
 11 14  1  0
 12 11  2  0
 13  9  1  0
 14 15  1  0
 15 22  1  0
 15 16  1  6
 16 17  1  0
 17 21  1  0
 17 18  2  0
 18 19  1  0
 20 19  1  0
 21 20  2  0
 22 23  2  0
 22 24  1  0
M  END
$$$$
