ADH.pdb
     RDKit          3D

 24 24  0  0  1  0  0  0  0  0999 V2000
   20.1973  -12.4475  -16.2025 C   0  0  0  0  0  0  0  0  0  0  0  0
   19.6942  -11.0520  -16.5056 C   0  0  2  0  0  0  0  0  0  0  0  0
   19.3020  -10.9830  -17.8981 N   0  0  0  0  0  0  0  0  0  0  0  0
   20.8133  -10.0791  -16.2577 C   0  0  0  0  0  0  0  0  0  0  0  0
   21.2423   -9.9724  -15.0699 O   0  0  0  0  0  0  0  0  0  0  0  0
   21.3635   -9.3132  -17.3164 N   0  0  0  0  0  0  0  0  0  0  0  0
   22.3457   -8.2724  -16.9694 C   0  0  1  0  0  0  0  0  0  0  0  0
   23.1326   -7.9915  -18.2122 C   0  0  0  0  0  0  0  0  0  0  0  0
   23.9496   -9.1339  -18.6146 C   0  0  0  0  0  0  0  0  0  0  0  0
   23.7035   -9.8281  -19.6111 O   0  0  0  0  0  0  0  0  0  0  0  0
   21.5740   -7.0731  -16.4915 C   0  0  0  0  0  0  0  0  0  0  0  0
   20.7224   -6.4825  -17.1931 O   0  0  0  0  0  0  0  0  0  0  0  0
   25.0815   -9.4800  -17.8411 O   0  0  0  0  0  0  0  0  0  0  0  0
   21.8107   -6.5712  -15.1809 N   0  0  0  0  0  0  0  0  0  0  0  0
   21.0679   -5.3764  -14.6735 C   0  0  1  0  0  0  0  0  0  0  0  0
   20.0578   -5.9066  -13.7209 C   0  0  0  0  0  0  0  0  0  0  0  0
   18.8708   -6.4993  -14.3300 C   0  0  0  0  0  0  0  0  0  0  0  0
   18.5532   -6.6460  -15.6537 C   0  0  0  0  0  0  0  0  0  0  0  0
   17.3657   -7.3249  -15.7475 N   0  0  0  0  0  0  0  0  0  0  0  0
   16.9565   -7.5946  -14.5081 C   0  0  0  0  0  0  0  0  0  0  0  0
   17.8500   -7.1049  -13.6673 N   0  0  0  0  0  0  0  0  0  0  0  0
   22.0990   -4.5943  -13.8890 C   0  0  0  0  0  0  0  0  0  0  0  0
   21.7776   -3.4301  -13.4754 O   0  0  0  0  0  0  0  0  0  0  0  0
   23.3442   -5.0580  -13.6017 O   0  0  0  0  0  0  0  0  0  0  0  0
  2  1  1  6
  2  3  1  0
  4  2  1  0
  5  4  2  0
  6  4  1  0
  7 11  1  0
  7  6  1  0
  7  8  1  6
  9  8  1  0
 10  9  2  0
 11 14  1  0
 12 11  2  0
 13  9  1  0
 14 15  1  0
 15 22  1  0
 15 16  1  1
 16 17  1  0
 17 21  1  0
 17 18  2  0
 18 19  1  0
 20 19  1  0
 21 20  2  0
 22 23  2  0
 22 24  1  0
M  END
$$$$
