ADH.pdb
     RDKit          3D

 24 24  0  0  1  0  0  0  0  0999 V2000
   15.8232   -8.4045  -17.8765 C   0  0  0  0  0  0  0  0  0  0  0  0
   16.4580   -9.7038  -17.4280 C   0  0  2  0  0  0  0  0  0  0  0  0
   15.5323  -10.4093  -16.5661 N   0  0  0  0  0  0  0  0  0  0  0  0
   17.7063   -9.3808  -16.6548 C   0  0  0  0  0  0  0  0  0  0  0  0
   17.6059   -9.2892  -15.3948 O   0  0  0  0  0  0  0  0  0  0  0  0
   18.9455   -9.1870  -17.3160 N   0  0  0  0  0  0  0  0  0  0  0  0
   20.1212   -8.8716  -16.4874 C   0  0  1  0  0  0  0  0  0  0  0  0
   21.2535   -9.6979  -17.0142 C   0  0  0  0  0  0  0  0  0  0  0  0
   22.4865   -9.4839  -16.2602 C   0  0  0  0  0  0  0  0  0  0  0  0
   22.5065   -9.0597  -15.0962 O   0  0  0  0  0  0  0  0  0  0  0  0
   20.3749   -7.3948  -16.6178 C   0  0  0  0  0  0  0  0  0  0  0  0
   20.3255   -6.7852  -17.7096 O   0  0  0  0  0  0  0  0  0  0  0  0
   23.7287   -9.7694  -16.8726 O   0  0  0  0  0  0  0  0  0  0  0  0
   20.6882   -6.6379  -15.4539 N   0  0  0  0  0  0  0  0  0  0  0  0
   20.9264   -5.1639  -15.5411 C   0  0  1  0  0  0  0  0  0  0  0  0
   19.6342   -4.5264  -15.1768 C   0  0  0  0  0  0  0  0  0  0  0  0
   19.6501   -3.0680  -15.1121 C   0  0  0  0  0  0  0  0  0  0  0  0
   20.6320   -2.1910  -15.4879 C   0  0  0  0  0  0  0  0  0  0  0  0
   20.1711   -0.9124  -15.3070 N   0  0  0  0  0  0  0  0  0  0  0  0
   18.9292   -0.9951  -14.8303 C   0  0  0  0  0  0  0  0  0  0  0  0
   18.6203   -2.2743  -14.7151 N   0  0  0  0  0  0  0  0  0  0  0  0
   21.9268   -4.8762  -14.4426 C   0  0  0  0  0  0  0  0  0  0  0  0
   22.2280   -5.8267  -13.6454 O   0  0  0  0  0  0  0  0  0  0  0  0
   22.5200   -3.6674  -14.2556 O   0  0  0  0  0  0  0  0  0  0  0  0
  2  1  1  1
  2  3  1  0
  4  2  1  0
  5  4  2  0
  6  4  1  0
  7 11  1  0
  7  6  1  0
  7  8  1  6
  9  8  1  0
 10  9  2  0
 11 14  1  0
 12 11  2  0
 13  9  1  0
 14 15  1  0
 15 22  1  0
 15 16  1  1
 16 17  1  0
 17 21  1  0
 17 18  2  0
 18 19  1  0
 20 19  1  0
 21 20  2  0
 22 23  2  0
 22 24  1  0
M  END
$$$$
