ADH.pdb
     RDKit          3D

 24 24  0  0  1  0  0  0  0  0999 V2000
   18.2166  -10.5141  -15.8569 C   0  0  0  0  0  0  0  0  0  0  0  0
   17.0114   -9.6752  -15.4876 C   0  0  2  0  0  0  0  0  0  0  0  0
   16.3331   -9.2634  -16.6991 N   0  0  0  0  0  0  0  0  0  0  0  0
   17.4893   -8.4561  -14.7489 C   0  0  0  0  0  0  0  0  0  0  0  0
   18.4127   -8.6147  -13.8954 O   0  0  0  0  0  0  0  0  0  0  0  0
   16.9244   -7.1805  -15.0019 N   0  0  0  0  0  0  0  0  0  0  0  0
   17.3967   -6.0491  -14.1864 C   0  0  1  0  0  0  0  0  0  0  0  0
   17.4833   -4.8660  -15.1004 C   0  0  0  0  0  0  0  0  0  0  0  0
   17.8887   -3.6539  -14.3926 C   0  0  0  0  0  0  0  0  0  0  0  0
   17.3486   -2.5523  -14.5665 O   0  0  0  0  0  0  0  0  0  0  0  0
   16.3986   -5.8509  -13.0788 C   0  0  0  0  0  0  0  0  0  0  0  0
   15.1790   -5.6579  -13.2823 O   0  0  0  0  0  0  0  0  0  0  0  0
   18.9484   -3.7213  -13.4587 O   0  0  0  0  0  0  0  0  0  0  0  0
   16.8447   -5.8807  -11.7276 N   0  0  0  0  0  0  0  0  0  0  0  0
   15.8867   -5.6587  -10.6006 C   0  0  1  0  0  0  0  0  0  0  0  0
   14.8892   -6.7560  -10.6997 C   0  0  0  0  0  0  0  0  0  0  0  0
   15.4307   -8.1077  -10.5957 C   0  0  0  0  0  0  0  0  0  0  0  0
   16.7342   -8.5194  -10.5192 C   0  0  0  0  0  0  0  0  0  0  0  0
   16.7559   -9.8814  -10.3630 N   0  0  0  0  0  0  0  0  0  0  0  0
   15.4924  -10.3049  -10.3417 C   0  0  0  0  0  0  0  0  0  0  0  0
   14.7063   -9.2522  -10.4795 N   0  0  0  0  0  0  0  0  0  0  0  0
   16.7136   -5.8769   -9.3520 C   0  0  0  0  0  0  0  0  0  0  0  0
   17.9634   -6.0945   -9.4940 O   0  0  0  0  0  0  0  0  0  0  0  0
   16.2033   -5.8562   -8.0922 O   0  0  0  0  0  0  0  0  0  0  0  0
  2  1  1  6
  2  3  1  0
  4  2  1  0
  5  4  2  0
  6  4  1  0
  7 11  1  0
  7  6  1  0
  7  8  1  6
  9  8  1  0
 10  9  2  0
 11 14  1  0
 12 11  2  0
 13  9  1  0
 14 15  1  0
 15 22  1  0
 15 16  1  6
 16 17  1  0
 17 21  1  0
 17 18  2  0
 18 19  1  0
 20 19  1  0
 21 20  2  0
 22 23  2  0
 22 24  1  0
M  END
$$$$
