ADH.pdb
     RDKit          3D

 24 24  0  0  1  0  0  0  0  0999 V2000
   23.2438  -14.4913  -19.1030 C   0  0  0  0  0  0  0  0  0  0  0  0
   24.5461  -15.1852  -18.7638 C   0  0  2  0  0  0  0  0  0  0  0  0
   25.3334  -15.3291  -19.9708 N   0  0  0  0  0  0  0  0  0  0  0  0
   24.2290  -16.5481  -18.2140 C   0  0  0  0  0  0  0  0  0  0  0  0
   23.4304  -17.2746  -18.8777 O   0  0  0  0  0  0  0  0  0  0  0  0
   24.8047  -16.9976  -16.9987 N   0  0  0  0  0  0  0  0  0  0  0  0
   24.5065  -18.3738  -16.5681 C   0  0  1  0  0  0  0  0  0  0  0  0
   25.8000  -18.9702  -16.1059 C   0  0  0  0  0  0  0  0  0  0  0  0
   26.7142  -19.2266  -17.2164 C   0  0  0  0  0  0  0  0  0  0  0  0
   26.4814  -20.0505  -18.1122 O   0  0  0  0  0  0  0  0  0  0  0  0
   23.4859  -18.2849  -15.4669 C   0  0  0  0  0  0  0  0  0  0  0  0
   23.7364  -17.8068  -14.3378 O   0  0  0  0  0  0  0  0  0  0  0  0
   27.9301  -18.5085  -17.2897 O   0  0  0  0  0  0  0  0  0  0  0  0
   22.1661  -18.7631  -15.7020 N   0  0  0  0  0  0  0  0  0  0  0  0
   21.1304  -18.7115  -14.6242 C   0  0  1  0  0  0  0  0  0  0  0  0
   20.3013  -17.5144  -14.9215 C   0  0  0  0  0  0  0  0  0  0  0  0
   19.8415  -17.3964  -16.3020 C   0  0  0  0  0  0  0  0  0  0  0  0
   20.5202  -16.9693  -17.4117 C   0  0  0  0  0  0  0  0  0  0  0  0
   19.7008  -17.0970  -18.5035 N   0  0  0  0  0  0  0  0  0  0  0  0
   18.5390  -17.5941  -18.0798 C   0  0  0  0  0  0  0  0  0  0  0  0
   18.6230  -17.7719  -16.7735 N   0  0  0  0  0  0  0  0  0  0  0  0
   20.2849  -19.9458  -14.8519 C   0  0  0  0  0  0  0  0  0  0  0  0
   20.6311  -20.7424  -15.7875 O   0  0  0  0  0  0  0  0  0  0  0  0
   19.1808  -20.2534  -14.1209 O   0  0  0  0  0  0  0  0  0  0  0  0
  2  1  1  6
  2  3  1  0
  4  2  1  0
  5  4  2  0
  6  4  1  0
  7 11  1  0
  7  6  1  0
  7  8  1  1
  9  8  1  0
 10  9  2  0
 11 14  1  0
 12 11  2  0
 13  9  1  0
 14 15  1  0
 15 22  1  0
 15 16  1  6
 16 17  1  0
 17 21  1  0
 17 18  2  0
 18 19  1  0
 20 19  1  0
 21 20  2  0
 22 23  2  0
 22 24  1  0
M  END
$$$$
