ADH.pdb
     RDKit          3D

 24 24  0  0  1  0  0  0  0  0999 V2000
   19.0761  -14.1042  -17.7602 C   0  0  0  0  0  0  0  0  0  0  0  0
   19.1426  -13.3089  -16.4735 C   0  0  2  0  0  0  0  0  0  0  0  0
   17.8231  -13.2611  -15.8787 N   0  0  0  0  0  0  0  0  0  0  0  0
   19.5889  -11.9112  -16.8014 C   0  0  0  0  0  0  0  0  0  0  0  0
   20.7784  -11.7586  -17.2113 O   0  0  0  0  0  0  0  0  0  0  0  0
   18.7079  -10.8099  -16.6555 N   0  0  0  0  0  0  0  0  0  0  0  0
   19.2448   -9.4644  -16.9197 C   0  0  1  0  0  0  0  0  0  0  0  0
   18.1136   -8.6490  -17.4657 C   0  0  0  0  0  0  0  0  0  0  0  0
   18.5237   -7.2825  -17.7802 C   0  0  0  0  0  0  0  0  0  0  0  0
   19.6905   -6.8802  -17.6689 O   0  0  0  0  0  0  0  0  0  0  0  0
   19.7653   -8.9282  -15.6144 C   0  0  0  0  0  0  0  0  0  0  0  0
   19.3513   -9.3184  -14.4998 O   0  0  0  0  0  0  0  0  0  0  0  0
   17.5552   -6.3584  -18.2357 O   0  0  0  0  0  0  0  0  0  0  0  0
   20.7777   -7.9279  -15.6280 N   0  0  0  0  0  0  0  0  0  0  0  0
   21.3603   -7.4116  -14.3510 C   0  0  1  0  0  0  0  0  0  0  0  0
   22.2046   -8.5138  -13.8205 C   0  0  0  0  0  0  0  0  0  0  0  0
   23.3600   -8.8690  -14.6390 C   0  0  0  0  0  0  0  0  0  0  0  0
   23.7762   -8.3420  -15.8321 C   0  0  0  0  0  0  0  0  0  0  0  0
   24.9545   -8.9445  -16.1908 N   0  0  0  0  0  0  0  0  0  0  0  0
   25.2628   -9.8254  -15.2394 C   0  0  0  0  0  0  0  0  0  0  0  0
   24.3167   -9.7802  -14.3187 N   0  0  0  0  0  0  0  0  0  0  0  0
   22.2682   -6.2791  -14.7793 C   0  0  0  0  0  0  0  0  0  0  0  0
   22.4053   -6.0643  -16.0303 O   0  0  0  0  0  0  0  0  0  0  0  0
   22.9451   -5.4811  -13.9117 O   0  0  0  0  0  0  0  0  0  0  0  0
  2  1  1  6
  2  3  1  0
  4  2  1  0
  5  4  2  0
  6  4  1  0
  7 11  1  0
  7  6  1  0
  7  8  1  1
  9  8  1  0
 10  9  2  0
 11 14  1  0
 12 11  2  0
 13  9  1  0
 14 15  1  0
 15 22  1  0
 15 16  1  6
 16 17  1  0
 17 21  1  0
 17 18  2  0
 18 19  1  0
 20 19  1  0
 21 20  2  0
 22 23  2  0
 22 24  1  0
M  END
$$$$
