IVW.pdb
     RDKit          3D

 30 31  0  0  1  0  0  0  0  0999 V2000
    7.2466  -11.7647   19.2676 C   0  0  0  0  0  0  0  0  0  0  0  0
    7.9690  -13.0433   18.9866 C   0  0  0  0  0  0  0  0  0  0  0  0
    7.9861  -13.9956   20.1889 C   0  0  2  0  0  0  0  0  0  0  0  0
    8.6249  -13.3097   21.3698 C   0  0  0  0  0  0  0  0  0  0  0  0
    8.7506  -15.2592   19.8356 C   0  0  2  0  0  0  0  0  0  0  0  0
    8.0474  -15.8975   18.6949 N   0  0  0  0  0  0  0  0  0  0  0  0
    8.7103  -16.2676   20.9232 C   0  0  0  0  0  0  0  0  0  0  0  0
    7.6538  -16.9086   21.1507 O   0  0  0  0  0  0  0  0  0  0  0  0
   12.1445  -18.0074   22.4199 C   0  0  0  0  0  0  0  0  0  0  0  0
   10.7673  -18.6621   22.4808 C   0  0  2  0  0  0  0  0  0  0  0  0
   10.5656  -19.4043   21.2069 C   0  0  0  0  0  0  0  0  0  0  0  0
    9.7057  -17.5984   22.7689 C   0  0  2  0  0  0  0  0  0  0  0  0
    9.8196  -16.5634   21.7433 N   0  0  0  0  0  0  0  0  0  0  0  0
    9.9160  -17.0318   24.1090 C   0  0  0  0  0  0  0  0  0  0  0  0
   10.6773  -16.0043   24.1765 O   0  0  0  0  0  0  0  0  0  0  0  0
    9.3793  -17.4775   25.3241 N   0  0  0  0  0  0  0  0  0  0  0  0
    9.8028  -16.9477   26.6459 C   0  0  1  0  0  0  0  0  0  0  0  0
    8.6142  -16.6496   27.4771 C   0  0  0  0  0  0  0  0  0  0  0  0
    7.6772  -15.7491   26.7881 C   0  0  0  0  0  0  0  0  0  0  0  0
    6.5819  -16.1024   25.9900 C   0  0  0  0  0  0  0  0  0  0  0  0
    5.9910  -15.0021   25.5096 N   0  0  0  0  0  0  0  0  0  0  0  0
    6.6446  -13.9184   25.9530 C   0  0  0  0  0  0  0  0  0  0  0  0
    6.3681  -12.5728   25.7169 C   0  0  0  0  0  0  0  0  0  0  0  0
    7.1870  -11.6455   26.3117 C   0  0  0  0  0  0  0  0  0  0  0  0
    8.2359  -12.0540   27.1077 C   0  0  0  0  0  0  0  0  0  0  0  0
    8.4898  -13.3880   27.3257 C   0  0  0  0  0  0  0  0  0  0  0  0
    7.6832  -14.3522   26.7399 C   0  0  0  0  0  0  0  0  0  0  0  0
   10.8883  -17.7180   27.2352 C   0  0  0  0  0  0  0  0  0  0  0  0
   11.6147  -17.2348   28.2895 O   0  0  0  0  0  0  0  0  0  0  0  0
   11.1875  -18.8513   26.7888 O   0  0  0  0  0  0  0  0  0  0  0  0
  2  1  1  0
  3  5  1  0
  3  2  1  0
  3  4  1  1
  5  6  1  6
  5  7  1  0
  7  8  2  0
 10 12  1  0
 10  9  1  6
 11 10  1  0
 13  7  1  0
 12 13  1  6
 14 12  1  0
 14 15  2  0
 16 14  1  0
 17 16  1  0
 17 28  1  0
 17 18  1  1
 19 27  1  0
 19 18  1  0
 20 19  2  0
 21 20  1  0
 21 22  1  0
 22 23  1  0
 22 27  2  0
 23 24  2  0
 24 25  1  0
 26 25  2  0
 27 26  1  0
 28 30  2  0
 28 29  1  0
M  END
$$$$
