IVW.pdb
     RDKit          3D

 30 31  0  0  1  0  0  0  0  0999 V2000
    5.4301  -21.9810   25.1253 C   0  0  0  0  0  0  0  0  0  0  0  0
    5.1538  -21.1343   23.9242 C   0  0  0  0  0  0  0  0  0  0  0  0
    6.2719  -20.1246   23.6361 C   0  0  2  0  0  0  0  0  0  0  0  0
    6.4237  -19.1883   24.8080 C   0  0  0  0  0  0  0  0  0  0  0  0
    5.9491  -19.3430   22.3747 C   0  0  2  0  0  0  0  0  0  0  0  0
    5.9111  -20.3121   21.2513 N   0  0  0  0  0  0  0  0  0  0  0  0
    7.0204  -18.3815   22.0152 C   0  0  0  0  0  0  0  0  0  0  0  0
    8.1090  -18.7965   21.5448 O   0  0  0  0  0  0  0  0  0  0  0  0
    6.6225  -14.0401   21.7131 C   0  0  0  0  0  0  0  0  0  0  0  0
    7.4905  -15.0089   20.9149 C   0  0  2  0  0  0  0  0  0  0  0  0
    6.6788  -15.4995   19.7683 C   0  0  0  0  0  0  0  0  0  0  0  0
    8.0123  -16.1113   21.8390 C   0  0  2  0  0  0  0  0  0  0  0  0
    6.8890  -16.9854   22.1713 N   0  0  0  0  0  0  0  0  0  0  0  0
    8.5878  -15.5154   23.0534 C   0  0  0  0  0  0  0  0  0  0  0  0
    7.8120  -14.7588   23.7356 O   0  0  0  0  0  0  0  0  0  0  0  0
    9.8842  -15.6789   23.5592 N   0  0  0  0  0  0  0  0  0  0  0  0
   10.2419  -15.4356   24.9805 C   0  0  1  0  0  0  0  0  0  0  0  0
    9.2939  -16.1443   25.8703 C   0  0  0  0  0  0  0  0  0  0  0  0
    8.0273  -15.4105   26.0152 C   0  0  0  0  0  0  0  0  0  0  0  0
    6.7340  -15.8749   25.7446 C   0  0  0  0  0  0  0  0  0  0  0  0
    5.8421  -14.9025   25.9668 N   0  0  0  0  0  0  0  0  0  0  0  0
    6.4829  -13.7987   26.3780 C   0  0  0  0  0  0  0  0  0  0  0  0
    5.9512  -12.5610   26.7361 C   0  0  0  0  0  0  0  0  0  0  0  0
    6.8306  -11.5904   27.1473 C   0  0  0  0  0  0  0  0  0  0  0  0
    8.1831  -11.8538   27.1958 C   0  0  0  0  0  0  0  0  0  0  0  0
    8.6847  -13.0830   26.8367 C   0  0  0  0  0  0  0  0  0  0  0  0
    7.8252  -14.0867   26.4156 C   0  0  0  0  0  0  0  0  0  0  0  0
   11.6688  -15.5775   25.2301 C   0  0  0  0  0  0  0  0  0  0  0  0
   12.2882  -14.8892   26.2377 O   0  0  0  0  0  0  0  0  0  0  0  0
   12.3717  -16.3391   24.5234 O   0  0  0  0  0  0  0  0  0  0  0  0
  2  1  1  0
  3  5  1  0
  3  2  1  0
  3  4  1  1
  5  6  1  6
  5  7  1  0
  7  8  2  0
 10 12  1  0
 10  9  1  1
 11 10  1  0
 13  7  1  0
 12 13  1  1
 14 12  1  0
 14 15  2  0
 16 14  1  0
 17 16  1  0
 17 28  1  0
 17 18  1  1
 19 27  1  0
 19 18  1  0
 20 19  2  0
 21 20  1  0
 21 22  1  0
 22 23  1  0
 22 27  2  0
 23 24  2  0
 24 25  1  0
 26 25  2  0
 27 26  1  0
 28 30  2  0
 28 29  1  0
M  END
$$$$
