IVW.pdb
     RDKit          3D

 30 31  0  0  1  0  0  0  0  0999 V2000
    9.3896  -21.7949   18.8486 C   0  0  0  0  0  0  0  0  0  0  0  0
    8.9804  -20.4258   18.4086 C   0  0  0  0  0  0  0  0  0  0  0  0
    9.4598  -19.3244   19.3624 C   0  0  2  0  0  0  0  0  0  0  0  0
    8.9821  -19.6219   20.7611 C   0  0  0  0  0  0  0  0  0  0  0  0
    8.9337  -17.9768   18.9007 C   0  0  2  0  0  0  0  0  0  0  0  0
    9.5853  -17.6684   17.6033 N   0  0  0  0  0  0  0  0  0  0  0  0
    9.3379  -16.8718   19.8046 C   0  0  0  0  0  0  0  0  0  0  0  0
   10.5512  -16.5700   19.9291 O   0  0  0  0  0  0  0  0  0  0  0  0
    6.5372  -14.3487   21.8348 C   0  0  0  0  0  0  0  0  0  0  0  0
    7.9109  -13.8874   21.3561 C   0  0  2  0  0  0  0  0  0  0  0  0
    7.7432  -13.3155   19.9926 C   0  0  0  0  0  0  0  0  0  0  0  0
    8.9004  -15.0518   21.4372 C   0  0  2  0  0  0  0  0  0  0  0  0
    8.4161  -16.1126   20.5559 N   0  0  0  0  0  0  0  0  0  0  0  0
    8.9991  -15.5290   22.8241 C   0  0  0  0  0  0  0  0  0  0  0  0
    8.3657  -16.6076   23.0986 O   0  0  0  0  0  0  0  0  0  0  0  0
    9.7077  -14.9481   23.8841 N   0  0  0  0  0  0  0  0  0  0  0  0
    9.9904  -15.6543   25.1602 C   0  0  1  0  0  0  0  0  0  0  0  0
    8.7617  -16.3146   25.6572 C   0  0  0  0  0  0  0  0  0  0  0  0
    7.6536  -15.3602   25.8142 C   0  0  0  0  0  0  0  0  0  0  0  0
    6.3173  -15.5306   25.4309 C   0  0  0  0  0  0  0  0  0  0  0  0
    5.6163  -14.4252   25.7089 N   0  0  0  0  0  0  0  0  0  0  0  0
    6.4275  -13.5143   26.2661 C   0  0  0  0  0  0  0  0  0  0  0  0
    6.1207  -12.2345   26.7254 C   0  0  0  0  0  0  0  0  0  0  0  0
    7.1396  -11.5012   27.2806 C   0  0  0  0  0  0  0  0  0  0  0  0
    8.4089  -12.0318   27.3696 C   0  0  0  0  0  0  0  0  0  0  0  0
    8.6880  -13.2972   26.9088 C   0  0  0  0  0  0  0  0  0  0  0  0
    7.6829  -14.0660   26.3413 C   0  0  0  0  0  0  0  0  0  0  0  0
   11.2235  -16.4262   25.1107 C   0  0  0  0  0  0  0  0  0  0  0  0
   11.2159  -17.7644   24.8248 O   0  0  0  0  0  0  0  0  0  0  0  0
   12.3316  -15.8809   25.3304 O   0  0  0  0  0  0  0  0  0  0  0  0
  2  1  1  0
  3  5  1  0
  3  2  1  0
  3  4  1  1
  5  6  1  6
  5  7  1  0
  7  8  2  0
 10 12  1  0
 10  9  1  6
 11 10  1  0
 13  7  1  0
 12 13  1  6
 14 12  1  0
 14 15  2  0
 16 14  1  0
 17 16  1  0
 17 28  1  0
 17 18  1  6
 19 27  1  0
 19 18  1  0
 20 19  2  0
 21 20  1  0
 21 22  1  0
 22 23  1  0
 22 27  2  0
 23 24  2  0
 24 25  1  0
 26 25  2  0
 27 26  1  0
 28 30  2  0
 28 29  1  0
M  END
$$$$
