IVW.pdb
     RDKit          3D

 30 31  0  0  1  0  0  0  0  0999 V2000
    7.0644  -11.9546   19.2874 C   0  0  0  0  0  0  0  0  0  0  0  0
    7.4695  -13.3243   18.8453 C   0  0  0  0  0  0  0  0  0  0  0  0
    7.8763  -14.2321   20.0127 C   0  0  2  0  0  0  0  0  0  0  0  0
    9.0244  -13.6075   20.7643 C   0  0  0  0  0  0  0  0  0  0  0  0
    8.2717  -15.6013   19.4883 C   0  0  2  0  0  0  0  0  0  0  0  0
    7.0826  -16.1761   18.8113 N   0  0  0  0  0  0  0  0  0  0  0  0
    8.5896  -16.5550   20.5796 C   0  0  0  0  0  0  0  0  0  0  0  0
    7.6702  -17.0216   21.2977 O   0  0  0  0  0  0  0  0  0  0  0  0
   11.0951  -19.6175   20.5157 C   0  0  0  0  0  0  0  0  0  0  0  0
   11.3762  -18.7090   21.7093 C   0  0  2  0  0  0  0  0  0  0  0  0
   11.8258  -19.5720   22.8351 C   0  0  0  0  0  0  0  0  0  0  0  0
   10.1371  -17.8645   22.0145 C   0  0  2  0  0  0  0  0  0  0  0  0
    9.9010  -16.9866   20.8700 N   0  0  0  0  0  0  0  0  0  0  0  0
   10.3552  -17.0803   23.2386 C   0  0  0  0  0  0  0  0  0  0  0  0
   11.0644  -16.0214   23.1141 O   0  0  0  0  0  0  0  0  0  0  0  0
    9.8761  -17.3487   24.5276 N   0  0  0  0  0  0  0  0  0  0  0  0
   10.1394  -16.4686   25.6953 C   0  0  1  0  0  0  0  0  0  0  0  0
    9.8647  -15.0579   25.3390 C   0  0  0  0  0  0  0  0  0  0  0  0
    8.4517  -14.7065   25.5478 C   0  0  0  0  0  0  0  0  0  0  0  0
    7.3247  -15.4850   25.2560 C   0  0  0  0  0  0  0  0  0  0  0  0
    6.2100  -14.8082   25.5559 N   0  0  0  0  0  0  0  0  0  0  0  0
    6.5405  -13.6021   26.0400 C   0  0  0  0  0  0  0  0  0  0  0  0
    5.7048  -12.5819   26.4914 C   0  0  0  0  0  0  0  0  0  0  0  0
    6.3008  -11.4391   26.9636 C   0  0  0  0  0  0  0  0  0  0  0  0
    7.6750  -11.3285   26.9808 C   0  0  0  0  0  0  0  0  0  0  0  0
    8.4794  -12.3485   26.5294 C   0  0  0  0  0  0  0  0  0  0  0  0
    7.9112  -13.5171   26.0447 C   0  0  0  0  0  0  0  0  0  0  0  0
    9.5785  -16.9961   26.9306 C   0  0  0  0  0  0  0  0  0  0  0  0
    8.8093  -18.1278   26.9381 O   0  0  0  0  0  0  0  0  0  0  0  0
    9.7870  -16.4229   28.0266 O   0  0  0  0  0  0  0  0  0  0  0  0
  2  1  1  0
  3  5  1  0
  3  2  1  0
  3  4  1  6
  5  6  1  1
  5  7  1  0
  7  8  2  0
 10 12  1  0
 10  9  1  6
 11 10  1  0
 13  7  1  0
 12 13  1  6
 14 12  1  0
 14 15  2  0
 16 14  1  0
 17 16  1  0
 17 28  1  0
 17 18  1  6
 19 27  1  0
 19 18  1  0
 20 19  2  0
 21 20  1  0
 21 22  1  0
 22 23  1  0
 22 27  2  0
 23 24  2  0
 24 25  1  0
 26 25  2  0
 27 26  1  0
 28 30  2  0
 28 29  1  0
M  END
$$$$
