IVW.pdb
     RDKit          3D

 30 31  0  0  1  0  0  0  0  0999 V2000
    7.0594  -22.1273   20.5322 C   0  0  0  0  0  0  0  0  0  0  0  0
    6.8848  -20.8695   19.7428 C   0  0  0  0  0  0  0  0  0  0  0  0
    7.6686  -19.6864   20.3246 C   0  0  2  0  0  0  0  0  0  0  0  0
    7.2181  -19.4266   21.7397 C   0  0  0  0  0  0  0  0  0  0  0  0
    7.4521  -18.4521   19.4669 C   0  0  2  0  0  0  0  0  0  0  0  0
    8.0523  -18.7262   18.1374 N   0  0  0  0  0  0  0  0  0  0  0  0
    8.1854  -17.2695   19.9819 C   0  0  0  0  0  0  0  0  0  0  0  0
    9.4411  -17.2756   20.0262 O   0  0  0  0  0  0  0  0  0  0  0  0
    7.3596  -13.5050   19.2958 C   0  0  0  0  0  0  0  0  0  0  0  0
    7.5810  -13.7083   20.7920 C   0  0  2  0  0  0  0  0  0  0  0  0
    8.2763  -12.4997   21.3119 C   0  0  0  0  0  0  0  0  0  0  0  0
    8.3322  -15.0208   21.0260 C   0  0  2  0  0  0  0  0  0  0  0  0
    7.5413  -16.0999   20.4377 N   0  0  0  0  0  0  0  0  0  0  0  0
    8.5225  -15.2382   22.4674 C   0  0  0  0  0  0  0  0  0  0  0  0
    7.6144  -14.7652   23.2364 O   0  0  0  0  0  0  0  0  0  0  0  0
    9.5772  -15.9060   23.1036 N   0  0  0  0  0  0  0  0  0  0  0  0
    9.8654  -15.7790   24.5555 C   0  0  1  0  0  0  0  0  0  0  0  0
    8.7536  -16.3557   25.3454 C   0  0  0  0  0  0  0  0  0  0  0  0
    7.6731  -15.3812   25.5608 C   0  0  0  0  0  0  0  0  0  0  0  0
    6.3086  -15.5432   25.2896 C   0  0  0  0  0  0  0  0  0  0  0  0
    5.6454  -14.4203   25.5889 N   0  0  0  0  0  0  0  0  0  0  0  0
    6.5093  -13.5055   26.0528 C   0  0  0  0  0  0  0  0  0  0  0  0
    6.2555  -12.2087   26.4963 C   0  0  0  0  0  0  0  0  0  0  0  0
    7.3241  -11.4745   26.9471 C   0  0  0  0  0  0  0  0  0  0  0  0
    8.5900  -12.0206   26.9514 C   0  0  0  0  0  0  0  0  0  0  0  0
    8.8162  -13.3027   26.5080 C   0  0  0  0  0  0  0  0  0  0  0  0
    7.7599  -14.0729   26.0450 C   0  0  0  0  0  0  0  0  0  0  0  0
   11.2290  -16.1627   24.8905 C   0  0  0  0  0  0  0  0  0  0  0  0
   12.0551  -16.7396   23.9645 O   0  0  0  0  0  0  0  0  0  0  0  0
   11.6843  -15.9733   26.0437 O   0  0  0  0  0  0  0  0  0  0  0  0
  2  1  1  0
  3  5  1  0
  3  2  1  0
  3  4  1  1
  5  6  1  6
  5  7  1  0
  7  8  2  0
 10 12  1  0
 10  9  1  6
 11 10  1  0
 13  7  1  0
 12 13  1  1
 14 12  1  0
 14 15  2  0
 16 14  1  0
 17 16  1  0
 17 28  1  0
 17 18  1  1
 19 27  1  0
 19 18  1  0
 20 19  2  0
 21 20  1  0
 21 22  1  0
 22 23  1  0
 22 27  2  0
 23 24  2  0
 24 25  1  0
 26 25  2  0
 27 26  1  0
 28 30  2  0
 28 29  1  0
M  END
$$$$
