IVW.pdb
     RDKit          3D

 30 31  0  0  1  0  0  0  0  0999 V2000
    7.3740  -11.7545   19.1909 C   0  0  0  0  0  0  0  0  0  0  0  0
    7.8483  -13.1036   18.7540 C   0  0  0  0  0  0  0  0  0  0  0  0
    8.0492  -14.0735   19.9251 C   0  0  2  0  0  0  0  0  0  0  0  0
    9.0457  -13.4948   20.8973 C   0  0  0  0  0  0  0  0  0  0  0  0
    8.5360  -15.4151   19.4065 C   0  0  2  0  0  0  0  0  0  0  0  0
    7.4522  -15.9850   18.5678 N   0  0  0  0  0  0  0  0  0  0  0  0
    8.7379  -16.4030   20.4949 C   0  0  0  0  0  0  0  0  0  0  0  0
    7.7490  -16.9674   21.0263 O   0  0  0  0  0  0  0  0  0  0  0  0
   10.8613  -19.5304   20.5669 C   0  0  0  0  0  0  0  0  0  0  0  0
   11.2486  -18.6832   21.7757 C   0  0  2  0  0  0  0  0  0  0  0  0
   11.5926  -19.6135   22.8850 C   0  0  0  0  0  0  0  0  0  0  0  0
   10.1188  -17.7030   22.0986 C   0  0  2  0  0  0  0  0  0  0  0  0
   10.0111  -16.7620   20.9854 N   0  0  0  0  0  0  0  0  0  0  0  0
   10.4130  -16.9963   23.3536 C   0  0  0  0  0  0  0  0  0  0  0  0
   11.1436  -15.9491   23.2563 O   0  0  0  0  0  0  0  0  0  0  0  0
    9.9861  -17.3274   24.6464 N   0  0  0  0  0  0  0  0  0  0  0  0
   10.2871  -16.4985   25.8421 C   0  0  1  0  0  0  0  0  0  0  0  0
    9.9888  -15.0757   25.5608 C   0  0  0  0  0  0  0  0  0  0  0  0
    8.5486  -14.7909   25.6512 C   0  0  0  0  0  0  0  0  0  0  0  0
    7.4859  -15.6686   25.4026 C   0  0  0  0  0  0  0  0  0  0  0  0
    6.3194  -15.0316   25.5574 N   0  0  0  0  0  0  0  0  0  0  0  0
    6.5529  -13.7569   25.9021 C   0  0  0  0  0  0  0  0  0  0  0  0
    5.6364  -12.7436   26.1781 C   0  0  0  0  0  0  0  0  0  0  0  0
    6.1388  -11.5163   26.5326 C   0  0  0  0  0  0  0  0  0  0  0  0
    7.5012  -11.3182   26.6059 C   0  0  0  0  0  0  0  0  0  0  0  0
    8.3865  -12.3333   26.3282 C   0  0  0  0  0  0  0  0  0  0  0  0
    7.9141  -13.5859   25.9661 C   0  0  0  0  0  0  0  0  0  0  0  0
    9.7775  -17.0862   27.0724 C   0  0  0  0  0  0  0  0  0  0  0  0
    9.0045  -18.2153   27.0563 O   0  0  0  0  0  0  0  0  0  0  0  0
   10.0353  -16.5692   28.1858 O   0  0  0  0  0  0  0  0  0  0  0  0
  2  1  1  0
  3  5  1  0
  3  2  1  0
  3  4  1  1
  5  6  1  6
  5  7  1  0
  7  8  2  0
 10 12  1  0
 10  9  1  6
 11 10  1  0
 13  7  1  0
 12 13  1  6
 14 12  1  0
 14 15  2  0
 16 14  1  0
 17 16  1  0
 17 28  1  0
 17 18  1  6
 19 27  1  0
 19 18  1  0
 20 19  2  0
 21 20  1  0
 21 22  1  0
 22 23  1  0
 22 27  2  0
 23 24  2  0
 24 25  1  0
 26 25  2  0
 27 26  1  0
 28 30  2  0
 28 29  1  0
M  END
$$$$
