IVW.pdb
     RDKit          3D

 30 31  0  0  1  0  0  0  0  0999 V2000
   13.4923  -20.5429   18.2151 C   0  0  0  0  0  0  0  0  0  0  0  0
   12.2699  -19.7276   17.9383 C   0  0  0  0  0  0  0  0  0  0  0  0
   11.9917  -18.6815   19.0251 C   0  0  2  0  0  0  0  0  0  0  0  0
   11.8721  -19.3623   20.3650 C   0  0  0  0  0  0  0  0  0  0  0  0
   10.7143  -17.9273   18.7006 C   0  0  2  0  0  0  0  0  0  0  0  0
   10.9540  -17.1698   17.4470 N   0  0  0  0  0  0  0  0  0  0  0  0
   10.3932  -16.8949   19.7167 C   0  0  0  0  0  0  0  0  0  0  0  0
   11.2329  -16.0035   19.9979 O   0  0  0  0  0  0  0  0  0  0  0  0
    6.5457  -16.5149   21.4687 C   0  0  0  0  0  0  0  0  0  0  0  0
    7.4988  -15.3357   21.2950 C   0  0  2  0  0  0  0  0  0  0  0  0
    7.1806  -14.6884   19.9934 C   0  0  0  0  0  0  0  0  0  0  0  0
    8.9444  -15.8208   21.4243 C   0  0  2  0  0  0  0  0  0  0  0  0
    9.1642  -16.8479   20.4080 N   0  0  0  0  0  0  0  0  0  0  0  0
    9.1718  -16.3619   22.7720 C   0  0  0  0  0  0  0  0  0  0  0  0
    9.3907  -17.6213   22.8474 O   0  0  0  0  0  0  0  0  0  0  0  0
    9.1830  -15.6644   23.9872 N   0  0  0  0  0  0  0  0  0  0  0  0
    9.3990  -16.3208   25.3024 C   0  0  1  0  0  0  0  0  0  0  0  0
    9.3766  -15.3093   26.3836 C   0  0  0  0  0  0  0  0  0  0  0  0
    8.0995  -14.5807   26.4242 C   0  0  0  0  0  0  0  0  0  0  0  0
    6.8136  -15.0967   26.2205 C   0  0  0  0  0  0  0  0  0  0  0  0
    5.9075  -14.1157   26.3046 N   0  0  0  0  0  0  0  0  0  0  0  0
    6.5317  -12.9562   26.5581 C   0  0  0  0  0  0  0  0  0  0  0  0
    5.9818  -11.6884   26.7401 C   0  0  0  0  0  0  0  0  0  0  0  0
    6.8464  -10.6576   27.0123 C   0  0  0  0  0  0  0  0  0  0  0  0
    8.2023  -10.8923   27.0976 C   0  0  0  0  0  0  0  0  0  0  0  0
    8.7220  -12.1522   26.9135 C   0  0  0  0  0  0  0  0  0  0  0  0
    7.8778  -13.2170   26.6362 C   0  0  0  0  0  0  0  0  0  0  0  0
    8.6013  -17.5279   25.4624 C   0  0  0  0  0  0  0  0  0  0  0  0
    7.4827  -17.7486   24.7058 O   0  0  0  0  0  0  0  0  0  0  0  0
    8.9210  -18.4019   26.3033 O   0  0  0  0  0  0  0  0  0  0  0  0
  2  1  1  0
  3  5  1  0
  3  2  1  0
  3  4  1  1
  5  6  1  6
  5  7  1  0
  7  8  2  0
 10 12  1  0
 10  9  1  6
 11 10  1  0
 13  7  1  0
 12 13  1  6
 14 12  1  0
 14 15  2  0
 16 14  1  0
 17 16  1  0
 17 28  1  0
 17 18  1  1
 19 27  1  0
 19 18  1  0
 20 19  2  0
 21 20  1  0
 21 22  1  0
 22 23  1  0
 22 27  2  0
 23 24  2  0
 24 25  1  0
 26 25  2  0
 27 26  1  0
 28 30  2  0
 28 29  1  0
M  END
$$$$
