IVW.pdb
     RDKit          3D

 30 31  0  0  1  0  0  0  0  0999 V2000
    7.6634  -11.6378   19.7545 C   0  0  0  0  0  0  0  0  0  0  0  0
    7.5535  -13.1185   19.5784 C   0  0  0  0  0  0  0  0  0  0  0  0
    7.5699  -13.8804   20.9095 C   0  0  2  0  0  0  0  0  0  0  0  0
    8.8799  -13.6390   21.6157 C   0  0  0  0  0  0  0  0  0  0  0  0
    7.3723  -15.3648   20.6570 C   0  0  2  0  0  0  0  0  0  0  0  0
    6.0389  -15.5329   20.0273 N   0  0  0  0  0  0  0  0  0  0  0  0
    7.3034  -16.1484   21.9150 C   0  0  0  0  0  0  0  0  0  0  0  0
    6.3738  -15.9447   22.7354 O   0  0  0  0  0  0  0  0  0  0  0  0
    7.1157  -19.7878   22.8110 C   0  0  0  0  0  0  0  0  0  0  0  0
    8.3674  -19.2255   23.4787 C   0  0  2  0  0  0  0  0  0  0  0  0
    8.5467  -19.9398   24.7718 C   0  0  0  0  0  0  0  0  0  0  0  0
    8.2421  -17.7058   23.6068 C   0  0  2  0  0  0  0  0  0  0  0  0
    8.2449  -17.1415   22.2586 N   0  0  0  0  0  0  0  0  0  0  0  0
    9.3627  -17.1763   24.3974 C   0  0  0  0  0  0  0  0  0  0  0  0
   10.3160  -16.6340   23.7364 O   0  0  0  0  0  0  0  0  0  0  0  0
    9.5127  -17.1885   25.7904 N   0  0  0  0  0  0  0  0  0  0  0  0
   10.6943  -16.6197   26.4885 C   0  0  1  0  0  0  0  0  0  0  0  0
   10.8173  -15.1760   26.1831 C   0  0  0  0  0  0  0  0  0  0  0  0
    9.7749  -14.3845   26.8543 C   0  0  0  0  0  0  0  0  0  0  0  0
    9.6117  -14.1764   28.2296 C   0  0  0  0  0  0  0  0  0  0  0  0
    8.5263  -13.4267   28.4541 N   0  0  0  0  0  0  0  0  0  0  0  0
    7.9500  -13.1193   27.2830 C   0  0  0  0  0  0  0  0  0  0  0  0
    6.8140  -12.3480   27.0430 C   0  0  0  0  0  0  0  0  0  0  0  0
    6.4394  -12.1645   25.7353 C   0  0  0  0  0  0  0  0  0  0  0  0
    7.1745  -12.7313   24.7159 C   0  0  0  0  0  0  0  0  0  0  0  0
    8.2919  -13.4893   24.9772 C   0  0  0  0  0  0  0  0  0  0  0  0
    8.6990  -13.6961   26.2868 C   0  0  0  0  0  0  0  0  0  0  0  0
   10.7824  -17.0469   27.8772 C   0  0  0  0  0  0  0  0  0  0  0  0
    9.7356  -17.6720   28.4985 O   0  0  0  0  0  0  0  0  0  0  0  0
   11.8267  -16.8517   28.5440 O   0  0  0  0  0  0  0  0  0  0  0  0
  2  1  1  0
  3  5  1  0
  3  2  1  0
  3  4  1  6
  5  6  1  1
  5  7  1  0
  7  8  2  0
 10 12  1  0
 10  9  1  1
 11 10  1  0
 13  7  1  0
 12 13  1  6
 14 12  1  0
 14 15  2  0
 16 14  1  0
 17 16  1  0
 17 28  1  0
 17 18  1  1
 19 27  1  0
 19 18  1  0
 20 19  2  0
 21 20  1  0
 21 22  1  0
 22 23  1  0
 22 27  2  0
 23 24  2  0
 24 25  1  0
 26 25  2  0
 27 26  1  0
 28 30  2  0
 28 29  1  0
M  END
$$$$
