IVW.pdb
     RDKit          3D

 30 31  0  0  1  0  0  0  0  0999 V2000
    7.0843  -19.7569   16.3013 C   0  0  0  0  0  0  0  0  0  0  0  0
    7.2038  -19.5768   17.7808 C   0  0  0  0  0  0  0  0  0  0  0  0
    8.0083  -18.3294   18.1670 C   0  0  2  0  0  0  0  0  0  0  0  0
    9.3697  -18.3843   17.5214 C   0  0  0  0  0  0  0  0  0  0  0  0
    8.1434  -18.2495   19.6774 C   0  0  2  0  0  0  0  0  0  0  0  0
    6.7730  -18.1585   20.2400 N   0  0  0  0  0  0  0  0  0  0  0  0
    8.8224  -17.0066   20.1197 C   0  0  0  0  0  0  0  0  0  0  0  0
   10.0628  -16.8766   19.9673 O   0  0  0  0  0  0  0  0  0  0  0  0
    6.8036  -13.5105   21.7057 C   0  0  0  0  0  0  0  0  0  0  0  0
    8.0953  -13.5144   20.8929 C   0  0  2  0  0  0  0  0  0  0  0  0
    7.7249  -13.3658   19.4594 C   0  0  0  0  0  0  0  0  0  0  0  0
    8.8985  -14.7772   21.2118 C   0  0  2  0  0  0  0  0  0  0  0  0
    8.1412  -15.9257   20.7181 N   0  0  0  0  0  0  0  0  0  0  0  0
    9.1159  -14.8790   22.6621 C   0  0  0  0  0  0  0  0  0  0  0  0
    8.9263  -13.8091   23.3398 O   0  0  0  0  0  0  0  0  0  0  0  0
    9.5016  -16.0086   23.3959 N   0  0  0  0  0  0  0  0  0  0  0  0
   10.1417  -15.9322   24.7344 C   0  0  1  0  0  0  0  0  0  0  0  0
    9.1779  -16.3416   25.7814 C   0  0  0  0  0  0  0  0  0  0  0  0
    7.9481  -15.5358   25.7376 C   0  0  0  0  0  0  0  0  0  0  0  0
    6.6770  -15.9378   25.3084 C   0  0  0  0  0  0  0  0  0  0  0  0
    5.8216  -14.9117   25.3853 N   0  0  0  0  0  0  0  0  0  0  0  0
    6.4657  -13.8316   25.8509 C   0  0  0  0  0  0  0  0  0  0  0  0
    5.9642  -12.5559   26.1040 C   0  0  0  0  0  0  0  0  0  0  0  0
    6.8366  -11.6218   26.6047 C   0  0  0  0  0  0  0  0  0  0  0  0
    8.1532  -11.9566   26.8399 C   0  0  0  0  0  0  0  0  0  0  0  0
    8.6255  -13.2221   26.5815 C   0  0  0  0  0  0  0  0  0  0  0  0
    7.7722  -14.1907   26.0745 C   0  0  0  0  0  0  0  0  0  0  0  0
   11.4754  -16.5150   24.7504 C   0  0  0  0  0  0  0  0  0  0  0  0
   12.2685  -16.4499   25.8637 O   0  0  0  0  0  0  0  0  0  0  0  0
   11.9347  -17.0954   23.7377 O   0  0  0  0  0  0  0  0  0  0  0  0
  2  1  1  0
  3  5  1  0
  3  2  1  0
  3  4  1  6
  5  6  1  1
  5  7  1  0
  7  8  2  0
 10 12  1  0
 10  9  1  1
 11 10  1  0
 13  7  1  0
 12 13  1  1
 14 12  1  0
 14 15  2  0
 16 14  1  0
 17 16  1  0
 17 28  1  0
 17 18  1  1
 19 27  1  0
 19 18  1  0
 20 19  2  0
 21 20  1  0
 21 22  1  0
 22 23  1  0
 22 27  2  0
 23 24  2  0
 24 25  1  0
 26 25  2  0
 27 26  1  0
 28 30  2  0
 28 29  1  0
M  END
$$$$
