IVW.pdb
     RDKit          3D

 30 31  0  0  1  0  0  0  0  0999 V2000
    7.3810  -11.9209   18.9817 C   0  0  0  0  0  0  0  0  0  0  0  0
    7.8926  -13.2621   18.5631 C   0  0  0  0  0  0  0  0  0  0  0  0
    8.1210  -14.2097   19.7474 C   0  0  2  0  0  0  0  0  0  0  0  0
    9.0993  -13.5888   20.7120 C   0  0  0  0  0  0  0  0  0  0  0  0
    8.6475  -15.5433   19.2472 C   0  0  2  0  0  0  0  0  0  0  0  0
    7.5996  -16.1350   18.3785 N   0  0  0  0  0  0  0  0  0  0  0  0
    8.8352  -16.5248   20.3439 C   0  0  0  0  0  0  0  0  0  0  0  0
    7.8380  -17.0605   20.8890 O   0  0  0  0  0  0  0  0  0  0  0  0
   11.0377  -19.6864   20.6109 C   0  0  0  0  0  0  0  0  0  0  0  0
   11.3678  -18.7445   21.7653 C   0  0  2  0  0  0  0  0  0  0  0  0
   11.7159  -19.5830   22.9443 C   0  0  0  0  0  0  0  0  0  0  0  0
   10.1988  -17.7840   21.9943 C   0  0  2  0  0  0  0  0  0  0  0  0
   10.1038  -16.9087   20.8277 N   0  0  0  0  0  0  0  0  0  0  0  0
   10.4266  -17.0014   23.2177 C   0  0  0  0  0  0  0  0  0  0  0  0
   11.0987  -15.9199   23.0815 O   0  0  0  0  0  0  0  0  0  0  0  0
    9.9925  -17.2932   24.5175 N   0  0  0  0  0  0  0  0  0  0  0  0
   10.2439  -16.4034   25.6804 C   0  0  1  0  0  0  0  0  0  0  0  0
    9.8095  -15.0231   25.3659 C   0  0  0  0  0  0  0  0  0  0  0  0
    8.4142  -14.7846   25.7657 C   0  0  0  0  0  0  0  0  0  0  0  0
    7.3453  -15.6884   25.7207 C   0  0  0  0  0  0  0  0  0  0  0  0
    6.2223  -15.0911   26.1362 N   0  0  0  0  0  0  0  0  0  0  0  0
    6.4914  -13.8182   26.4611 C   0  0  0  0  0  0  0  0  0  0  0  0
    5.6289  -12.8401   26.9534 C   0  0  0  0  0  0  0  0  0  0  0  0
    6.1641  -11.6067   27.2300 C   0  0  0  0  0  0  0  0  0  0  0  0
    7.5059  -11.3688   27.0207 C   0  0  0  0  0  0  0  0  0  0  0  0
    8.3377  -12.3496   26.5333 C   0  0  0  0  0  0  0  0  0  0  0  0
    7.8307  -13.6073   26.2422 C   0  0  0  0  0  0  0  0  0  0  0  0
    9.8192  -16.9963   26.9401 C   0  0  0  0  0  0  0  0  0  0  0  0
   10.0979  -16.3985   28.1391 O   0  0  0  0  0  0  0  0  0  0  0  0
    9.1830  -18.0772   26.9588 O   0  0  0  0  0  0  0  0  0  0  0  0
  2  1  1  0
  3  5  1  0
  3  2  1  0
  3  4  1  1
  5  6  1  6
  5  7  1  0
  7  8  2  0
 10 12  1  0
 10  9  1  6
 11 10  1  0
 13  7  1  0
 12 13  1  6
 14 12  1  0
 14 15  2  0
 16 14  1  0
 17 16  1  0
 17 28  1  0
 17 18  1  6
 19 27  1  0
 19 18  1  0
 20 19  2  0
 21 20  1  0
 21 22  1  0
 22 23  1  0
 22 27  2  0
 23 24  2  0
 24 25  1  0
 26 25  2  0
 27 26  1  0
 28 30  2  0
 28 29  1  0
M  END
$$$$
