IVW.pdb
     RDKit          3D

 30 31  0  0  1  0  0  0  0  0999 V2000
    9.0293  -22.5959   20.4483 C   0  0  0  0  0  0  0  0  0  0  0  0
    8.3788  -21.4237   19.7861 C   0  0  0  0  0  0  0  0  0  0  0  0
    8.9625  -20.0808   20.2427 C   0  0  2  0  0  0  0  0  0  0  0  0
    8.8329  -19.9544   21.7394 C   0  0  0  0  0  0  0  0  0  0  0  0
    8.2355  -18.9404   19.5519 C   0  0  2  0  0  0  0  0  0  0  0  0
    8.4800  -19.0782   18.0945 N   0  0  0  0  0  0  0  0  0  0  0  0
    8.7944  -17.6136   19.9105 C   0  0  0  0  0  0  0  0  0  0  0  0
    9.9968  -17.3471   19.6617 O   0  0  0  0  0  0  0  0  0  0  0  0
    8.1499  -12.9201   21.3205 C   0  0  0  0  0  0  0  0  0  0  0  0
    7.5781  -14.2412   20.8138 C   0  0  2  0  0  0  0  0  0  0  0  0
    6.3744  -14.5531   21.6312 C   0  0  0  0  0  0  0  0  0  0  0  0
    8.6647  -15.3182   20.8500 C   0  0  2  0  0  0  0  0  0  0  0  0
    8.0361  -16.5986   20.5313 N   0  0  0  0  0  0  0  0  0  0  0  0
    9.2855  -15.3579   22.1819 C   0  0  0  0  0  0  0  0  0  0  0  0
   10.0355  -14.3658   22.4872 O   0  0  0  0  0  0  0  0  0  0  0  0
    9.1522  -16.3496   23.1627 N   0  0  0  0  0  0  0  0  0  0  0  0
    9.8573  -16.3042   24.4695 C   0  0  1  0  0  0  0  0  0  0  0  0
    9.7140  -14.9613   25.0767 C   0  0  0  0  0  0  0  0  0  0  0  0
    8.3207  -14.6775   25.4532 C   0  0  0  0  0  0  0  0  0  0  0  0
    7.2364  -15.5639   25.4502 C   0  0  0  0  0  0  0  0  0  0  0  0
    6.1216  -14.9256   25.8247 N   0  0  0  0  0  0  0  0  0  0  0  0
    6.4110  -13.6417   26.0815 C   0  0  0  0  0  0  0  0  0  0  0  0
    5.5627  -12.6235   26.5137 C   0  0  0  0  0  0  0  0  0  0  0  0
    6.1177  -11.3861   26.7261 C   0  0  0  0  0  0  0  0  0  0  0  0
    7.4646  -11.1831   26.5134 C   0  0  0  0  0  0  0  0  0  0  0  0
    8.2820  -12.2031   26.0861 C   0  0  0  0  0  0  0  0  0  0  0  0
    7.7550  -13.4660   25.8606 C   0  0  0  0  0  0  0  0  0  0  0  0
    9.5837  -17.4728   25.2932 C   0  0  0  0  0  0  0  0  0  0  0  0
   10.2356  -17.6776   26.4789 O   0  0  0  0  0  0  0  0  0  0  0  0
    8.7384  -18.3273   24.9348 O   0  0  0  0  0  0  0  0  0  0  0  0
  2  1  1  0
  3  5  1  0
  3  2  1  0
  3  4  1  1
  5  6  1  6
  5  7  1  0
  7  8  2  0
 10 12  1  0
 10  9  1  1
 11 10  1  0
 13  7  1  0
 12 13  1  1
 14 12  1  0
 14 15  2  0
 16 14  1  0
 17 16  1  0
 17 28  1  0
 17 18  1  1
 19 27  1  0
 19 18  1  0
 20 19  2  0
 21 20  1  0
 21 22  1  0
 22 23  1  0
 22 27  2  0
 23 24  2  0
 24 25  1  0
 26 25  2  0
 27 26  1  0
 28 30  2  0
 28 29  1  0
M  END
$$$$
