FRA.pdb
     RDKit          3D

 28 28  0  0  1  0  0  0  0  0999 V2000
   26.8253  -16.9505  -17.6388 N   0  0  0  0  0  0  0  0  0  0  0  0
   26.3659  -16.8722  -16.2671 C   0  0  1  0  0  0  0  0  0  0  0  0
   25.4788  -15.6644  -16.0660 C   0  0  0  0  0  0  0  0  0  0  0  0
   26.3285  -14.4491  -16.1664 C   0  0  0  0  0  0  0  0  0  0  0  0
   27.2685  -14.1686  -15.1698 C   0  0  0  0  0  0  0  0  0  0  0  0
   28.0523  -13.0379  -15.2727 C   0  0  0  0  0  0  0  0  0  0  0  0
   27.9538  -12.1542  -16.3279 C   0  0  0  0  0  0  0  0  0  0  0  0
   27.0292  -12.4261  -17.3122 C   0  0  0  0  0  0  0  0  0  0  0  0
   26.2358  -13.5598  -17.2194 C   0  0  0  0  0  0  0  0  0  0  0  0
   25.6736  -18.1316  -15.8555 C   0  0  0  0  0  0  0  0  0  0  0  0
   25.0188  -18.8216  -16.6804 O   0  0  0  0  0  0  0  0  0  0  0  0
   27.2116  -21.1659   -8.7613 N   0  0  0  0  0  0  0  0  0  0  0  0
   25.7925  -21.2047   -8.8002 C   0  0  0  0  0  0  0  0  0  0  0  0
   25.1318  -21.1096   -7.6854 N   0  0  0  0  0  0  0  0  0  0  0  0
   25.0714  -21.3438  -10.0175 N   0  0  0  0  0  0  0  0  0  0  0  0
   25.6154  -22.1557  -11.0814 C   0  0  0  0  0  0  0  0  0  0  0  0
   25.0123  -21.6819  -12.3959 C   0  0  0  0  0  0  0  0  0  0  0  0
   25.6565  -20.4034  -12.8606 C   0  0  0  0  0  0  0  0  0  0  0  0
   25.0605  -19.8837  -14.1365 C   0  0  2  0  0  0  0  0  0  0  0  0
   25.7171  -18.6138  -14.5209 N   0  0  0  0  0  0  0  0  0  0  0  0
   23.6202  -19.5962  -14.0113 C   0  0  0  0  0  0  0  0  0  0  0  0
   23.1761  -18.5002  -13.5937 O   0  0  0  0  0  0  0  0  0  0  0  0
   24.1028  -21.1566   -7.6456 C   0  0  0  0  0  0  0  0  0  0  0  0
   20.7389  -19.5455  -15.5862 C   0  0  2  0  0  0  0  0  0  0  0  0
   21.1899  -20.2171  -14.3125 N   0  0  0  0  0  0  0  0  0  0  0  0
   22.5993  -20.5557  -14.3600 C   0  0  0  0  0  0  0  0  0  0  0  0
   20.4045  -21.4761  -14.1571 O   0  0  0  0  0  0  0  0  0  0  0  0
   20.9399  -22.6195  -14.3016 O   0  0  0  0  0  0  0  0  0  0  0  0
  2  1  1  6
  2 10  1  0
  2  3  1  0
  3  4  1  0
  4  9  2  0
  5  4  1  0
  5  6  2  0
  6  7  1  0
  7  8  2  0
  9  8  1  0
 10 11  2  0
 13 15  1  0
 13 12  1  0
 14 13  2  0
 16 17  1  0
 16 15  1  0
 17 18  1  0
 19 18  1  1
 20 10  1  0
 20 19  1  0
 21 22  2  0
 21 19  1  0
 24 23  1  1
 24 25  1  0
 25 21  1  0
 26 24  1  0
 26 28  1  0
 27 26  2  0
M  END
$$$$
