FRA.pdb
     RDKit          3D

 28 28  0  0  1  0  0  0  0  0999 V2000
   24.5685  -15.5581  -16.7620 N   0  0  0  0  0  0  0  0  0  0  0  0
   25.6453  -16.2882  -16.1247 C   0  0  1  0  0  0  0  0  0  0  0  0
   26.2347  -15.4893  -14.9843 C   0  0  0  0  0  0  0  0  0  0  0  0
   27.0886  -14.4207  -15.5658 C   0  0  0  0  0  0  0  0  0  0  0  0
   26.7720  -13.0762  -15.3477 C   0  0  0  0  0  0  0  0  0  0  0  0
   27.5712  -12.0921  -15.8919 C   0  0  0  0  0  0  0  0  0  0  0  0
   28.6869  -12.3724  -16.6539 C   0  0  0  0  0  0  0  0  0  0  0  0
   29.0030  -13.6954  -16.8715 C   0  0  0  0  0  0  0  0  0  0  0  0
   28.2069  -14.6932  -16.3295 C   0  0  0  0  0  0  0  0  0  0  0  0
   25.1887  -17.6361  -15.6671 C   0  0  0  0  0  0  0  0  0  0  0  0
   24.0493  -17.8068  -15.1592 O   0  0  0  0  0  0  0  0  0  0  0  0
   26.4411  -25.4765  -15.6014 N   0  0  0  0  0  0  0  0  0  0  0  0
   25.0816  -25.1434  -15.3611 C   0  0  0  0  0  0  0  0  0  0  0  0
   24.5105  -25.5815  -14.2793 N   0  0  0  0  0  0  0  0  0  0  0  0
   24.3256  -24.3471  -16.2641 N   0  0  0  0  0  0  0  0  0  0  0  0
   24.8670  -23.0942  -16.7373 C   0  0  0  0  0  0  0  0  0  0  0  0
   25.8558  -22.5823  -15.6997 C   0  0  0  0  0  0  0  0  0  0  0  0
   26.3316  -21.1952  -16.0394 C   0  0  0  0  0  0  0  0  0  0  0  0
   25.5299  -20.1240  -15.3590 C   0  0  2  0  0  0  0  0  0  0  0  0
   26.0102  -18.7885  -15.7800 N   0  0  0  0  0  0  0  0  0  0  0  0
   25.6499  -20.1750  -13.8907 C   0  0  0  0  0  0  0  0  0  0  0  0
   26.7085  -19.8906  -13.2815 O   0  0  0  0  0  0  0  0  0  0  0  0
   23.5198  -25.3969  -14.0622 C   0  0  0  0  0  0  0  0  0  0  0  0
   23.4026  -20.6945  -10.8771 C   0  0  1  0  0  0  0  0  0  0  0  0
   24.7282  -20.7006  -11.5979 N   0  0  0  0  0  0  0  0  0  0  0  0
   24.5553  -20.5581  -13.0307 C   0  0  0  0  0  0  0  0  0  0  0  0
   25.3891  -22.0106  -11.3276 O   0  0  0  0  0  0  0  0  0  0  0  0
   25.8012  -22.3239  -10.1670 O   0  0  0  0  0  0  0  0  0  0  0  0
  2  1  1  1
  2 10  1  0
  2  3  1  0
  3  4  1  0
  4  9  2  0
  5  4  1  0
  5  6  2  0
  6  7  1  0
  7  8  2  0
  9  8  1  0
 10 11  2  0
 13 15  1  0
 13 12  1  0
 14 13  2  0
 16 17  1  0
 16 15  1  0
 17 18  1  0
 19 18  1  6
 20 10  1  0
 20 19  1  0
 21 22  2  0
 21 19  1  0
 24 23  1  1
 24 25  1  0
 25 21  1  0
 26 24  1  0
 26 28  1  0
 27 26  2  0
M  END
$$$$
