FRA.pdb
     RDKit          3D

 28 28  0  0  1  0  0  0  0  0999 V2000
   25.1259  -16.7009  -19.1032 N   0  0  0  0  0  0  0  0  0  0  0  0
   24.6868  -15.5665  -18.3163 C   0  0  1  0  0  0  0  0  0  0  0  0
   25.8683  -14.8444  -17.7092 C   0  0  0  0  0  0  0  0  0  0  0  0
   26.5277  -15.7687  -16.7500 C   0  0  0  0  0  0  0  0  0  0  0  0
   26.0891  -15.8299  -15.4237 C   0  0  0  0  0  0  0  0  0  0  0  0
   26.7080  -16.6913  -14.5415 C   0  0  0  0  0  0  0  0  0  0  0  0
   27.7565  -17.5100  -14.9083 C   0  0  0  0  0  0  0  0  0  0  0  0
   28.1922  -17.4534  -16.2138 C   0  0  0  0  0  0  0  0  0  0  0  0
   27.5776  -16.5912  -17.1096 C   0  0  0  0  0  0  0  0  0  0  0  0
   23.8400  -14.6399  -19.1281 C   0  0  0  0  0  0  0  0  0  0  0  0
   24.0333  -14.4841  -20.3625 O   0  0  0  0  0  0  0  0  0  0  0  0
   16.0204  -15.8893  -18.7223 N   0  0  0  0  0  0  0  0  0  0  0  0
   17.1929  -16.0422  -17.9355 C   0  0  0  0  0  0  0  0  0  0  0  0
   17.1058  -16.6551  -16.7931 N   0  0  0  0  0  0  0  0  0  0  0  0
   18.4575  -15.5473  -18.3562 N   0  0  0  0  0  0  0  0  0  0  0  0
   18.5905  -14.9451  -19.6625 C   0  0  0  0  0  0  0  0  0  0  0  0
   20.0615  -14.6292  -19.8920 C   0  0  0  0  0  0  0  0  0  0  0  0
   20.4700  -13.3786  -19.1606 C   0  0  0  0  0  0  0  0  0  0  0  0
   21.9114  -13.0222  -19.3812 C   0  0  2  0  0  0  0  0  0  0  0  0
   22.7793  -13.8907  -18.5543 N   0  0  0  0  0  0  0  0  0  0  0  0
   22.2143  -11.6312  -18.9985 C   0  0  0  0  0  0  0  0  0  0  0  0
   22.3027  -11.2547  -17.8055 O   0  0  0  0  0  0  0  0  0  0  0  0
   17.9253  -16.8232  -16.1908 C   0  0  0  0  0  0  0  0  0  0  0  0
   23.2172   -8.3940  -20.7252 C   0  0  1  0  0  0  0  0  0  0  0  0
   22.7238   -9.2224  -19.5646 N   0  0  0  0  0  0  0  0  0  0  0  0
   22.4347  -10.5849  -19.9686 C   0  0  0  0  0  0  0  0  0  0  0  0
   21.4650   -8.5995  -19.0613 O   0  0  0  0  0  0  0  0  0  0  0  0
   20.3326   -9.1507  -19.2314 O   0  0  0  0  0  0  0  0  0  0  0  0
  2  1  1  6
  2 10  1  0
  2  3  1  0
  3  4  1  0
  4  9  2  0
  5  4  1  0
  5  6  2  0
  6  7  1  0
  7  8  2  0
  9  8  1  0
 10 11  2  0
 13 15  1  0
 13 12  1  0
 14 13  2  0
 16 17  1  0
 16 15  1  0
 17 18  1  0
 19 18  1  1
 20 10  1  0
 20 19  1  0
 21 22  2  0
 21 19  1  0
 24 23  1  1
 24 25  1  0
 25 21  1  0
 26 24  1  0
 26 28  1  0
 27 26  2  0
M  END
$$$$
