FRA.pdb
     RDKit          3D

 28 28  0  0  1  0  0  0  0  0999 V2000
   27.8852  -22.3703  -11.4042 N   0  0  0  0  0  0  0  0  0  0  0  0
   26.9184  -21.4605  -10.8243 C   0  0  1  0  0  0  0  0  0  0  0  0
   27.5595  -20.1299  -10.5009 C   0  0  0  0  0  0  0  0  0  0  0  0
   27.8451  -20.1005   -9.0426 C   0  0  0  0  0  0  0  0  0  0  0  0
   29.0358  -20.6454   -8.5519 C   0  0  0  0  0  0  0  0  0  0  0  0
   29.2912  -20.6128   -7.1966 C   0  0  0  0  0  0  0  0  0  0  0  0
   28.4156  -20.0600   -6.2845 C   0  0  0  0  0  0  0  0  0  0  0  0
   27.2413  -19.5219   -6.7630 C   0  0  0  0  0  0  0  0  0  0  0  0
   26.9738  -19.5489   -8.1235 C   0  0  0  0  0  0  0  0  0  0  0  0
   25.7314  -21.2910  -11.7171 C   0  0  0  0  0  0  0  0  0  0  0  0
   25.8178  -21.4508  -12.9631 O   0  0  0  0  0  0  0  0  0  0  0  0
   17.4013  -22.9592   -8.8989 N   0  0  0  0  0  0  0  0  0  0  0  0
   17.4758  -23.2455  -10.2879 C   0  0  0  0  0  0  0  0  0  0  0  0
   16.4294  -23.7325  -10.8848 N   0  0  0  0  0  0  0  0  0  0  0  0
   18.6564  -23.0171  -11.0464 N   0  0  0  0  0  0  0  0  0  0  0  0
   19.8259  -22.4684  -10.4000 C   0  0  0  0  0  0  0  0  0  0  0  0
   20.8764  -22.1996  -11.4679 C   0  0  0  0  0  0  0  0  0  0  0  0
   22.1737  -21.7470  -10.8533 C   0  0  0  0  0  0  0  0  0  0  0  0
   23.2087  -21.3896  -11.8801 C   0  0  2  0  0  0  0  0  0  0  0  0
   24.4514  -20.9429  -11.2112 N   0  0  0  0  0  0  0  0  0  0  0  0
   22.7775  -20.2854  -12.7564 C   0  0  0  0  0  0  0  0  0  0  0  0
   22.5069  -19.1386  -12.3272 O   0  0  0  0  0  0  0  0  0  0  0  0
   16.4376  -24.0124  -11.8769 C   0  0  0  0  0  0  0  0  0  0  0  0
   22.6350  -19.5723  -16.4745 C   0  0  1  0  0  0  0  0  0  0  0  0
   22.2721  -19.3137  -15.0329 N   0  0  0  0  0  0  0  0  0  0  0  0
   22.6308  -20.4342  -14.1849 C   0  0  0  0  0  0  0  0  0  0  0  0
   20.7946  -19.1187  -14.9618 O   0  0  0  0  0  0  0  0  0  0  0  0
   20.0151  -20.0507  -14.5893 O   0  0  0  0  0  0  0  0  0  0  0  0
  2  1  1  6
  2 10  1  0
  2  3  1  0
  3  4  1  0
  4  9  2  0
  5  4  1  0
  5  6  2  0
  6  7  1  0
  7  8  2  0
  9  8  1  0
 10 11  2  0
 13 15  1  0
 13 12  1  0
 14 13  2  0
 16 17  1  0
 16 15  1  0
 17 18  1  0
 19 18  1  1
 20 10  1  0
 20 19  1  0
 21 22  2  0
 21 19  1  0
 24 23  1  1
 24 25  1  0
 25 21  1  0
 26 24  1  0
 26 28  1  0
 27 26  2  0
M  END
$$$$
