FRA.pdb
     RDKit          3D

 28 28  0  0  1  0  0  0  0  0999 V2000
   24.3662  -12.8802  -17.6837 N   0  0  0  0  0  0  0  0  0  0  0  0
   24.5585  -11.7384  -16.8130 C   0  0  1  0  0  0  0  0  0  0  0  0
   25.9121  -11.1066  -17.0467 C   0  0  0  0  0  0  0  0  0  0  0  0
   26.9525  -12.1174  -16.7228 C   0  0  0  0  0  0  0  0  0  0  0  0
   27.1818  -12.4837  -15.3929 C   0  0  0  0  0  0  0  0  0  0  0  0
   28.1498  -13.4230  -15.1032 C   0  0  0  0  0  0  0  0  0  0  0  0
   28.9167  -14.0301  -16.0765 C   0  0  0  0  0  0  0  0  0  0  0  0
   28.6946  -13.6726  -17.3882 C   0  0  0  0  0  0  0  0  0  0  0  0
   27.7241  -12.7295  -17.6914 C   0  0  0  0  0  0  0  0  0  0  0  0
   23.4563  -10.7418  -16.9760 C   0  0  0  0  0  0  0  0  0  0  0  0
   22.9010  -10.5520  -18.0900 O   0  0  0  0  0  0  0  0  0  0  0  0
   15.5755   -9.7483  -13.8219 N   0  0  0  0  0  0  0  0  0  0  0  0
   15.7912   -8.6486  -14.6942 C   0  0  0  0  0  0  0  0  0  0  0  0
   14.7853   -7.8862  -15.0028 N   0  0  0  0  0  0  0  0  0  0  0  0
   17.0704   -8.3544  -15.2404 N   0  0  0  0  0  0  0  0  0  0  0  0
   18.1655   -9.2726  -15.0301 C   0  0  0  0  0  0  0  0  0  0  0  0
   19.4260   -8.6494  -15.6121 C   0  0  0  0  0  0  0  0  0  0  0  0
   20.6007   -9.5826  -15.4903 C   0  0  0  0  0  0  0  0  0  0  0  0
   21.8634   -9.0033  -16.0587 C   0  0  2  0  0  0  0  0  0  0  0  0
   22.9797   -9.9609  -15.8903 N   0  0  0  0  0  0  0  0  0  0  0  0
   22.2674   -7.7570  -15.3831 C   0  0  0  0  0  0  0  0  0  0  0  0
   22.7348   -7.7312  -14.2197 O   0  0  0  0  0  0  0  0  0  0  0  0
   14.8675   -7.1024  -15.6672 C   0  0  0  0  0  0  0  0  0  0  0  0
   22.3321   -4.0248  -16.1682 C   0  0  1  0  0  0  0  0  0  0  0  0
   22.4538   -5.2396  -15.2814 N   0  0  0  0  0  0  0  0  0  0  0  0
   22.1577   -6.4598  -16.0072 C   0  0  0  0  0  0  0  0  0  0  0  0
   21.4667   -5.0960  -14.1719 O   0  0  0  0  0  0  0  0  0  0  0  0
   20.3183   -5.6377  -14.2254 O   0  0  0  0  0  0  0  0  0  0  0  0
  2  1  1  6
  2 10  1  0
  2  3  1  0
  3  4  1  0
  4  9  2  0
  5  4  1  0
  5  6  2  0
  6  7  1  0
  7  8  2  0
  9  8  1  0
 10 11  2  0
 13 15  1  0
 13 12  1  0
 14 13  2  0
 16 17  1  0
 16 15  1  0
 17 18  1  0
 19 18  1  1
 20 10  1  0
 20 19  1  0
 21 22  2  0
 21 19  1  0
 24 23  1  6
 24 25  1  0
 25 21  1  0
 26 24  1  0
 26 28  1  0
 27 26  2  0
M  END
$$$$
