RNK.pdb
     RDKit          3D

 29 28  0  0  1  0  0  0  0  0999 V2000
    8.6685  -14.9009   15.8684 N   0  0  0  0  0  0  0  0  0  0  0  0
    8.0628  -13.7110   15.3936 C   0  0  0  0  0  0  0  0  0  0  0  0
    8.0935  -13.3338   14.1624 N   0  0  0  0  0  0  0  0  0  0  0  0
    7.3822  -12.8844   16.3249 N   0  0  0  0  0  0  0  0  0  0  0  0
    7.5394  -13.0940   17.7617 C   0  0  0  0  0  0  0  0  0  0  0  0
    6.8055  -14.3249   18.2240 C   0  0  0  0  0  0  0  0  0  0  0  0
    7.0132  -14.4953   19.7193 C   0  0  0  0  0  0  0  0  0  0  0  0
    8.4511  -14.1619   20.0975 C   0  0  2  0  0  0  0  0  0  0  0  0
    9.2405  -13.7868   18.9562 N   0  0  0  0  0  0  0  0  0  0  0  0
    9.0518  -15.3628   20.7616 C   0  0  0  0  0  0  0  0  0  0  0  0
    8.3862  -16.0472   21.5908 O   0  0  0  0  0  0  0  0  0  0  0  0
    7.6596  -12.4241   13.9106 N   0  0  0  0  0  0  0  0  0  0  0  0
   11.2078  -20.3757   19.5320 C   0  0  0  0  0  0  0  0  0  0  0  0
   11.8707  -19.1887   19.8411 O   0  0  0  0  0  0  0  0  0  0  0  0
   12.9891  -19.2694   20.4310 C   0  0  0  0  0  0  0  0  0  0  0  0
   11.3871  -17.8220   19.5422 C   0  0  1  0  0  0  0  0  0  0  0  0
   10.7963  -17.1369   20.7413 N   0  0  0  0  0  0  0  0  0  0  0  0
   10.3747  -15.7993   20.5092 C   0  0  0  0  0  0  0  0  0  0  0  0
   11.6645  -17.2285   21.9351 O   0  0  0  0  0  0  0  0  0  0  0  0
   12.1293  -18.3447   22.2558 N   0  0  0  0  0  0  0  0  0  0  0  0
   11.9920  -16.1049   22.7314 C   0  0  2  0  0  0  0  0  0  0  0  0
   12.7365  -16.2030   23.9705 C   0  0  0  0  0  0  0  0  0  0  0  0
   11.9243  -16.9990   24.9686 C   0  0  0  0  0  0  0  0  0  0  0  0
   12.6745  -17.2140   26.2578 C   0  0  0  0  0  0  0  0  0  0  0  0
   11.8489  -17.9584   27.2787 C   0  0  0  0  0  0  0  0  0  0  0  0
   12.6187  -18.2918   28.5343 N   0  0  0  0  0  0  0  0  0  0  0  0
   11.8063  -19.0122   29.4883 C   0  0  0  0  0  0  0  0  0  0  0  0
   14.0785  -16.7715   23.7427 O   0  0  0  0  0  0  0  0  0  0  0  0
   14.1617  -17.8839   23.1599 O   0  0  0  0  0  0  0  0  0  0  0  0
  1  2  1  0
  2  3  2  0
  4  5  1  0
  4  2  1  0
  6  7  1  0
  6  5  1  0
  8  9  1  6
  8  7  1  0
 10 11  2  0
 10  8  1  0
 12 13  1  0
 13 15  1  0
 13 14  2  0
 16 15  1  6
 16 18  1  0
 16 17  1  0
 17 10  1  0
 18 20  1  0
 19 18  2  0
 20 21  1  0
 21 27  1  0
 21 22  1  6
 23 22  1  0
 24 25  1  0
 24 23  1  0
 26 25  1  0
 27 28  2  0
 27 29  1  0
M  END
$$$$
