RNK.pdb
     RDKit          3D

 29 28  0  0  1  0  0  0  0  0999 V2000
    8.9953  -11.8709   18.2000 N   0  0  0  0  0  0  0  0  0  0  0  0
    8.4753  -12.9289   17.4136 C   0  0  0  0  0  0  0  0  0  0  0  0
    8.2786  -12.8472   16.1433 N   0  0  0  0  0  0  0  0  0  0  0  0
    8.1513  -14.1506   18.0587 N   0  0  0  0  0  0  0  0  0  0  0  0
    8.7150  -14.4755   19.3664 C   0  0  0  0  0  0  0  0  0  0  0  0
    7.9187  -13.8517   20.4818 C   0  0  0  0  0  0  0  0  0  0  0  0
    8.5785  -14.1835   21.8094 C   0  0  0  0  0  0  0  0  0  0  0  0
    8.5656  -15.6884   22.0478 C   0  0  2  0  0  0  0  0  0  0  0  0
    8.4560  -16.0170   23.4430 N   0  0  0  0  0  0  0  0  0  0  0  0
    9.8293  -16.2631   21.4854 C   0  0  0  0  0  0  0  0  0  0  0  0
    9.7974  -17.2354   20.6774 O   0  0  0  0  0  0  0  0  0  0  0  0
    7.9172  -13.6822   15.6418 N   0  0  0  0  0  0  0  0  0  0  0  0
   14.1855  -15.0627   18.8763 C   0  0  0  0  0  0  0  0  0  0  0  0
   12.8555  -14.7108   18.6500 O   0  0  0  0  0  0  0  0  0  0  0  0
   12.5683  -14.1514   17.5501 C   0  0  0  0  0  0  0  0  0  0  0  0
   11.7290  -14.9308   19.5847 C   0  0  1  0  0  0  0  0  0  0  0  0
   12.1481  -15.6207   20.8514 N   0  0  0  0  0  0  0  0  0  0  0  0
   11.1132  -15.7657   21.8151 C   0  0  0  0  0  0  0  0  0  0  0  0
   13.3619  -15.0244   21.4501 O   0  0  0  0  0  0  0  0  0  0  0  0
   14.3465  -14.7980   20.7125 N   0  0  0  0  0  0  0  0  0  0  0  0
   13.4567  -14.6988   22.8245 C   0  0  2  0  0  0  0  0  0  0  0  0
   14.0196  -15.5957   23.8134 C   0  0  0  0  0  0  0  0  0  0  0  0
   12.9699  -16.6119   24.2073 C   0  0  0  0  0  0  0  0  0  0  0  0
   13.5317  -17.6750   25.1158 C   0  0  0  0  0  0  0  0  0  0  0  0
   12.4980  -18.7106   25.4862 C   0  0  0  0  0  0  0  0  0  0  0  0
   13.0073  -19.7272   26.4799 N   0  0  0  0  0  0  0  0  0  0  0  0
   11.9768  -20.6633   26.8682 C   0  0  0  0  0  0  0  0  0  0  0  0
   15.2626  -16.2193   23.3215 O   0  0  0  0  0  0  0  0  0  0  0  0
   16.3388  -15.9485   23.9153 O   0  0  0  0  0  0  0  0  0  0  0  0
  1  2  1  0
  2  3  2  0
  4  5  1  0
  4  2  1  0
  6  7  1  0
  6  5  1  0
  8  9  1  1
  8  7  1  0
 10 11  2  0
 10  8  1  0
 12 13  1  0
 13 15  1  0
 13 14  2  0
 16 15  1  6
 16 18  1  0
 16 17  1  0
 17 10  1  0
 18 20  1  0
 19 18  2  0
 20 21  1  0
 21 27  1  0
 21 22  1  6
 23 22  1  0
 24 25  1  0
 24 23  1  0
 26 25  1  0
 27 28  2  0
 27 29  1  0
M  END
$$$$
