RNK.pdb
     RDKit          3D

 29 28  0  0  1  0  0  0  0  0999 V2000
    8.2587  -13.1177   13.2533 N   0  0  0  0  0  0  0  0  0  0  0  0
    8.6806  -13.4982   14.5515 C   0  0  0  0  0  0  0  0  0  0  0  0
    9.6998  -14.2514   14.7813 N   0  0  0  0  0  0  0  0  0  0  0  0
    7.9401  -13.0243   15.6656 N   0  0  0  0  0  0  0  0  0  0  0  0
    8.2908  -13.4346   17.0228 C   0  0  0  0  0  0  0  0  0  0  0  0
    8.2933  -14.9338   17.1635 C   0  0  0  0  0  0  0  0  0  0  0  0
    8.5889  -15.2970   18.6087 C   0  0  0  0  0  0  0  0  0  0  0  0
    8.6901  -16.8091   18.7666 C   0  0  2  0  0  0  0  0  0  0  0  0
    7.4933  -17.4817   18.3402 N   0  0  0  0  0  0  0  0  0  0  0  0
    8.9607  -17.1130   20.2082 C   0  0  0  0  0  0  0  0  0  0  0  0
    8.0348  -17.0608   21.0679 O   0  0  0  0  0  0  0  0  0  0  0  0
    9.9393  -14.4762   15.7669 N   0  0  0  0  0  0  0  0  0  0  0  0
   12.7610  -20.0338   20.3579 C   0  0  0  0  0  0  0  0  0  0  0  0
   11.7642  -19.8302   21.3113 O   0  0  0  0  0  0  0  0  0  0  0  0
   10.8312  -20.6839   21.3865 C   0  0  0  0  0  0  0  0  0  0  0  0
   11.6892  -18.6954   22.2588 C   0  0  2  0  0  0  0  0  0  0  0  0
   10.4763  -17.8356   22.0446 N   0  0  0  0  0  0  0  0  0  0  0  0
   10.2429  -17.4704   20.6908 C   0  0  0  0  0  0  0  0  0  0  0  0
   10.4517  -16.6535   22.9331 O   0  0  0  0  0  0  0  0  0  0  0  0
   11.2390  -15.7098   22.6996 N   0  0  0  0  0  0  0  0  0  0  0  0
    9.5738  -16.5448   24.0383 C   0  0  1  0  0  0  0  0  0  0  0  0
    9.5728  -15.4104   24.9396 C   0  0  0  0  0  0  0  0  0  0  0  0
    8.2009  -14.7725   24.9230 C   0  0  0  0  0  0  0  0  0  0  0  0
    8.0906  -13.6535   25.9264 C   0  0  0  0  0  0  0  0  0  0  0  0
    6.7016  -13.0647   25.9711 C   0  0  0  0  0  0  0  0  0  0  0  0
    6.5550  -11.9695   27.0003 N   0  0  0  0  0  0  0  0  0  0  0  0
    5.1891  -11.5086   27.1049 C   0  0  0  0  0  0  0  0  0  0  0  0
   10.0033  -15.8052   26.2941 O   0  0  0  0  0  0  0  0  0  0  0  0
    9.8902  -17.0143   26.6250 O   0  0  0  0  0  0  0  0  0  0  0  0
  1  2  1  0
  2  3  2  0
  4  5  1  0
  4  2  1  0
  6  7  1  0
  6  5  1  0
  8  9  1  1
  8  7  1  0
 10 11  2  0
 10  8  1  0
 12 13  1  0
 13 15  1  0
 13 14  2  0
 16 15  1  6
 16 18  1  0
 16 17  1  0
 17 10  1  0
 18 20  1  0
 19 18  2  0
 20 21  1  0
 21 27  1  0
 21 22  1  1
 23 22  1  0
 24 25  1  0
 24 23  1  0
 26 25  1  0
 27 28  2  0
 27 29  1  0
M  END
$$$$
