RNK.pdb
     RDKit          3D

 29 28  0  0  1  0  0  0  0  0999 V2000
    8.2446  -18.4488   17.4388 N   0  0  0  0  0  0  0  0  0  0  0  0
    9.4954  -17.7832   17.4637 C   0  0  0  0  0  0  0  0  0  0  0  0
   10.5136  -18.1972   18.1352 N   0  0  0  0  0  0  0  0  0  0  0  0
    9.6389  -16.5916   16.7065 N   0  0  0  0  0  0  0  0  0  0  0  0
    9.9599  -15.3263   17.3616 C   0  0  0  0  0  0  0  0  0  0  0  0
    8.9706  -14.2503   16.9997 C   0  0  0  0  0  0  0  0  0  0  0  0
    7.6588  -14.5194   17.7172 C   0  0  0  0  0  0  0  0  0  0  0  0
    7.4495  -13.5092   18.8386 C   0  0  2  0  0  0  0  0  0  0  0  0
    7.8360  -12.1797   18.4519 N   0  0  0  0  0  0  0  0  0  0  0  0
    8.2529  -13.9505   20.0233 C   0  0  0  0  0  0  0  0  0  0  0  0
    9.4049  -13.4762   20.2399 O   0  0  0  0  0  0  0  0  0  0  0  0
   11.3920  -17.6437   18.0973 N   0  0  0  0  0  0  0  0  0  0  0  0
    6.5500  -13.6527   23.9207 C   0  0  0  0  0  0  0  0  0  0  0  0
    7.3387  -14.7676   24.2016 O   0  0  0  0  0  0  0  0  0  0  0  0
    7.7749  -14.9038   25.3833 C   0  0  0  0  0  0  0  0  0  0  0  0
    7.7217  -15.8241   23.2382 C   0  0  2  0  0  0  0  0  0  0  0  0
    8.5413  -15.3005   22.0935 N   0  0  0  0  0  0  0  0  0  0  0  0
    7.7844  -14.9065   20.9567 C   0  0  0  0  0  0  0  0  0  0  0  0
    9.6428  -16.2129   21.7172 O   0  0  0  0  0  0  0  0  0  0  0  0
    9.6433  -16.7135   20.5708 N   0  0  0  0  0  0  0  0  0  0  0  0
   10.6980  -16.5442   22.6008 C   0  0  1  0  0  0  0  0  0  0  0  0
   12.0255  -16.9068   22.1475 C   0  0  0  0  0  0  0  0  0  0  0  0
   12.5729  -15.7877   21.2888 C   0  0  0  0  0  0  0  0  0  0  0  0
   13.9285  -16.1260   20.7240 C   0  0  0  0  0  0  0  0  0  0  0  0
   14.5056  -14.9917   19.9125 C   0  0  0  0  0  0  0  0  0  0  0  0
   15.8423  -15.3253   19.2945 N   0  0  0  0  0  0  0  0  0  0  0  0
   16.2513  -14.3317   18.3278 C   0  0  0  0  0  0  0  0  0  0  0  0
   12.9053  -17.2378   23.2843 O   0  0  0  0  0  0  0  0  0  0  0  0
   14.0653  -17.6583   23.0354 O   0  0  0  0  0  0  0  0  0  0  0  0
  1  2  1  0
  2  3  2  0
  4  5  1  0
  4  2  1  0
  6  7  1  0
  6  5  1  0
  8  9  1  6
  8  7  1  0
 10 11  2  0
 10  8  1  0
 12 13  1  0
 13 15  1  0
 13 14  2  0
 16 15  1  1
 16 18  1  0
 16 17  1  0
 17 10  1  0
 18 20  1  0
 19 18  2  0
 20 21  1  0
 21 27  1  0
 21 22  1  6
 23 22  1  0
 24 25  1  0
 24 23  1  0
 26 25  1  0
 27 28  2  0
 27 29  1  0
M  END
$$$$
