RNK.pdb
     RDKit          3D

 29 28  0  0  1  0  0  0  0  0999 V2000
    7.2879  -11.7374   19.6647 N   0  0  0  0  0  0  0  0  0  0  0  0
    8.0775  -12.5602   18.8235 C   0  0  0  0  0  0  0  0  0  0  0  0
    8.0273  -12.5263   17.5369 N   0  0  0  0  0  0  0  0  0  0  0  0
    8.9767  -13.4757   19.4293 N   0  0  0  0  0  0  0  0  0  0  0  0
    8.5169  -14.3977   20.4646 C   0  0  0  0  0  0  0  0  0  0  0  0
    8.5562  -15.8260   19.9895 C   0  0  0  0  0  0  0  0  0  0  0  0
    9.6419  -16.5720   20.7463 C   0  0  0  0  0  0  0  0  0  0  0  0
    9.0667  -17.2194   22.0000 C   0  0  2  0  0  0  0  0  0  0  0  0
    7.6482  -17.4303   21.9012 N   0  0  0  0  0  0  0  0  0  0  0  0
    9.3710  -16.3319   23.1678 C   0  0  0  0  0  0  0  0  0  0  0  0
   10.5417  -15.8961   23.3647 O   0  0  0  0  0  0  0  0  0  0  0  0
    8.6504  -13.1599   16.9986 N   0  0  0  0  0  0  0  0  0  0  0  0
    5.2714  -13.6843   25.9521 C   0  0  0  0  0  0  0  0  0  0  0  0
    6.3512  -14.4700   25.5513 O   0  0  0  0  0  0  0  0  0  0  0  0
    6.1079  -15.6313   25.1070 C   0  0  0  0  0  0  0  0  0  0  0  0
    7.7765  -14.0729   25.5953 C   0  0  1  0  0  0  0  0  0  0  0  0
    8.7087  -15.2098   25.2875 N   0  0  0  0  0  0  0  0  0  0  0  0
    8.3888  -15.9325   24.1061 C   0  0  0  0  0  0  0  0  0  0  0  0
    8.8997  -16.1177   26.4393 O   0  0  0  0  0  0  0  0  0  0  0  0
    8.8000  -15.6507   27.5955 N   0  0  0  0  0  0  0  0  0  0  0  0
    9.1911  -17.4948   26.2883 C   0  0  1  0  0  0  0  0  0  0  0  0
    9.4734  -18.3712   27.4070 C   0  0  0  0  0  0  0  0  0  0  0  0
    9.1090  -19.7887   27.0231 C   0  0  0  0  0  0  0  0  0  0  0  0
    7.7137  -19.8763   26.4606 C   0  0  0  0  0  0  0  0  0  0  0  0
    7.3604  -21.2798   26.0322 C   0  0  0  0  0  0  0  0  0  0  0  0
    5.9493  -21.4022   25.5089 N   0  0  0  0  0  0  0  0  0  0  0  0
    5.6350  -22.7585   25.1207 C   0  0  0  0  0  0  0  0  0  0  0  0
   10.8754  -18.2404   27.8464 O   0  0  0  0  0  0  0  0  0  0  0  0
   11.7354  -17.8945   26.9948 O   0  0  0  0  0  0  0  0  0  0  0  0
  1  2  1  0
  2  3  2  0
  4  5  1  0
  4  2  1  0
  6  7  1  0
  6  5  1  0
  8  9  1  6
  8  7  1  0
 10 11  2  0
 10  8  1  0
 12 13  1  0
 13 15  1  0
 13 14  2  0
 16 15  1  6
 16 18  1  0
 16 17  1  0
 17 10  1  0
 18 20  1  0
 19 18  2  0
 20 21  1  0
 21 27  1  0
 21 22  1  1
 23 22  1  0
 24 25  1  0
 24 23  1  0
 26 25  1  0
 27 28  2  0
 27 29  1  0
M  END
$$$$
