RNK.pdb
     RDKit          3D

 29 28  0  0  1  0  0  0  0  0999 V2000
    9.1463  -13.1651   21.7022 N   0  0  0  0  0  0  0  0  0  0  0  0
    8.4354  -12.8226   20.5252 C   0  0  0  0  0  0  0  0  0  0  0  0
    7.6154  -11.8326   20.4463 N   0  0  0  0  0  0  0  0  0  0  0  0
    8.6357  -13.6134   19.3639 N   0  0  0  0  0  0  0  0  0  0  0  0
    9.3517  -14.8841   19.4417 C   0  0  0  0  0  0  0  0  0  0  0  0
    8.4756  -15.9791   19.9901 C   0  0  0  0  0  0  0  0  0  0  0  0
    9.3527  -17.1161   20.4860 C   0  0  0  0  0  0  0  0  0  0  0  0
    8.7737  -17.7167   21.7611 C   0  0  2  0  0  0  0  0  0  0  0  0
    7.3402  -17.6188   21.8061 N   0  0  0  0  0  0  0  0  0  0  0  0
    9.3718  -16.9982   22.9315 C   0  0  0  0  0  0  0  0  0  0  0  0
   10.6201  -16.8129   23.0110 O   0  0  0  0  0  0  0  0  0  0  0  0
    7.1888  -11.6130   19.5248 N   0  0  0  0  0  0  0  0  0  0  0  0
    8.5425  -13.1659   27.7149 C   0  0  0  0  0  0  0  0  0  0  0  0
    9.1386  -14.0253   26.7929 O   0  0  0  0  0  0  0  0  0  0  0  0
   10.3661  -14.2997   26.9446 C   0  0  0  0  0  0  0  0  0  0  0  0
    8.4660  -14.6579   25.6360 C   0  0  2  0  0  0  0  0  0  0  0  0
    9.1755  -15.8896   25.1504 N   0  0  0  0  0  0  0  0  0  0  0  0
    8.5947  -16.4913   24.0010 C   0  0  0  0  0  0  0  0  0  0  0  0
    9.3948  -16.8818   26.2251 O   0  0  0  0  0  0  0  0  0  0  0  0
    8.4026  -17.3269   26.8434 N   0  0  0  0  0  0  0  0  0  0  0  0
   10.6817  -17.3495   26.5841 C   0  0  1  0  0  0  0  0  0  0  0  0
   10.9081  -18.3018   27.6524 C   0  0  0  0  0  0  0  0  0  0  0  0
   11.7864  -19.4197   27.1344 C   0  0  0  0  0  0  0  0  0  0  0  0
   11.0943  -20.2280   26.0672 C   0  0  0  0  0  0  0  0  0  0  0  0
   11.9471  -21.3737   25.5790 C   0  0  0  0  0  0  0  0  0  0  0  0
   11.2574  -22.2250   24.5400 N   0  0  0  0  0  0  0  0  0  0  0  0
   12.1152  -23.2822   24.0546 C   0  0  0  0  0  0  0  0  0  0  0  0
   11.4686  -17.6408   28.8461 O   0  0  0  0  0  0  0  0  0  0  0  0
   12.0381  -16.5283   28.6972 O   0  0  0  0  0  0  0  0  0  0  0  0
  1  2  1  0
  2  3  2  0
  4  5  1  0
  4  2  1  0
  6  7  1  0
  6  5  1  0
  8  9  1  6
  8  7  1  0
 10 11  2  0
 10  8  1  0
 12 13  1  0
 13 15  1  0
 13 14  2  0
 16 15  1  6
 16 18  1  0
 16 17  1  0
 17 10  1  0
 18 20  1  0
 19 18  2  0
 20 21  1  0
 21 27  1  0
 21 22  1  1
 23 22  1  0
 24 25  1  0
 24 23  1  0
 26 25  1  0
 27 28  2  0
 27 29  1  0
M  END
$$$$
