RNK.pdb
     RDKit          3D

 29 28  0  0  1  0  0  0  0  0999 V2000
    7.8924  -12.5958   15.7822 N   0  0  0  0  0  0  0  0  0  0  0  0
    8.2989  -12.9714   17.0867 C   0  0  0  0  0  0  0  0  0  0  0  0
    9.4926  -13.3541   17.3825 N   0  0  0  0  0  0  0  0  0  0  0  0
    7.3385  -12.9247   18.1304 N   0  0  0  0  0  0  0  0  0  0  0  0
    7.7033  -13.2923   19.4961 C   0  0  0  0  0  0  0  0  0  0  0  0
    7.7607  -14.7870   19.6692 C   0  0  0  0  0  0  0  0  0  0  0  0
    8.3232  -15.1070   21.0437 C   0  0  0  0  0  0  0  0  0  0  0  0
    8.4931  -16.6119   21.2113 C   0  0  2  0  0  0  0  0  0  0  0  0
    7.2384  -17.2804   21.4243 N   0  0  0  0  0  0  0  0  0  0  0  0
    9.4050  -16.8542   22.3746 C   0  0  0  0  0  0  0  0  0  0  0  0
    8.9547  -17.2901   23.4730 O   0  0  0  0  0  0  0  0  0  0  0  0
    9.6938  -13.6433   18.3598 N   0  0  0  0  0  0  0  0  0  0  0  0
   13.9063  -14.5308   22.2609 C   0  0  0  0  0  0  0  0  0  0  0  0
   13.4160  -15.8150   22.0276 O   0  0  0  0  0  0  0  0  0  0  0  0
   13.1848  -16.1535   20.8288 C   0  0  0  0  0  0  0  0  0  0  0  0
   13.1351  -16.8371   23.0607 C   0  0  2  0  0  0  0  0  0  0  0  0
   11.6740  -16.9459   23.3917 N   0  0  0  0  0  0  0  0  0  0  0  0
   10.7996  -16.6160   22.3207 C   0  0  0  0  0  0  0  0  0  0  0  0
   11.3135  -16.2152   24.6260 O   0  0  0  0  0  0  0  0  0  0  0  0
   11.5825  -14.9959   24.7026 N   0  0  0  0  0  0  0  0  0  0  0  0
   10.6760  -16.8381   25.7258 C   0  0  1  0  0  0  0  0  0  0  0  0
   10.3530  -16.1390   26.9531 C   0  0  0  0  0  0  0  0  0  0  0  0
    8.8875  -15.7632   26.9320 C   0  0  0  0  0  0  0  0  0  0  0  0
    8.6909  -14.2841   26.7206 C   0  0  0  0  0  0  0  0  0  0  0  0
    7.2357  -13.8888   26.7866 C   0  0  0  0  0  0  0  0  0  0  0  0
    7.0218  -12.3972   26.6893 N   0  0  0  0  0  0  0  0  0  0  0  0
    5.6212  -12.0483   26.7650 C   0  0  0  0  0  0  0  0  0  0  0  0
   10.7207  -16.9403   28.1358 O   0  0  0  0  0  0  0  0  0  0  0  0
   10.9215  -18.1730   27.9796 O   0  0  0  0  0  0  0  0  0  0  0  0
  1  2  1  0
  2  3  2  0
  4  5  1  0
  4  2  1  0
  6  7  1  0
  6  5  1  0
  8  9  1  1
  8  7  1  0
 10 11  2  0
 10  8  1  0
 12 13  1  0
 13 15  1  0
 13 14  2  0
 16 15  1  6
 16 18  1  0
 16 17  1  0
 17 10  1  0
 18 20  1  0
 19 18  2  0
 20 21  1  0
 21 27  1  0
 21 22  1  1
 23 22  1  0
 24 25  1  0
 24 23  1  0
 26 25  1  0
 27 28  2  0
 27 29  1  0
M  END
$$$$
