RNK.pdb
     RDKit          3D

 29 28  0  0  1  0  0  0  0  0999 V2000
    9.2910  -14.9464   14.9634 N   0  0  0  0  0  0  0  0  0  0  0  0
    8.2690  -14.3110   15.7117 C   0  0  0  0  0  0  0  0  0  0  0  0
    7.9998  -13.0540   15.6328 N   0  0  0  0  0  0  0  0  0  0  0  0
    7.4951  -15.1017   16.6004 N   0  0  0  0  0  0  0  0  0  0  0  0
    8.1161  -15.7569   17.7486 C   0  0  0  0  0  0  0  0  0  0  0  0
    9.3772  -15.0513   18.1720 C   0  0  0  0  0  0  0  0  0  0  0  0
    9.9846  -15.7858   19.3550 C   0  0  0  0  0  0  0  0  0  0  0  0
    8.9164  -16.0860   20.3994 C   0  0  2  0  0  0  0  0  0  0  0  0
    7.7555  -15.2524   20.2450 N   0  0  0  0  0  0  0  0  0  0  0  0
    9.5164  -15.8800   21.7564 C   0  0  0  0  0  0  0  0  0  0  0  0
   10.6505  -16.3593   22.0446 O   0  0  0  0  0  0  0  0  0  0  0  0
    7.2630  -12.6638   16.2527 N   0  0  0  0  0  0  0  0  0  0  0  0
    6.4991  -14.9395   24.0228 C   0  0  0  0  0  0  0  0  0  0  0  0
    7.2272  -14.0752   24.8394 O   0  0  0  0  0  0  0  0  0  0  0  0
    6.5845  -13.2366   25.5385 C   0  0  0  0  0  0  0  0  0  0  0  0
    8.7012  -14.0419   24.9709 C   0  0  1  0  0  0  0  0  0  0  0  0
    9.3877  -15.0556   24.1005 N   0  0  0  0  0  0  0  0  0  0  0  0
    8.8664  -15.1513   22.7816 C   0  0  0  0  0  0  0  0  0  0  0  0
    9.4816  -16.3856   24.7404 O   0  0  0  0  0  0  0  0  0  0  0  0
    8.5625  -17.2118   24.5466 N   0  0  0  0  0  0  0  0  0  0  0  0
   10.5690  -16.7638   25.5640 C   0  0  1  0  0  0  0  0  0  0  0  0
   10.7784  -18.1215   26.0244 C   0  0  0  0  0  0  0  0  0  0  0  0
   11.3939  -18.9298   24.9031 C   0  0  0  0  0  0  0  0  0  0  0  0
   11.5767  -20.3752   25.2886 C   0  0  0  0  0  0  0  0  0  0  0  0
   12.1349  -21.1999   24.1545 C   0  0  0  0  0  0  0  0  0  0  0  0
   12.2824  -22.6620   24.5016 N   0  0  0  0  0  0  0  0  0  0  0  0
   12.9674  -23.3957   23.4617 C   0  0  0  0  0  0  0  0  0  0  0  0
   11.5865  -18.1476   27.2582 O   0  0  0  0  0  0  0  0  0  0  0  0
   11.3231  -19.0236   28.1228 O   0  0  0  0  0  0  0  0  0  0  0  0
  1  2  1  0
  2  3  2  0
  4  5  1  0
  4  2  1  0
  6  7  1  0
  6  5  1  0
  8  9  1  6
  8  7  1  0
 10 11  2  0
 10  8  1  0
 12 13  1  0
 13 15  1  0
 13 14  2  0
 16 15  1  6
 16 18  1  0
 16 17  1  0
 17 10  1  0
 18 20  1  0
 19 18  2  0
 20 21  1  0
 21 27  1  0
 21 22  1  1
 23 22  1  0
 24 25  1  0
 24 23  1  0
 26 25  1  0
 27 28  2  0
 27 29  1  0
M  END
$$$$
