RNK.pdb
     RDKit          3D

 29 28  0  0  1  0  0  0  0  0999 V2000
    9.5611  -13.1964   18.9937 N   0  0  0  0  0  0  0  0  0  0  0  0
    8.1576  -13.3920   18.9850 C   0  0  0  0  0  0  0  0  0  0  0  0
    7.3519  -12.7643   18.2003 N   0  0  0  0  0  0  0  0  0  0  0  0
    7.6036  -14.3328   19.8915 N   0  0  0  0  0  0  0  0  0  0  0  0
    7.1125  -15.6243   19.4181 C   0  0  0  0  0  0  0  0  0  0  0  0
    6.6512  -16.4920   20.5590 C   0  0  0  0  0  0  0  0  0  0  0  0
    5.1373  -16.6100   20.5132 C   0  0  0  0  0  0  0  0  0  0  0  0
    4.6902  -17.9432   21.1001 C   0  0  2  0  0  0  0  0  0  0  0  0
    3.2611  -18.0969   21.0740 N   0  0  0  0  0  0  0  0  0  0  0  0
    5.1870  -18.0246   22.5109 C   0  0  0  0  0  0  0  0  0  0  0  0
    4.6142  -17.3848   23.4391 O   0  0  0  0  0  0  0  0  0  0  0  0
    6.3521  -13.0463   18.1858 N   0  0  0  0  0  0  0  0  0  0  0  0
    6.6398  -20.9087   27.1401 C   0  0  0  0  0  0  0  0  0  0  0  0
    7.4190  -20.5122   26.0539 O   0  0  0  0  0  0  0  0  0  0  0  0
    8.6344  -20.2260   26.2681 C   0  0  0  0  0  0  0  0  0  0  0  0
    6.9565  -20.3912   24.6530 C   0  0  1  0  0  0  0  0  0  0  0  0
    6.7039  -18.9685   24.2427 N   0  0  0  0  0  0  0  0  0  0  0  0
    6.3056  -18.8064   22.8879 C   0  0  0  0  0  0  0  0  0  0  0  0
    7.8267  -18.0689   24.5854 O   0  0  0  0  0  0  0  0  0  0  0  0
    8.8501  -18.0843   23.8661 N   0  0  0  0  0  0  0  0  0  0  0  0
    7.7921  -17.1898   25.6945 C   0  0  2  0  0  0  0  0  0  0  0  0
    8.9035  -16.3364   26.0628 C   0  0  0  0  0  0  0  0  0  0  0  0
    8.5661  -15.6219   27.3531 C   0  0  0  0  0  0  0  0  0  0  0  0
    9.7384  -14.8363   27.8822 C   0  0  0  0  0  0  0  0  0  0  0  0
    9.4105  -14.1252   29.1725 C   0  0  0  0  0  0  0  0  0  0  0  0
   10.5696  -13.3279   29.7209 N   0  0  0  0  0  0  0  0  0  0  0  0
   10.2206  -12.6429   30.9448 C   0  0  0  0  0  0  0  0  0  0  0  0
   10.1605  -17.1040   26.1462 O   0  0  0  0  0  0  0  0  0  0  0  0
   10.1629  -18.1694   26.8162 O   0  0  0  0  0  0  0  0  0  0  0  0
  1  2  1  0
  2  3  2  0
  4  5  1  0
  4  2  1  0
  6  7  1  0
  6  5  1  0
  8  9  1  1
  8  7  1  0
 10 11  2  0
 10  8  1  0
 12 13  1  0
 13 15  1  0
 13 14  2  0
 16 15  1  1
 16 18  1  0
 16 17  1  0
 17 10  1  0
 18 20  1  0
 19 18  2  0
 20 21  1  0
 21 27  1  0
 21 22  1  1
 23 22  1  0
 24 25  1  0
 24 23  1  0
 26 25  1  0
 27 28  2  0
 27 29  1  0
M  END
$$$$
