RNK.pdb
     RDKit          3D

 29 28  0  0  1  0  0  0  0  0999 V2000
    8.5351  -14.0539   18.4863 N   0  0  0  0  0  0  0  0  0  0  0  0
    7.7371  -13.1453   19.2251 C   0  0  0  0  0  0  0  0  0  0  0  0
    7.8769  -11.8659   19.1762 N   0  0  0  0  0  0  0  0  0  0  0  0
    6.7244  -13.6712   20.0687 N   0  0  0  0  0  0  0  0  0  0  0  0
    7.0719  -14.4498   21.2546 C   0  0  0  0  0  0  0  0  0  0  0  0
    7.4595  -15.8598   20.8957 C   0  0  0  0  0  0  0  0  0  0  0  0
    8.2625  -16.4605   22.0370 C   0  0  0  0  0  0  0  0  0  0  0  0
    9.6007  -15.7458   22.1790 C   0  0  2  0  0  0  0  0  0  0  0  0
   10.5973  -16.2758   21.2888 N   0  0  0  0  0  0  0  0  0  0  0  0
   10.0582  -15.8846   23.5985 C   0  0  0  0  0  0  0  0  0  0  0  0
   11.0164  -16.6527   23.9000 O   0  0  0  0  0  0  0  0  0  0  0  0
    7.2420  -11.2745   19.7477 N   0  0  0  0  0  0  0  0  0  0  0  0
    9.4678  -13.6608   29.4377 C   0  0  0  0  0  0  0  0  0  0  0  0
    9.9052  -14.3707   28.3202 O   0  0  0  0  0  0  0  0  0  0  0  0
   10.8798  -15.1668   28.4667 C   0  0  0  0  0  0  0  0  0  0  0  0
    9.3324  -14.2830   26.9581 C   0  0  2  0  0  0  0  0  0  0  0  0
    9.9258  -15.2856   26.0100 N   0  0  0  0  0  0  0  0  0  0  0  0
    9.4601  -15.1800   24.6711 C   0  0  0  0  0  0  0  0  0  0  0  0
    9.8200  -16.6738   26.5091 O   0  0  0  0  0  0  0  0  0  0  0  0
    8.6889  -17.2038   26.5756 N   0  0  0  0  0  0  0  0  0  0  0  0
   10.9463  -17.4290   26.9153 C   0  0  1  0  0  0  0  0  0  0  0  0
   10.8449  -18.7582   27.4830 C   0  0  0  0  0  0  0  0  0  0  0  0
   11.9000  -19.6417   26.8538 C   0  0  0  0  0  0  0  0  0  0  0  0
   11.8944  -21.0286   27.4434 C   0  0  0  0  0  0  0  0  0  0  0  0
   12.9676  -21.9051   26.8449 C   0  0  0  0  0  0  0  0  0  0  0  0
   12.9896  -23.2974   27.4288 N   0  0  0  0  0  0  0  0  0  0  0  0
   13.9658  -24.1397   26.7756 C   0  0  0  0  0  0  0  0  0  0  0  0
   10.9365  -18.7180   28.9547 O   0  0  0  0  0  0  0  0  0  0  0  0
   11.7059  -17.8712   29.4794 O   0  0  0  0  0  0  0  0  0  0  0  0
  1  2  1  0
  2  3  2  0
  4  5  1  0
  4  2  1  0
  6  7  1  0
  6  5  1  0
  8  9  1  6
  8  7  1  0
 10 11  2  0
 10  8  1  0
 12 13  1  0
 13 15  1  0
 13 14  2  0
 16 15  1  6
 16 18  1  0
 16 17  1  0
 17 10  1  0
 18 20  1  0
 19 18  2  0
 20 21  1  0
 21 27  1  0
 21 22  1  1
 23 22  1  0
 24 25  1  0
 24 23  1  0
 26 25  1  0
 27 28  2  0
 27 29  1  0
M  END
$$$$
