RNK.pdb
     RDKit          3D

 29 28  0  0  1  0  0  0  0  0999 V2000
    9.2513  -12.7754   16.7610 N   0  0  0  0  0  0  0  0  0  0  0  0
    8.2184  -12.8012   17.7307 C   0  0  0  0  0  0  0  0  0  0  0  0
    8.0029  -11.8509   18.5730 N   0  0  0  0  0  0  0  0  0  0  0  0
    7.3700  -13.9377   17.7802 N   0  0  0  0  0  0  0  0  0  0  0  0
    7.7761  -15.1403   18.5028 C   0  0  0  0  0  0  0  0  0  0  0  0
    8.9241  -15.8344   17.8190 C   0  0  0  0  0  0  0  0  0  0  0  0
   10.0366  -16.0661   18.8272 C   0  0  0  0  0  0  0  0  0  0  0  0
   11.2117  -16.7775   18.1678 C   0  0  2  0  0  0  0  0  0  0  0  0
   10.8937  -18.1318   17.8057 N   0  0  0  0  0  0  0  0  0  0  0  0
   12.3654  -16.7617   19.1231 C   0  0  0  0  0  0  0  0  0  0  0  0
   12.8026  -17.8340   19.6312 O   0  0  0  0  0  0  0  0  0  0  0  0
    7.2470  -11.9715   19.2755 N   0  0  0  0  0  0  0  0  0  0  0  0
   15.2334  -13.0399   17.8830 C   0  0  0  0  0  0  0  0  0  0  0  0
   15.4604  -14.1957   18.6290 O   0  0  0  0  0  0  0  0  0  0  0  0
   16.0120  -15.1778   18.0491 C   0  0  0  0  0  0  0  0  0  0  0  0
   15.1141  -14.3897   20.0550 C   0  0  2  0  0  0  0  0  0  0  0  0
   14.2199  -15.5750   20.2823 N   0  0  0  0  0  0  0  0  0  0  0  0
   13.0263  -15.5710   19.5105 C   0  0  0  0  0  0  0  0  0  0  0  0
   13.9343  -15.8068   21.7148 O   0  0  0  0  0  0  0  0  0  0  0  0
   14.7485  -15.3850   22.5657 N   0  0  0  0  0  0  0  0  0  0  0  0
   12.7770  -16.4869   22.1643 C   0  0  1  0  0  0  0  0  0  0  0  0
   12.4961  -16.7307   23.5646 C   0  0  0  0  0  0  0  0  0  0  0  0
   10.9985  -16.8363   23.7529 C   0  0  0  0  0  0  0  0  0  0  0  0
   10.3150  -15.5058   23.5692 C   0  0  0  0  0  0  0  0  0  0  0  0
    8.8148  -15.6153   23.6932 C   0  0  0  0  0  0  0  0  0  0  0  0
    8.1126  -14.2826   23.5889 N   0  0  0  0  0  0  0  0  0  0  0  0
    6.6783  -14.4195   23.7039 C   0  0  0  0  0  0  0  0  0  0  0  0
   13.2191  -17.9195   24.0544 O   0  0  0  0  0  0  0  0  0  0  0  0
   13.1905  -18.1661   25.2884 O   0  0  0  0  0  0  0  0  0  0  0  0
  1  2  1  0
  2  3  2  0
  4  5  1  0
  4  2  1  0
  6  7  1  0
  6  5  1  0
  8  9  1  1
  8  7  1  0
 10 11  2  0
 10  8  1  0
 12 13  1  0
 13 15  1  0
 13 14  2  0
 16 15  1  6
 16 18  1  0
 16 17  1  0
 17 10  1  0
 18 20  1  0
 19 18  2  0
 20 21  1  0
 21 27  1  0
 21 22  1  1
 23 22  1  0
 24 25  1  0
 24 23  1  0
 26 25  1  0
 27 28  2  0
 27 29  1  0
M  END
$$$$
