SAS.pdb
     RDKit          3D

 18 17  0  0  1  0  0  0  0  0999 V2000
   10.4274  -12.6770   18.8824 O   0  0  0  0  0  0  0  0  0  0  0  0
   10.0586  -13.5453   17.8825 C   0  0  0  0  0  0  0  0  0  0  0  0
    8.6856  -14.1398   18.0738 C   0  0  2  0  0  0  0  0  0  0  0  0
    7.6553  -13.1617   17.9007 N   0  0  0  0  0  0  0  0  0  0  0  0
    8.5583  -14.9112   19.3261 C   0  0  0  0  0  0  0  0  0  0  0  0
    7.9076  -14.3920   20.2691 O   0  0  0  0  0  0  0  0  0  0  0  0
    9.5874  -18.3087   20.7183 C   0  0  0  0  0  0  0  0  0  0  0  0
    9.0209  -16.9279   20.7729 C   0  0  2  0  0  0  0  0  0  0  0  0
    9.1152  -16.1960   19.5468 N   0  0  0  0  0  0  0  0  0  0  0  0
    9.6000  -16.2222   21.9327 C   0  0  0  0  0  0  0  0  0  0  0  0
   10.7124  -15.6622   21.7480 O   0  0  0  0  0  0  0  0  0  0  0  0
    7.3789  -15.2293   25.2247 O   0  0  0  0  0  0  0  0  0  0  0  0
    8.5501  -14.4875   24.9760 C   0  0  0  0  0  0  0  0  0  0  0  0
    9.5233  -15.4227   24.3194 C   0  0  2  0  0  0  0  0  0  0  0  0
    8.9812  -16.1465   23.2101 N   0  0  0  0  0  0  0  0  0  0  0  0
   10.0632  -16.3328   25.3754 C   0  0  0  0  0  0  0  0  0  0  0  0
    9.8660  -17.5726   25.3737 O   0  0  0  0  0  0  0  0  0  0  0  0
   10.8114  -15.7583   26.3906 O   0  0  0  0  0  0  0  0  0  0  0  0
  2  1  1  0
  3  2  1  0
  3  4  1  1
  5  6  2  0
  5  3  1  0
  8  7  1  6
  8  9  1  0
  9  5  1  0
 10  8  1  0
 10 15  1  0
 11 10  2  0
 12 13  1  0
 14 13  1  1
 14 15  1  0
 14 16  1  0
 16 17  2  0
 16 18  1  0
M  END
$$$$
