SAS.pdb
     RDKit          3D

 18 17  0  0  1  0  0  0  0  0999 V2000
    3.8651  -23.4319   18.5325 O   0  0  0  0  0  0  0  0  0  0  0  0
    2.7949  -22.6176   18.2473 C   0  0  0  0  0  0  0  0  0  0  0  0
    1.7388  -22.6073   19.3242 C   0  0  2  0  0  0  0  0  0  0  0  0
    0.6136  -21.8034   18.9558 N   0  0  0  0  0  0  0  0  0  0  0  0
    2.2779  -22.2853   20.6604 C   0  0  0  0  0  0  0  0  0  0  0  0
    2.4703  -21.0734   20.9368 O   0  0  0  0  0  0  0  0  0  0  0  0
    2.8521  -23.9620   23.9974 C   0  0  0  0  0  0  0  0  0  0  0  0
    3.1173  -22.9277   22.9531 C   0  0  2  0  0  0  0  0  0  0  0  0
    2.5960  -23.2411   21.6578 N   0  0  0  0  0  0  0  0  0  0  0  0
    4.5590  -22.6111   22.9533 C   0  0  0  0  0  0  0  0  0  0  0  0
    5.2569  -23.1824   22.0749 O   0  0  0  0  0  0  0  0  0  0  0  0
    6.2044  -19.3365   24.8887 O   0  0  0  0  0  0  0  0  0  0  0  0
    6.8624  -19.9255   23.7915 C   0  0  0  0  0  0  0  0  0  0  0  0
    6.5735  -21.3972   23.8530 C   0  0  2  0  0  0  0  0  0  0  0  0
    5.1791  -21.7192   23.8700 N   0  0  0  0  0  0  0  0  0  0  0  0
    7.2939  -21.9533   25.0389 C   0  0  0  0  0  0  0  0  0  0  0  0
    6.7023  -22.4963   26.0039 O   0  0  0  0  0  0  0  0  0  0  0  0
    8.6761  -21.8528   25.0501 O   0  0  0  0  0  0  0  0  0  0  0  0
  2  1  1  0
  3  2  1  0
  3  4  1  6
  5  6  2  0
  5  3  1  0
  8  7  1  1
  8  9  1  0
  9  5  1  0
 10  8  1  0
 10 15  1  0
 11 10  2  0
 12 13  1  0
 14 13  1  1
 14 15  1  0
 14 16  1  0
 16 17  2  0
 16 18  1  0
M  END
$$$$
