SAS.pdb
     RDKit          3D

 18 17  0  0  1  0  0  0  0  0999 V2000
   -1.1976  -26.2289   25.5506 O   0  0  0  0  0  0  0  0  0  0  0  0
   -2.4889  -25.8157   25.7780 C   0  0  0  0  0  0  0  0  0  0  0  0
   -3.4946  -26.9398   25.7659 C   0  0  2  0  0  0  0  0  0  0  0  0
   -3.5315  -27.6047   24.4991 N   0  0  0  0  0  0  0  0  0  0  0  0
   -4.8267  -26.5298   26.2527 C   0  0  0  0  0  0  0  0  0  0  0  0
   -5.5488  -25.8507   25.4783 O   0  0  0  0  0  0  0  0  0  0  0  0
   -7.0703  -27.0589   29.2823 C   0  0  0  0  0  0  0  0  0  0  0  0
   -6.6168  -26.3880   28.0275 C   0  0  2  0  0  0  0  0  0  0  0  0
   -5.3550  -26.8444   27.5300 N   0  0  0  0  0  0  0  0  0  0  0  0
   -6.6871  -24.9260   28.2183 C   0  0  0  0  0  0  0  0  0  0  0  0
   -5.6349  -24.3634   28.6202 O   0  0  0  0  0  0  0  0  0  0  0  0
   -8.7653  -22.3920   25.9590 O   0  0  0  0  0  0  0  0  0  0  0  0
   -8.9954  -22.0716   27.3111 C   0  0  0  0  0  0  0  0  0  0  0  0
   -7.8975  -22.7208   28.1024 C   0  0  2  0  0  0  0  0  0  0  0  0
   -7.8506  -24.1458   27.9775 N   0  0  0  0  0  0  0  0  0  0  0  0
   -8.0430  -22.2851   29.5250 C   0  0  0  0  0  0  0  0  0  0  0  0
   -7.9742  -21.0832   29.8811 O   0  0  0  0  0  0  0  0  0  0  0  0
   -8.2628  -23.2705   30.4743 O   0  0  0  0  0  0  0  0  0  0  0  0
  2  1  1  0
  3  2  1  0
  3  4  1  6
  5  6  2  0
  5  3  1  0
  8  7  1  1
  8  9  1  0
  9  5  1  0
 10  8  1  0
 10 15  1  0
 11 10  2  0
 12 13  1  0
 14 13  1  6
 14 15  1  0
 14 16  1  0
 16 17  2  0
 16 18  1  0
M  END
$$$$
