SAS.pdb
     RDKit          3D

 18 17  0  0  1  0  0  0  0  0999 V2000
    7.6633  -17.9754   20.5166 O   0  0  0  0  0  0  0  0  0  0  0  0
    7.5126  -16.6913   20.0494 C   0  0  0  0  0  0  0  0  0  0  0  0
    8.7401  -15.8337   20.2313 C   0  0  2  0  0  0  0  0  0  0  0  0
    9.8096  -16.2504   19.3766 N   0  0  0  0  0  0  0  0  0  0  0  0
    9.1406  -15.6889   21.6448 C   0  0  0  0  0  0  0  0  0  0  0  0
   10.2351  -16.1987   21.9976 O   0  0  0  0  0  0  0  0  0  0  0  0
    7.8876  -14.0006   24.8234 C   0  0  0  0  0  0  0  0  0  0  0  0
    8.7555  -14.9078   24.0146 C   0  0  2  0  0  0  0  0  0  0  0  0
    8.3832  -15.0171   22.6371 N   0  0  0  0  0  0  0  0  0  0  0  0
    8.8604  -16.2071   24.7071 C   0  0  0  0  0  0  0  0  0  0  0  0
    7.8797  -16.9871   24.5838 O   0  0  0  0  0  0  0  0  0  0  0  0
   12.0646  -17.8825   24.9253 O   0  0  0  0  0  0  0  0  0  0  0  0
   11.2430  -18.7085   25.7168 C   0  0  0  0  0  0  0  0  0  0  0  0
   10.0788  -17.8684   26.1551 C   0  0  2  0  0  0  0  0  0  0  0  0
    9.9814  -16.6083   25.4834 N   0  0  0  0  0  0  0  0  0  0  0  0
   10.1650  -17.7099   27.6390 C   0  0  0  0  0  0  0  0  0  0  0  0
   10.1519  -16.5908   28.2077 O   0  0  0  0  0  0  0  0  0  0  0  0
   10.2629  -18.8647   28.3990 O   0  0  0  0  0  0  0  0  0  0  0  0
  2  1  1  0
  3  2  1  0
  3  4  1  6
  5  6  2  0
  5  3  1  0
  8  7  1  1
  8  9  1  0
  9  5  1  0
 10  8  1  0
 10 15  1  0
 11 10  2  0
 12 13  1  0
 14 13  1  6
 14 15  1  0
 14 16  1  0
 16 17  2  0
 16 18  1  0
M  END
$$$$
