SAS.pdb
     RDKit          3D

 18 17  0  0  1  0  0  0  0  0999 V2000
    8.5757  -17.5182   15.3780 O   0  0  0  0  0  0  0  0  0  0  0  0
    7.5449  -16.6170   15.2555 C   0  0  0  0  0  0  0  0  0  0  0  0
    8.0055  -15.1957   15.0485 C   0  0  2  0  0  0  0  0  0  0  0  0
    8.6533  -15.0271   13.7835 N   0  0  0  0  0  0  0  0  0  0  0  0
    8.7890  -14.6701   16.1839 C   0  0  0  0  0  0  0  0  0  0  0  0
   10.0419  -14.6544   16.0724 O   0  0  0  0  0  0  0  0  0  0  0  0
    8.1757  -13.0858   19.5973 C   0  0  0  0  0  0  0  0  0  0  0  0
    8.9950  -13.6621   18.4895 C   0  0  2  0  0  0  0  0  0  0  0  0
    8.2349  -14.1805   17.3934 N   0  0  0  0  0  0  0  0  0  0  0  0
    9.9518  -14.6303   19.0603 C   0  0  0  0  0  0  0  0  0  0  0  0
    9.6012  -15.8394   19.0427 O   0  0  0  0  0  0  0  0  0  0  0  0
   13.9295  -14.5309   18.9541 O   0  0  0  0  0  0  0  0  0  0  0  0
   13.5307  -14.7503   20.2870 C   0  0  0  0  0  0  0  0  0  0  0  0
   12.1005  -15.2036   20.2416 C   0  0  2  0  0  0  0  0  0  0  0  0
   11.2122  -14.2744   19.6125 N   0  0  0  0  0  0  0  0  0  0  0  0
   11.6805  -15.5253   21.6398 C   0  0  0  0  0  0  0  0  0  0  0  0
   10.6960  -14.9825   22.1986 O   0  0  0  0  0  0  0  0  0  0  0  0
   12.4270  -16.4678   22.3290 O   0  0  0  0  0  0  0  0  0  0  0  0
  2  1  1  0
  3  2  1  0
  3  4  1  6
  5  6  2  0
  5  3  1  0
  8  7  1  1
  8  9  1  0
  9  5  1  0
 10  8  1  0
 10 15  1  0
 11 10  2  0
 12 13  1  0
 14 13  1  1
 14 15  1  0
 14 16  1  0
 16 17  2  0
 16 18  1  0
M  END
$$$$
