DNE.pdb
     RDKit          3D

 26 25  0  0  1  0  0  0  0  0999 V2000
   23.3961  -19.4296  -18.9983 N   0  0  0  0  0  0  0  0  0  0  0  0
   23.9510  -19.0575  -17.7249 C   0  0  1  0  0  0  0  0  0  0  0  0
   24.6896  -17.7543  -17.8125 C   0  0  0  0  0  0  0  0  0  0  0  0
   25.8312  -17.7982  -18.7346 C   0  0  0  0  0  0  0  0  0  0  0  0
   26.1710  -18.8491  -19.2980 O   0  0  0  0  0  0  0  0  0  0  0  0
   22.9584  -19.0376  -16.6388 C   0  0  0  0  0  0  0  0  0  0  0  0
   23.3865  -18.7420  -15.4630 O   0  0  0  0  0  0  0  0  0  0  0  0
   26.5291  -16.5889  -18.9524 O   0  0  0  0  0  0  0  0  0  0  0  0
   19.2812  -19.0106  -13.1645 N   0  0  0  0  0  0  0  0  0  0  0  0
   19.9284  -17.8925  -13.7382 C   0  0  0  0  0  0  0  0  0  0  0  0
   19.8875  -16.8033  -13.1167 O   0  0  0  0  0  0  0  0  0  0  0  0
   20.6432  -17.9312  -15.0110 C   0  0  0  0  0  0  0  0  0  0  0  0
   20.6792  -19.2346  -15.7168 C   0  0  2  0  0  0  0  0  0  0  0  0
   21.5834  -19.3269  -16.8157 N   0  0  0  0  0  0  0  0  0  0  0  0
   19.2573  -19.5190  -16.1470 C   0  0  0  0  0  0  0  0  0  0  0  0
   18.6542  -18.8209  -16.9708 O   0  0  0  0  0  0  0  0  0  0  0  0
   18.5919  -20.6287  -15.5834 N   0  0  0  0  0  0  0  0  0  0  0  0
   17.2348  -20.9557  -15.9494 C   0  0  1  0  0  0  0  0  0  0  0  0
   16.7849  -22.0325  -14.9850 C   0  0  0  0  0  0  0  0  0  0  0  0
   15.4455  -22.5521  -15.5346 C   0  0  0  0  0  0  0  0  0  0  0  0
   14.9303  -23.6469  -14.6928 C   0  0  0  0  0  0  0  0  0  0  0  0
   14.8107  -24.7886  -15.1901 O   0  0  0  0  0  0  0  0  0  0  0  0
   16.3425  -19.8107  -15.9995 C   0  0  0  0  0  0  0  0  0  0  0  0
   16.4513  -18.8963  -15.1641 O   0  0  0  0  0  0  0  0  0  0  0  0
   14.5783  -23.4531  -13.3707 O   0  0  0  0  0  0  0  0  0  0  0  0
   15.3684  -19.7176  -16.9646 O   0  0  0  0  0  0  0  0  0  0  0  0
  2  3  1  0
  2  1  1  6
  4  8  1  0
  4  3  1  0
  5  4  2  0
  6  2  1  0
  7  6  2  0
  9 10  1  0
 10 12  1  0
 11 10  2  0
 13 12  1  6
 13 14  1  0
 14  6  1  0
 15 17  1  0
 15 13  1  0
 16 15  2  0
 18 23  1  0
 18 17  1  0
 18 19  1  1
 19 20  1  0
 21 22  2  0
 21 20  1  0
 23 26  1  0
 24 23  2  0
 25 21  1  0
M  END
$$$$
