DNE.pdb
     RDKit          3D

 26 25  0  0  1  0  0  0  0  0999 V2000
   18.1436   -3.3408   -8.3940 N   0  0  0  0  0  0  0  0  0  0  0  0
   17.4318   -3.9780   -9.4689 C   0  0  1  0  0  0  0  0  0  0  0  0
   18.1747   -3.8488  -10.7661 C   0  0  0  0  0  0  0  0  0  0  0  0
   18.1783   -2.4796  -11.2959 C   0  0  0  0  0  0  0  0  0  0  0  0
   17.6397   -1.5452  -10.6843 O   0  0  0  0  0  0  0  0  0  0  0  0
   17.0847   -5.3803   -9.1889 C   0  0  0  0  0  0  0  0  0  0  0  0
   17.4182   -5.8447   -8.0372 O   0  0  0  0  0  0  0  0  0  0  0  0
   18.8221   -2.2715  -12.5365 O   0  0  0  0  0  0  0  0  0  0  0  0
   14.3665   -9.7827   -8.6822 N   0  0  0  0  0  0  0  0  0  0  0  0
   14.0239   -8.4867   -8.2337 C   0  0  0  0  0  0  0  0  0  0  0  0
   13.0903   -8.3770   -7.4026 O   0  0  0  0  0  0  0  0  0  0  0  0
   14.6937   -7.2682   -8.6799 C   0  0  0  0  0  0  0  0  0  0  0  0
   15.7986   -7.4328   -9.6548 C   0  0  2  0  0  0  0  0  0  0  0  0
   16.4202   -6.2311  -10.1055 N   0  0  0  0  0  0  0  0  0  0  0  0
   15.2260   -8.2244  -10.8094 C   0  0  0  0  0  0  0  0  0  0  0  0
   14.3044   -7.8034  -11.5186 O   0  0  0  0  0  0  0  0  0  0  0  0
   15.7676   -9.4976  -11.0879 N   0  0  0  0  0  0  0  0  0  0  0  0
   15.3723  -10.2417  -12.2595 C   0  0  1  0  0  0  0  0  0  0  0  0
   16.5438  -11.1352  -12.6076 C   0  0  0  0  0  0  0  0  0  0  0  0
   16.1640  -11.8262  -13.9283 C   0  0  0  0  0  0  0  0  0  0  0  0
   17.1958  -12.8048  -14.3160 C   0  0  0  0  0  0  0  0  0  0  0  0
   17.9410  -12.5468  -15.2871 O   0  0  0  0  0  0  0  0  0  0  0  0
   14.1183  -10.9593  -12.1103 C   0  0  0  0  0  0  0  0  0  0  0  0
   13.0375  -10.3471  -12.1630 O   0  0  0  0  0  0  0  0  0  0  0  0
   17.3682  -13.9969  -13.6388 O   0  0  0  0  0  0  0  0  0  0  0  0
   14.1037  -12.3189  -11.9096 O   0  0  0  0  0  0  0  0  0  0  0  0
  2  3  1  0
  2  1  1  1
  4  8  1  0
  4  3  1  0
  5  4  2  0
  6  2  1  0
  7  6  2  0
  9 10  1  0
 10 12  1  0
 11 10  2  0
 13 12  1  1
 13 14  1  0
 14  6  1  0
 15 17  1  0
 15 13  1  0
 16 15  2  0
 18 23  1  0
 18 17  1  0
 18 19  1  1
 19 20  1  0
 21 22  2  0
 21 20  1  0
 23 26  1  0
 24 23  2  0
 25 21  1  0
M  END
$$$$
