DNE.pdb
     RDKit          3D

 26 25  0  0  1  0  0  0  0  0999 V2000
   19.7056  -14.0337  -16.5181 N   0  0  0  0  0  0  0  0  0  0  0  0
   18.4316  -13.3785  -16.6422 C   0  0  1  0  0  0  0  0  0  0  0  0
   17.5754  -13.6190  -15.4337 C   0  0  0  0  0  0  0  0  0  0  0  0
   17.1451  -15.0163  -15.2994 C   0  0  0  0  0  0  0  0  0  0  0  0
   16.7090  -15.6574  -16.2669 O   0  0  0  0  0  0  0  0  0  0  0  0
   18.5406  -11.9422  -16.9430 C   0  0  0  0  0  0  0  0  0  0  0  0
   19.6494  -11.5354  -17.4512 O   0  0  0  0  0  0  0  0  0  0  0  0
   17.2483  -15.6008  -14.0170 O   0  0  0  0  0  0  0  0  0  0  0  0
   17.3009   -7.3222  -19.5160 N   0  0  0  0  0  0  0  0  0  0  0  0
   16.6318   -7.6969  -18.3285 C   0  0  0  0  0  0  0  0  0  0  0  0
   16.1206   -6.7905  -17.6276 O   0  0  0  0  0  0  0  0  0  0  0  0
   16.4994   -9.0772  -17.8706 C   0  0  0  0  0  0  0  0  0  0  0  0
   17.6518   -9.6492  -17.1336 C   0  0  2  0  0  0  0  0  0  0  0  0
   17.5103  -11.0010  -16.7017 N   0  0  0  0  0  0  0  0  0  0  0  0
   17.9072   -8.7212  -15.9669 C   0  0  0  0  0  0  0  0  0  0  0  0
   17.3871   -8.8823  -14.8564 O   0  0  0  0  0  0  0  0  0  0  0  0
   18.7761   -7.6252  -16.1553 N   0  0  0  0  0  0  0  0  0  0  0  0
   19.1176   -6.7419  -15.0663 C   0  0  1  0  0  0  0  0  0  0  0  0
   20.4931   -6.1940  -15.3822 C   0  0  0  0  0  0  0  0  0  0  0  0
   20.8661   -5.2915  -14.1937 C   0  0  0  0  0  0  0  0  0  0  0  0
   22.2126   -4.7212  -14.3793 C   0  0  0  0  0  0  0  0  0  0  0  0
   23.2110   -5.4258  -14.1115 O   0  0  0  0  0  0  0  0  0  0  0  0
   18.1273   -5.7117  -14.8063 C   0  0  0  0  0  0  0  0  0  0  0  0
   17.5077   -5.1881  -15.7486 O   0  0  0  0  0  0  0  0  0  0  0  0
   22.4071   -3.4342  -14.8429 O   0  0  0  0  0  0  0  0  0  0  0  0
   17.8586   -5.2998  -13.5230 O   0  0  0  0  0  0  0  0  0  0  0  0
  2  3  1  0
  2  1  1  1
  4  8  1  0
  4  3  1  0
  5  4  2  0
  6  2  1  0
  7  6  2  0
  9 10  1  0
 10 12  1  0
 11 10  2  0
 13 12  1  1
 13 14  1  0
 14  6  1  0
 15 17  1  0
 15 13  1  0
 16 15  2  0
 18 23  1  0
 18 17  1  0
 18 19  1  6
 19 20  1  0
 21 22  2  0
 21 20  1  0
 23 26  1  0
 24 23  2  0
 25 21  1  0
M  END
$$$$
