RHK.pdb
     RDKit          3D

 31 31  0  0  1  0  0  0  0  0999 V2000
   26.2064  -20.4194   -8.1323 N   0  0  0  0  0  0  0  0  0  0  0  0
   27.5973  -20.6880   -8.3838 C   0  0  0  0  0  0  0  0  0  0  0  0
   28.4058  -20.6981   -7.3571 N   0  0  0  0  0  0  0  0  0  0  0  0
   28.0727  -20.9257   -9.6805 N   0  0  0  0  0  0  0  0  0  0  0  0
   27.2389  -20.8595  -10.8505 C   0  0  0  0  0  0  0  0  0  0  0  0
   25.9703  -21.6622  -10.6662 C   0  0  0  0  0  0  0  0  0  0  0  0
   25.0703  -21.6399  -11.8500 C   0  0  0  0  0  0  0  0  0  0  0  0
   25.6700  -21.1219  -13.1145 C   0  0  2  0  0  0  0  0  0  0  0  0
   26.9343  -20.4666  -12.9250 N   0  0  0  0  0  0  0  0  0  0  0  0
   24.7054  -20.1442  -13.7061 C   0  0  0  0  0  0  0  0  0  0  0  0
   24.9306  -18.9090  -13.7067 O   0  0  0  0  0  0  0  0  0  0  0  0
   29.4363  -20.8563   -7.4954 N   0  0  0  0  0  0  0  0  0  0  0  0
   23.5164  -20.6226  -14.2760 C   0  0  1  0  0  0  0  0  0  0  0  0
   22.5966  -19.8949  -15.1141 C   0  0  0  0  0  0  0  0  0  0  0  0
   23.2900  -19.3206  -16.2801 C   0  0  0  0  0  0  0  0  0  0  0  0
   22.4440  -18.5032  -17.1837 C   0  0  0  0  0  0  0  0  0  0  0  0
   21.0975  -18.2620  -16.8912 N   0  0  0  0  0  0  0  0  0  0  0  0
   20.5868  -17.5062  -17.8623 C   0  0  0  0  0  0  0  0  0  0  0  0
   21.5809  -17.2830  -18.7286 N   0  0  0  0  0  0  0  0  0  0  0  0
   22.7101  -17.8777  -18.3364 C   0  0  0  0  0  0  0  0  0  0  0  0
   21.4543  -20.7502  -15.5374 O   0  0  0  0  0  0  0  0  0  0  0  0
   21.6072  -21.7339  -16.3438 N   0  0  0  0  0  0  0  0  0  0  0  0
   20.1294  -20.5423  -15.0853 C   0  0  1  0  0  0  0  0  0  0  0  0
   19.0300  -21.3862  -15.4787 C   0  0  0  0  0  0  0  0  0  0  0  0
   17.9969  -21.5868  -14.3962 C   0  0  0  0  0  0  0  0  0  0  0  0
   18.6130  -22.3204  -13.2183 C   0  0  0  0  0  0  0  0  0  0  0  0
   17.5323  -22.6616  -12.2350 C   0  0  0  0  0  0  0  0  0  0  0  0
   18.0622  -23.3797  -11.0185 N   0  0  0  0  0  0  0  0  0  0  0  0
   17.0567  -23.6775  -10.0407 C   0  0  0  0  0  0  0  0  0  0  0  0
   18.3491  -20.7818  -16.6862 O   0  0  0  0  0  0  0  0  0  0  0  0
   17.9558  -21.5472  -17.5949 O   0  0  0  0  0  0  0  0  0  0  0  0
  1  2  1  0
  2  3  2  0
  4  2  1  0
  4  5  1  0
  5  6  1  0
  6  7  1  0
  7  8  1  0
  8 10  1  0
  8  9  1  1
 10 11  2  0
 10 12  1  0
 12 13  1  0
 13 20  1  0
 13 14  1  1
 15 14  1  0
 16 15  2  0
 17 18  1  0
 17 16  1  0
 18 19  2  0
 19 15  1  0
 20 21  2  0
 20 22  1  0
 22 23  1  0
 23 29  1  0
 23 24  1  6
 25 24  1  0
 25 26  1  0
 27 26  1  0
 27 28  1  0
 29 31  1  0
 30 29  2  0
M  END
$$$$
