RHK.pdb
     RDKit          3D

 31 31  0  0  1  0  0  0  0  0999 V2000
   20.6026  -15.0111  -16.0433 N   0  0  0  0  0  0  0  0  0  0  0  0
   20.4674  -15.1555  -14.6182 C   0  0  0  0  0  0  0  0  0  0  0  0
   19.9285  -14.1639  -13.9591 N   0  0  0  0  0  0  0  0  0  0  0  0
   20.9006  -16.3125  -13.9566 N   0  0  0  0  0  0  0  0  0  0  0  0
   20.0008  -17.2690  -13.3702 C   0  0  0  0  0  0  0  0  0  0  0  0
   19.1141  -17.9028  -14.4190 C   0  0  0  0  0  0  0  0  0  0  0  0
   19.1467  -19.3895  -14.4116 C   0  0  0  0  0  0  0  0  0  0  0  0
   20.3482  -20.0179  -15.0350 C   0  0  2  0  0  0  0  0  0  0  0  0
   20.4384  -19.8043  -16.4527 N   0  0  0  0  0  0  0  0  0  0  0  0
   20.2772  -21.4887  -14.7738 C   0  0  0  0  0  0  0  0  0  0  0  0
   19.4359  -22.2235  -15.3470 O   0  0  0  0  0  0  0  0  0  0  0  0
   19.7469  -14.2502  -12.9268 N   0  0  0  0  0  0  0  0  0  0  0  0
   21.1767  -22.0613  -13.8626 C   0  0  2  0  0  0  0  0  0  0  0  0
   21.2360  -23.4398  -13.4452 C   0  0  0  0  0  0  0  0  0  0  0  0
   22.6322  -23.8763  -13.2707 C   0  0  0  0  0  0  0  0  0  0  0  0
   23.4056  -24.0491  -14.5246 C   0  0  0  0  0  0  0  0  0  0  0  0
   22.7959  -23.9053  -15.7754 N   0  0  0  0  0  0  0  0  0  0  0  0
   23.7165  -24.1113  -16.7163 C   0  0  0  0  0  0  0  0  0  0  0  0
   24.8600  -24.3727  -16.0740 N   0  0  0  0  0  0  0  0  0  0  0  0
   24.6921  -24.3405  -14.7498 C   0  0  0  0  0  0  0  0  0  0  0  0
   20.4446  -23.6664  -12.2050 O   0  0  0  0  0  0  0  0  0  0  0  0
   20.1341  -22.7069  -11.4150 N   0  0  0  0  0  0  0  0  0  0  0  0
   19.9816  -24.9446  -11.8114 C   0  0  1  0  0  0  0  0  0  0  0  0
   19.1926  -25.1565  -10.6248 C   0  0  0  0  0  0  0  0  0  0  0  0
   18.0042  -24.2325  -10.5090 C   0  0  0  0  0  0  0  0  0  0  0  0
   17.2099  -24.5605   -9.2574 C   0  0  0  0  0  0  0  0  0  0  0  0
   15.8452  -23.9471   -9.3693 C   0  0  0  0  0  0  0  0  0  0  0  0
   15.0009  -24.1856   -8.1418 N   0  0  0  0  0  0  0  0  0  0  0  0
   13.7429  -23.4981   -8.1644 C   0  0  0  0  0  0  0  0  0  0  0  0
   18.6940  -26.5842  -10.6100 O   0  0  0  0  0  0  0  0  0  0  0  0
   18.3972  -27.1239  -11.6993 O   0  0  0  0  0  0  0  0  0  0  0  0
  1  2  1  0
  2  3  2  0
  4  2  1  0
  4  5  1  0
  5  6  1  0
  6  7  1  0
  7  8  1  0
  8 10  1  0
  8  9  1  6
 10 11  2  0
 10 12  1  0
 12 13  1  0
 13 20  1  0
 13 14  1  6
 15 14  1  0
 16 15  2  0
 17 18  1  0
 17 16  1  0
 18 19  2  0
 19 15  1  0
 20 21  2  0
 20 22  1  0
 22 23  1  0
 23 29  1  0
 23 24  1  1
 25 24  1  0
 25 26  1  0
 27 26  1  0
 27 28  1  0
 29 31  1  0
 30 29  2  0
M  END
$$$$
