RHK.pdb
     RDKit          3D

 31 31  0  0  1  0  0  0  0  0999 V2000
   18.7098  -12.6317  -16.9070 N   0  0  0  0  0  0  0  0  0  0  0  0
   19.5431  -11.5397  -17.3348 C   0  0  0  0  0  0  0  0  0  0  0  0
   20.2116  -11.6901  -18.4478 N   0  0  0  0  0  0  0  0  0  0  0  0
   19.6413  -10.3588  -16.5867 N   0  0  0  0  0  0  0  0  0  0  0  0
   18.7234  -10.0133  -15.5347 C   0  0  0  0  0  0  0  0  0  0  0  0
   17.3186   -9.8388  -16.0678 C   0  0  0  0  0  0  0  0  0  0  0  0
   16.3167   -9.5104  -15.0190 C   0  0  0  0  0  0  0  0  0  0  0  0
   16.2537  -10.4500  -13.8613 C   0  0  2  0  0  0  0  0  0  0  0  0
   15.8066  -11.7687  -14.2149 N   0  0  0  0  0  0  0  0  0  0  0  0
   15.3044   -9.8726  -12.8604 C   0  0  0  0  0  0  0  0  0  0  0  0
   14.0643   -9.8560  -13.0561 O   0  0  0  0  0  0  0  0  0  0  0  0
   20.7602  -10.8875  -18.8492 N   0  0  0  0  0  0  0  0  0  0  0  0
   15.8158   -9.3351  -11.6701 C   0  0  1  0  0  0  0  0  0  0  0  0
   15.0806   -8.6524  -10.6350 C   0  0  0  0  0  0  0  0  0  0  0  0
   14.8783   -9.5293   -9.4686 C   0  0  0  0  0  0  0  0  0  0  0  0
   13.8380  -10.5739   -9.6315 C   0  0  0  0  0  0  0  0  0  0  0  0
   13.0553  -10.6401  -10.7891 N   0  0  0  0  0  0  0  0  0  0  0  0
   12.2128  -11.6650  -10.6670 C   0  0  0  0  0  0  0  0  0  0  0  0
   12.4631  -12.2189   -9.4758 N   0  0  0  0  0  0  0  0  0  0  0  0
   13.4407  -11.5734   -8.8353 C   0  0  0  0  0  0  0  0  0  0  0  0
   15.7494   -7.3822  -10.2411 O   0  0  0  0  0  0  0  0  0  0  0  0
   17.0070   -7.3245  -10.0033 N   0  0  0  0  0  0  0  0  0  0  0  0
   15.0533   -6.1580  -10.1018 C   0  0  2  0  0  0  0  0  0  0  0  0
   15.6734   -4.9624   -9.5902 C   0  0  0  0  0  0  0  0  0  0  0  0
   14.7099   -4.0161   -8.9153 C   0  0  0  0  0  0  0  0  0  0  0  0
   15.4333   -2.7493   -8.4947 C   0  0  0  0  0  0  0  0  0  0  0  0
   14.4399   -1.7910   -7.9063 C   0  0  0  0  0  0  0  0  0  0  0  0
   15.0547   -0.4557   -7.5669 N   0  0  0  0  0  0  0  0  0  0  0  0
   14.1086    0.5110   -7.0916 C   0  0  0  0  0  0  0  0  0  0  0  0
   16.7450   -5.3473   -8.5949 O   0  0  0  0  0  0  0  0  0  0  0  0
   16.5295   -6.3143   -7.8303 O   0  0  0  0  0  0  0  0  0  0  0  0
  1  2  1  0
  2  3  2  0
  4  2  1  0
  4  5  1  0
  5  6  1  0
  6  7  1  0
  7  8  1  0
  8 10  1  0
  8  9  1  6
 10 11  2  0
 10 12  1  0
 12 13  1  0
 13 20  1  0
 13 14  1  6
 15 14  1  0
 16 15  2  0
 17 18  1  0
 17 16  1  0
 18 19  2  0
 19 15  1  0
 20 21  2  0
 20 22  1  0
 22 23  1  0
 23 29  1  0
 23 24  1  1
 25 24  1  0
 25 26  1  0
 27 26  1  0
 27 28  1  0
 29 31  1  0
 30 29  2  0
M  END
$$$$
