RHK.pdb
     RDKit          3D

 31 31  0  0  1  0  0  0  0  0999 V2000
   13.0277  -24.6417   -8.5823 N   0  0  0  0  0  0  0  0  0  0  0  0
   13.6208  -24.8092   -7.2822 C   0  0  0  0  0  0  0  0  0  0  0  0
   12.8223  -25.0847   -6.2849 N   0  0  0  0  0  0  0  0  0  0  0  0
   15.0023  -24.6780   -7.0870 N   0  0  0  0  0  0  0  0  0  0  0  0
   15.9168  -24.3210   -8.1381 C   0  0  0  0  0  0  0  0  0  0  0  0
   16.4428  -25.5486   -8.8482 C   0  0  0  0  0  0  0  0  0  0  0  0
   17.2262  -25.2414  -10.0744 C   0  0  0  0  0  0  0  0  0  0  0  0
   18.5944  -24.6886   -9.8518 C   0  0  2  0  0  0  0  0  0  0  0  0
   18.9133  -24.4837   -8.4661 N   0  0  0  0  0  0  0  0  0  0  0  0
   18.6736  -23.3755  -10.5629 C   0  0  0  0  0  0  0  0  0  0  0  0
   18.3916  -22.2941   -9.9906 O   0  0  0  0  0  0  0  0  0  0  0  0
   13.2108  -25.2225   -5.3174 N   0  0  0  0  0  0  0  0  0  0  0  0
   19.0745  -23.3533  -11.9067 C   0  0  1  0  0  0  0  0  0  0  0  0
   19.3521  -22.1924  -12.7150 C   0  0  0  0  0  0  0  0  0  0  0  0
   20.7857  -21.8555  -12.6758 C   0  0  0  0  0  0  0  0  0  0  0  0
   21.2168  -21.0459  -11.5102 C   0  0  0  0  0  0  0  0  0  0  0  0
   20.2853  -20.5402  -10.5972 N   0  0  0  0  0  0  0  0  0  0  0  0
   20.9440  -19.8596   -9.6602 C   0  0  0  0  0  0  0  0  0  0  0  0
   22.2407  -19.9399   -9.9775 N   0  0  0  0  0  0  0  0  0  0  0  0
   22.4253  -20.6516  -11.0920 C   0  0  0  0  0  0  0  0  0  0  0  0
   18.8837  -22.3808  -14.1153 O   0  0  0  0  0  0  0  0  0  0  0  0
   19.0491  -23.4860  -14.7418 N   0  0  0  0  0  0  0  0  0  0  0  0
   18.2282  -21.3642  -14.8500 C   0  0  1  0  0  0  0  0  0  0  0  0
   17.8183  -21.5338  -16.2206 C   0  0  0  0  0  0  0  0  0  0  0  0
   16.9003  -20.4452  -16.7223 C   0  0  0  0  0  0  0  0  0  0  0  0
   16.3289  -20.8290  -18.0755 C   0  0  0  0  0  0  0  0  0  0  0  0
   15.4162  -19.7362  -18.5489 C   0  0  0  0  0  0  0  0  0  0  0  0
   14.7389  -20.0725  -19.8544 N   0  0  0  0  0  0  0  0  0  0  0  0
   13.8160  -19.0701  -20.3007 C   0  0  0  0  0  0  0  0  0  0  0  0
   19.0456  -21.5716  -17.1035 O   0  0  0  0  0  0  0  0  0  0  0  0
   19.9825  -20.7794  -16.8572 O   0  0  0  0  0  0  0  0  0  0  0  0
  1  2  1  0
  2  3  2  0
  4  2  1  0
  4  5  1  0
  5  6  1  0
  6  7  1  0
  7  8  1  0
  8 10  1  0
  8  9  1  1
 10 11  2  0
 10 12  1  0
 12 13  1  0
 13 20  1  0
 13 14  1  6
 15 14  1  0
 16 15  2  0
 17 18  1  0
 17 16  1  0
 18 19  2  0
 19 15  1  0
 20 21  2  0
 20 22  1  0
 22 23  1  0
 23 29  1  0
 23 24  1  6
 25 24  1  0
 25 26  1  0
 27 26  1  0
 27 28  1  0
 29 31  1  0
 30 29  2  0
M  END
$$$$
