RHK.pdb
     RDKit          3D

 31 31  0  0  1  0  0  0  0  0999 V2000
   44.3837  -22.8669   -8.7172 N   0  0  0  0  0  0  0  0  0  0  0  0
   43.7613  -22.2072   -7.6003 C   0  0  0  0  0  0  0  0  0  0  0  0
   43.2253  -22.9602   -6.6762 N   0  0  0  0  0  0  0  0  0  0  0  0
   43.7243  -20.8096   -7.5052 N   0  0  0  0  0  0  0  0  0  0  0  0
   44.5899  -19.9446   -8.2609 C   0  0  0  0  0  0  0  0  0  0  0  0
   45.4167  -19.0642   -7.3503 C   0  0  0  0  0  0  0  0  0  0  0  0
   45.8450  -17.7868   -7.9799 C   0  0  0  0  0  0  0  0  0  0  0  0
   45.4033  -16.5398   -7.2891 C   0  0  2  0  0  0  0  0  0  0  0  0
   44.1993  -16.7029   -6.5226 N   0  0  0  0  0  0  0  0  0  0  0  0
   45.1688  -15.4998   -8.3377 C   0  0  0  0  0  0  0  0  0  0  0  0
   46.0820  -15.1223   -9.1124 O   0  0  0  0  0  0  0  0  0  0  0  0
   42.8014  -22.5249   -5.8178 N   0  0  0  0  0  0  0  0  0  0  0  0
   43.8922  -14.9315   -8.4578 C   0  0  2  0  0  0  0  0  0  0  0  0
   43.4693  -13.9292   -9.4036 C   0  0  0  0  0  0  0  0  0  0  0  0
   42.5087  -14.4903  -10.3695 C   0  0  0  0  0  0  0  0  0  0  0  0
   41.9971  -13.5369  -11.3841 C   0  0  0  0  0  0  0  0  0  0  0  0
   42.3635  -12.1871  -11.3570 N   0  0  0  0  0  0  0  0  0  0  0  0
   41.7651  -11.5701  -12.3750 C   0  0  0  0  0  0  0  0  0  0  0  0
   41.0521  -12.5033  -13.0148 N   0  0  0  0  0  0  0  0  0  0  0  0
   41.1789  -13.6972  -12.4308 C   0  0  0  0  0  0  0  0  0  0  0  0
   42.9029  -12.7372   -8.7152 O   0  0  0  0  0  0  0  0  0  0  0  0
   42.0797  -12.8462   -7.7396 N   0  0  0  0  0  0  0  0  0  0  0  0
   43.2284  -11.4100   -9.0833 C   0  0  1  0  0  0  0  0  0  0  0  0
   42.8917  -10.2703   -8.2689 C   0  0  0  0  0  0  0  0  0  0  0  0
   43.3687  -10.3784   -6.8406 C   0  0  0  0  0  0  0  0  0  0  0  0
   43.0855   -9.0849   -6.0980 C   0  0  0  0  0  0  0  0  0  0  0  0
   43.4096   -9.2737   -4.6452 C   0  0  0  0  0  0  0  0  0  0  0  0
   42.9625   -8.1094   -3.7962 N   0  0  0  0  0  0  0  0  0  0  0  0
   43.2234   -8.2819   -2.3970 C   0  0  0  0  0  0  0  0  0  0  0  0
   43.4945   -9.0269   -8.8836 O   0  0  0  0  0  0  0  0  0  0  0  0
   43.1766   -7.9130   -8.4102 O   0  0  0  0  0  0  0  0  0  0  0  0
  1  2  1  0
  2  3  2  0
  4  2  1  0
  4  5  1  0
  5  6  1  0
  6  7  1  0
  7  8  1  0
  8 10  1  0
  8  9  1  6
 10 11  2  0
 10 12  1  0
 12 13  1  0
 13 20  1  0
 13 14  1  6
 15 14  1  0
 16 15  2  0
 17 18  1  0
 17 16  1  0
 18 19  2  0
 19 15  1  0
 20 21  2  0
 20 22  1  0
 22 23  1  0
 23 29  1  0
 23 24  1  6
 25 24  1  0
 25 26  1  0
 27 26  1  0
 27 28  1  0
 29 31  1  0
 30 29  2  0
M  END
$$$$
