RHK.pdb
     RDKit          3D

 31 31  0  0  1  0  0  0  0  0999 V2000
   26.7910  -17.3890  -20.4700 N   0  0  0  0  0  0  0  0  0  0  0  0
   25.4621  -17.8759  -20.2115 C   0  0  0  0  0  0  0  0  0  0  0  0
   24.5984  -17.8234  -21.1910 N   0  0  0  0  0  0  0  0  0  0  0  0
   25.1014  -18.3840  -18.9562 N   0  0  0  0  0  0  0  0  0  0  0  0
   26.0192  -18.4865  -17.8537 C   0  0  0  0  0  0  0  0  0  0  0  0
   27.0267  -19.5918  -18.0796 C   0  0  0  0  0  0  0  0  0  0  0  0
   27.9424  -19.8118  -16.9286 C   0  0  0  0  0  0  0  0  0  0  0  0
   27.9721  -21.1974  -16.3753 C   0  0  2  0  0  0  0  0  0  0  0  0
   27.9111  -22.2201  -17.3824 N   0  0  0  0  0  0  0  0  0  0  0  0
   26.7945  -21.3473  -15.4657 C   0  0  0  0  0  0  0  0  0  0  0  0
   25.6890  -21.7763  -15.8783 O   0  0  0  0  0  0  0  0  0  0  0  0
   23.6189  -18.1810  -21.0537 N   0  0  0  0  0  0  0  0  0  0  0  0
   26.9310  -20.9985  -14.1141 C   0  0  2  0  0  0  0  0  0  0  0  0
   25.9197  -21.0674  -13.0893 C   0  0  0  0  0  0  0  0  0  0  0  0
   26.5006  -20.8119  -11.7598 C   0  0  0  0  0  0  0  0  0  0  0  0
   25.5513  -20.9010  -10.6235 C   0  0  0  0  0  0  0  0  0  0  0  0
   24.2256  -21.3024  -10.8190 N   0  0  0  0  0  0  0  0  0  0  0  0
   23.6069  -21.2938   -9.6391 C   0  0  0  0  0  0  0  0  0  0  0  0
   24.5159  -20.9022   -8.7397 N   0  0  0  0  0  0  0  0  0  0  0  0
   25.6960  -20.6595   -9.3152 C   0  0  0  0  0  0  0  0  0  0  0  0
   24.7955  -20.1333  -13.3716 O   0  0  0  0  0  0  0  0  0  0  0  0
   24.9918  -18.9664  -13.8625 N   0  0  0  0  0  0  0  0  0  0  0  0
   23.4419  -20.4618  -13.1214 C   0  0  1  0  0  0  0  0  0  0  0  0
   22.3448  -19.6472  -13.5780 C   0  0  0  0  0  0  0  0  0  0  0  0
   22.2569  -19.5285  -15.0805 C   0  0  0  0  0  0  0  0  0  0  0  0
   21.0564  -18.6830  -15.4664 C   0  0  0  0  0  0  0  0  0  0  0  0
   20.9570  -18.6284  -16.9625 C   0  0  0  0  0  0  0  0  0  0  0  0
   19.8983  -17.6642  -17.4376 N   0  0  0  0  0  0  0  0  0  0  0  0
   19.7141  -17.6642  -18.8595 C   0  0  0  0  0  0  0  0  0  0  0  0
   21.0474  -20.2315  -13.0658 O   0  0  0  0  0  0  0  0  0  0  0  0
   20.9618  -21.4733  -12.9373 O   0  0  0  0  0  0  0  0  0  0  0  0
  1  2  1  0
  2  3  2  0
  4  2  1  0
  4  5  1  0
  5  6  1  0
  6  7  1  0
  7  8  1  0
  8 10  1  0
  8  9  1  6
 10 11  2  0
 10 12  1  0
 12 13  1  0
 13 20  1  0
 13 14  1  1
 15 14  1  0
 16 15  2  0
 17 18  1  0
 17 16  1  0
 18 19  2  0
 19 15  1  0
 20 21  2  0
 20 22  1  0
 22 23  1  0
 23 29  1  0
 23 24  1  1
 25 24  1  0
 25 26  1  0
 27 26  1  0
 27 28  1  0
 29 31  1  0
 30 29  2  0
M  END
$$$$
