RHK.pdb
     RDKit          3D

 31 31  0  0  1  0  0  0  0  0999 V2000
   19.6598  -10.8124  -20.7659 N   0  0  0  0  0  0  0  0  0  0  0  0
   20.7423  -10.9427  -19.8272 C   0  0  0  0  0  0  0  0  0  0  0  0
   21.7376  -10.1022  -19.9326 N   0  0  0  0  0  0  0  0  0  0  0  0
   20.7363  -11.9354  -18.8381 N   0  0  0  0  0  0  0  0  0  0  0  0
   19.6494  -12.8594  -18.6549 C   0  0  0  0  0  0  0  0  0  0  0  0
   18.5010  -12.2149  -17.9109 C   0  0  0  0  0  0  0  0  0  0  0  0
   17.3912  -13.1528  -17.5943 C   0  0  0  0  0  0  0  0  0  0  0  0
   16.1278  -12.9500  -18.3624 C   0  0  2  0  0  0  0  0  0  0  0  0
   15.9822  -11.6215  -18.8893 N   0  0  0  0  0  0  0  0  0  0  0  0
   14.9859  -13.2287  -17.4379 C   0  0  0  0  0  0  0  0  0  0  0  0
   14.1732  -12.3332  -17.1001 O   0  0  0  0  0  0  0  0  0  0  0  0
   22.5627  -10.1738  -19.2844 N   0  0  0  0  0  0  0  0  0  0  0  0
   14.8197  -14.5275  -16.9354 C   0  0  1  0  0  0  0  0  0  0  0  0
   13.7022  -15.0332  -16.1782 C   0  0  0  0  0  0  0  0  0  0  0  0
   12.4282  -14.7183  -16.8477 C   0  0  0  0  0  0  0  0  0  0  0  0
   11.2072  -15.1609  -16.1312 C   0  0  0  0  0  0  0  0  0  0  0  0
   11.2921  -15.9164  -14.9570 N   0  0  0  0  0  0  0  0  0  0  0  0
   10.0552  -16.1700  -14.5317 C   0  0  0  0  0  0  0  0  0  0  0  0
    9.2287  -15.5912  -15.4094 N   0  0  0  0  0  0  0  0  0  0  0  0
    9.9057  -14.9776  -16.3830 C   0  0  0  0  0  0  0  0  0  0  0  0
   13.8306  -16.4955  -15.9309 O   0  0  0  0  0  0  0  0  0  0  0  0
   13.8524  -17.3450  -16.8896 N   0  0  0  0  0  0  0  0  0  0  0  0
   13.9371  -17.0492  -14.6328 C   0  0  2  0  0  0  0  0  0  0  0  0
   14.0643  -18.4647  -14.3972 C   0  0  0  0  0  0  0  0  0  0  0  0
   13.1186  -18.9960  -13.3471 C   0  0  0  0  0  0  0  0  0  0  0  0
   13.3123  -20.4928  -13.1818 C   0  0  0  0  0  0  0  0  0  0  0  0
   12.3553  -20.9981  -12.1425 C   0  0  0  0  0  0  0  0  0  0  0  0
   12.3888  -22.5002  -12.0063 N   0  0  0  0  0  0  0  0  0  0  0  0
   11.4753  -23.0112  -11.0264 C   0  0  0  0  0  0  0  0  0  0  0  0
   13.8118  -19.2068  -15.6905 O   0  0  0  0  0  0  0  0  0  0  0  0
   13.2063  -18.6129  -16.6107 O   0  0  0  0  0  0  0  0  0  0  0  0
  1  2  1  0
  2  3  2  0
  4  2  1  0
  4  5  1  0
  5  6  1  0
  6  7  1  0
  7  8  1  0
  8 10  1  0
  8  9  1  1
 10 11  2  0
 10 12  1  0
 12 13  1  0
 13 20  1  0
 13 14  1  1
 15 14  1  0
 16 15  2  0
 17 18  1  0
 17 16  1  0
 18 19  2  0
 19 15  1  0
 20 21  2  0
 20 22  1  0
 22 23  1  0
 23 29  1  0
 23 24  1  6
 25 24  1  0
 25 26  1  0
 27 26  1  0
 27 28  1  0
 29 31  1  0
 30 29  2  0
M  END
$$$$
