RHK.pdb
     RDKit          3D

 31 31  0  0  1  0  0  0  0  0999 V2000
   27.1442  -29.2329  -19.6650 N   0  0  0  0  0  0  0  0  0  0  0  0
   27.2529  -29.7243  -18.3171 C   0  0  0  0  0  0  0  0  0  0  0  0
   26.6659  -30.8583  -18.0385 N   0  0  0  0  0  0  0  0  0  0  0  0
   27.9570  -29.0145  -17.3351 N   0  0  0  0  0  0  0  0  0  0  0  0
   28.5830  -27.7426  -17.5781 C   0  0  0  0  0  0  0  0  0  0  0  0
   27.6767  -26.5998  -17.1775 C   0  0  0  0  0  0  0  0  0  0  0  0
   28.3097  -25.6338  -16.2406 C   0  0  0  0  0  0  0  0  0  0  0  0
   29.1490  -24.5717  -16.8688 C   0  0  2  0  0  0  0  0  0  0  0  0
   30.5484  -24.6912  -16.5667 N   0  0  0  0  0  0  0  0  0  0  0  0
   28.6595  -23.2511  -16.3661 C   0  0  0  0  0  0  0  0  0  0  0  0
   28.6216  -22.9814  -15.1404 O   0  0  0  0  0  0  0  0  0  0  0  0
   26.6707  -31.2299  -17.0546 N   0  0  0  0  0  0  0  0  0  0  0  0
   28.2314  -22.2879  -17.2915 C   0  0  2  0  0  0  0  0  0  0  0  0
   27.7130  -20.9736  -17.0054 C   0  0  0  0  0  0  0  0  0  0  0  0
   28.6417  -19.9295  -17.4721 C   0  0  0  0  0  0  0  0  0  0  0  0
   28.2416  -18.5362  -17.1576 C   0  0  0  0  0  0  0  0  0  0  0  0
   27.0210  -18.2582  -16.5334 N   0  0  0  0  0  0  0  0  0  0  0  0
   26.9237  -16.9392  -16.3725 C   0  0  0  0  0  0  0  0  0  0  0  0
   28.0452  -16.4141  -16.8773 N   0  0  0  0  0  0  0  0  0  0  0  0
   28.8531  -17.3627  -17.3570 C   0  0  0  0  0  0  0  0  0  0  0  0
   26.3572  -20.7853  -17.5902 O   0  0  0  0  0  0  0  0  0  0  0  0
   26.0295  -21.2955  -18.7187 N   0  0  0  0  0  0  0  0  0  0  0  0
   25.3409  -20.0370  -16.9496 C   0  0  2  0  0  0  0  0  0  0  0  0
   24.0630  -19.7750  -17.5609 C   0  0  0  0  0  0  0  0  0  0  0  0
   24.1555  -19.3178  -18.9967 C   0  0  0  0  0  0  0  0  0  0  0  0
   22.7641  -19.1587  -19.5830 C   0  0  0  0  0  0  0  0  0  0  0  0
   22.8832  -18.7474  -21.0210 C   0  0  0  0  0  0  0  0  0  0  0  0
   21.5412  -18.5093  -21.6680 N   0  0  0  0  0  0  0  0  0  0  0  0
   21.6194  -18.2260  -23.0714 C   0  0  0  0  0  0  0  0  0  0  0  0
   23.2227  -21.0314  -17.5102 O   0  0  0  0  0  0  0  0  0  0  0  0
   22.0841  -21.0090  -18.0289 O   0  0  0  0  0  0  0  0  0  0  0  0
  1  2  1  0
  2  3  2  0
  4  2  1  0
  4  5  1  0
  5  6  1  0
  6  7  1  0
  7  8  1  0
  8 10  1  0
  8  9  1  1
 10 11  2  0
 10 12  1  0
 12 13  1  0
 13 20  1  0
 13 14  1  6
 15 14  1  0
 16 15  2  0
 17 18  1  0
 17 16  1  0
 18 19  2  0
 19 15  1  0
 20 21  2  0
 20 22  1  0
 22 23  1  0
 23 29  1  0
 23 24  1  6
 25 24  1  0
 25 26  1  0
 27 26  1  0
 27 28  1  0
 29 31  1  0
 30 29  2  0
M  END
$$$$
