RHK.pdb
     RDKit          3D

 31 31  0  0  1  0  0  0  0  0999 V2000
   25.4463  -24.0957  -19.6489 N   0  0  0  0  0  0  0  0  0  0  0  0
   26.3668  -24.9253  -18.9178 C   0  0  0  0  0  0  0  0  0  0  0  0
   27.4266  -25.3548  -19.5507 N   0  0  0  0  0  0  0  0  0  0  0  0
   26.1373  -25.2666  -17.5781 N   0  0  0  0  0  0  0  0  0  0  0  0
   25.0296  -24.7592  -16.8138 C   0  0  0  0  0  0  0  0  0  0  0  0
   25.5024  -23.8581  -15.6947 C   0  0  0  0  0  0  0  0  0  0  0  0
   24.3981  -23.2888  -14.8774 C   0  0  0  0  0  0  0  0  0  0  0  0
   23.5752  -24.2747  -14.1171 C   0  0  2  0  0  0  0  0  0  0  0  0
   22.8527  -25.1894  -14.9568 N   0  0  0  0  0  0  0  0  0  0  0  0
   22.5956  -23.5049  -13.2899 C   0  0  0  0  0  0  0  0  0  0  0  0
   22.9643  -22.6201  -12.4790 O   0  0  0  0  0  0  0  0  0  0  0  0
   28.1052  -25.9997  -19.0715 N   0  0  0  0  0  0  0  0  0  0  0  0
   21.2271  -23.7804  -13.4254 C   0  0  1  0  0  0  0  0  0  0  0  0
   20.1374  -23.1542  -12.7195 C   0  0  0  0  0  0  0  0  0  0  0  0
   19.2613  -22.4207  -13.6496 C   0  0  0  0  0  0  0  0  0  0  0  0
   19.7135  -21.0532  -14.0040 C   0  0  0  0  0  0  0  0  0  0  0  0
   20.6151  -20.3570  -13.1920 N   0  0  0  0  0  0  0  0  0  0  0  0
   20.8447  -19.1670  -13.7456 C   0  0  0  0  0  0  0  0  0  0  0  0
   20.1130  -19.1242  -14.8642 N   0  0  0  0  0  0  0  0  0  0  0  0
   19.4224  -20.2538  -15.0369 C   0  0  0  0  0  0  0  0  0  0  0  0
   19.3637  -24.1464  -11.9242 O   0  0  0  0  0  0  0  0  0  0  0  0
   19.1055  -25.3190  -12.3709 N   0  0  0  0  0  0  0  0  0  0  0  0
   18.8617  -23.8708  -10.6300 C   0  0  1  0  0  0  0  0  0  0  0  0
   18.2263  -24.8713   -9.8109 C   0  0  0  0  0  0  0  0  0  0  0  0
   18.4025  -24.6482   -8.3282 C   0  0  0  0  0  0  0  0  0  0  0  0
   17.6809  -25.7334   -7.5493 C   0  0  0  0  0  0  0  0  0  0  0  0
   17.9196  -25.5241   -6.0829 C   0  0  0  0  0  0  0  0  0  0  0  0
   17.3111  -26.6143   -5.2359 N   0  0  0  0  0  0  0  0  0  0  0  0
   17.6266  -26.5055   -3.8415 C   0  0  0  0  0  0  0  0  0  0  0  0
   16.7461  -24.8974  -10.1200 O   0  0  0  0  0  0  0  0  0  0  0  0
   16.1604  -23.8109  -10.3262 O   0  0  0  0  0  0  0  0  0  0  0  0
  1  2  1  0
  2  3  2  0
  4  2  1  0
  4  5  1  0
  5  6  1  0
  6  7  1  0
  7  8  1  0
  8 10  1  0
  8  9  1  6
 10 11  2  0
 10 12  1  0
 12 13  1  0
 13 20  1  0
 13 14  1  1
 15 14  1  0
 16 15  2  0
 17 18  1  0
 17 16  1  0
 18 19  2  0
 19 15  1  0
 20 21  2  0
 20 22  1  0
 22 23  1  0
 23 29  1  0
 23 24  1  6
 25 24  1  0
 25 26  1  0
 27 26  1  0
 27 28  1  0
 29 31  1  0
 30 29  2  0
M  END
$$$$
