RHK.pdb
     RDKit          3D

 31 31  0  0  1  0  0  0  0  0999 V2000
   28.7975  -31.2021  -16.2464 N   0  0  0  0  0  0  0  0  0  0  0  0
   27.6083  -32.0030  -16.1265 C   0  0  0  0  0  0  0  0  0  0  0  0
   27.6793  -33.0840  -15.3953 N   0  0  0  0  0  0  0  0  0  0  0  0
   26.4174  -31.6440  -16.7719 N   0  0  0  0  0  0  0  0  0  0  0  0
   26.2828  -30.4597  -17.5768 C   0  0  0  0  0  0  0  0  0  0  0  0
   24.9160  -30.3862  -18.2204 C   0  0  0  0  0  0  0  0  0  0  0  0
   23.9772  -29.4634  -17.5284 C   0  0  0  0  0  0  0  0  0  0  0  0
   23.9111  -28.0745  -18.0703 C   0  0  2  0  0  0  0  0  0  0  0  0
   25.1963  -27.5255  -18.4031 N   0  0  0  0  0  0  0  0  0  0  0  0
   23.2747  -27.2114  -17.0281 C   0  0  0  0  0  0  0  0  0  0  0  0
   23.9577  -26.5296  -16.2249 O   0  0  0  0  0  0  0  0  0  0  0  0
   26.8501  -33.7261  -15.3165 N   0  0  0  0  0  0  0  0  0  0  0  0
   21.8753  -27.1634  -16.9473 C   0  0  1  0  0  0  0  0  0  0  0  0
   21.0796  -26.3183  -16.0925 C   0  0  0  0  0  0  0  0  0  0  0  0
   20.0398  -25.6182  -16.8665 C   0  0  0  0  0  0  0  0  0  0  0  0
   20.5208  -24.4935  -17.7054 C   0  0  0  0  0  0  0  0  0  0  0  0
   21.8546  -24.0744  -17.6566 N   0  0  0  0  0  0  0  0  0  0  0  0
   22.0058  -23.0584  -18.5051 C   0  0  0  0  0  0  0  0  0  0  0  0
   20.8084  -22.8529  -19.0642 N   0  0  0  0  0  0  0  0  0  0  0  0
   19.8986  -23.7092  -18.5934 C   0  0  0  0  0  0  0  0  0  0  0  0
   20.4825  -27.0904  -14.9686 O   0  0  0  0  0  0  0  0  0  0  0  0
   20.3001  -28.3565  -15.0385 N   0  0  0  0  0  0  0  0  0  0  0  0
   20.0770  -26.4895  -13.7531 C   0  0  1  0  0  0  0  0  0  0  0  0
   19.5758  -27.2499  -12.6368 C   0  0  0  0  0  0  0  0  0  0  0  0
   20.5055  -28.3480  -12.1797 C   0  0  0  0  0  0  0  0  0  0  0  0
   19.8255  -29.1991  -11.1223 C   0  0  0  0  0  0  0  0  0  0  0  0
   20.8367  -29.5924  -10.0859 C   0  0  0  0  0  0  0  0  0  0  0  0
   20.5031  -30.9044   -9.4201 N   0  0  0  0  0  0  0  0  0  0  0  0
   21.4939  -31.3435   -8.4814 C   0  0  0  0  0  0  0  0  0  0  0  0
   19.3268  -26.3162  -11.4735 O   0  0  0  0  0  0  0  0  0  0  0  0
   19.8771  -25.1923  -11.4820 O   0  0  0  0  0  0  0  0  0  0  0  0
  1  2  1  0
  2  3  2  0
  4  2  1  0
  4  5  1  0
  5  6  1  0
  6  7  1  0
  7  8  1  0
  8 10  1  0
  8  9  1  1
 10 11  2  0
 10 12  1  0
 12 13  1  0
 13 20  1  0
 13 14  1  1
 15 14  1  0
 16 15  2  0
 17 18  1  0
 17 16  1  0
 18 19  2  0
 19 15  1  0
 20 21  2  0
 20 22  1  0
 22 23  1  0
 23 29  1  0
 23 24  1  1
 25 24  1  0
 25 26  1  0
 27 26  1  0
 27 28  1  0
 29 31  1  0
 30 29  2  0
M  END
$$$$
