LDR.pdb
     RDKit          3D

 28 27  0  0  1  0  0  0  0  0999 V2000
   27.6762  -12.5577  -15.4870 C   0  0  0  0  0  0  0  0  0  0  0  0
   27.5581  -11.5966  -16.6317 C   0  0  2  0  0  0  0  0  0  0  0  0
   28.4780  -10.4130  -16.3514 C   0  0  0  0  0  0  0  0  0  0  0  0
   26.1804  -11.0487  -16.8107 C   0  0  0  0  0  0  0  0  0  0  0  0
   25.1285  -12.0930  -17.0785 C   0  0  2  0  0  0  0  0  0  0  0  0
   25.4493  -12.7926  -18.2857 N   0  0  0  0  0  0  0  0  0  0  0  0
   23.8216  -11.3876  -17.1369 C   0  0  0  0  0  0  0  0  0  0  0  0
   23.4791  -10.9072  -18.2463 O   0  0  0  0  0  0  0  0  0  0  0  0
   22.9443  -11.2218  -16.0383 N   0  0  0  0  0  0  0  0  0  0  0  0
   21.6414  -10.5647  -16.1841 C   0  0  1  0  0  0  0  0  0  0  0  0
   20.6064  -11.2874  -15.3679 C   0  0  0  0  0  0  0  0  0  0  0  0
   19.2404  -10.8018  -15.5922 C   0  0  0  0  0  0  0  0  0  0  0  0
   18.9028   -9.9209  -16.4159 O   0  0  0  0  0  0  0  0  0  0  0  0
   21.7196   -9.1260  -15.8691 C   0  0  0  0  0  0  0  0  0  0  0  0
   22.2763   -8.7338  -14.8257 O   0  0  0  0  0  0  0  0  0  0  0  0
   18.2326  -11.3829  -14.8102 O   0  0  0  0  0  0  0  0  0  0  0  0
   18.8491   -2.1848  -20.8287 N   0  0  0  0  0  0  0  0  0  0  0  0
   19.4996   -1.5492  -19.7541 C   0  0  0  0  0  0  0  0  0  0  0  0
   19.6018   -0.2655  -19.7116 N   0  0  0  0  0  0  0  0  0  0  0  0
   20.0476   -2.3398  -18.7109 N   0  0  0  0  0  0  0  0  0  0  0  0
   20.0505   -3.7462  -18.6960 C   0  0  0  0  0  0  0  0  0  0  0  0
   20.6680   -4.4830  -17.5661 C   0  0  0  0  0  0  0  0  0  0  0  0
   20.6627   -5.9669  -17.6526 C   0  0  0  0  0  0  0  0  0  0  0  0
   21.2301   -6.7190  -16.4930 C   0  0  2  0  0  0  0  0  0  0  0  0
   21.1668   -8.1695  -16.7405 N   0  0  0  0  0  0  0  0  0  0  0  0
   20.4226   -6.5107  -15.2659 C   0  0  0  0  0  0  0  0  0  0  0  0
   20.8514   -5.6364  -14.2959 O   0  0  0  0  0  0  0  0  0  0  0  0
   19.3591   -7.1180  -15.1012 O   0  0  0  0  0  0  0  0  0  0  0  0
  2  1  1  1
  2  3  1  0
  4  2  1  0
  5  4  1  0
  5  6  1  6
  7  5  1  0
  7  8  2  0
  9  7  1  0
 10  9  1  0
 10 11  1  1
 12 11  1  0
 12 16  1  0
 13 12  2  0
 14 10  1  0
 15 14  2  0
 18 20  1  0
 18 17  1  0
 19 18  2  0
 21 22  1  0
 21 20  1  0
 22 23  1  0
 24 23  1  6
 24 25  1  0
 24 26  1  0
 25 14  1  0
 26 28  2  0
 26 27  1  0
M  END
$$$$
