LDR.pdb
     RDKit          3D

 28 27  0  0  1  0  0  0  0  0999 V2000
   17.7351  -11.6919    5.8340 C   0  0  0  0  0  0  0  0  0  0  0  0
   19.0326  -11.2689    5.2133 C   0  0  2  0  0  0  0  0  0  0  0  0
   18.9845  -11.6229    3.7307 C   0  0  0  0  0  0  0  0  0  0  0  0
   20.2236  -11.9605    5.7911 C   0  0  0  0  0  0  0  0  0  0  0  0
   20.3796  -11.7862    7.2791 C   0  0  2  0  0  0  0  0  0  0  0  0
   21.6149  -11.1161    7.5524 N   0  0  0  0  0  0  0  0  0  0  0  0
   20.2983  -13.1406    7.8856 C   0  0  0  0  0  0  0  0  0  0  0  0
   21.3624  -13.8064    7.9450 O   0  0  0  0  0  0  0  0  0  0  0  0
   19.1152  -13.7263    8.3964 N   0  0  0  0  0  0  0  0  0  0  0  0
   19.0956  -15.0975    8.9163 C   0  0  1  0  0  0  0  0  0  0  0  0
   18.9523  -15.0784   10.4125 C   0  0  0  0  0  0  0  0  0  0  0  0
   19.0793  -16.4033   11.0295 C   0  0  0  0  0  0  0  0  0  0  0  0
   19.3546  -17.4671   10.4287 O   0  0  0  0  0  0  0  0  0  0  0  0
   18.0654  -15.9167    8.2509 C   0  0  0  0  0  0  0  0  0  0  0  0
   16.8574  -15.6341    8.3659 O   0  0  0  0  0  0  0  0  0  0  0  0
   18.8725  -16.4721   12.4142 O   0  0  0  0  0  0  0  0  0  0  0  0
   16.6863  -20.5002    1.3946 N   0  0  0  0  0  0  0  0  0  0  0  0
   15.8029  -21.0074    2.3663 C   0  0  0  0  0  0  0  0  0  0  0  0
   15.2672  -22.1710    2.2270 N   0  0  0  0  0  0  0  0  0  0  0  0
   15.5034  -20.2203    3.5084 N   0  0  0  0  0  0  0  0  0  0  0  0
   16.4267  -19.3858    4.1638 C   0  0  0  0  0  0  0  0  0  0  0  0
   17.2607  -19.9143    5.2711 C   0  0  0  0  0  0  0  0  0  0  0  0
   18.1243  -18.9363    5.9835 C   0  0  0  0  0  0  0  0  0  0  0  0
   17.4463  -17.9674    6.8966 C   0  0  2  0  0  0  0  0  0  0  0  0
   18.4272  -17.0328    7.4742 N   0  0  0  0  0  0  0  0  0  0  0  0
   16.8472  -18.6553    8.0667 C   0  0  0  0  0  0  0  0  0  0  0  0
   17.6545  -19.2279    9.0204 O   0  0  0  0  0  0  0  0  0  0  0  0
   15.6202  -18.7219    8.1979 O   0  0  0  0  0  0  0  0  0  0  0  0
  2  1  1  1
  2  3  1  0
  4  2  1  0
  5  4  1  0
  5  6  1  6
  7  5  1  0
  7  8  2  0
  9  7  1  0
 10  9  1  0
 10 11  1  1
 12 11  1  0
 12 16  1  0
 13 12  2  0
 14 10  1  0
 15 14  2  0
 18 20  1  0
 18 17  1  0
 19 18  2  0
 21 22  1  0
 21 20  1  0
 22 23  1  0
 24 23  1  6
 24 25  1  0
 24 26  1  0
 25 14  1  0
 26 28  2  0
 26 27  1  0
M  END
$$$$
