LDR.pdb
     RDKit          3D

 28 27  0  0  1  0  0  0  0  0999 V2000
   32.0663  -23.2243   -9.7256 C   0  0  0  0  0  0  0  0  0  0  0  0
   31.9600  -21.9182  -10.4542 C   0  0  2  0  0  0  0  0  0  0  0  0
   32.8067  -20.8917   -9.7093 C   0  0  0  0  0  0  0  0  0  0  0  0
   30.5683  -21.3796  -10.5128 C   0  0  0  0  0  0  0  0  0  0  0  0
   29.6126  -22.2191  -11.3194 C   0  0  2  0  0  0  0  0  0  0  0  0
   30.3293  -22.8819  -12.3667 N   0  0  0  0  0  0  0  0  0  0  0  0
   28.5499  -21.3081  -11.8191 C   0  0  0  0  0  0  0  0  0  0  0  0
   27.8985  -20.6625  -10.9601 O   0  0  0  0  0  0  0  0  0  0  0  0
   28.2246  -21.1195  -13.1838 N   0  0  0  0  0  0  0  0  0  0  0  0
   27.0430  -20.3552  -13.5966 C   0  0  1  0  0  0  0  0  0  0  0  0
   27.1992  -19.8946  -15.0189 C   0  0  0  0  0  0  0  0  0  0  0  0
   27.3601  -18.4424  -15.1495 C   0  0  0  0  0  0  0  0  0  0  0  0
   27.7978  -17.8422  -16.1578 O   0  0  0  0  0  0  0  0  0  0  0  0
   25.7986  -21.1141  -13.3718 C   0  0  0  0  0  0  0  0  0  0  0  0
   25.7894  -22.1121  -12.6259 O   0  0  0  0  0  0  0  0  0  0  0  0
   26.9873  -17.6685  -14.0418 O   0  0  0  0  0  0  0  0  0  0  0  0
   21.4393  -21.6999   -8.1051 N   0  0  0  0  0  0  0  0  0  0  0  0
   20.3039  -21.1049   -8.6872 C   0  0  0  0  0  0  0  0  0  0  0  0
   19.1289  -21.5960   -8.4915 N   0  0  0  0  0  0  0  0  0  0  0  0
   20.4653  -19.9522   -9.4988 N   0  0  0  0  0  0  0  0  0  0  0  0
   21.0421  -19.9568  -10.7815 C   0  0  0  0  0  0  0  0  0  0  0  0
   22.2746  -20.7388  -11.0469 C   0  0  0  0  0  0  0  0  0  0  0  0
   23.2062  -20.1928  -12.0684 C   0  0  0  0  0  0  0  0  0  0  0  0
   23.2729  -20.9056  -13.3798 C   0  0  2  0  0  0  0  0  0  0  0  0
   24.5987  -20.7260  -13.9957 N   0  0  0  0  0  0  0  0  0  0  0  0
   22.3210  -20.3262  -14.3593 C   0  0  0  0  0  0  0  0  0  0  0  0
   22.3425  -18.9790  -14.6309 O   0  0  0  0  0  0  0  0  0  0  0  0
   21.5003  -21.0444  -14.9406 O   0  0  0  0  0  0  0  0  0  0  0  0
  2  1  1  1
  2  3  1  0
  4  2  1  0
  5  4  1  0
  5  6  1  6
  7  5  1  0
  7  8  2  0
  9  7  1  0
 10  9  1  0
 10 11  1  6
 12 11  1  0
 12 16  1  0
 13 12  2  0
 14 10  1  0
 15 14  2  0
 18 20  1  0
 18 17  1  0
 19 18  2  0
 21 22  1  0
 21 20  1  0
 22 23  1  0
 24 23  1  1
 24 25  1  0
 24 26  1  0
 25 14  1  0
 26 28  2  0
 26 27  1  0
M  END
$$$$
