LDR.pdb
     RDKit          3D

 28 27  0  0  1  0  0  0  0  0999 V2000
   19.3917  -27.6049  -13.1692 C   0  0  0  0  0  0  0  0  0  0  0  0
   20.6275  -27.4034  -12.3444 C   0  0  2  0  0  0  0  0  0  0  0  0
   21.3212  -28.7533  -12.1955 C   0  0  0  0  0  0  0  0  0  0  0  0
   20.3491  -26.8987  -10.9667 C   0  0  0  0  0  0  0  0  0  0  0  0
   19.6478  -25.5664  -10.9250 C   0  0  2  0  0  0  0  0  0  0  0  0
   20.5530  -24.5391  -11.3435 N   0  0  0  0  0  0  0  0  0  0  0  0
   19.1493  -25.3816   -9.5370 C   0  0  0  0  0  0  0  0  0  0  0  0
   20.0078  -25.1763   -8.6427 O   0  0  0  0  0  0  0  0  0  0  0  0
   17.7862  -25.4205   -9.1573 N   0  0  0  0  0  0  0  0  0  0  0  0
   17.3592  -25.1295   -7.7848 C   0  0  1  0  0  0  0  0  0  0  0  0
   16.2630  -24.1009   -7.7941 C   0  0  0  0  0  0  0  0  0  0  0  0
   15.6485  -23.8887   -6.4791 C   0  0  0  0  0  0  0  0  0  0  0  0
   16.2366  -23.9624   -5.3758 O   0  0  0  0  0  0  0  0  0  0  0  0
   16.9879  -26.3583   -7.0587 C   0  0  0  0  0  0  0  0  0  0  0  0
   16.1006  -27.1133   -7.5005 O   0  0  0  0  0  0  0  0  0  0  0  0
   14.2822  -23.5757   -6.4691 O   0  0  0  0  0  0  0  0  0  0  0  0
   20.2192  -28.3187    0.8907 N   0  0  0  0  0  0  0  0  0  0  0  0
   19.5408  -27.2521    0.2711 C   0  0  0  0  0  0  0  0  0  0  0  0
   19.4880  -26.0917    0.8287 N   0  0  0  0  0  0  0  0  0  0  0  0
   18.9093  -27.4671   -0.9813 N   0  0  0  0  0  0  0  0  0  0  0  0
   18.0893  -28.5701   -1.2798 C   0  0  0  0  0  0  0  0  0  0  0  0
   17.4186  -28.6708   -2.5993 C   0  0  0  0  0  0  0  0  0  0  0  0
   17.8447  -27.7008   -3.6420 C   0  0  0  0  0  0  0  0  0  0  0  0
   17.1565  -27.7775   -4.9658 C   0  0  2  0  0  0  0  0  0  0  0  0
   17.6280  -26.7009   -5.8535 N   0  0  0  0  0  0  0  0  0  0  0  0
   15.6976  -27.5431   -4.8314 C   0  0  0  0  0  0  0  0  0  0  0  0
   15.2114  -26.2635   -4.7069 O   0  0  0  0  0  0  0  0  0  0  0  0
   14.9049  -28.4910   -4.8296 O   0  0  0  0  0  0  0  0  0  0  0  0
  2  1  1  6
  2  3  1  0
  4  2  1  0
  5  4  1  0
  5  6  1  1
  7  5  1  0
  7  8  2  0
  9  7  1  0
 10  9  1  0
 10 11  1  6
 12 11  1  0
 12 16  1  0
 13 12  2  0
 14 10  1  0
 15 14  2  0
 18 20  1  0
 18 17  1  0
 19 18  2  0
 21 22  1  0
 21 20  1  0
 22 23  1  0
 24 23  1  1
 24 25  1  0
 24 26  1  0
 25 14  1  0
 26 28  2  0
 26 27  1  0
M  END
$$$$
