LDR.pdb
     RDKit          3D

 28 27  0  0  1  0  0  0  0  0999 V2000
   27.5547  -21.3191  -15.1343 C   0  0  0  0  0  0  0  0  0  0  0  0
   27.1975  -19.9046  -14.7884 C   0  0  2  0  0  0  0  0  0  0  0  0
   28.2264  -19.3888  -13.7880 C   0  0  0  0  0  0  0  0  0  0  0  0
   25.8555  -19.7683  -14.1473 C   0  0  0  0  0  0  0  0  0  0  0  0
   24.7143  -20.2856  -14.9833 C   0  0  2  0  0  0  0  0  0  0  0  0
   24.6462  -19.5440  -16.2061 N   0  0  0  0  0  0  0  0  0  0  0  0
   23.4843  -20.1715  -14.1568 C   0  0  0  0  0  0  0  0  0  0  0  0
   23.5488  -19.4493  -13.1305 O   0  0  0  0  0  0  0  0  0  0  0  0
   22.2564  -20.8146  -14.4442 N   0  0  0  0  0  0  0  0  0  0  0  0
   21.0556  -20.5812  -13.6353 C   0  0  1  0  0  0  0  0  0  0  0  0
   20.0390  -19.8135  -14.4331 C   0  0  0  0  0  0  0  0  0  0  0  0
   18.7783  -19.5922  -13.7164 C   0  0  0  0  0  0  0  0  0  0  0  0
   17.7200  -20.2419  -13.8792 O   0  0  0  0  0  0  0  0  0  0  0  0
   20.5204  -21.8387  -13.0810 C   0  0  0  0  0  0  0  0  0  0  0  0
   20.5618  -22.8931  -13.7436 O   0  0  0  0  0  0  0  0  0  0  0  0
   18.7696  -18.5603  -12.7678 O   0  0  0  0  0  0  0  0  0  0  0  0
   16.4187  -24.7059   -6.9598 N   0  0  0  0  0  0  0  0  0  0  0  0
   17.4212  -25.5397   -6.4292 C   0  0  0  0  0  0  0  0  0  0  0  0
   17.1135  -26.6016   -5.7674 N   0  0  0  0  0  0  0  0  0  0  0  0
   18.7839  -25.1980   -6.6291 N   0  0  0  0  0  0  0  0  0  0  0  0
   19.2275  -24.1381   -7.4402 C   0  0  0  0  0  0  0  0  0  0  0  0
   19.0491  -24.1946   -8.9120 C   0  0  0  0  0  0  0  0  0  0  0  0
   19.5072  -23.0119   -9.6872 C   0  0  0  0  0  0  0  0  0  0  0  0
   19.4214  -23.0985  -11.1763 C   0  0  2  0  0  0  0  0  0  0  0  0
   19.9528  -21.8715  -11.7940 N   0  0  0  0  0  0  0  0  0  0  0  0
   18.0118  -23.1704  -11.6335 C   0  0  0  0  0  0  0  0  0  0  0  0
   17.4057  -24.3902  -11.8172 O   0  0  0  0  0  0  0  0  0  0  0  0
   17.3678  -22.1390  -11.8541 O   0  0  0  0  0  0  0  0  0  0  0  0
  2  1  1  1
  2  3  1  0
  4  2  1  0
  5  4  1  0
  5  6  1  6
  7  5  1  0
  7  8  2  0
  9  7  1  0
 10  9  1  0
 10 11  1  6
 12 11  1  0
 12 16  1  0
 13 12  2  0
 14 10  1  0
 15 14  2  0
 18 20  1  0
 18 17  1  0
 19 18  2  0
 21 22  1  0
 21 20  1  0
 22 23  1  0
 24 23  1  1
 24 25  1  0
 24 26  1  0
 25 14  1  0
 26 28  2  0
 26 27  1  0
M  END
$$$$
