LDR.pdb
     RDKit          3D

 28 27  0  0  1  0  0  0  0  0999 V2000
   29.4784  -16.7854  -18.1683 C   0  0  0  0  0  0  0  0  0  0  0  0
   28.2218  -16.1704  -18.7074 C   0  0  2  0  0  0  0  0  0  0  0  0
   28.4356  -14.6633  -18.7998 C   0  0  0  0  0  0  0  0  0  0  0  0
   27.0285  -16.3917  -17.8371 C   0  0  0  0  0  0  0  0  0  0  0  0
   26.7276  -17.8405  -17.5552 C   0  0  2  0  0  0  0  0  0  0  0  0
   27.1518  -18.6390  -18.6652 N   0  0  0  0  0  0  0  0  0  0  0  0
   25.2693  -17.9362  -17.2849 C   0  0  0  0  0  0  0  0  0  0  0  0
   24.8227  -17.2783  -16.3119 O   0  0  0  0  0  0  0  0  0  0  0  0
   24.3574  -18.7105  -18.0418 N   0  0  0  0  0  0  0  0  0  0  0  0
   22.9671  -18.9000  -17.6154 C   0  0  1  0  0  0  0  0  0  0  0  0
   22.1144  -19.2776  -18.7944 C   0  0  0  0  0  0  0  0  0  0  0  0
   21.9518  -18.1942  -19.7700 C   0  0  0  0  0  0  0  0  0  0  0  0
   21.7773  -16.9843  -19.4979 O   0  0  0  0  0  0  0  0  0  0  0  0
   22.8660  -19.8616  -16.5018 C   0  0  0  0  0  0  0  0  0  0  0  0
   23.7713  -20.6926  -16.2962 O   0  0  0  0  0  0  0  0  0  0  0  0
   21.9982  -18.5573  -21.1231 O   0  0  0  0  0  0  0  0  0  0  0  0
   24.5062  -21.1587   -8.6504 N   0  0  0  0  0  0  0  0  0  0  0  0
   25.4205  -21.1775   -9.7207 C   0  0  0  0  0  0  0  0  0  0  0  0
   26.5581  -21.7715   -9.6056 N   0  0  0  0  0  0  0  0  0  0  0  0
   25.0774  -20.5307  -10.9362 N   0  0  0  0  0  0  0  0  0  0  0  0
   23.8629  -19.8593  -11.1648 C   0  0  0  0  0  0  0  0  0  0  0  0
   22.8315  -20.4550  -12.0493 C   0  0  0  0  0  0  0  0  0  0  0  0
   22.7923  -19.9684  -13.4533 C   0  0  0  0  0  0  0  0  0  0  0  0
   21.7260  -20.5269  -14.3383 C   0  0  2  0  0  0  0  0  0  0  0  0
   21.7454  -19.8590  -15.6509 N   0  0  0  0  0  0  0  0  0  0  0  0
   20.3730  -20.2510  -13.7954 C   0  0  0  0  0  0  0  0  0  0  0  0
   19.7227  -21.2003  -13.0436 O   0  0  0  0  0  0  0  0  0  0  0  0
   19.8162  -19.1692  -14.0114 O   0  0  0  0  0  0  0  0  0  0  0  0
  2  1  1  1
  2  3  1  0
  4  2  1  0
  5  4  1  0
  5  6  1  6
  7  5  1  0
  7  8  2  0
  9  7  1  0
 10  9  1  0
 10 11  1  6
 12 11  1  0
 12 16  1  0
 13 12  2  0
 14 10  1  0
 15 14  2  0
 18 20  1  0
 18 17  1  0
 19 18  2  0
 21 22  1  0
 21 20  1  0
 22 23  1  0
 24 23  1  1
 24 25  1  0
 24 26  1  0
 25 14  1  0
 26 28  2  0
 26 27  1  0
M  END
$$$$
