LDR.pdb
     RDKit          3D

 28 27  0  0  1  0  0  0  0  0999 V2000
   14.8790  -19.1781   -8.1753 C   0  0  0  0  0  0  0  0  0  0  0  0
   13.8106  -18.6830   -7.2473 C   0  0  2  0  0  0  0  0  0  0  0  0
   14.2863  -17.3685   -6.6378 C   0  0  0  0  0  0  0  0  0  0  0  0
   13.5260  -19.6141   -6.1148 C   0  0  0  0  0  0  0  0  0  0  0  0
   13.1118  -20.9984   -6.5402 C   0  0  2  0  0  0  0  0  0  0  0  0
   11.8155  -20.9421   -7.1454 N   0  0  0  0  0  0  0  0  0  0  0  0
   13.1582  -21.8571   -5.3279 C   0  0  0  0  0  0  0  0  0  0  0  0
   12.1444  -21.8552   -4.5856 O   0  0  0  0  0  0  0  0  0  0  0  0
   14.2562  -22.6694   -4.9560 N   0  0  0  0  0  0  0  0  0  0  0  0
   14.2613  -23.4335   -3.7042 C   0  0  1  0  0  0  0  0  0  0  0  0
   15.1090  -24.6655   -3.8569 C   0  0  0  0  0  0  0  0  0  0  0  0
   15.1607  -25.4938   -2.6473 C   0  0  0  0  0  0  0  0  0  0  0  0
   14.1718  -25.9606   -2.0370 O   0  0  0  0  0  0  0  0  0  0  0  0
   14.6645  -22.5972   -2.5583 C   0  0  0  0  0  0  0  0  0  0  0  0
   15.6874  -21.8883   -2.6183 O   0  0  0  0  0  0  0  0  0  0  0  0
   16.4350  -25.7821   -2.1393 O   0  0  0  0  0  0  0  0  0  0  0  0
   10.2409  -17.1245    2.3858 N   0  0  0  0  0  0  0  0  0  0  0  0
   10.6289  -17.3850    1.0578 C   0  0  0  0  0  0  0  0  0  0  0  0
   10.1266  -16.7126    0.0802 N   0  0  0  0  0  0  0  0  0  0  0  0
   11.5838  -18.4032    0.8023 N   0  0  0  0  0  0  0  0  0  0  0  0
   12.2310  -19.1551    1.7992 C   0  0  0  0  0  0  0  0  0  0  0  0
   13.3299  -20.0857    1.4420 C   0  0  0  0  0  0  0  0  0  0  0  0
   13.1563  -20.8792    0.1971 C   0  0  0  0  0  0  0  0  0  0  0  0
   14.2701  -21.7986   -0.1856 C   0  0  2  0  0  0  0  0  0  0  0  0
   13.9021  -22.5844   -1.3758 N   0  0  0  0  0  0  0  0  0  0  0  0
   14.5234  -22.8100    0.8699 C   0  0  0  0  0  0  0  0  0  0  0  0
   15.0499  -22.4288    2.0810 O   0  0  0  0  0  0  0  0  0  0  0  0
   14.2655  -24.0026    0.6743 O   0  0  0  0  0  0  0  0  0  0  0  0
  2  1  1  6
  2  3  1  0
  4  2  1  0
  5  4  1  0
  5  6  1  1
  7  5  1  0
  7  8  2  0
  9  7  1  0
 10  9  1  0
 10 11  1  6
 12 11  1  0
 12 16  1  0
 13 12  2  0
 14 10  1  0
 15 14  2  0
 18 20  1  0
 18 17  1  0
 19 18  2  0
 21 22  1  0
 21 20  1  0
 22 23  1  0
 24 23  1  1
 24 25  1  0
 24 26  1  0
 25 14  1  0
 26 28  2  0
 26 27  1  0
M  END
$$$$
