LDR.pdb
     RDKit          3D

 28 27  0  0  1  0  0  0  0  0999 V2000
   23.4425  -16.5213    8.7558 C   0  0  0  0  0  0  0  0  0  0  0  0
   22.5408  -16.9574    9.8715 C   0  0  2  0  0  0  0  0  0  0  0  0
   23.3337  -17.8879   10.7831 C   0  0  0  0  0  0  0  0  0  0  0  0
   21.3411  -17.7157    9.4068 C   0  0  0  0  0  0  0  0  0  0  0  0
   20.5585  -17.0302    8.3176 C   0  0  2  0  0  0  0  0  0  0  0  0
   20.0841  -15.7669    8.7959 N   0  0  0  0  0  0  0  0  0  0  0  0
   19.4664  -17.9562    7.9193 C   0  0  0  0  0  0  0  0  0  0  0  0
   19.7914  -19.1358    7.6332 O   0  0  0  0  0  0  0  0  0  0  0  0
   18.0977  -17.6035    7.8411 N   0  0  0  0  0  0  0  0  0  0  0  0
   17.0640  -18.5913    7.5149 C   0  0  1  0  0  0  0  0  0  0  0  0
   15.8195  -18.3160    8.3118 C   0  0  0  0  0  0  0  0  0  0  0  0
   15.2822  -16.9660    8.1104 C   0  0  0  0  0  0  0  0  0  0  0  0
   15.9597  -15.9243    7.9546 O   0  0  0  0  0  0  0  0  0  0  0  0
   16.8136  -18.6572    6.0630 C   0  0  0  0  0  0  0  0  0  0  0  0
   17.0105  -17.6624    5.3389 O   0  0  0  0  0  0  0  0  0  0  0  0
   13.8859  -16.8436    8.0918 O   0  0  0  0  0  0  0  0  0  0  0  0
   16.0881  -26.4292    2.3361 N   0  0  0  0  0  0  0  0  0  0  0  0
   15.2118  -25.4008    1.9405 C   0  0  0  0  0  0  0  0  0  0  0  0
   14.1364  -25.6676    1.2828 N   0  0  0  0  0  0  0  0  0  0  0  0
   15.5257  -24.0574    2.2729 N   0  0  0  0  0  0  0  0  0  0  0  0
   16.7385  -23.6439    2.8528 C   0  0  0  0  0  0  0  0  0  0  0  0
   16.9920  -22.2061    3.1165 C   0  0  0  0  0  0  0  0  0  0  0  0
   15.8609  -21.4187    3.6735 C   0  0  0  0  0  0  0  0  0  0  0  0
   16.1301  -19.9903    4.0189 C   0  0  2  0  0  0  0  0  0  0  0  0
   16.3473  -19.8440    5.4683 N   0  0  0  0  0  0  0  0  0  0  0  0
   14.9558  -19.1323    3.7255 C   0  0  0  0  0  0  0  0  0  0  0  0
   14.7605  -18.6368    2.4584 O   0  0  0  0  0  0  0  0  0  0  0  0
   14.1421  -18.8535    4.6128 O   0  0  0  0  0  0  0  0  0  0  0  0
  2  1  1  6
  2  3  1  0
  4  2  1  0
  5  4  1  0
  5  6  1  1
  7  5  1  0
  7  8  2  0
  9  7  1  0
 10  9  1  0
 10 11  1  1
 12 11  1  0
 12 16  1  0
 13 12  2  0
 14 10  1  0
 15 14  2  0
 18 20  1  0
 18 17  1  0
 19 18  2  0
 21 22  1  0
 21 20  1  0
 22 23  1  0
 24 23  1  1
 24 25  1  0
 24 26  1  0
 25 14  1  0
 26 28  2  0
 26 27  1  0
M  END
$$$$
