LDR.pdb
     RDKit          3D

 28 27  0  0  1  0  0  0  0  0999 V2000
   18.6818  -15.8357  -17.4360 C   0  0  0  0  0  0  0  0  0  0  0  0
   19.9776  -15.5550  -16.7359 C   0  0  2  0  0  0  0  0  0  0  0  0
   20.1994  -16.6487  -15.6966 C   0  0  0  0  0  0  0  0  0  0  0  0
   19.9924  -14.2501  -16.0096 C   0  0  0  0  0  0  0  0  0  0  0  0
   19.7794  -13.0478  -16.8916 C   0  0  2  0  0  0  0  0  0  0  0  0
   20.7703  -13.0345  -17.9249 N   0  0  0  0  0  0  0  0  0  0  0  0
   19.8299  -11.8503  -16.0127 C   0  0  0  0  0  0  0  0  0  0  0  0
   18.9900  -11.7886  -15.0801 O   0  0  0  0  0  0  0  0  0  0  0  0
   20.7510  -10.7847  -16.1530 N   0  0  0  0  0  0  0  0  0  0  0  0
   20.6038   -9.5340  -15.4014 C   0  0  1  0  0  0  0  0  0  0  0  0
   21.8952   -8.7649  -15.4244 C   0  0  0  0  0  0  0  0  0  0  0  0
   21.8371   -7.5012  -14.6816 C   0  0  0  0  0  0  0  0  0  0  0  0
   22.0372   -6.3612  -15.1599 O   0  0  0  0  0  0  0  0  0  0  0  0
   19.4555   -8.7429  -15.8816 C   0  0  0  0  0  0  0  0  0  0  0  0
   19.2604   -8.5828  -17.1017 O   0  0  0  0  0  0  0  0  0  0  0  0
   21.5290   -7.5901  -13.3170 O   0  0  0  0  0  0  0  0  0  0  0  0
   11.0610   -9.1696  -14.2514 N   0  0  0  0  0  0  0  0  0  0  0  0
   11.1067   -7.8937  -14.8446 C   0  0  0  0  0  0  0  0  0  0  0  0
   10.0217   -7.2594  -15.1286 N   0  0  0  0  0  0  0  0  0  0  0  0
   12.3670   -7.3079  -15.1312 N   0  0  0  0  0  0  0  0  0  0  0  0
   13.6061   -7.8843  -14.7991 C   0  0  0  0  0  0  0  0  0  0  0  0
   14.8723   -7.2238  -15.2011 C   0  0  0  0  0  0  0  0  0  0  0  0
   16.1288   -7.9777  -14.9508 C   0  0  0  0  0  0  0  0  0  0  0  0
   17.4061   -7.3366  -15.3864 C   0  0  2  0  0  0  0  0  0  0  0  0
   18.5590   -8.1537  -14.9711 N   0  0  0  0  0  0  0  0  0  0  0  0
   17.6107   -6.0286  -14.7166 C   0  0  0  0  0  0  0  0  0  0  0  0
   18.6190   -5.8735  -13.7956 O   0  0  0  0  0  0  0  0  0  0  0  0
   16.8803   -5.0665  -14.9772 O   0  0  0  0  0  0  0  0  0  0  0  0
  2  1  1  1
  2  3  1  0
  4  2  1  0
  5  4  1  0
  5  6  1  6
  7  5  1  0
  7  8  2  0
  9  7  1  0
 10  9  1  0
 10 11  1  6
 12 11  1  0
 12 16  1  0
 13 12  2  0
 14 10  1  0
 15 14  2  0
 18 20  1  0
 18 17  1  0
 19 18  2  0
 21 22  1  0
 21 20  1  0
 22 23  1  0
 24 23  1  1
 24 25  1  0
 24 26  1  0
 25 14  1  0
 26 28  2  0
 26 27  1  0
M  END
$$$$
