DMS.pdb
     RDKit          3D

 23 22  0  0  1  0  0  0  0  0999 V2000
   20.6546  -12.5668  -16.3213 N   0  0  0  0  0  0  0  0  0  0  0  0
   20.8262  -11.3317  -17.0425 C   0  0  1  0  0  0  0  0  0  0  0  0
   19.4470  -10.7992  -17.3650 C   0  0  0  0  0  0  0  0  0  0  0  0
   18.7842  -11.7268  -18.3211 C   0  0  0  0  0  0  0  0  0  0  0  0
   17.7744  -12.3755  -17.9649 O   0  0  0  0  0  0  0  0  0  0  0  0
   21.6530  -10.3578  -16.3076 C   0  0  0  0  0  0  0  0  0  0  0  0
   21.4287  -10.0080  -15.1238 O   0  0  0  0  0  0  0  0  0  0  0  0
   19.2499  -11.9107  -19.6314 O   0  0  0  0  0  0  0  0  0  0  0  0
   27.5265  -12.5764  -14.8598 C   0  0  0  0  0  0  0  0  0  0  0  0
   27.1333  -11.0403  -15.7345 S   0  0  0  0  0  0  0  0  0  0  0  0
   25.3659  -10.6298  -15.5507 C   0  0  0  0  0  0  0  0  0  0  0  0
   25.1211   -9.3605  -16.3483 C   0  0  0  0  0  0  0  0  0  0  0  0
   23.6820   -8.9102  -16.2460 C   0  0  2  0  0  0  0  0  0  0  0  0
   22.7712   -9.7632  -16.9419 N   0  0  0  0  0  0  0  0  0  0  0  0
   23.5277   -7.4795  -16.6081 C   0  0  0  0  0  0  0  0  0  0  0  0
   23.6506   -7.1487  -17.8120 O   0  0  0  0  0  0  0  0  0  0  0  0
   21.6008   -4.9067  -14.1999 O   0  0  0  0  0  0  0  0  0  0  0  0
   21.6604   -4.5689  -15.5539 C   0  0  0  0  0  0  0  0  0  0  0  0
   22.9835   -5.0758  -16.0837 C   0  0  2  0  0  0  0  0  0  0  0  0
   23.2469   -6.4350  -15.6897 N   0  0  0  0  0  0  0  0  0  0  0  0
   24.0833   -4.2200  -15.5885 C   0  0  0  0  0  0  0  0  0  0  0  0
   24.1524   -2.8676  -15.8871 O   0  0  0  0  0  0  0  0  0  0  0  0
   25.0150   -4.6786  -14.8689 O   0  0  0  0  0  0  0  0  0  0  0  0
  2  1  1  1
  3  2  1  0
  4  3  1  0
  5  4  2  0
  6  2  1  0
  7  6  2  0
  8  4  1  0
 10  9  1  0
 10 11  1  0
 11 12  1  0
 13 12  1  6
 13 15  1  0
 13 14  1  0
 14  6  1  0
 15 20  1  0
 16 15  2  0
 18 17  1  0
 19 18  1  1
 19 21  1  0
 20 19  1  0
 21 23  2  0
 21 22  1  0
M  END
$$$$
