DMS.pdb
     RDKit          3D

 23 22  0  0  1  0  0  0  0  0999 V2000
   20.1116  -12.9326  -16.8674 N   0  0  0  0  0  0  0  0  0  0  0  0
   20.4177  -11.6045  -17.3339 C   0  0  1  0  0  0  0  0  0  0  0  0
   19.1363  -11.0062  -17.8724 C   0  0  0  0  0  0  0  0  0  0  0  0
   18.5455  -11.9458  -18.8633 C   0  0  0  0  0  0  0  0  0  0  0  0
   17.3671  -12.3442  -18.7220 O   0  0  0  0  0  0  0  0  0  0  0  0
   21.0404  -10.7685  -16.2920 C   0  0  0  0  0  0  0  0  0  0  0  0
   20.6740  -10.7648  -15.0920 O   0  0  0  0  0  0  0  0  0  0  0  0
   19.2650  -12.4149  -19.9723 O   0  0  0  0  0  0  0  0  0  0  0  0
   27.3047  -11.8965  -14.7350 C   0  0  0  0  0  0  0  0  0  0  0  0
   26.5727  -10.3396  -15.3004 S   0  0  0  0  0  0  0  0  0  0  0  0
   24.7518  -10.4336  -15.2615 C   0  0  0  0  0  0  0  0  0  0  0  0
   24.2292   -9.0749  -15.6952 C   0  0  0  0  0  0  0  0  0  0  0  0
   22.7185   -9.0303  -15.6769 C   0  0  2  0  0  0  0  0  0  0  0  0
   22.1148   -9.9089  -16.6281 N   0  0  0  0  0  0  0  0  0  0  0  0
   22.2096   -7.6394  -15.7683 C   0  0  0  0  0  0  0  0  0  0  0  0
   22.0727   -7.1240  -16.9039 O   0  0  0  0  0  0  0  0  0  0  0  0
   19.6600   -4.0059  -14.0188 O   0  0  0  0  0  0  0  0  0  0  0  0
   20.2315   -5.2463  -13.7259 C   0  0  0  0  0  0  0  0  0  0  0  0
   21.2822   -5.5151  -14.7805 C   0  0  2  0  0  0  0  0  0  0  0  0
   21.8577   -6.8288  -14.6582 N   0  0  0  0  0  0  0  0  0  0  0  0
   22.3659   -4.5141  -14.6755 C   0  0  0  0  0  0  0  0  0  0  0  0
   22.3653   -3.3499  -15.4288 O   0  0  0  0  0  0  0  0  0  0  0  0
   23.3465   -4.6701  -13.8943 O   0  0  0  0  0  0  0  0  0  0  0  0
  2  1  1  1
  3  2  1  0
  4  3  1  0
  5  4  2  0
  6  2  1  0
  7  6  2  0
  8  4  1  0
 10  9  1  0
 10 11  1  0
 11 12  1  0
 13 12  1  6
 13 15  1  0
 13 14  1  0
 14  6  1  0
 15 20  1  0
 16 15  2  0
 18 17  1  0
 19 18  1  1
 19 21  1  0
 20 19  1  0
 21 23  2  0
 21 22  1  0
M  END
$$$$
