DMS.pdb
     RDKit          3D

 23 22  0  0  1  0  0  0  0  0999 V2000
   22.8833  -13.9017  -17.3709 N   0  0  0  0  0  0  0  0  0  0  0  0
   22.9368  -12.6032  -17.9923 C   0  0  1  0  0  0  0  0  0  0  0  0
   21.6421  -12.4098  -18.7515 C   0  0  0  0  0  0  0  0  0  0  0  0
   21.5515  -13.4419  -19.8193 C   0  0  0  0  0  0  0  0  0  0  0  0
   22.5366  -13.6648  -20.5590 O   0  0  0  0  0  0  0  0  0  0  0  0
   23.1933  -11.5226  -17.0233 C   0  0  0  0  0  0  0  0  0  0  0  0
   22.4368  -11.2604  -16.0574 O   0  0  0  0  0  0  0  0  0  0  0  0
   20.3870  -14.1926  -20.0387 O   0  0  0  0  0  0  0  0  0  0  0  0
   28.0845  -12.7983  -14.9435 C   0  0  0  0  0  0  0  0  0  0  0  0
   27.1370  -11.7034  -16.0310 S   0  0  0  0  0  0  0  0  0  0  0  0
   26.7834  -10.1194  -15.1991 C   0  0  0  0  0  0  0  0  0  0  0  0
   26.0680   -9.2391  -16.2092 C   0  0  0  0  0  0  0  0  0  0  0  0
   24.6020   -9.5923  -16.3126 C   0  0  2  0  0  0  0  0  0  0  0  0
   24.3487  -10.7147  -17.1595 N   0  0  0  0  0  0  0  0  0  0  0  0
   23.7754   -8.4088  -16.6559 C   0  0  0  0  0  0  0  0  0  0  0  0
   23.8556   -7.9371  -17.8157 O   0  0  0  0  0  0  0  0  0  0  0  0
   21.2141   -6.5503  -13.9588 O   0  0  0  0  0  0  0  0  0  0  0  0
   20.8209   -6.5137  -15.2986 C   0  0  0  0  0  0  0  0  0  0  0  0
   22.0757   -6.6229  -16.1363 C   0  0  2  0  0  0  0  0  0  0  0  0
   22.8849   -7.7543  -15.7661 N   0  0  0  0  0  0  0  0  0  0  0  0
   22.8865   -5.3948  -15.9878 C   0  0  0  0  0  0  0  0  0  0  0  0
   22.4381   -4.1609  -16.4340 O   0  0  0  0  0  0  0  0  0  0  0  0
   24.0283   -5.4091  -15.4472 O   0  0  0  0  0  0  0  0  0  0  0  0
  2  1  1  1
  3  2  1  0
  4  3  1  0
  5  4  2  0
  6  2  1  0
  7  6  2  0
  8  4  1  0
 10  9  1  0
 10 11  1  0
 11 12  1  0
 13 12  1  6
 13 15  1  0
 13 14  1  0
 14  6  1  0
 15 20  1  0
 16 15  2  0
 18 17  1  0
 19 18  1  1
 19 21  1  0
 20 19  1  0
 21 23  2  0
 21 22  1  0
M  END
$$$$
