DMS.pdb
     RDKit          3D

 23 22  0  0  1  0  0  0  0  0999 V2000
   21.7737  -13.0688  -16.4721 N   0  0  0  0  0  0  0  0  0  0  0  0
   21.1219  -11.7986  -16.6643 C   0  0  1  0  0  0  0  0  0  0  0  0
   19.6846  -11.9539  -16.2174 C   0  0  0  0  0  0  0  0  0  0  0  0
   19.0465  -13.0356  -17.0153 C   0  0  0  0  0  0  0  0  0  0  0  0
   18.3863  -13.9306  -16.4404 O   0  0  0  0  0  0  0  0  0  0  0  0
   21.8152  -10.6968  -15.9732 C   0  0  0  0  0  0  0  0  0  0  0  0
   21.5522  -10.3364  -14.8006 O   0  0  0  0  0  0  0  0  0  0  0  0
   19.1537  -13.0986  -18.4125 O   0  0  0  0  0  0  0  0  0  0  0  0
   28.0192  -12.3571  -15.3055 C   0  0  0  0  0  0  0  0  0  0  0  0
   27.3980  -10.7603  -15.8916 S   0  0  0  0  0  0  0  0  0  0  0  0
   25.5970  -10.6364  -15.6322 C   0  0  0  0  0  0  0  0  0  0  0  0
   25.1592   -9.2976  -16.2007 C   0  0  0  0  0  0  0  0  0  0  0  0
   23.6869   -9.0499  -15.9648 C   0  0  2  0  0  0  0  0  0  0  0  0
   22.8408   -9.9825  -16.6397 N   0  0  0  0  0  0  0  0  0  0  0  0
   23.3190   -7.6369  -16.2294 C   0  0  0  0  0  0  0  0  0  0  0  0
   22.9844   -7.3121  -17.3941 O   0  0  0  0  0  0  0  0  0  0  0  0
   21.9042   -5.1596  -13.4023 O   0  0  0  0  0  0  0  0  0  0  0  0
   22.7302   -4.4366  -14.2659 C   0  0  0  0  0  0  0  0  0  0  0  0
   22.8847   -5.2562  -15.5279 C   0  0  2  0  0  0  0  0  0  0  0  0
   23.3134   -6.6034  -15.2573 N   0  0  0  0  0  0  0  0  0  0  0  0
   23.8740   -4.6175  -16.4228 C   0  0  0  0  0  0  0  0  0  0  0  0
   23.5335   -3.5694  -17.2644 O   0  0  0  0  0  0  0  0  0  0  0  0
   25.0788   -4.9955  -16.4652 O   0  0  0  0  0  0  0  0  0  0  0  0
  2  1  1  1
  3  2  1  0
  4  3  1  0
  5  4  2  0
  6  2  1  0
  7  6  2  0
  8  4  1  0
 10  9  1  0
 10 11  1  0
 11 12  1  0
 13 12  1  6
 13 15  1  0
 13 14  1  0
 14  6  1  0
 15 20  1  0
 16 15  2  0
 18 17  1  0
 19 18  1  1
 19 21  1  0
 20 19  1  0
 21 23  2  0
 21 22  1  0
M  END
$$$$
