DMS.pdb
     RDKit          3D

 23 22  0  0  1  0  0  0  0  0999 V2000
   22.0188  -32.4497   -4.8689 N   0  0  0  0  0  0  0  0  0  0  0  0
   22.1570  -33.7377   -4.2386 C   0  0  1  0  0  0  0  0  0  0  0  0
   21.2030  -34.6864   -4.9313 C   0  0  0  0  0  0  0  0  0  0  0  0
   19.8067  -34.2613   -4.6420 C   0  0  0  0  0  0  0  0  0  0  0  0
   18.8466  -34.8651   -5.1722 O   0  0  0  0  0  0  0  0  0  0  0  0
   23.5479  -34.2252   -4.2469 C   0  0  0  0  0  0  0  0  0  0  0  0
   23.8750  -35.3999   -3.9517 O   0  0  0  0  0  0  0  0  0  0  0  0
   19.5118  -33.1920   -3.7835 O   0  0  0  0  0  0  0  0  0  0  0  0
   26.6510  -33.0777  -10.1385 C   0  0  0  0  0  0  0  0  0  0  0  0
   27.1107  -32.5560   -8.4664 S   0  0  0  0  0  0  0  0  0  0  0  0
   26.1145  -33.4397   -7.2203 C   0  0  0  0  0  0  0  0  0  0  0  0
   26.6947  -33.0900   -5.8608 C   0  0  0  0  0  0  0  0  0  0  0  0
   25.9513  -33.7872   -4.7447 C   0  0  2  0  0  0  0  0  0  0  0  0
   24.5998  -33.3460   -4.6028 N   0  0  0  0  0  0  0  0  0  0  0  0
   26.7108  -33.7469   -3.4706 C   0  0  0  0  0  0  0  0  0  0  0  0
   26.7708  -32.6628   -2.8419 O   0  0  0  0  0  0  0  0  0  0  0  0
   26.8479  -34.3904    0.2042 O   0  0  0  0  0  0  0  0  0  0  0  0
   27.4870  -35.4093   -0.5058 C   0  0  0  0  0  0  0  0  0  0  0  0
   28.1737  -34.7665   -1.6905 C   0  0  2  0  0  0  0  0  0  0  0  0
   27.3870  -34.8524   -2.8928 N   0  0  0  0  0  0  0  0  0  0  0  0
   29.4768  -35.4230   -1.9319 C   0  0  0  0  0  0  0  0  0  0  0  0
   29.7512  -36.0978   -3.1118 O   0  0  0  0  0  0  0  0  0  0  0  0
   30.4048  -35.4020   -1.0749 O   0  0  0  0  0  0  0  0  0  0  0  0
  2  1  1  6
  3  2  1  0
  4  3  1  0
  5  4  2  0
  6  2  1  0
  7  6  2  0
  8  4  1  0
 10  9  1  0
 10 11  1  0
 11 12  1  0
 13 12  1  6
 13 15  1  0
 13 14  1  0
 14  6  1  0
 15 20  1  0
 16 15  2  0
 18 17  1  0
 19 18  1  1
 19 21  1  0
 20 19  1  0
 21 23  2  0
 21 22  1  0
M  END
$$$$
