DMS.pdb
     RDKit          3D

 23 22  0  0  1  0  0  0  0  0999 V2000
   18.9681  -12.8929  -16.1904 N   0  0  0  0  0  0  0  0  0  0  0  0
   19.1485  -11.6099  -16.8201 C   0  0  1  0  0  0  0  0  0  0  0  0
   17.8673  -10.8273  -16.6305 C   0  0  0  0  0  0  0  0  0  0  0  0
   16.7474  -11.5773  -17.2606 C   0  0  0  0  0  0  0  0  0  0  0  0
   16.9033  -12.1069  -18.3843 O   0  0  0  0  0  0  0  0  0  0  0  0
   20.3320  -10.8924  -16.3132 C   0  0  0  0  0  0  0  0  0  0  0  0
   20.5362  -10.6592  -15.0975 O   0  0  0  0  0  0  0  0  0  0  0  0
   15.4983  -11.7209  -16.6386 O   0  0  0  0  0  0  0  0  0  0  0  0
   27.0501   -9.9508  -14.9054 C   0  0  0  0  0  0  0  0  0  0  0  0
   25.5974  -10.6297  -15.7469 S   0  0  0  0  0  0  0  0  0  0  0  0
   24.9663   -9.4539  -16.9900 C   0  0  0  0  0  0  0  0  0  0  0  0
   23.7174  -10.0743  -17.5920 C   0  0  0  0  0  0  0  0  0  0  0  0
   22.4841   -9.7276  -16.7900 C   0  0  2  0  0  0  0  0  0  0  0  0
   21.3142  -10.4256  -17.2206 N   0  0  0  0  0  0  0  0  0  0  0  0
   22.2831   -8.2602  -16.6996 C   0  0  0  0  0  0  0  0  0  0  0  0
   22.0922   -7.6144  -17.7581 O   0  0  0  0  0  0  0  0  0  0  0  0
   21.9214   -6.2184  -13.0912 O   0  0  0  0  0  0  0  0  0  0  0  0
   21.2245   -5.7232  -14.1958 C   0  0  0  0  0  0  0  0  0  0  0  0
   22.0144   -6.1008  -15.4293 C   0  0  2  0  0  0  0  0  0  0  0  0
   22.2882   -7.5125  -15.4937 N   0  0  0  0  0  0  0  0  0  0  0  0
   23.3001   -5.3701  -15.4449 C   0  0  0  0  0  0  0  0  0  0  0  0
   24.5186   -6.0297  -15.5012 O   0  0  0  0  0  0  0  0  0  0  0  0
   23.3523   -4.1083  -15.4073 O   0  0  0  0  0  0  0  0  0  0  0  0
  2  1  1  1
  3  2  1  0
  4  3  1  0
  5  4  2  0
  6  2  1  0
  7  6  2  0
  8  4  1  0
 10  9  1  0
 10 11  1  0
 11 12  1  0
 13 12  1  6
 13 15  1  0
 13 14  1  0
 14  6  1  0
 15 20  1  0
 16 15  2  0
 18 17  1  0
 19 18  1  1
 19 21  1  0
 20 19  1  0
 21 23  2  0
 21 22  1  0
M  END
$$$$
