DMS.pdb
     RDKit          3D

 23 22  0  0  1  0  0  0  0  0999 V2000
   28.3949  -21.4791  -15.4088 N   0  0  0  0  0  0  0  0  0  0  0  0
   27.3762  -20.5212  -15.0629 C   0  0  1  0  0  0  0  0  0  0  0  0
   26.8354  -19.9477  -16.3545 C   0  0  0  0  0  0  0  0  0  0  0  0
   27.9127  -19.1701  -17.0244 C   0  0  0  0  0  0  0  0  0  0  0  0
   28.4350  -18.1938  -16.4402 O   0  0  0  0  0  0  0  0  0  0  0  0
   26.3204  -21.1003  -14.2131 C   0  0  0  0  0  0  0  0  0  0  0  0
   25.6289  -22.0940  -14.5429 O   0  0  0  0  0  0  0  0  0  0  0  0
   28.3794  -19.4891  -18.3081 O   0  0  0  0  0  0  0  0  0  0  0  0
   27.9187  -20.5891   -7.4697 C   0  0  0  0  0  0  0  0  0  0  0  0
   26.3314  -20.3108   -8.2958 S   0  0  0  0  0  0  0  0  0  0  0  0
   26.3644  -20.9764   -9.9934 C   0  0  0  0  0  0  0  0  0  0  0  0
   25.0961  -20.5001  -10.6802 C   0  0  0  0  0  0  0  0  0  0  0  0
   25.0046  -21.0185  -12.0970 C   0  0  2  0  0  0  0  0  0  0  0  0
   26.0433  -20.5289  -12.9471 N   0  0  0  0  0  0  0  0  0  0  0  0
   23.6486  -20.8219  -12.6666 C   0  0  0  0  0  0  0  0  0  0  0  0
   23.2945  -19.6615  -12.9861 O   0  0  0  0  0  0  0  0  0  0  0  0
   19.4149  -22.5706  -14.2671 O   0  0  0  0  0  0  0  0  0  0  0  0
   20.6787  -22.9146  -13.7819 C   0  0  0  0  0  0  0  0  0  0  0  0
   21.3767  -21.6282  -13.3996 C   0  0  2  0  0  0  0  0  0  0  0  0
   22.7016  -21.8557  -12.8848 N   0  0  0  0  0  0  0  0  0  0  0  0
   20.5876  -20.9156  -12.3716 C   0  0  0  0  0  0  0  0  0  0  0  0
   19.6017  -20.0000  -12.7070 O   0  0  0  0  0  0  0  0  0  0  0  0
   20.7727  -21.1056  -11.1363 O   0  0  0  0  0  0  0  0  0  0  0  0
  2  1  1  6
  3  2  1  0
  4  3  1  0
  5  4  2  0
  6  2  1  0
  7  6  2  0
  8  4  1  0
 10  9  1  0
 10 11  1  0
 11 12  1  0
 13 12  1  1
 13 15  1  0
 13 14  1  0
 14  6  1  0
 15 20  1  0
 16 15  2  0
 18 17  1  0
 19 18  1  1
 19 21  1  0
 20 19  1  0
 21 23  2  0
 21 22  1  0
M  END
$$$$
