DMS.pdb
     RDKit          3D

 23 22  0  0  1  0  0  0  0  0999 V2000
   21.6768  -13.0320  -16.9991 N   0  0  0  0  0  0  0  0  0  0  0  0
   22.0549  -11.8066  -17.6553 C   0  0  1  0  0  0  0  0  0  0  0  0
   20.8658  -11.3411  -18.4672 C   0  0  0  0  0  0  0  0  0  0  0  0
   20.5145  -12.3968  -19.4551 C   0  0  0  0  0  0  0  0  0  0  0  0
   19.3129  -12.6533  -19.6956 O   0  0  0  0  0  0  0  0  0  0  0  0
   22.5321  -10.7823  -16.7092 C   0  0  0  0  0  0  0  0  0  0  0  0
   21.8827  -10.4084  -15.7028 O   0  0  0  0  0  0  0  0  0  0  0  0
   21.4899  -13.1327  -20.1439 O   0  0  0  0  0  0  0  0  0  0  0  0
   27.3755  -12.9145  -15.1133 C   0  0  0  0  0  0  0  0  0  0  0  0
   26.5655  -11.6212  -16.0885 S   0  0  0  0  0  0  0  0  0  0  0  0
   26.3755  -10.0976  -15.1043 C   0  0  0  0  0  0  0  0  0  0  0  0
   25.7880   -9.0446  -16.0280 C   0  0  0  0  0  0  0  0  0  0  0  0
   24.2792   -9.1227  -16.0692 C   0  0  2  0  0  0  0  0  0  0  0  0
   23.7894  -10.1638  -16.9163 N   0  0  0  0  0  0  0  0  0  0  0  0
   23.6692   -7.8021  -16.3621 C   0  0  0  0  0  0  0  0  0  0  0  0
   23.7764   -7.3357  -17.5218 O   0  0  0  0  0  0  0  0  0  0  0  0
   20.4916   -6.4743  -14.3556 O   0  0  0  0  0  0  0  0  0  0  0  0
   20.7399   -5.9905  -15.6422 C   0  0  0  0  0  0  0  0  0  0  0  0
   22.2367   -5.8148  -15.7731 C   0  0  2  0  0  0  0  0  0  0  0  0
   22.9611   -7.0084  -15.4230 N   0  0  0  0  0  0  0  0  0  0  0  0
   22.6910   -4.7136  -14.8966 C   0  0  0  0  0  0  0  0  0  0  0  0
   22.2604   -3.4077  -15.0755 O   0  0  0  0  0  0  0  0  0  0  0  0
   23.4946   -4.9079  -13.9412 O   0  0  0  0  0  0  0  0  0  0  0  0
  2  1  1  1
  3  2  1  0
  4  3  1  0
  5  4  2  0
  6  2  1  0
  7  6  2  0
  8  4  1  0
 10  9  1  0
 10 11  1  0
 11 12  1  0
 13 12  1  6
 13 15  1  0
 13 14  1  0
 14  6  1  0
 15 20  1  0
 16 15  2  0
 18 17  1  0
 19 18  1  1
 19 21  1  0
 20 19  1  0
 21 23  2  0
 21 22  1  0
M  END
$$$$
