DMS.pdb
     RDKit          3D

 23 22  0  0  1  0  0  0  0  0999 V2000
   15.1735  -11.6141  -11.6059 N   0  0  0  0  0  0  0  0  0  0  0  0
   16.1088  -10.5185  -11.6039 C   0  0  1  0  0  0  0  0  0  0  0  0
   16.7113  -10.4337  -12.9895 C   0  0  0  0  0  0  0  0  0  0  0  0
   17.4714  -11.6837  -13.2611 C   0  0  0  0  0  0  0  0  0  0  0  0
   17.4898  -12.6019  -12.4103 O   0  0  0  0  0  0  0  0  0  0  0  0
   15.4932   -9.2501  -11.1743 C   0  0  0  0  0  0  0  0  0  0  0  0
   14.4475   -8.7775  -11.6815 O   0  0  0  0  0  0  0  0  0  0  0  0
   18.1832  -11.8835  -14.4532 O   0  0  0  0  0  0  0  0  0  0  0  0
   13.2762   -4.9387   -5.1836 C   0  0  0  0  0  0  0  0  0  0  0  0
   13.9735   -6.4398   -5.9183 S   0  0  0  0  0  0  0  0  0  0  0  0
   14.4332   -6.1501   -7.6593 C   0  0  0  0  0  0  0  0  0  0  0  0
   15.1065   -7.4178   -8.1560 C   0  0  0  0  0  0  0  0  0  0  0  0
   15.4924   -7.3062   -9.6131 C   0  0  2  0  0  0  0  0  0  0  0  0
   16.0883   -8.4959  -10.1335 N   0  0  0  0  0  0  0  0  0  0  0  0
   16.3018   -6.0904   -9.8748 C   0  0  0  0  0  0  0  0  0  0  0  0
   17.4405   -6.0044   -9.3552 O   0  0  0  0  0  0  0  0  0  0  0  0
   15.3980   -3.6101  -12.8854 O   0  0  0  0  0  0  0  0  0  0  0  0
   16.7169   -3.5019  -12.4385 C   0  0  0  0  0  0  0  0  0  0  0  0
   16.7221   -3.8599  -10.9688 C   0  0  2  0  0  0  0  0  0  0  0  0
   15.8883   -4.9969  -10.6788 N   0  0  0  0  0  0  0  0  0  0  0  0
   16.2449   -2.7098  -10.1707 C   0  0  0  0  0  0  0  0  0  0  0  0
   15.0871   -2.7739   -9.4103 O   0  0  0  0  0  0  0  0  0  0  0  0
   16.8684   -1.6113  -10.1422 O   0  0  0  0  0  0  0  0  0  0  0  0
  2  1  1  6
  3  2  1  0
  4  3  1  0
  5  4  2  0
  6  2  1  0
  7  6  2  0
  8  4  1  0
 10  9  1  0
 10 11  1  0
 11 12  1  0
 13 12  1  1
 13 15  1  0
 13 14  1  0
 14  6  1  0
 15 20  1  0
 16 15  2  0
 18 17  1  0
 19 18  1  6
 19 21  1  0
 20 19  1  0
 21 23  2  0
 21 22  1  0
M  END
$$$$
