ESL.pdb
     RDKit          3D

 24 23  0  0  1  0  0  0  0  0999 V2000
    8.1593  -18.5378   18.7398 N   0  0  0  0  0  0  0  0  0  0  0  0
    8.7662  -17.5083   19.4968 C   0  0  1  0  0  0  0  0  0  0  0  0
    8.6985  -16.1659   18.8407 C   0  0  0  0  0  0  0  0  0  0  0  0
    7.9202  -16.0409   17.5961 C   0  0  0  0  0  0  0  0  0  0  0  0
    8.6084  -16.3271   16.3320 C   0  0  0  0  0  0  0  0  0  0  0  0
    9.8096  -16.6192   16.2126 O   0  0  0  0  0  0  0  0  0  0  0  0
    8.1579  -17.3553   20.8650 C   0  0  0  0  0  0  0  0  0  0  0  0
    6.9043  -17.4008   20.9478 O   0  0  0  0  0  0  0  0  0  0  0  0
    7.8669  -16.2730   15.1334 O   0  0  0  0  0  0  0  0  0  0  0  0
    9.9380  -18.7420   23.9969 O   0  0  0  0  0  0  0  0  0  0  0  0
    8.5993  -18.4336   24.0521 C   0  0  0  0  0  0  0  0  0  0  0  0
    8.3348  -17.1156   23.3788 C   0  0  2  0  0  0  0  0  0  0  0  0
    8.9178  -17.1641   22.0442 N   0  0  0  0  0  0  0  0  0  0  0  0
    8.8841  -15.9711   24.1466 C   0  0  0  0  0  0  0  0  0  0  0  0
   10.1103  -15.6340   23.9999 O   0  0  0  0  0  0  0  0  0  0  0  0
    7.5919  -11.7872   24.8183 C   0  0  0  0  0  0  0  0  0  0  0  0
    6.8330  -12.6992   25.7968 C   0  0  2  0  0  0  0  0  0  0  0  0
    5.7910  -11.8848   26.5050 C   0  0  0  0  0  0  0  0  0  0  0  0
    7.8366  -13.3748   26.6775 C   0  0  0  0  0  0  0  0  0  0  0  0
    8.8065  -14.2969   26.0129 C   0  0  2  0  0  0  0  0  0  0  0  0
    8.1580  -15.1779   25.0661 N   0  0  0  0  0  0  0  0  0  0  0  0
    9.5236  -15.1341   27.0539 C   0  0  0  0  0  0  0  0  0  0  0  0
   10.3827  -14.6433   27.8282 O   0  0  0  0  0  0  0  0  0  0  0  0
    9.2475  -16.4873   27.1833 O   0  0  0  0  0  0  0  0  0  0  0  0
  2  1  1  6
  2  7  1  0
  3  2  1  0
  3  4  1  0
  5  4  1  0
  5  9  1  0
  6  5  2  0
  7  8  2  0
 10 11  1  0
 12 11  1  1
 12 14  1  0
 13  7  1  0
 13 12  1  0
 14 15  2  0
 17 16  1  6
 17 18  1  0
 19 17  1  0
 20 19  1  1
 20 22  1  0
 21 14  1  0
 21 20  1  0
 22 23  2  0
 22 24  1  0
M  END
$$$$
