ESL.pdb
     RDKit          3D

 24 23  0  0  1  0  0  0  0  0999 V2000
    9.5267  -17.5044   19.2321 N   0  0  0  0  0  0  0  0  0  0  0  0
    9.5784  -18.1610   20.4841 C   0  0  1  0  0  0  0  0  0  0  0  0
   10.9656  -18.3088   21.0236 C   0  0  0  0  0  0  0  0  0  0  0  0
   11.9553  -17.2711   20.6855 C   0  0  0  0  0  0  0  0  0  0  0  0
   13.3204  -17.4412   21.1963 C   0  0  0  0  0  0  0  0  0  0  0  0
   14.1517  -18.2638   20.7783 O   0  0  0  0  0  0  0  0  0  0  0  0
    8.7717  -17.4594   21.5435 C   0  0  0  0  0  0  0  0  0  0  0  0
    8.5941  -16.2222   21.4092 O   0  0  0  0  0  0  0  0  0  0  0  0
   13.7530  -16.6129   22.2528 O   0  0  0  0  0  0  0  0  0  0  0  0
    7.3915  -19.3181   25.0870 O   0  0  0  0  0  0  0  0  0  0  0  0
    6.5455  -18.5368   24.3359 C   0  0  0  0  0  0  0  0  0  0  0  0
    7.3180  -17.4666   23.6159 C   0  0  2  0  0  0  0  0  0  0  0  0
    8.2135  -18.1156   22.6670 N   0  0  0  0  0  0  0  0  0  0  0  0
    8.0830  -16.6015   24.5472 C   0  0  0  0  0  0  0  0  0  0  0  0
    9.3568  -16.7078   24.6162 O   0  0  0  0  0  0  0  0  0  0  0  0
    7.5972  -12.0460   25.2648 C   0  0  0  0  0  0  0  0  0  0  0  0
    6.6687  -12.8927   26.1513 C   0  0  2  0  0  0  0  0  0  0  0  0
    5.7428  -11.9751   26.8938 C   0  0  0  0  0  0  0  0  0  0  0  0
    7.5203  -13.7816   27.0022 C   0  0  0  0  0  0  0  0  0  0  0  0
    8.3299  -14.8197   26.2955 C   0  0  2  0  0  0  0  0  0  0  0  0
    7.5229  -15.6263   25.4059 N   0  0  0  0  0  0  0  0  0  0  0  0
    9.0067  -15.7263   27.3050 C   0  0  0  0  0  0  0  0  0  0  0  0
    8.6059  -16.8965   27.5246 O   0  0  0  0  0  0  0  0  0  0  0  0
   10.1051  -15.2825   28.0266 O   0  0  0  0  0  0  0  0  0  0  0  0
  2  1  1  6
  2  7  1  0
  3  2  1  0
  3  4  1  0
  5  4  1  0
  5  9  1  0
  6  5  2  0
  7  8  2  0
 10 11  1  0
 12 11  1  1
 12 14  1  0
 13  7  1  0
 13 12  1  0
 14 15  2  0
 17 16  1  1
 17 18  1  0
 19 17  1  0
 20 19  1  1
 20 22  1  0
 21 14  1  0
 21 20  1  0
 22 23  2  0
 22 24  1  0
M  END
$$$$
