ESL.pdb
     RDKit          3D

 24 23  0  0  1  0  0  0  0  0999 V2000
    8.0492  -16.0797   18.5036 N   0  0  0  0  0  0  0  0  0  0  0  0
    8.3665  -15.0692   19.4415 C   0  0  1  0  0  0  0  0  0  0  0  0
    7.6430  -13.7826   19.2002 C   0  0  0  0  0  0  0  0  0  0  0  0
    8.0889  -12.9359   18.0800 C   0  0  0  0  0  0  0  0  0  0  0  0
    8.1058  -13.5341   16.7402 C   0  0  0  0  0  0  0  0  0  0  0  0
    7.4031  -14.4868   16.3646 O   0  0  0  0  0  0  0  0  0  0  0  0
    8.0691  -15.4766   20.8596 C   0  0  0  0  0  0  0  0  0  0  0  0
    6.8662  -15.4609   21.2246 O   0  0  0  0  0  0  0  0  0  0  0  0
    8.9862  -13.0018   15.7753 O   0  0  0  0  0  0  0  0  0  0  0  0
    9.3393  -18.3650   24.3873 O   0  0  0  0  0  0  0  0  0  0  0  0
    9.4718  -17.8069   23.1378 C   0  0  0  0  0  0  0  0  0  0  0  0
    8.7660  -16.4808   23.0763 C   0  0  2  0  0  0  0  0  0  0  0  0
    9.0636  -15.8690   21.7877 N   0  0  0  0  0  0  0  0  0  0  0  0
    9.1636  -15.5797   24.1859 C   0  0  0  0  0  0  0  0  0  0  0  0
   10.2299  -14.8784   24.0874 O   0  0  0  0  0  0  0  0  0  0  0  0
    7.9571  -11.7693   26.0499 C   0  0  0  0  0  0  0  0  0  0  0  0
    7.0401  -12.9289   26.4737 C   0  0  2  0  0  0  0  0  0  0  0  0
    5.8579  -12.3656   27.2056 C   0  0  0  0  0  0  0  0  0  0  0  0
    7.8633  -13.9187   27.2367 C   0  0  0  0  0  0  0  0  0  0  0  0
    8.9590  -14.6057   26.4883 C   0  0  2  0  0  0  0  0  0  0  0  0
    8.4518  -15.4082   25.3967 N   0  0  0  0  0  0  0  0  0  0  0  0
    9.7507  -15.4949   27.4274 C   0  0  0  0  0  0  0  0  0  0  0  0
   10.3477  -15.0377   28.4337 O   0  0  0  0  0  0  0  0  0  0  0  0
    9.8398  -16.8600   27.1985 O   0  0  0  0  0  0  0  0  0  0  0  0
  2  1  1  6
  2  7  1  0
  3  2  1  0
  3  4  1  0
  5  4  1  0
  5  9  1  0
  6  5  2  0
  7  8  2  0
 10 11  1  0
 12 11  1  1
 12 14  1  0
 13  7  1  0
 13 12  1  0
 14 15  2  0
 17 16  1  1
 17 18  1  0
 19 17  1  0
 20 19  1  1
 20 22  1  0
 21 14  1  0
 21 20  1  0
 22 23  2  0
 22 24  1  0
M  END
$$$$
