ESL.pdb
     RDKit          3D

 24 23  0  0  1  0  0  0  0  0999 V2000
    8.9329  -17.8552   19.2850 N   0  0  0  0  0  0  0  0  0  0  0  0
    9.2164  -18.3617   20.5751 C   0  0  1  0  0  0  0  0  0  0  0  0
   10.6731  -18.3493   20.9144 C   0  0  0  0  0  0  0  0  0  0  0  0
   11.3907  -17.0646   20.8429 C   0  0  0  0  0  0  0  0  0  0  0  0
   12.8479  -17.0892   21.0140 C   0  0  0  0  0  0  0  0  0  0  0  0
   13.4520  -16.9583   22.0912 O   0  0  0  0  0  0  0  0  0  0  0  0
    8.5088  -17.6045   21.6666 C   0  0  0  0  0  0  0  0  0  0  0  0
    8.1297  -16.4347   21.4054 O   0  0  0  0  0  0  0  0  0  0  0  0
   13.6575  -17.2760   19.8741 O   0  0  0  0  0  0  0  0  0  0  0  0
    7.7041  -19.2824   25.4517 O   0  0  0  0  0  0  0  0  0  0  0  0
    6.7572  -18.5465   24.7794 C   0  0  0  0  0  0  0  0  0  0  0  0
    7.4131  -17.4814   23.9453 C   0  0  2  0  0  0  0  0  0  0  0  0
    8.2548  -18.1378   22.9533 N   0  0  0  0  0  0  0  0  0  0  0  0
    8.2121  -16.5373   24.7647 C   0  0  0  0  0  0  0  0  0  0  0  0
    9.4901  -16.6096   24.7571 O   0  0  0  0  0  0  0  0  0  0  0  0
    8.1113  -11.9391   25.0012 C   0  0  0  0  0  0  0  0  0  0  0  0
    7.0591  -12.6341   25.8815 C   0  0  2  0  0  0  0  0  0  0  0  0
    6.1269  -11.5944   26.4298 C   0  0  0  0  0  0  0  0  0  0  0  0
    7.7775  -13.4623   26.9000 C   0  0  0  0  0  0  0  0  0  0  0  0
    8.5196  -14.6577   26.3971 C   0  0  2  0  0  0  0  0  0  0  0  0
    7.6816  -15.5187   25.5911 N   0  0  0  0  0  0  0  0  0  0  0  0
    9.0691  -15.4560   27.5632 C   0  0  0  0  0  0  0  0  0  0  0  0
    9.9377  -14.9884   28.3411 O   0  0  0  0  0  0  0  0  0  0  0  0
    8.6216  -16.7459   27.8083 O   0  0  0  0  0  0  0  0  0  0  0  0
  2  1  1  6
  2  7  1  0
  3  2  1  0
  3  4  1  0
  5  4  1  0
  5  9  1  0
  6  5  2  0
  7  8  2  0
 10 11  1  0
 12 11  1  1
 12 14  1  0
 13  7  1  0
 13 12  1  0
 14 15  2  0
 17 16  1  1
 17 18  1  0
 19 17  1  0
 20 19  1  1
 20 22  1  0
 21 14  1  0
 21 20  1  0
 22 23  2  0
 22 24  1  0
M  END
$$$$
