ESL.pdb
     RDKit          3D

 24 23  0  0  1  0  0  0  0  0999 V2000
    9.3167  -18.8008   19.2910 N   0  0  0  0  0  0  0  0  0  0  0  0
    9.8424  -18.6295   20.5931 C   0  0  1  0  0  0  0  0  0  0  0  0
   11.2555  -18.1394   20.6065 C   0  0  0  0  0  0  0  0  0  0  0  0
   12.3330  -19.1245   20.4083 C   0  0  0  0  0  0  0  0  0  0  0  0
   13.7066  -18.6185   20.3065 C   0  0  0  0  0  0  0  0  0  0  0  0
   14.5713  -18.6897   21.1951 O   0  0  0  0  0  0  0  0  0  0  0  0
    9.0392  -17.6647   21.4233 C   0  0  0  0  0  0  0  0  0  0  0  0
    8.6979  -16.5825   20.8822 O   0  0  0  0  0  0  0  0  0  0  0  0
   14.1074  -17.9923   19.1078 O   0  0  0  0  0  0  0  0  0  0  0  0
    7.1761  -18.7242   24.9462 O   0  0  0  0  0  0  0  0  0  0  0  0
    6.7668  -17.6365   24.2115 C   0  0  0  0  0  0  0  0  0  0  0  0
    7.9493  -16.9451   23.5918 C   0  0  2  0  0  0  0  0  0  0  0  0
    8.6568  -17.9131   22.7637 N   0  0  0  0  0  0  0  0  0  0  0  0
    8.8596  -16.3656   24.6100 C   0  0  0  0  0  0  0  0  0  0  0  0
    9.6087  -17.1344   25.3076 O   0  0  0  0  0  0  0  0  0  0  0  0
    8.2950  -11.7519   25.5392 C   0  0  0  0  0  0  0  0  0  0  0  0
    7.0815  -12.6956   25.5805 C   0  0  2  0  0  0  0  0  0  0  0  0
    5.8806  -11.9169   26.0301 C   0  0  0  0  0  0  0  0  0  0  0  0
    7.4399  -13.8786   26.4239 C   0  0  0  0  0  0  0  0  0  0  0  0
    8.8053  -14.4548   26.2341 C   0  0  2  0  0  0  0  0  0  0  0  0
    8.9906  -14.9874   24.9018 N   0  0  0  0  0  0  0  0  0  0  0  0
    9.0478  -15.5592   27.2445 C   0  0  0  0  0  0  0  0  0  0  0  0
    9.8376  -15.4172   28.2110 O   0  0  0  0  0  0  0  0  0  0  0  0
    8.3942  -16.7772   27.1286 O   0  0  0  0  0  0  0  0  0  0  0  0
  2  1  1  6
  2  7  1  0
  3  2  1  0
  3  4  1  0
  5  4  1  0
  5  9  1  0
  6  5  2  0
  7  8  2  0
 10 11  1  0
 12 11  1  1
 12 14  1  0
 13  7  1  0
 13 12  1  0
 14 15  2  0
 17 16  1  1
 17 18  1  0
 19 17  1  0
 20 19  1  6
 20 22  1  0
 21 14  1  0
 21 20  1  0
 22 23  2  0
 22 24  1  0
M  END
$$$$
