ESL.pdb
     RDKit          3D

 24 23  0  0  1  0  0  0  0  0999 V2000
    8.5988  -13.3489   18.5877 N   0  0  0  0  0  0  0  0  0  0  0  0
    8.7540  -14.6761   19.0523 C   0  0  1  0  0  0  0  0  0  0  0  0
   10.1804  -15.1204   19.1236 C   0  0  0  0  0  0  0  0  0  0  0  0
   11.1935  -14.1353   19.5402 C   0  0  0  0  0  0  0  0  0  0  0  0
   12.6020  -14.5434   19.4845 C   0  0  0  0  0  0  0  0  0  0  0  0
   13.2959  -14.6089   18.4566 O   0  0  0  0  0  0  0  0  0  0  0  0
    8.1635  -14.8870   20.4206 C   0  0  0  0  0  0  0  0  0  0  0  0
    7.8900  -13.8623   21.0956 O   0  0  0  0  0  0  0  0  0  0  0  0
   13.2494  -14.8973   20.6867 O   0  0  0  0  0  0  0  0  0  0  0  0
    6.1479  -18.0883   23.4817 O   0  0  0  0  0  0  0  0  0  0  0  0
    6.9209  -17.8448   22.3711 C   0  0  0  0  0  0  0  0  0  0  0  0
    7.1654  -16.3698   22.2131 C   0  0  2  0  0  0  0  0  0  0  0  0
    7.9066  -16.1639   20.9755 N   0  0  0  0  0  0  0  0  0  0  0  0
    7.9031  -15.7951   23.3648 C   0  0  0  0  0  0  0  0  0  0  0  0
    9.1783  -15.6926   23.3188 O   0  0  0  0  0  0  0  0  0  0  0  0
    5.9422  -12.1717   27.4246 C   0  0  0  0  0  0  0  0  0  0  0  0
    7.1678  -12.6237   26.6128 C   0  0  2  0  0  0  0  0  0  0  0  0
    7.0747  -12.0395   25.2342 C   0  0  0  0  0  0  0  0  0  0  0  0
    7.2463  -14.1166   26.6802 C   0  0  0  0  0  0  0  0  0  0  0  0
    8.0979  -14.7951   25.6570 C   0  0  2  0  0  0  0  0  0  0  0  0
    7.3144  -15.3270   24.5633 N   0  0  0  0  0  0  0  0  0  0  0  0
    8.8793  -15.9251   26.2987 C   0  0  0  0  0  0  0  0  0  0  0  0
    9.7147  -15.7221   27.2147 O   0  0  0  0  0  0  0  0  0  0  0  0
    8.6911  -17.2360   25.8862 O   0  0  0  0  0  0  0  0  0  0  0  0
  2  1  1  1
  2  7  1  0
  3  2  1  0
  3  4  1  0
  5  4  1  0
  5  9  1  0
  6  5  2  0
  7  8  2  0
 10 11  1  0
 12 11  1  1
 12 14  1  0
 13  7  1  0
 13 12  1  0
 14 15  2  0
 17 16  1  1
 17 18  1  0
 19 17  1  0
 20 19  1  1
 20 22  1  0
 21 14  1  0
 21 20  1  0
 22 23  2  0
 22 24  1  0
M  END
$$$$
