ESL.pdb
     RDKit          3D

 24 23  0  0  1  0  0  0  0  0999 V2000
   10.6701  -18.8020   18.8480 N   0  0  0  0  0  0  0  0  0  0  0  0
   10.1816  -17.5125   19.1639 C   0  0  1  0  0  0  0  0  0  0  0  0
    9.3075  -16.9283   18.1000 C   0  0  0  0  0  0  0  0  0  0  0  0
    9.1609  -17.6726   16.8370 C   0  0  0  0  0  0  0  0  0  0  0  0
    8.3400  -17.0669   15.7822 C   0  0  0  0  0  0  0  0  0  0  0  0
    8.6384  -16.0571   15.1237 O   0  0  0  0  0  0  0  0  0  0  0  0
    9.3875  -17.4874   20.4422 C   0  0  0  0  0  0  0  0  0  0  0  0
    8.1343  -17.5051   20.3438 O   0  0  0  0  0  0  0  0  0  0  0  0
    7.1002  -17.6615   15.4677 O   0  0  0  0  0  0  0  0  0  0  0  0
    9.4494  -19.8455   23.2658 O   0  0  0  0  0  0  0  0  0  0  0  0
    9.7728  -18.6234   23.8064 C   0  0  0  0  0  0  0  0  0  0  0  0
    9.2084  -17.5109   22.9671 C   0  0  2  0  0  0  0  0  0  0  0  0
    9.9749  -17.4441   21.7296 N   0  0  0  0  0  0  0  0  0  0  0  0
    9.2381  -16.2049   23.6703 C   0  0  0  0  0  0  0  0  0  0  0  0
   10.2675  -15.4503   23.5717 O   0  0  0  0  0  0  0  0  0  0  0  0
    5.6427  -12.2291   26.7689 C   0  0  0  0  0  0  0  0  0  0  0  0
    7.0917  -12.5846   26.3958 C   0  0  2  0  0  0  0  0  0  0  0  0
    7.7540  -11.3670   25.8220 C   0  0  0  0  0  0  0  0  0  0  0  0
    7.0618  -13.7866   25.5050 C   0  0  0  0  0  0  0  0  0  0  0  0
    8.3594  -14.4919   25.2783 C   0  0  2  0  0  0  0  0  0  0  0  0
    8.1973  -15.6842   24.4751 N   0  0  0  0  0  0  0  0  0  0  0  0
    8.9816  -14.8738   26.6072 C   0  0  0  0  0  0  0  0  0  0  0  0
    9.4008  -14.0120   27.4195 O   0  0  0  0  0  0  0  0  0  0  0  0
    9.1080  -16.2067   26.9699 O   0  0  0  0  0  0  0  0  0  0  0  0
  2  1  1  6
  2  7  1  0
  3  2  1  0
  3  4  1  0
  5  4  1  0
  5  9  1  0
  6  5  2  0
  7  8  2  0
 10 11  1  0
 12 11  1  1
 12 14  1  0
 13  7  1  0
 13 12  1  0
 14 15  2  0
 17 16  1  6
 17 18  1  0
 19 17  1  0
 20 19  1  1
 20 22  1  0
 21 14  1  0
 21 20  1  0
 22 23  2  0
 22 24  1  0
M  END
$$$$
