MVY.pdb
     RDKit          3D

 28 28  0  0  1  0  0  0  0  0999 V2000
    6.3141  -10.5215   26.1909 C   0  0  0  0  0  0  0  0  0  0  0  0
    6.0335  -11.8632   27.3614 S   0  0  0  0  0  0  0  0  0  0  0  0
    5.6451  -13.4165   26.5548 C   0  0  0  0  0  0  0  0  0  0  0  0
    6.8106  -13.9492   25.7447 C   0  0  0  0  0  0  0  0  0  0  0  0
    6.4086  -15.0981   24.8659 C   0  0  2  0  0  0  0  0  0  0  0  0
    6.1248  -16.2185   25.7346 N   0  0  0  0  0  0  0  0  0  0  0  0
    7.4949  -15.4358   23.8910 C   0  0  0  0  0  0  0  0  0  0  0  0
    8.2753  -16.3948   24.0922 O   0  0  0  0  0  0  0  0  0  0  0  0
    6.7919  -14.3408   20.1515 C   0  0  0  0  0  0  0  0  0  0  0  0
    8.2428  -14.2087   20.4736 C   0  0  2  0  0  0  0  0  0  0  0  0
    9.1236  -14.5264   19.2813 C   0  0  0  0  0  0  0  0  0  0  0  0
    8.6495  -14.8926   21.7112 C   0  0  2  0  0  0  0  0  0  0  0  0
    7.6419  -14.6618   22.7272 N   0  0  0  0  0  0  0  0  0  0  0  0
   10.0222  -14.8287   22.1705 C   0  0  0  0  0  0  0  0  0  0  0  0
   10.6687  -13.7304   22.0417 O   0  0  0  0  0  0  0  0  0  0  0  0
   11.3278  -15.9231   30.5598 O   0  0  0  0  0  0  0  0  0  0  0  0
   10.9920  -15.9260   29.2222 C   0  0  0  0  0  0  0  0  0  0  0  0
   10.8349  -14.7182   28.5777 C   0  0  0  0  0  0  0  0  0  0  0  0
   10.4995  -14.6834   27.2408 C   0  0  0  0  0  0  0  0  0  0  0  0
   10.3033  -15.8346   26.4764 C   0  0  0  0  0  0  0  0  0  0  0  0
    9.9190  -15.7712   25.0538 C   0  0  0  0  0  0  0  0  0  0  0  0
   11.1151  -15.8840   24.1804 C   0  0  2  0  0  0  0  0  0  0  0  0
   10.7303  -15.8701   22.7562 N   0  0  0  0  0  0  0  0  0  0  0  0
   11.8181  -17.1503   24.4183 C   0  0  0  0  0  0  0  0  0  0  0  0
   12.7613  -17.2297   25.2301 O   0  0  0  0  0  0  0  0  0  0  0  0
   10.4709  -17.0373   27.1642 C   0  0  0  0  0  0  0  0  0  0  0  0
   10.8057  -17.0814   28.4984 C   0  0  0  0  0  0  0  0  0  0  0  0
   11.4537  -18.3017   23.7448 O   0  0  0  0  0  0  0  0  0  0  0  0
  1  2  1  0
  3  2  1  0
  4  3  1  0
  5  4  1  0
  5  6  1  1
  7  5  1  0
  8  7  2  0
 10  9  1  6
 10 12  1  0
 11 10  1  0
 12 14  1  0
 12 13  1  1
 13  7  1  0
 14 23  1  0
 15 14  2  0
 17 16  1  0
 17 18  2  0
 19 18  1  0
 20 19  2  0
 21 20  1  0
 22 24  1  0
 22 21  1  1
 23 22  1  0
 24 25  2  0
 24 28  1  0
 26 27  2  0
 26 20  1  0
 27 17  1  0
M  END
$$$$
