MVY.pdb
     RDKit          3D

 28 28  0  0  1  0  0  0  0  0999 V2000
    6.9124  -11.6023   19.5147 C   0  0  0  0  0  0  0  0  0  0  0  0
    7.3290  -12.8261   18.2586 S   0  0  0  0  0  0  0  0  0  0  0  0
    8.3750  -14.1383   18.8898 C   0  0  0  0  0  0  0  0  0  0  0  0
    8.5388  -14.0671   20.3953 C   0  0  0  0  0  0  0  0  0  0  0  0
    9.5626  -15.0432   20.8983 C   0  0  2  0  0  0  0  0  0  0  0  0
    9.7862  -16.0060   19.8429 N   0  0  0  0  0  0  0  0  0  0  0  0
    9.0932  -15.7182   22.1507 C   0  0  0  0  0  0  0  0  0  0  0  0
    8.5638  -15.0682   23.0814 O   0  0  0  0  0  0  0  0  0  0  0  0
   10.1964  -19.8876   22.8612 C   0  0  0  0  0  0  0  0  0  0  0  0
    8.8521  -19.2956   23.1234 C   0  0  2  0  0  0  0  0  0  0  0  0
    7.8525  -19.6459   22.0387 C   0  0  0  0  0  0  0  0  0  0  0  0
    8.8806  -17.8647   23.4648 C   0  0  2  0  0  0  0  0  0  0  0  0
    9.2496  -17.1084   22.2847 N   0  0  0  0  0  0  0  0  0  0  0  0
    9.4810  -17.4156   24.7046 C   0  0  0  0  0  0  0  0  0  0  0  0
   10.7032  -17.0320   24.6984 O   0  0  0  0  0  0  0  0  0  0  0  0
    6.8329  -11.5148   25.1042 O   0  0  0  0  0  0  0  0  0  0  0  0
    7.2188  -12.6382   25.8051 C   0  0  0  0  0  0  0  0  0  0  0  0
    8.4729  -12.6626   26.3757 C   0  0  0  0  0  0  0  0  0  0  0  0
    8.8919  -13.7691   27.0835 C   0  0  0  0  0  0  0  0  0  0  0  0
    8.0970  -14.9023   27.2627 C   0  0  0  0  0  0  0  0  0  0  0  0
    8.5779  -16.0846   28.0019 C   0  0  0  0  0  0  0  0  0  0  0  0
    9.5112  -16.8832   27.1669 C   0  0  2  0  0  0  0  0  0  0  0  0
    8.8455  -17.3556   25.9380 N   0  0  0  0  0  0  0  0  0  0  0  0
    9.9672  -18.0769   27.8890 C   0  0  0  0  0  0  0  0  0  0  0  0
    9.6236  -19.2227   27.5371 O   0  0  0  0  0  0  0  0  0  0  0  0
    6.8349  -14.8396   26.6701 C   0  0  0  0  0  0  0  0  0  0  0  0
    6.4085  -13.7392   25.9621 C   0  0  0  0  0  0  0  0  0  0  0  0
   10.7975  -17.9667   28.9893 O   0  0  0  0  0  0  0  0  0  0  0  0
  1  2  1  0
  3  2  1  0
  4  3  1  0
  5  4  1  0
  5  6  1  6
  7  5  1  0
  8  7  2  0
 10  9  1  6
 10 12  1  0
 11 10  1  0
 12 14  1  0
 12 13  1  6
 13  7  1  0
 14 23  1  0
 15 14  2  0
 17 16  1  0
 17 18  2  0
 19 18  1  0
 20 19  2  0
 21 20  1  0
 22 24  1  0
 22 21  1  1
 23 22  1  0
 24 25  2  0
 24 28  1  0
 26 27  2  0
 26 20  1  0
 27 17  1  0
M  END
$$$$
