MVY.pdb
     RDKit          3D

 28 28  0  0  1  0  0  0  0  0999 V2000
    7.1422  -11.5431   26.4273 C   0  0  0  0  0  0  0  0  0  0  0  0
    5.9004  -12.5136   27.3019 S   0  0  0  0  0  0  0  0  0  0  0  0
    5.4860  -14.0366   26.4514 C   0  0  0  0  0  0  0  0  0  0  0  0
    6.6207  -14.5317   25.5764 C   0  0  0  0  0  0  0  0  0  0  0  0
    6.2038  -15.6855   24.7110 C   0  0  2  0  0  0  0  0  0  0  0  0
    5.8894  -16.7868   25.5937 N   0  0  0  0  0  0  0  0  0  0  0  0
    7.2919  -16.0597   23.7517 C   0  0  0  0  0  0  0  0  0  0  0  0
    8.1323  -16.9449   24.0334 O   0  0  0  0  0  0  0  0  0  0  0  0
    9.1173  -15.1696   19.2364 C   0  0  0  0  0  0  0  0  0  0  0  0
    8.1644  -14.8523   20.3400 C   0  0  2  0  0  0  0  0  0  0  0  0
    7.8425  -13.3724   20.4085 C   0  0  0  0  0  0  0  0  0  0  0  0
    8.5289  -15.4414   21.6381 C   0  0  2  0  0  0  0  0  0  0  0  0
    7.3722  -15.4049   22.5107 N   0  0  0  0  0  0  0  0  0  0  0  0
    9.7927  -15.1138   22.2662 C   0  0  0  0  0  0  0  0  0  0  0  0
   10.1332  -13.8832   22.3697 O   0  0  0  0  0  0  0  0  0  0  0  0
   11.5934  -14.8874   30.4504 O   0  0  0  0  0  0  0  0  0  0  0  0
   11.2147  -15.2172   29.1660 C   0  0  0  0  0  0  0  0  0  0  0  0
   11.0480  -14.2052   28.2457 C   0  0  0  0  0  0  0  0  0  0  0  0
   10.6702  -14.4983   26.9526 C   0  0  0  0  0  0  0  0  0  0  0  0
   10.4390  -15.7999   26.5050 C   0  0  0  0  0  0  0  0  0  0  0  0
   10.0097  -16.0859   25.1232 C   0  0  0  0  0  0  0  0  0  0  0  0
   11.1599  -16.0018   24.1871 C   0  0  2  0  0  0  0  0  0  0  0  0
   10.7009  -16.0274   22.7853 N   0  0  0  0  0  0  0  0  0  0  0  0
   12.0597  -17.1483   24.3607 C   0  0  0  0  0  0  0  0  0  0  0  0
   11.7845  -18.2700   23.8908 O   0  0  0  0  0  0  0  0  0  0  0  0
   10.6177  -16.7965   27.4656 C   0  0  0  0  0  0  0  0  0  0  0  0
   10.9948  -16.5130   28.7584 C   0  0  0  0  0  0  0  0  0  0  0  0
   13.2482  -17.0188   25.0556 O   0  0  0  0  0  0  0  0  0  0  0  0
  1  2  1  0
  3  2  1  0
  4  3  1  0
  5  4  1  0
  5  6  1  1
  7  5  1  0
  8  7  2  0
 10  9  1  6
 10 12  1  0
 11 10  1  0
 12 14  1  0
 12 13  1  1
 13  7  1  0
 14 23  1  0
 15 14  2  0
 17 16  1  0
 17 18  2  0
 19 18  1  0
 20 19  2  0
 21 20  1  0
 22 24  1  0
 22 21  1  1
 23 22  1  0
 24 25  2  0
 24 28  1  0
 26 27  2  0
 26 20  1  0
 27 17  1  0
M  END
$$$$
