MVY.pdb
     RDKit          3D

 28 28  0  0  1  0  0  0  0  0999 V2000
    5.4495  -11.5320   25.5485 C   0  0  0  0  0  0  0  0  0  0  0  0
    5.1808  -13.2455   26.0392 S   0  0  0  0  0  0  0  0  0  0  0  0
    6.6830  -14.2231   25.9930 C   0  0  0  0  0  0  0  0  0  0  0  0
    6.3986  -15.7122   26.0017 C   0  0  0  0  0  0  0  0  0  0  0  0
    6.0533  -16.2287   24.6350 C   0  0  2  0  0  0  0  0  0  0  0  0
    5.5946  -17.5902   24.7987 N   0  0  0  0  0  0  0  0  0  0  0  0
    7.2387  -16.1674   23.7209 C   0  0  0  0  0  0  0  0  0  0  0  0
    8.2087  -16.9477   23.8595 O   0  0  0  0  0  0  0  0  0  0  0  0
    8.6260  -14.5134   19.3025 C   0  0  0  0  0  0  0  0  0  0  0  0
    7.8090  -14.3546   20.5409 C   0  0  2  0  0  0  0  0  0  0  0  0
    7.5053  -12.9001   20.8421 C   0  0  0  0  0  0  0  0  0  0  0  0
    8.3179  -15.1070   21.6984 C   0  0  2  0  0  0  0  0  0  0  0  0
    7.2636  -15.2157   22.6871 N   0  0  0  0  0  0  0  0  0  0  0  0
    9.6405  -14.8399   22.2262 C   0  0  0  0  0  0  0  0  0  0  0  0
   10.0438  -13.6265   22.3038 O   0  0  0  0  0  0  0  0  0  0  0  0
   11.5076  -15.1602   30.3826 O   0  0  0  0  0  0  0  0  0  0  0  0
   11.1094  -15.4040   29.0849 C   0  0  0  0  0  0  0  0  0  0  0  0
   11.0896  -14.3549   28.1917 C   0  0  0  0  0  0  0  0  0  0  0  0
   10.6971  -14.5622   26.8863 C   0  0  0  0  0  0  0  0  0  0  0  0
   10.3061  -15.8105   26.3995 C   0  0  0  0  0  0  0  0  0  0  0  0
    9.8650  -16.0016   25.0051 C   0  0  0  0  0  0  0  0  0  0  0  0
   11.0112  -15.8759   24.0689 C   0  0  2  0  0  0  0  0  0  0  0  0
   10.5438  -15.7961   22.6718 N   0  0  0  0  0  0  0  0  0  0  0  0
   11.8888  -17.0490   24.1571 C   0  0  0  0  0  0  0  0  0  0  0  0
   13.0959  -16.9396   24.4503 O   0  0  0  0  0  0  0  0  0  0  0  0
   10.3392  -16.8468   27.3336 C   0  0  0  0  0  0  0  0  0  0  0  0
   10.7297  -16.6490   28.6384 C   0  0  0  0  0  0  0  0  0  0  0  0
   11.4007  -18.3201   23.9159 O   0  0  0  0  0  0  0  0  0  0  0  0
  1  2  1  0
  3  2  1  0
  4  3  1  0
  5  4  1  0
  5  6  1  1
  7  5  1  0
  8  7  2  0
 10  9  1  6
 10 12  1  0
 11 10  1  0
 12 14  1  0
 12 13  1  1
 13  7  1  0
 14 23  1  0
 15 14  2  0
 17 16  1  0
 17 18  2  0
 19 18  1  0
 20 19  2  0
 21 20  1  0
 22 24  1  0
 22 21  1  1
 23 22  1  0
 24 25  2  0
 24 28  1  0
 26 27  2  0
 26 20  1  0
 27 17  1  0
M  END
$$$$
