MVY.pdb
     RDKit          3D

 28 28  0  0  1  0  0  0  0  0999 V2000
    8.7819  -11.5823   19.7856 C   0  0  0  0  0  0  0  0  0  0  0  0
    7.3469  -12.4383   19.1096 S   0  0  0  0  0  0  0  0  0  0  0  0
    7.6194  -14.1996   18.9141 C   0  0  0  0  0  0  0  0  0  0  0  0
    8.0416  -14.8619   20.2108 C   0  0  0  0  0  0  0  0  0  0  0  0
    8.3049  -16.3295   20.0351 C   0  0  2  0  0  0  0  0  0  0  0  0
    7.0693  -16.9322   19.5871 N   0  0  0  0  0  0  0  0  0  0  0  0
    8.7716  -16.9498   21.3165 C   0  0  0  0  0  0  0  0  0  0  0  0
    7.9576  -17.3778   22.1669 O   0  0  0  0  0  0  0  0  0  0  0  0
   12.2804  -18.8841   21.3901 C   0  0  0  0  0  0  0  0  0  0  0  0
   12.1125  -17.9639   22.5527 C   0  0  2  0  0  0  0  0  0  0  0  0
   12.8352  -18.4660   23.7872 C   0  0  0  0  0  0  0  0  0  0  0  0
   10.7206  -17.5583   22.8033 C   0  0  2  0  0  0  0  0  0  0  0  0
   10.1500  -17.0540   21.5701 N   0  0  0  0  0  0  0  0  0  0  0  0
   10.3741  -16.8159   23.9984 C   0  0  0  0  0  0  0  0  0  0  0  0
   10.6896  -15.5766   24.0718 O   0  0  0  0  0  0  0  0  0  0  0  0
    6.1755  -11.0296   26.0681 O   0  0  0  0  0  0  0  0  0  0  0  0
    6.5515  -12.3539   26.1518 C   0  0  0  0  0  0  0  0  0  0  0  0
    7.8043  -12.6555   26.6399 C   0  0  0  0  0  0  0  0  0  0  0  0
    8.2135  -13.9685   26.7377 C   0  0  0  0  0  0  0  0  0  0  0  0
    7.4095  -15.0450   26.3599 C   0  0  0  0  0  0  0  0  0  0  0  0
    7.8799  -16.4401   26.4494 C   0  0  0  0  0  0  0  0  0  0  0  0
    9.3541  -16.5099   26.2817 C   0  0  2  0  0  0  0  0  0  0  0  0
    9.7123  -17.3275   25.1071 N   0  0  0  0  0  0  0  0  0  0  0  0
    9.9832  -17.1420   27.4474 C   0  0  0  0  0  0  0  0  0  0  0  0
    9.9825  -16.5923   28.5666 O   0  0  0  0  0  0  0  0  0  0  0  0
    6.1490  -14.6992   25.8707 C   0  0  0  0  0  0  0  0  0  0  0  0
    5.7324  -13.3915   25.7698 C   0  0  0  0  0  0  0  0  0  0  0  0
   10.6002  -18.3748   27.3394 O   0  0  0  0  0  0  0  0  0  0  0  0
  1  2  1  0
  3  2  1  0
  4  3  1  0
  5  4  1  0
  5  6  1  1
  7  5  1  0
  8  7  2  0
 10  9  1  6
 10 12  1  0
 11 10  1  0
 12 14  1  0
 12 13  1  6
 13  7  1  0
 14 23  1  0
 15 14  2  0
 17 16  1  0
 17 18  2  0
 19 18  1  0
 20 19  2  0
 21 20  1  0
 22 24  1  0
 22 21  1  1
 23 22  1  0
 24 25  2  0
 24 28  1  0
 26 27  2  0
 26 20  1  0
 27 17  1  0
M  END
$$$$
