KDC.pdb
     RDKit          3D

 24 23  0  0  1  0  0  0  0  0999 V2000
    5.5574  -20.4850   18.0856 N   0  0  0  0  0  0  0  0  0  0  0  0
    5.7100  -19.3567   18.9445 C   0  0  1  0  0  0  0  0  0  0  0  0
    4.6399  -19.1592   19.9631 C   0  0  0  0  0  0  0  0  0  0  0  0
    3.3984  -19.9166   19.6569 C   0  0  0  0  0  0  0  0  0  0  0  0
    2.1574  -19.1199   19.4754 C   0  0  0  0  0  0  0  0  0  0  0  0
    0.9463  -19.9529   19.1440 C   0  0  0  0  0  0  0  0  0  0  0  0
    0.9732  -20.2257   17.7187 N   0  0  0  0  0  0  0  0  0  0  0  0
    7.0618  -19.3510   19.5962 C   0  0  0  0  0  0  0  0  0  0  0  0
    7.3524  -20.2975   20.3765 O   0  0  0  0  0  0  0  0  0  0  0  0
    8.0163  -18.3368   19.3739 N   0  0  0  0  0  0  0  0  0  0  0  0
    9.3451  -18.3596   20.0493 C   0  0  1  0  0  0  0  0  0  0  0  0
   10.3019  -17.5071   19.2850 C   0  0  0  0  0  0  0  0  0  0  0  0
   11.7071  -17.8516   19.5747 C   0  0  0  0  0  0  0  0  0  0  0  0
   12.0379  -18.2491   20.7488 O   0  0  0  0  0  0  0  0  0  0  0  0
    9.0902  -17.9142   21.4366 C   0  0  0  0  0  0  0  0  0  0  0  0
    8.2451  -16.9817   21.6795 O   0  0  0  0  0  0  0  0  0  0  0  0
   12.7052  -17.7682   18.6308 O   0  0  0  0  0  0  0  0  0  0  0  0
    9.7131  -18.4368   22.5933 N   0  0  0  0  0  0  0  0  0  0  0  0
    9.3707  -18.0036   23.9248 C   0  0  1  0  0  0  0  0  0  0  0  0
    7.9284  -18.2340   24.2726 C   0  0  0  0  0  0  0  0  0  0  0  0
    7.5904  -17.8566   26.0026 S   0  0  0  0  0  0  0  0  0  0  0  0
   10.1951  -18.7321   24.9123 C   0  0  0  0  0  0  0  0  0  0  0  0
   10.1287  -18.4057   26.2505 O   0  0  0  0  0  0  0  0  0  0  0  0
   10.9722  -19.6646   24.5434 O   0  0  0  0  0  0  0  0  0  0  0  0
  2  1  1  1
  3  2  1  0
  4  3  1  0
  5  6  1  0
  5  4  1  0
  6  7  1  0
  8  2  1  0
  8  9  2  0
 10  8  1  0
 11 10  1  0
 11 12  1  6
 13 12  1  0
 13 17  1  0
 14 13  2  0
 15 11  1  0
 16 15  2  0
 18 15  1  0
 19 18  1  0
 19 20  1  1
 20 21  1  0
 22 23  1  0
 22 19  1  0
 24 22  2  0
M  END
$$$$
