KDC.pdb
     RDKit          3D

 24 23  0  0  1  0  0  0  0  0999 V2000
    9.4496  -13.6512   19.3942 N   0  0  0  0  0  0  0  0  0  0  0  0
    8.1626  -14.0472   19.8639 C   0  0  1  0  0  0  0  0  0  0  0  0
    7.3556  -14.8872   18.9340 C   0  0  0  0  0  0  0  0  0  0  0  0
    7.8688  -14.8685   17.5394 C   0  0  0  0  0  0  0  0  0  0  0  0
    7.1125  -15.6649   16.5384 C   0  0  0  0  0  0  0  0  0  0  0  0
    7.6047  -15.4859   15.1256 C   0  0  0  0  0  0  0  0  0  0  0  0
    6.7527  -16.2768   14.2565 N   0  0  0  0  0  0  0  0  0  0  0  0
    8.2552  -14.6988   21.2126 C   0  0  0  0  0  0  0  0  0  0  0  0
    7.1847  -15.0306   21.7901 O   0  0  0  0  0  0  0  0  0  0  0  0
    9.4825  -14.9546   21.8584 N   0  0  0  0  0  0  0  0  0  0  0  0
    9.5323  -15.5600   23.2198 C   0  0  1  0  0  0  0  0  0  0  0  0
   10.9175  -16.0410   23.4958 C   0  0  0  0  0  0  0  0  0  0  0  0
   11.2969  -17.1716   22.6268 C   0  0  0  0  0  0  0  0  0  0  0  0
   10.4932  -18.1606   22.4788 O   0  0  0  0  0  0  0  0  0  0  0  0
    9.0477  -14.5065   24.1381 C   0  0  0  0  0  0  0  0  0  0  0  0
    9.4525  -13.2964   24.0172 O   0  0  0  0  0  0  0  0  0  0  0  0
   12.4941  -17.2230   21.9500 O   0  0  0  0  0  0  0  0  0  0  0  0
    8.1310  -14.6996   25.1971 N   0  0  0  0  0  0  0  0  0  0  0  0
    7.7724  -13.6496   26.1172 C   0  0  1  0  0  0  0  0  0  0  0  0
    6.3993  -13.0918   25.8769 C   0  0  0  0  0  0  0  0  0  0  0  0
    5.9299  -11.9029   27.1482 S   0  0  0  0  0  0  0  0  0  0  0  0
    7.8137  -14.1661   27.5019 C   0  0  0  0  0  0  0  0  0  0  0  0
    7.7682  -13.2961   28.5708 O   0  0  0  0  0  0  0  0  0  0  0  0
    7.8913  -15.4126   27.7248 O   0  0  0  0  0  0  0  0  0  0  0  0
  2  1  1  6
  3  2  1  0
  4  3  1  0
  5  6  1  0
  5  4  1  0
  6  7  1  0
  8  2  1  0
  8  9  2  0
 10  8  1  0
 11 10  1  0
 11 12  1  1
 13 12  1  0
 13 17  1  0
 14 13  2  0
 15 11  1  0
 16 15  2  0
 18 15  1  0
 19 18  1  0
 19 20  1  6
 20 21  1  0
 22 23  1  0
 22 19  1  0
 24 22  2  0
M  END
$$$$
