KDC.pdb
     RDKit          3D

 24 23  0  0  1  0  0  0  0  0999 V2000
    8.0969  -18.5120   18.4604 N   0  0  0  0  0  0  0  0  0  0  0  0
    9.3355  -17.8063   18.5028 C   0  0  1  0  0  0  0  0  0  0  0  0
    9.2789  -16.3612   18.1417 C   0  0  0  0  0  0  0  0  0  0  0  0
    8.2675  -15.6050   18.9252 C   0  0  0  0  0  0  0  0  0  0  0  0
    8.0650  -14.1801   18.5558 C   0  0  0  0  0  0  0  0  0  0  0  0
    7.0491  -13.4709   19.4134 C   0  0  0  0  0  0  0  0  0  0  0  0
    6.9184  -12.1142   18.9144 N   0  0  0  0  0  0  0  0  0  0  0  0
   10.0183  -17.9896   19.8265 C   0  0  0  0  0  0  0  0  0  0  0  0
    9.3836  -18.5656   20.7510 O   0  0  0  0  0  0  0  0  0  0  0  0
   11.3335  -17.5474   20.0790 N   0  0  0  0  0  0  0  0  0  0  0  0
   11.9774  -17.7453   21.4089 C   0  0  1  0  0  0  0  0  0  0  0  0
   13.4473  -17.5219   21.2837 C   0  0  0  0  0  0  0  0  0  0  0  0
   14.1206  -18.6320   20.5824 C   0  0  0  0  0  0  0  0  0  0  0  0
   14.0220  -19.8276   21.0373 O   0  0  0  0  0  0  0  0  0  0  0  0
   11.2849  -16.8132   22.3252 C   0  0  0  0  0  0  0  0  0  0  0  0
   10.8364  -15.6903   21.9000 O   0  0  0  0  0  0  0  0  0  0  0  0
   14.8652  -18.4498   19.4395 O   0  0  0  0  0  0  0  0  0  0  0  0
   11.0482  -17.0395   23.7006 N   0  0  0  0  0  0  0  0  0  0  0  0
   10.2657  -16.1426   24.5136 C   0  0  1  0  0  0  0  0  0  0  0  0
    8.8605  -15.9624   24.0166 C   0  0  0  0  0  0  0  0  0  0  0  0
    7.9126  -14.8580   25.0804 S   0  0  0  0  0  0  0  0  0  0  0  0
   10.1924  -16.6605   25.8963 C   0  0  0  0  0  0  0  0  0  0  0  0
    9.7236  -15.8590   26.9159 O   0  0  0  0  0  0  0  0  0  0  0  0
   10.5584  -17.8456   26.1630 O   0  0  0  0  0  0  0  0  0  0  0  0
  2  1  1  1
  3  2  1  0
  4  3  1  0
  5  6  1  0
  5  4  1  0
  6  7  1  0
  8  2  1  0
  8  9  2  0
 10  8  1  0
 11 10  1  0
 11 12  1  6
 13 12  1  0
 13 17  1  0
 14 13  2  0
 15 11  1  0
 16 15  2  0
 18 15  1  0
 19 18  1  0
 19 20  1  6
 20 21  1  0
 22 23  1  0
 22 19  1  0
 24 22  2  0
M  END
$$$$
