KDC.pdb
     RDKit          3D

 24 23  0  0  1  0  0  0  0  0999 V2000
    7.1192  -17.3095   20.6743 N   0  0  0  0  0  0  0  0  0  0  0  0
    8.1677  -16.4149   21.0405 C   0  0  1  0  0  0  0  0  0  0  0  0
    7.7727  -14.9930   21.2500 C   0  0  0  0  0  0  0  0  0  0  0  0
    7.0537  -14.4116   20.0865 C   0  0  0  0  0  0  0  0  0  0  0  0
    7.6142  -13.1612   19.5117 C   0  0  0  0  0  0  0  0  0  0  0  0
    8.5342  -13.3924   18.3410 C   0  0  0  0  0  0  0  0  0  0  0  0
    9.0569  -12.1030   17.9274 N   0  0  0  0  0  0  0  0  0  0  0  0
    8.9277  -16.9285   22.2283 C   0  0  0  0  0  0  0  0  0  0  0  0
    8.2869  -17.5280   23.1334 O   0  0  0  0  0  0  0  0  0  0  0  0
   10.3214  -16.7698   22.3743 N   0  0  0  0  0  0  0  0  0  0  0  0
   11.0294  -17.2207   23.6064 C   0  0  1  0  0  0  0  0  0  0  0  0
   12.4520  -17.5249   23.2748 C   0  0  0  0  0  0  0  0  0  0  0  0
   13.2200  -17.9519   24.4601 C   0  0  0  0  0  0  0  0  0  0  0  0
   12.6688  -18.7048   25.3407 O   0  0  0  0  0  0  0  0  0  0  0  0
   10.8416  -16.1321   24.5900 C   0  0  0  0  0  0  0  0  0  0  0  0
   11.3891  -14.9870   24.4111 O   0  0  0  0  0  0  0  0  0  0  0  0
   14.5267  -17.5780   24.6765 O   0  0  0  0  0  0  0  0  0  0  0  0
   10.0775  -16.2212   25.7762 N   0  0  0  0  0  0  0  0  0  0  0  0
    9.9498  -15.1255   26.7041 C   0  0  1  0  0  0  0  0  0  0  0  0
    8.5532  -14.5817   26.7934 C   0  0  0  0  0  0  0  0  0  0  0  0
    8.4300  -13.2548   28.0075 S   0  0  0  0  0  0  0  0  0  0  0  0
   10.3484  -15.5700   28.0566 C   0  0  0  0  0  0  0  0  0  0  0  0
   10.4801  -14.6546   29.0794 O   0  0  0  0  0  0  0  0  0  0  0  0
   10.5739  -16.7958   28.2940 O   0  0  0  0  0  0  0  0  0  0  0  0
  2  1  1  1
  3  2  1  0
  4  3  1  0
  5  6  1  0
  5  4  1  0
  6  7  1  0
  8  2  1  0
  8  9  2  0
 10  8  1  0
 11 10  1  0
 11 12  1  6
 13 12  1  0
 13 17  1  0
 14 13  2  0
 15 11  1  0
 16 15  2  0
 18 15  1  0
 19 18  1  0
 19 20  1  1
 20 21  1  0
 22 23  1  0
 22 19  1  0
 24 22  2  0
M  END
$$$$
