KDC.pdb
     RDKit          3D

 24 23  0  0  1  0  0  0  0  0999 V2000
   11.0067  -16.5064   20.0531 N   0  0  0  0  0  0  0  0  0  0  0  0
    9.7488  -16.0490   20.5453 C   0  0  1  0  0  0  0  0  0  0  0  0
    8.5688  -16.3131   19.6738 C   0  0  0  0  0  0  0  0  0  0  0  0
    8.8304  -17.3462   18.6380 C   0  0  0  0  0  0  0  0  0  0  0  0
    7.6923  -17.7094   17.7543 C   0  0  0  0  0  0  0  0  0  0  0  0
    8.0101  -18.8156   16.7818 C   0  0  0  0  0  0  0  0  0  0  0  0
    6.7859  -19.1517   16.0782 N   0  0  0  0  0  0  0  0  0  0  0  0
    9.4962  -16.5521   21.9365 C   0  0  0  0  0  0  0  0  0  0  0  0
    8.4018  -16.2574   22.4884 O   0  0  0  0  0  0  0  0  0  0  0  0
   10.4264  -17.3369   22.6491 N   0  0  0  0  0  0  0  0  0  0  0  0
   10.1550  -17.7871   24.0441 C   0  0  1  0  0  0  0  0  0  0  0  0
   10.9549  -19.0136   24.3313 C   0  0  0  0  0  0  0  0  0  0  0  0
   10.7865  -19.4739   25.7231 C   0  0  0  0  0  0  0  0  0  0  0  0
    9.8481  -20.2992   26.0133 O   0  0  0  0  0  0  0  0  0  0  0  0
   10.4726  -16.6252   24.9026 C   0  0  0  0  0  0  0  0  0  0  0  0
   11.5708  -15.9815   24.7523 O   0  0  0  0  0  0  0  0  0  0  0  0
   11.6014  -19.0564   26.7504 O   0  0  0  0  0  0  0  0  0  0  0  0
    9.6475  -16.1156   25.9313 N   0  0  0  0  0  0  0  0  0  0  0  0
   10.0048  -14.9598   26.7151 C   0  0  1  0  0  0  0  0  0  0  0  0
    8.8627  -14.0084   26.9264 C   0  0  0  0  0  0  0  0  0  0  0  0
    9.3433  -12.6057   27.9517 S   0  0  0  0  0  0  0  0  0  0  0  0
   10.4857  -15.3901   28.0452 C   0  0  0  0  0  0  0  0  0  0  0  0
   11.2142  -14.5258   28.8351 O   0  0  0  0  0  0  0  0  0  0  0  0
   10.2355  -16.5566   28.4768 O   0  0  0  0  0  0  0  0  0  0  0  0
  2  1  1  6
  3  2  1  0
  4  3  1  0
  5  6  1  0
  5  4  1  0
  6  7  1  0
  8  2  1  0
  8  9  2  0
 10  8  1  0
 11 10  1  0
 11 12  1  1
 13 12  1  0
 13 17  1  0
 14 13  2  0
 15 11  1  0
 16 15  2  0
 18 15  1  0
 19 18  1  0
 19 20  1  1
 20 21  1  0
 22 23  1  0
 22 19  1  0
 24 22  2  0
M  END
$$$$
