KDC.pdb
     RDKit          3D

 24 23  0  0  1  0  0  0  0  0999 V2000
    9.8345  -13.6803   19.2268 N   0  0  0  0  0  0  0  0  0  0  0  0
    8.6269  -13.3362   19.9029 C   0  0  1  0  0  0  0  0  0  0  0  0
    7.4325  -13.1151   19.0390 C   0  0  0  0  0  0  0  0  0  0  0  0
    7.2987  -14.1291   17.9608 C   0  0  0  0  0  0  0  0  0  0  0  0
    8.2867  -14.0606   16.8530 C   0  0  0  0  0  0  0  0  0  0  0  0
    8.0291  -15.0544   15.7500 C   0  0  0  0  0  0  0  0  0  0  0  0
    9.0143  -14.8254   14.7089 N   0  0  0  0  0  0  0  0  0  0  0  0
    8.3133  -14.3241   20.9882 C   0  0  0  0  0  0  0  0  0  0  0  0
    7.1500  -14.3280   21.4741 O   0  0  0  0  0  0  0  0  0  0  0  0
    9.2599  -15.2438   21.4853 N   0  0  0  0  0  0  0  0  0  0  0  0
    8.9314  -16.1641   22.6111 C   0  0  1  0  0  0  0  0  0  0  0  0
    9.7989  -17.3752   22.5278 C   0  0  0  0  0  0  0  0  0  0  0  0
    9.4961  -18.1952   21.3389 C   0  0  0  0  0  0  0  0  0  0  0  0
    8.3594  -18.7819   21.2408 O   0  0  0  0  0  0  0  0  0  0  0  0
    9.1053  -15.3608   23.8409 C   0  0  0  0  0  0  0  0  0  0  0  0
   10.2232  -14.7879   24.0955 O   0  0  0  0  0  0  0  0  0  0  0  0
   10.3880  -18.3676   20.3051 O   0  0  0  0  0  0  0  0  0  0  0  0
    8.1136  -15.1416   24.8245 N   0  0  0  0  0  0  0  0  0  0  0  0
    8.3814  -14.4463   26.0584 C   0  0  1  0  0  0  0  0  0  0  0  0
    7.1539  -13.8478   26.6822 C   0  0  0  0  0  0  0  0  0  0  0  0
    6.3660  -12.6502   25.5892 S   0  0  0  0  0  0  0  0  0  0  0  0
    8.9750  -15.3815   27.0375 C   0  0  0  0  0  0  0  0  0  0  0  0
    9.4633  -14.9136   28.2393 O   0  0  0  0  0  0  0  0  0  0  0  0
    9.0430  -16.6232   26.7865 O   0  0  0  0  0  0  0  0  0  0  0  0
  2  1  1  6
  3  2  1  0
  4  3  1  0
  5  6  1  0
  5  4  1  0
  6  7  1  0
  8  2  1  0
  8  9  2  0
 10  8  1  0
 11 10  1  0
 11 12  1  1
 13 12  1  0
 13 17  1  0
 14 13  2  0
 15 11  1  0
 16 15  2  0
 18 15  1  0
 19 18  1  0
 19 20  1  1
 20 21  1  0
 22 23  1  0
 22 19  1  0
 24 22  2  0
M  END
$$$$
