KDC.pdb
     RDKit          3D

 24 23  0  0  1  0  0  0  0  0999 V2000
    6.8235  -19.8066   20.6369 N   0  0  0  0  0  0  0  0  0  0  0  0
    6.5735  -18.5179   21.1942 C   0  0  1  0  0  0  0  0  0  0  0  0
    5.2393  -18.3269   21.8307 C   0  0  0  0  0  0  0  0  0  0  0  0
    4.2077  -19.2620   21.3112 C   0  0  0  0  0  0  0  0  0  0  0  0
    2.8441  -19.1405   21.8890 C   0  0  0  0  0  0  0  0  0  0  0  0
    1.8611  -20.1395   21.3359 C   0  0  0  0  0  0  0  0  0  0  0  0
    0.5855  -19.9147   21.9910 N   0  0  0  0  0  0  0  0  0  0  0  0
    7.6678  -18.1148   22.1388 C   0  0  0  0  0  0  0  0  0  0  0  0
    7.9895  -18.9166   23.0569 O   0  0  0  0  0  0  0  0  0  0  0  0
    8.3482  -16.8832   22.0437 N   0  0  0  0  0  0  0  0  0  0  0  0
    9.4210  -16.5121   23.0100 C   0  0  1  0  0  0  0  0  0  0  0  0
   10.6892  -16.2583   22.2660 C   0  0  0  0  0  0  0  0  0  0  0  0
   11.7938  -15.8730   23.1654 C   0  0  0  0  0  0  0  0  0  0  0  0
   11.7876  -16.2633   24.3875 O   0  0  0  0  0  0  0  0  0  0  0  0
    8.8956  -15.3469   23.7545 C   0  0  0  0  0  0  0  0  0  0  0  0
    8.9741  -14.1662   23.2618 O   0  0  0  0  0  0  0  0  0  0  0  0
   12.8554  -15.1000   22.7538 O   0  0  0  0  0  0  0  0  0  0  0  0
    8.2782  -15.3961   25.0254 N   0  0  0  0  0  0  0  0  0  0  0  0
    7.8964  -14.2109   25.7517 C   0  0  1  0  0  0  0  0  0  0  0  0
    6.4111  -13.9991   25.8054 C   0  0  0  0  0  0  0  0  0  0  0  0
    5.9737  -12.6012   26.8562 S   0  0  0  0  0  0  0  0  0  0  0  0
    8.3903  -14.2991   27.1424 C   0  0  0  0  0  0  0  0  0  0  0  0
    8.2575  -13.2255   27.9975 O   0  0  0  0  0  0  0  0  0  0  0  0
    8.9411  -15.3603   27.5668 O   0  0  0  0  0  0  0  0  0  0  0  0
  2  1  1  1
  3  2  1  0
  4  3  1  0
  5  6  1  0
  5  4  1  0
  6  7  1  0
  8  2  1  0
  8  9  2  0
 10  8  1  0
 11 10  1  0
 11 12  1  6
 13 12  1  0
 13 17  1  0
 14 13  2  0
 15 11  1  0
 16 15  2  0
 18 15  1  0
 19 18  1  0
 19 20  1  1
 20 21  1  0
 22 23  1  0
 22 19  1  0
 24 22  2  0
M  END
$$$$
