STS.pdb
     RDKit          3D

 20 19  0  0  1  0  0  0  0  0999 V2000
    8.1523  -18.8982   17.8280 O   0  0  0  0  0  0  0  0  0  0  0  0
    8.6177  -18.4051   16.6093 C   0  0  0  0  0  0  0  0  0  0  0  0
    8.3074  -16.9237   16.5743 C   0  0  2  0  0  0  0  0  0  0  0  0
    8.7541  -16.4374   15.2743 N   0  0  0  0  0  0  0  0  0  0  0  0
    9.0262  -16.1739   17.6156 C   0  0  0  0  0  0  0  0  0  0  0  0
   10.2612  -15.9482   17.5462 O   0  0  0  0  0  0  0  0  0  0  0  0
    7.5453  -12.9458   19.6144 C   0  0  0  0  0  0  0  0  0  0  0  0
    7.9306  -14.0852   20.4999 C   0  0  1  0  0  0  0  0  0  0  0  0
    6.8384  -14.8610   20.8875 O   0  0  0  0  0  0  0  0  0  0  0  0
    8.9855  -14.9805   19.8375 C   0  0  2  0  0  0  0  0  0  0  0  0
    8.3341  -15.6762   18.7462 N   0  0  0  0  0  0  0  0  0  0  0  0
    9.3644  -15.9875   20.8771 C   0  0  0  0  0  0  0  0  0  0  0  0
    8.7256  -17.0779   20.9864 O   0  0  0  0  0  0  0  0  0  0  0  0
   12.6956  -15.4735   22.9695 O   0  0  0  0  0  0  0  0  0  0  0  0
   12.3210  -16.8025   22.8400 C   0  0  0  0  0  0  0  0  0  0  0  0
   10.7953  -16.8226   22.7354 C   0  0  2  0  0  0  0  0  0  0  0  0
   10.4330  -15.7863   21.7780 N   0  0  0  0  0  0  0  0  0  0  0  0
   10.1636  -16.6049   24.0424 C   0  0  0  0  0  0  0  0  0  0  0  0
   10.3341  -17.4594   25.1147 O   0  0  0  0  0  0  0  0  0  0  0  0
    9.4377  -15.6027   24.1974 O   0  0  0  0  0  0  0  0  0  0  0  0
  2  1  1  0
  3  4  1  6
  3  2  1  0
  5  3  1  0
  5  6  2  0
  8  7  1  6
  8 10  1  0
  9  8  1  0
 10 11  1  6
 10 12  1  0
 11  5  1  0
 12 13  2  0
 12 17  1  0
 14 15  1  0
 16 15  1  1
 16 18  1  0
 17 16  1  0
 18 20  2  0
 18 19  1  0
M  END
$$$$
