STS.pdb
     RDKit          3D

 20 19  0  0  1  0  0  0  0  0999 V2000
    9.2588  -18.4709   17.2819 O   0  0  0  0  0  0  0  0  0  0  0  0
    9.5121  -17.7274   16.1295 C   0  0  0  0  0  0  0  0  0  0  0  0
    8.7995  -16.4006   16.2832 C   0  0  2  0  0  0  0  0  0  0  0  0
    9.0101  -15.6705   15.0388 N   0  0  0  0  0  0  0  0  0  0  0  0
    9.3450  -15.5939   17.3855 C   0  0  0  0  0  0  0  0  0  0  0  0
   10.4297  -14.9665   17.2828 O   0  0  0  0  0  0  0  0  0  0  0  0
    7.5762  -12.8685   19.5685 C   0  0  0  0  0  0  0  0  0  0  0  0
    7.9886  -14.0370   20.4023 C   0  0  1  0  0  0  0  0  0  0  0  0
    6.9407  -14.9253   20.6426 O   0  0  0  0  0  0  0  0  0  0  0  0
    9.1651  -14.7917   19.7702 C   0  0  2  0  0  0  0  0  0  0  0  0
    8.6503  -15.4999   18.6157 N   0  0  0  0  0  0  0  0  0  0  0  0
    9.5869  -15.8010   20.7909 C   0  0  0  0  0  0  0  0  0  0  0  0
    9.1707  -16.9977   20.7295 O   0  0  0  0  0  0  0  0  0  0  0  0
   12.9215  -16.6106   22.0940 O   0  0  0  0  0  0  0  0  0  0  0  0
   12.2101  -16.3278   23.2504 C   0  0  0  0  0  0  0  0  0  0  0  0
   10.7276  -16.4669   22.9012 C   0  0  2  0  0  0  0  0  0  0  0  0
   10.4546  -15.4860   21.8595 N   0  0  0  0  0  0  0  0  0  0  0  0
    9.8761  -16.2647   24.0797 C   0  0  0  0  0  0  0  0  0  0  0  0
    9.9016  -17.0984   25.1812 O   0  0  0  0  0  0  0  0  0  0  0  0
    9.0908  -15.2959   24.0922 O   0  0  0  0  0  0  0  0  0  0  0  0
  2  1  1  0
  3  4  1  6
  3  2  1  0
  5  3  1  0
  5  6  2  0
  8  7  1  6
  8 10  1  0
  9  8  1  0
 10 11  1  6
 10 12  1  0
 11  5  1  0
 12 13  2  0
 12 17  1  0
 14 15  1  0
 16 15  1  1
 16 18  1  0
 17 16  1  0
 18 20  2  0
 18 19  1  0
M  END
$$$$
