STS.pdb
     RDKit          3D

 20 19  0  0  1  0  0  0  0  0999 V2000
   11.0140  -12.9075   20.0063 O   0  0  0  0  0  0  0  0  0  0  0  0
   10.6794  -14.0742   19.3194 C   0  0  0  0  0  0  0  0  0  0  0  0
    9.2017  -14.0004   18.9988 C   0  0  2  0  0  0  0  0  0  0  0  0
    8.9747  -12.6957   18.3885 N   0  0  0  0  0  0  0  0  0  0  0  0
    8.3600  -14.0963   20.2011 C   0  0  0  0  0  0  0  0  0  0  0  0
    7.6192  -13.1524   20.5768 O   0  0  0  0  0  0  0  0  0  0  0  0
    5.8340  -16.9062   21.1584 C   0  0  0  0  0  0  0  0  0  0  0  0
    6.9510  -16.8347   22.1472 C   0  0  1  0  0  0  0  0  0  0  0  0
    7.9468  -17.7809   21.9063 O   0  0  0  0  0  0  0  0  0  0  0  0
    7.5751  -15.4340   22.1904 C   0  0  2  0  0  0  0  0  0  0  0  0
    8.3607  -15.2767   20.9832 N   0  0  0  0  0  0  0  0  0  0  0  0
    8.5082  -15.4483   23.3598 C   0  0  0  0  0  0  0  0  0  0  0  0
    9.7434  -15.6888   23.2003 O   0  0  0  0  0  0  0  0  0  0  0  0
    7.9227  -13.1939   26.2805 O   0  0  0  0  0  0  0  0  0  0  0  0
    8.4155  -14.3392   26.8877 C   0  0  0  0  0  0  0  0  0  0  0  0
    9.0323  -15.1950   25.7803 C   0  0  2  0  0  0  0  0  0  0  0  0
    8.0765  -15.2001   24.6812 N   0  0  0  0  0  0  0  0  0  0  0  0
    9.3303  -16.5526   26.2525 C   0  0  0  0  0  0  0  0  0  0  0  0
    8.8437  -17.6895   25.6365 O   0  0  0  0  0  0  0  0  0  0  0  0
   10.0566  -16.6915   27.2568 O   0  0  0  0  0  0  0  0  0  0  0  0
  2  1  1  0
  3  4  1  1
  3  2  1  0
  5  3  1  0
  5  6  2  0
  8  7  1  6
  8 10  1  0
  9  8  1  0
 10 11  1  6
 10 12  1  0
 11  5  1  0
 12 13  2  0
 12 17  1  0
 14 15  1  0
 16 15  1  1
 16 18  1  0
 17 16  1  0
 18 20  2  0
 18 19  1  0
M  END
$$$$
