STS.pdb
     RDKit          3D

 20 19  0  0  1  0  0  0  0  0999 V2000
    7.3697  -17.5992   14.4319 O   0  0  0  0  0  0  0  0  0  0  0  0
    8.3067  -17.0974   15.3347 C   0  0  0  0  0  0  0  0  0  0  0  0
    8.3593  -15.5967   15.1423 C   0  0  2  0  0  0  0  0  0  0  0  0
    8.8770  -15.3691   13.7983 N   0  0  0  0  0  0  0  0  0  0  0  0
    9.2625  -14.9385   16.0985 C   0  0  0  0  0  0  0  0  0  0  0  0
   10.3423  -14.4033   15.7400 O   0  0  0  0  0  0  0  0  0  0  0  0
    7.9610  -12.4138   18.7500 C   0  0  0  0  0  0  0  0  0  0  0  0
    8.7370  -13.4977   19.4234 C   0  0  1  0  0  0  0  0  0  0  0  0
    7.9190  -14.4672   20.0029 O   0  0  0  0  0  0  0  0  0  0  0  0
    9.7208  -14.1690   18.4566 C   0  0  2  0  0  0  0  0  0  0  0  0
    8.9346  -14.8886   17.4750 N   0  0  0  0  0  0  0  0  0  0  0  0
   10.4720  -15.1670   19.2801 C   0  0  0  0  0  0  0  0  0  0  0  0
   10.0269  -16.3445   19.4365 O   0  0  0  0  0  0  0  0  0  0  0  0
   14.0602  -14.2336   20.9064 O   0  0  0  0  0  0  0  0  0  0  0  0
   13.9177  -15.5452   20.4790 C   0  0  0  0  0  0  0  0  0  0  0  0
   12.4366  -15.8978   20.6234 C   0  0  2  0  0  0  0  0  0  0  0  0
   11.6945  -14.8619   19.9177 N   0  0  0  0  0  0  0  0  0  0  0  0
   12.0405  -15.9897   22.0339 C   0  0  0  0  0  0  0  0  0  0  0  0
   11.0617  -15.1932   22.5964 O   0  0  0  0  0  0  0  0  0  0  0  0
   12.6115  -16.8249   22.7632 O   0  0  0  0  0  0  0  0  0  0  0  0
  2  1  1  0
  3  4  1  6
  3  2  1  0
  5  3  1  0
  5  6  2  0
  8  7  1  6
  8 10  1  0
  9  8  1  0
 10 11  1  6
 10 12  1  0
 11  5  1  0
 12 13  2  0
 12 17  1  0
 14 15  1  0
 16 15  1  1
 16 18  1  0
 17 16  1  0
 18 20  2  0
 18 19  1  0
M  END
$$$$
