ITP.pdb
     RDKit          3D

 23 23  0  0  1  0  0  0  0  0999 V2000
   15.8041  -20.9094    0.7511 C   0  0  0  0  0  0  0  0  0  0  0  0
   15.0503  -20.1318    1.7867 C   0  0  0  0  0  0  0  0  0  0  0  0
   15.9895  -19.5089    2.7820 C   0  0  2  0  0  0  0  0  0  0  0  0
   16.9664  -20.5245    3.3364 C   0  0  0  0  0  0  0  0  0  0  0  0
   15.3512  -18.6815    3.8437 C   0  0  2  0  0  0  0  0  0  0  0  0
   14.7244  -17.4980    3.1996 N   0  0  0  0  0  0  0  0  0  0  0  0
   16.2409  -18.1447    4.8739 C   0  0  0  0  0  0  0  0  0  0  0  0
   16.9879  -17.1216    4.6483 O   0  0  0  0  0  0  0  0  0  0  0  0
   17.3264  -17.6580    9.5908 C   0  0  0  0  0  0  0  0  0  0  0  0
   16.4234  -17.9874    8.4465 C   0  0  1  0  0  0  0  0  0  0  0  0
   15.5073  -16.9353    8.1884 O   0  0  0  0  0  0  0  0  0  0  0  0
   17.3031  -18.0184    7.1774 C   0  0  2  0  0  0  0  0  0  0  0  0
   16.3962  -18.6459    6.1939 N   0  0  0  0  0  0  0  0  0  0  0  0
   18.4613  -18.9018    7.4481 C   0  0  0  0  0  0  0  0  0  0  0  0
   18.2064  -20.1333    7.5964 O   0  0  0  0  0  0  0  0  0  0  0  0
   19.7841  -18.3819    7.5329 N   0  0  0  0  0  0  0  0  0  0  0  0
   20.1816  -17.0310    7.3055 C   0  0  0  0  0  0  0  0  0  0  0  0
   21.3667  -16.8884    8.2756 C   0  0  0  0  0  0  0  0  0  0  0  0
   22.0688  -18.2355    8.0137 C   0  0  0  0  0  0  0  0  0  0  0  0
   20.9228  -19.1883    7.8140 C   0  0  1  0  0  0  0  0  0  0  0  0
   20.6945  -20.0176    9.0250 C   0  0  0  0  0  0  0  0  0  0  0  0
   19.8333  -19.6729    9.8505 O   0  0  0  0  0  0  0  0  0  0  0  0
   21.4317  -21.1568    9.2279 O   0  0  0  0  0  0  0  0  0  0  0  0
  1  2  1  0
  3  5  1  0
  3  2  1  0
  3  4  1  1
  5  7  1  0
  5  6  1  6
  7  8  2  0
 10 11  1  0
 10  9  1  1
 10 12  1  0
 12 13  1  6
 13  7  1  0
 14 12  1  0
 14 15  2  0
 16 20  1  0
 16 14  1  0
 17 16  1  0
 18 17  1  0
 18 19  1  0
 19 20  1  0
 20 21  1  1
 21 22  2  0
 21 23  1  0
M  END
$$$$
