ITP.pdb
     RDKit          3D

 23 23  0  0  1  0  0  0  0  0999 V2000
   24.4130  -21.5424   -7.7464 C   0  0  0  0  0  0  0  0  0  0  0  0
   24.0072  -20.6558   -8.8843 C   0  0  0  0  0  0  0  0  0  0  0  0
   25.0061  -20.7278  -10.0058 C   0  0  2  0  0  0  0  0  0  0  0  0
   26.2078  -19.8462   -9.7381 C   0  0  0  0  0  0  0  0  0  0  0  0
   24.4527  -20.5497  -11.3774 C   0  0  2  0  0  0  0  0  0  0  0  0
   23.4220  -21.5960  -11.6045 N   0  0  0  0  0  0  0  0  0  0  0  0
   25.4003  -20.6829  -12.4843 C   0  0  0  0  0  0  0  0  0  0  0  0
   26.2668  -21.6337  -12.5148 O   0  0  0  0  0  0  0  0  0  0  0  0
   26.0695  -22.4775  -14.3122 C   0  0  0  0  0  0  0  0  0  0  0  0
   25.8412  -21.4038  -15.3264 C   0  0  1  0  0  0  0  0  0  0  0  0
   24.4602  -21.1142  -15.4739 O   0  0  0  0  0  0  0  0  0  0  0  0
   26.4214  -20.1002  -14.7356 C   0  0  2  0  0  0  0  0  0  0  0  0
   25.4921  -19.8324  -13.6184 N   0  0  0  0  0  0  0  0  0  0  0  0
   26.3066  -19.0426  -15.7668 C   0  0  0  0  0  0  0  0  0  0  0  0
   25.1317  -18.7002  -16.0924 O   0  0  0  0  0  0  0  0  0  0  0  0
   27.4622  -18.4507  -16.3511 N   0  0  0  0  0  0  0  0  0  0  0  0
   28.8209  -18.7599  -16.0462 C   0  0  0  0  0  0  0  0  0  0  0  0
   29.5055  -18.5232  -17.4031 C   0  0  0  0  0  0  0  0  0  0  0  0
   28.8056  -17.2120  -17.8118 C   0  0  0  0  0  0  0  0  0  0  0  0
   27.4008  -17.4002  -17.3095 C   0  0  1  0  0  0  0  0  0  0  0  0
   26.4753  -17.7515  -18.4170 C   0  0  0  0  0  0  0  0  0  0  0  0
   26.2088  -18.9439  -18.6382 O   0  0  0  0  0  0  0  0  0  0  0  0
   25.9197  -16.7629  -19.1892 O   0  0  0  0  0  0  0  0  0  0  0  0
  1  2  1  0
  3  5  1  0
  3  2  1  0
  3  4  1  1
  5  7  1  0
  5  6  1  6
  7  8  2  0
 10 11  1  0
 10  9  1  1
 10 12  1  0
 12 13  1  1
 13  7  1  0
 14 12  1  0
 14 15  2  0
 16 20  1  0
 16 14  1  0
 17 16  1  0
 18 17  1  0
 18 19  1  0
 19 20  1  0
 20 21  1  6
 21 22  2  0
 21 23  1  0
M  END
$$$$
