ITP.pdb
     RDKit          3D

 23 23  0  0  1  0  0  0  0  0999 V2000
   15.7164  -12.1214  -18.4359 C   0  0  0  0  0  0  0  0  0  0  0  0
   17.1943  -12.3614  -18.4954 C   0  0  0  0  0  0  0  0  0  0  0  0
   17.9237  -11.4722  -17.5269 C   0  0  2  0  0  0  0  0  0  0  0  0
   17.4803  -10.0298  -17.6532 C   0  0  0  0  0  0  0  0  0  0  0  0
   19.4058  -11.6212  -17.5020 C   0  0  2  0  0  0  0  0  0  0  0  0
   19.7272  -13.0476  -17.2363 N   0  0  0  0  0  0  0  0  0  0  0  0
   20.1198  -10.8587  -16.4774 C   0  0  0  0  0  0  0  0  0  0  0  0
   19.9261  -11.0748  -15.2238 O   0  0  0  0  0  0  0  0  0  0  0  0
   23.4170  -10.8343  -15.3183 C   0  0  0  0  0  0  0  0  0  0  0  0
   23.2156   -9.4438  -15.8275 C   0  0  1  0  0  0  0  0  0  0  0  0
   23.3620   -9.3807  -17.2373 O   0  0  0  0  0  0  0  0  0  0  0  0
   21.7273   -9.0970  -15.6041 C   0  0  2  0  0  0  0  0  0  0  0  0
   21.0747   -9.8325  -16.7071 N   0  0  0  0  0  0  0  0  0  0  0  0
   21.5672   -7.6362  -15.7923 C   0  0  0  0  0  0  0  0  0  0  0  0
   21.4876   -7.2290  -16.9887 O   0  0  0  0  0  0  0  0  0  0  0  0
   21.5062   -6.7495  -14.6800 N   0  0  0  0  0  0  0  0  0  0  0  0
   21.4029   -7.1172  -13.3057 C   0  0  0  0  0  0  0  0  0  0  0  0
   22.1782   -5.9790  -12.6205 C   0  0  0  0  0  0  0  0  0  0  0  0
   21.6253   -4.7823  -13.4196 C   0  0  0  0  0  0  0  0  0  0  0  0
   21.4866   -5.3324  -14.8121 C   0  0  1  0  0  0  0  0  0  0  0  0
   22.5944   -4.8699  -15.6868 C   0  0  0  0  0  0  0  0  0  0  0  0
   23.5611   -5.6197  -15.8998 O   0  0  0  0  0  0  0  0  0  0  0  0
   22.5478   -3.6218  -16.2545 O   0  0  0  0  0  0  0  0  0  0  0  0
  1  2  1  0
  3  5  1  0
  3  2  1  0
  3  4  1  6
  5  7  1  0
  5  6  1  1
  7  8  2  0
 10 11  1  0
 10  9  1  6
 10 12  1  0
 12 13  1  6
 13  7  1  0
 14 12  1  0
 14 15  2  0
 16 20  1  0
 16 14  1  0
 17 16  1  0
 18 17  1  0
 18 19  1  0
 19 20  1  0
 20 21  1  6
 21 22  2  0
 21 23  1  0
M  END
$$$$
