ITP.pdb
     RDKit          3D

 23 23  0  0  1  0  0  0  0  0999 V2000
   23.3158  -22.0046   -8.3543 C   0  0  0  0  0  0  0  0  0  0  0  0
   23.1079  -20.9238   -9.3711 C   0  0  0  0  0  0  0  0  0  0  0  0
   24.3509  -20.7073  -10.1889 C   0  0  2  0  0  0  0  0  0  0  0  0
   25.5456  -20.3937   -9.3130 C   0  0  0  0  0  0  0  0  0  0  0  0
   24.2142  -19.7688  -11.3376 C   0  0  2  0  0  0  0  0  0  0  0  0
   23.1061  -20.2492  -12.2037 N   0  0  0  0  0  0  0  0  0  0  0  0
   25.3763  -19.6432  -12.2177 C   0  0  0  0  0  0  0  0  0  0  0  0
   26.4852  -19.1435  -11.7975 O   0  0  0  0  0  0  0  0  0  0  0  0
   27.5951  -21.8756  -13.8073 C   0  0  0  0  0  0  0  0  0  0  0  0
   26.9934  -21.1351  -14.9576 C   0  0  1  0  0  0  0  0  0  0  0  0
   25.7483  -21.6961  -15.3419 O   0  0  0  0  0  0  0  0  0  0  0  0
   26.6109  -19.7329  -14.4355 C   0  0  2  0  0  0  0  0  0  0  0  0
   25.4431  -20.0343  -13.5817 N   0  0  0  0  0  0  0  0  0  0  0  0
   26.2015  -18.9106  -15.5979 C   0  0  0  0  0  0  0  0  0  0  0  0
   25.0943  -19.2087  -16.1353 O   0  0  0  0  0  0  0  0  0  0  0  0
   27.0171  -17.8451  -16.0741 N   0  0  0  0  0  0  0  0  0  0  0  0
   28.2734  -17.4330  -15.5389 C   0  0  0  0  0  0  0  0  0  0  0  0
   28.9998  -16.9344  -16.7998 C   0  0  0  0  0  0  0  0  0  0  0  0
   27.8468  -16.1540  -17.4614 C   0  0  0  0  0  0  0  0  0  0  0  0
   26.6391  -16.9943  -17.1508 C   0  0  1  0  0  0  0  0  0  0  0  0
   26.2208  -17.7933  -18.3311 C   0  0  0  0  0  0  0  0  0  0  0  0
   26.6533  -18.9484  -18.4739 O   0  0  0  0  0  0  0  0  0  0  0  0
   25.3618  -17.2561  -19.2563 O   0  0  0  0  0  0  0  0  0  0  0  0
  1  2  1  0
  3  5  1  0
  3  2  1  0
  3  4  1  1
  5  7  1  0
  5  6  1  6
  7  8  2  0
 10 11  1  0
 10  9  1  1
 10 12  1  0
 12 13  1  1
 13  7  1  0
 14 12  1  0
 14 15  2  0
 16 20  1  0
 16 14  1  0
 17 16  1  0
 18 17  1  0
 18 19  1  0
 19 20  1  0
 20 21  1  6
 21 22  2  0
 21 23  1  0
M  END
$$$$
