ITP.pdb
     RDKit          3D

 23 23  0  0  1  0  0  0  0  0999 V2000
   18.6490  -17.3145  -18.2400 C   0  0  0  0  0  0  0  0  0  0  0  0
   17.6310  -16.3273  -17.7558 C   0  0  0  0  0  0  0  0  0  0  0  0
   17.8963  -15.9361  -16.3285 C   0  0  2  0  0  0  0  0  0  0  0  0
   17.3604  -16.9691  -15.3596 C   0  0  0  0  0  0  0  0  0  0  0  0
   17.5163  -14.5442  -15.9579 C   0  0  2  0  0  0  0  0  0  0  0  0
   16.2427  -14.2088  -16.6465 N   0  0  0  0  0  0  0  0  0  0  0  0
   18.4580  -13.4898  -16.3352 C   0  0  0  0  0  0  0  0  0  0  0  0
   19.3003  -13.6542  -17.2939 O   0  0  0  0  0  0  0  0  0  0  0  0
   19.6480  -12.1101  -18.4312 C   0  0  0  0  0  0  0  0  0  0  0  0
   19.1607  -10.9503  -17.6246 C   0  0  1  0  0  0  0  0  0  0  0  0
   17.7436  -10.9185  -17.5642 O   0  0  0  0  0  0  0  0  0  0  0  0
   19.5776  -11.2167  -16.1615 C   0  0  2  0  0  0  0  0  0  0  0  0
   18.5686  -12.2078  -15.7334 N   0  0  0  0  0  0  0  0  0  0  0  0
   19.4137   -9.9537  -15.4045 C   0  0  0  0  0  0  0  0  0  0  0  0
   18.2256   -9.5482  -15.2382 O   0  0  0  0  0  0  0  0  0  0  0  0
   20.5389   -9.2450  -14.8957 N   0  0  0  0  0  0  0  0  0  0  0  0
   21.9076   -9.6299  -15.0106 C   0  0  0  0  0  0  0  0  0  0  0  0
   22.6100   -8.2631  -15.0790 C   0  0  0  0  0  0  0  0  0  0  0  0
   21.8283   -7.5238  -13.9750 C   0  0  0  0  0  0  0  0  0  0  0  0
   20.4277   -8.0470  -14.1351 C   0  0  1  0  0  0  0  0  0  0  0  0
   19.5606   -7.0612  -14.8297 C   0  0  0  0  0  0  0  0  0  0  0  0
   19.3451   -7.1844  -16.0464 O   0  0  0  0  0  0  0  0  0  0  0  0
   19.0024   -6.0218  -14.1293 O   0  0  0  0  0  0  0  0  0  0  0  0
  1  2  1  0
  3  5  1  0
  3  2  1  0
  3  4  1  1
  5  7  1  0
  5  6  1  6
  7  8  2  0
 10 11  1  0
 10  9  1  6
 10 12  1  0
 12 13  1  1
 13  7  1  0
 14 12  1  0
 14 15  2  0
 16 20  1  0
 16 14  1  0
 17 16  1  0
 18 17  1  0
 18 19  1  0
 19 20  1  0
 20 21  1  6
 21 22  2  0
 21 23  1  0
M  END
$$$$
