ITP.pdb
     RDKit          3D

 23 23  0  0  1  0  0  0  0  0999 V2000
   24.5457  -15.1231  -17.5725 C   0  0  0  0  0  0  0  0  0  0  0  0
   24.9766  -13.6879  -17.5629 C   0  0  0  0  0  0  0  0  0  0  0  0
   23.7873  -12.7683  -17.5833 C   0  0  2  0  0  0  0  0  0  0  0  0
   22.7758  -13.1898  -18.6285 C   0  0  0  0  0  0  0  0  0  0  0  0
   24.0964  -11.3119  -17.6326 C   0  0  2  0  0  0  0  0  0  0  0  0
   25.0933  -11.0101  -16.5724 N   0  0  0  0  0  0  0  0  0  0  0  0
   22.9774  -10.4002  -17.3925 C   0  0  0  0  0  0  0  0  0  0  0  0
   22.0183  -10.2773  -18.2414 O   0  0  0  0  0  0  0  0  0  0  0  0
   20.1260  -10.5101  -15.6736 C   0  0  0  0  0  0  0  0  0  0  0  0
   20.8147   -9.3566  -15.0189 C   0  0  1  0  0  0  0  0  0  0  0  0
   21.7919   -9.7953  -14.0886 O   0  0  0  0  0  0  0  0  0  0  0  0
   21.6487   -8.6545  -16.1129 C   0  0  2  0  0  0  0  0  0  0  0  0
   22.7995   -9.5707  -16.2531 N   0  0  0  0  0  0  0  0  0  0  0  0
   22.0929   -7.3465  -15.5772 C   0  0  0  0  0  0  0  0  0  0  0  0
   22.9972   -7.3798  -14.6914 O   0  0  0  0  0  0  0  0  0  0  0  0
   21.5267   -6.1258  -16.0426 N   0  0  0  0  0  0  0  0  0  0  0  0
   20.5141   -5.9843  -17.0371 C   0  0  0  0  0  0  0  0  0  0  0  0
   19.7706   -4.7300  -16.5473 C   0  0  0  0  0  0  0  0  0  0  0  0
   20.9805   -3.8544  -16.1654 C   0  0  0  0  0  0  0  0  0  0  0  0
   21.9561   -4.8453  -15.5931 C   0  0  1  0  0  0  0  0  0  0  0  0
   21.9745   -4.7874  -14.1090 C   0  0  0  0  0  0  0  0  0  0  0  0
   21.3777   -5.6574  -13.4541 O   0  0  0  0  0  0  0  0  0  0  0  0
   22.6473   -3.7780  -13.4681 O   0  0  0  0  0  0  0  0  0  0  0  0
  1  2  1  0
  3  5  1  0
  3  2  1  0
  3  4  1  6
  5  7  1  0
  5  6  1  1
  7  8  2  0
 10 11  1  0
 10  9  1  6
 10 12  1  0
 12 13  1  1
 13  7  1  0
 14 12  1  0
 14 15  2  0
 16 20  1  0
 16 14  1  0
 17 16  1  0
 18 17  1  0
 18 19  1  0
 19 20  1  0
 20 21  1  1
 21 22  2  0
 21 23  1  0
M  END
$$$$
