ITP.pdb
     RDKit          3D

 23 23  0  0  1  0  0  0  0  0999 V2000
   19.9107  -20.7434  -10.3870 C   0  0  0  0  0  0  0  0  0  0  0  0
   21.2463  -21.3060  -10.0063 C   0  0  0  0  0  0  0  0  0  0  0  0
   22.3519  -20.6342  -10.7724 C   0  0  2  0  0  0  0  0  0  0  0  0
   22.0604  -20.6032  -12.2581 C   0  0  0  0  0  0  0  0  0  0  0  0
   23.7313  -21.1045  -10.4638 C   0  0  2  0  0  0  0  0  0  0  0  0
   23.9812  -20.8985   -9.0134 N   0  0  0  0  0  0  0  0  0  0  0  0
   24.8233  -20.4168  -11.1535 C   0  0  0  0  0  0  0  0  0  0  0  0
   25.2896  -19.2976  -10.7225 O   0  0  0  0  0  0  0  0  0  0  0  0
   28.2990  -21.0505  -11.7275 C   0  0  0  0  0  0  0  0  0  0  0  0
   27.7004  -21.0053  -13.0961 C   0  0  1  0  0  0  0  0  0  0  0  0
   27.1085  -22.2465  -13.4452 O   0  0  0  0  0  0  0  0  0  0  0  0
   26.4972  -20.0396  -13.0261 C   0  0  2  0  0  0  0  0  0  0  0  0
   25.4874  -20.8620  -12.3277 N   0  0  0  0  0  0  0  0  0  0  0  0
   26.0609  -19.7549  -14.4130 C   0  0  0  0  0  0  0  0  0  0  0  0
   25.3979  -20.6654  -14.9918 O   0  0  0  0  0  0  0  0  0  0  0  0
   26.3753  -18.5202  -15.0485 N   0  0  0  0  0  0  0  0  0  0  0  0
   27.0449  -17.4077  -14.4581 C   0  0  0  0  0  0  0  0  0  0  0  0
   27.8011  -16.8245  -15.6639 C   0  0  0  0  0  0  0  0  0  0  0  0
   26.6900  -16.9223  -16.7280 C   0  0  0  0  0  0  0  0  0  0  0  0
   25.9983  -18.2130  -16.3862 C   0  0  1  0  0  0  0  0  0  0  0  0
   26.4038  -19.3026  -17.3107 C   0  0  0  0  0  0  0  0  0  0  0  0
   27.2626  -20.1241  -16.9507 O   0  0  0  0  0  0  0  0  0  0  0  0
   25.8317  -19.3987  -18.5540 O   0  0  0  0  0  0  0  0  0  0  0  0
  1  2  1  0
  3  5  1  0
  3  2  1  0
  3  4  1  6
  5  7  1  0
  5  6  1  1
  7  8  2  0
 10 11  1  0
 10  9  1  1
 10 12  1  0
 12 13  1  1
 13  7  1  0
 14 12  1  0
 14 15  2  0
 16 20  1  0
 16 14  1  0
 17 16  1  0
 18 17  1  0
 18 19  1  0
 19 20  1  0
 20 21  1  6
 21 22  2  0
 21 23  1  0
M  END
$$$$
