ITP.pdb
     RDKit          3D

 23 23  0  0  1  0  0  0  0  0999 V2000
   25.0208  -21.1802   -8.2682 C   0  0  0  0  0  0  0  0  0  0  0  0
   24.3459  -21.0933   -9.6032 C   0  0  0  0  0  0  0  0  0  0  0  0
   25.3534  -20.9203  -10.7058 C   0  0  2  0  0  0  0  0  0  0  0  0
   26.3659  -19.8453  -10.3708 C   0  0  0  0  0  0  0  0  0  0  0  0
   24.7923  -20.7782  -12.0785 C   0  0  2  0  0  0  0  0  0  0  0  0
   23.9734  -21.9824  -12.3751 N   0  0  0  0  0  0  0  0  0  0  0  0
   25.7607  -20.6811  -13.1710 C   0  0  0  0  0  0  0  0  0  0  0  0
   26.8020  -21.4359  -13.2134 O   0  0  0  0  0  0  0  0  0  0  0  0
   26.6941  -22.2146  -15.3880 C   0  0  0  0  0  0  0  0  0  0  0  0
   26.3208  -21.0070  -16.1854 C   0  0  1  0  0  0  0  0  0  0  0  0
   24.9132  -20.8831  -16.3119 O   0  0  0  0  0  0  0  0  0  0  0  0
   26.7165  -19.7748  -15.3425 C   0  0  2  0  0  0  0  0  0  0  0  0
   25.6923  -19.7931  -14.2776 N   0  0  0  0  0  0  0  0  0  0  0  0
   26.5559  -18.5718  -16.1921 C   0  0  0  0  0  0  0  0  0  0  0  0
   25.3680  -18.1872  -16.4032 O   0  0  0  0  0  0  0  0  0  0  0  0
   27.6842  -17.8933  -16.7344 N   0  0  0  0  0  0  0  0  0  0  0  0
   29.0558  -18.2192  -16.5178 C   0  0  0  0  0  0  0  0  0  0  0  0
   29.6896  -17.8012  -17.8555 C   0  0  0  0  0  0  0  0  0  0  0  0
   28.9625  -16.4588  -18.0689 C   0  0  0  0  0  0  0  0  0  0  0  0
   27.5783  -16.7299  -17.5477 C   0  0  1  0  0  0  0  0  0  0  0  0
   26.6178  -16.9503  -18.6591 C   0  0  0  0  0  0  0  0  0  0  0  0
   26.3494  -18.1087  -19.0167 O   0  0  0  0  0  0  0  0  0  0  0  0
   26.0322  -15.8790  -19.2851 O   0  0  0  0  0  0  0  0  0  0  0  0
  1  2  1  0
  3  5  1  0
  3  2  1  0
  3  4  1  1
  5  7  1  0
  5  6  1  6
  7  8  2  0
 10 11  1  0
 10  9  1  1
 10 12  1  0
 12 13  1  1
 13  7  1  0
 14 12  1  0
 14 15  2  0
 16 20  1  0
 16 14  1  0
 17 16  1  0
 18 17  1  0
 18 19  1  0
 19 20  1  0
 20 21  1  6
 21 22  2  0
 21 23  1  0
M  END
$$$$
