WWL.pdb
     RDKit          3D

 37 40  0  0  1  0  0  0  0  0999 V2000
   27.0070  -20.4376   -9.8941 N   0  0  0  0  0  0  0  0  0  0  0  0
   25.6878  -20.9812   -9.6475 C   0  0  1  0  0  0  0  0  0  0  0  0
   25.5396  -21.0774   -8.1217 C   0  0  0  0  0  0  0  0  0  0  0  0
   26.6649  -20.3508   -7.4692 C   0  0  0  0  0  0  0  0  0  0  0  0
   27.4978  -19.4131   -8.0557 C   0  0  0  0  0  0  0  0  0  0  0  0
   28.3997  -18.9802   -7.1421 N   0  0  0  0  0  0  0  0  0  0  0  0
   28.1935  -19.5985   -5.9700 C   0  0  0  0  0  0  0  0  0  0  0  0
   28.8287  -19.5106   -4.7503 C   0  0  0  0  0  0  0  0  0  0  0  0
   28.3502  -20.3050   -3.7328 C   0  0  0  0  0  0  0  0  0  0  0  0
   27.2742  -21.1644   -3.9103 C   0  0  0  0  0  0  0  0  0  0  0  0
   26.6655  -21.2267   -5.1382 C   0  0  0  0  0  0  0  0  0  0  0  0
   27.1136  -20.4525   -6.1711 C   0  0  0  0  0  0  0  0  0  0  0  0
   24.6680  -20.0687  -10.2185 C   0  0  0  0  0  0  0  0  0  0  0  0
   24.7772  -18.8173   -9.9938 O   0  0  0  0  0  0  0  0  0  0  0  0
   23.6098  -20.6120  -10.9924 N   0  0  0  0  0  0  0  0  0  0  0  0
   23.5694  -20.4786  -12.4275 C   0  0  1  0  0  0  0  0  0  0  0  0
   24.7995  -21.0976  -13.0110 C   0  0  0  0  0  0  0  0  0  0  0  0
   25.9123  -20.1677  -13.1947 C   0  0  0  0  0  0  0  0  0  0  0  0
   25.7722  -18.8417  -13.5268 C   0  0  0  0  0  0  0  0  0  0  0  0
   26.9824  -18.3005  -13.6095 N   0  0  0  0  0  0  0  0  0  0  0  0
   27.9065  -19.2257  -13.3434 C   0  0  0  0  0  0  0  0  0  0  0  0
   29.3038  -19.1564  -13.3020 C   0  0  0  0  0  0  0  0  0  0  0  0
   30.0373  -20.2786  -12.9952 C   0  0  0  0  0  0  0  0  0  0  0  0
   29.3856  -21.4581  -12.7323 C   0  0  0  0  0  0  0  0  0  0  0  0
   28.0041  -21.5607  -12.7648 C   0  0  0  0  0  0  0  0  0  0  0  0
   27.2562  -20.4241  -13.0757 C   0  0  0  0  0  0  0  0  0  0  0  0
   22.2941  -21.0170  -12.9436 C   0  0  0  0  0  0  0  0  0  0  0  0
   22.1783  -21.1240  -14.1968 O   0  0  0  0  0  0  0  0  0  0  0  0
   19.0286  -24.3018   -9.7758 C   0  0  0  0  0  0  0  0  0  0  0  0
   19.7521  -23.6667  -10.9051 C   0  0  1  0  0  0  0  0  0  0  0  0
   20.1905  -24.7575  -11.8983 C   0  0  0  0  0  0  0  0  0  0  0  0
   19.1628  -22.5079  -11.5789 C   0  0  0  0  0  0  0  0  0  0  0  0
   19.8910  -21.7979  -12.6376 C   0  0  2  0  0  0  0  0  0  0  0  0
   21.2314  -21.4048  -12.1448 N   0  0  0  0  0  0  0  0  0  0  0  0
   19.3433  -20.6119  -13.2604 C   0  0  0  0  0  0  0  0  0  0  0  0
   19.4950  -19.3516  -12.7386 O   0  0  0  0  0  0  0  0  0  0  0  0
   18.6828  -20.6827  -14.3288 O   0  0  0  0  0  0  0  0  0  0  0  0
  2  1  1  1
  3  2  1  0
  3  4  1  0
  4 12  1  0
  4  5  2  0
  5  6  1  0
  7  6  1  0
  7  8  2  0
  9  8  1  0
 10  9  2  0
 11 10  1  0
 11 12  2  0
 12  7  1  0
 13  2  1  0
 14 13  2  0
 15 13  1  0
 16 17  1  6
 16 15  1  0
 17 18  1  0
 18 19  2  0
 19 20  1  0
 21 20  1  0
 22 21  2  0
 23 22  1  0
 24 25  1  0
 24 23  2  0
 25 26  2  0
 26 18  1  0
 26 21  1  0
 27 16  1  0
 28 27  2  0
 30 29  1  1
 30 31  1  0
 33 32  1  1
 32 30  1  0
 33 34  1  0
 34 27  1  0
 35 36  1  0
 35 33  1  0
 37 35  2  0
M  END
$$$$
