WWL.pdb
     RDKit          3D

 37 40  0  0  1  0  0  0  0  0999 V2000
   26.5588  -21.4960  -13.9941 N   0  0  0  0  0  0  0  0  0  0  0  0
   26.6128  -20.4323  -13.0132 C   0  0  1  0  0  0  0  0  0  0  0  0
   25.3873  -19.5435  -13.2732 C   0  0  0  0  0  0  0  0  0  0  0  0
   25.5463  -18.8542  -14.5845 C   0  0  0  0  0  0  0  0  0  0  0  0
   24.5712  -18.6747  -15.5510 C   0  0  0  0  0  0  0  0  0  0  0  0
   25.0999  -18.0041  -16.6028 N   0  0  0  0  0  0  0  0  0  0  0  0
   26.3920  -17.7328  -16.3671 C   0  0  0  0  0  0  0  0  0  0  0  0
   27.3541  -17.0835  -17.1098 C   0  0  0  0  0  0  0  0  0  0  0  0
   28.6105  -16.9772  -16.5571 C   0  0  0  0  0  0  0  0  0  0  0  0
   28.9131  -17.4965  -15.3055 C   0  0  0  0  0  0  0  0  0  0  0  0
   27.9310  -18.1370  -14.5935 C   0  0  0  0  0  0  0  0  0  0  0  0
   26.6724  -18.2611  -15.1109 C   0  0  0  0  0  0  0  0  0  0  0  0
   26.5580  -21.0186  -11.6522 C   0  0  0  0  0  0  0  0  0  0  0  0
   25.8630  -22.0734  -11.4716 O   0  0  0  0  0  0  0  0  0  0  0  0
   27.2760  -20.3925  -10.6004 N   0  0  0  0  0  0  0  0  0  0  0  0
   27.2163  -20.8770   -9.2436 C   0  0  1  0  0  0  0  0  0  0  0  0
   28.4261  -20.4044   -8.5021 C   0  0  0  0  0  0  0  0  0  0  0  0
   28.4636  -20.8016   -7.0958 C   0  0  0  0  0  0  0  0  0  0  0  0
   28.5599  -22.0998   -6.6556 C   0  0  0  0  0  0  0  0  0  0  0  0
   28.5690  -22.0922   -5.3275 N   0  0  0  0  0  0  0  0  0  0  0  0
   28.4822  -20.8360   -4.8857 C   0  0  0  0  0  0  0  0  0  0  0  0
   28.4540  -20.3082   -3.5897 C   0  0  0  0  0  0  0  0  0  0  0  0
   28.3580  -18.9487   -3.4048 C   0  0  0  0  0  0  0  0  0  0  0  0
   28.2906  -18.1232   -4.4998 C   0  0  0  0  0  0  0  0  0  0  0  0
   28.3161  -18.6132   -5.7957 C   0  0  0  0  0  0  0  0  0  0  0  0
   28.4135  -19.9922   -5.9874 C   0  0  0  0  0  0  0  0  0  0  0  0
   25.9238  -20.5005   -8.6351 C   0  0  0  0  0  0  0  0  0  0  0  0
   25.6168  -19.2754   -8.6450 O   0  0  0  0  0  0  0  0  0  0  0  0
   21.2735  -21.6473  -10.1723 C   0  0  0  0  0  0  0  0  0  0  0  0
   22.3853  -21.0387   -9.4006 C   0  0  1  0  0  0  0  0  0  0  0  0
   22.3014  -19.5066   -9.5214 C   0  0  0  0  0  0  0  0  0  0  0  0
   22.6309  -21.4735   -8.0242 C   0  0  0  0  0  0  0  0  0  0  0  0
   23.8271  -21.0347   -7.2948 C   0  0  2  0  0  0  0  0  0  0  0  0
   25.0412  -21.3999   -8.0606 N   0  0  0  0  0  0  0  0  0  0  0  0
   24.0797  -21.4676   -5.9371 C   0  0  0  0  0  0  0  0  0  0  0  0
   24.7596  -22.6198   -5.6306 O   0  0  0  0  0  0  0  0  0  0  0  0
   23.6737  -20.7970   -4.9531 O   0  0  0  0  0  0  0  0  0  0  0  0
  2  1  1  6
  3  2  1  0
  3  4  1  0
  4 12  1  0
  4  5  2  0
  5  6  1  0
  7  6  1  0
  7  8  2  0
  9  8  1  0
 10  9  2  0
 11 10  1  0
 11 12  2  0
 12  7  1  0
 13  2  1  0
 14 13  2  0
 15 13  1  0
 16 17  1  1
 16 15  1  0
 17 18  1  0
 18 19  2  0
 19 20  1  0
 21 20  1  0
 22 21  2  0
 23 22  1  0
 24 25  1  0
 24 23  2  0
 25 26  2  0
 26 18  1  0
 26 21  1  0
 27 16  1  0
 28 27  2  0
 30 29  1  1
 30 31  1  0
 33 32  1  6
 32 30  1  0
 33 34  1  0
 34 27  1  0
 35 36  1  0
 35 33  1  0
 37 35  2  0
M  END
$$$$
