WWL.pdb
     RDKit          3D

 37 40  0  0  1  0  0  0  0  0999 V2000
   27.4632  -22.9771  -15.3725 N   0  0  0  0  0  0  0  0  0  0  0  0
   26.2068  -22.2649  -15.2696 C   0  0  1  0  0  0  0  0  0  0  0  0
   25.1930  -23.0555  -16.1100 C   0  0  0  0  0  0  0  0  0  0  0  0
   25.2857  -22.6220  -17.5325 C   0  0  0  0  0  0  0  0  0  0  0  0
   26.0616  -23.1955  -18.5256 C   0  0  0  0  0  0  0  0  0  0  0  0
   25.8783  -22.5191  -19.6851 N   0  0  0  0  0  0  0  0  0  0  0  0
   25.0077  -21.5168  -19.4951 C   0  0  0  0  0  0  0  0  0  0  0  0
   24.4978  -20.5575  -20.3428 C   0  0  0  0  0  0  0  0  0  0  0  0
   23.6023  -19.6581  -19.8096 C   0  0  0  0  0  0  0  0  0  0  0  0
   23.2180  -19.7009  -18.4761 C   0  0  0  0  0  0  0  0  0  0  0  0
   23.7456  -20.6694  -17.6603 C   0  0  0  0  0  0  0  0  0  0  0  0
   24.6371  -21.5789  -18.1554 C   0  0  0  0  0  0  0  0  0  0  0  0
   25.7871  -22.2160  -13.8482 C   0  0  0  0  0  0  0  0  0  0  0  0
   25.8942  -23.2757  -13.1453 O   0  0  0  0  0  0  0  0  0  0  0  0
   25.2835  -21.0000  -13.3174 N   0  0  0  0  0  0  0  0  0  0  0  0
   24.7420  -20.9176  -11.9836 C   0  0  1  0  0  0  0  0  0  0  0  0
   25.5710  -19.9692  -11.1772 C   0  0  0  0  0  0  0  0  0  0  0  0
   26.8113  -20.5441  -10.6596 C   0  0  0  0  0  0  0  0  0  0  0  0
   27.6490  -21.3632  -11.3777 C   0  0  0  0  0  0  0  0  0  0  0  0
   28.6746  -21.6967  -10.6024 N   0  0  0  0  0  0  0  0  0  0  0  0
   28.5360  -21.1246   -9.4048 C   0  0  0  0  0  0  0  0  0  0  0  0
   29.3378  -21.1662   -8.2583 C   0  0  0  0  0  0  0  0  0  0  0  0
   28.9608  -20.4724   -7.1322 C   0  0  0  0  0  0  0  0  0  0  0  0
   27.7968  -19.7444   -7.1479 C   0  0  0  0  0  0  0  0  0  0  0  0
   26.9807  -19.6822   -8.2660 C   0  0  0  0  0  0  0  0  0  0  0  0
   27.3599  -20.3849   -9.4107 C   0  0  0  0  0  0  0  0  0  0  0  0
   23.3029  -20.5901  -12.0480 C   0  0  0  0  0  0  0  0  0  0  0  0
   22.9942  -19.3749  -12.2010 O   0  0  0  0  0  0  0  0  0  0  0  0
   19.9599  -23.4293  -15.1934 C   0  0  0  0  0  0  0  0  0  0  0  0
   20.4942  -23.0363  -13.8660 C   0  0  1  0  0  0  0  0  0  0  0  0
   21.9266  -23.5799  -13.7196 C   0  0  0  0  0  0  0  0  0  0  0  0
   20.3821  -21.6441  -13.4265 C   0  0  0  0  0  0  0  0  0  0  0  0
   20.8405  -21.2327  -12.0939 C   0  0  2  0  0  0  0  0  0  0  0  0
   22.2855  -21.5246  -11.9504 N   0  0  0  0  0  0  0  0  0  0  0  0
   20.2190  -21.7493  -10.8933 C   0  0  0  0  0  0  0  0  0  0  0  0
   20.9209  -22.3774   -9.8951 O   0  0  0  0  0  0  0  0  0  0  0  0
   18.9787  -21.6503  -10.7072 O   0  0  0  0  0  0  0  0  0  0  0  0
  2  1  1  1
  3  2  1  0
  3  4  1  0
  4 12  1  0
  4  5  2  0
  5  6  1  0
  7  6  1  0
  7  8  2  0
  9  8  1  0
 10  9  2  0
 11 10  1  0
 11 12  2  0
 12  7  1  0
 13  2  1  0
 14 13  2  0
 15 13  1  0
 16 17  1  1
 16 15  1  0
 17 18  1  0
 18 19  2  0
 19 20  1  0
 21 20  1  0
 22 21  2  0
 23 22  1  0
 24 25  1  0
 24 23  2  0
 25 26  2  0
 26 18  1  0
 26 21  1  0
 27 16  1  0
 28 27  2  0
 30 29  1  6
 30 31  1  0
 33 32  1  6
 32 30  1  0
 33 34  1  0
 34 27  1  0
 35 36  1  0
 35 33  1  0
 37 35  2  0
M  END
$$$$
