WWL.pdb
     RDKit          3D

 37 40  0  0  1  0  0  0  0  0999 V2000
   27.3534  -21.2799  -15.2349 N   0  0  0  0  0  0  0  0  0  0  0  0
   26.3547  -20.5454  -14.4868 C   0  0  1  0  0  0  0  0  0  0  0  0
   25.0115  -20.8141  -15.1818 C   0  0  0  0  0  0  0  0  0  0  0  0
   25.0193  -20.1845  -16.5322 C   0  0  0  0  0  0  0  0  0  0  0  0
   25.3158  -20.8037  -17.7346 C   0  0  0  0  0  0  0  0  0  0  0  0
   25.2179  -19.9013  -18.7403 N   0  0  0  0  0  0  0  0  0  0  0  0
   24.8667  -18.7049  -18.2463 C   0  0  0  0  0  0  0  0  0  0  0  0
   24.6419  -17.4839  -18.8442 C   0  0  0  0  0  0  0  0  0  0  0  0
   24.2874  -16.4370  -18.0236 C   0  0  0  0  0  0  0  0  0  0  0  0
   24.1573  -16.5870  -16.6494 C   0  0  0  0  0  0  0  0  0  0  0  0
   24.3887  -17.8168  -16.0875 C   0  0  0  0  0  0  0  0  0  0  0  0
   24.7424  -18.8787  -16.8714 C   0  0  0  0  0  0  0  0  0  0  0  0
   26.3309  -21.0377  -13.0883 C   0  0  0  0  0  0  0  0  0  0  0  0
   26.3480  -22.2975  -12.8863 O   0  0  0  0  0  0  0  0  0  0  0  0
   26.2909  -20.0983  -12.0253 N   0  0  0  0  0  0  0  0  0  0  0  0
   26.3198  -20.5098  -10.6437 C   0  0  1  0  0  0  0  0  0  0  0  0
   27.2315  -19.6013   -9.8820 C   0  0  0  0  0  0  0  0  0  0  0  0
   27.6611  -20.1266   -8.5873 C   0  0  0  0  0  0  0  0  0  0  0  0
   28.0623  -21.4223   -8.3670 C   0  0  0  0  0  0  0  0  0  0  0  0
   28.3822  -21.5494   -7.0842 N   0  0  0  0  0  0  0  0  0  0  0  0
   28.2041  -20.3834   -6.4600 C   0  0  0  0  0  0  0  0  0  0  0  0
   28.3985  -20.0058   -5.1263 C   0  0  0  0  0  0  0  0  0  0  0  0
   28.1348  -18.7143   -4.7338 C   0  0  0  0  0  0  0  0  0  0  0  0
   27.6821  -17.8079   -5.6605 C   0  0  0  0  0  0  0  0  0  0  0  0
   27.4793  -18.1491   -6.9881 C   0  0  0  0  0  0  0  0  0  0  0  0
   27.7457  -19.4587   -7.3903 C   0  0  0  0  0  0  0  0  0  0  0  0
   24.9415  -20.5952  -10.1188 C   0  0  0  0  0  0  0  0  0  0  0  0
   24.8080  -20.7888   -8.8778 O   0  0  0  0  0  0  0  0  0  0  0  0
   20.3669  -19.2029  -13.4633 C   0  0  0  0  0  0  0  0  0  0  0  0
   21.4630  -19.8324  -12.6859 C   0  0  1  0  0  0  0  0  0  0  0  0
   22.7761  -19.7113  -13.4795 C   0  0  0  0  0  0  0  0  0  0  0  0
   21.6355  -19.4882  -11.2732 C   0  0  0  0  0  0  0  0  0  0  0  0
   22.4218  -20.3446  -10.3769 C   0  0  2  0  0  0  0  0  0  0  0  0
   23.8021  -20.4783  -10.8973 N   0  0  0  0  0  0  0  0  0  0  0  0
   21.9951  -21.6903  -10.0583 C   0  0  0  0  0  0  0  0  0  0  0  0
   22.7750  -22.7977  -10.2802 O   0  0  0  0  0  0  0  0  0  0  0  0
   20.8625  -21.9137   -9.5581 O   0  0  0  0  0  0  0  0  0  0  0  0
  2  1  1  6
  3  2  1  0
  3  4  1  0
  4 12  1  0
  4  5  2  0
  5  6  1  0
  7  6  1  0
  7  8  2  0
  9  8  1  0
 10  9  2  0
 11 10  1  0
 11 12  2  0
 12  7  1  0
 13  2  1  0
 14 13  2  0
 15 13  1  0
 16 17  1  1
 16 15  1  0
 17 18  1  0
 18 19  2  0
 19 20  1  0
 21 20  1  0
 22 21  2  0
 23 22  1  0
 24 25  1  0
 24 23  2  0
 25 26  2  0
 26 18  1  0
 26 21  1  0
 27 16  1  0
 28 27  2  0
 30 29  1  6
 30 31  1  0
 33 32  1  6
 32 30  1  0
 33 34  1  0
 34 27  1  0
 35 36  1  0
 35 33  1  0
 37 35  2  0
M  END
$$$$
