WWL.pdb
     RDKit          3D

 37 40  0  0  1  0  0  0  0  0999 V2000
   28.6891  -20.8661  -14.7516 N   0  0  0  0  0  0  0  0  0  0  0  0
   27.5541  -20.1063  -14.2709 C   0  0  1  0  0  0  0  0  0  0  0  0
   26.6544  -19.8572  -15.4907 C   0  0  0  0  0  0  0  0  0  0  0  0
   27.2590  -18.7941  -16.3417 C   0  0  0  0  0  0  0  0  0  0  0  0
   27.8660  -18.9635  -17.5745 C   0  0  0  0  0  0  0  0  0  0  0  0
   28.2935  -17.7624  -18.0331 N   0  0  0  0  0  0  0  0  0  0  0  0
   27.9909  -16.8025  -17.1468 C   0  0  0  0  0  0  0  0  0  0  0  0
   28.2065  -15.4414  -17.1434 C   0  0  0  0  0  0  0  0  0  0  0  0
   27.7567  -14.7356  -16.0504 C   0  0  0  0  0  0  0  0  0  0  0  0
   27.1113  -15.3528  -14.9872 C   0  0  0  0  0  0  0  0  0  0  0  0
   26.9134  -16.7098  -15.0236 C   0  0  0  0  0  0  0  0  0  0  0  0
   27.3465  -17.4424  -16.0926 C   0  0  0  0  0  0  0  0  0  0  0  0
   26.8372  -20.8964  -13.2411 C   0  0  0  0  0  0  0  0  0  0  0  0
   26.6219  -22.1342  -13.4644 O   0  0  0  0  0  0  0  0  0  0  0  0
   26.4162  -20.2554  -12.0470 N   0  0  0  0  0  0  0  0  0  0  0  0
   25.4349  -20.8458  -11.1708 C   0  0  1  0  0  0  0  0  0  0  0  0
   25.7061  -20.4071   -9.7670 C   0  0  0  0  0  0  0  0  0  0  0  0
   27.0365  -20.7578   -9.2730 C   0  0  0  0  0  0  0  0  0  0  0  0
   27.9569  -21.4991   -9.9740 C   0  0  0  0  0  0  0  0  0  0  0  0
   29.0495  -21.6233   -9.2290 N   0  0  0  0  0  0  0  0  0  0  0  0
   28.8748  -20.9896   -8.0677 C   0  0  0  0  0  0  0  0  0  0  0  0
   29.7177  -20.8303   -6.9617 C   0  0  0  0  0  0  0  0  0  0  0  0
   29.2867  -20.1162   -5.8681 C   0  0  0  0  0  0  0  0  0  0  0  0
   28.0287  -19.5662   -5.8761 C   0  0  0  0  0  0  0  0  0  0  0  0
   27.1698  -19.7050   -6.9545 C   0  0  0  0  0  0  0  0  0  0  0  0
   27.6035  -20.4291   -8.0661 C   0  0  0  0  0  0  0  0  0  0  0  0
   24.0764  -20.5457  -11.6678 C   0  0  0  0  0  0  0  0  0  0  0  0
   23.7783  -19.3294  -11.8326 O   0  0  0  0  0  0  0  0  0  0  0  0
   21.7703  -23.6004  -15.6757 C   0  0  0  0  0  0  0  0  0  0  0  0
   21.8712  -23.1479  -14.2660 C   0  0  1  0  0  0  0  0  0  0  0  0
   23.0900  -23.8194  -13.6085 C   0  0  0  0  0  0  0  0  0  0  0  0
   21.7941  -21.7180  -13.9600 C   0  0  0  0  0  0  0  0  0  0  0  0
   21.8009  -21.2405  -12.5718 C   0  0  2  0  0  0  0  0  0  0  0  0
   23.1225  -21.5066  -11.9584 N   0  0  0  0  0  0  0  0  0  0  0  0
   20.8255  -21.7101  -11.6113 C   0  0  0  0  0  0  0  0  0  0  0  0
   19.4752  -21.5094  -11.7530 O   0  0  0  0  0  0  0  0  0  0  0  0
   21.1776  -22.3322  -10.5760 O   0  0  0  0  0  0  0  0  0  0  0  0
  2  1  1  6
  3  2  1  0
  3  4  1  0
  4 12  1  0
  4  5  2  0
  5  6  1  0
  7  6  1  0
  7  8  2  0
  9  8  1  0
 10  9  2  0
 11 10  1  0
 11 12  2  0
 12  7  1  0
 13  2  1  0
 14 13  2  0
 15 13  1  0
 16 17  1  1
 16 15  1  0
 17 18  1  0
 18 19  2  0
 19 20  1  0
 21 20  1  0
 22 21  2  0
 23 22  1  0
 24 25  1  0
 24 23  2  0
 25 26  2  0
 26 18  1  0
 26 21  1  0
 27 16  1  0
 28 27  2  0
 30 29  1  6
 30 31  1  0
 33 32  1  6
 32 30  1  0
 33 34  1  0
 34 27  1  0
 35 36  1  0
 35 33  1  0
 37 35  2  0
M  END
$$$$
