WWL.pdb
     RDKit          3D

 37 40  0  0  1  0  0  0  0  0999 V2000
   27.6512  -21.4171  -15.0419 N   0  0  0  0  0  0  0  0  0  0  0  0
   28.1145  -21.2874  -13.6762 C   0  0  1  0  0  0  0  0  0  0  0  0
   29.3399  -20.3624  -13.7228 C   0  0  0  0  0  0  0  0  0  0  0  0
   30.5530  -21.1653  -14.0447 C   0  0  0  0  0  0  0  0  0  0  0  0
   31.2336  -21.1929  -15.2501 C   0  0  0  0  0  0  0  0  0  0  0  0
   32.2825  -22.0451  -15.1538 N   0  0  0  0  0  0  0  0  0  0  0  0
   32.3208  -22.5834  -13.9261 C   0  0  0  0  0  0  0  0  0  0  0  0
   33.1754  -23.4896  -13.3366 C   0  0  0  0  0  0  0  0  0  0  0  0
   32.9216  -23.8350  -12.0284 C   0  0  0  0  0  0  0  0  0  0  0  0
   31.8543  -23.3027  -11.3176 C   0  0  0  0  0  0  0  0  0  0  0  0
   31.0233  -22.4030  -11.9357 C   0  0  0  0  0  0  0  0  0  0  0  0
   31.2448  -22.0371  -13.2335 C   0  0  0  0  0  0  0  0  0  0  0  0
   27.0375  -20.6924  -12.8487 C   0  0  0  0  0  0  0  0  0  0  0  0
   26.7115  -19.4764  -13.0569 O   0  0  0  0  0  0  0  0  0  0  0  0
   26.4069  -21.4891  -11.8579 N   0  0  0  0  0  0  0  0  0  0  0  0
   25.3849  -20.9580  -10.9903 C   0  0  1  0  0  0  0  0  0  0  0  0
   24.0476  -21.4325  -11.4626 C   0  0  0  0  0  0  0  0  0  0  0  0
   23.4717  -20.6326  -12.5421 C   0  0  0  0  0  0  0  0  0  0  0  0
   23.7941  -20.7707  -13.8708 C   0  0  0  0  0  0  0  0  0  0  0  0
   23.0853  -19.8895  -14.5675 N   0  0  0  0  0  0  0  0  0  0  0  0
   22.3124  -19.1820  -13.7412 C   0  0  0  0  0  0  0  0  0  0  0  0
   21.3977  -18.1503  -13.9819 C   0  0  0  0  0  0  0  0  0  0  0  0
   20.7169  -17.5786  -12.9324 C   0  0  0  0  0  0  0  0  0  0  0  0
   20.9450  -18.0300  -11.6560 C   0  0  0  0  0  0  0  0  0  0  0  0
   21.8435  -19.0491  -11.3835 C   0  0  0  0  0  0  0  0  0  0  0  0
   22.5362  -19.6318  -12.4458 C   0  0  0  0  0  0  0  0  0  0  0  0
   25.7033  -21.2844   -9.5851 C   0  0  0  0  0  0  0  0  0  0  0  0
   26.0176  -22.4805   -9.3279 O   0  0  0  0  0  0  0  0  0  0  0  0
   28.0988  -17.7502   -5.9447 C   0  0  0  0  0  0  0  0  0  0  0  0
   27.6976  -19.0485   -6.5409 C   0  0  1  0  0  0  0  0  0  0  0  0
   28.7293  -20.1215   -6.1499 C   0  0  0  0  0  0  0  0  0  0  0  0
   26.3204  -19.5201   -6.3829 C   0  0  0  0  0  0  0  0  0  0  0  0
   25.8368  -20.6993   -7.1117 C   0  0  2  0  0  0  0  0  0  0  0  0
   25.6764  -20.3687   -8.5466 N   0  0  0  0  0  0  0  0  0  0  0  0
   24.6125  -21.3690   -6.7284 C   0  0  0  0  0  0  0  0  0  0  0  0
   24.5235  -22.2108   -5.6480 O   0  0  0  0  0  0  0  0  0  0  0  0
   23.5510  -21.2128   -7.3854 O   0  0  0  0  0  0  0  0  0  0  0  0
  2  1  1  6
  3  2  1  0
  3  4  1  0
  4 12  1  0
  4  5  2  0
  5  6  1  0
  7  6  1  0
  7  8  2  0
  9  8  1  0
 10  9  2  0
 11 10  1  0
 11 12  2  0
 12  7  1  0
 13  2  1  0
 14 13  2  0
 15 13  1  0
 16 17  1  6
 16 15  1  0
 17 18  1  0
 18 19  2  0
 19 20  1  0
 21 20  1  0
 22 21  2  0
 23 22  1  0
 24 25  1  0
 24 23  2  0
 25 26  2  0
 26 18  1  0
 26 21  1  0
 27 16  1  0
 28 27  2  0
 30 29  1  1
 30 31  1  0
 33 32  1  1
 32 30  1  0
 33 34  1  0
 34 27  1  0
 35 36  1  0
 35 33  1  0
 37 35  2  0
M  END
$$$$
