WWL.pdb
     RDKit          3D

 37 40  0  0  1  0  0  0  0  0999 V2000
   27.0114  -18.3426  -13.9515 N   0  0  0  0  0  0  0  0  0  0  0  0
   26.8855  -19.6994  -14.4412 C   0  0  1  0  0  0  0  0  0  0  0  0
   28.2582  -20.0790  -15.0165 C   0  0  0  0  0  0  0  0  0  0  0  0
   28.6382  -19.1009  -16.0742 C   0  0  0  0  0  0  0  0  0  0  0  0
   29.8761  -18.5052  -16.2471 C   0  0  0  0  0  0  0  0  0  0  0  0
   29.8286  -17.6735  -17.3157 N   0  0  0  0  0  0  0  0  0  0  0  0
   28.6019  -17.6973  -17.8572 C   0  0  0  0  0  0  0  0  0  0  0  0
   28.0518  -17.0422  -18.9375 C   0  0  0  0  0  0  0  0  0  0  0  0
   26.7310  -17.3024  -19.2257 C   0  0  0  0  0  0  0  0  0  0  0  0
   25.9702  -18.1846  -18.4703 C   0  0  0  0  0  0  0  0  0  0  0  0
   26.5500  -18.8196  -17.4013 C   0  0  0  0  0  0  0  0  0  0  0  0
   27.8588  -18.5855  -17.0860 C   0  0  0  0  0  0  0  0  0  0  0  0
   26.5213  -20.5938  -13.3160 C   0  0  0  0  0  0  0  0  0  0  0  0
   26.7056  -21.8491  -13.4522 O   0  0  0  0  0  0  0  0  0  0  0  0
   25.9832  -20.0293  -12.1303 N   0  0  0  0  0  0  0  0  0  0  0  0
   25.0748  -20.7609  -11.2826 C   0  0  1  0  0  0  0  0  0  0  0  0
   25.3853  -20.4527   -9.8524 C   0  0  0  0  0  0  0  0  0  0  0  0
   26.7697  -20.7192   -9.4659 C   0  0  0  0  0  0  0  0  0  0  0  0
   27.6613  -21.4471  -10.2166 C   0  0  0  0  0  0  0  0  0  0  0  0
   28.8198  -21.4876   -9.5681 N   0  0  0  0  0  0  0  0  0  0  0  0
   28.7158  -20.8124   -8.4218 C   0  0  0  0  0  0  0  0  0  0  0  0
   29.6431  -20.5658   -7.4028 C   0  0  0  0  0  0  0  0  0  0  0  0
   29.2741  -19.8252   -6.3042 C   0  0  0  0  0  0  0  0  0  0  0  0
   27.9943  -19.3350   -6.2214 C   0  0  0  0  0  0  0  0  0  0  0  0
   27.0524  -19.5608   -7.2122 C   0  0  0  0  0  0  0  0  0  0  0  0
   27.4229  -20.3119   -8.3286 C   0  0  0  0  0  0  0  0  0  0  0  0
   23.6814  -20.4897  -11.6918 C   0  0  0  0  0  0  0  0  0  0  0  0
   23.3221  -19.2802  -11.7486 O   0  0  0  0  0  0  0  0  0  0  0  0
   21.4407  -23.4622  -15.6601 C   0  0  0  0  0  0  0  0  0  0  0  0
   21.7309  -22.3329  -14.7421 C   0  0  1  0  0  0  0  0  0  0  0  0
   21.7133  -21.0179  -15.5416 C   0  0  0  0  0  0  0  0  0  0  0  0
   20.9983  -22.2234  -13.4790 C   0  0  0  0  0  0  0  0  0  0  0  0
   21.3723  -21.2222  -12.4725 C   0  0  2  0  0  0  0  0  0  0  0  0
   22.7577  -21.4708  -12.0112 N   0  0  0  0  0  0  0  0  0  0  0  0
   20.5896  -21.0383  -11.2692 C   0  0  0  0  0  0  0  0  0  0  0  0
   20.9244  -21.6000  -10.0625 O   0  0  0  0  0  0  0  0  0  0  0  0
   19.5396  -20.3453  -11.2743 O   0  0  0  0  0  0  0  0  0  0  0  0
  2  1  1  1
  3  2  1  0
  3  4  1  0
  4 12  1  0
  4  5  2  0
  5  6  1  0
  7  6  1  0
  7  8  2  0
  9  8  1  0
 10  9  2  0
 11 10  1  0
 11 12  2  0
 12  7  1  0
 13  2  1  0
 14 13  2  0
 15 13  1  0
 16 17  1  1
 16 15  1  0
 17 18  1  0
 18 19  2  0
 19 20  1  0
 21 20  1  0
 22 21  2  0
 23 22  1  0
 24 25  1  0
 24 23  2  0
 25 26  2  0
 26 18  1  0
 26 21  1  0
 27 16  1  0
 28 27  2  0
 30 29  1  6
 30 31  1  0
 33 32  1  1
 32 30  1  0
 33 34  1  0
 34 27  1  0
 35 36  1  0
 35 33  1  0
 37 35  2  0
M  END
$$$$
