WWL.pdb
     RDKit          3D

 37 40  0  0  1  0  0  0  0  0999 V2000
   15.1312  -15.7474    4.9661 N   0  0  0  0  0  0  0  0  0  0  0  0
   16.3988  -16.4351    4.8368 C   0  0  1  0  0  0  0  0  0  0  0  0
   17.3953  -15.6725    5.7226 C   0  0  0  0  0  0  0  0  0  0  0  0
   17.9492  -14.5173    4.9618 C   0  0  0  0  0  0  0  0  0  0  0  0
   17.8549  -13.1784    5.3014 C   0  0  0  0  0  0  0  0  0  0  0  0
   18.4808  -12.4315    4.3601 N   0  0  0  0  0  0  0  0  0  0  0  0
   18.9868  -13.2291    3.4081 C   0  0  0  0  0  0  0  0  0  0  0  0
   19.6984  -12.9648    2.2579 C   0  0  0  0  0  0  0  0  0  0  0  0
   20.0726  -14.0427    1.4876 C   0  0  0  0  0  0  0  0  0  0  0  0
   19.7549  -15.3477    1.8394 C   0  0  0  0  0  0  0  0  0  0  0  0
   19.0452  -15.5744    2.9913 C   0  0  0  0  0  0  0  0  0  0  0  0
   18.6571  -14.5285    3.7805 C   0  0  0  0  0  0  0  0  0  0  0  0
   16.2458  -17.8347    5.3019 C   0  0  0  0  0  0  0  0  0  0  0  0
   15.2545  -18.1216    6.0526 O   0  0  0  0  0  0  0  0  0  0  0  0
   17.2000  -18.8052    4.8998 N   0  0  0  0  0  0  0  0  0  0  0  0
   17.2018  -20.1416    5.4411 C   0  0  1  0  0  0  0  0  0  0  0  0
   17.5734  -21.1063    4.3604 C   0  0  0  0  0  0  0  0  0  0  0  0
   16.8057  -20.9526    3.1260 C   0  0  0  0  0  0  0  0  0  0  0  0
   16.5094  -19.7463    2.5384 C   0  0  0  0  0  0  0  0  0  0  0  0
   15.8037  -19.9787    1.4375 N   0  0  0  0  0  0  0  0  0  0  0  0
   15.6293  -21.2930    1.2858 C   0  0  0  0  0  0  0  0  0  0  0  0
   14.9660  -22.0333    0.3004 C   0  0  0  0  0  0  0  0  0  0  0  0
   14.9331  -23.4060    0.3796 C   0  0  0  0  0  0  0  0  0  0  0  0
   15.5548  -24.0350    1.4299 C   0  0  0  0  0  0  0  0  0  0  0  0
   16.2199  -23.3320    2.4216 C   0  0  0  0  0  0  0  0  0  0  0  0
   16.2554  -21.9389    2.3447 C   0  0  0  0  0  0  0  0  0  0  0  0
   18.0570  -20.1919    6.6447 C   0  0  0  0  0  0  0  0  0  0  0  0
   18.1758  -21.3093    7.2215 O   0  0  0  0  0  0  0  0  0  0  0  0
   22.6291  -19.1204    9.5667 C   0  0  0  0  0  0  0  0  0  0  0  0
   21.7995  -17.9816    9.1011 C   0  0  1  0  0  0  0  0  0  0  0  0
   22.7201  -16.7990    8.7509 C   0  0  0  0  0  0  0  0  0  0  0  0
   20.7733  -18.2061    8.0810 C   0  0  0  0  0  0  0  0  0  0  0  0
   19.6692  -19.1454    8.3132 C   0  0  2  0  0  0  0  0  0  0  0  0
   18.7262  -19.1001    7.1719 N   0  0  0  0  0  0  0  0  0  0  0  0
   18.8461  -19.0581    9.5004 C   0  0  0  0  0  0  0  0  0  0  0  0
   17.8052  -18.1729    9.6290 O   0  0  0  0  0  0  0  0  0  0  0  0
   19.0546  -19.8011   10.4940 O   0  0  0  0  0  0  0  0  0  0  0  0
  2  1  1  1
  3  2  1  0
  3  4  1  0
  4 12  1  0
  4  5  2  0
  5  6  1  0
  7  6  1  0
  7  8  2  0
  9  8  1  0
 10  9  2  0
 11 10  1  0
 11 12  2  0
 12  7  1  0
 13  2  1  0
 14 13  2  0
 15 13  1  0
 16 17  1  6
 16 15  1  0
 17 18  1  0
 18 19  2  0
 19 20  1  0
 21 20  1  0
 22 21  2  0
 23 22  1  0
 24 25  1  0
 24 23  2  0
 25 26  2  0
 26 18  1  0
 26 21  1  0
 27 16  1  0
 28 27  2  0
 30 29  1  6
 30 31  1  0
 33 32  1  6
 32 30  1  0
 33 34  1  0
 34 27  1  0
 35 36  1  0
 35 33  1  0
 37 35  2  0
M  END
$$$$
