LCW.pdb
     RDKit          3D

 29 30  0  0  1  0  0  0  0  0999 V2000
   29.4142  -19.0676  -15.6364 C   0  0  0  0  0  0  0  0  0  0  0  0
   28.3014  -18.1189  -16.1117 C   0  0  2  0  0  0  0  0  0  0  0  0
   28.9558  -16.8233  -16.4666 C   0  0  0  0  0  0  0  0  0  0  0  0
   27.3147  -18.0308  -15.0077 C   0  0  0  0  0  0  0  0  0  0  0  0
   26.8720  -19.3564  -14.4299 C   0  0  2  0  0  0  0  0  0  0  0  0
   26.1486  -20.0198  -15.4949 N   0  0  0  0  0  0  0  0  0  0  0  0
   26.0038  -19.1480  -13.2443 C   0  0  0  0  0  0  0  0  0  0  0  0
   25.2978  -18.1029  -13.1743 O   0  0  0  0  0  0  0  0  0  0  0  0
   25.9101  -20.0637  -12.1696 N   0  0  0  0  0  0  0  0  0  0  0  0
   24.9005  -19.8545  -11.1170 C   0  0  1  0  0  0  0  0  0  0  0  0
   23.5303  -19.9780  -11.8073 C   0  0  0  0  0  0  0  0  0  0  0  0
   23.3261  -21.6365  -12.4607 S   0  0  0  0  0  0  0  0  0  0  0  0
   25.0906  -20.8415  -10.0430 C   0  0  0  0  0  0  0  0  0  0  0  0
   25.4463  -22.0449  -10.3479 O   0  0  0  0  0  0  0  0  0  0  0  0
   24.9032  -20.5370   -8.7005 N   0  0  0  0  0  0  0  0  0  0  0  0
   24.7460  -21.4482   -7.5862 C   0  0  1  0  0  0  0  0  0  0  0  0
   25.4746  -21.0208   -6.3853 C   0  0  0  0  0  0  0  0  0  0  0  0
   26.6224  -20.1320   -6.6245 C   0  0  0  0  0  0  0  0  0  0  0  0
   26.9748  -19.4377   -7.7463 C   0  0  0  0  0  0  0  0  0  0  0  0
   28.0984  -18.7303   -7.5317 N   0  0  0  0  0  0  0  0  0  0  0  0
   28.4940  -18.9550   -6.2619 C   0  0  0  0  0  0  0  0  0  0  0  0
   29.5625  -18.4786   -5.5355 C   0  0  0  0  0  0  0  0  0  0  0  0
   29.7332  -18.8641   -4.2315 C   0  0  0  0  0  0  0  0  0  0  0  0
   28.8520  -19.7212   -3.6375 C   0  0  0  0  0  0  0  0  0  0  0  0
   27.7629  -20.2116   -4.3661 C   0  0  0  0  0  0  0  0  0  0  0  0
   27.5944  -19.8228   -5.6743 C   0  0  0  0  0  0  0  0  0  0  0  0
   23.3290  -21.8748   -7.3863 C   0  0  0  0  0  0  0  0  0  0  0  0
   22.2475  -21.4479   -8.1098 O   0  0  0  0  0  0  0  0  0  0  0  0
   23.1058  -22.7199   -6.4566 O   0  0  0  0  0  0  0  0  0  0  0  0
  2  1  1  1
  3  2  1  0
  4  2  1  0
  5  4  1  0
  5  6  1  6
  7  8  2  0
  7  5  1  0
  9  7  1  0
 10  9  1  0
 10 11  1  6
 11 12  1  0
 13 15  1  0
 13 10  1  0
 14 13  2  0
 16 15  1  0
 17 18  1  0
 16 17  1  1
 18 19  2  0
 19 20  1  0
 21 20  1  0
 22 21  2  0
 23 22  1  0
 24 25  1  0
 24 23  2  0
 25 26  2  0
 26 18  1  0
 26 21  1  0
 27 16  1  0
 27 28  1  0
 29 27  2  0
M  END
$$$$
