LCW.pdb
     RDKit          3D

 29 30  0  0  1  0  0  0  0  0999 V2000
   25.9417  -26.0333  -17.8502 C   0  0  0  0  0  0  0  0  0  0  0  0
   27.4722  -26.0080  -17.9953 C   0  0  2  0  0  0  0  0  0  0  0  0
   27.9627  -27.3830  -17.6767 C   0  0  0  0  0  0  0  0  0  0  0  0
   27.9702  -24.9481  -17.0850 C   0  0  0  0  0  0  0  0  0  0  0  0
   27.3788  -23.5743  -17.3089 C   0  0  2  0  0  0  0  0  0  0  0  0
   27.9436  -23.1096  -18.5589 N   0  0  0  0  0  0  0  0  0  0  0  0
   27.7321  -22.6629  -16.1920 C   0  0  0  0  0  0  0  0  0  0  0  0
   28.7503  -22.9166  -15.4889 O   0  0  0  0  0  0  0  0  0  0  0  0
   26.9913  -21.5035  -15.8609 N   0  0  0  0  0  0  0  0  0  0  0  0
   27.4426  -20.6383  -14.7569 C   0  0  1  0  0  0  0  0  0  0  0  0
   27.2747  -19.1905  -15.2516 C   0  0  0  0  0  0  0  0  0  0  0  0
   27.4869  -18.0515  -13.8816 S   0  0  0  0  0  0  0  0  0  0  0  0
   26.6552  -20.9243  -13.5478 C   0  0  0  0  0  0  0  0  0  0  0  0
   25.3722  -21.0359  -13.6423 O   0  0  0  0  0  0  0  0  0  0  0  0
   27.2331  -21.0815  -12.2942 N   0  0  0  0  0  0  0  0  0  0  0  0
   26.5808  -21.1121  -11.0019 C   0  0  1  0  0  0  0  0  0  0  0  0
   27.5168  -20.9631   -9.8805 C   0  0  0  0  0  0  0  0  0  0  0  0
   26.8995  -20.6911   -8.5730 C   0  0  0  0  0  0  0  0  0  0  0  0
   25.5883  -20.7414   -8.1951 C   0  0  0  0  0  0  0  0  0  0  0  0
   25.4588  -20.4296   -6.8931 N   0  0  0  0  0  0  0  0  0  0  0  0
   26.6890  -20.1717   -6.4038 C   0  0  0  0  0  0  0  0  0  0  0  0
   27.1203  -19.8176   -5.1449 C   0  0  0  0  0  0  0  0  0  0  0  0
   28.4553  -19.6201   -4.9065 C   0  0  0  0  0  0  0  0  0  0  0  0
   29.3713  -19.7700   -5.9078 C   0  0  0  0  0  0  0  0  0  0  0  0
   28.9443  -20.1292   -7.1907 C   0  0  0  0  0  0  0  0  0  0  0  0
   27.6041  -20.3269   -7.4266 C   0  0  0  0  0  0  0  0  0  0  0  0
   25.3511  -20.2662  -10.9570 C   0  0  0  0  0  0  0  0  0  0  0  0
   24.1150  -20.6612  -10.5195 O   0  0  0  0  0  0  0  0  0  0  0  0
   25.4640  -19.0608  -11.3603 O   0  0  0  0  0  0  0  0  0  0  0  0
  2  1  1  1
  3  2  1  0
  4  2  1  0
  5  4  1  0
  5  6  1  6
  7  8  2  0
  7  5  1  0
  9  7  1  0
 10  9  1  0
 10 11  1  6
 11 12  1  0
 13 15  1  0
 13 10  1  0
 14 13  2  0
 16 15  1  0
 17 18  1  0
 16 17  1  1
 18 19  2  0
 19 20  1  0
 21 20  1  0
 22 21  2  0
 23 22  1  0
 24 25  1  0
 24 23  2  0
 25 26  2  0
 26 18  1  0
 26 21  1  0
 27 16  1  0
 27 28  1  0
 29 27  2  0
M  END
$$$$
