LCW.pdb
     RDKit          3D

 29 30  0  0  1  0  0  0  0  0999 V2000
   19.6407  -17.8947  -15.8590 C   0  0  0  0  0  0  0  0  0  0  0  0
   20.5445  -18.9852  -16.4574 C   0  0  2  0  0  0  0  0  0  0  0  0
   19.7213  -19.7348  -17.4540 C   0  0  0  0  0  0  0  0  0  0  0  0
   21.0360  -19.8032  -15.3218 C   0  0  0  0  0  0  0  0  0  0  0  0
   21.9690  -19.0903  -14.3687 C   0  0  2  0  0  0  0  0  0  0  0  0
   22.4837  -17.9561  -15.1077 N   0  0  0  0  0  0  0  0  0  0  0  0
   23.0680  -19.9906  -13.9390 C   0  0  0  0  0  0  0  0  0  0  0  0
   22.7829  -21.0857  -13.3778 O   0  0  0  0  0  0  0  0  0  0  0  0
   24.4400  -19.6987  -14.1257 N   0  0  0  0  0  0  0  0  0  0  0  0
   25.4613  -20.6342  -13.6230 C   0  0  1  0  0  0  0  0  0  0  0  0
   26.5528  -20.6990  -14.7064 C   0  0  0  0  0  0  0  0  0  0  0  0
   27.9891  -21.5666  -14.0712 S   0  0  0  0  0  0  0  0  0  0  0  0
   25.9707  -20.1636  -12.3258 C   0  0  0  0  0  0  0  0  0  0  0  0
   25.9823  -18.8970  -12.0745 O   0  0  0  0  0  0  0  0  0  0  0  0
   26.4459  -21.0273  -11.3468 N   0  0  0  0  0  0  0  0  0  0  0  0
   27.0825  -20.6963  -10.0891 C   0  0  1  0  0  0  0  0  0  0  0  0
   26.2036  -19.9551   -9.1760 C   0  0  0  0  0  0  0  0  0  0  0  0
   26.3269  -20.3083   -7.7531 C   0  0  0  0  0  0  0  0  0  0  0  0
   25.6385  -21.2284   -7.0153 C   0  0  0  0  0  0  0  0  0  0  0  0
   26.0785  -21.2408   -5.7443 N   0  0  0  0  0  0  0  0  0  0  0  0
   27.0637  -20.3257   -5.6373 C   0  0  0  0  0  0  0  0  0  0  0  0
   27.8501  -19.9441   -4.5734 C   0  0  0  0  0  0  0  0  0  0  0  0
   28.8063  -18.9762   -4.7383 C   0  0  0  0  0  0  0  0  0  0  0  0
   28.9912  -18.3795   -5.9523 C   0  0  0  0  0  0  0  0  0  0  0  0
   28.1976  -18.7593   -7.0401 C   0  0  0  0  0  0  0  0  0  0  0  0
   27.2393  -19.7309   -6.8714 C   0  0  0  0  0  0  0  0  0  0  0  0
   27.8311  -21.8472   -9.5018 C   0  0  0  0  0  0  0  0  0  0  0  0
   28.9939  -21.7713   -8.7824 O   0  0  0  0  0  0  0  0  0  0  0  0
   27.3384  -23.0102   -9.6839 O   0  0  0  0  0  0  0  0  0  0  0  0
  2  1  1  1
  3  2  1  0
  4  2  1  0
  5  4  1  0
  5  6  1  6
  7  8  2  0
  7  5  1  0
  9  7  1  0
 10  9  1  0
 10 11  1  6
 11 12  1  0
 13 15  1  0
 13 10  1  0
 14 13  2  0
 16 15  1  0
 17 18  1  0
 16 17  1  1
 18 19  2  0
 19 20  1  0
 21 20  1  0
 22 21  2  0
 23 22  1  0
 24 25  1  0
 24 23  2  0
 25 26  2  0
 26 18  1  0
 26 21  1  0
 27 16  1  0
 27 28  1  0
 29 27  2  0
M  END
$$$$
