LCW.pdb
     RDKit          3D

 29 30  0  0  1  0  0  0  0  0999 V2000
   23.6035  -20.8561  -16.7990 C   0  0  0  0  0  0  0  0  0  0  0  0
   22.9459  -19.5473  -17.2669 C   0  0  2  0  0  0  0  0  0  0  0  0
   23.9957  -18.7662  -17.9885 C   0  0  0  0  0  0  0  0  0  0  0  0
   22.4056  -18.8837  -16.0553 C   0  0  0  0  0  0  0  0  0  0  0  0
   21.6498  -19.7873  -15.1069 C   0  0  2  0  0  0  0  0  0  0  0  0
   20.2519  -19.6223  -15.4477 N   0  0  0  0  0  0  0  0  0  0  0  0
   21.9050  -19.3991  -13.6974 C   0  0  0  0  0  0  0  0  0  0  0  0
   21.6703  -18.2125  -13.3335 O   0  0  0  0  0  0  0  0  0  0  0  0
   22.3984  -20.2901  -12.7149 N   0  0  0  0  0  0  0  0  0  0  0  0
   22.5503  -19.8319  -11.3229 C   0  0  1  0  0  0  0  0  0  0  0  0
   21.2141  -20.1385  -10.6230 C   0  0  0  0  0  0  0  0  0  0  0  0
   20.8949  -21.9035  -10.6685 S   0  0  0  0  0  0  0  0  0  0  0  0
   23.6932  -20.5145  -10.6971 C   0  0  0  0  0  0  0  0  0  0  0  0
   23.9238  -21.7520  -10.9851 O   0  0  0  0  0  0  0  0  0  0  0  0
   24.5462  -19.8836   -9.8001 N   0  0  0  0  0  0  0  0  0  0  0  0
   25.6455  -20.4561   -9.0515 C   0  0  1  0  0  0  0  0  0  0  0  0
   26.7055  -19.4855   -8.7514 C   0  0  0  0  0  0  0  0  0  0  0  0
   27.9116  -20.0414   -8.1181 C   0  0  0  0  0  0  0  0  0  0  0  0
   28.7836  -20.9885   -8.5734 C   0  0  0  0  0  0  0  0  0  0  0  0
   29.7663  -21.1960   -7.6788 N   0  0  0  0  0  0  0  0  0  0  0  0
   29.5467  -20.3831   -6.6250 C   0  0  0  0  0  0  0  0  0  0  0  0
   30.2441  -20.1906   -5.4534 C   0  0  0  0  0  0  0  0  0  0  0  0
   29.8021  -19.2762   -4.5333 C   0  0  0  0  0  0  0  0  0  0  0  0
   28.6704  -18.5478   -4.7632 C   0  0  0  0  0  0  0  0  0  0  0  0
   27.9538  -18.7355   -5.9501 C   0  0  0  0  0  0  0  0  0  0  0  0
   28.4000  -19.6536   -6.8714 C   0  0  0  0  0  0  0  0  0  0  0  0
   25.1863  -21.3101   -7.9159 C   0  0  0  0  0  0  0  0  0  0  0  0
   25.7757  -22.4698   -7.4879 O   0  0  0  0  0  0  0  0  0  0  0  0
   24.1496  -20.9201   -7.2822 O   0  0  0  0  0  0  0  0  0  0  0  0
  2  1  1  1
  3  2  1  0
  4  2  1  0
  5  4  1  0
  5  6  1  6
  7  8  2  0
  7  5  1  0
  9  7  1  0
 10  9  1  0
 10 11  1  1
 11 12  1  0
 13 15  1  0
 13 10  1  0
 14 13  2  0
 16 15  1  0
 17 18  1  0
 16 17  1  1
 18 19  2  0
 19 20  1  0
 21 20  1  0
 22 21  2  0
 23 22  1  0
 24 25  1  0
 24 23  2  0
 25 26  2  0
 26 18  1  0
 26 21  1  0
 27 16  1  0
 27 28  1  0
 29 27  2  0
M  END
$$$$
