LCW.pdb
     RDKit          3D

 29 30  0  0  1  0  0  0  0  0999 V2000
   28.6788  -22.2822  -19.3045 C   0  0  0  0  0  0  0  0  0  0  0  0
   27.5832  -21.2225  -19.1029 C   0  0  2  0  0  0  0  0  0  0  0  0
   27.6425  -20.3051  -20.2808 C   0  0  0  0  0  0  0  0  0  0  0  0
   27.8538  -20.5709  -17.7982 C   0  0  0  0  0  0  0  0  0  0  0  0
   27.8677  -21.4985  -16.6037 C   0  0  2  0  0  0  0  0  0  0  0  0
   26.7760  -22.4250  -16.8213 N   0  0  0  0  0  0  0  0  0  0  0  0
   27.6773  -20.7355  -15.3450 C   0  0  0  0  0  0  0  0  0  0  0  0
   28.4834  -19.8055  -15.0609 O   0  0  0  0  0  0  0  0  0  0  0  0
   26.6285  -20.9834  -14.4279 N   0  0  0  0  0  0  0  0  0  0  0  0
   26.5087  -20.1575  -13.2137 C   0  0  1  0  0  0  0  0  0  0  0  0
   25.2166  -19.3377  -13.3793 C   0  0  0  0  0  0  0  0  0  0  0  0
   23.7891  -20.4077  -13.1882 S   0  0  0  0  0  0  0  0  0  0  0  0
   26.4884  -21.0227  -12.0242 C   0  0  0  0  0  0  0  0  0  0  0  0
   26.1063  -22.2503  -12.1436 O   0  0  0  0  0  0  0  0  0  0  0  0
   26.8649  -20.5763  -10.7636 N   0  0  0  0  0  0  0  0  0  0  0  0
   26.6909  -21.2379   -9.4875 C   0  0  1  0  0  0  0  0  0  0  0  0
   27.8625  -21.1162   -8.6110 C   0  0  0  0  0  0  0  0  0  0  0  0
   27.7324  -20.1470   -7.5117 C   0  0  0  0  0  0  0  0  0  0  0  0
   26.9089  -19.0646   -7.3902 C   0  0  0  0  0  0  0  0  0  0  0  0
   27.1044  -18.4514   -6.2091 N   0  0  0  0  0  0  0  0  0  0  0  0
   28.0614  -19.1295   -5.5429 C   0  0  0  0  0  0  0  0  0  0  0  0
   28.6280  -18.9370   -4.3028 C   0  0  0  0  0  0  0  0  0  0  0  0
   29.5951  -19.7954   -3.8487 C   0  0  0  0  0  0  0  0  0  0  0  0
   30.0086  -20.8469   -4.6150 C   0  0  0  0  0  0  0  0  0  0  0  0
   29.4400  -21.0518   -5.8768 C   0  0  0  0  0  0  0  0  0  0  0  0
   28.4697  -20.1889   -6.3294 C   0  0  0  0  0  0  0  0  0  0  0  0
   25.3640  -20.9506   -8.8657 C   0  0  0  0  0  0  0  0  0  0  0  0
   24.7409  -21.7052   -7.9077 O   0  0  0  0  0  0  0  0  0  0  0  0
   24.7557  -19.9010   -9.2614 O   0  0  0  0  0  0  0  0  0  0  0  0
  2  1  1  6
  3  2  1  0
  4  2  1  0
  5  4  1  0
  5  6  1  6
  7  8  2  0
  7  5  1  0
  9  7  1  0
 10  9  1  0
 10 11  1  6
 11 12  1  0
 13 15  1  0
 13 10  1  0
 14 13  2  0
 16 15  1  0
 17 18  1  0
 16 17  1  1
 18 19  2  0
 19 20  1  0
 21 20  1  0
 22 21  2  0
 23 22  1  0
 24 25  1  0
 24 23  2  0
 25 26  2  0
 26 18  1  0
 26 21  1  0
 27 16  1  0
 27 28  1  0
 29 27  2  0
M  END
$$$$
