HNY.pdb
     RDKit          3D

 31 32  0  0  1  0  0  0  0  0999 V2000
    7.7470  -17.3456   19.6482 N   0  0  0  0  0  0  0  0  0  0  0  0
    8.4784  -16.3107   20.3665 C   0  0  1  0  0  0  0  0  0  0  0  0
    7.6024  -15.0953   20.4971 C   0  0  0  0  0  0  0  0  0  0  0  0
    7.6381  -14.2150   19.3065 C   0  0  0  0  0  0  0  0  0  0  0  0
    8.2657  -12.9864   19.1687 C   0  0  0  0  0  0  0  0  0  0  0  0
    8.0651  -12.4992   17.9355 N   0  0  0  0  0  0  0  0  0  0  0  0
    7.3153  -13.4021   17.2808 C   0  0  0  0  0  0  0  0  0  0  0  0
    7.0533  -14.4344   18.0921 N   0  0  0  0  0  0  0  0  0  0  0  0
    8.9650  -16.8584   21.6314 C   0  0  0  0  0  0  0  0  0  0  0  0
    8.4922  -17.9910   21.9930 O   0  0  0  0  0  0  0  0  0  0  0  0
   13.2222  -18.2948   24.0516 N   0  0  0  0  0  0  0  0  0  0  0  0
   13.4454  -17.1156   23.2978 C   0  0  0  0  0  0  0  0  0  0  0  0
   14.6241  -16.7175   23.1354 O   0  0  0  0  0  0  0  0  0  0  0  0
   12.3499  -16.3524   22.7062 C   0  0  0  0  0  0  0  0  0  0  0  0
   10.9817  -16.8707   23.0618 C   0  0  2  0  0  0  0  0  0  0  0  0
    9.9140  -16.1644   22.4143 N   0  0  0  0  0  0  0  0  0  0  0  0
   10.7665  -16.8901   24.5436 C   0  0  0  0  0  0  0  0  0  0  0  0
   11.6488  -17.4101   25.2741 O   0  0  0  0  0  0  0  0  0  0  0  0
    6.5843  -10.7114   25.8136 O   0  0  0  0  0  0  0  0  0  0  0  0
    6.8875  -12.0563   26.0411 C   0  0  0  0  0  0  0  0  0  0  0  0
    8.1917  -12.5111   26.0205 C   0  0  0  0  0  0  0  0  0  0  0  0
    8.4982  -13.8356   26.2440 C   0  0  0  0  0  0  0  0  0  0  0  0
    7.5118  -14.7655   26.4986 C   0  0  0  0  0  0  0  0  0  0  0  0
    7.8590  -16.1908   26.7337 C   0  0  0  0  0  0  0  0  0  0  0  0
    9.3372  -16.4747   26.5872 C   0  0  2  0  0  0  0  0  0  0  0  0
    9.6243  -16.3538   25.1521 N   0  0  0  0  0  0  0  0  0  0  0  0
    9.7322  -17.7923   27.0954 C   0  0  0  0  0  0  0  0  0  0  0  0
   10.1866  -18.7832   26.2475 O   0  0  0  0  0  0  0  0  0  0  0  0
    6.2076  -14.3153   26.5200 C   0  0  0  0  0  0  0  0  0  0  0  0
    5.9164  -13.0007   26.2971 C   0  0  0  0  0  0  0  0  0  0  0  0
    9.6589  -18.0320   28.3222 O   0  0  0  0  0  0  0  0  0  0  0  0
  2  1  1  1
  2  3  1  0
  4  3  1  0
  4  5  2  0
  6  5  1  0
  7  6  1  0
  8  7  2  0
  8  4  1  0
  9  2  1  0
 10  9  2  0
 11 12  1  0
 12 14  1  0
 13 12  2  0
 15 14  1  1
 15 16  1  0
 16  9  1  0
 17 15  1  0
 17 18  2  0
 20 19  1  0
 21 20  2  0
 22 21  1  0
 23 29  1  0
 23 22  2  0
 25 24  1  6
 24 23  1  0
 25 26  1  0
 26 17  1  0
 27 25  1  0
 28 27  1  0
 29 30  2  0
 30 20  1  0
 31 27  2  0
M  END
$$$$
