HNY.pdb
     RDKit          3D

 31 32  0  0  1  0  0  0  0  0999 V2000
   10.1553  -15.4731   18.4471 N   0  0  0  0  0  0  0  0  0  0  0  0
    8.9419  -15.3867   19.2483 C   0  0  1  0  0  0  0  0  0  0  0  0
    7.7633  -15.7566   18.3906 C   0  0  0  0  0  0  0  0  0  0  0  0
    7.7136  -15.0150   17.1094 C   0  0  0  0  0  0  0  0  0  0  0  0
    7.8781  -13.6543   16.9008 C   0  0  0  0  0  0  0  0  0  0  0  0
    7.7601  -13.3677   15.5962 N   0  0  0  0  0  0  0  0  0  0  0  0
    7.5216  -14.5302   14.9654 C   0  0  0  0  0  0  0  0  0  0  0  0
    7.4916  -15.5242   15.8618 N   0  0  0  0  0  0  0  0  0  0  0  0
    9.1052  -16.1971   20.4538 C   0  0  0  0  0  0  0  0  0  0  0  0
    8.1014  -16.2703   21.2438 O   0  0  0  0  0  0  0  0  0  0  0  0
   11.0572  -20.5143   20.9352 N   0  0  0  0  0  0  0  0  0  0  0  0
   11.8813  -19.3619   20.9722 C   0  0  0  0  0  0  0  0  0  0  0  0
   12.7302  -19.1980   20.0630 O   0  0  0  0  0  0  0  0  0  0  0  0
   11.7733  -18.3629   22.0318 C   0  0  0  0  0  0  0  0  0  0  0  0
   10.5087  -17.5475   21.9769 C   0  0  2  0  0  0  0  0  0  0  0  0
   10.3182  -16.8666   20.7286 N   0  0  0  0  0  0  0  0  0  0  0  0
   10.4279  -16.5768   23.1143 C   0  0  0  0  0  0  0  0  0  0  0  0
   11.0027  -15.4639   22.9989 O   0  0  0  0  0  0  0  0  0  0  0  0
    6.0332  -10.6286   27.3097 O   0  0  0  0  0  0  0  0  0  0  0  0
    6.6304  -11.6644   26.5865 C   0  0  0  0  0  0  0  0  0  0  0  0
    7.8443  -11.4887   25.9511 C   0  0  0  0  0  0  0  0  0  0  0  0
    8.4392  -12.5053   25.2364 C   0  0  0  0  0  0  0  0  0  0  0  0
    7.8449  -13.7450   25.1255 C   0  0  0  0  0  0  0  0  0  0  0  0
    8.4979  -14.8295   24.3478 C   0  0  0  0  0  0  0  0  0  0  0  0
    9.2462  -15.8161   25.2160 C   0  0  2  0  0  0  0  0  0  0  0  0
    9.7393  -16.8546   24.3023 N   0  0  0  0  0  0  0  0  0  0  0  0
    8.4237  -16.3977   26.2816 C   0  0  0  0  0  0  0  0  0  0  0  0
    7.6350  -17.5088   26.0557 O   0  0  0  0  0  0  0  0  0  0  0  0
    6.6321  -13.9248   25.7587 C   0  0  0  0  0  0  0  0  0  0  0  0
    6.0527  -12.9100   26.4638 C   0  0  0  0  0  0  0  0  0  0  0  0
    8.4309  -15.8825   27.4227 O   0  0  0  0  0  0  0  0  0  0  0  0
  2  1  1  6
  2  3  1  0
  4  3  1  0
  4  5  2  0
  6  5  1  0
  7  6  1  0
  8  7  2  0
  8  4  1  0
  9  2  1  0
 10  9  2  0
 11 12  1  0
 12 14  1  0
 13 12  2  0
 15 14  1  6
 15 16  1  0
 16  9  1  0
 17 15  1  0
 17 18  2  0
 20 19  1  0
 21 20  2  0
 22 21  1  0
 23 29  1  0
 23 22  2  0
 25 24  1  6
 24 23  1  0
 25 26  1  0
 26 17  1  0
 27 25  1  0
 28 27  1  0
 29 30  2  0
 30 20  1  0
 31 27  2  0
M  END
$$$$
