HNY.pdb
     RDKit          3D

 31 32  0  0  1  0  0  0  0  0999 V2000
    9.7598  -16.6962   19.9120 N   0  0  0  0  0  0  0  0  0  0  0  0
    9.0917  -16.0413   21.0284 C   0  0  1  0  0  0  0  0  0  0  0  0
    7.7030  -15.6497   20.6044 C   0  0  0  0  0  0  0  0  0  0  0  0
    7.6733  -14.4720   19.7066 C   0  0  0  0  0  0  0  0  0  0  0  0
    8.7428  -13.8266   19.1053 C   0  0  0  0  0  0  0  0  0  0  0  0
    8.3063  -12.7973   18.3648 N   0  0  0  0  0  0  0  0  0  0  0  0
    6.9679  -12.7756   18.4847 C   0  0  0  0  0  0  0  0  0  0  0  0
    6.5772  -13.7742   19.2862 N   0  0  0  0  0  0  0  0  0  0  0  0
    9.1555  -16.9108   22.2017 C   0  0  0  0  0  0  0  0  0  0  0  0
    8.5807  -18.0504   22.1109 O   0  0  0  0  0  0  0  0  0  0  0  0
   10.9039  -20.6996   25.1329 N   0  0  0  0  0  0  0  0  0  0  0  0
   11.6011  -19.5349   24.7255 C   0  0  0  0  0  0  0  0  0  0  0  0
   12.7252  -19.2974   25.2295 O   0  0  0  0  0  0  0  0  0  0  0  0
   11.0534  -18.6059   23.7408 C   0  0  0  0  0  0  0  0  0  0  0  0
   10.2578  -17.4774   24.3411 C   0  0  2  0  0  0  0  0  0  0  0  0
    9.8228  -16.5061   23.3789 N   0  0  0  0  0  0  0  0  0  0  0  0
   11.0032  -16.8070   25.4536 C   0  0  0  0  0  0  0  0  0  0  0  0
   12.1585  -17.2158   25.7372 O   0  0  0  0  0  0  0  0  0  0  0  0
    6.2333  -11.2169   25.5350 O   0  0  0  0  0  0  0  0  0  0  0  0
    6.8674  -12.3211   26.1105 C   0  0  0  0  0  0  0  0  0  0  0  0
    6.3229  -13.5875   26.0223 C   0  0  0  0  0  0  0  0  0  0  0  0
    6.9424  -14.6809   26.5871 C   0  0  0  0  0  0  0  0  0  0  0  0
    8.1363  -14.5555   27.2663 C   0  0  0  0  0  0  0  0  0  0  0  0
    8.7894  -15.7441   27.8729 C   0  0  0  0  0  0  0  0  0  0  0  0
   10.2847  -15.7798   27.6491 C   0  0  2  0  0  0  0  0  0  0  0  0
   10.4691  -15.7435   26.1927 N   0  0  0  0  0  0  0  0  0  0  0  0
   10.9350  -16.9567   28.2344 C   0  0  0  0  0  0  0  0  0  0  0  0
   11.5060  -17.9317   27.4403 O   0  0  0  0  0  0  0  0  0  0  0  0
    8.6836  -13.2920   27.3568 C   0  0  0  0  0  0  0  0  0  0  0  0
    8.0605  -12.2165   26.7931 C   0  0  0  0  0  0  0  0  0  0  0  0
   10.9777  -17.0878   29.4789 O   0  0  0  0  0  0  0  0  0  0  0  0
  2  1  1  6
  2  3  1  0
  4  3  1  0
  4  5  2  0
  6  5  1  0
  7  6  1  0
  8  7  2  0
  8  4  1  0
  9  2  1  0
 10  9  2  0
 11 12  1  0
 12 14  1  0
 13 12  2  0
 15 14  1  6
 15 16  1  0
 16  9  1  0
 17 15  1  0
 17 18  2  0
 20 19  1  0
 21 20  2  0
 22 21  1  0
 23 29  1  0
 23 22  2  0
 25 24  1  6
 24 23  1  0
 25 26  1  0
 26 17  1  0
 27 25  1  0
 28 27  1  0
 29 30  2  0
 30 20  1  0
 31 27  2  0
M  END
$$$$
