HNY.pdb
     RDKit          3D

 31 32  0  0  1  0  0  0  0  0999 V2000
    9.2824  -15.8994   20.5781 N   0  0  0  0  0  0  0  0  0  0  0  0
    8.2069  -15.0681   21.1014 C   0  0  1  0  0  0  0  0  0  0  0  0
    7.1323  -14.9454   20.0565 C   0  0  0  0  0  0  0  0  0  0  0  0
    7.6049  -14.3228   18.7984 C   0  0  0  0  0  0  0  0  0  0  0  0
    8.8923  -13.9265   18.4701 C   0  0  0  0  0  0  0  0  0  0  0  0
    8.9154  -13.4020   17.2362 N   0  0  0  0  0  0  0  0  0  0  0  0
    7.6564  -13.4577   16.7693 C   0  0  0  0  0  0  0  0  0  0  0  0
    6.8624  -14.0075   17.6964 N   0  0  0  0  0  0  0  0  0  0  0  0
    7.7612  -15.6121   22.3828 C   0  0  0  0  0  0  0  0  0  0  0  0
    6.8123  -14.9928   22.9772 O   0  0  0  0  0  0  0  0  0  0  0  0
    6.4453  -18.7257   26.0863 N   0  0  0  0  0  0  0  0  0  0  0  0
    7.5881  -19.3306   25.5059 C   0  0  0  0  0  0  0  0  0  0  0  0
    7.8811  -20.5055   25.8345 O   0  0  0  0  0  0  0  0  0  0  0  0
    8.4319  -18.6313   24.5409 C   0  0  0  0  0  0  0  0  0  0  0  0
    7.9846  -17.2247   24.2437 C   0  0  2  0  0  0  0  0  0  0  0  0
    8.3547  -16.7690   22.9346 N   0  0  0  0  0  0  0  0  0  0  0  0
    8.4665  -16.2607   25.2834 C   0  0  0  0  0  0  0  0  0  0  0  0
    8.1863  -15.0416   25.1512 O   0  0  0  0  0  0  0  0  0  0  0  0
    6.3330  -10.4955   25.6188 O   0  0  0  0  0  0  0  0  0  0  0  0
    6.8198  -11.6601   26.2183 C   0  0  0  0  0  0  0  0  0  0  0  0
    5.9632  -12.6284   26.7049 C   0  0  0  0  0  0  0  0  0  0  0  0
    6.4358  -13.7792   27.2970 C   0  0  0  0  0  0  0  0  0  0  0  0
    7.7887  -14.0126   27.4289 C   0  0  0  0  0  0  0  0  0  0  0  0
    8.2819  -15.2570   28.0735 C   0  0  0  0  0  0  0  0  0  0  0  0
    9.5874  -15.7509   27.4915 C   0  0  2  0  0  0  0  0  0  0  0  0
    9.2165  -16.6582   26.3979 N   0  0  0  0  0  0  0  0  0  0  0  0
   10.4448  -16.4270   28.4704 C   0  0  0  0  0  0  0  0  0  0  0  0
   10.7846  -17.7583   28.3302 O   0  0  0  0  0  0  0  0  0  0  0  0
    8.6480  -13.0477   26.9442 C   0  0  0  0  0  0  0  0  0  0  0  0
    8.1677  -11.9118   26.3595 C   0  0  0  0  0  0  0  0  0  0  0  0
   10.8820  -15.7914   29.4565 O   0  0  0  0  0  0  0  0  0  0  0  0
  2  1  1  6
  2  3  1  0
  4  3  1  0
  4  5  2  0
  6  5  1  0
  7  6  1  0
  8  7  2  0
  8  4  1  0
  9  2  1  0
 10  9  2  0
 11 12  1  0
 12 14  1  0
 13 12  2  0
 15 14  1  1
 15 16  1  0
 16  9  1  0
 17 15  1  0
 17 18  2  0
 20 19  1  0
 21 20  2  0
 22 21  1  0
 23 29  1  0
 23 22  2  0
 25 24  1  1
 24 23  1  0
 25 26  1  0
 26 17  1  0
 27 25  1  0
 28 27  1  0
 29 30  2  0
 30 20  1  0
 31 27  2  0
M  END
$$$$
