HNY.pdb
     RDKit          3D

 31 32  0  0  1  0  0  0  0  0999 V2000
    9.5490  -17.8135   19.3961 N   0  0  0  0  0  0  0  0  0  0  0  0
    9.5798  -16.6938   20.3274 C   0  0  1  0  0  0  0  0  0  0  0  0
    8.1745  -16.2088   20.5541 C   0  0  0  0  0  0  0  0  0  0  0  0
    7.8560  -14.9654   19.8150 C   0  0  0  0  0  0  0  0  0  0  0  0
    8.6663  -14.2578   18.9404 C   0  0  0  0  0  0  0  0  0  0  0  0
    8.0166  -13.1812   18.4745 N   0  0  0  0  0  0  0  0  0  0  0  0
    6.7979  -13.1906   19.0410 C   0  0  0  0  0  0  0  0  0  0  0  0
    6.6901  -14.2548   19.8461 N   0  0  0  0  0  0  0  0  0  0  0  0
   10.2954  -17.0963   21.5367 C   0  0  0  0  0  0  0  0  0  0  0  0
   10.5009  -18.3488   21.6992 O   0  0  0  0  0  0  0  0  0  0  0  0
   13.8485  -14.1186   22.4974 N   0  0  0  0  0  0  0  0  0  0  0  0
   13.5781  -15.3864   23.0703 C   0  0  0  0  0  0  0  0  0  0  0  0
   14.2637  -16.3718   22.7053 O   0  0  0  0  0  0  0  0  0  0  0  0
   12.5301  -15.5806   24.0685 C   0  0  0  0  0  0  0  0  0  0  0  0
   11.4590  -16.5522   23.6494 C   0  0  2  0  0  0  0  0  0  0  0  0
   10.7373  -16.1417   22.4794 N   0  0  0  0  0  0  0  0  0  0  0  0
   10.5082  -16.8427   24.7693 C   0  0  0  0  0  0  0  0  0  0  0  0
   10.9780  -17.0984   25.9078 O   0  0  0  0  0  0  0  0  0  0  0  0
    7.7425  -10.6636   26.4012 O   0  0  0  0  0  0  0  0  0  0  0  0
    7.5482  -12.0221   26.1380 C   0  0  0  0  0  0  0  0  0  0  0  0
    7.5346  -12.9552   27.1565 C   0  0  0  0  0  0  0  0  0  0  0  0
    7.3435  -14.2963   26.9047 C   0  0  0  0  0  0  0  0  0  0  0  0
    7.1572  -14.7640   25.6206 C   0  0  0  0  0  0  0  0  0  0  0  0
    6.9563  -16.2138   25.3658 C   0  0  0  0  0  0  0  0  0  0  0  0
    8.1691  -17.0509   25.7058 C   0  0  2  0  0  0  0  0  0  0  0  0
    9.1171  -16.8421   24.6039 N   0  0  0  0  0  0  0  0  0  0  0  0
    7.8660  -18.4752   25.8786 C   0  0  0  0  0  0  0  0  0  0  0  0
    7.2099  -18.9395   27.0017 O   0  0  0  0  0  0  0  0  0  0  0  0
    7.1702  -13.8350   24.6002 C   0  0  0  0  0  0  0  0  0  0  0  0
    7.3604  -12.5092   24.8622 C   0  0  0  0  0  0  0  0  0  0  0  0
    8.2056  -19.2940   24.9942 O   0  0  0  0  0  0  0  0  0  0  0  0
  2  1  1  6
  2  3  1  0
  4  3  1  0
  4  5  2  0
  6  5  1  0
  7  6  1  0
  8  7  2  0
  8  4  1  0
  9  2  1  0
 10  9  2  0
 11 12  1  0
 12 14  1  0
 13 12  2  0
 15 14  1  1
 15 16  1  0
 16  9  1  0
 17 15  1  0
 17 18  2  0
 20 19  1  0
 21 20  2  0
 22 21  1  0
 23 29  1  0
 23 22  2  0
 25 24  1  6
 24 23  1  0
 25 26  1  0
 26 17  1  0
 27 25  1  0
 28 27  1  0
 29 30  2  0
 30 20  1  0
 31 27  2  0
M  END
$$$$
