HNY.pdb
     RDKit          3D

 31 32  0  0  1  0  0  0  0  0999 V2000
    7.5550  -17.1067   20.5073 N   0  0  0  0  0  0  0  0  0  0  0  0
    8.4926  -16.2583   21.2304 C   0  0  1  0  0  0  0  0  0  0  0  0
    7.7809  -15.0087   21.6702 C   0  0  0  0  0  0  0  0  0  0  0  0
    7.6054  -14.0190   20.5823 C   0  0  0  0  0  0  0  0  0  0  0  0
    8.0327  -14.1083   19.2664 C   0  0  0  0  0  0  0  0  0  0  0  0
    7.6834  -13.0046   18.5896 N   0  0  0  0  0  0  0  0  0  0  0  0
    7.0365  -12.2081   19.4575 C   0  0  0  0  0  0  0  0  0  0  0  0
    6.9835  -12.8053   20.6545 N   0  0  0  0  0  0  0  0  0  0  0  0
    9.1040  -17.0316   22.3097 C   0  0  0  0  0  0  0  0  0  0  0  0
    8.4408  -18.0313   22.7546 O   0  0  0  0  0  0  0  0  0  0  0  0
   12.3912  -20.0744   22.4153 N   0  0  0  0  0  0  0  0  0  0  0  0
   12.5558  -18.6667   22.4114 C   0  0  0  0  0  0  0  0  0  0  0  0
   12.8585  -18.0978   21.3348 O   0  0  0  0  0  0  0  0  0  0  0  0
   12.3845  -17.8608   23.6171 C   0  0  0  0  0  0  0  0  0  0  0  0
   10.9584  -17.4608   23.8877 C   0  0  2  0  0  0  0  0  0  0  0  0
   10.3695  -16.6861   22.8336 N   0  0  0  0  0  0  0  0  0  0  0  0
   10.8251  -16.7428   25.1951 C   0  0  0  0  0  0  0  0  0  0  0  0
   11.4152  -15.6415   25.3409 O   0  0  0  0  0  0  0  0  0  0  0  0
    7.4669  -11.1337   25.5969 O   0  0  0  0  0  0  0  0  0  0  0  0
    7.7535  -12.3841   26.1510 C   0  0  0  0  0  0  0  0  0  0  0  0
    8.6665  -12.5211   27.1785 C   0  0  0  0  0  0  0  0  0  0  0  0
    8.9541  -13.7506   27.7299 C   0  0  0  0  0  0  0  0  0  0  0  0
    8.3400  -14.8995   27.2769 C   0  0  0  0  0  0  0  0  0  0  0  0
    8.6642  -16.2181   27.8796 C   0  0  0  0  0  0  0  0  0  0  0  0
   10.0850  -16.6613   27.6112 C   0  0  2  0  0  0  0  0  0  0  0  0
   10.0710  -17.2448   26.2637 N   0  0  0  0  0  0  0  0  0  0  0  0
   10.5936  -17.6208   28.5966 C   0  0  0  0  0  0  0  0  0  0  0  0
   10.9667  -18.8989   28.2294 O   0  0  0  0  0  0  0  0  0  0  0  0
    7.4272  -14.7670   26.2504 C   0  0  0  0  0  0  0  0  0  0  0  0
    7.1506  -13.5436   25.7124 C   0  0  0  0  0  0  0  0  0  0  0  0
   10.6950  -17.2823   29.7978 O   0  0  0  0  0  0  0  0  0  0  0  0
  2  1  1  1
  2  3  1  0
  4  3  1  0
  4  5  2  0
  6  5  1  0
  7  6  1  0
  8  7  2  0
  8  4  1  0
  9  2  1  0
 10  9  2  0
 11 12  1  0
 12 14  1  0
 13 12  2  0
 15 14  1  6
 15 16  1  0
 16  9  1  0
 17 15  1  0
 17 18  2  0
 20 19  1  0
 21 20  2  0
 22 21  1  0
 23 29  1  0
 23 22  2  0
 25 24  1  1
 24 23  1  0
 25 26  1  0
 26 17  1  0
 27 25  1  0
 28 27  1  0
 29 30  2  0
 30 20  1  0
 31 27  2  0
M  END
$$$$
