HNY.pdb
     RDKit          3D

 31 32  0  0  1  0  0  0  0  0999 V2000
    9.2569  -16.2268   19.3920 N   0  0  0  0  0  0  0  0  0  0  0  0
    8.5657  -15.3276   20.3061 C   0  0  1  0  0  0  0  0  0  0  0  0
    7.3183  -14.8174   19.6388 C   0  0  0  0  0  0  0  0  0  0  0  0
    7.5544  -14.2964   18.2725 C   0  0  0  0  0  0  0  0  0  0  0  0
    8.0464  -13.0539   17.9031 C   0  0  0  0  0  0  0  0  0  0  0  0
    8.1132  -12.9603   16.5671 N   0  0  0  0  0  0  0  0  0  0  0  0
    7.6693  -14.1296   16.0753 C   0  0  0  0  0  0  0  0  0  0  0  0
    7.3316  -14.9380   17.0877 N   0  0  0  0  0  0  0  0  0  0  0  0
    8.3475  -16.0130   21.5786 C   0  0  0  0  0  0  0  0  0  0  0  0
    7.3754  -15.5997   22.3007 O   0  0  0  0  0  0  0  0  0  0  0  0
   11.0287  -20.8030   23.0741 N   0  0  0  0  0  0  0  0  0  0  0  0
   10.2971  -19.6930   22.5828 C   0  0  0  0  0  0  0  0  0  0  0  0
   10.6898  -19.1284   21.5334 O   0  0  0  0  0  0  0  0  0  0  0  0
    9.1047  -19.1880   23.2577 C   0  0  0  0  0  0  0  0  0  0  0  0
    9.0030  -17.6859   23.2771 C   0  0  2  0  0  0  0  0  0  0  0  0
    9.1753  -17.0820   21.9871 N   0  0  0  0  0  0  0  0  0  0  0  0
    9.9535  -17.0809   24.2636 C   0  0  0  0  0  0  0  0  0  0  0  0
   11.0815  -16.6998   23.8580 O   0  0  0  0  0  0  0  0  0  0  0  0
    5.5049  -12.2699   27.4098 O   0  0  0  0  0  0  0  0  0  0  0  0
    6.7278  -12.8808   27.1205 C   0  0  0  0  0  0  0  0  0  0  0  0
    6.9681  -13.4571   25.8882 C   0  0  0  0  0  0  0  0  0  0  0  0
    8.1714  -14.0611   25.5957 C   0  0  0  0  0  0  0  0  0  0  0  0
    9.1894  -14.1154   26.5247 C   0  0  0  0  0  0  0  0  0  0  0  0
   10.4797  -14.7739   26.1947 C   0  0  0  0  0  0  0  0  0  0  0  0
   10.5164  -16.2361   26.5791 C   0  0  2  0  0  0  0  0  0  0  0  0
    9.6404  -16.9209   25.6197 N   0  0  0  0  0  0  0  0  0  0  0  0
   10.0877  -16.4884   27.9585 C   0  0  0  0  0  0  0  0  0  0  0  0
   10.8327  -16.0480   29.0348 O   0  0  0  0  0  0  0  0  0  0  0  0
    8.9535  -13.5410   27.7570 C   0  0  0  0  0  0  0  0  0  0  0  0
    7.7573  -12.9454   28.0349 C   0  0  0  0  0  0  0  0  0  0  0  0
    9.0254  -17.1154   28.1737 O   0  0  0  0  0  0  0  0  0  0  0  0
  2  1  1  6
  2  3  1  0
  4  3  1  0
  4  5  2  0
  6  5  1  0
  7  6  1  0
  8  7  2  0
  8  4  1  0
  9  2  1  0
 10  9  2  0
 11 12  1  0
 12 14  1  0
 13 12  2  0
 15 14  1  6
 15 16  1  0
 16  9  1  0
 17 15  1  0
 17 18  2  0
 20 19  1  0
 21 20  2  0
 22 21  1  0
 23 29  1  0
 23 22  2  0
 25 24  1  6
 24 23  1  0
 25 26  1  0
 26 17  1  0
 27 25  1  0
 28 27  1  0
 29 30  2  0
 30 20  1  0
 31 27  2  0
M  END
$$$$
