WAL.pdb
     RDKit          3D

 28 29  0  0  1  0  0  0  0  0999 V2000
    6.5122  -17.4529   24.8413 N   0  0  0  0  0  0  0  0  0  0  0  0
    7.5792  -16.5695   24.3854 C   0  0  1  0  0  0  0  0  0  0  0  0
    7.9271  -15.5351   25.4013 C   0  0  0  0  0  0  0  0  0  0  0  0
    6.8496  -14.6093   25.7518 C   0  0  0  0  0  0  0  0  0  0  0  0
    5.5765  -14.8195   26.2335 C   0  0  0  0  0  0  0  0  0  0  0  0
    4.9689  -13.6391   26.3943 N   0  0  0  0  0  0  0  0  0  0  0  0
    5.8027  -12.6553   26.0330 C   0  0  0  0  0  0  0  0  0  0  0  0
    5.6565  -11.2803   26.0129 C   0  0  0  0  0  0  0  0  0  0  0  0
    6.6822  -10.4877   25.5913 C   0  0  0  0  0  0  0  0  0  0  0  0
    7.8883  -11.0484   25.1760 C   0  0  0  0  0  0  0  0  0  0  0  0
    7.9943  -12.4079   25.2101 C   0  0  0  0  0  0  0  0  0  0  0  0
    6.9674  -13.2389   25.6343 C   0  0  0  0  0  0  0  0  0  0  0  0
    8.7034  -17.3822   23.9149 C   0  0  0  0  0  0  0  0  0  0  0  0
    8.9165  -18.5251   24.3899 O   0  0  0  0  0  0  0  0  0  0  0  0
   11.4561  -16.8850   21.3446 C   0  0  0  0  0  0  0  0  0  0  0  0
   10.9081  -17.3558   22.6791 C   0  0  2  0  0  0  0  0  0  0  0  0
    9.5696  -16.8774   22.9071 N   0  0  0  0  0  0  0  0  0  0  0  0
   11.7758  -16.9418   23.8043 C   0  0  0  0  0  0  0  0  0  0  0  0
   12.7532  -16.1772   23.5830 O   0  0  0  0  0  0  0  0  0  0  0  0
    9.4715  -14.9697   27.8848 C   0  0  0  0  0  0  0  0  0  0  0  0
   10.4966  -15.2620   26.7991 C   0  0  1  0  0  0  0  0  0  0  0  0
   11.3058  -14.0103   26.5110 C   0  0  0  0  0  0  0  0  0  0  0  0
   11.4268  -16.3173   27.3172 C   0  0  0  0  0  0  0  0  0  0  0  0
   12.3002  -16.9473   26.2832 C   0  0  2  0  0  0  0  0  0  0  0  0
   11.5357  -17.3834   25.1253 N   0  0  0  0  0  0  0  0  0  0  0  0
   13.1833  -18.0163   26.7725 C   0  0  0  0  0  0  0  0  0  0  0  0
   13.1700  -19.3219   26.3151 O   0  0  0  0  0  0  0  0  0  0  0  0
   14.0498  -17.7888   27.6883 O   0  0  0  0  0  0  0  0  0  0  0  0
  2  1  1  1
  2 13  1  0
  2  3  1  0
  4  3  1  0
  4  5  2  0
  6  5  1  0
  7  6  1  0
  8  7  2  0
  9  8  1  0
 10  9  2  0
 10 11  1  0
 11 12  2  0
 12  7  1  0
 12  4  1  0
 13 17  1  0
 14 13  2  0
 16 15  1  6
 17 16  1  0
 18 19  2  0
 18 16  1  0
 21 20  1  1
 21 23  1  0
 21 22  1  0
 24 25  1  0
 24 23  1  1
 25 18  1  0
 26 24  1  0
 27 26  1  0
 28 26  2  0
M  END
$$$$
