WAL.pdb
     RDKit          3D

 28 29  0  0  1  0  0  0  0  0999 V2000
    7.6912  -17.7437   26.4267 N   0  0  0  0  0  0  0  0  0  0  0  0
    7.3183  -16.8808   25.3117 C   0  0  1  0  0  0  0  0  0  0  0  0
    8.2573  -15.7343   25.1480 C   0  0  0  0  0  0  0  0  0  0  0  0
    8.3037  -14.7934   26.2677 C   0  0  0  0  0  0  0  0  0  0  0  0
    8.9841  -14.8212   27.4649 C   0  0  0  0  0  0  0  0  0  0  0  0
    8.6920  -13.7167   28.1600 N   0  0  0  0  0  0  0  0  0  0  0  0
    7.8387  -12.9602   27.4577 C   0  0  0  0  0  0  0  0  0  0  0  0
    7.2430  -11.7423   27.7303 C   0  0  0  0  0  0  0  0  0  0  0  0
    6.3947  -11.1761   26.8260 C   0  0  0  0  0  0  0  0  0  0  0  0
    6.1161  -11.8129   25.6185 C   0  0  0  0  0  0  0  0  0  0  0  0
    6.7226  -13.0124   25.3857 C   0  0  0  0  0  0  0  0  0  0  0  0
    7.5900  -13.6120   26.2875 C   0  0  0  0  0  0  0  0  0  0  0  0
    7.1262  -17.7034   24.1150 C   0  0  0  0  0  0  0  0  0  0  0  0
    7.7765  -18.7652   23.9509 O   0  0  0  0  0  0  0  0  0  0  0  0
    4.7106  -17.7064   21.2135 C   0  0  0  0  0  0  0  0  0  0  0  0
    6.0869  -17.9080   21.8201 C   0  0  2  0  0  0  0  0  0  0  0  0
    6.1927  -17.3011   23.1213 N   0  0  0  0  0  0  0  0  0  0  0  0
    7.1549  -17.3785   20.9431 C   0  0  0  0  0  0  0  0  0  0  0  0
    7.2379  -17.7869   19.7535 O   0  0  0  0  0  0  0  0  0  0  0  0
    7.7873  -12.2014   20.9507 C   0  0  0  0  0  0  0  0  0  0  0  0
    7.6892  -13.6614   20.5337 C   0  0  1  0  0  0  0  0  0  0  0  0
    7.3204  -13.7486   19.0637 C   0  0  0  0  0  0  0  0  0  0  0  0
    9.0400  -14.2844   20.7198 C   0  0  0  0  0  0  0  0  0  0  0  0
    9.0741  -15.7686   20.5620 C   0  0  2  0  0  0  0  0  0  0  0  0
    8.0876  -16.4231   21.4069 N   0  0  0  0  0  0  0  0  0  0  0  0
   10.3998  -16.3867   20.7131 C   0  0  0  0  0  0  0  0  0  0  0  0
   11.4785  -16.1541   19.8786 O   0  0  0  0  0  0  0  0  0  0  0  0
   10.6393  -17.2098   21.6650 O   0  0  0  0  0  0  0  0  0  0  0  0
  2  1  1  1
  2 13  1  0
  2  3  1  0
  4  3  1  0
  4  5  2  0
  6  5  1  0
  7  6  1  0
  8  7  2  0
  9  8  1  0
 10  9  2  0
 10 11  1  0
 11 12  2  0
 12  7  1  0
 12  4  1  0
 13 17  1  0
 14 13  2  0
 16 15  1  6
 17 16  1  0
 18 19  2  0
 18 16  1  0
 21 20  1  6
 21 23  1  0
 21 22  1  0
 24 25  1  0
 24 23  1  1
 25 18  1  0
 26 24  1  0
 27 26  1  0
 28 26  2  0
M  END
$$$$
