WAL.pdb
     RDKit          3D

 28 29  0  0  1  0  0  0  0  0999 V2000
    6.1971  -17.6277   23.6658 N   0  0  0  0  0  0  0  0  0  0  0  0
    7.3269  -16.7606   23.9798 C   0  0  1  0  0  0  0  0  0  0  0  0
    7.2816  -16.2626   25.3844 C   0  0  0  0  0  0  0  0  0  0  0  0
    6.5475  -15.0130   25.5861 C   0  0  0  0  0  0  0  0  0  0  0  0
    5.2635  -14.7594   26.0152 C   0  0  0  0  0  0  0  0  0  0  0  0
    5.0600  -13.4378   26.0299 N   0  0  0  0  0  0  0  0  0  0  0  0
    6.1714  -12.8107   25.6233 C   0  0  0  0  0  0  0  0  0  0  0  0
    6.4711  -11.4699   25.4651 C   0  0  0  0  0  0  0  0  0  0  0  0
    7.7047  -11.0900   25.0271 C   0  0  0  0  0  0  0  0  0  0  0  0
    8.6782  -12.0426   24.7334 C   0  0  0  0  0  0  0  0  0  0  0  0
    8.3451  -13.3546   24.9019 C   0  0  0  0  0  0  0  0  0  0  0  0
    7.0980  -13.7701   25.3460 C   0  0  0  0  0  0  0  0  0  0  0  0
    8.5687  -17.4382   23.5997 C   0  0  0  0  0  0  0  0  0  0  0  0
    8.7037  -18.6762   23.7619 O   0  0  0  0  0  0  0  0  0  0  0  0
   11.8295  -16.3373   21.9985 C   0  0  0  0  0  0  0  0  0  0  0  0
   11.0001  -17.1585   22.9683 C   0  0  2  0  0  0  0  0  0  0  0  0
    9.6403  -16.6912   23.0390 N   0  0  0  0  0  0  0  0  0  0  0  0
   11.5891  -17.1622   24.3260 C   0  0  0  0  0  0  0  0  0  0  0  0
   12.8145  -17.4215   24.4681 O   0  0  0  0  0  0  0  0  0  0  0  0
    8.6093  -14.4059   28.1112 C   0  0  0  0  0  0  0  0  0  0  0  0
    9.6885  -14.8450   27.1325 C   0  0  1  0  0  0  0  0  0  0  0  0
   10.7057  -13.7313   26.9612 C   0  0  0  0  0  0  0  0  0  0  0  0
   10.3852  -16.0353   27.7201 C   0  0  0  0  0  0  0  0  0  0  0  0
   11.3571  -16.7076   26.8078 C   0  0  2  0  0  0  0  0  0  0  0  0
   10.8101  -16.8815   25.4714 N   0  0  0  0  0  0  0  0  0  0  0  0
   11.9322  -17.9619   27.3159 C   0  0  0  0  0  0  0  0  0  0  0  0
   12.7456  -18.0624   28.4305 O   0  0  0  0  0  0  0  0  0  0  0  0
   11.7031  -19.0778   26.7299 O   0  0  0  0  0  0  0  0  0  0  0  0
  2  1  1  1
  2 13  1  0
  2  3  1  0
  4  3  1  0
  4  5  2  0
  6  5  1  0
  7  6  1  0
  8  7  2  0
  9  8  1  0
 10  9  2  0
 10 11  1  0
 11 12  2  0
 12  7  1  0
 12  4  1  0
 13 17  1  0
 14 13  2  0
 16 15  1  6
 17 16  1  0
 18 19  2  0
 18 16  1  0
 21 20  1  1
 21 23  1  0
 21 22  1  0
 24 25  1  0
 24 23  1  1
 25 18  1  0
 26 24  1  0
 27 26  1  0
 28 26  2  0
M  END
$$$$
