WAL.pdb
     RDKit          3D

 28 29  0  0  1  0  0  0  0  0999 V2000
    6.7037  -16.7826   25.1206 N   0  0  0  0  0  0  0  0  0  0  0  0
    7.0131  -17.4497   23.8611 C   0  0  1  0  0  0  0  0  0  0  0  0
    6.5059  -16.6909   22.6822 C   0  0  0  0  0  0  0  0  0  0  0  0
    6.7583  -15.2498   22.7047 C   0  0  0  0  0  0  0  0  0  0  0  0
    6.9717  -14.3374   21.6953 C   0  0  0  0  0  0  0  0  0  0  0  0
    7.1594  -13.1269   22.2319 N   0  0  0  0  0  0  0  0  0  0  0  0
    7.0764  -13.2125   23.5658 C   0  0  0  0  0  0  0  0  0  0  0  0
    7.1946  -12.2610   24.5624 C   0  0  0  0  0  0  0  0  0  0  0  0
    7.0643  -12.6190   25.8711 C   0  0  0  0  0  0  0  0  0  0  0  0
    6.8113  -13.9431   26.2233 C   0  0  0  0  0  0  0  0  0  0  0  0
    6.7013  -14.8524   25.2125 C   0  0  0  0  0  0  0  0  0  0  0  0
    6.8292  -14.5167   23.8723 C   0  0  0  0  0  0  0  0  0  0  0  0
    8.4426  -17.7678   23.8281 C   0  0  0  0  0  0  0  0  0  0  0  0
    8.8372  -18.9465   23.6487 O   0  0  0  0  0  0  0  0  0  0  0  0
   11.5190  -15.8804   23.1104 C   0  0  0  0  0  0  0  0  0  0  0  0
   10.8267  -16.9375   23.9506 C   0  0  2  0  0  0  0  0  0  0  0  0
    9.4025  -16.7336   24.0008 N   0  0  0  0  0  0  0  0  0  0  0  0
   11.3652  -16.9814   25.3284 C   0  0  0  0  0  0  0  0  0  0  0  0
   12.6080  -17.0990   25.5036 O   0  0  0  0  0  0  0  0  0  0  0  0
    8.6638  -14.0585   28.9101 C   0  0  0  0  0  0  0  0  0  0  0  0
    9.6331  -14.7585   27.9691 C   0  0  1  0  0  0  0  0  0  0  0  0
   10.7847  -13.8267   27.6371 C   0  0  0  0  0  0  0  0  0  0  0  0
   10.1845  -15.9553   28.6839 C   0  0  0  0  0  0  0  0  0  0  0  0
   10.9913  -16.8788   27.8324 C   0  0  2  0  0  0  0  0  0  0  0  0
   10.5187  -16.8945   26.4570 N   0  0  0  0  0  0  0  0  0  0  0  0
   11.1481  -18.2431   28.3580 C   0  0  0  0  0  0  0  0  0  0  0  0
   10.7760  -19.3945   27.6873 O   0  0  0  0  0  0  0  0  0  0  0  0
   11.6584  -18.4499   29.5146 O   0  0  0  0  0  0  0  0  0  0  0  0
  2  1  1  1
  2 13  1  0
  2  3  1  0
  4  3  1  0
  4  5  2  0
  6  5  1  0
  7  6  1  0
  8  7  2  0
  9  8  1  0
 10  9  2  0
 10 11  1  0
 11 12  2  0
 12  7  1  0
 12  4  1  0
 13 17  1  0
 14 13  2  0
 16 15  1  6
 17 16  1  0
 18 19  2  0
 18 16  1  0
 21 20  1  1
 21 23  1  0
 21 22  1  0
 24 25  1  0
 24 23  1  1
 25 18  1  0
 26 24  1  0
 27 26  1  0
 28 26  2  0
M  END
$$$$
