WAL.pdb
     RDKit          3D

 28 29  0  0  1  0  0  0  0  0999 V2000
    6.5493  -17.5075   23.6716 N   0  0  0  0  0  0  0  0  0  0  0  0
    7.6360  -16.5351   23.6488 C   0  0  1  0  0  0  0  0  0  0  0  0
    7.8124  -15.8563   24.9645 C   0  0  0  0  0  0  0  0  0  0  0  0
    6.7388  -14.9396   25.3492 C   0  0  0  0  0  0  0  0  0  0  0  0
    5.5438  -15.1450   26.0025 C   0  0  0  0  0  0  0  0  0  0  0  0
    4.9010  -13.9778   26.1163 N   0  0  0  0  0  0  0  0  0  0  0  0
    5.6357  -13.0075   25.5575 C   0  0  0  0  0  0  0  0  0  0  0  0
    5.4193  -11.6489   25.4163 C   0  0  0  0  0  0  0  0  0  0  0  0
    6.3468  -10.8679   24.7937 C   0  0  0  0  0  0  0  0  0  0  0  0
    7.5219  -11.4238   24.2923 C   0  0  0  0  0  0  0  0  0  0  0  0
    7.6994  -12.7670   24.4507 C   0  0  0  0  0  0  0  0  0  0  0  0
    6.7729  -13.5861   25.0798 C   0  0  0  0  0  0  0  0  0  0  0  0
    8.8391  -17.1765   23.1134 C   0  0  0  0  0  0  0  0  0  0  0  0
    9.0801  -18.3878   23.3412 O   0  0  0  0  0  0  0  0  0  0  0  0
   11.8499  -15.7906   21.2310 C   0  0  0  0  0  0  0  0  0  0  0  0
   11.1507  -16.7351   22.1911 C   0  0  2  0  0  0  0  0  0  0  0  0
    9.7514  -16.4243   22.3242 N   0  0  0  0  0  0  0  0  0  0  0  0
   11.7850  -16.7254   23.5282 C   0  0  0  0  0  0  0  0  0  0  0  0
   13.0027  -17.0324   23.6376 O   0  0  0  0  0  0  0  0  0  0  0  0
   12.0721  -14.1578   28.5054 C   0  0  0  0  0  0  0  0  0  0  0  0
   11.2970  -15.4600   28.3687 C   0  0  1  0  0  0  0  0  0  0  0  0
   10.1110  -15.4496   29.3163 C   0  0  0  0  0  0  0  0  0  0  0  0
   10.7792  -15.5415   26.9643 C   0  0  0  0  0  0  0  0  0  0  0  0
   11.6290  -16.3337   26.0267 C   0  0  2  0  0  0  0  0  0  0  0  0
   11.0579  -16.3795   24.6898 N   0  0  0  0  0  0  0  0  0  0  0  0
   11.9979  -17.6777   26.4953 C   0  0  0  0  0  0  0  0  0  0  0  0
   11.1913  -18.7973   26.3949 O   0  0  0  0  0  0  0  0  0  0  0  0
   13.1337  -17.8957   27.0463 O   0  0  0  0  0  0  0  0  0  0  0  0
  2  1  1  1
  2 13  1  0
  2  3  1  0
  4  3  1  0
  4  5  2  0
  6  5  1  0
  7  6  1  0
  8  7  2  0
  9  8  1  0
 10  9  2  0
 10 11  1  0
 11 12  2  0
 12  7  1  0
 12  4  1  0
 13 17  1  0
 14 13  2  0
 16 15  1  6
 17 16  1  0
 18 19  2  0
 18 16  1  0
 21 20  1  6
 21 23  1  0
 21 22  1  0
 24 25  1  0
 24 23  1  1
 25 18  1  0
 26 24  1  0
 27 26  1  0
 28 26  2  0
M  END
$$$$
