WAL.pdb
     RDKit          3D

 28 29  0  0  1  0  0  0  0  0999 V2000
    6.8217  -17.5231   24.4073 N   0  0  0  0  0  0  0  0  0  0  0  0
    7.8752  -16.5276   24.2450 C   0  0  1  0  0  0  0  0  0  0  0  0
    7.9795  -15.6204   25.4235 C   0  0  0  0  0  0  0  0  0  0  0  0
    6.7769  -14.8451   25.7299 C   0  0  0  0  0  0  0  0  0  0  0  0
    5.5720  -15.2010   26.2942 C   0  0  0  0  0  0  0  0  0  0  0  0
    4.7848  -14.1220   26.3620 N   0  0  0  0  0  0  0  0  0  0  0  0
    5.4338  -13.0640   25.8591 C   0  0  0  0  0  0  0  0  0  0  0  0
    5.0637  -11.7406   25.7037 C   0  0  0  0  0  0  0  0  0  0  0  0
    5.9313  -10.8463   25.1510 C   0  0  0  0  0  0  0  0  0  0  0  0
    7.1986  -11.2500   24.7360 C   0  0  0  0  0  0  0  0  0  0  0  0
    7.5271  -12.5630   24.9057 C   0  0  0  0  0  0  0  0  0  0  0  0
    6.6647  -13.4950   25.4649 C   0  0  0  0  0  0  0  0  0  0  0  0
    9.1184  -17.2054   23.8696 C   0  0  0  0  0  0  0  0  0  0  0  0
    9.2269  -18.4529   23.9641 O   0  0  0  0  0  0  0  0  0  0  0  0
   12.4666  -16.0307   22.5039 C   0  0  0  0  0  0  0  0  0  0  0  0
   11.5725  -16.9407   23.3256 C   0  0  2  0  0  0  0  0  0  0  0  0
   10.2216  -16.4474   23.3909 N   0  0  0  0  0  0  0  0  0  0  0  0
   12.0939  -17.1273   24.6980 C   0  0  0  0  0  0  0  0  0  0  0  0
   13.2554  -17.5891   24.8611 O   0  0  0  0  0  0  0  0  0  0  0  0
   10.3218  -13.8235   28.6713 C   0  0  0  0  0  0  0  0  0  0  0  0
   11.1233  -14.6481   27.6749 C   0  0  1  0  0  0  0  0  0  0  0  0
   12.5562  -14.1483   27.6347 C   0  0  0  0  0  0  0  0  0  0  0  0
   11.1314  -16.0683   28.1545 C   0  0  0  0  0  0  0  0  0  0  0  0
   11.7377  -17.0483   27.2054 C   0  0  2  0  0  0  0  0  0  0  0  0
   11.3201  -16.7997   25.8346 N   0  0  0  0  0  0  0  0  0  0  0  0
   11.5656  -18.4631   27.5671 C   0  0  0  0  0  0  0  0  0  0  0  0
   10.9447  -19.4106   26.7728 O   0  0  0  0  0  0  0  0  0  0  0  0
   11.9983  -18.9158   28.6847 O   0  0  0  0  0  0  0  0  0  0  0  0
  2  1  1  1
  2 13  1  0
  2  3  1  0
  4  3  1  0
  4  5  2  0
  6  5  1  0
  7  6  1  0
  8  7  2  0
  9  8  1  0
 10  9  2  0
 10 11  1  0
 11 12  2  0
 12  7  1  0
 12  4  1  0
 13 17  1  0
 14 13  2  0
 16 15  1  6
 17 16  1  0
 18 19  2  0
 18 16  1  0
 21 20  1  1
 21 23  1  0
 21 22  1  0
 24 25  1  0
 24 23  1  1
 25 18  1  0
 26 24  1  0
 27 26  1  0
 28 26  2  0
M  END
$$$$
