WAL.pdb
     RDKit          3D

 28 29  0  0  1  0  0  0  0  0999 V2000
    6.3355  -18.3323   21.3251 N   0  0  0  0  0  0  0  0  0  0  0  0
    7.0744  -17.2067   21.8854 C   0  0  1  0  0  0  0  0  0  0  0  0
    6.4852  -15.8946   21.4929 C   0  0  0  0  0  0  0  0  0  0  0  0
    6.8687  -15.4027   20.1693 C   0  0  0  0  0  0  0  0  0  0  0  0
    6.7664  -15.9621   18.9148 C   0  0  0  0  0  0  0  0  0  0  0  0
    7.2655  -15.1096   18.0134 N   0  0  0  0  0  0  0  0  0  0  0  0
    7.6946  -14.0037   18.6350 C   0  0  0  0  0  0  0  0  0  0  0  0
    8.2814  -12.8450   18.1602 C   0  0  0  0  0  0  0  0  0  0  0  0
    8.6303  -11.8495   19.0235 C   0  0  0  0  0  0  0  0  0  0  0  0
    8.4022  -11.9837   20.3915 C   0  0  0  0  0  0  0  0  0  0  0  0
    7.8216  -13.1407   20.8215 C   0  0  0  0  0  0  0  0  0  0  0  0
    7.4562  -14.1701   19.9660 C   0  0  0  0  0  0  0  0  0  0  0  0
    7.2338  -17.4107   23.3271 C   0  0  0  0  0  0  0  0  0  0  0  0
    6.2781  -17.2101   24.1167 O   0  0  0  0  0  0  0  0  0  0  0  0
    9.7335  -19.0890   25.5460 C   0  0  0  0  0  0  0  0  0  0  0  0
    8.7828  -17.9433   25.2521 C   0  0  2  0  0  0  0  0  0  0  0  0
    8.4846  -17.8418   23.8474 N   0  0  0  0  0  0  0  0  0  0  0  0
    9.3173  -16.6505   25.7352 C   0  0  0  0  0  0  0  0  0  0  0  0
   10.2642  -16.1005   25.1111 O   0  0  0  0  0  0  0  0  0  0  0  0
    6.6880  -12.2879   26.6023 C   0  0  0  0  0  0  0  0  0  0  0  0
    7.7659  -13.3186   26.3010 C   0  0  1  0  0  0  0  0  0  0  0  0
    8.8342  -12.6968   25.4196 C   0  0  0  0  0  0  0  0  0  0  0  0
    8.3981  -13.7162   27.6008 C   0  0  0  0  0  0  0  0  0  0  0  0
    9.3780  -14.8384   27.5052 C   0  0  2  0  0  0  0  0  0  0  0  0
    8.7911  -16.0146   26.8826 N   0  0  0  0  0  0  0  0  0  0  0  0
   10.0621  -15.1846   28.7599 C   0  0  0  0  0  0  0  0  0  0  0  0
    9.9991  -16.4208   29.3779 O   0  0  0  0  0  0  0  0  0  0  0  0
   10.7839  -14.3246   29.3768 O   0  0  0  0  0  0  0  0  0  0  0  0
  2  1  1  1
  2 13  1  0
  2  3  1  0
  4  3  1  0
  4  5  2  0
  6  5  1  0
  7  6  1  0
  8  7  2  0
  9  8  1  0
 10  9  2  0
 10 11  1  0
 11 12  2  0
 12  7  1  0
 12  4  1  0
 13 17  1  0
 14 13  2  0
 16 15  1  6
 17 16  1  0
 18 19  2  0
 18 16  1  0
 21 20  1  1
 21 23  1  0
 21 22  1  0
 24 25  1  0
 24 23  1  1
 25 18  1  0
 26 24  1  0
 27 26  1  0
 28 26  2  0
M  END
$$$$
