DPN.pdb
     RDKit          3D

 24 24  0  0  1  0  0  0  0  0999 V2000
    8.7375  -14.4474   21.1551 N   0  0  0  0  0  0  0  0  0  0  0  0
    7.8946  -14.1557   22.2195 C   0  0  1  0  0  0  0  0  0  0  0  0
    6.8268  -15.2639   22.2576 C   0  0  0  0  0  0  0  0  0  0  0  0
    7.5193  -16.5300   22.5684 C   0  0  0  0  0  0  0  0  0  0  0  0
    7.0555  -17.2787   23.4658 O   0  0  0  0  0  0  0  0  0  0  0  0
    8.4797  -14.0349   23.5703 C   0  0  0  0  0  0  0  0  0  0  0  0
    9.7496  -14.3054   23.5956 O   0  0  0  0  0  0  0  0  0  0  0  0
    8.6643  -16.9354   21.9135 O   0  0  0  0  0  0  0  0  0  0  0  0
    7.8177  -13.6748   24.7526 N   0  0  0  0  0  0  0  0  0  0  0  0
    6.4514  -13.3655   24.9946 C   0  0  0  0  0  0  0  0  0  0  0  0
    6.6077  -11.9953   25.6804 C   0  0  0  0  0  0  0  0  0  0  0  0
    7.7986  -12.2821   26.5712 C   0  0  0  0  0  0  0  0  0  0  0  0
    8.4455  -13.5432   26.0465 C   0  0  1  0  0  0  0  0  0  0  0  0
    8.1106  -14.6462   26.9719 C   0  0  0  0  0  0  0  0  0  0  0  0
    7.1349  -15.4269   26.8459 O   0  0  0  0  0  0  0  0  0  0  0  0
   11.4676  -18.2679   28.2724 N   0  0  0  0  0  0  0  0  0  0  0  0
   11.4630  -17.4692   27.0908 C   0  0  0  0  0  0  0  0  0  0  0  0
   12.2245  -17.8117   26.1758 O   0  0  0  0  0  0  0  0  0  0  0  0
   10.5721  -16.3219   27.0486 C   0  0  0  0  0  0  0  0  0  0  0  0
    9.7212  -16.1046   28.2768 C   0  0  2  0  0  0  0  0  0  0  0  0
    8.9557  -14.8415   28.0920 N   0  0  0  0  0  0  0  0  0  0  0  0
   10.5190  -15.9875   29.5135 C   0  0  0  0  0  0  0  0  0  0  0  0
   11.1591  -14.7900   29.8138 O   0  0  0  0  0  0  0  0  0  0  0  0
   10.6599  -16.9144   30.3263 O   0  0  0  0  0  0  0  0  0  0  0  0
  2  1  1  6
  2  3  1  0
  3  4  1  0
  4  5  2  0
  6  2  1  0
  7  6  2  0
  8  4  1  0
  9 10  1  0
  9  6  1  0
 11 10  1  0
 12 11  1  0
 13 12  1  0
 13  9  1  0
 13 14  1  1
 15 14  2  0
 17 16  1  0
 18 17  2  0
 19 17  1  0
 20 21  1  0
 20 19  1  6
 21 14  1  0
 22 20  1  0
 23 22  1  0
 24 22  2  0
M  END
$$$$
