DPN.pdb
     RDKit          3D

 24 24  0  0  1  0  0  0  0  0999 V2000
   10.4408  -15.8738   15.5100 N   0  0  0  0  0  0  0  0  0  0  0  0
    9.3627  -15.6763   16.3629 C   0  0  1  0  0  0  0  0  0  0  0  0
    8.5623  -16.9912   16.3796 C   0  0  0  0  0  0  0  0  0  0  0  0
    8.2568  -17.3367   14.9773 C   0  0  0  0  0  0  0  0  0  0  0  0
    7.4624  -16.6118   14.3259 O   0  0  0  0  0  0  0  0  0  0  0  0
    9.6318  -15.2845   17.7612 C   0  0  0  0  0  0  0  0  0  0  0  0
   10.8475  -15.5485   18.1336 O   0  0  0  0  0  0  0  0  0  0  0  0
    8.8079  -18.4297   14.3402 O   0  0  0  0  0  0  0  0  0  0  0  0
    8.7382  -14.6886   18.6624 N   0  0  0  0  0  0  0  0  0  0  0  0
    7.3845  -14.2864   18.4989 C   0  0  0  0  0  0  0  0  0  0  0  0
    7.4856  -12.8213   18.9628 C   0  0  0  0  0  0  0  0  0  0  0  0
    8.4002  -12.9873   20.1587 C   0  0  0  0  0  0  0  0  0  0  0  0
    9.0463  -14.3477   20.0315 C   0  0  1  0  0  0  0  0  0  0  0  0
    8.4085  -15.2489   21.0145 C   0  0  0  0  0  0  0  0  0  0  0  0
    7.3651  -15.9183   20.8134 O   0  0  0  0  0  0  0  0  0  0  0  0
   13.2308  -17.5557   21.2568 N   0  0  0  0  0  0  0  0  0  0  0  0
   11.9121  -17.7309   21.7710 C   0  0  0  0  0  0  0  0  0  0  0  0
   11.6687  -18.8004   22.3465 O   0  0  0  0  0  0  0  0  0  0  0  0
   10.9594  -16.6498   21.5829 C   0  0  0  0  0  0  0  0  0  0  0  0
    9.8762  -16.5385   22.6289 C   0  0  2  0  0  0  0  0  0  0  0  0
    9.0204  -15.3698   22.2864 N   0  0  0  0  0  0  0  0  0  0  0  0
   10.4121  -16.3388   23.9900 C   0  0  0  0  0  0  0  0  0  0  0  0
   10.5192  -17.4202   24.8575 O   0  0  0  0  0  0  0  0  0  0  0  0
   10.7840  -15.2371   24.4233 O   0  0  0  0  0  0  0  0  0  0  0  0
  2  1  1  6
  2  3  1  0
  3  4  1  0
  4  5  2  0
  6  2  1  0
  7  6  2  0
  8  4  1  0
  9 10  1  0
  9  6  1  0
 11 10  1  0
 12 11  1  0
 13 12  1  0
 13  9  1  0
 13 14  1  1
 15 14  2  0
 17 16  1  0
 18 17  2  0
 19 17  1  0
 20 21  1  0
 20 19  1  6
 21 14  1  0
 22 20  1  0
 23 22  1  0
 24 22  2  0
M  END
$$$$
