DPN.pdb
     RDKit          3D

 24 24  0  0  1  0  0  0  0  0999 V2000
    8.1139  -14.4635   21.1100 N   0  0  0  0  0  0  0  0  0  0  0  0
    7.6194  -14.7393   22.3780 C   0  0  1  0  0  0  0  0  0  0  0  0
    7.3858  -16.2594   22.4432 C   0  0  0  0  0  0  0  0  0  0  0  0
    6.4714  -16.6105   21.3387 C   0  0  0  0  0  0  0  0  0  0  0  0
    5.2443  -16.3624   21.4558 O   0  0  0  0  0  0  0  0  0  0  0  0
    8.4274  -14.3480   23.5508 C   0  0  0  0  0  0  0  0  0  0  0  0
    9.6990  -14.2968   23.2925 O   0  0  0  0  0  0  0  0  0  0  0  0
    6.9042  -17.2046   20.1709 O   0  0  0  0  0  0  0  0  0  0  0  0
    7.9628  -14.0465   24.8389 N   0  0  0  0  0  0  0  0  0  0  0  0
    6.6435  -14.0209   25.3678 C   0  0  0  0  0  0  0  0  0  0  0  0
    6.6232  -12.5994   25.9601 C   0  0  0  0  0  0  0  0  0  0  0  0
    8.0073  -12.5510   26.5734 C   0  0  0  0  0  0  0  0  0  0  0  0
    8.8001  -13.6805   25.9571 C   0  0  1  0  0  0  0  0  0  0  0  0
    8.9262  -14.7527   26.9668 C   0  0  0  0  0  0  0  0  0  0  0  0
    7.9690  -15.3963   27.4637 O   0  0  0  0  0  0  0  0  0  0  0  0
   11.1335  -18.1309   25.7385 N   0  0  0  0  0  0  0  0  0  0  0  0
   11.8568  -17.0869   26.3875 C   0  0  0  0  0  0  0  0  0  0  0  0
   12.5588  -16.3585   25.6727 O   0  0  0  0  0  0  0  0  0  0  0  0
   11.7173  -16.9564   27.8281 C   0  0  0  0  0  0  0  0  0  0  0  0
   10.4726  -16.2484   28.3067 C   0  0  2  0  0  0  0  0  0  0  0  0
   10.2296  -15.0839   27.4120 N   0  0  0  0  0  0  0  0  0  0  0  0
   10.5919  -15.7527   29.6922 C   0  0  0  0  0  0  0  0  0  0  0  0
   10.6886  -16.6561   30.7449 O   0  0  0  0  0  0  0  0  0  0  0  0
   10.6121  -14.5477   29.9876 O   0  0  0  0  0  0  0  0  0  0  0  0
  2  1  1  6
  2  3  1  0
  3  4  1  0
  4  5  2  0
  6  2  1  0
  7  6  2  0
  8  4  1  0
  9 10  1  0
  9  6  1  0
 11 10  1  0
 12 11  1  0
 13 12  1  0
 13  9  1  0
 13 14  1  1
 15 14  2  0
 17 16  1  0
 18 17  2  0
 19 17  1  0
 20 21  1  0
 20 19  1  6
 21 14  1  0
 22 20  1  0
 23 22  1  0
 24 22  2  0
M  END
$$$$
