DPN.pdb
     RDKit          3D

 24 24  0  0  1  0  0  0  0  0999 V2000
    8.5729  -15.1167   13.9464 N   0  0  0  0  0  0  0  0  0  0  0  0
    8.3017  -15.4033   15.2779 C   0  0  1  0  0  0  0  0  0  0  0  0
    8.4166  -16.9302   15.4362 C   0  0  0  0  0  0  0  0  0  0  0  0
    7.4362  -17.5416   14.5174 C   0  0  0  0  0  0  0  0  0  0  0  0
    6.3472  -17.9690   14.9780 O   0  0  0  0  0  0  0  0  0  0  0  0
    9.1347  -14.7695   16.3199 C   0  0  0  0  0  0  0  0  0  0  0  0
   10.3224  -14.4591   15.8961 O   0  0  0  0  0  0  0  0  0  0  0  0
    7.6608  -17.6677   13.1617 O   0  0  0  0  0  0  0  0  0  0  0  0
    8.7708  -14.4930   17.6454 N   0  0  0  0  0  0  0  0  0  0  0  0
    7.5599  -14.7425   18.3472 C   0  0  0  0  0  0  0  0  0  0  0  0
    7.2643  -13.3268   18.8767 C   0  0  0  0  0  0  0  0  0  0  0  0
    8.6583  -12.9062   19.2936 C   0  0  0  0  0  0  0  0  0  0  0  0
    9.6226  -13.8574   18.6231 C   0  0  1  0  0  0  0  0  0  0  0  0
   10.1295  -14.7918   19.6502 C   0  0  0  0  0  0  0  0  0  0  0  0
    9.5436  -15.8345   20.0336 O   0  0  0  0  0  0  0  0  0  0  0  0
   14.8027  -13.8241   19.1954 N   0  0  0  0  0  0  0  0  0  0  0  0
   14.2071  -15.0580   19.5914 C   0  0  0  0  0  0  0  0  0  0  0  0
   14.2323  -15.9854   18.7705 O   0  0  0  0  0  0  0  0  0  0  0  0
   13.6195  -15.1349   20.9183 C   0  0  0  0  0  0  0  0  0  0  0  0
   12.1631  -15.5299   20.9706 C   0  0  2  0  0  0  0  0  0  0  0  0
   11.3757  -14.4906   20.2526 N   0  0  0  0  0  0  0  0  0  0  0  0
   11.6464  -15.6339   22.3496 C   0  0  0  0  0  0  0  0  0  0  0  0
   12.1333  -16.6216   23.1988 O   0  0  0  0  0  0  0  0  0  0  0  0
   10.7811  -14.8756   22.8143 O   0  0  0  0  0  0  0  0  0  0  0  0
  2  1  1  6
  2  3  1  0
  3  4  1  0
  4  5  2  0
  6  2  1  0
  7  6  2  0
  8  4  1  0
  9 10  1  0
  9  6  1  0
 11 10  1  0
 12 11  1  0
 13 12  1  0
 13  9  1  0
 13 14  1  1
 15 14  2  0
 17 16  1  0
 18 17  2  0
 19 17  1  0
 20 21  1  0
 20 19  1  1
 21 14  1  0
 22 20  1  0
 23 22  1  0
 24 22  2  0
M  END
$$$$
