DPN.pdb
     RDKit          3D

 24 24  0  0  1  0  0  0  0  0999 V2000
    8.0813  -17.3628   17.0186 N   0  0  0  0  0  0  0  0  0  0  0  0
    8.9909  -16.3659   16.6909 C   0  0  1  0  0  0  0  0  0  0  0  0
    8.3114  -15.4730   15.6370 C   0  0  0  0  0  0  0  0  0  0  0  0
    9.0774  -15.6137   14.3830 C   0  0  0  0  0  0  0  0  0  0  0  0
    9.9852  -16.4808   14.3126 O   0  0  0  0  0  0  0  0  0  0  0  0
    9.5030  -15.4958   17.7689 C   0  0  0  0  0  0  0  0  0  0  0  0
   10.7963  -15.3805   17.7521 O   0  0  0  0  0  0  0  0  0  0  0  0
    8.8419  -14.8300   13.2719 O   0  0  0  0  0  0  0  0  0  0  0  0
    8.7539  -14.8266   18.7471 N   0  0  0  0  0  0  0  0  0  0  0  0
    7.3493  -14.6572   18.8866 C   0  0  0  0  0  0  0  0  0  0  0  0
    7.2787  -13.1237   19.0111 C   0  0  0  0  0  0  0  0  0  0  0  0
    8.4665  -12.8793   19.9186 C   0  0  0  0  0  0  0  0  0  0  0  0
    9.3093  -14.1334   19.8857 C   0  0  1  0  0  0  0  0  0  0  0  0
    9.1070  -14.8520   21.1615 C   0  0  0  0  0  0  0  0  0  0  0  0
    8.0233  -15.3585   21.5440 O   0  0  0  0  0  0  0  0  0  0  0  0
   10.1151  -19.0255   22.7580 N   0  0  0  0  0  0  0  0  0  0  0  0
   10.6040  -18.6010   21.4872 C   0  0  0  0  0  0  0  0  0  0  0  0
   10.7186  -19.4672   20.6091 O   0  0  0  0  0  0  0  0  0  0  0  0
   10.9286  -17.1946   21.3183 C   0  0  0  0  0  0  0  0  0  0  0  0
   10.6735  -16.3124   22.5169 C   0  0  2  0  0  0  0  0  0  0  0  0
   10.2227  -14.9820   22.0247 N   0  0  0  0  0  0  0  0  0  0  0  0
   11.8761  -16.1162   23.3506 C   0  0  0  0  0  0  0  0  0  0  0  0
   11.9576  -16.7192   24.6010 O   0  0  0  0  0  0  0  0  0  0  0  0
   12.8471  -15.4286   22.9985 O   0  0  0  0  0  0  0  0  0  0  0  0
  2  1  1  1
  2  3  1  0
  3  4  1  0
  4  5  2  0
  6  2  1  0
  7  6  2  0
  8  4  1  0
  9 10  1  0
  9  6  1  0
 11 10  1  0
 12 11  1  0
 13 12  1  0
 13  9  1  0
 13 14  1  1
 15 14  2  0
 17 16  1  0
 18 17  2  0
 19 17  1  0
 20 21  1  0
 20 19  1  6
 21 14  1  0
 22 20  1  0
 23 22  1  0
 24 22  2  0
M  END
$$$$
