DPN.pdb
     RDKit          3D

 24 24  0  0  1  0  0  0  0  0999 V2000
    8.6039  -15.5626   14.0587 N   0  0  0  0  0  0  0  0  0  0  0  0
    8.3444  -15.5853   15.4228 C   0  0  1  0  0  0  0  0  0  0  0  0
    8.5068  -17.0456   15.8819 C   0  0  0  0  0  0  0  0  0  0  0  0
    7.6717  -17.8797   14.9954 C   0  0  0  0  0  0  0  0  0  0  0  0
    6.4226  -17.8673   15.1387 O   0  0  0  0  0  0  0  0  0  0  0  0
    9.1595  -14.7314   16.3103 C   0  0  0  0  0  0  0  0  0  0  0  0
   10.2550  -14.3199   15.7472 O   0  0  0  0  0  0  0  0  0  0  0  0
    8.2027  -18.6815   14.0057 O   0  0  0  0  0  0  0  0  0  0  0  0
    8.8656  -14.3528   17.6279 N   0  0  0  0  0  0  0  0  0  0  0  0
    7.7131  -14.5874   18.4264 C   0  0  0  0  0  0  0  0  0  0  0  0
    7.3859  -13.1432   18.8499 C   0  0  0  0  0  0  0  0  0  0  0  0
    8.7822  -12.6312   19.1367 C   0  0  0  0  0  0  0  0  0  0  0  0
    9.7460  -13.5986   18.4892 C   0  0  1  0  0  0  0  0  0  0  0  0
   10.3576  -14.4166   19.5578 C   0  0  0  0  0  0  0  0  0  0  0  0
    9.8661  -15.4686   20.0364 O   0  0  0  0  0  0  0  0  0  0  0  0
   14.9618  -16.3840   21.0968 N   0  0  0  0  0  0  0  0  0  0  0  0
   15.1702  -15.0522   20.6311 C   0  0  0  0  0  0  0  0  0  0  0  0
   16.3432  -14.6661   20.5335 O   0  0  0  0  0  0  0  0  0  0  0  0
   14.0000  -14.2534   20.3083 C   0  0  0  0  0  0  0  0  0  0  0  0
   12.6682  -14.9499   20.4527 C   0  0  2  0  0  0  0  0  0  0  0  0
   11.5978  -13.9823   20.0872 N   0  0  0  0  0  0  0  0  0  0  0  0
   12.4156  -15.4244   21.8277 C   0  0  0  0  0  0  0  0  0  0  0  0
   13.0563  -16.5669   22.2946 O   0  0  0  0  0  0  0  0  0  0  0  0
   11.6466  -14.8541   22.6171 O   0  0  0  0  0  0  0  0  0  0  0  0
  2  1  1  6
  2  3  1  0
  3  4  1  0
  4  5  2  0
  6  2  1  0
  7  6  2  0
  8  4  1  0
  9 10  1  0
  9  6  1  0
 11 10  1  0
 12 11  1  0
 13 12  1  0
 13  9  1  0
 13 14  1  1
 15 14  2  0
 17 16  1  0
 18 17  2  0
 19 17  1  0
 20 21  1  0
 20 19  1  1
 21 14  1  0
 22 20  1  0
 23 22  1  0
 24 22  2  0
M  END
$$$$
