DPN.pdb
     RDKit          3D

 24 24  0  0  1  0  0  0  0  0999 V2000
    8.3768  -14.4061   20.6371 N   0  0  0  0  0  0  0  0  0  0  0  0
    7.6443  -14.4510   21.8160 C   0  0  1  0  0  0  0  0  0  0  0  0
    7.1290  -15.8939   21.9646 C   0  0  0  0  0  0  0  0  0  0  0  0
    8.3082  -16.7656   22.1337 C   0  0  0  0  0  0  0  0  0  0  0  0
    9.3429  -16.5363   21.4570 O   0  0  0  0  0  0  0  0  0  0  0  0
    8.3124  -14.0696   23.0768 C   0  0  0  0  0  0  0  0  0  0  0  0
    9.5788  -13.8268   22.9228 O   0  0  0  0  0  0  0  0  0  0  0  0
    8.3293  -17.8322   23.0091 O   0  0  0  0  0  0  0  0  0  0  0  0
    7.7279  -13.9557   24.3461 N   0  0  0  0  0  0  0  0  0  0  0  0
    6.3903  -14.1737   24.7754 C   0  0  0  0  0  0  0  0  0  0  0  0
    6.1138  -12.8289   25.4735 C   0  0  0  0  0  0  0  0  0  0  0  0
    7.4331  -12.6294   26.1903 C   0  0  0  0  0  0  0  0  0  0  0  0
    8.4276  -13.5693   25.5489 C   0  0  1  0  0  0  0  0  0  0  0  0
    8.6552  -14.6958   26.4785 C   0  0  0  0  0  0  0  0  0  0  0  0
    8.1554  -15.8423   26.3638 O   0  0  0  0  0  0  0  0  0  0  0  0
   11.5094  -17.3875   29.9506 N   0  0  0  0  0  0  0  0  0  0  0  0
   11.3159  -16.0753   30.4749 C   0  0  0  0  0  0  0  0  0  0  0  0
   11.6951  -15.8705   31.6362 O   0  0  0  0  0  0  0  0  0  0  0  0
   10.6931  -15.0838   29.6141 C   0  0  0  0  0  0  0  0  0  0  0  0
   10.1973  -15.5893   28.2805 C   0  0  2  0  0  0  0  0  0  0  0  0
    9.5046  -14.4679   27.5891 N   0  0  0  0  0  0  0  0  0  0  0  0
    9.2479  -16.7124   28.4101 C   0  0  0  0  0  0  0  0  0  0  0  0
    7.8876  -16.4572   28.5448 O   0  0  0  0  0  0  0  0  0  0  0  0
    9.5942  -17.9040   28.4066 O   0  0  0  0  0  0  0  0  0  0  0  0
  2  1  1  6
  2  3  1  0
  3  4  1  0
  4  5  2  0
  6  2  1  0
  7  6  2  0
  8  4  1  0
  9 10  1  0
  9  6  1  0
 11 10  1  0
 12 11  1  0
 13 12  1  0
 13  9  1  0
 13 14  1  1
 15 14  2  0
 17 16  1  0
 18 17  2  0
 19 17  1  0
 20 21  1  0
 20 19  1  1
 21 14  1  0
 22 20  1  0
 23 22  1  0
 24 22  2  0
M  END
$$$$
