DPN.pdb
     RDKit          3D

 24 24  0  0  1  0  0  0  0  0999 V2000
   -8.3195  -23.2961   27.7755 N   0  0  0  0  0  0  0  0  0  0  0  0
   -7.0671  -22.8049   28.1203 C   0  0  1  0  0  0  0  0  0  0  0  0
   -6.9525  -22.9149   29.6515 C   0  0  0  0  0  0  0  0  0  0  0  0
   -8.0114  -22.0665   30.2328 C   0  0  0  0  0  0  0  0  0  0  0  0
   -9.0723  -22.6033   30.6420 O   0  0  0  0  0  0  0  0  0  0  0  0
   -5.8727  -23.4364   27.5237 C   0  0  0  0  0  0  0  0  0  0  0  0
   -6.0885  -24.6568   27.1357 O   0  0  0  0  0  0  0  0  0  0  0  0
   -7.8910  -20.6968   30.3499 O   0  0  0  0  0  0  0  0  0  0  0  0
   -4.6051  -22.8622   27.3529 N   0  0  0  0  0  0  0  0  0  0  0  0
   -4.1438  -21.5401   27.5988 C   0  0  0  0  0  0  0  0  0  0  0  0
   -3.5292  -21.2143   26.2247 C   0  0  0  0  0  0  0  0  0  0  0  0
   -2.8454  -22.5319   25.9241 C   0  0  0  0  0  0  0  0  0  0  0  0
   -3.4396  -23.5585   26.8608 C   0  0  1  0  0  0  0  0  0  0  0  0
   -2.4432  -23.8447   27.9145 C   0  0  0  0  0  0  0  0  0  0  0  0
   -2.3148  -23.2002   28.9848 O   0  0  0  0  0  0  0  0  0  0  0  0
   -1.1123  -27.7863   30.8251 N   0  0  0  0  0  0  0  0  0  0  0  0
   -2.3693  -27.1350   30.6524 C   0  0  0  0  0  0  0  0  0  0  0  0
   -3.2778  -27.4461   31.4350 O   0  0  0  0  0  0  0  0  0  0  0  0
   -2.4898  -26.1622   29.5795 C   0  0  0  0  0  0  0  0  0  0  0  0
   -1.2281  -25.8862   28.7975 C   0  0  2  0  0  0  0  0  0  0  0  0
   -1.5607  -24.9327   27.7040 N   0  0  0  0  0  0  0  0  0  0  0  0
   -0.6505  -27.1030   28.1930 C   0  0  0  0  0  0  0  0  0  0  0  0
    0.6702  -27.4479   28.4582 O   0  0  0  0  0  0  0  0  0  0  0  0
   -1.2848  -27.8602   27.4420 O   0  0  0  0  0  0  0  0  0  0  0  0
  2  1  1  6
  2  3  1  0
  3  4  1  0
  4  5  2  0
  6  2  1  0
  7  6  2  0
  8  4  1  0
  9 10  1  0
  9  6  1  0
 11 10  1  0
 12 11  1  0
 13 12  1  0
 13  9  1  0
 13 14  1  1
 15 14  2  0
 17 16  1  0
 18 17  2  0
 19 17  1  0
 20 21  1  0
 20 19  1  6
 21 14  1  0
 22 20  1  0
 23 22  1  0
 24 22  2  0
M  END
$$$$
