DPN.pdb
     RDKit          3D

 24 24  0  0  1  0  0  0  0  0999 V2000
    9.3139  -15.4663   14.8771 N   0  0  0  0  0  0  0  0  0  0  0  0
    8.6122  -15.1015   16.0187 C   0  0  1  0  0  0  0  0  0  0  0  0
    7.5743  -16.2089   16.2754 C   0  0  0  0  0  0  0  0  0  0  0  0
    8.3082  -17.4869   16.3605 C   0  0  0  0  0  0  0  0  0  0  0  0
    9.2050  -17.7368   15.5154 O   0  0  0  0  0  0  0  0  0  0  0  0
    9.3659  -14.8793   17.2693 C   0  0  0  0  0  0  0  0  0  0  0  0
   10.6285  -15.1602   17.1535 O   0  0  0  0  0  0  0  0  0  0  0  0
    8.0540  -18.4308   17.3345 O   0  0  0  0  0  0  0  0  0  0  0  0
    8.8612  -14.4192   18.4938 N   0  0  0  0  0  0  0  0  0  0  0  0
    7.5297  -14.1309   18.9000 C   0  0  0  0  0  0  0  0  0  0  0  0
    7.7163  -12.6921   19.4169 C   0  0  0  0  0  0  0  0  0  0  0  0
    9.0334  -12.8451   20.1491 C   0  0  0  0  0  0  0  0  0  0  0  0
    9.6585  -14.1325   19.6633 C   0  0  1  0  0  0  0  0  0  0  0  0
    9.5102  -15.1429   20.7321 C   0  0  0  0  0  0  0  0  0  0  0  0
    8.5631  -15.9620   20.8285 O   0  0  0  0  0  0  0  0  0  0  0  0
   13.4225  -18.8896   20.6281 N   0  0  0  0  0  0  0  0  0  0  0  0
   12.2312  -18.5249   21.3224 C   0  0  0  0  0  0  0  0  0  0  0  0
   11.7752  -19.3463   22.1298 O   0  0  0  0  0  0  0  0  0  0  0  0
   11.6455  -17.2268   21.0332 C   0  0  0  0  0  0  0  0  0  0  0  0
   11.0615  -16.4909   22.2153 C   0  0  2  0  0  0  0  0  0  0  0  0
   10.5150  -15.1945   21.7293 N   0  0  0  0  0  0  0  0  0  0  0  0
   12.0600  -16.2095   23.2657 C   0  0  0  0  0  0  0  0  0  0  0  0
   12.9306  -15.1345   23.1233 O   0  0  0  0  0  0  0  0  0  0  0  0
   12.1768  -16.8890   24.2974 O   0  0  0  0  0  0  0  0  0  0  0  0
  2  1  1  6
  2  3  1  0
  3  4  1  0
  4  5  2  0
  6  2  1  0
  7  6  2  0
  8  4  1  0
  9 10  1  0
  9  6  1  0
 11 10  1  0
 12 11  1  0
 13 12  1  0
 13  9  1  0
 13 14  1  1
 15 14  2  0
 17 16  1  0
 18 17  2  0
 19 17  1  0
 20 21  1  0
 20 19  1  6
 21 14  1  0
 22 20  1  0
 23 22  1  0
 24 22  2  0
M  END
$$$$
