FIR.pdb
     RDKit          3D

 31 31  0  0  1  0  0  0  0  0999 V2000
   21.1151  -13.6645  -19.4353 N   0  0  0  0  0  0  0  0  0  0  0  0
   21.6055  -12.3016  -19.4608 C   0  0  1  0  0  0  0  0  0  0  0  0
   20.4486  -11.4429  -19.9851 C   0  0  0  0  0  0  0  0  0  0  0  0
   20.3651  -11.5329  -21.4699 C   0  0  0  0  0  0  0  0  0  0  0  0
   21.1546  -10.7833  -22.3199 C   0  0  0  0  0  0  0  0  0  0  0  0
   21.0190  -10.9169  -23.6976 C   0  0  0  0  0  0  0  0  0  0  0  0
   20.0760  -11.8172  -24.1772 C   0  0  0  0  0  0  0  0  0  0  0  0
   19.2838  -12.5693  -23.3301 C   0  0  0  0  0  0  0  0  0  0  0  0
   19.4340  -12.4217  -21.9724 C   0  0  0  0  0  0  0  0  0  0  0  0
   21.9212  -11.8200  -18.0841 C   0  0  0  0  0  0  0  0  0  0  0  0
   21.2376  -12.2981  -17.1320 O   0  0  0  0  0  0  0  0  0  0  0  0
   26.7024  -10.8178  -14.7920 C   0  0  0  0  0  0  0  0  0  0  0  0
   25.2353  -10.3800  -14.8898 C   0  0  0  0  0  0  0  0  0  0  0  0
   24.7069  -10.7684  -16.2359 C   0  0  2  0  0  0  0  0  0  0  0  0
   25.6441  -10.1618  -17.2740 C   0  0  0  0  0  0  0  0  0  0  0  0
   23.2697  -10.4076  -16.4662 C   0  0  2  0  0  0  0  0  0  0  0  0
   22.9338  -10.8732  -17.8299 N   0  0  0  0  0  0  0  0  0  0  0  0
   22.9511   -8.9806  -16.4273 C   0  0  0  0  0  0  0  0  0  0  0  0
   23.4060   -8.2290  -17.3686 O   0  0  0  0  0  0  0  0  0  0  0  0
   15.8626   -4.3291  -17.2538 N   0  0  0  0  0  0  0  0  0  0  0  0
   16.8434   -3.3429  -16.8906 C   0  0  0  0  0  0  0  0  0  0  0  0
   16.5285   -2.0900  -16.8505 N   0  0  0  0  0  0  0  0  0  0  0  0
   18.1768   -3.6861  -16.5658 N   0  0  0  0  0  0  0  0  0  0  0  0
   18.5625   -5.0837  -16.5120 C   0  0  0  0  0  0  0  0  0  0  0  0
   19.9843   -5.2680  -16.1099 C   0  0  0  0  0  0  0  0  0  0  0  0
   20.4798   -6.6495  -16.0534 C   0  0  0  0  0  0  0  0  0  0  0  0
   21.8689   -6.9118  -15.5963 C   0  0  2  0  0  0  0  0  0  0  0  0
   22.1786   -8.3075  -15.4552 N   0  0  0  0  0  0  0  0  0  0  0  0
   22.2981   -6.1974  -14.3890 C   0  0  0  0  0  0  0  0  0  0  0  0
   22.5254   -4.8426  -14.4210 O   0  0  0  0  0  0  0  0  0  0  0  0
   22.4668   -6.8049  -13.3004 O   0  0  0  0  0  0  0  0  0  0  0  0
  2  1  1  1
  3  2  1  0
  3  4  1  0
  4  5  2  0
  5  6  1  0
  7  6  2  0
  8  7  1  0
  9  4  1  0
  9  8  2  0
 10  2  1  0
 10 11  2  0
 13 12  1  0
 14 13  1  0
 14 16  1  0
 14 15  1  6
 16 17  1  6
 16 18  1  0
 17 10  1  0
 18 19  2  0
 18 28  1  0
 20 21  1  0
 21 22  2  0
 21 23  1  0
 23 24  1  0
 24 25  1  0
 25 26  1  0
 27 26  1  1
 27 29  1  0
 28 27  1  0
 29 31  2  0
 29 30  1  0
M  END
$$$$
