FIR.pdb
     RDKit          3D

 31 31  0  0  1  0  0  0  0  0999 V2000
   13.7509  -16.4445    4.2627 N   0  0  0  0  0  0  0  0  0  0  0  0
   13.2312  -17.5994    3.5592 C   0  0  1  0  0  0  0  0  0  0  0  0
   12.3116  -17.0508    2.4618 C   0  0  0  0  0  0  0  0  0  0  0  0
   11.5405  -18.1570    1.8280 C   0  0  0  0  0  0  0  0  0  0  0  0
   10.3471  -18.6349    2.3329 C   0  0  0  0  0  0  0  0  0  0  0  0
    9.6835  -19.6742    1.6897 C   0  0  0  0  0  0  0  0  0  0  0  0
   10.2568  -20.2035    0.5404 C   0  0  0  0  0  0  0  0  0  0  0  0
   11.4510  -19.7283    0.0316 C   0  0  0  0  0  0  0  0  0  0  0  0
   12.0901  -18.7010    0.6828 C   0  0  0  0  0  0  0  0  0  0  0  0
   14.3270  -18.3504    2.8793 C   0  0  0  0  0  0  0  0  0  0  0  0
   15.1996  -17.6709    2.2635 O   0  0  0  0  0  0  0  0  0  0  0  0
   18.3269  -22.1285    4.4738 C   0  0  0  0  0  0  0  0  0  0  0  0
   17.5960  -21.7435    3.1810 C   0  0  0  0  0  0  0  0  0  0  0  0
   16.3638  -20.9711    3.5377 C   0  0  2  0  0  0  0  0  0  0  0  0
   15.5572  -21.8381    4.4976 C   0  0  0  0  0  0  0  0  0  0  0  0
   15.5618  -20.5036    2.3600 C   0  0  2  0  0  0  0  0  0  0  0  0
   14.4079  -19.7572    2.9082 N   0  0  0  0  0  0  0  0  0  0  0  0
   15.0065  -21.5513    1.5038 C   0  0  0  0  0  0  0  0  0  0  0  0
   14.0985  -22.3213    1.9944 O   0  0  0  0  0  0  0  0  0  0  0  0
   14.5137  -24.1311   -7.2021 N   0  0  0  0  0  0  0  0  0  0  0  0
   14.6062  -25.2941   -6.3621 C   0  0  0  0  0  0  0  0  0  0  0  0
   14.8462  -26.4555   -6.8759 N   0  0  0  0  0  0  0  0  0  0  0  0
   14.4417  -25.2284   -4.9586 N   0  0  0  0  0  0  0  0  0  0  0  0
   15.0497  -24.1391   -4.2177 C   0  0  0  0  0  0  0  0  0  0  0  0
   14.6805  -24.1544   -2.7753 C   0  0  0  0  0  0  0  0  0  0  0  0
   15.1423  -23.0202   -1.9644 C   0  0  0  0  0  0  0  0  0  0  0  0
   14.8259  -22.9797   -0.5134 C   0  0  2  0  0  0  0  0  0  0  0  0
   15.3532  -21.8269    0.1627 N   0  0  0  0  0  0  0  0  0  0  0  0
   15.1588  -24.1843    0.2549 C   0  0  0  0  0  0  0  0  0  0  0  0
   14.2615  -25.2201    0.3562 O   0  0  0  0  0  0  0  0  0  0  0  0
   16.2687  -24.2978    0.8360 O   0  0  0  0  0  0  0  0  0  0  0  0
  2  1  1  6
  3  2  1  0
  3  4  1  0
  4  5  2  0
  5  6  1  0
  7  6  2  0
  8  7  1  0
  9  4  1  0
  9  8  2  0
 10  2  1  0
 10 11  2  0
 13 12  1  0
 14 13  1  0
 14 16  1  0
 14 15  1  1
 16 17  1  1
 16 18  1  0
 17 10  1  0
 18 19  2  0
 18 28  1  0
 20 21  1  0
 21 22  2  0
 21 23  1  0
 23 24  1  0
 24 25  1  0
 25 26  1  0
 27 26  1  6
 27 29  1  0
 28 27  1  0
 29 31  2  0
 29 30  1  0
M  END
$$$$
