FIR.pdb
     RDKit          3D

 31 31  0  0  1  0  0  0  0  0999 V2000
   27.8799  -20.4766   -8.8175 N   0  0  0  0  0  0  0  0  0  0  0  0
   26.4893  -20.8473   -8.6518 C   0  0  1  0  0  0  0  0  0  0  0  0
   26.0695  -20.3198   -7.2748 C   0  0  0  0  0  0  0  0  0  0  0  0
   27.1938  -20.4444   -6.3050 C   0  0  0  0  0  0  0  0  0  0  0  0
   28.1515  -21.4368   -6.3789 C   0  0  0  0  0  0  0  0  0  0  0  0
   29.1715  -21.4938   -5.4351 C   0  0  0  0  0  0  0  0  0  0  0  0
   29.1897  -20.5313   -4.4336 C   0  0  0  0  0  0  0  0  0  0  0  0
   28.2333  -19.5364   -4.3560 C   0  0  0  0  0  0  0  0  0  0  0  0
   27.2342  -19.4986   -5.2985 C   0  0  0  0  0  0  0  0  0  0  0  0
   25.6293  -20.1666   -9.6638 C   0  0  0  0  0  0  0  0  0  0  0  0
   25.3205  -18.9589   -9.4436 O   0  0  0  0  0  0  0  0  0  0  0  0
   28.5652  -19.2216  -13.8750 C   0  0  0  0  0  0  0  0  0  0  0  0
   27.0470  -19.4157  -13.7696 C   0  0  0  0  0  0  0  0  0  0  0  0
   26.7363  -20.0692  -12.4588 C   0  0  2  0  0  0  0  0  0  0  0  0
   27.4880  -21.3952  -12.4331 C   0  0  0  0  0  0  0  0  0  0  0  0
   25.2721  -20.2234  -12.1738 C   0  0  2  0  0  0  0  0  0  0  0  0
   25.1682  -20.8206  -10.8240 N   0  0  0  0  0  0  0  0  0  0  0  0
   24.5316  -21.1069  -13.0740 C   0  0  0  0  0  0  0  0  0  0  0  0
   24.5206  -20.8258  -14.3305 O   0  0  0  0  0  0  0  0  0  0  0  0
   18.2350  -23.4397   -9.4976 N   0  0  0  0  0  0  0  0  0  0  0  0
   19.2432  -23.2509   -8.4903 C   0  0  0  0  0  0  0  0  0  0  0  0
   19.3304  -24.0652   -7.4905 N   0  0  0  0  0  0  0  0  0  0  0  0
   20.1720  -22.1852   -8.5405 N   0  0  0  0  0  0  0  0  0  0  0  0
   20.0869  -21.2124   -9.6135 C   0  0  0  0  0  0  0  0  0  0  0  0
   20.4858  -21.7798  -10.9310 C   0  0  0  0  0  0  0  0  0  0  0  0
   21.9183  -21.7531  -11.2541 C   0  0  0  0  0  0  0  0  0  0  0  0
   22.3790  -22.2323  -12.5827 C   0  0  2  0  0  0  0  0  0  0  0  0
   23.8085  -22.2679  -12.7221 N   0  0  0  0  0  0  0  0  0  0  0  0
   21.7966  -21.5611  -13.7499 C   0  0  0  0  0  0  0  0  0  0  0  0
   20.8574  -22.1963  -14.5263 O   0  0  0  0  0  0  0  0  0  0  0  0
   22.1407  -20.3931  -14.0662 O   0  0  0  0  0  0  0  0  0  0  0  0
  2  1  1  6
  3  2  1  0
  3  4  1  0
  4  5  2  0
  5  6  1  0
  7  6  2  0
  8  7  1  0
  9  4  1  0
  9  8  2  0
 10  2  1  0
 10 11  2  0
 13 12  1  0
 14 13  1  0
 14 16  1  0
 14 15  1  6
 16 17  1  1
 16 18  1  0
 17 10  1  0
 18 19  2  0
 18 28  1  0
 20 21  1  0
 21 22  2  0
 21 23  1  0
 23 24  1  0
 24 25  1  0
 25 26  1  0
 27 26  1  1
 27 29  1  0
 28 27  1  0
 29 31  2  0
 29 30  1  0
M  END
$$$$
