FIR.pdb
     RDKit          3D

 31 31  0  0  1  0  0  0  0  0999 V2000
   27.9037  -19.6097  -15.4926 N   0  0  0  0  0  0  0  0  0  0  0  0
   26.9627  -19.1324  -14.4999 C   0  0  1  0  0  0  0  0  0  0  0  0
   25.9342  -18.2872  -15.2605 C   0  0  0  0  0  0  0  0  0  0  0  0
   26.5637  -17.0374  -15.7720 C   0  0  0  0  0  0  0  0  0  0  0  0
   26.8873  -16.8409  -17.1002 C   0  0  0  0  0  0  0  0  0  0  0  0
   27.4775  -15.6485  -17.5056 C   0  0  0  0  0  0  0  0  0  0  0  0
   27.7244  -14.6803  -16.5405 C   0  0  0  0  0  0  0  0  0  0  0  0
   27.4022  -14.8729  -15.2101 C   0  0  0  0  0  0  0  0  0  0  0  0
   26.8198  -16.0583  -14.8312 C   0  0  0  0  0  0  0  0  0  0  0  0
   26.2225  -20.2670  -13.8742 C   0  0  0  0  0  0  0  0  0  0  0  0
   26.1100  -21.3298  -14.5526 O   0  0  0  0  0  0  0  0  0  0  0  0
   25.4580  -20.1504   -8.2918 C   0  0  0  0  0  0  0  0  0  0  0  0
   24.9738  -20.0573   -9.7446 C   0  0  0  0  0  0  0  0  0  0  0  0
   25.4210  -21.2829  -10.4794 C   0  0  2  0  0  0  0  0  0  0  0  0
   26.9306  -21.3870  -10.2944 C   0  0  0  0  0  0  0  0  0  0  0  0
   25.0054  -21.3294  -11.9195 C   0  0  2  0  0  0  0  0  0  0  0  0
   25.6636  -20.1824  -12.5831 N   0  0  0  0  0  0  0  0  0  0  0  0
   23.5729  -21.1903  -12.1799 C   0  0  0  0  0  0  0  0  0  0  0  0
   23.0356  -20.0303  -12.0259 O   0  0  0  0  0  0  0  0  0  0  0  0
   17.4042  -23.1833   -8.2539 N   0  0  0  0  0  0  0  0  0  0  0  0
   17.9648  -24.5061   -8.2041 C   0  0  0  0  0  0  0  0  0  0  0  0
   17.1966  -25.5389   -8.0872 N   0  0  0  0  0  0  0  0  0  0  0  0
   19.3579  -24.7403   -8.2781 N   0  0  0  0  0  0  0  0  0  0  0  0
   20.2592  -23.6264   -8.5060 C   0  0  0  0  0  0  0  0  0  0  0  0
   20.1527  -23.0796   -9.8868 C   0  0  0  0  0  0  0  0  0  0  0  0
   21.4076  -22.9281  -10.6347 C   0  0  0  0  0  0  0  0  0  0  0  0
   21.3823  -22.3346  -11.9964 C   0  0  2  0  0  0  0  0  0  0  0  0
   22.6814  -22.2037  -12.5957 N   0  0  0  0  0  0  0  0  0  0  0  0
   20.6562  -21.0674  -12.1359 C   0  0  0  0  0  0  0  0  0  0  0  0
   21.1440  -19.9150  -11.5682 O   0  0  0  0  0  0  0  0  0  0  0  0
   19.5752  -21.0055  -12.7763 O   0  0  0  0  0  0  0  0  0  0  0  0
  2  1  1  6
  3  2  1  0
  3  4  1  0
  4  5  2  0
  5  6  1  0
  7  6  2  0
  8  7  1  0
  9  4  1  0
  9  8  2  0
 10  2  1  0
 10 11  2  0
 13 12  1  0
 14 13  1  0
 14 16  1  0
 14 15  1  6
 16 17  1  6
 16 18  1  0
 17 10  1  0
 18 19  2  0
 18 28  1  0
 20 21  1  0
 21 22  2  0
 21 23  1  0
 23 24  1  0
 24 25  1  0
 25 26  1  0
 27 26  1  1
 27 29  1  0
 28 27  1  0
 29 31  2  0
 29 30  1  0
M  END
$$$$
