FIR.pdb
     RDKit          3D

 31 31  0  0  1  0  0  0  0  0999 V2000
   28.1134  -20.4400   -8.9350 N   0  0  0  0  0  0  0  0  0  0  0  0
   26.6943  -20.6169   -8.7034 C   0  0  1  0  0  0  0  0  0  0  0  0
   26.3002  -19.5683   -7.6565 C   0  0  0  0  0  0  0  0  0  0  0  0
   27.1409  -19.7114   -6.4347 C   0  0  0  0  0  0  0  0  0  0  0  0
   28.1070  -18.7950   -6.0682 C   0  0  0  0  0  0  0  0  0  0  0  0
   28.8576  -18.9959   -4.9146 C   0  0  0  0  0  0  0  0  0  0  0  0
   28.6026  -20.1332   -4.1589 C   0  0  0  0  0  0  0  0  0  0  0  0
   27.6368  -21.0530   -4.5221 C   0  0  0  0  0  0  0  0  0  0  0  0
   26.9067  -20.8352   -5.6655 C   0  0  0  0  0  0  0  0  0  0  0  0
   25.9092  -20.3219   -9.9377 C   0  0  0  0  0  0  0  0  0  0  0  0
   25.6565  -19.1068  -10.1872 O   0  0  0  0  0  0  0  0  0  0  0  0
   27.9842  -21.3714  -13.7358 C   0  0  0  0  0  0  0  0  0  0  0  0
   26.7975  -20.5081  -13.2884 C   0  0  0  0  0  0  0  0  0  0  0  0
   25.5823  -21.3771  -13.1877 C   0  0  2  0  0  0  0  0  0  0  0  0
   24.8698  -21.3037  -14.5333 C   0  0  0  0  0  0  0  0  0  0  0  0
   24.6821  -21.0538  -12.0328 C   0  0  2  0  0  0  0  0  0  0  0  0
   25.4574  -21.3370  -10.8048 N   0  0  0  0  0  0  0  0  0  0  0  0
   23.4533  -21.8411  -11.9357 C   0  0  0  0  0  0  0  0  0  0  0  0
   23.5552  -23.1030  -11.7009 O   0  0  0  0  0  0  0  0  0  0  0  0
   16.4164  -24.5661   -8.4044 N   0  0  0  0  0  0  0  0  0  0  0  0
   17.6465  -24.4529   -7.6691 C   0  0  0  0  0  0  0  0  0  0  0  0
   17.9025  -25.2604   -6.6930 N   0  0  0  0  0  0  0  0  0  0  0  0
   18.6197  -23.4713   -7.9698 N   0  0  0  0  0  0  0  0  0  0  0  0
   18.3714  -22.5220   -9.0385 C   0  0  0  0  0  0  0  0  0  0  0  0
   19.1115  -22.8603  -10.2854 C   0  0  0  0  0  0  0  0  0  0  0  0
   20.2732  -22.0224  -10.6106 C   0  0  0  0  0  0  0  0  0  0  0  0
   21.0100  -22.2520  -11.8802 C   0  0  2  0  0  0  0  0  0  0  0  0
   22.1284  -21.3702  -12.0686 N   0  0  0  0  0  0  0  0  0  0  0  0
   20.2000  -22.2727  -13.1032 C   0  0  0  0  0  0  0  0  0  0  0  0
   19.6534  -23.4475  -13.5608 O   0  0  0  0  0  0  0  0  0  0  0  0
   19.9867  -21.2204  -13.7588 O   0  0  0  0  0  0  0  0  0  0  0  0
  2  1  1  6
  3  2  1  0
  3  4  1  0
  4  5  2  0
  5  6  1  0
  7  6  2  0
  8  7  1  0
  9  4  1  0
  9  8  2  0
 10  2  1  0
 10 11  2  0
 13 12  1  0
 14 13  1  0
 14 16  1  0
 14 15  1  6
 16 17  1  1
 16 18  1  0
 17 10  1  0
 18 19  2  0
 18 28  1  0
 20 21  1  0
 21 22  2  0
 21 23  1  0
 23 24  1  0
 24 25  1  0
 25 26  1  0
 27 26  1  1
 27 29  1  0
 28 27  1  0
 29 31  2  0
 29 30  1  0
M  END
$$$$
