EVC.pdb
     RDKit          3D

 23 22  0  0  1  0  0  0  0  0999 V2000
    9.7538  -17.5578   15.9577 N   0  0  0  0  0  0  0  0  0  0  0  0
    8.7271  -17.3216   16.9227 C   0  0  1  0  0  0  0  0  0  0  0  0
    8.1594  -18.5956   17.4480 C   0  0  0  0  0  0  0  0  0  0  0  0
    9.1118  -19.7487   17.5016 C   0  0  0  0  0  0  0  0  0  0  0  0
    8.6015  -20.9436   18.1851 C   0  0  0  0  0  0  0  0  0  0  0  0
    8.6744  -21.1091   19.4268 O   0  0  0  0  0  0  0  0  0  0  0  0
    9.1483  -16.4140   18.0129 C   0  0  0  0  0  0  0  0  0  0  0  0
   10.3729  -16.4065   18.3234 O   0  0  0  0  0  0  0  0  0  0  0  0
    7.9861  -22.0021   17.4870 O   0  0  0  0  0  0  0  0  0  0  0  0
    8.2836  -12.7719   21.2609 C   0  0  0  0  0  0  0  0  0  0  0  0
    7.7835  -13.6034   20.1080 C   0  0  1  0  0  0  0  0  0  0  0  0
    7.4247  -12.7588   18.9086 C   0  0  0  0  0  0  0  0  0  0  0  0
    8.7348  -14.7279   19.7605 C   0  0  2  0  0  0  0  0  0  0  0  0
    8.2582  -15.5661   18.7144 N   0  0  0  0  0  0  0  0  0  0  0  0
    8.9741  -15.5034   21.0055 C   0  0  0  0  0  0  0  0  0  0  0  0
    8.1331  -16.3096   21.4796 O   0  0  0  0  0  0  0  0  0  0  0  0
   10.1955  -15.3533   21.7187 N   0  0  0  0  0  0  0  0  0  0  0  0
   10.5329  -16.2507   22.8063 C   0  0  1  0  0  0  0  0  0  0  0  0
   10.5920  -17.6483   22.2202 C   0  0  0  0  0  0  0  0  0  0  0  0
   11.0564  -18.7984   23.5561 S   0  0  0  0  0  0  0  0  0  0  0  0
   11.8191  -15.8662   23.4392 C   0  0  0  0  0  0  0  0  0  0  0  0
   12.0891  -16.2491   24.7401 O   0  0  0  0  0  0  0  0  0  0  0  0
   12.6860  -15.1953   22.8281 O   0  0  0  0  0  0  0  0  0  0  0  0
  2  1  1  6
  2  3  1  0
  4  3  1  0
  5  4  1  0
  6  5  2  0
  7  2  1  0
  7  8  2  0
  9  5  1  0
 11 10  1  1
 11 12  1  0
 11 13  1  0
 13 14  1  6
 14  7  1  0
 15 13  1  0
 16 15  2  0
 17 15  1  0
 18 17  1  0
 18 21  1  0
 19 20  1  0
 18 19  1  6
 21 22  1  0
 23 21  2  0
M  END
$$$$
