EVC.pdb
     RDKit          3D

 23 22  0  0  1  0  0  0  0  0999 V2000
    9.3951  -17.8536   17.0162 N   0  0  0  0  0  0  0  0  0  0  0  0
    8.4660  -17.7591   18.0974 C   0  0  1  0  0  0  0  0  0  0  0  0
    8.1821  -19.0927   18.6995 C   0  0  0  0  0  0  0  0  0  0  0  0
    7.5904  -20.1042   17.7688 C   0  0  0  0  0  0  0  0  0  0  0  0
    7.1864  -21.3666   18.4002 C   0  0  0  0  0  0  0  0  0  0  0  0
    7.5799  -22.4902   18.0038 O   0  0  0  0  0  0  0  0  0  0  0  0
    8.8593  -16.7643   19.1197 C   0  0  0  0  0  0  0  0  0  0  0  0
   10.0901  -16.6564   19.3836 O   0  0  0  0  0  0  0  0  0  0  0  0
    6.3177  -21.4067   19.5094 O   0  0  0  0  0  0  0  0  0  0  0  0
    7.8893  -12.8889   22.0376 C   0  0  0  0  0  0  0  0  0  0  0  0
    7.4308  -13.8310   20.9546 C   0  0  1  0  0  0  0  0  0  0  0  0
    7.1191  -13.1097   19.6649 C   0  0  0  0  0  0  0  0  0  0  0  0
    8.3919  -14.9831   20.7559 C   0  0  2  0  0  0  0  0  0  0  0  0
    7.9364  -15.9394   19.8061 N   0  0  0  0  0  0  0  0  0  0  0  0
    8.6122  -15.6079   22.0861 C   0  0  0  0  0  0  0  0  0  0  0  0
    7.6915  -16.1596   22.7419 O   0  0  0  0  0  0  0  0  0  0  0  0
    9.9069  -15.6006   22.6748 N   0  0  0  0  0  0  0  0  0  0  0  0
   10.1181  -16.1349   24.0060 C   0  0  1  0  0  0  0  0  0  0  0  0
   11.1345  -17.2528   23.8744 C   0  0  0  0  0  0  0  0  0  0  0  0
   10.5119  -18.4348   22.6340 S   0  0  0  0  0  0  0  0  0  0  0  0
   10.5816  -15.0789   24.9402 C   0  0  0  0  0  0  0  0  0  0  0  0
   10.8365  -13.8045   24.4685 O   0  0  0  0  0  0  0  0  0  0  0  0
   10.7539  -15.3024   26.1631 O   0  0  0  0  0  0  0  0  0  0  0  0
  2  1  1  6
  2  3  1  0
  4  3  1  0
  5  4  1  0
  6  5  2  0
  7  2  1  0
  7  8  2  0
  9  5  1  0
 11 10  1  1
 11 12  1  0
 11 13  1  0
 13 14  1  6
 14  7  1  0
 15 13  1  0
 16 15  2  0
 17 15  1  0
 18 17  1  0
 18 21  1  0
 19 20  1  0
 18 19  1  6
 21 22  1  0
 23 21  2  0
M  END
$$$$
