EVC.pdb
     RDKit          3D

 23 22  0  0  1  0  0  0  0  0999 V2000
   12.3880  -15.5970   17.0076 N   0  0  0  0  0  0  0  0  0  0  0  0
   11.7261  -16.4220   17.9680 C   0  0  1  0  0  0  0  0  0  0  0  0
   12.6237  -17.4916   18.4892 C   0  0  0  0  0  0  0  0  0  0  0  0
   13.0508  -18.5164   17.4858 C   0  0  0  0  0  0  0  0  0  0  0  0
   14.0464  -19.4810   17.9695 C   0  0  0  0  0  0  0  0  0  0  0  0
   15.1359  -19.6957   17.3852 O   0  0  0  0  0  0  0  0  0  0  0  0
   11.0924  -15.6518   19.0611 C   0  0  0  0  0  0  0  0  0  0  0  0
   11.8544  -15.0135   19.8409 O   0  0  0  0  0  0  0  0  0  0  0  0
   13.8468  -20.2433   19.1380 O   0  0  0  0  0  0  0  0  0  0  0  0
    7.2312  -13.5070   21.2319 C   0  0  0  0  0  0  0  0  0  0  0  0
    7.8577  -14.1529   20.0232 C   0  0  1  0  0  0  0  0  0  0  0  0
    8.0011  -13.1881   18.8703 C   0  0  0  0  0  0  0  0  0  0  0  0
    9.1577  -14.8512   20.3588 C   0  0  2  0  0  0  0  0  0  0  0  0
    9.6939  -15.5965   19.2720 N   0  0  0  0  0  0  0  0  0  0  0  0
    8.8991  -15.7230   21.5343 C   0  0  0  0  0  0  0  0  0  0  0  0
    8.4308  -16.8859   21.4316 O   0  0  0  0  0  0  0  0  0  0  0  0
    9.1811  -15.2559   22.8478 N   0  0  0  0  0  0  0  0  0  0  0  0
    8.9200  -16.0923   24.0030 C   0  0  1  0  0  0  0  0  0  0  0  0
    9.4553  -15.3501   25.2124 C   0  0  0  0  0  0  0  0  0  0  0  0
    8.4898  -13.8155   25.4024 S   0  0  0  0  0  0  0  0  0  0  0  0
    7.4712  -16.3855   24.1360 C   0  0  0  0  0  0  0  0  0  0  0  0
    7.0468  -17.3960   24.9789 O   0  0  0  0  0  0  0  0  0  0  0  0
    6.6016  -15.7401   23.5017 O   0  0  0  0  0  0  0  0  0  0  0  0
  2  1  1  6
  2  3  1  0
  4  3  1  0
  5  4  1  0
  6  5  2  0
  7  2  1  0
  7  8  2  0
  9  5  1  0
 11 10  1  1
 11 12  1  0
 11 13  1  0
 13 14  1  6
 14  7  1  0
 15 13  1  0
 16 15  2  0
 17 15  1  0
 18 17  1  0
 18 21  1  0
 19 20  1  0
 18 19  1  1
 21 22  1  0
 23 21  2  0
M  END
$$$$
