EVC.pdb
     RDKit          3D

 23 22  0  0  1  0  0  0  0  0999 V2000
   10.6825  -17.9321   20.0007 N   0  0  0  0  0  0  0  0  0  0  0  0
    9.8165  -18.0965   21.1251 C   0  0  1  0  0  0  0  0  0  0  0  0
   10.1596  -19.3143   21.9129 C   0  0  0  0  0  0  0  0  0  0  0  0
   10.2671  -20.5806   21.1227 C   0  0  0  0  0  0  0  0  0  0  0  0
   10.6293  -21.7701   21.9033 C   0  0  0  0  0  0  0  0  0  0  0  0
   10.8841  -21.7349   23.1315 O   0  0  0  0  0  0  0  0  0  0  0  0
    9.7343  -16.8912   21.9796 C   0  0  0  0  0  0  0  0  0  0  0  0
   10.7927  -16.2217   22.1449 O   0  0  0  0  0  0  0  0  0  0  0  0
   10.7175  -23.0510   21.3220 O   0  0  0  0  0  0  0  0  0  0  0  0
    7.3991  -13.0679   23.8321 C   0  0  0  0  0  0  0  0  0  0  0  0
    7.4016  -14.3214   22.9958 C   0  0  1  0  0  0  0  0  0  0  0  0
    7.3734  -14.0205   21.5162 C   0  0  0  0  0  0  0  0  0  0  0  0
    8.5283  -15.2580   23.3748 C   0  0  2  0  0  0  0  0  0  0  0  0
    8.5440  -16.4586   22.6115 N   0  0  0  0  0  0  0  0  0  0  0  0
    8.3939  -15.5446   24.8268 C   0  0  0  0  0  0  0  0  0  0  0  0
    7.9386  -16.6306   25.2688 O   0  0  0  0  0  0  0  0  0  0  0  0
    8.7868  -14.5723   25.7877 N   0  0  0  0  0  0  0  0  0  0  0  0
    9.3090  -14.9760   27.0786 C   0  0  1  0  0  0  0  0  0  0  0  0
   10.4938  -15.8835   26.8086 C   0  0  0  0  0  0  0  0  0  0  0  0
   11.1732  -16.4132   28.4152 S   0  0  0  0  0  0  0  0  0  0  0  0
    9.6952  -13.7970   27.8932 C   0  0  0  0  0  0  0  0  0  0  0  0
    9.4603  -13.7936   29.2558 O   0  0  0  0  0  0  0  0  0  0  0  0
   10.2361  -12.7857   27.3837 O   0  0  0  0  0  0  0  0  0  0  0  0
  2  1  1  6
  2  3  1  0
  4  3  1  0
  5  4  1  0
  6  5  2  0
  7  2  1  0
  7  8  2  0
  9  5  1  0
 11 10  1  1
 11 12  1  0
 11 13  1  0
 13 14  1  6
 14  7  1  0
 15 13  1  0
 16 15  2  0
 17 15  1  0
 18 17  1  0
 18 21  1  0
 19 20  1  0
 18 19  1  6
 21 22  1  0
 23 21  2  0
M  END
$$$$
