EVC.pdb
     RDKit          3D

 23 22  0  0  1  0  0  0  0  0999 V2000
    7.6958  -14.8976   20.6705 N   0  0  0  0  0  0  0  0  0  0  0  0
    7.0889  -15.1826   21.9321 C   0  0  1  0  0  0  0  0  0  0  0  0
    6.7663  -16.6307   22.0750 C   0  0  0  0  0  0  0  0  0  0  0  0
    6.5346  -17.3662   20.7925 C   0  0  0  0  0  0  0  0  0  0  0  0
    7.2037  -18.6695   20.6952 C   0  0  0  0  0  0  0  0  0  0  0  0
    8.3636  -18.8144   20.2391 O   0  0  0  0  0  0  0  0  0  0  0  0
    7.8681  -14.6744   23.0827 C   0  0  0  0  0  0  0  0  0  0  0  0
    9.1277  -14.6949   22.9872 O   0  0  0  0  0  0  0  0  0  0  0  0
    6.5834  -19.8645   21.1120 O   0  0  0  0  0  0  0  0  0  0  0  0
    7.1694  -11.2962   25.2235 C   0  0  0  0  0  0  0  0  0  0  0  0
    7.4088  -12.5172   26.0736 C   0  0  1  0  0  0  0  0  0  0  0  0
    6.1519  -12.9846   26.7679 C   0  0  0  0  0  0  0  0  0  0  0  0
    8.0899  -13.6259   25.3008 C   0  0  2  0  0  0  0  0  0  0  0  0
    7.2788  -14.1735   24.2681 N   0  0  0  0  0  0  0  0  0  0  0  0
    8.4877  -14.6678   26.2829 C   0  0  0  0  0  0  0  0  0  0  0  0
    7.6979  -15.5572   26.6919 O   0  0  0  0  0  0  0  0  0  0  0  0
    9.8105  -14.6916   26.8050 N   0  0  0  0  0  0  0  0  0  0  0  0
   10.2716  -15.8110   27.6028 C   0  0  1  0  0  0  0  0  0  0  0  0
   11.7018  -16.0903   27.1824 C   0  0  0  0  0  0  0  0  0  0  0  0
   12.6315  -14.5253   27.2796 S   0  0  0  0  0  0  0  0  0  0  0  0
   10.1744  -15.5116   29.0532 C   0  0  0  0  0  0  0  0  0  0  0  0
   10.4358  -16.5030   29.9809 O   0  0  0  0  0  0  0  0  0  0  0  0
    9.8587  -14.3733   29.4771 O   0  0  0  0  0  0  0  0  0  0  0  0
  2  1  1  6
  2  3  1  0
  4  3  1  0
  5  4  1  0
  6  5  2  0
  7  2  1  0
  7  8  2  0
  9  5  1  0
 11 10  1  6
 11 12  1  0
 11 13  1  0
 13 14  1  6
 14  7  1  0
 15 13  1  0
 16 15  2  0
 17 15  1  0
 18 17  1  0
 18 21  1  0
 19 20  1  0
 18 19  1  6
 21 22  1  0
 23 21  2  0
M  END
$$$$
