EVC.pdb
     RDKit          3D

 23 22  0  0  1  0  0  0  0  0999 V2000
    8.1647  -14.8354   20.5535 N   0  0  0  0  0  0  0  0  0  0  0  0
    7.4730  -15.2610   21.7289 C   0  0  1  0  0  0  0  0  0  0  0  0
    7.2990  -16.7409   21.7618 C   0  0  0  0  0  0  0  0  0  0  0  0
    6.6006  -17.3314   20.5773 C   0  0  0  0  0  0  0  0  0  0  0  0
    6.3934  -18.7836   20.6397 C   0  0  0  0  0  0  0  0  0  0  0  0
    7.1802  -19.6130   20.1225 O   0  0  0  0  0  0  0  0  0  0  0  0
    8.0761  -14.7481   22.9790 C   0  0  0  0  0  0  0  0  0  0  0  0
    9.3345  -14.6425   23.0174 O   0  0  0  0  0  0  0  0  0  0  0  0
    5.2832  -19.3558   21.2926 O   0  0  0  0  0  0  0  0  0  0  0  0
    7.8443  -12.8337   27.5295 C   0  0  0  0  0  0  0  0  0  0  0  0
    7.1596  -13.1172   26.2174 C   0  0  1  0  0  0  0  0  0  0  0  0
    6.7457  -11.8519   25.5045 C   0  0  0  0  0  0  0  0  0  0  0  0
    7.9747  -14.0384   25.3357 C   0  0  2  0  0  0  0  0  0  0  0  0
    7.3220  -14.3754   24.1173 N   0  0  0  0  0  0  0  0  0  0  0  0
    8.2849  -15.2526   26.1344 C   0  0  0  0  0  0  0  0  0  0  0  0
    7.4190  -16.1167   26.4269 O   0  0  0  0  0  0  0  0  0  0  0  0
    9.6074  -15.4808   26.6056 N   0  0  0  0  0  0  0  0  0  0  0  0
    9.9384  -16.6970   27.3222 C   0  0  1  0  0  0  0  0  0  0  0  0
   11.2051  -17.2458   26.6941 C   0  0  0  0  0  0  0  0  0  0  0  0
   12.4767  -15.9414   26.7626 S   0  0  0  0  0  0  0  0  0  0  0  0
   10.1144  -16.4339   28.7722 C   0  0  0  0  0  0  0  0  0  0  0  0
   10.3516  -17.4840   29.6397 O   0  0  0  0  0  0  0  0  0  0  0  0
   10.0551  -15.2745   29.2492 O   0  0  0  0  0  0  0  0  0  0  0  0
  2  1  1  6
  2  3  1  0
  4  3  1  0
  5  4  1  0
  6  5  2  0
  7  2  1  0
  7  8  2  0
  9  5  1  0
 11 10  1  1
 11 12  1  0
 11 13  1  0
 13 14  1  6
 14  7  1  0
 15 13  1  0
 16 15  2  0
 17 15  1  0
 18 17  1  0
 18 21  1  0
 19 20  1  0
 18 19  1  6
 21 22  1  0
 23 21  2  0
M  END
$$$$
