HML.pdb
     RDKit          3D

 27 27  0  0  1  0  0  0  0  0999 V2000
    9.0382  -16.7189   18.0692 N   0  0  0  0  0  0  0  0  0  0  0  0
    9.4803  -16.9939   19.4000 C   0  0  1  0  0  0  0  0  0  0  0  0
   10.9272  -16.5630   19.5536 C   0  0  0  0  0  0  0  0  0  0  0  0
   11.8357  -17.4675   18.8129 C   0  0  0  0  0  0  0  0  0  0  0  0
   11.7920  -17.7712   17.4866 C   0  0  0  0  0  0  0  0  0  0  0  0
   12.8073  -18.6229   17.2639 N   0  0  0  0  0  0  0  0  0  0  0  0
   13.4742  -18.8516   18.4156 C   0  0  0  0  0  0  0  0  0  0  0  0
   12.8613  -18.1288   19.3698 N   0  0  0  0  0  0  0  0  0  0  0  0
    8.6164  -16.4106   20.4479 C   0  0  0  0  0  0  0  0  0  0  0  0
    8.1291  -15.2811   20.2690 O   0  0  0  0  0  0  0  0  0  0  0  0
    4.1550  -20.0205   21.5277 C   0  0  0  0  0  0  0  0  0  0  0  0
    3.7042  -18.3186   22.0271 S   0  0  0  0  0  0  0  0  0  0  0  0
    5.1532  -17.2842   21.7665 C   0  0  0  0  0  0  0  0  0  0  0  0
    6.2003  -17.4829   22.8116 C   0  0  0  0  0  0  0  0  0  0  0  0
    7.4133  -16.6383   22.6436 C   0  0  2  0  0  0  0  0  0  0  0  0
    8.3328  -17.1121   21.6533 N   0  0  0  0  0  0  0  0  0  0  0  0
    8.0696  -16.3497   23.9518 C   0  0  0  0  0  0  0  0  0  0  0  0
    9.2155  -16.7544   24.2695 O   0  0  0  0  0  0  0  0  0  0  0  0
    6.1808  -11.9511   26.5705 C   0  0  0  0  0  0  0  0  0  0  0  0
    7.1428  -12.9891   26.0170 C   0  0  1  0  0  0  0  0  0  0  0  0
    8.4894  -12.2797   25.9431 C   0  0  0  0  0  0  0  0  0  0  0  0
    7.2144  -14.2004   26.9021 C   0  0  0  0  0  0  0  0  0  0  0  0
    7.9577  -15.3011   26.2016 C   0  0  2  0  0  0  0  0  0  0  0  0
    7.3654  -15.5720   24.8968 N   0  0  0  0  0  0  0  0  0  0  0  0
    8.0288  -16.5570   26.9277 C   0  0  0  0  0  0  0  0  0  0  0  0
    7.2510  -17.5177   26.5860 O   0  0  0  0  0  0  0  0  0  0  0  0
    8.8705  -16.8379   27.9794 O   0  0  0  0  0  0  0  0  0  0  0  0
  2  9  1  0
  2  3  1  0
  2  1  1  6
  3  4  1  0
  4  5  2  0
  4  8  1  0
  5  6  1  0
  6  7  1  0
  8  7  2  0
  9 10  2  0
 11 12  1  0
 13 12  1  0
 14 13  1  0
 15 14  1  1
 15 17  1  0
 16 15  1  0
 16  9  1  0
 17 24  1  0
 17 18  2  0
 20 19  1  1
 20 21  1  0
 22 20  1  0
 23 22  1  1
 24 23  1  0
 25 27  1  0
 25 23  1  0
 26 25  2  0
M  END
$$$$
