HML.pdb
     RDKit          3D

 27 27  0  0  1  0  0  0  0  0999 V2000
   10.5940  -16.6762   19.6058 N   0  0  0  0  0  0  0  0  0  0  0  0
   10.0162  -17.2762   20.7669 C   0  0  1  0  0  0  0  0  0  0  0  0
   10.8184  -18.5039   21.1566 C   0  0  0  0  0  0  0  0  0  0  0  0
   10.6115  -19.6065   20.1903 C   0  0  0  0  0  0  0  0  0  0  0  0
    9.9131  -19.5564   19.0228 C   0  0  0  0  0  0  0  0  0  0  0  0
    9.9995  -20.7836   18.4820 N   0  0  0  0  0  0  0  0  0  0  0  0
   10.7313  -21.5869   19.2837 C   0  0  0  0  0  0  0  0  0  0  0  0
   11.1053  -20.8446   20.3410 N   0  0  0  0  0  0  0  0  0  0  0  0
    9.8501  -16.3426   21.9006 C   0  0  0  0  0  0  0  0  0  0  0  0
   10.8287  -15.6794   22.2850 O   0  0  0  0  0  0  0  0  0  0  0  0
    6.4821  -11.3745   25.8405 C   0  0  0  0  0  0  0  0  0  0  0  0
    5.7454  -12.8046   24.9681 S   0  0  0  0  0  0  0  0  0  0  0  0
    6.8143  -14.2208   25.2669 C   0  0  0  0  0  0  0  0  0  0  0  0
    7.0035  -15.0681   24.0526 C   0  0  0  0  0  0  0  0  0  0  0  0
    8.4202  -15.3968   23.7395 C   0  0  2  0  0  0  0  0  0  0  0  0
    8.5981  -16.1885   22.5596 N   0  0  0  0  0  0  0  0  0  0  0  0
    9.1310  -15.9574   24.9252 C   0  0  0  0  0  0  0  0  0  0  0  0
    9.3249  -17.1838   25.1153 O   0  0  0  0  0  0  0  0  0  0  0  0
   12.3259  -15.2898   29.4159 C   0  0  0  0  0  0  0  0  0  0  0  0
   10.8234  -15.0646   29.4524 C   0  0  1  0  0  0  0  0  0  0  0  0
   10.5970  -14.0994   30.6098 C   0  0  0  0  0  0  0  0  0  0  0  0
   10.3216  -14.4895   28.1589 C   0  0  0  0  0  0  0  0  0  0  0  0
   10.2243  -15.5721   27.1229 C   0  0  2  0  0  0  0  0  0  0  0  0
    9.6207  -15.0593   25.8984 N   0  0  0  0  0  0  0  0  0  0  0  0
    9.4764  -16.7492   27.5288 C   0  0  0  0  0  0  0  0  0  0  0  0
    8.1951  -16.7166   27.4874 O   0  0  0  0  0  0  0  0  0  0  0  0
   10.0129  -17.9379   27.9679 O   0  0  0  0  0  0  0  0  0  0  0  0
  2  9  1  0
  2  3  1  0
  2  1  1  6
  3  4  1  0
  4  5  2  0
  4  8  1  0
  5  6  1  0
  6  7  1  0
  8  7  2  0
  9 10  2  0
 11 12  1  0
 13 12  1  0
 14 13  1  0
 15 14  1  1
 15 17  1  0
 16 15  1  0
 16  9  1  0
 17 24  1  0
 17 18  2  0
 20 19  1  6
 20 21  1  0
 22 20  1  0
 23 22  1  1
 24 23  1  0
 25 27  1  0
 25 23  1  0
 26 25  2  0
M  END
$$$$
