HML.pdb
     RDKit          3D

 27 27  0  0  1  0  0  0  0  0999 V2000
    9.4189  -18.2863   20.2982 N   0  0  0  0  0  0  0  0  0  0  0  0
    8.8037  -18.1480   21.5806 C   0  0  1  0  0  0  0  0  0  0  0  0
    9.1839  -19.3277   22.4561 C   0  0  0  0  0  0  0  0  0  0  0  0
    8.8924  -20.6117   21.7790 C   0  0  0  0  0  0  0  0  0  0  0  0
    8.3752  -20.7847   20.5317 C   0  0  0  0  0  0  0  0  0  0  0  0
    8.2890  -22.1124   20.3430 N   0  0  0  0  0  0  0  0  0  0  0  0
    8.7386  -22.7608   21.4388 C   0  0  0  0  0  0  0  0  0  0  0  0
    9.1101  -21.8183   22.3232 N   0  0  0  0  0  0  0  0  0  0  0  0
    9.0863  -16.8565   22.2414 C   0  0  0  0  0  0  0  0  0  0  0  0
   10.1749  -16.2951   22.0293 O   0  0  0  0  0  0  0  0  0  0  0  0
    6.5109  -11.2272   27.1791 C   0  0  0  0  0  0  0  0  0  0  0  0
    5.9710  -12.4701   25.9492 S   0  0  0  0  0  0  0  0  0  0  0  0
    7.4537  -13.1433   25.1840 C   0  0  0  0  0  0  0  0  0  0  0  0
    7.1872  -14.3881   24.4043 C   0  0  0  0  0  0  0  0  0  0  0  0
    8.3981  -15.0293   23.8253 C   0  0  2  0  0  0  0  0  0  0  0  0
    8.1420  -16.2450   23.1131 N   0  0  0  0  0  0  0  0  0  0  0  0
    9.4851  -15.1694   24.8373 C   0  0  0  0  0  0  0  0  0  0  0  0
   10.3185  -14.2686   25.1052 O   0  0  0  0  0  0  0  0  0  0  0  0
    9.8622  -14.0158   29.1355 C   0  0  0  0  0  0  0  0  0  0  0  0
   10.2799  -14.5813   27.7883 C   0  0  1  0  0  0  0  0  0  0  0  0
   11.6354  -13.9486   27.4976 C   0  0  0  0  0  0  0  0  0  0  0  0
   10.3764  -16.0797   27.8265 C   0  0  0  0  0  0  0  0  0  0  0  0
   10.7038  -16.6049   26.4584 C   0  0  2  0  0  0  0  0  0  0  0  0
    9.5889  -16.3875   25.5437 N   0  0  0  0  0  0  0  0  0  0  0  0
   11.0547  -18.0134   26.4058 C   0  0  0  0  0  0  0  0  0  0  0  0
   12.0339  -18.4372   27.1171 O   0  0  0  0  0  0  0  0  0  0  0  0
   10.4277  -18.9764   25.6488 O   0  0  0  0  0  0  0  0  0  0  0  0
  2  9  1  0
  2  3  1  0
  2  1  1  6
  3  4  1  0
  4  5  2  0
  4  8  1  0
  5  6  1  0
  6  7  1  0
  8  7  2  0
  9 10  2  0
 11 12  1  0
 13 12  1  0
 14 13  1  0
 15 14  1  1
 15 17  1  0
 16 15  1  0
 16  9  1  0
 17 24  1  0
 17 18  2  0
 20 19  1  1
 20 21  1  0
 22 20  1  0
 23 22  1  1
 24 23  1  0
 25 27  1  0
 25 23  1  0
 26 25  2  0
M  END
$$$$
