HML.pdb
     RDKit          3D

 27 27  0  0  1  0  0  0  0  0999 V2000
    9.2631  -17.3764   19.8623 N   0  0  0  0  0  0  0  0  0  0  0  0
    9.1302  -17.7213   21.2427 C   0  0  1  0  0  0  0  0  0  0  0  0
   10.1233  -18.8147   21.5907 C   0  0  0  0  0  0  0  0  0  0  0  0
    9.8005  -20.0748   20.8836 C   0  0  0  0  0  0  0  0  0  0  0  0
    8.5764  -20.6571   20.7584 C   0  0  0  0  0  0  0  0  0  0  0  0
    8.7657  -21.7752   20.0375 N   0  0  0  0  0  0  0  0  0  0  0  0
   10.0715  -21.8971   19.7157 C   0  0  0  0  0  0  0  0  0  0  0  0
   10.7035  -20.8355   20.2468 N   0  0  0  0  0  0  0  0  0  0  0  0
    9.2371  -16.5665   22.1589 C   0  0  0  0  0  0  0  0  0  0  0  0
   10.1015  -15.7003   21.9402 O   0  0  0  0  0  0  0  0  0  0  0  0
    7.1311  -11.1530   25.8758 C   0  0  0  0  0  0  0  0  0  0  0  0
    6.2105  -12.6946   25.5223 S   0  0  0  0  0  0  0  0  0  0  0  0
    7.2545  -14.0688   26.0314 C   0  0  0  0  0  0  0  0  0  0  0  0
    7.2136  -15.2117   25.0720 C   0  0  0  0  0  0  0  0  0  0  0  0
    8.3601  -15.2693   24.1258 C   0  0  2  0  0  0  0  0  0  0  0  0
    8.3750  -16.4267   23.2826 N   0  0  0  0  0  0  0  0  0  0  0  0
    9.6604  -15.0426   24.8209 C   0  0  0  0  0  0  0  0  0  0  0  0
   10.1851  -13.9129   24.9825 O   0  0  0  0  0  0  0  0  0  0  0  0
   12.0646  -14.4255   28.9715 C   0  0  0  0  0  0  0  0  0  0  0  0
   10.6701  -15.0246   28.8954 C   0  0  1  0  0  0  0  0  0  0  0  0
    9.8099  -14.1369   29.7865 C   0  0  0  0  0  0  0  0  0  0  0  0
   10.1546  -15.0413   27.4848 C   0  0  0  0  0  0  0  0  0  0  0  0
   10.7765  -16.1793   26.7277 C   0  0  2  0  0  0  0  0  0  0  0  0
   10.3496  -16.1633   25.3334 N   0  0  0  0  0  0  0  0  0  0  0  0
   10.4998  -17.5009   27.2629 C   0  0  0  0  0  0  0  0  0  0  0  0
   11.4218  -18.1162   27.9076 O   0  0  0  0  0  0  0  0  0  0  0  0
    9.3131  -18.1883   27.1495 O   0  0  0  0  0  0  0  0  0  0  0  0
  2  9  1  0
  2  3  1  0
  2  1  1  6
  3  4  1  0
  4  5  2  0
  4  8  1  0
  5  6  1  0
  6  7  1  0
  8  7  2  0
  9 10  2  0
 11 12  1  0
 13 12  1  0
 14 13  1  0
 15 14  1  1
 15 17  1  0
 16 15  1  0
 16  9  1  0
 17 24  1  0
 17 18  2  0
 20 19  1  6
 20 21  1  0
 22 20  1  0
 23 22  1  1
 24 23  1  0
 25 27  1  0
 25 23  1  0
 26 25  2  0
M  END
$$$$
