HML.pdb
     RDKit          3D

 27 27  0  0  1  0  0  0  0  0999 V2000
   10.4584  -16.6132   19.6715 N   0  0  0  0  0  0  0  0  0  0  0  0
    9.5703  -17.0628   20.6968 C   0  0  1  0  0  0  0  0  0  0  0  0
    9.7468  -18.5558   20.9028 C   0  0  0  0  0  0  0  0  0  0  0  0
    9.3834  -19.3105   19.6818 C   0  0  0  0  0  0  0  0  0  0  0  0
    8.1700  -19.3424   19.0656 C   0  0  0  0  0  0  0  0  0  0  0  0
    8.3116  -20.1508   18.0015 N   0  0  0  0  0  0  0  0  0  0  0  0
    9.5778  -20.6169   17.9458 C   0  0  0  0  0  0  0  0  0  0  0  0
   10.2332  -20.0882   18.9945 N   0  0  0  0  0  0  0  0  0  0  0  0
    9.6939  -16.3123   21.9641 C   0  0  0  0  0  0  0  0  0  0  0  0
   10.8166  -15.9214   22.3273 O   0  0  0  0  0  0  0  0  0  0  0  0
    5.4394  -12.2971   25.5503 C   0  0  0  0  0  0  0  0  0  0  0  0
    7.1694  -12.6180   26.0534 S   0  0  0  0  0  0  0  0  0  0  0  0
    7.4187  -14.3992   26.0026 C   0  0  0  0  0  0  0  0  0  0  0  0
    7.3467  -14.9532   24.6183 C   0  0  0  0  0  0  0  0  0  0  0  0
    8.6458  -15.4296   24.0719 C   0  0  2  0  0  0  0  0  0  0  0  0
    8.5587  -16.0299   22.7747 N   0  0  0  0  0  0  0  0  0  0  0  0
    9.3789  -16.2792   25.0548 C   0  0  0  0  0  0  0  0  0  0  0  0
    9.4610  -17.5304   24.9810 O   0  0  0  0  0  0  0  0  0  0  0  0
   10.9192  -14.0829   30.0593 C   0  0  0  0  0  0  0  0  0  0  0  0
   10.3600  -14.9574   28.9494 C   0  0  1  0  0  0  0  0  0  0  0  0
    9.4662  -14.0333   28.1312 C   0  0  0  0  0  0  0  0  0  0  0  0
   11.4556  -15.5421   28.1046 C   0  0  0  0  0  0  0  0  0  0  0  0
   10.8651  -16.4221   27.0408 C   0  0  2  0  0  0  0  0  0  0  0  0
   10.0249  -15.6441   26.1378 N   0  0  0  0  0  0  0  0  0  0  0  0
   10.0766  -17.5389   27.5313 C   0  0  0  0  0  0  0  0  0  0  0  0
    8.8084  -17.5356   27.3412 O   0  0  0  0  0  0  0  0  0  0  0  0
   10.5602  -18.6394   28.2011 O   0  0  0  0  0  0  0  0  0  0  0  0
  2  9  1  0
  2  3  1  0
  2  1  1  6
  3  4  1  0
  4  5  2  0
  4  8  1  0
  5  6  1  0
  6  7  1  0
  8  7  2  0
  9 10  2  0
 11 12  1  0
 13 12  1  0
 14 13  1  0
 15 14  1  1
 15 17  1  0
 16 15  1  0
 16  9  1  0
 17 24  1  0
 17 18  2  0
 20 19  1  1
 20 21  1  0
 22 20  1  0
 23 22  1  1
 24 23  1  0
 25 27  1  0
 25 23  1  0
 26 25  2  0
M  END
$$$$
