HML.pdb
     RDKit          3D

 27 27  0  0  1  0  0  0  0  0999 V2000
    8.2903  -16.5670   20.0513 N   0  0  0  0  0  0  0  0  0  0  0  0
    9.5904  -16.1247   20.4464 C   0  0  1  0  0  0  0  0  0  0  0  0
   10.1511  -15.1895   19.3910 C   0  0  0  0  0  0  0  0  0  0  0  0
    9.0749  -14.3992   18.7510 C   0  0  0  0  0  0  0  0  0  0  0  0
    8.6245  -13.1700   19.1241 C   0  0  0  0  0  0  0  0  0  0  0  0
    7.6497  -12.8493   18.2565 N   0  0  0  0  0  0  0  0  0  0  0  0
    7.4879  -13.8464   17.3604 C   0  0  0  0  0  0  0  0  0  0  0  0
    8.3783  -14.8029   17.6781 N   0  0  0  0  0  0  0  0  0  0  0  0
    9.6310  -15.5223   21.7954 C   0  0  0  0  0  0  0  0  0  0  0  0
   10.6930  -15.0185   22.2000 O   0  0  0  0  0  0  0  0  0  0  0  0
    6.3723  -10.9523   25.4865 C   0  0  0  0  0  0  0  0  0  0  0  0
    5.9839  -12.6119   26.1528 S   0  0  0  0  0  0  0  0  0  0  0  0
    7.3805  -13.6805   25.7718 C   0  0  0  0  0  0  0  0  0  0  0  0
    7.3253  -14.2309   24.3853 C   0  0  0  0  0  0  0  0  0  0  0  0
    8.5070  -15.0449   23.9930 C   0  0  2  0  0  0  0  0  0  0  0  0
    8.4842  -15.5081   22.6381 N   0  0  0  0  0  0  0  0  0  0  0  0
    8.7743  -16.1369   24.9736 C   0  0  0  0  0  0  0  0  0  0  0  0
    7.8922  -16.9075   25.4274 O   0  0  0  0  0  0  0  0  0  0  0  0
   11.4913  -14.9149   29.3055 C   0  0  0  0  0  0  0  0  0  0  0  0
   10.0298  -14.8965   28.8895 C   0  0  1  0  0  0  0  0  0  0  0  0
    9.4656  -13.6128   29.4860 C   0  0  0  0  0  0  0  0  0  0  0  0
    9.8829  -14.9118   27.3948 C   0  0  0  0  0  0  0  0  0  0  0  0
   10.4089  -16.2058   26.8436 C   0  0  2  0  0  0  0  0  0  0  0  0
   10.0997  -16.3231   25.4233 N   0  0  0  0  0  0  0  0  0  0  0  0
    9.9203  -17.4026   27.5059 C   0  0  0  0  0  0  0  0  0  0  0  0
   10.7664  -18.2224   28.0123 O   0  0  0  0  0  0  0  0  0  0  0  0
    8.6010  -17.7646   27.6545 O   0  0  0  0  0  0  0  0  0  0  0  0
  2  9  1  0
  2  3  1  0
  2  1  1  6
  3  4  1  0
  4  5  2  0
  4  8  1  0
  5  6  1  0
  6  7  1  0
  8  7  2  0
  9 10  2  0
 11 12  1  0
 13 12  1  0
 14 13  1  0
 15 14  1  1
 15 17  1  0
 16 15  1  0
 16  9  1  0
 17 24  1  0
 17 18  2  0
 20 19  1  6
 20 21  1  0
 22 20  1  0
 23 22  1  1
 24 23  1  0
 25 27  1  0
 25 23  1  0
 26 25  2  0
M  END
$$$$
