HML.pdb
     RDKit          3D

 27 27  0  0  1  0  0  0  0  0999 V2000
    8.0007  -16.3542   19.8952 N   0  0  0  0  0  0  0  0  0  0  0  0
    8.9798  -15.3626   20.2116 C   0  0  1  0  0  0  0  0  0  0  0  0
    8.7957  -14.1598   19.3048 C   0  0  0  0  0  0  0  0  0  0  0  0
    8.5780  -14.5770   17.9010 C   0  0  0  0  0  0  0  0  0  0  0  0
    8.5332  -15.8493   17.4189 C   0  0  0  0  0  0  0  0  0  0  0  0
    8.3114  -15.7414   16.0979 N   0  0  0  0  0  0  0  0  0  0  0  0
    8.2184  -14.4390   15.7540 C   0  0  0  0  0  0  0  0  0  0  0  0
    8.3858  -13.7261   16.8820 N   0  0  0  0  0  0  0  0  0  0  0  0
    9.0011  -14.9797   21.6390 C   0  0  0  0  0  0  0  0  0  0  0  0
    9.8300  -14.1381   22.0260 O   0  0  0  0  0  0  0  0  0  0  0  0
    7.0914  -12.1700   27.6687 C   0  0  0  0  0  0  0  0  0  0  0  0
    6.7725  -12.7169   25.9516 S   0  0  0  0  0  0  0  0  0  0  0  0
    6.7564  -14.5161   25.9585 C   0  0  0  0  0  0  0  0  0  0  0  0
    6.7595  -15.0991   24.5843 C   0  0  0  0  0  0  0  0  0  0  0  0
    8.1085  -15.2440   23.9744 C   0  0  2  0  0  0  0  0  0  0  0  0
    8.0966  -15.5533   22.5762 N   0  0  0  0  0  0  0  0  0  0  0  0
    8.9743  -16.1670   24.7641 C   0  0  0  0  0  0  0  0  0  0  0  0
    9.1313  -17.3848   24.4991 O   0  0  0  0  0  0  0  0  0  0  0  0
   10.8757  -15.3361   30.0017 C   0  0  0  0  0  0  0  0  0  0  0  0
   10.4549  -15.0426   28.5713 C   0  0  1  0  0  0  0  0  0  0  0  0
   10.4496  -13.5224   28.4653 C   0  0  0  0  0  0  0  0  0  0  0  0
   11.4057  -15.6532   27.5817 C   0  0  0  0  0  0  0  0  0  0  0  0
   10.6433  -16.4711   26.5795 C   0  0  2  0  0  0  0  0  0  0  0  0
    9.6652  -15.6461   25.8799 N   0  0  0  0  0  0  0  0  0  0  0  0
    9.9457  -17.6224   27.1251 C   0  0  0  0  0  0  0  0  0  0  0  0
   10.6237  -18.5405   27.7098 O   0  0  0  0  0  0  0  0  0  0  0  0
    8.5880  -17.8421   27.0813 O   0  0  0  0  0  0  0  0  0  0  0  0
  2  9  1  0
  2  3  1  0
  2  1  1  1
  3  4  1  0
  4  5  2  0
  4  8  1  0
  5  6  1  0
  6  7  1  0
  8  7  2  0
  9 10  2  0
 11 12  1  0
 13 12  1  0
 14 13  1  0
 15 14  1  1
 15 17  1  0
 16 15  1  0
 16  9  1  0
 17 24  1  0
 17 18  2  0
 20 19  1  1
 20 21  1  0
 22 20  1  0
 23 22  1  1
 24 23  1  0
 25 27  1  0
 25 23  1  0
 26 25  2  0
M  END
$$$$
