HML.pdb
     RDKit          3D

 27 27  0  0  1  0  0  0  0  0999 V2000
    8.8722  -18.1979   20.8613 N   0  0  0  0  0  0  0  0  0  0  0  0
    9.9488  -17.2744   20.6885 C   0  0  1  0  0  0  0  0  0  0  0  0
   10.0092  -16.8305   19.2386 C   0  0  0  0  0  0  0  0  0  0  0  0
   10.1939  -17.9869   18.3327 C   0  0  0  0  0  0  0  0  0  0  0  0
   11.2388  -18.8593   18.3157 C   0  0  0  0  0  0  0  0  0  0  0  0
   10.9757  -19.7394   17.3348 N   0  0  0  0  0  0  0  0  0  0  0  0
    9.7987  -19.4330   16.7482 C   0  0  0  0  0  0  0  0  0  0  0  0
    9.3233  -18.3431   17.3764 N   0  0  0  0  0  0  0  0  0  0  0  0
    9.9032  -16.1248   21.6163 C   0  0  0  0  0  0  0  0  0  0  0  0
   10.8231  -15.2892   21.5880 O   0  0  0  0  0  0  0  0  0  0  0  0
    5.9448  -11.5609   26.6536 C   0  0  0  0  0  0  0  0  0  0  0  0
    6.0065  -13.2511   25.9547 S   0  0  0  0  0  0  0  0  0  0  0  0
    7.4210  -13.3186   24.8447 C   0  0  0  0  0  0  0  0  0  0  0  0
    7.4702  -14.5799   24.0477 C   0  0  0  0  0  0  0  0  0  0  0  0
    8.8257  -14.9563   23.5642 C   0  0  2  0  0  0  0  0  0  0  0  0
    8.8327  -15.9560   22.5388 N   0  0  0  0  0  0  0  0  0  0  0  0
    9.7439  -15.2800   24.6944 C   0  0  0  0  0  0  0  0  0  0  0  0
   10.9412  -14.9056   24.7586 O   0  0  0  0  0  0  0  0  0  0  0  0
    9.6866  -13.7558   29.3633 C   0  0  0  0  0  0  0  0  0  0  0  0
   10.1601  -14.4570   28.1009 C   0  0  1  0  0  0  0  0  0  0  0  0
   11.6682  -14.2402   28.0710 C   0  0  0  0  0  0  0  0  0  0  0  0
    9.8215  -15.9201   28.1241 C   0  0  0  0  0  0  0  0  0  0  0  0
   10.1495  -16.5408   26.7967 C   0  0  2  0  0  0  0  0  0  0  0  0
    9.2426  -16.0542   25.7635 N   0  0  0  0  0  0  0  0  0  0  0  0
   10.1172  -17.9926   26.7696 C   0  0  0  0  0  0  0  0  0  0  0  0
    9.1571  -18.5819   26.1569 O   0  0  0  0  0  0  0  0  0  0  0  0
   11.0383  -18.8341   27.3504 O   0  0  0  0  0  0  0  0  0  0  0  0
  2  9  1  0
  2  3  1  0
  2  1  1  6
  3  4  1  0
  4  5  2  0
  4  8  1  0
  5  6  1  0
  6  7  1  0
  8  7  2  0
  9 10  2  0
 11 12  1  0
 13 12  1  0
 14 13  1  0
 15 14  1  1
 15 17  1  0
 16 15  1  0
 16  9  1  0
 17 24  1  0
 17 18  2  0
 20 19  1  1
 20 21  1  0
 22 20  1  0
 23 22  1  1
 24 23  1  0
 25 27  1  0
 25 23  1  0
 26 25  2  0
M  END
$$$$
