HML.pdb
     RDKit          3D

 27 27  0  0  1  0  0  0  0  0999 V2000
   10.2696  -16.1993   19.5627 N   0  0  0  0  0  0  0  0  0  0  0  0
    9.1511  -16.3087   20.4452 C   0  0  1  0  0  0  0  0  0  0  0  0
    8.6123  -17.7268   20.4087 C   0  0  0  0  0  0  0  0  0  0  0  0
    8.1072  -18.0721   19.0604 C   0  0  0  0  0  0  0  0  0  0  0  0
    7.4078  -17.2679   18.2135 C   0  0  0  0  0  0  0  0  0  0  0  0
    7.1686  -18.0011   17.1131 N   0  0  0  0  0  0  0  0  0  0  0  0
    7.7011  -19.2334   17.2591 C   0  0  0  0  0  0  0  0  0  0  0  0
    8.2808  -19.2651   18.4722 N   0  0  0  0  0  0  0  0  0  0  0  0
    9.4341  -15.8611   21.8251 C   0  0  0  0  0  0  0  0  0  0  0  0
   10.5950  -15.9466   22.2614 O   0  0  0  0  0  0  0  0  0  0  0  0
    7.3089  -11.3463   27.5961 C   0  0  0  0  0  0  0  0  0  0  0  0
    6.4701  -12.7058   26.7032 S   0  0  0  0  0  0  0  0  0  0  0  0
    7.7514  -13.7953   26.0639 C   0  0  0  0  0  0  0  0  0  0  0  0
    7.5369  -14.1617   24.6327 C   0  0  0  0  0  0  0  0  0  0  0  0
    8.6089  -15.0062   24.0407 C   0  0  2  0  0  0  0  0  0  0  0  0
    8.4090  -15.3374   22.6619 N   0  0  0  0  0  0  0  0  0  0  0  0
    8.9004  -16.2000   24.8863 C   0  0  0  0  0  0  0  0  0  0  0  0
    8.1905  -17.2360   24.9110 O   0  0  0  0  0  0  0  0  0  0  0  0
   13.3965  -18.7462   24.7417 C   0  0  0  0  0  0  0  0  0  0  0  0
   11.9405  -18.4283   25.0389 C   0  0  1  0  0  0  0  0  0  0  0  0
   11.2323  -19.7776   25.0309 C   0  0  0  0  0  0  0  0  0  0  0  0
   11.7870  -17.7417   26.3659 C   0  0  0  0  0  0  0  0  0  0  0  0
   10.3596  -17.3171   26.5586 C   0  0  2  0  0  0  0  0  0  0  0  0
   10.0452  -16.1718   25.7123 N   0  0  0  0  0  0  0  0  0  0  0  0
    9.9961  -16.9758   27.9228 C   0  0  0  0  0  0  0  0  0  0  0  0
    9.7413  -15.7525   28.2108 O   0  0  0  0  0  0  0  0  0  0  0  0
    9.8913  -17.8542   28.9768 O   0  0  0  0  0  0  0  0  0  0  0  0
  2  9  1  0
  2  3  1  0
  2  1  1  6
  3  4  1  0
  4  5  2  0
  4  8  1  0
  5  6  1  0
  6  7  1  0
  8  7  2  0
  9 10  2  0
 11 12  1  0
 13 12  1  0
 14 13  1  0
 15 14  1  1
 15 17  1  0
 16 15  1  0
 16  9  1  0
 17 24  1  0
 17 18  2  0
 20 19  1  1
 20 21  1  0
 22 20  1  0
 23 22  1  1
 24 23  1  0
 25 27  1  0
 25 23  1  0
 26 25  2  0
M  END
$$$$
