HML.pdb
     RDKit          3D

 27 27  0  0  1  0  0  0  0  0999 V2000
    8.9839  -17.4512   19.8972 N   0  0  0  0  0  0  0  0  0  0  0  0
    9.1146  -17.8176   21.2722 C   0  0  1  0  0  0  0  0  0  0  0  0
   10.1691  -18.8999   21.4113 C   0  0  0  0  0  0  0  0  0  0  0  0
    9.8366  -20.0799   20.5812 C   0  0  0  0  0  0  0  0  0  0  0  0
    8.9435  -21.0651   20.8728 C   0  0  0  0  0  0  0  0  0  0  0  0
    8.9732  -21.9169   19.8339 N   0  0  0  0  0  0  0  0  0  0  0  0
    9.8592  -21.4836   18.9116 C   0  0  0  0  0  0  0  0  0  0  0  0
   10.3887  -20.3425   19.3872 N   0  0  0  0  0  0  0  0  0  0  0  0
    9.3752  -16.6742   22.1719 C   0  0  0  0  0  0  0  0  0  0  0  0
   10.4218  -16.0191   22.0282 O   0  0  0  0  0  0  0  0  0  0  0  0
    6.4262  -11.3187   24.5943 C   0  0  0  0  0  0  0  0  0  0  0  0
    6.2900  -12.5287   25.9606 S   0  0  0  0  0  0  0  0  0  0  0  0
    7.6705  -13.6716   25.8013 C   0  0  0  0  0  0  0  0  0  0  0  0
    7.4371  -14.7181   24.7626 C   0  0  0  0  0  0  0  0  0  0  0  0
    8.6693  -15.2132   24.0923 C   0  0  2  0  0  0  0  0  0  0  0  0
    8.4567  -16.3097   23.1961 N   0  0  0  0  0  0  0  0  0  0  0  0
    9.7645  -15.4702   25.0719 C   0  0  0  0  0  0  0  0  0  0  0  0
   10.8964  -14.9279   25.0215 O   0  0  0  0  0  0  0  0  0  0  0  0
    8.9979  -14.0774   29.4738 C   0  0  0  0  0  0  0  0  0  0  0  0
    9.6986  -14.6132   28.2363 C   0  0  1  0  0  0  0  0  0  0  0  0
   10.8653  -13.6617   28.0001 C   0  0  0  0  0  0  0  0  0  0  0  0
   10.1787  -16.0214   28.4421 C   0  0  0  0  0  0  0  0  0  0  0  0
   10.5551  -16.6302   27.1221 C   0  0  2  0  0  0  0  0  0  0  0  0
    9.5206  -16.3777   26.1258 N   0  0  0  0  0  0  0  0  0  0  0  0
   10.8056  -18.0606   27.1512 C   0  0  0  0  0  0  0  0  0  0  0  0
   11.7625  -18.5096   27.8772 O   0  0  0  0  0  0  0  0  0  0  0  0
   10.1019  -19.0201   26.4601 O   0  0  0  0  0  0  0  0  0  0  0  0
  2  9  1  0
  2  3  1  0
  2  1  1  6
  3  4  1  0
  4  5  2  0
  4  8  1  0
  5  6  1  0
  6  7  1  0
  8  7  2  0
  9 10  2  0
 11 12  1  0
 13 12  1  0
 14 13  1  0
 15 14  1  1
 15 17  1  0
 16 15  1  0
 16  9  1  0
 17 24  1  0
 17 18  2  0
 20 19  1  1
 20 21  1  0
 22 20  1  0
 23 22  1  1
 24 23  1  0
 25 27  1  0
 25 23  1  0
 26 25  2  0
M  END
$$$$
