VWW.pdb
     RDKit          3D

 36 39  0  0  1  0  0  0  0  0999 V2000
    7.4319  -17.1262   18.6758 C   0  0  0  0  0  0  0  0  0  0  0  0
    8.6939  -17.9049   18.3361 C   0  0  2  0  0  0  0  0  0  0  0  0
    8.2921  -19.1997   17.6742 C   0  0  0  0  0  0  0  0  0  0  0  0
    9.3937  -18.2598   19.6346 C   0  0  2  0  0  0  0  0  0  0  0  0
    8.5011  -19.0869   20.4100 N   0  0  0  0  0  0  0  0  0  0  0  0
    9.7178  -17.0464   20.4201 C   0  0  0  0  0  0  0  0  0  0  0  0
   10.5590  -16.2302   19.9715 O   0  0  0  0  0  0  0  0  0  0  0  0
    9.0540  -16.8555   21.6644 N   0  0  0  0  0  0  0  0  0  0  0  0
    9.2748  -15.6624   22.4172 C   0  0  1  0  0  0  0  0  0  0  0  0
    8.0398  -14.8046   22.5453 C   0  0  0  0  0  0  0  0  0  0  0  0
    7.4108  -14.8775   23.8561 C   0  0  0  0  0  0  0  0  0  0  0  0
    6.9125  -15.9805   24.4786 C   0  0  0  0  0  0  0  0  0  0  0  0
    6.4066  -15.6516   25.6877 N   0  0  0  0  0  0  0  0  0  0  0  0
    6.5796  -14.3091   25.8537 C   0  0  0  0  0  0  0  0  0  0  0  0
    6.2456  -13.4717   26.8986 C   0  0  0  0  0  0  0  0  0  0  0  0
    6.5695  -12.1375   26.7398 C   0  0  0  0  0  0  0  0  0  0  0  0
    7.1852  -11.6347   25.6282 C   0  0  0  0  0  0  0  0  0  0  0  0
    7.5115  -12.4804   24.5962 C   0  0  0  0  0  0  0  0  0  0  0  0
    7.2078  -13.8168   24.7110 C   0  0  0  0  0  0  0  0  0  0  0  0
    9.6441  -16.0689   23.8105 C   0  0  0  0  0  0  0  0  0  0  0  0
    9.0839  -15.5038   24.7965 O   0  0  0  0  0  0  0  0  0  0  0  0
   10.5976  -17.0643   24.0797 N   0  0  0  0  0  0  0  0  0  0  0  0
   12.0248  -16.7337   24.0194 C   0  0  1  0  0  0  0  0  0  0  0  0
   12.4292  -15.9264   25.2268 C   0  0  0  0  0  0  0  0  0  0  0  0
   11.4312  -16.1559   26.3024 C   0  0  0  0  0  0  0  0  0  0  0  0
   10.7620  -17.3539   26.5411 C   0  0  0  0  0  0  0  0  0  0  0  0
    9.9382  -17.1878   27.5866 N   0  0  0  0  0  0  0  0  0  0  0  0
   10.0247  -15.9305   28.0612 C   0  0  0  0  0  0  0  0  0  0  0  0
    9.3937  -15.2808   29.1027 C   0  0  0  0  0  0  0  0  0  0  0  0
    9.6729  -13.9591   29.3802 C   0  0  0  0  0  0  0  0  0  0  0  0
   10.6002  -13.3315   28.5762 C   0  0  0  0  0  0  0  0  0  0  0  0
   11.2412  -13.9747   27.5263 C   0  0  0  0  0  0  0  0  0  0  0  0
   10.9525  -15.2880   27.2636 C   0  0  0  0  0  0  0  0  0  0  0  0
   12.8408  -17.9637   23.8813 C   0  0  0  0  0  0  0  0  0  0  0  0
   12.2895  -19.0988   23.9529 O   0  0  0  0  0  0  0  0  0  0  0  0
   14.2053  -17.9425   23.6734 O   0  0  0  0  0  0  0  0  0  0  0  0
  2  1  1  1
  3  2  1  0
  4  6  1  0
  4  5  1  1
  4  2  1  0
  6  7  2  0
  8  9  1  0
  8  6  1  0
  9 20  1  0
 10 11  1  0
  9 10  1  1
 11 19  1  0
 12 11  2  0
 12 13  1  0
 13 14  1  0
 14 15  2  0
 15 16  1  0
 17 16  2  0
 18 17  1  0
 19 18  2  0
 19 14  1  0
 20 21  2  0
 20 22  1  0
 22 23  1  0
 23 34  1  0
 23 24  1  1
 25 24  1  0
 26 25  2  0
 27 28  1  0
 27 26  1  0
 28 33  2  0
 29 28  1  0
 29 30  2  0
 30 31  1  0
 31 32  2  0
 33 25  1  0
 33 32  1  0
 34 35  2  0
 34 36  1  0
M  END
$$$$
