VWW.pdb
     RDKit          3D

 36 39  0  0  1  0  0  0  0  0999 V2000
   12.9913  -17.2939   20.4120 C   0  0  0  0  0  0  0  0  0  0  0  0
   12.2702  -18.5863   20.0602 C   0  0  2  0  0  0  0  0  0  0  0  0
   11.8685  -18.5284   18.6071 C   0  0  0  0  0  0  0  0  0  0  0  0
   10.9946  -18.6532   20.8789 C   0  0  2  0  0  0  0  0  0  0  0  0
   10.1767  -17.5190   20.5227 N   0  0  0  0  0  0  0  0  0  0  0  0
   11.2833  -18.5920   22.3306 C   0  0  0  0  0  0  0  0  0  0  0  0
   11.9959  -19.4828   22.8536 O   0  0  0  0  0  0  0  0  0  0  0  0
   10.7340  -17.5134   23.0790 N   0  0  0  0  0  0  0  0  0  0  0  0
   10.9623  -17.4297   24.4861 C   0  0  1  0  0  0  0  0  0  0  0  0
   11.4234  -16.0637   24.9321 C   0  0  0  0  0  0  0  0  0  0  0  0
   11.4107  -15.8854   26.3768 C   0  0  0  0  0  0  0  0  0  0  0  0
   11.9991  -16.6744   27.3169 C   0  0  0  0  0  0  0  0  0  0  0  0
   11.7670  -16.1856   28.5551 N   0  0  0  0  0  0  0  0  0  0  0  0
   11.0134  -15.0576   28.4167 C   0  0  0  0  0  0  0  0  0  0  0  0
   10.5049  -14.1830   29.3555 C   0  0  0  0  0  0  0  0  0  0  0  0
    9.7690  -13.1207   28.8654 C   0  0  0  0  0  0  0  0  0  0  0  0
    9.5344  -12.9114   27.5355 C   0  0  0  0  0  0  0  0  0  0  0  0
   10.0469  -13.7904   26.6127 C   0  0  0  0  0  0  0  0  0  0  0  0
   10.7858  -14.8627   27.0555 C   0  0  0  0  0  0  0  0  0  0  0  0
    9.6526  -17.6699   25.1715 C   0  0  0  0  0  0  0  0  0  0  0  0
    9.6187  -17.7884   26.4325 O   0  0  0  0  0  0  0  0  0  0  0  0
    8.4399  -17.7710   24.4703 N   0  0  0  0  0  0  0  0  0  0  0  0
    7.2137  -18.1227   25.1932 C   0  0  1  0  0  0  0  0  0  0  0  0
    6.0605  -17.2772   24.7154 C   0  0  0  0  0  0  0  0  0  0  0  0
    6.5790  -15.9318   24.3592 C   0  0  0  0  0  0  0  0  0  0  0  0
    7.1683  -15.5888   23.1447 C   0  0  0  0  0  0  0  0  0  0  0  0
    7.5165  -14.2940   23.1839 N   0  0  0  0  0  0  0  0  0  0  0  0
    7.1869  -13.7518   24.3717 C   0  0  0  0  0  0  0  0  0  0  0  0
    7.3331  -12.4810   24.8901 C   0  0  0  0  0  0  0  0  0  0  0  0
    6.8982  -12.1866   26.1652 C   0  0  0  0  0  0  0  0  0  0  0  0
    6.3190  -13.2112   26.8829 C   0  0  0  0  0  0  0  0  0  0  0  0
    6.1666  -14.4928   26.3719 C   0  0  0  0  0  0  0  0  0  0  0  0
    6.6041  -14.7690   25.1033 C   0  0  0  0  0  0  0  0  0  0  0  0
    6.9262  -19.5711   25.0608 C   0  0  0  0  0  0  0  0  0  0  0  0
    5.9512  -20.0809   25.6828 O   0  0  0  0  0  0  0  0  0  0  0  0
    7.6812  -20.4198   24.2765 O   0  0  0  0  0  0  0  0  0  0  0  0
  2  1  1  1
  3  2  1  0
  4  6  1  0
  4  5  1  6
  4  2  1  0
  6  7  2  0
  8  9  1  0
  8  6  1  0
  9 20  1  0
 10 11  1  0
  9 10  1  6
 11 19  1  0
 12 11  2  0
 12 13  1  0
 13 14  1  0
 14 15  2  0
 15 16  1  0
 17 16  2  0
 18 17  1  0
 19 18  2  0
 19 14  1  0
 20 21  2  0
 20 22  1  0
 22 23  1  0
 23 34  1  0
 23 24  1  6
 25 24  1  0
 26 25  2  0
 27 28  1  0
 27 26  1  0
 28 33  2  0
 29 28  1  0
 29 30  2  0
 30 31  1  0
 31 32  2  0
 33 25  1  0
 33 32  1  0
 34 35  2  0
 34 36  1  0
M  END
$$$$
