VWW.pdb
     RDKit          3D

 36 39  0  0  1  0  0  0  0  0999 V2000
    7.5835  -12.9260   19.3060 C   0  0  0  0  0  0  0  0  0  0  0  0
    8.4906  -14.1378   19.1541 C   0  0  2  0  0  0  0  0  0  0  0  0
    8.3885  -14.6351   17.7334 C   0  0  0  0  0  0  0  0  0  0  0  0
    7.9641  -15.2379   20.0565 C   0  0  2  0  0  0  0  0  0  0  0  0
    6.5232  -15.2254   19.9799 N   0  0  0  0  0  0  0  0  0  0  0  0
    8.3657  -15.0165   21.4651 C   0  0  0  0  0  0  0  0  0  0  0  0
    8.3165  -13.8573   21.9434 O   0  0  0  0  0  0  0  0  0  0  0  0
    8.7951  -16.1407   22.2249 N   0  0  0  0  0  0  0  0  0  0  0  0
    9.1975  -15.9734   23.5847 C   0  0  1  0  0  0  0  0  0  0  0  0
    8.2310  -16.5854   24.5690 C   0  0  0  0  0  0  0  0  0  0  0  0
    7.1341  -15.7021   24.9373 C   0  0  0  0  0  0  0  0  0  0  0  0
    5.8084  -16.0043   24.9987 C   0  0  0  0  0  0  0  0  0  0  0  0
    5.0952  -14.9220   25.3808 N   0  0  0  0  0  0  0  0  0  0  0  0
    5.9744  -13.8972   25.5712 C   0  0  0  0  0  0  0  0  0  0  0  0
    5.7746  -12.5882   25.9600 C   0  0  0  0  0  0  0  0  0  0  0  0
    6.9058  -11.7999   26.0563 C   0  0  0  0  0  0  0  0  0  0  0  0
    8.1681  -12.2510   25.7907 C   0  0  0  0  0  0  0  0  0  0  0  0
    8.3515  -13.5564   25.4046 C   0  0  0  0  0  0  0  0  0  0  0  0
    7.2535  -14.3775   25.2954 C   0  0  0  0  0  0  0  0  0  0  0  0
   10.4924  -16.7035   23.7659 C   0  0  0  0  0  0  0  0  0  0  0  0
   10.8140  -17.6190   22.9511 O   0  0  0  0  0  0  0  0  0  0  0  0
   11.3822  -16.4156   24.8137 N   0  0  0  0  0  0  0  0  0  0  0  0
   12.5939  -17.2250   24.9763 C   0  0  1  0  0  0  0  0  0  0  0  0
   13.4065  -16.7266   26.1444 C   0  0  0  0  0  0  0  0  0  0  0  0
   12.5507  -16.7516   27.3580 C   0  0  0  0  0  0  0  0  0  0  0  0
   12.4323  -17.8222   28.2410 C   0  0  0  0  0  0  0  0  0  0  0  0
   11.5711  -17.4872   29.2133 N   0  0  0  0  0  0  0  0  0  0  0  0
   11.1057  -16.2381   29.0225 C   0  0  0  0  0  0  0  0  0  0  0  0
   10.2181  -15.4545   29.7319 C   0  0  0  0  0  0  0  0  0  0  0  0
    9.9091  -14.1795   29.3066 C   0  0  0  0  0  0  0  0  0  0  0  0
   10.5234  -13.7360   28.1550 C   0  0  0  0  0  0  0  0  0  0  0  0
   11.4176  -14.5150   27.4335 C   0  0  0  0  0  0  0  0  0  0  0  0
   11.7139  -15.7796   27.8694 C   0  0  0  0  0  0  0  0  0  0  0  0
   12.2489  -18.6598   25.1182 C   0  0  0  0  0  0  0  0  0  0  0  0
   11.0506  -19.0038   25.3262 O   0  0  0  0  0  0  0  0  0  0  0  0
   13.1849  -19.6710   25.0344 O   0  0  0  0  0  0  0  0  0  0  0  0
  2  1  1  6
  3  2  1  0
  4  6  1  0
  4  5  1  1
  4  2  1  0
  6  7  2  0
  8  9  1  0
  8  6  1  0
  9 20  1  0
 10 11  1  0
  9 10  1  1
 11 19  1  0
 12 11  2  0
 12 13  1  0
 13 14  1  0
 14 15  2  0
 15 16  1  0
 17 16  2  0
 18 17  1  0
 19 18  2  0
 19 14  1  0
 20 21  2  0
 20 22  1  0
 22 23  1  0
 23 34  1  0
 23 24  1  1
 25 24  1  0
 26 25  2  0
 27 28  1  0
 27 26  1  0
 28 33  2  0
 29 28  1  0
 29 30  2  0
 30 31  1  0
 31 32  2  0
 33 25  1  0
 33 32  1  0
 34 35  2  0
 34 36  1  0
M  END
$$$$
