VWW.pdb
     RDKit          3D

 36 39  0  0  1  0  0  0  0  0999 V2000
    7.3734  -13.2761   18.1828 C   0  0  0  0  0  0  0  0  0  0  0  0
    7.7447  -13.3518   19.6561 C   0  0  2  0  0  0  0  0  0  0  0  0
    8.4829  -12.0897   20.0277 C   0  0  0  0  0  0  0  0  0  0  0  0
    8.7076  -14.5094   19.8415 C   0  0  2  0  0  0  0  0  0  0  0  0
    8.0174  -15.7248   19.4827 N   0  0  0  0  0  0  0  0  0  0  0  0
    9.1552  -14.6167   21.2495 C   0  0  0  0  0  0  0  0  0  0  0  0
    9.9437  -13.7564   21.7111 O   0  0  0  0  0  0  0  0  0  0  0  0
    8.6664  -15.7032   22.0280 N   0  0  0  0  0  0  0  0  0  0  0  0
    8.9957  -15.7949   23.4144 C   0  0  1  0  0  0  0  0  0  0  0  0
    7.9554  -16.5297   24.2239 C   0  0  0  0  0  0  0  0  0  0  0  0
    7.0125  -15.6505   24.8999 C   0  0  0  0  0  0  0  0  0  0  0  0
    5.7722  -15.9625   25.3654 C   0  0  0  0  0  0  0  0  0  0  0  0
    5.1966  -14.8811   25.9356 N   0  0  0  0  0  0  0  0  0  0  0  0
    6.0800  -13.8467   25.8386 C   0  0  0  0  0  0  0  0  0  0  0  0
    5.9928  -12.5343   26.2565 C   0  0  0  0  0  0  0  0  0  0  0  0
    7.0903  -11.7358   25.9956 C   0  0  0  0  0  0  0  0  0  0  0  0
    8.2169  -12.1802   25.3627 C   0  0  0  0  0  0  0  0  0  0  0  0
    8.2893  -13.4891   24.9523 C   0  0  0  0  0  0  0  0  0  0  0  0
    7.2198  -14.3204   25.1912 C   0  0  0  0  0  0  0  0  0  0  0  0
   10.2540  -16.5990   23.5278 C   0  0  0  0  0  0  0  0  0  0  0  0
   10.7601  -17.1191   22.4891 O   0  0  0  0  0  0  0  0  0  0  0  0
   10.9106  -16.8066   24.7518 N   0  0  0  0  0  0  0  0  0  0  0  0
   12.1676  -17.5609   24.7794 C   0  0  1  0  0  0  0  0  0  0  0  0
   13.0772  -17.0283   25.8574 C   0  0  0  0  0  0  0  0  0  0  0  0
   12.2919  -16.8909   27.1105 C   0  0  0  0  0  0  0  0  0  0  0  0
   12.0215  -17.9185   28.0110 C   0  0  0  0  0  0  0  0  0  0  0  0
   11.2854  -17.4271   29.0190 N   0  0  0  0  0  0  0  0  0  0  0  0
   11.0496  -16.1141   28.8354 C   0  0  0  0  0  0  0  0  0  0  0  0
   10.3575  -15.1778   29.5766 C   0  0  0  0  0  0  0  0  0  0  0  0
   10.2684  -13.8691   29.1510 C   0  0  0  0  0  0  0  0  0  0  0  0
   10.8968  -13.5503   27.9662 C   0  0  0  0  0  0  0  0  0  0  0  0
   11.5956  -14.4833   27.2125 C   0  0  0  0  0  0  0  0  0  0  0  0
   11.6746  -15.7795   27.6492 C   0  0  0  0  0  0  0  0  0  0  0  0
   11.9039  -19.0100   24.9482 C   0  0  0  0  0  0  0  0  0  0  0  0
   10.7544  -19.4070   25.2925 O   0  0  0  0  0  0  0  0  0  0  0  0
   12.8662  -19.9789   24.7460 O   0  0  0  0  0  0  0  0  0  0  0  0
  2  1  1  6
  3  2  1  0
  4  6  1  0
  4  5  1  1
  4  2  1  0
  6  7  2  0
  8  9  1  0
  8  6  1  0
  9 20  1  0
 10 11  1  0
  9 10  1  1
 11 19  1  0
 12 11  2  0
 12 13  1  0
 13 14  1  0
 14 15  2  0
 15 16  1  0
 17 16  2  0
 18 17  1  0
 19 18  2  0
 19 14  1  0
 20 21  2  0
 20 22  1  0
 22 23  1  0
 23 34  1  0
 23 24  1  1
 25 24  1  0
 26 25  2  0
 27 28  1  0
 27 26  1  0
 28 33  2  0
 29 28  1  0
 29 30  2  0
 30 31  1  0
 31 32  2  0
 33 25  1  0
 33 32  1  0
 34 35  2  0
 34 36  1  0
M  END
$$$$
