VWW.pdb
     RDKit          3D

 36 39  0  0  1  0  0  0  0  0999 V2000
   10.4144  -16.5120   16.9945 C   0  0  0  0  0  0  0  0  0  0  0  0
   11.1900  -17.8029   17.2097 C   0  0  2  0  0  0  0  0  0  0  0  0
   10.8392  -18.7613   16.0987 C   0  0  0  0  0  0  0  0  0  0  0  0
   10.7180  -18.4263   18.5098 C   0  0  2  0  0  0  0  0  0  0  0  0
    9.3716  -18.9059   18.3108 N   0  0  0  0  0  0  0  0  0  0  0  0
   10.7100  -17.4347   19.6102 C   0  0  0  0  0  0  0  0  0  0  0  0
   11.7154  -16.7049   19.7873 O   0  0  0  0  0  0  0  0  0  0  0  0
    9.5492  -17.3508   20.4293 N   0  0  0  0  0  0  0  0  0  0  0  0
    9.5425  -16.4989   21.5753 C   0  0  1  0  0  0  0  0  0  0  0  0
    8.1559  -16.0656   21.9843 C   0  0  0  0  0  0  0  0  0  0  0  0
    8.1395  -14.8817   22.8311 C   0  0  0  0  0  0  0  0  0  0  0  0
    8.5840  -13.6328   22.5225 C   0  0  0  0  0  0  0  0  0  0  0  0
    8.4007  -12.7955   23.5671 N   0  0  0  0  0  0  0  0  0  0  0  0
    7.8263  -13.5142   24.5736 C   0  0  0  0  0  0  0  0  0  0  0  0
    7.4340  -13.1460   25.8445 C   0  0  0  0  0  0  0  0  0  0  0  0
    6.8748  -14.1412   26.6237 C   0  0  0  0  0  0  0  0  0  0  0  0
    6.7022  -15.4285   26.1990 C   0  0  0  0  0  0  0  0  0  0  0  0
    7.0976  -15.7803   24.9315 C   0  0  0  0  0  0  0  0  0  0  0  0
    7.6594  -14.8218   24.1207 C   0  0  0  0  0  0  0  0  0  0  0  0
   10.0879  -17.2859   22.7267 C   0  0  0  0  0  0  0  0  0  0  0  0
    9.8695  -18.5322   22.7922 O   0  0  0  0  0  0  0  0  0  0  0  0
   10.8433  -16.6974   23.7542 N   0  0  0  0  0  0  0  0  0  0  0  0
   11.4260  -17.5446   24.7995 C   0  0  1  0  0  0  0  0  0  0  0  0
   11.8244  -16.7108   25.9908 C   0  0  0  0  0  0  0  0  0  0  0  0
   10.5979  -16.3602   26.7514 C   0  0  0  0  0  0  0  0  0  0  0  0
    9.4475  -17.1411   26.8334 C   0  0  0  0  0  0  0  0  0  0  0  0
    8.5484  -16.5067   27.6006 N   0  0  0  0  0  0  0  0  0  0  0  0
    9.0446  -15.3337   28.0380 C   0  0  0  0  0  0  0  0  0  0  0  0
    8.5203  -14.3394   28.8391 C   0  0  0  0  0  0  0  0  0  0  0  0
    9.2592  -13.2143   29.1391 C   0  0  0  0  0  0  0  0  0  0  0  0
   10.5281  -13.1364   28.6061 C   0  0  0  0  0  0  0  0  0  0  0  0
   11.0658  -14.1299   27.7995 C   0  0  0  0  0  0  0  0  0  0  0  0
   10.3186  -15.2414   27.5107 C   0  0  0  0  0  0  0  0  0  0  0  0
   10.4884  -18.6296   25.1759 C   0  0  0  0  0  0  0  0  0  0  0  0
   10.8994  -19.6112   25.8578 O   0  0  0  0  0  0  0  0  0  0  0  0
    9.1558  -18.6316   24.8158 O   0  0  0  0  0  0  0  0  0  0  0  0
  2  1  1  6
  3  2  1  0
  4  6  1  0
  4  5  1  6
  4  2  1  0
  6  7  2  0
  8  9  1  0
  8  6  1  0
  9 20  1  0
 10 11  1  0
  9 10  1  1
 11 19  1  0
 12 11  2  0
 12 13  1  0
 13 14  1  0
 14 15  2  0
 15 16  1  0
 17 16  2  0
 18 17  1  0
 19 18  2  0
 19 14  1  0
 20 21  2  0
 20 22  1  0
 22 23  1  0
 23 34  1  0
 23 24  1  1
 25 24  1  0
 26 25  2  0
 27 28  1  0
 27 26  1  0
 28 33  2  0
 29 28  1  0
 29 30  2  0
 30 31  1  0
 31 32  2  0
 33 25  1  0
 33 32  1  0
 34 35  2  0
 34 36  1  0
M  END
$$$$
