VWW.pdb
     RDKit          3D

 36 39  0  0  1  0  0  0  0  0999 V2000
    8.6847  -17.6147   19.0958 C   0  0  0  0  0  0  0  0  0  0  0  0
    9.6955  -18.7242   19.3440 C   0  0  2  0  0  0  0  0  0  0  0  0
    9.0828  -20.0334   18.9122 C   0  0  0  0  0  0  0  0  0  0  0  0
    9.9426  -18.8123   20.8383 C   0  0  2  0  0  0  0  0  0  0  0  0
    8.7002  -19.1784   21.4744 N   0  0  0  0  0  0  0  0  0  0  0  0
   10.3907  -17.5114   21.3872 C   0  0  0  0  0  0  0  0  0  0  0  0
   11.4807  -17.0239   21.0009 O   0  0  0  0  0  0  0  0  0  0  0  0
    9.5566  -16.8622   22.3401 N   0  0  0  0  0  0  0  0  0  0  0  0
    9.9378  -15.5962   22.8796 C   0  0  1  0  0  0  0  0  0  0  0  0
    8.7836  -14.6317   23.0021 C   0  0  0  0  0  0  0  0  0  0  0  0
    7.9630  -14.5468   21.8027 C   0  0  0  0  0  0  0  0  0  0  0  0
    6.7864  -15.1840   21.5538 C   0  0  0  0  0  0  0  0  0  0  0  0
    6.3213  -14.8541   20.3287 N   0  0  0  0  0  0  0  0  0  0  0  0
    7.2130  -13.9860   19.7711 C   0  0  0  0  0  0  0  0  0  0  0  0
    7.2185  -13.3502   18.5462 C   0  0  0  0  0  0  0  0  0  0  0  0
    8.2942  -12.5199   18.2936 C   0  0  0  0  0  0  0  0  0  0  0  0
    9.3148  -12.3124   19.1782 C   0  0  0  0  0  0  0  0  0  0  0  0
    9.2957  -12.9521   20.3936 C   0  0  0  0  0  0  0  0  0  0  0  0
    8.2441  -13.7884   20.6878 C   0  0  0  0  0  0  0  0  0  0  0  0
   10.4334  -15.8296   24.2733 C   0  0  0  0  0  0  0  0  0  0  0  0
   11.1969  -14.9769   24.8170 O   0  0  0  0  0  0  0  0  0  0  0  0
   10.0853  -16.9679   25.0187 N   0  0  0  0  0  0  0  0  0  0  0  0
   10.4221  -17.0296   26.4444 C   0  0  1  0  0  0  0  0  0  0  0  0
    9.2062  -16.7340   27.2853 C   0  0  0  0  0  0  0  0  0  0  0  0
    9.0742  -15.2610   27.4207 C   0  0  0  0  0  0  0  0  0  0  0  0
   10.0331  -14.4108   27.9664 C   0  0  0  0  0  0  0  0  0  0  0  0
    9.5680  -13.1533   27.9274 N   0  0  0  0  0  0  0  0  0  0  0  0
    8.3384  -13.1211   27.3792 C   0  0  0  0  0  0  0  0  0  0  0  0
    7.4580  -12.0896   27.1223 C   0  0  0  0  0  0  0  0  0  0  0  0
    6.2337  -12.3381   26.5384 C   0  0  0  0  0  0  0  0  0  0  0  0
    5.9403  -13.6491   26.2295 C   0  0  0  0  0  0  0  0  0  0  0  0
    6.8177  -14.6945   26.4831 C   0  0  0  0  0  0  0  0  0  0  0  0
    8.0302  -14.4307   27.0639 C   0  0  0  0  0  0  0  0  0  0  0  0
   11.0199  -18.3431   26.7838 C   0  0  0  0  0  0  0  0  0  0  0  0
   11.1056  -19.2448   25.9022 O   0  0  0  0  0  0  0  0  0  0  0  0
   11.5021  -18.6486   28.0406 O   0  0  0  0  0  0  0  0  0  0  0  0
  2  1  1  1
  3  2  1  0
  4  6  1  0
  4  5  1  1
  4  2  1  0
  6  7  2  0
  8  9  1  0
  8  6  1  0
  9 20  1  0
 10 11  1  0
  9 10  1  1
 11 19  1  0
 12 11  2  0
 12 13  1  0
 13 14  1  0
 14 15  2  0
 15 16  1  0
 17 16  2  0
 18 17  1  0
 19 18  2  0
 19 14  1  0
 20 21  2  0
 20 22  1  0
 22 23  1  0
 23 34  1  0
 23 24  1  1
 25 24  1  0
 26 25  2  0
 27 28  1  0
 27 26  1  0
 28 33  2  0
 29 28  1  0
 29 30  2  0
 30 31  1  0
 31 32  2  0
 33 25  1  0
 33 32  1  0
 34 35  2  0
 34 36  1  0
M  END
$$$$
