VWW.pdb
     RDKit          3D

 36 39  0  0  1  0  0  0  0  0999 V2000
    7.7495  -15.8839   15.8300 C   0  0  0  0  0  0  0  0  0  0  0  0
    7.5972  -15.2664   17.2119 C   0  0  2  0  0  0  0  0  0  0  0  0
    7.9185  -13.7955   17.1155 C   0  0  0  0  0  0  0  0  0  0  0  0
    8.6311  -15.8955   18.1268 C   0  0  2  0  0  0  0  0  0  0  0  0
    8.3619  -17.3115   18.1960 N   0  0  0  0  0  0  0  0  0  0  0  0
    8.5541  -15.3311   19.4942 C   0  0  0  0  0  0  0  0  0  0  0  0
    8.0233  -14.2070   19.6662 O   0  0  0  0  0  0  0  0  0  0  0  0
    9.0914  -16.0962   20.5671 N   0  0  0  0  0  0  0  0  0  0  0  0
    8.7516  -15.7737   21.9160 C   0  0  1  0  0  0  0  0  0  0  0  0
    7.2700  -15.8568   22.1906 C   0  0  0  0  0  0  0  0  0  0  0  0
    6.9027  -15.4586   23.5418 C   0  0  0  0  0  0  0  0  0  0  0  0
    6.5041  -16.2620   24.5656 C   0  0  0  0  0  0  0  0  0  0  0  0
    6.2488  -15.5266   25.6702 N   0  0  0  0  0  0  0  0  0  0  0  0
    6.4860  -14.2205   25.3578 C   0  0  0  0  0  0  0  0  0  0  0  0
    6.3812  -13.0712   26.1145 C   0  0  0  0  0  0  0  0  0  0  0  0
    6.7038  -11.8882   25.4768 C   0  0  0  0  0  0  0  0  0  0  0  0
    7.1077  -11.8162   24.1733 C   0  0  0  0  0  0  0  0  0  0  0  0
    7.2073  -12.9687   23.4325 C   0  0  0  0  0  0  0  0  0  0  0  0
    6.8958  -14.1694   24.0266 C   0  0  0  0  0  0  0  0  0  0  0  0
    9.3957  -16.7958   22.8011 C   0  0  0  0  0  0  0  0  0  0  0  0
    8.7471  -17.8315   23.1359 O   0  0  0  0  0  0  0  0  0  0  0  0
   10.7069  -16.6580   23.2849 N   0  0  0  0  0  0  0  0  0  0  0  0
   10.9347  -16.5158   24.7263 C   0  0  1  0  0  0  0  0  0  0  0  0
    9.6907  -16.8843   25.4942 C   0  0  0  0  0  0  0  0  0  0  0  0
    9.9925  -16.8034   26.9462 C   0  0  0  0  0  0  0  0  0  0  0  0
   10.1232  -17.8915   27.8058 C   0  0  0  0  0  0  0  0  0  0  0  0
   10.3915  -17.4379   29.0393 N   0  0  0  0  0  0  0  0  0  0  0  0
   10.4471  -16.0924   29.0462 C   0  0  0  0  0  0  0  0  0  0  0  0
   10.6878  -15.1735   30.0476 C   0  0  0  0  0  0  0  0  0  0  0  0
   10.6876  -13.8212   29.7770 C   0  0  0  0  0  0  0  0  0  0  0  0
   10.4387  -13.4417   28.4754 C   0  0  0  0  0  0  0  0  0  0  0  0
   10.1954  -14.3567   27.4602 C   0  0  0  0  0  0  0  0  0  0  0  0
   10.1991  -15.6967   27.7455 C   0  0  0  0  0  0  0  0  0  0  0  0
   12.1036  -17.3219   25.1527 C   0  0  0  0  0  0  0  0  0  0  0  0
   13.0817  -16.7624   25.7254 O   0  0  0  0  0  0  0  0  0  0  0  0
   12.1898  -18.6855   24.9560 O   0  0  0  0  0  0  0  0  0  0  0  0
  2  1  1  6
  3  2  1  0
  4  6  1  0
  4  5  1  1
  4  2  1  0
  6  7  2  0
  8  9  1  0
  8  6  1  0
  9 20  1  0
 10 11  1  0
  9 10  1  6
 11 19  1  0
 12 11  2  0
 12 13  1  0
 13 14  1  0
 14 15  2  0
 15 16  1  0
 17 16  2  0
 18 17  1  0
 19 18  2  0
 19 14  1  0
 20 21  2  0
 20 22  1  0
 22 23  1  0
 23 34  1  0
 23 24  1  1
 25 24  1  0
 26 25  2  0
 27 28  1  0
 27 26  1  0
 28 33  2  0
 29 28  1  0
 29 30  2  0
 30 31  1  0
 31 32  2  0
 33 25  1  0
 33 32  1  0
 34 35  2  0
 34 36  1  0
M  END
$$$$
