QVS.pdb
     RDKit          3D

 23 22  0  0  1  0  0  0  0  0999 V2000
   17.5011  -12.3475  -14.3221 N   0  0  0  0  0  0  0  0  0  0  0  0
   17.6706  -13.3349  -15.3306 C   0  0  0  0  0  0  0  0  0  0  0  0
   17.2748  -14.4970  -15.1125 O   0  0  0  0  0  0  0  0  0  0  0  0
   18.3072  -12.9862  -16.6053 C   0  0  0  0  0  0  0  0  0  0  0  0
   18.7958  -11.5719  -16.6838 C   0  0  0  0  0  0  0  0  0  0  0  0
   17.7180  -10.6232  -17.0757 C   0  0  2  0  0  0  0  0  0  0  0  0
   17.0691  -10.8679  -18.3251 N   0  0  0  0  0  0  0  0  0  0  0  0
   18.1577   -9.1933  -16.9067 C   0  0  0  0  0  0  0  0  0  0  0  0
   18.6788   -8.5748  -17.8808 O   0  0  0  0  0  0  0  0  0  0  0  0
   17.4594   -4.8156  -14.8374 C   0  0  0  0  0  0  0  0  0  0  0  0
   17.1509   -6.2472  -15.1285 C   0  0  1  0  0  0  0  0  0  0  0  0
   16.0877   -6.3086  -16.2154 C   0  0  0  0  0  0  0  0  0  0  0  0
   18.3453   -7.0248  -15.6454 C   0  0  2  0  0  0  0  0  0  0  0  0
   18.0304   -8.4620  -15.7032 N   0  0  0  0  0  0  0  0  0  0  0  0
   19.5560   -6.8078  -14.8078 C   0  0  0  0  0  0  0  0  0  0  0  0
   19.5851   -7.0687  -13.5833 O   0  0  0  0  0  0  0  0  0  0  0  0
   23.0237   -5.1096  -16.4139 O   0  0  0  0  0  0  0  0  0  0  0  0
   23.1823   -6.1203  -15.4912 C   0  0  0  0  0  0  0  0  0  0  0  0
   21.9665   -6.1013  -14.5560 C   0  0  2  0  0  0  0  0  0  0  0  0
   20.7737   -6.2790  -15.3711 N   0  0  0  0  0  0  0  0  0  0  0  0
   21.9388   -4.8672  -13.7730 C   0  0  0  0  0  0  0  0  0  0  0  0
   22.8059   -4.7003  -12.7166 O   0  0  0  0  0  0  0  0  0  0  0  0
   21.1364   -3.9542  -14.0475 O   0  0  0  0  0  0  0  0  0  0  0  0
  2  1  1  0
  3  2  2  0
  4  2  1  0
  5  4  1  0
  6  5  1  0
  6  8  1  0
  6  7  1  6
  8  9  2  0
 11 10  1  6
 11 12  1  0
 13 11  1  0
 14  8  1  0
 13 14  1  1
 15 13  1  0
 15 20  1  0
 16 15  2  0
 17 18  1  0
 19 21  1  0
 19 20  1  0
 19 18  1  6
 21 22  1  0
 23 21  2  0
M  END
$$$$
