QVS.pdb
     RDKit          3D

 23 22  0  0  1  0  0  0  0  0999 V2000
   19.9130  -35.1626   -8.4266 N   0  0  0  0  0  0  0  0  0  0  0  0
   19.3942  -35.5849   -9.6810 C   0  0  0  0  0  0  0  0  0  0  0  0
   18.1896  -35.3872   -9.9353 O   0  0  0  0  0  0  0  0  0  0  0  0
   20.2676  -36.2474  -10.6556 C   0  0  0  0  0  0  0  0  0  0  0  0
   21.6846  -36.4163  -10.1988 C   0  0  0  0  0  0  0  0  0  0  0  0
   22.6169  -35.4895  -10.8967 C   0  0  2  0  0  0  0  0  0  0  0  0
   22.8921  -35.7686  -12.2708 N   0  0  0  0  0  0  0  0  0  0  0  0
   23.8590  -35.2445  -10.0818 C   0  0  0  0  0  0  0  0  0  0  0  0
   24.9556  -35.7727  -10.4301 O   0  0  0  0  0  0  0  0  0  0  0  0
   26.5857  -32.3600   -7.2378 C   0  0  0  0  0  0  0  0  0  0  0  0
   25.4144  -32.7003   -8.0988 C   0  0  1  0  0  0  0  0  0  0  0  0
   25.6833  -32.2028   -9.5116 C   0  0  0  0  0  0  0  0  0  0  0  0
   25.1612  -34.1913   -8.2047 C   0  0  2  0  0  0  0  0  0  0  0  0
   23.8976  -34.4434   -8.9172 N   0  0  0  0  0  0  0  0  0  0  0  0
   25.1255  -34.8464   -6.8690 C   0  0  0  0  0  0  0  0  0  0  0  0
   24.1339  -34.7730   -6.1077 O   0  0  0  0  0  0  0  0  0  0  0  0
   27.4334  -37.6530   -3.6479 O   0  0  0  0  0  0  0  0  0  0  0  0
   27.4869  -37.0507   -4.8858 C   0  0  0  0  0  0  0  0  0  0  0  0
   26.2592  -36.1412   -5.0221 C   0  0  2  0  0  0  0  0  0  0  0  0
   26.2460  -35.6093   -6.3769 N   0  0  0  0  0  0  0  0  0  0  0  0
   26.2792  -35.0938   -4.0025 C   0  0  0  0  0  0  0  0  0  0  0  0
   25.5608  -35.2498   -2.8384 O   0  0  0  0  0  0  0  0  0  0  0  0
   26.9416  -34.0516   -4.1699 O   0  0  0  0  0  0  0  0  0  0  0  0
  2  1  1  0
  3  2  2  0
  4  2  1  0
  5  4  1  0
  6  5  1  0
  6  8  1  0
  6  7  1  6
  8  9  2  0
 11 10  1  1
 11 12  1  0
 13 11  1  0
 14  8  1  0
 13 14  1  1
 15 13  1  0
 15 20  1  0
 16 15  2  0
 17 18  1  0
 19 21  1  0
 19 20  1  0
 19 18  1  6
 21 22  1  0
 23 21  2  0
M  END
$$$$
