QVS.pdb
     RDKit          3D

 23 22  0  0  1  0  0  0  0  0999 V2000
   14.0217  -12.6726  -16.6130 N   0  0  0  0  0  0  0  0  0  0  0  0
   14.9497  -12.9327  -15.5680 C   0  0  0  0  0  0  0  0  0  0  0  0
   14.5203  -13.1552  -14.4187 O   0  0  0  0  0  0  0  0  0  0  0  0
   16.3904  -12.9329  -15.8434 C   0  0  0  0  0  0  0  0  0  0  0  0
   17.1998  -12.1040  -14.8931 C   0  0  0  0  0  0  0  0  0  0  0  0
   17.3275  -10.6913  -15.3438 C   0  0  2  0  0  0  0  0  0  0  0  0
   17.9279  -10.4762  -16.6226 N   0  0  0  0  0  0  0  0  0  0  0  0
   17.9097   -9.8210  -14.2621 C   0  0  0  0  0  0  0  0  0  0  0  0
   17.7293  -10.1218  -13.0457 O   0  0  0  0  0  0  0  0  0  0  0  0
   21.2960   -6.5274  -12.7769 C   0  0  0  0  0  0  0  0  0  0  0  0
   20.6288   -7.3450  -13.8331 C   0  0  1  0  0  0  0  0  0  0  0  0
   21.5082   -8.5450  -14.1530 C   0  0  0  0  0  0  0  0  0  0  0  0
   19.2828   -7.8955  -13.4042 C   0  0  2  0  0  0  0  0  0  0  0  0
   18.6681   -8.6529  -14.5072 N   0  0  0  0  0  0  0  0  0  0  0  0
   18.3582   -6.8193  -12.9556 C   0  0  0  0  0  0  0  0  0  0  0  0
   17.8988   -5.9552  -13.7370 O   0  0  0  0  0  0  0  0  0  0  0  0
   17.6234   -6.1977   -8.9343 O   0  0  0  0  0  0  0  0  0  0  0  0
   16.5200   -6.0390   -9.7438 C   0  0  0  0  0  0  0  0  0  0  0  0
   17.0138   -5.6766  -11.1501 C   0  0  2  0  0  0  0  0  0  0  0  0
   17.9385   -6.7153  -11.5799 N   0  0  0  0  0  0  0  0  0  0  0  0
   17.6156   -4.3444  -11.1567 C   0  0  0  0  0  0  0  0  0  0  0  0
   16.8305   -3.2313  -10.9564 O   0  0  0  0  0  0  0  0  0  0  0  0
   18.8390   -4.1968  -11.3421 O   0  0  0  0  0  0  0  0  0  0  0  0
  2  1  1  0
  3  2  2  0
  4  2  1  0
  5  4  1  0
  6  5  1  0
  6  8  1  0
  6  7  1  6
  8  9  2  0
 11 10  1  1
 11 12  1  0
 13 11  1  0
 14  8  1  0
 13 14  1  6
 15 13  1  0
 15 20  1  0
 16 15  2  0
 17 18  1  0
 19 21  1  0
 19 20  1  0
 19 18  1  1
 21 22  1  0
 23 21  2  0
M  END
$$$$
