QVS.pdb
     RDKit          3D

 23 22  0  0  1  0  0  0  0  0999 V2000
   14.8181  -12.7728  -15.4634 N   0  0  0  0  0  0  0  0  0  0  0  0
   15.0997  -12.0630  -16.6625 C   0  0  0  0  0  0  0  0  0  0  0  0
   14.6419  -12.4906  -17.7407 O   0  0  0  0  0  0  0  0  0  0  0  0
   15.9216  -10.8487  -16.6257 C   0  0  0  0  0  0  0  0  0  0  0  0
   16.3404  -10.4292  -15.2495 C   0  0  0  0  0  0  0  0  0  0  0  0
   17.8137  -10.2500  -15.1378 C   0  0  2  0  0  0  0  0  0  0  0  0
   18.6240  -11.3900  -15.4302 N   0  0  0  0  0  0  0  0  0  0  0  0
   18.1875   -9.5733  -13.8459 C   0  0  0  0  0  0  0  0  0  0  0  0
   18.3821  -10.2666  -12.8045 O   0  0  0  0  0  0  0  0  0  0  0  0
   20.4556   -5.9326  -11.4936 C   0  0  0  0  0  0  0  0  0  0  0  0
   20.0569   -6.7533  -12.6754 C   0  0  1  0  0  0  0  0  0  0  0  0
   21.1802   -7.7284  -12.9967 C   0  0  0  0  0  0  0  0  0  0  0  0
   18.8140   -7.5873  -12.4345 C   0  0  2  0  0  0  0  0  0  0  0  0
   18.3429   -8.1755  -13.6994 N   0  0  0  0  0  0  0  0  0  0  0  0
   17.7217   -6.7917  -11.8113 C   0  0  0  0  0  0  0  0  0  0  0  0
   17.1044   -5.8936  -12.4284 O   0  0  0  0  0  0  0  0  0  0  0  0
   15.1364   -5.8932   -7.7918 O   0  0  0  0  0  0  0  0  0  0  0  0
   16.0367   -6.7294   -8.4149 C   0  0  0  0  0  0  0  0  0  0  0  0
   16.3752   -6.1240   -9.7831 C   0  0  2  0  0  0  0  0  0  0  0  0
   17.3128   -7.0176  -10.4470 N   0  0  0  0  0  0  0  0  0  0  0  0
   16.8972   -4.7671   -9.6303 C   0  0  0  0  0  0  0  0  0  0  0  0
   18.2152   -4.5694   -9.2845 O   0  0  0  0  0  0  0  0  0  0  0  0
   16.1633   -3.7761   -9.8093 O   0  0  0  0  0  0  0  0  0  0  0  0
  2  1  1  0
  3  2  2  0
  4  2  1  0
  5  4  1  0
  6  5  1  0
  6  8  1  0
  6  7  1  1
  8  9  2  0
 11 10  1  1
 11 12  1  0
 13 11  1  0
 14  8  1  0
 13 14  1  6
 15 13  1  0
 15 20  1  0
 16 15  2  0
 17 18  1  0
 19 21  1  0
 19 20  1  0
 19 18  1  1
 21 22  1  0
 23 21  2  0
M  END
$$$$
