QVS.pdb
     RDKit          3D

 23 22  0  0  1  0  0  0  0  0999 V2000
   14.2458  -11.5744  -19.4019 N   0  0  0  0  0  0  0  0  0  0  0  0
   15.0763  -11.8640  -18.2851 C   0  0  0  0  0  0  0  0  0  0  0  0
   14.5549  -12.3018  -17.2405 O   0  0  0  0  0  0  0  0  0  0  0  0
   16.5243  -11.6439  -18.3654 C   0  0  0  0  0  0  0  0  0  0  0  0
   17.1016  -10.9067  -17.1955 C   0  0  0  0  0  0  0  0  0  0  0  0
   18.2235  -11.6489  -16.5584 C   0  0  2  0  0  0  0  0  0  0  0  0
   17.9147  -12.9293  -16.0043 N   0  0  0  0  0  0  0  0  0  0  0  0
   18.9993  -10.7673  -15.6163 C   0  0  0  0  0  0  0  0  0  0  0  0
   18.6162  -10.6356  -14.4168 O   0  0  0  0  0  0  0  0  0  0  0  0
   23.2208   -8.9439  -14.0237 C   0  0  0  0  0  0  0  0  0  0  0  0
   22.3523   -9.7699  -14.9140 C   0  0  1  0  0  0  0  0  0  0  0  0
   22.2934  -11.1875  -14.3638 C   0  0  0  0  0  0  0  0  0  0  0  0
   20.9219   -9.2725  -14.9856 C   0  0  2  0  0  0  0  0  0  0  0  0
   20.1622  -10.0494  -15.9792 N   0  0  0  0  0  0  0  0  0  0  0  0
   20.8521   -7.8238  -15.3187 C   0  0  0  0  0  0  0  0  0  0  0  0
   21.2259   -7.3665  -16.4230 O   0  0  0  0  0  0  0  0  0  0  0  0
   19.1982   -3.4397  -14.1921 O   0  0  0  0  0  0  0  0  0  0  0  0
   19.2434   -4.7732  -13.8489 C   0  0  0  0  0  0  0  0  0  0  0  0
   20.3576   -5.4349  -14.6697 C   0  0  2  0  0  0  0  0  0  0  0  0
   20.3434   -6.8601  -14.3743 N   0  0  0  0  0  0  0  0  0  0  0  0
   21.6478   -4.8099  -14.3836 C   0  0  0  0  0  0  0  0  0  0  0  0
   22.3725   -5.1970  -13.2788 O   0  0  0  0  0  0  0  0  0  0  0  0
   22.1081   -3.9240  -15.1294 O   0  0  0  0  0  0  0  0  0  0  0  0
  2  1  1  0
  3  2  2  0
  4  2  1  0
  5  4  1  0
  6  5  1  0
  6  8  1  0
  6  7  1  1
  8  9  2  0
 11 10  1  1
 11 12  1  0
 13 11  1  0
 14  8  1  0
 13 14  1  6
 15 13  1  0
 15 20  1  0
 16 15  2  0
 17 18  1  0
 19 21  1  0
 19 20  1  0
 19 18  1  1
 21 22  1  0
 23 21  2  0
M  END
$$$$
