QVS.pdb
     RDKit          3D

 23 22  0  0  1  0  0  0  0  0999 V2000
   19.1339   -8.3521  -15.0245 N   0  0  0  0  0  0  0  0  0  0  0  0
   19.1653   -9.7365  -14.7032 C   0  0  0  0  0  0  0  0  0  0  0  0
   19.9979  -10.4709  -15.2709 O   0  0  0  0  0  0  0  0  0  0  0  0
   18.2257  -10.2877  -13.7208 C   0  0  0  0  0  0  0  0  0  0  0  0
   17.3152   -9.2717  -13.1011 C   0  0  0  0  0  0  0  0  0  0  0  0
   16.3728   -9.8803  -12.1230 C   0  0  2  0  0  0  0  0  0  0  0  0
   15.5615  -10.9572  -12.5964 N   0  0  0  0  0  0  0  0  0  0  0  0
   15.5881   -8.8260  -11.3885 C   0  0  0  0  0  0  0  0  0  0  0  0
   14.4920   -8.4094  -11.8658 O   0  0  0  0  0  0  0  0  0  0  0  0
   13.9574   -6.6584   -7.3844 C   0  0  0  0  0  0  0  0  0  0  0  0
   14.6648   -7.7075   -8.1769 C   0  0  1  0  0  0  0  0  0  0  0  0
   13.6859   -8.8300   -8.4887 C   0  0  0  0  0  0  0  0  0  0  0  0
   15.1857   -7.2036   -9.5086 C   0  0  2  0  0  0  0  0  0  0  0  0
   15.9941   -8.2443  -10.1654 N   0  0  0  0  0  0  0  0  0  0  0  0
   15.9905   -5.9611   -9.3577 C   0  0  0  0  0  0  0  0  0  0  0  0
   17.0546   -5.9222   -8.6985 O   0  0  0  0  0  0  0  0  0  0  0  0
   15.3411   -2.8834  -11.8573 O   0  0  0  0  0  0  0  0  0  0  0  0
   16.5729   -2.9214  -11.2415 C   0  0  0  0  0  0  0  0  0  0  0  0
   16.3823   -3.5142   -9.8397 C   0  0  2  0  0  0  0  0  0  0  0  0
   15.5806   -4.7220   -9.9711 N   0  0  0  0  0  0  0  0  0  0  0  0
   15.7804   -2.5297   -8.9422 C   0  0  0  0  0  0  0  0  0  0  0  0
   16.4673   -1.3818   -8.6164 O   0  0  0  0  0  0  0  0  0  0  0  0
   14.6452   -2.7127   -8.4620 O   0  0  0  0  0  0  0  0  0  0  0  0
  2  1  1  0
  3  2  2  0
  4  2  1  0
  5  4  1  0
  6  5  1  0
  6  8  1  0
  6  7  1  6
  8  9  2  0
 11 10  1  6
 11 12  1  0
 13 11  1  0
 14  8  1  0
 13 14  1  1
 15 13  1  0
 15 20  1  0
 16 15  2  0
 17 18  1  0
 19 21  1  0
 19 20  1  0
 19 18  1  6
 21 22  1  0
 23 21  2  0
M  END
$$$$
