QVS.pdb
     RDKit          3D

 23 22  0  0  1  0  0  0  0  0999 V2000
   28.8828  -19.6589   -6.4884 N   0  0  0  0  0  0  0  0  0  0  0  0
   27.5820  -19.4020   -5.9758 C   0  0  0  0  0  0  0  0  0  0  0  0
   27.4309  -19.2742   -4.7447 O   0  0  0  0  0  0  0  0  0  0  0  0
   26.4375  -19.2950   -6.8870 C   0  0  0  0  0  0  0  0  0  0  0  0
   26.7907  -19.4205   -8.3378 C   0  0  0  0  0  0  0  0  0  0  0  0
   25.7894  -20.2194   -9.0956 C   0  0  2  0  0  0  0  0  0  0  0  0
   25.3123  -21.4124   -8.4701 N   0  0  0  0  0  0  0  0  0  0  0  0
   26.2222  -20.4308  -10.5219 C   0  0  0  0  0  0  0  0  0  0  0  0
   27.2527  -21.1226  -10.7720 O   0  0  0  0  0  0  0  0  0  0  0  0
   25.2889  -22.6829  -12.7562 C   0  0  0  0  0  0  0  0  0  0  0  0
   25.0719  -21.4132  -13.5111 C   0  0  1  0  0  0  0  0  0  0  0  0
   23.6237  -20.9801  -13.3362 C   0  0  0  0  0  0  0  0  0  0  0  0
   25.9308  -20.2665  -13.0153 C   0  0  2  0  0  0  0  0  0  0  0  0
   25.5447  -19.8981  -11.6430 N   0  0  0  0  0  0  0  0  0  0  0  0
   25.8356  -19.0754  -13.9022 C   0  0  0  0  0  0  0  0  0  0  0  0
   24.8400  -18.3158  -13.9074 O   0  0  0  0  0  0  0  0  0  0  0  0
   27.9997  -16.3713  -17.3158 O   0  0  0  0  0  0  0  0  0  0  0  0
   28.1419  -17.3653  -16.3725 C   0  0  0  0  0  0  0  0  0  0  0  0
   26.7680  -17.6141  -15.7374 C   0  0  2  0  0  0  0  0  0  0  0  0
   26.8993  -18.7306  -14.8128 N   0  0  0  0  0  0  0  0  0  0  0  0
   25.7592  -17.8485  -16.7690 C   0  0  0  0  0  0  0  0  0  0  0  0
   25.6948  -19.0666  -17.4075 O   0  0  0  0  0  0  0  0  0  0  0  0
   24.9481  -16.9564  -17.0840 O   0  0  0  0  0  0  0  0  0  0  0  0
  2  1  1  0
  3  2  2  0
  4  2  1  0
  5  4  1  0
  6  5  1  0
  6  8  1  0
  6  7  1  1
  8  9  2  0
 11 10  1  1
 11 12  1  0
 13 11  1  0
 14  8  1  0
 13 14  1  1
 15 13  1  0
 15 20  1  0
 16 15  2  0
 17 18  1  0
 19 21  1  0
 19 20  1  0
 19 18  1  6
 21 22  1  0
 23 21  2  0
M  END
$$$$
