AIY.pdb
     RDKit          3D

 26 26  0  0  1  0  0  0  0  0999 V2000
   27.1598  -24.8757  -18.3181 C   0  0  0  0  0  0  0  0  0  0  0  0
   28.3241  -23.9342  -18.5469 C   0  0  2  0  0  0  0  0  0  0  0  0
   29.5409  -24.7217  -18.6216 N   0  0  0  0  0  0  0  0  0  0  0  0
   28.4065  -22.9082  -17.4812 C   0  0  0  0  0  0  0  0  0  0  0  0
   28.9357  -23.2380  -16.3922 O   0  0  0  0  0  0  0  0  0  0  0  0
   29.0079  -18.2697  -19.2274 C   0  0  0  0  0  0  0  0  0  0  0  0
   29.2981  -19.0009  -17.9536 C   0  0  0  0  0  0  0  0  0  0  0  0
   28.0538  -19.2143  -17.0972 C   0  0  2  0  0  0  0  0  0  0  0  0
   28.0479  -18.1675  -16.0351 C   0  0  0  0  0  0  0  0  0  0  0  0
   28.0574  -20.6098  -16.5085 C   0  0  2  0  0  0  0  0  0  0  0  0
   27.9261  -21.5802  -17.6142 N   0  0  0  0  0  0  0  0  0  0  0  0
   26.9340  -20.8023  -15.5640 C   0  0  0  0  0  0  0  0  0  0  0  0
   25.7490  -20.7767  -16.0272 O   0  0  0  0  0  0  0  0  0  0  0  0
   22.5678  -20.8549   -7.7372 O   0  0  0  0  0  0  0  0  0  0  0  0
   23.5202  -20.9345   -8.7517 C   0  0  0  0  0  0  0  0  0  0  0  0
   24.6460  -20.1382   -8.7644 C   0  0  0  0  0  0  0  0  0  0  0  0
   25.5885  -20.2236   -9.7772 C   0  0  0  0  0  0  0  0  0  0  0  0
   25.4400  -21.1151  -10.8235 C   0  0  0  0  0  0  0  0  0  0  0  0
   26.4175  -21.2312  -11.9156 C   0  0  0  0  0  0  0  0  0  0  0  0
   25.8844  -20.9590  -13.2818 C   0  0  2  0  0  0  0  0  0  0  0  0
   27.0418  -21.0171  -14.1881 N   0  0  0  0  0  0  0  0  0  0  0  0
   25.1760  -19.6690  -13.4207 C   0  0  0  0  0  0  0  0  0  0  0  0
   23.7966  -19.6414  -13.5428 O   0  0  0  0  0  0  0  0  0  0  0  0
   24.3097  -21.9091  -10.8038 C   0  0  0  0  0  0  0  0  0  0  0  0
   23.3694  -21.8249   -9.7947 C   0  0  0  0  0  0  0  0  0  0  0  0
   25.7734  -18.5480  -13.4356 O   0  0  0  0  0  0  0  0  0  0  0  0
  2  1  1  1
  2  3  1  0
  4  2  1  0
  5  4  2  0
  6  7  1  0
  7  8  1  0
  8  9  1  1
 10  8  1  0
 10 11  1  6
 11  4  1  0
 12 10  1  0
 12 13  2  0
 15 14  1  0
 16 15  2  0
 17 16  1  0
 18 24  1  0
 18 17  2  0
 19 18  1  0
 20 19  1  1
 20 22  1  0
 20 21  1  0
 21 12  1  0
 22 23  1  0
 24 25  2  0
 25 15  1  0
 26 22  2  0
M  END
$$$$
