AIY.pdb
     RDKit          3D

 26 26  0  0  1  0  0  0  0  0999 V2000
   27.6968  -19.3778  -15.6662 C   0  0  0  0  0  0  0  0  0  0  0  0
   28.0734  -20.5470  -14.7800 C   0  0  2  0  0  0  0  0  0  0  0  0
   28.5926  -21.6096  -15.6213 N   0  0  0  0  0  0  0  0  0  0  0  0
   26.9187  -21.0080  -13.9743 C   0  0  0  0  0  0  0  0  0  0  0  0
   26.1891  -21.9062  -14.4596 O   0  0  0  0  0  0  0  0  0  0  0  0
   27.1438  -20.7323   -8.5197 C   0  0  0  0  0  0  0  0  0  0  0  0
   26.8413  -21.2383   -9.8959 C   0  0  0  0  0  0  0  0  0  0  0  0
   25.5797  -20.6194  -10.4898 C   0  0  2  0  0  0  0  0  0  0  0  0
   24.4209  -21.0720   -9.6675 C   0  0  0  0  0  0  0  0  0  0  0  0
   25.4305  -21.0271  -11.9408 C   0  0  2  0  0  0  0  0  0  0  0  0
   26.5870  -20.4992  -12.6924 N   0  0  0  0  0  0  0  0  0  0  0  0
   24.1857  -20.4851  -12.5306 C   0  0  0  0  0  0  0  0  0  0  0  0
   24.0821  -19.2234  -12.6592 O   0  0  0  0  0  0  0  0  0  0  0  0
   17.3890  -19.0713  -17.9308 O   0  0  0  0  0  0  0  0  0  0  0  0
   18.4947  -19.5250  -17.2140 C   0  0  0  0  0  0  0  0  0  0  0  0
   18.6013  -20.8293  -16.7789 C   0  0  0  0  0  0  0  0  0  0  0  0
   19.7045  -21.2727  -16.0664 C   0  0  0  0  0  0  0  0  0  0  0  0
   20.7508  -20.4226  -15.7598 C   0  0  0  0  0  0  0  0  0  0  0  0
   21.9349  -20.8573  -15.0041 C   0  0  0  0  0  0  0  0  0  0  0  0
   21.8810  -20.6096  -13.5342 C   0  0  2  0  0  0  0  0  0  0  0  0
   23.0909  -21.2309  -12.9734 N   0  0  0  0  0  0  0  0  0  0  0  0
   20.6690  -21.1291  -12.8662 C   0  0  0  0  0  0  0  0  0  0  0  0
   19.5659  -20.3104  -12.6893 O   0  0  0  0  0  0  0  0  0  0  0  0
   20.6367  -19.1178  -16.1990 C   0  0  0  0  0  0  0  0  0  0  0  0
   19.5375  -18.6746  -16.9093 C   0  0  0  0  0  0  0  0  0  0  0  0
   20.5735  -22.3184  -12.4300 O   0  0  0  0  0  0  0  0  0  0  0  0
  2  1  1  6
  2  3  1  0
  4  2  1  0
  5  4  2  0
  6  7  1  0
  7  8  1  0
  8  9  1  1
 10  8  1  0
 10 11  1  6
 11  4  1  0
 12 10  1  0
 12 13  2  0
 15 14  1  0
 16 15  2  0
 17 16  1  0
 18 24  1  0
 18 17  2  0
 19 18  1  0
 20 19  1  6
 20 22  1  0
 20 21  1  0
 21 12  1  0
 22 23  1  0
 24 25  2  0
 25 15  1  0
 26 22  2  0
M  END
$$$$
