AIY.pdb
     RDKit          3D

 26 26  0  0  1  0  0  0  0  0999 V2000
   13.9433  -26.9866    0.7078 C   0  0  0  0  0  0  0  0  0  0  0  0
   15.3371  -26.6255    1.1778 C   0  0  2  0  0  0  0  0  0  0  0  0
   15.2287  -25.5490    2.1452 N   0  0  0  0  0  0  0  0  0  0  0  0
   16.2094  -26.2477    0.0414 C   0  0  0  0  0  0  0  0  0  0  0  0
   16.2381  -25.0396   -0.2967 O   0  0  0  0  0  0  0  0  0  0  0  0
   20.8058  -28.8553   -0.6357 C   0  0  0  0  0  0  0  0  0  0  0  0
   19.9311  -27.6456   -0.7499 C   0  0  0  0  0  0  0  0  0  0  0  0
   19.0048  -27.6974   -1.9610 C   0  0  2  0  0  0  0  0  0  0  0  0
   19.8234  -27.4039   -3.1723 C   0  0  0  0  0  0  0  0  0  0  0  0
   17.8724  -26.7052   -1.7960 C   0  0  2  0  0  0  0  0  0  0  0  0
   17.0120  -27.1633   -0.6864 N   0  0  0  0  0  0  0  0  0  0  0  0
   17.0567  -26.6044   -3.0270 C   0  0  0  0  0  0  0  0  0  0  0  0
   16.2541  -27.5548   -3.2950 O   0  0  0  0  0  0  0  0  0  0  0  0
   12.9942  -23.1117  -10.2063 O   0  0  0  0  0  0  0  0  0  0  0  0
   13.7640  -23.3533   -9.0699 C   0  0  0  0  0  0  0  0  0  0  0  0
   13.2578  -23.2021   -7.7960 C   0  0  0  0  0  0  0  0  0  0  0  0
   14.0300  -23.4444   -6.6707 C   0  0  0  0  0  0  0  0  0  0  0  0
   15.3475  -23.8501   -6.7772 C   0  0  0  0  0  0  0  0  0  0  0  0
   16.1968  -24.1136   -5.6063 C   0  0  0  0  0  0  0  0  0  0  0  0
   16.2350  -25.5336   -5.1513 C   0  0  2  0  0  0  0  0  0  0  0  0
   17.0742  -25.5501   -3.9431 N   0  0  0  0  0  0  0  0  0  0  0  0
   16.7471  -26.4887   -6.1566 C   0  0  0  0  0  0  0  0  0  0  0  0
   15.8654  -27.2162   -6.9389 O   0  0  0  0  0  0  0  0  0  0  0  0
   15.8472  -23.9991   -8.0564 C   0  0  0  0  0  0  0  0  0  0  0  0
   15.0784  -23.7579   -9.1790 C   0  0  0  0  0  0  0  0  0  0  0  0
   17.9857  -26.6903   -6.3536 O   0  0  0  0  0  0  0  0  0  0  0  0
  2  1  1  6
  2  3  1  0
  4  2  1  0
  5  4  2  0
  6  7  1  0
  7  8  1  0
  8  9  1  6
 10  8  1  0
 10 11  1  1
 11  4  1  0
 12 10  1  0
 12 13  2  0
 15 14  1  0
 16 15  2  0
 17 16  1  0
 18 24  1  0
 18 17  2  0
 19 18  1  0
 20 19  1  6
 20 22  1  0
 20 21  1  0
 21 12  1  0
 22 23  1  0
 24 25  2  0
 25 15  1  0
 26 22  2  0
M  END
$$$$
