AIY.pdb
     RDKit          3D

 26 26  0  0  1  0  0  0  0  0999 V2000
   21.1975  -15.1028  -17.3690 C   0  0  0  0  0  0  0  0  0  0  0  0
   22.4336  -15.8164  -16.8622 C   0  0  2  0  0  0  0  0  0  0  0  0
   22.0112  -16.9148  -16.0127 N   0  0  0  0  0  0  0  0  0  0  0  0
   23.3353  -14.8883  -16.1406 C   0  0  0  0  0  0  0  0  0  0  0  0
   23.0524  -14.6054  -14.9512 O   0  0  0  0  0  0  0  0  0  0  0  0
   27.9060  -15.7089  -16.8543 C   0  0  0  0  0  0  0  0  0  0  0  0
   27.2324  -14.8950  -15.7934 C   0  0  0  0  0  0  0  0  0  0  0  0
   26.7600  -13.5361  -16.3009 C   0  0  2  0  0  0  0  0  0  0  0  0
   27.6324  -12.4936  -15.6878 C   0  0  0  0  0  0  0  0  0  0  0  0
   25.3021  -13.3245  -15.9491 C   0  0  2  0  0  0  0  0  0  0  0  0
   24.4952  -14.3012  -16.7081 N   0  0  0  0  0  0  0  0  0  0  0  0
   24.8539  -11.9572  -16.2963 C   0  0  0  0  0  0  0  0  0  0  0  0
   24.6131  -11.6965  -17.5183 O   0  0  0  0  0  0  0  0  0  0  0  0
   21.8199   -3.5679  -15.4129 O   0  0  0  0  0  0  0  0  0  0  0  0
   22.3357   -4.8480  -15.2190 C   0  0  0  0  0  0  0  0  0  0  0  0
   23.6727   -5.1345  -15.3984 C   0  0  0  0  0  0  0  0  0  0  0  0
   24.1778   -6.4105  -15.2035 C   0  0  0  0  0  0  0  0  0  0  0  0
   23.3591   -7.4563  -14.8189 C   0  0  0  0  0  0  0  0  0  0  0  0
   23.8593   -8.8223  -14.6055 C   0  0  0  0  0  0  0  0  0  0  0  0
   24.2726   -9.5514  -15.8394 C   0  0  2  0  0  0  0  0  0  0  0  0
   24.6603  -10.9016  -15.4024 N   0  0  0  0  0  0  0  0  0  0  0  0
   25.3702   -8.9111  -16.5946 C   0  0  0  0  0  0  0  0  0  0  0  0
   25.0988   -8.2085  -17.7570 O   0  0  0  0  0  0  0  0  0  0  0  0
   22.0213   -7.1614  -14.6414 C   0  0  0  0  0  0  0  0  0  0  0  0
   21.5165   -5.8898  -14.8354 C   0  0  0  0  0  0  0  0  0  0  0  0
   26.5863   -8.9672  -16.2318 O   0  0  0  0  0  0  0  0  0  0  0  0
  2  1  1  1
  2  3  1  0
  4  2  1  0
  5  4  2  0
  6  7  1  0
  7  8  1  0
  8  9  1  1
 10  8  1  0
 10 11  1  6
 11  4  1  0
 12 10  1  0
 12 13  2  0
 15 14  1  0
 16 15  2  0
 17 16  1  0
 18 24  1  0
 18 17  2  0
 19 18  1  0
 20 19  1  1
 20 22  1  0
 20 21  1  0
 21 12  1  0
 22 23  1  0
 24 25  2  0
 25 15  1  0
 26 22  2  0
M  END
$$$$
