EKV.pdb
     RDKit          3D

 26 25  0  0  1  0  0  0  0  0999 V2000
   11.7255  -19.2557   21.1074 N   0  0  0  0  0  0  0  0  0  0  0  0
   12.1671  -17.9230   21.3818 C   0  0  1  0  0  0  0  0  0  0  0  0
   12.4633  -17.0729   20.2017 C   0  0  0  0  0  0  0  0  0  0  0  0
   13.0847  -17.7232   19.0211 C   0  0  0  0  0  0  0  0  0  0  0  0
   13.3347  -16.8785   17.8472 C   0  0  0  0  0  0  0  0  0  0  0  0
   12.4848  -16.6795   16.9629 O   0  0  0  0  0  0  0  0  0  0  0  0
   11.2936  -17.2479   22.3802 C   0  0  0  0  0  0  0  0  0  0  0  0
   11.4897  -16.0306   22.6657 O   0  0  0  0  0  0  0  0  0  0  0  0
   14.5706  -16.2326   17.6479 O   0  0  0  0  0  0  0  0  0  0  0  0
   10.2296  -17.8943   23.0473 N   0  0  0  0  0  0  0  0  0  0  0  0
    9.3071  -17.2046   23.9597 C   0  0  1  0  0  0  0  0  0  0  0  0
    8.0507  -17.9909   24.1239 C   0  0  0  0  0  0  0  0  0  0  0  0
    7.3020  -18.0884   22.8301 C   0  0  0  0  0  0  0  0  0  0  0  0
    6.2975  -19.2385   22.8585 C   0  0  0  0  0  0  0  0  0  0  0  0
    5.4940  -19.3070   21.5935 C   0  0  0  0  0  0  0  0  0  0  0  0
    4.6900  -20.5157   21.6323 N   0  0  0  0  0  0  0  0  0  0  0  0
    9.9806  -16.8048   25.1940 C   0  0  0  0  0  0  0  0  0  0  0  0
   10.9589  -17.4128   25.6465 O   0  0  0  0  0  0  0  0  0  0  0  0
    8.3330  -13.8318   27.9077 C   0  0  0  0  0  0  0  0  0  0  0  0
    9.8001  -13.8723   27.5682 C   0  0  1  0  0  0  0  0  0  0  0  0
   10.5750  -13.5822   28.8346 C   0  0  0  0  0  0  0  0  0  0  0  0
   10.2302  -15.2185   27.0650 C   0  0  2  0  0  0  0  0  0  0  0  0
    9.5141  -15.6805   25.9165 N   0  0  0  0  0  0  0  0  0  0  0  0
   10.0300  -16.1998   28.1603 C   0  0  0  0  0  0  0  0  0  0  0  0
    9.0435  -16.9812   28.2249 O   0  0  0  0  0  0  0  0  0  0  0  0
   10.9521  -16.3184   29.2154 O   0  0  0  0  0  0  0  0  0  0  0  0
  2  1  1  6
  2  7  1  0
  3  4  1  0
  3  2  1  0
  4  5  1  0
  5  6  2  0
  5  9  1  0
  7  8  2  0
 10  7  1  0
 10 11  1  0
 11 17  1  0
 12 13  1  0
 11 12  1  1
 13 14  1  0
 14 15  1  0
 15 16  1  0
 17 18  2  0
 20 19  1  1
 20 22  1  0
 21 20  1  0
 22 24  1  0
 23 17  1  0
 22 23  1  6
 24 25  2  0
 24 26  1  0
M  END
$$$$
