EKV.pdb
     RDKit          3D

 26 25  0  0  1  0  0  0  0  0999 V2000
    8.5541  -13.3046   18.7740 N   0  0  0  0  0  0  0  0  0  0  0  0
    8.8684  -14.5012   19.4922 C   0  0  1  0  0  0  0  0  0  0  0  0
   10.3007  -14.8886   19.5286 C   0  0  0  0  0  0  0  0  0  0  0  0
   11.2994  -13.8180   19.7723 C   0  0  0  0  0  0  0  0  0  0  0  0
   12.7134  -14.2115   19.7774 C   0  0  0  0  0  0  0  0  0  0  0  0
   13.0913  -15.3813   19.5967 O   0  0  0  0  0  0  0  0  0  0  0  0
    8.2259  -14.5227   20.8347 C   0  0  0  0  0  0  0  0  0  0  0  0
    7.9601  -13.4334   21.4217 O   0  0  0  0  0  0  0  0  0  0  0  0
   13.7432  -13.2743   19.9903 O   0  0  0  0  0  0  0  0  0  0  0  0
    7.8827  -15.7121   21.5148 N   0  0  0  0  0  0  0  0  0  0  0  0
    7.1534  -15.7345   22.7901 C   0  0  1  0  0  0  0  0  0  0  0  0
    6.4681  -17.0459   22.9762 C   0  0  0  0  0  0  0  0  0  0  0  0
    5.6572  -17.4071   21.7697 C   0  0  0  0  0  0  0  0  0  0  0  0
    5.1217  -18.8339   21.8710 C   0  0  0  0  0  0  0  0  0  0  0  0
    4.1828  -19.1571   20.7464 C   0  0  0  0  0  0  0  0  0  0  0  0
    3.7076  -20.5170   20.9296 N   0  0  0  0  0  0  0  0  0  0  0  0
    8.0013  -15.2904   23.8949 C   0  0  0  0  0  0  0  0  0  0  0  0
    9.1937  -15.6078   23.9892 O   0  0  0  0  0  0  0  0  0  0  0  0
    7.8767  -11.5687   25.5045 C   0  0  0  0  0  0  0  0  0  0  0  0
    7.8797  -12.6631   26.5397 C   0  0  1  0  0  0  0  0  0  0  0  0
    6.4678  -12.8070   27.0631 C   0  0  0  0  0  0  0  0  0  0  0  0
    8.2940  -13.9861   25.9669 C   0  0  2  0  0  0  0  0  0  0  0  0
    7.4596  -14.4630   24.9078 N   0  0  0  0  0  0  0  0  0  0  0  0
    8.2665  -14.9863   27.0631 C   0  0  0  0  0  0  0  0  0  0  0  0
    7.4594  -15.9530   27.1051 O   0  0  0  0  0  0  0  0  0  0  0  0
    9.1617  -14.9121   28.1452 O   0  0  0  0  0  0  0  0  0  0  0  0
  2  1  1  1
  2  7  1  0
  3  4  1  0
  3  2  1  0
  4  5  1  0
  5  6  2  0
  5  9  1  0
  7  8  2  0
 10  7  1  0
 10 11  1  0
 11 17  1  0
 12 13  1  0
 11 12  1  1
 13 14  1  0
 14 15  1  0
 15 16  1  0
 17 18  2  0
 20 19  1  6
 20 22  1  0
 21 20  1  0
 22 24  1  0
 23 17  1  0
 22 23  1  6
 24 25  2  0
 24 26  1  0
M  END
$$$$
