EKV.pdb
     RDKit          3D

 26 25  0  0  1  0  0  0  0  0999 V2000
    9.7491  -17.5455   20.2317 N   0  0  0  0  0  0  0  0  0  0  0  0
    8.9907  -16.3337   20.1776 C   0  0  1  0  0  0  0  0  0  0  0  0
    8.1031  -16.1662   18.9999 C   0  0  0  0  0  0  0  0  0  0  0  0
    8.3126  -17.0722   17.8431 C   0  0  0  0  0  0  0  0  0  0  0  0
    7.3678  -16.9590   16.7257 C   0  0  0  0  0  0  0  0  0  0  0  0
    6.1959  -17.3676   16.7859 O   0  0  0  0  0  0  0  0  0  0  0  0
    8.3031  -16.0563   21.4682 C   0  0  0  0  0  0  0  0  0  0  0  0
    7.5287  -15.0600   21.5664 O   0  0  0  0  0  0  0  0  0  0  0  0
    7.7365  -16.3721   15.4994 O   0  0  0  0  0  0  0  0  0  0  0  0
    8.4614  -16.8550   22.6224 N   0  0  0  0  0  0  0  0  0  0  0  0
    7.7180  -16.6322   23.8700 C   0  0  1  0  0  0  0  0  0  0  0  0
    7.4720  -17.9264   24.5690 C   0  0  0  0  0  0  0  0  0  0  0  0
    6.6239  -18.8373   23.7354 C   0  0  0  0  0  0  0  0  0  0  0  0
    6.4769  -20.2088   24.3910 C   0  0  0  0  0  0  0  0  0  0  0  0
    5.6683  -21.1467   23.5442 C   0  0  0  0  0  0  0  0  0  0  0  0
    5.5145  -22.3947   24.2706 N   0  0  0  0  0  0  0  0  0  0  0  0
    8.3313  -15.5754   24.6724 C   0  0  0  0  0  0  0  0  0  0  0  0
    9.5522  -15.5062   24.8623 O   0  0  0  0  0  0  0  0  0  0  0  0
    6.6501  -11.7464   24.9978 C   0  0  0  0  0  0  0  0  0  0  0  0
    7.1973  -12.3496   26.2651 C   0  0  1  0  0  0  0  0  0  0  0  0
    6.0273  -12.8662   27.0728 C   0  0  0  0  0  0  0  0  0  0  0  0
    8.1144  -13.5055   25.9946 C   0  0  2  0  0  0  0  0  0  0  0  0
    7.5169  -14.5802   25.2642 N   0  0  0  0  0  0  0  0  0  0  0  0
    8.5773  -14.0356   27.3012 C   0  0  0  0  0  0  0  0  0  0  0  0
    9.2242  -13.3540   28.1408 O   0  0  0  0  0  0  0  0  0  0  0  0
    8.3144  -15.3617   27.6885 O   0  0  0  0  0  0  0  0  0  0  0  0
  2  1  1  1
  2  7  1  0
  3  4  1  0
  3  2  1  0
  4  5  1  0
  5  6  2  0
  5  9  1  0
  7  8  2  0
 10  7  1  0
 10 11  1  0
 11 17  1  0
 12 13  1  0
 11 12  1  1
 13 14  1  0
 14 15  1  0
 15 16  1  0
 17 18  2  0
 20 19  1  6
 20 22  1  0
 21 20  1  0
 22 24  1  0
 23 17  1  0
 22 23  1  1
 24 25  2  0
 24 26  1  0
M  END
$$$$
