EKV.pdb
     RDKit          3D

 26 25  0  0  1  0  0  0  0  0999 V2000
   12.4080  -16.8323   20.7828 N   0  0  0  0  0  0  0  0  0  0  0  0
   11.0643  -17.1420   21.1638 C   0  0  1  0  0  0  0  0  0  0  0  0
   10.8674  -18.4145   21.9018 C   0  0  0  0  0  0  0  0  0  0  0  0
   12.0252  -19.3371   22.0083 C   0  0  0  0  0  0  0  0  0  0  0  0
   11.8323  -20.5643   22.7898 C   0  0  0  0  0  0  0  0  0  0  0  0
   11.9930  -20.6153   24.0209 O   0  0  0  0  0  0  0  0  0  0  0  0
   10.3953  -15.9827   21.8148 C   0  0  0  0  0  0  0  0  0  0  0  0
   11.0619  -15.2135   22.5671 O   0  0  0  0  0  0  0  0  0  0  0  0
   11.4479  -21.7766   22.1841 O   0  0  0  0  0  0  0  0  0  0  0  0
    9.0275  -15.6753   21.6424 N   0  0  0  0  0  0  0  0  0  0  0  0
    8.3458  -14.5861   22.3549 C   0  0  1  0  0  0  0  0  0  0  0  0
    7.1316  -14.1522   21.6057 C   0  0  0  0  0  0  0  0  0  0  0  0
    7.4903  -13.2182   20.4909 C   0  0  0  0  0  0  0  0  0  0  0  0
    7.8176  -13.9852   19.2114 C   0  0  0  0  0  0  0  0  0  0  0  0
    8.1615  -13.0608   18.0810 C   0  0  0  0  0  0  0  0  0  0  0  0
    8.4935  -13.8682   16.9204 N   0  0  0  0  0  0  0  0  0  0  0  0
    8.1466  -14.9165   23.7649 C   0  0  0  0  0  0  0  0  0  0  0  0
    8.2894  -16.0634   24.2073 O   0  0  0  0  0  0  0  0  0  0  0  0
    7.7310  -11.8034   26.7147 C   0  0  0  0  0  0  0  0  0  0  0  0
    6.9974  -13.1088   26.8801 C   0  0  1  0  0  0  0  0  0  0  0  0
    5.5788  -12.9053   26.3960 C   0  0  0  0  0  0  0  0  0  0  0  0
    7.6071  -14.2107   26.0650 C   0  0  2  0  0  0  0  0  0  0  0  0
    7.7768  -13.9009   24.6791 N   0  0  0  0  0  0  0  0  0  0  0  0
    6.7219  -15.3975   26.1684 C   0  0  0  0  0  0  0  0  0  0  0  0
    5.9434  -15.7690   25.2498 O   0  0  0  0  0  0  0  0  0  0  0  0
    6.7000  -16.1966   27.3253 O   0  0  0  0  0  0  0  0  0  0  0  0
  2  1  1  1
  2  7  1  0
  3  4  1  0
  3  2  1  0
  4  5  1  0
  5  6  2  0
  5  9  1  0
  7  8  2  0
 10  7  1  0
 10 11  1  0
 11 17  1  0
 12 13  1  0
 11 12  1  6
 13 14  1  0
 14 15  1  0
 15 16  1  0
 17 18  2  0
 20 19  1  6
 20 22  1  0
 21 20  1  0
 22 24  1  0
 23 17  1  0
 22 23  1  6
 24 25  2  0
 24 26  1  0
M  END
$$$$
