EKV.pdb
     RDKit          3D

 26 25  0  0  1  0  0  0  0  0999 V2000
   10.5907  -16.6707   19.7365 N   0  0  0  0  0  0  0  0  0  0  0  0
   10.7973  -17.5219   20.8675 C   0  0  1  0  0  0  0  0  0  0  0  0
   12.2050  -17.8825   21.1698 C   0  0  0  0  0  0  0  0  0  0  0  0
   13.2582  -16.8907   20.8380 C   0  0  0  0  0  0  0  0  0  0  0  0
   14.6503  -17.2879   21.0794 C   0  0  0  0  0  0  0  0  0  0  0  0
   15.1588  -17.3185   22.2128 O   0  0  0  0  0  0  0  0  0  0  0  0
   10.0507  -17.0416   22.0622 C   0  0  0  0  0  0  0  0  0  0  0  0
    9.8911  -15.7996   22.2461 O   0  0  0  0  0  0  0  0  0  0  0  0
   15.5074  -17.6641   20.0268 O   0  0  0  0  0  0  0  0  0  0  0  0
    9.4918  -17.9050   23.0302 N   0  0  0  0  0  0  0  0  0  0  0  0
    8.7149  -17.4331   24.1846 C   0  0  1  0  0  0  0  0  0  0  0  0
    7.7457  -18.4781   24.6236 C   0  0  0  0  0  0  0  0  0  0  0  0
    6.7713  -18.8026   23.5332 C   0  0  0  0  0  0  0  0  0  0  0  0
    5.7982  -19.8961   23.9693 C   0  0  0  0  0  0  0  0  0  0  0  0
    4.8111  -20.2259   22.8888 C   0  0  0  0  0  0  0  0  0  0  0  0
    3.9626  -21.3043   23.3642 N   0  0  0  0  0  0  0  0  0  0  0  0
    9.5860  -16.8878   25.2241 C   0  0  0  0  0  0  0  0  0  0  0  0
   10.7086  -17.3506   25.4635 O   0  0  0  0  0  0  0  0  0  0  0  0
    8.2976  -13.5617   27.7248 C   0  0  0  0  0  0  0  0  0  0  0  0
    9.7330  -13.7951   27.3317 C   0  0  1  0  0  0  0  0  0  0  0  0
   10.6016  -13.4166   28.5108 C   0  0  0  0  0  0  0  0  0  0  0  0
   10.0057  -15.2332   27.0035 C   0  0  2  0  0  0  0  0  0  0  0  0
    9.1505  -15.7864   25.9995 N   0  0  0  0  0  0  0  0  0  0  0  0
    9.8321  -16.0254   28.2464 C   0  0  0  0  0  0  0  0  0  0  0  0
    8.8466  -16.7811   28.4597 O   0  0  0  0  0  0  0  0  0  0  0  0
   10.7803  -15.9783   29.2838 O   0  0  0  0  0  0  0  0  0  0  0  0
  2  1  1  6
  2  7  1  0
  3  4  1  0
  3  2  1  0
  4  5  1  0
  5  6  2  0
  5  9  1  0
  7  8  2  0
 10  7  1  0
 10 11  1  0
 11 17  1  0
 12 13  1  0
 11 12  1  1
 13 14  1  0
 14 15  1  0
 15 16  1  0
 17 18  2  0
 20 19  1  1
 20 22  1  0
 21 20  1  0
 22 24  1  0
 23 17  1  0
 22 23  1  6
 24 25  2  0
 24 26  1  0
M  END
$$$$
