EKV.pdb
     RDKit          3D

 26 25  0  0  1  0  0  0  0  0999 V2000
   10.4778  -17.5116   20.2886 N   0  0  0  0  0  0  0  0  0  0  0  0
    9.6773  -16.3383   20.1181 C   0  0  1  0  0  0  0  0  0  0  0  0
    8.9105  -16.2446   18.8508 C   0  0  0  0  0  0  0  0  0  0  0  0
    9.3394  -17.1039   17.7192 C   0  0  0  0  0  0  0  0  0  0  0  0
    8.5562  -17.0188   16.4809 C   0  0  0  0  0  0  0  0  0  0  0  0
    7.3933  -17.4457   16.3846 O   0  0  0  0  0  0  0  0  0  0  0  0
    8.8479  -16.0577   21.3218 C   0  0  0  0  0  0  0  0  0  0  0  0
    8.0362  -15.0867   21.3132 O   0  0  0  0  0  0  0  0  0  0  0  0
    9.0819  -16.4399   15.3092 O   0  0  0  0  0  0  0  0  0  0  0  0
    8.9080  -16.8261   22.5053 N   0  0  0  0  0  0  0  0  0  0  0  0
    8.0377  -16.5951   23.6664 C   0  0  1  0  0  0  0  0  0  0  0  0
    7.6620  -17.8905   24.3027 C   0  0  0  0  0  0  0  0  0  0  0  0
    6.8000  -18.7093   23.3916 C   0  0  0  0  0  0  0  0  0  0  0  0
    6.4883  -20.0733   24.0041 C   0  0  0  0  0  0  0  0  0  0  0  0
    5.4974  -20.8405   23.1794 C   0  0  0  0  0  0  0  0  0  0  0  0
    5.3257  -22.1511   23.7807 N   0  0  0  0  0  0  0  0  0  0  0  0
    8.5984  -15.5807   24.5571 C   0  0  0  0  0  0  0  0  0  0  0  0
    9.8112  -15.4924   24.7870 O   0  0  0  0  0  0  0  0  0  0  0  0
    6.9082  -11.8230   24.9443 C   0  0  0  0  0  0  0  0  0  0  0  0
    7.3669  -12.4487   26.2356 C   0  0  1  0  0  0  0  0  0  0  0  0
    6.1422  -12.9615   26.9603 C   0  0  0  0  0  0  0  0  0  0  0  0
    8.2865  -13.6119   26.0084 C   0  0  2  0  0  0  0  0  0  0  0  0
    7.7400  -14.6512   25.1921 N   0  0  0  0  0  0  0  0  0  0  0  0
    8.6229  -14.1924   27.3322 C   0  0  0  0  0  0  0  0  0  0  0  0
    8.2171  -15.3196   27.7228 O   0  0  0  0  0  0  0  0  0  0  0  0
    9.4343  -13.5021   28.2502 O   0  0  0  0  0  0  0  0  0  0  0  0
  2  1  1  1
  2  7  1  0
  3  4  1  0
  3  2  1  0
  4  5  1  0
  5  6  2  0
  5  9  1  0
  7  8  2  0
 10  7  1  0
 10 11  1  0
 11 17  1  0
 12 13  1  0
 11 12  1  1
 13 14  1  0
 14 15  1  0
 15 16  1  0
 17 18  2  0
 20 19  1  6
 20 22  1  0
 21 20  1  0
 22 24  1  0
 23 17  1  0
 22 23  1  6
 24 25  2  0
 24 26  1  0
M  END
$$$$
