EKV.pdb
     RDKit          3D

 26 25  0  0  1  0  0  0  0  0999 V2000
    9.7271  -17.1598   20.0534 N   0  0  0  0  0  0  0  0  0  0  0  0
    8.5077  -16.4140   20.1121 C   0  0  1  0  0  0  0  0  0  0  0  0
    7.4577  -16.7937   19.1343 C   0  0  0  0  0  0  0  0  0  0  0  0
    7.7523  -16.5957   17.6931 C   0  0  0  0  0  0  0  0  0  0  0  0
    6.7101  -16.9890   16.7376 C   0  0  0  0  0  0  0  0  0  0  0  0
    6.8045  -16.7931   15.5142 O   0  0  0  0  0  0  0  0  0  0  0  0
    7.9939  -16.3073   21.5050 C   0  0  0  0  0  0  0  0  0  0  0  0
    7.0154  -15.5453   21.7573 O   0  0  0  0  0  0  0  0  0  0  0  0
    5.5225  -17.6216   17.1542 O   0  0  0  0  0  0  0  0  0  0  0  0
    8.5411  -17.0216   22.5937 N   0  0  0  0  0  0  0  0  0  0  0  0
    8.0296  -16.9217   23.9675 C   0  0  1  0  0  0  0  0  0  0  0  0
    8.2424  -18.2042   24.6981 C   0  0  0  0  0  0  0  0  0  0  0  0
    7.7771  -18.1000   26.1181 C   0  0  0  0  0  0  0  0  0  0  0  0
    7.9878  -19.4147   26.8663 C   0  0  0  0  0  0  0  0  0  0  0  0
    7.6061  -19.2994   28.3125 C   0  0  0  0  0  0  0  0  0  0  0  0
    7.7428  -20.6099   28.9231 N   0  0  0  0  0  0  0  0  0  0  0  0
    8.5211  -15.7153   24.6309 C   0  0  0  0  0  0  0  0  0  0  0  0
    9.7219  -15.4187   24.6705 O   0  0  0  0  0  0  0  0  0  0  0  0
    6.7015  -12.1079   24.4060 C   0  0  0  0  0  0  0  0  0  0  0  0
    7.0805  -12.4919   25.8126 C   0  0  1  0  0  0  0  0  0  0  0  0
    5.8256  -12.9566   26.5179 C   0  0  0  0  0  0  0  0  0  0  0  0
    8.0705  -13.6183   25.8471 C   0  0  2  0  0  0  0  0  0  0  0  0
    7.6062  -14.8362   25.2585 N   0  0  0  0  0  0  0  0  0  0  0  0
    8.4036  -13.8891   27.2678 C   0  0  0  0  0  0  0  0  0  0  0  0
    8.1208  -14.9663   27.8573 O   0  0  0  0  0  0  0  0  0  0  0  0
    9.0709  -12.9365   28.0583 O   0  0  0  0  0  0  0  0  0  0  0  0
  2  1  1  1
  2  7  1  0
  3  4  1  0
  3  2  1  0
  4  5  1  0
  5  6  2  0
  5  9  1  0
  7  8  2  0
 10  7  1  0
 10 11  1  0
 11 17  1  0
 12 13  1  0
 11 12  1  1
 13 14  1  0
 14 15  1  0
 15 16  1  0
 17 18  2  0
 20 19  1  6
 20 22  1  0
 21 20  1  0
 22 24  1  0
 23 17  1  0
 22 23  1  1
 24 25  2  0
 24 26  1  0
M  END
$$$$
