EKV.pdb
     RDKit          3D

 26 25  0  0  1  0  0  0  0  0999 V2000
   11.5206  -16.0097   19.7985 N   0  0  0  0  0  0  0  0  0  0  0  0
   11.1890  -16.8416   20.9141 C   0  0  1  0  0  0  0  0  0  0  0  0
   12.2456  -17.7779   21.3724 C   0  0  0  0  0  0  0  0  0  0  0  0
   12.2409  -19.1521   20.8117 C   0  0  0  0  0  0  0  0  0  0  0  0
   13.2727  -20.0758   21.2976 C   0  0  0  0  0  0  0  0  0  0  0  0
   14.1746  -19.7324   22.0802 O   0  0  0  0  0  0  0  0  0  0  0  0
   10.5850  -16.0573   22.0256 C   0  0  0  0  0  0  0  0  0  0  0  0
   11.1085  -14.9601   22.3776 O   0  0  0  0  0  0  0  0  0  0  0  0
   13.3044  -21.4272   20.9012 O   0  0  0  0  0  0  0  0  0  0  0  0
    9.4330  -16.4681   22.7322 N   0  0  0  0  0  0  0  0  0  0  0  0
    8.8905  -15.7426   23.8890 C   0  0  1  0  0  0  0  0  0  0  0  0
    7.4046  -15.8627   23.9301 C   0  0  0  0  0  0  0  0  0  0  0  0
    6.8470  -15.2392   25.1727 C   0  0  0  0  0  0  0  0  0  0  0  0
    6.5246  -13.7626   24.9530 C   0  0  0  0  0  0  0  0  0  0  0  0
    5.9850  -13.1197   26.1965 C   0  0  0  0  0  0  0  0  0  0  0  0
    5.6114  -11.7538   25.8749 N   0  0  0  0  0  0  0  0  0  0  0  0
    9.5978  -16.0975   25.1181 C   0  0  0  0  0  0  0  0  0  0  0  0
   10.1760  -17.1818   25.2649 O   0  0  0  0  0  0  0  0  0  0  0  0
    9.2273  -13.7685   28.6866 C   0  0  0  0  0  0  0  0  0  0  0  0
   10.5839  -14.2906   28.2914 C   0  0  1  0  0  0  0  0  0  0  0  0
   11.2612  -14.8078   29.5411 C   0  0  0  0  0  0  0  0  0  0  0  0
   10.4938  -15.4256   27.3147 C   0  0  2  0  0  0  0  0  0  0  0  0
    9.6376  -15.1805   26.1957 N   0  0  0  0  0  0  0  0  0  0  0  0
    9.9769  -16.6121   28.0411 C   0  0  0  0  0  0  0  0  0  0  0  0
   10.6161  -17.2064   28.9501 O   0  0  0  0  0  0  0  0  0  0  0  0
    8.7128  -17.1556   27.7509 O   0  0  0  0  0  0  0  0  0  0  0  0
  2  1  1  6
  2  7  1  0
  3  4  1  0
  3  2  1  0
  4  5  1  0
  5  6  2  0
  5  9  1  0
  7  8  2  0
 10  7  1  0
 10 11  1  0
 11 17  1  0
 12 13  1  0
 11 12  1  1
 13 14  1  0
 14 15  1  0
 15 16  1  0
 17 18  2  0
 20 19  1  1
 20 22  1  0
 21 20  1  0
 22 24  1  0
 23 17  1  0
 22 23  1  6
 24 25  2  0
 24 26  1  0
M  END
$$$$
