KRL.pdb
     RDKit          3D

 29 28  0  0  1  0  0  0  0  0999 V2000
   26.2356  -21.5290  -16.7081 N   0  0  0  0  0  0  0  0  0  0  0  0
   27.0243  -21.7105  -15.5518 C   0  0  1  0  0  0  0  0  0  0  0  0
   28.4934  -21.5949  -15.8611 C   0  0  0  0  0  0  0  0  0  0  0  0
   29.1129  -22.7994  -16.4607 C   0  0  0  0  0  0  0  0  0  0  0  0
   30.3356  -23.3614  -15.8572 C   0  0  0  0  0  0  0  0  0  0  0  0
   31.3824  -23.8793  -16.7815 C   0  0  0  0  0  0  0  0  0  0  0  0
   30.9470  -24.8554  -17.7201 N   0  0  0  0  0  0  0  0  0  0  0  0
   26.6003  -20.7852  -14.4829 C   0  0  0  0  0  0  0  0  0  0  0  0
   26.4742  -19.5418  -14.6651 O   0  0  0  0  0  0  0  0  0  0  0  0
   22.1161  -22.5372  -15.4552 N   0  0  0  0  0  0  0  0  0  0  0  0
   21.1713  -22.5563  -14.4098 C   0  0  0  0  0  0  0  0  0  0  0  0
   20.4634  -23.5982  -14.1478 N   0  0  0  0  0  0  0  0  0  0  0  0
   20.9881  -21.3768  -13.6074 N   0  0  0  0  0  0  0  0  0  0  0  0
   22.0007  -20.3917  -13.4250 C   0  0  0  0  0  0  0  0  0  0  0  0
   23.3121  -20.9573  -12.9270 C   0  0  0  0  0  0  0  0  0  0  0  0
   24.3385  -19.8988  -12.6970 C   0  0  0  0  0  0  0  0  0  0  0  0
   25.6422  -20.3926  -12.1873 C   0  0  2  0  0  0  0  0  0  0  0  0
   26.3061  -21.2425  -13.1767 N   0  0  0  0  0  0  0  0  0  0  0  0
   25.5865  -21.0980  -10.8664 C   0  0  0  0  0  0  0  0  0  0  0  0
   25.2775  -22.3108  -10.8003 O   0  0  0  0  0  0  0  0  0  0  0  0
   19.7576  -23.5260  -13.3579 C   0  0  0  0  0  0  0  0  0  0  0  0
   28.8579  -20.8661   -7.5756 C   0  0  1  0  0  0  0  0  0  0  0  0
   27.8520  -19.7905   -7.6021 C   0  0  0  0  0  0  0  0  0  0  0  0
   28.3117  -18.6746   -6.6466 C   0  0  0  0  0  0  0  0  0  0  0  0
   26.4400  -20.1323   -7.3799 C   0  0  2  0  0  0  0  0  0  0  0  0
   25.7422  -21.0137   -8.3272 N   0  0  0  0  0  0  0  0  0  0  0  0
   25.8864  -20.4016   -9.6788 C   0  0  0  0  0  0  0  0  0  0  0  0
   24.3014  -21.1786   -8.1091 O   0  0  0  0  0  0  0  0  0  0  0  0
   23.3679  -20.6603   -8.7698 O   0  0  0  0  0  0  0  0  0  0  0  0
  2  1  1  6
  3  2  1  0
  4  5  1  0
  4  3  1  0
  6  7  1  0
  6  5  1  0
  8  9  2  0
  8  2  1  0
 11 10  1  0
 12 11  2  0
 13 11  1  0
 14 13  1  0
 15 14  1  0
 16 15  1  0
 17 16  1  6
 17 18  1  0
 18  8  1  0
 19 17  1  0
 19 26  1  0
 20 19  2  0
 22 21  1  6
 22 24  1  0
 23 22  1  0
 25 24  1  6
 25 26  1  0
 25 27  1  0
 27 29  1  0
 28 27  2  0
M  END
$$$$
