KRL.pdb
     RDKit          3D

 29 28  0  0  1  0  0  0  0  0999 V2000
   21.0441  -19.2293  -14.1956 N   0  0  0  0  0  0  0  0  0  0  0  0
   20.8513  -20.1067  -13.1070 C   0  0  1  0  0  0  0  0  0  0  0  0
   19.6972  -21.0429  -13.3495 C   0  0  0  0  0  0  0  0  0  0  0  0
   18.8806  -20.7471  -14.5494 C   0  0  0  0  0  0  0  0  0  0  0  0
   18.3928  -19.3733  -14.7726 C   0  0  0  0  0  0  0  0  0  0  0  0
   17.5737  -19.1247  -15.9915 C   0  0  0  0  0  0  0  0  0  0  0  0
   17.1219  -17.7874  -16.1676 N   0  0  0  0  0  0  0  0  0  0  0  0
   22.1011  -20.8251  -12.7906 C   0  0  0  0  0  0  0  0  0  0  0  0
   22.2508  -21.5055  -11.7371 O   0  0  0  0  0  0  0  0  0  0  0  0
   28.0277  -24.5014  -18.2122 N   0  0  0  0  0  0  0  0  0  0  0  0
   27.0307  -24.6473  -17.2270 C   0  0  0  0  0  0  0  0  0  0  0  0
   26.5539  -25.7975  -16.9028 N   0  0  0  0  0  0  0  0  0  0  0  0
   26.5263  -23.4772  -16.5598 N   0  0  0  0  0  0  0  0  0  0  0  0
   27.2962  -22.7115  -15.6378 C   0  0  0  0  0  0  0  0  0  0  0  0
   26.5703  -22.4138  -14.3446 C   0  0  0  0  0  0  0  0  0  0  0  0
   25.2109  -21.8421  -14.5729 C   0  0  0  0  0  0  0  0  0  0  0  0
   24.4706  -21.4784  -13.3388 C   0  0  2  0  0  0  0  0  0  0  0  0
   23.2174  -20.7939  -13.6594 N   0  0  0  0  0  0  0  0  0  0  0  0
   25.2477  -20.6755  -12.3403 C   0  0  0  0  0  0  0  0  0  0  0  0
   24.8639  -19.5320  -11.9998 O   0  0  0  0  0  0  0  0  0  0  0  0
   25.8107  -25.8247  -16.1450 C   0  0  0  0  0  0  0  0  0  0  0  0
   28.0959  -20.1026   -7.8259 C   0  0  1  0  0  0  0  0  0  0  0  0
   26.7362  -19.7763   -8.2888 C   0  0  0  0  0  0  0  0  0  0  0  0
   25.7536  -20.0524   -7.1365 C   0  0  0  0  0  0  0  0  0  0  0  0
   26.2551  -20.3598   -9.5489 C   0  0  1  0  0  0  0  0  0  0  0  0
   27.1749  -20.5059  -10.6863 N   0  0  0  0  0  0  0  0  0  0  0  0
   26.4224  -21.2026  -11.7682 C   0  0  0  0  0  0  0  0  0  0  0  0
   28.3745  -21.3135  -10.4426 O   0  0  0  0  0  0  0  0  0  0  0  0
   28.4653  -22.5657  -10.4631 O   0  0  0  0  0  0  0  0  0  0  0  0
  2  1  1  6
  3  2  1  0
  4  5  1  0
  4  3  1  0
  6  7  1  0
  6  5  1  0
  8  9  2  0
  8  2  1  0
 11 10  1  0
 12 11  2  0
 13 11  1  0
 14 13  1  0
 15 14  1  0
 16 15  1  0
 17 16  1  6
 17 18  1  0
 18  8  1  0
 19 17  1  0
 19 26  1  0
 20 19  2  0
 22 21  1  1
 22 24  1  0
 23 22  1  0
 25 24  1  6
 25 26  1  0
 25 27  1  0
 27 29  1  0
 28 27  2  0
M  END
$$$$
