KRL.pdb
     RDKit          3D

 29 28  0  0  1  0  0  0  0  0999 V2000
   24.6565  -20.7318  -18.8071 N   0  0  0  0  0  0  0  0  0  0  0  0
   24.6543  -19.8742  -17.6862 C   0  0  1  0  0  0  0  0  0  0  0  0
   23.7668  -18.6780  -17.9073 C   0  0  0  0  0  0  0  0  0  0  0  0
   24.4719  -17.4125  -18.2165 C   0  0  0  0  0  0  0  0  0  0  0  0
   24.8280  -17.1048  -19.6142 C   0  0  0  0  0  0  0  0  0  0  0  0
   25.5934  -15.8527  -19.8685 C   0  0  0  0  0  0  0  0  0  0  0  0
   26.0127  -15.6493  -21.2124 N   0  0  0  0  0  0  0  0  0  0  0  0
   24.2993  -20.6190  -16.4625 C   0  0  0  0  0  0  0  0  0  0  0  0
   23.3107  -21.4027  -16.4016 O   0  0  0  0  0  0  0  0  0  0  0  0
   29.0746  -22.3029  -10.2526 N   0  0  0  0  0  0  0  0  0  0  0  0
   28.8331  -21.0982  -10.9426 C   0  0  0  0  0  0  0  0  0  0  0  0
   29.7811  -20.4240  -11.4925 N   0  0  0  0  0  0  0  0  0  0  0  0
   27.4867  -20.6017  -11.0384 N   0  0  0  0  0  0  0  0  0  0  0  0
   26.3501  -21.3370  -10.5949 C   0  0  0  0  0  0  0  0  0  0  0  0
   25.2055  -21.3356  -11.5837 C   0  0  0  0  0  0  0  0  0  0  0  0
   25.6450  -20.9757  -12.9636 C   0  0  0  0  0  0  0  0  0  0  0  0
   24.5746  -21.0168  -13.9911 C   0  0  2  0  0  0  0  0  0  0  0  0
   25.0550  -20.4979  -15.2725 N   0  0  0  0  0  0  0  0  0  0  0  0
   23.2973  -20.3313  -13.6115 C   0  0  0  0  0  0  0  0  0  0  0  0
   23.2214  -19.0803  -13.5971 O   0  0  0  0  0  0  0  0  0  0  0  0
   29.5128  -19.5481  -12.0292 C   0  0  0  0  0  0  0  0  0  0  0  0
   19.8922  -17.6276  -14.0504 C   0  0  2  0  0  0  0  0  0  0  0  0
   20.5359  -18.6508  -14.8919 C   0  0  0  0  0  0  0  0  0  0  0  0
   20.0967  -18.4246  -16.3498 C   0  0  0  0  0  0  0  0  0  0  0  0
   20.4105  -20.0650  -14.5124 C   0  0  2  0  0  0  0  0  0  0  0  0
   20.7976  -20.4978  -13.1618 N   0  0  0  0  0  0  0  0  0  0  0  0
   22.1612  -21.0906  -13.2685 C   0  0  0  0  0  0  0  0  0  0  0  0
   19.9536  -21.5305  -12.5518 O   0  0  0  0  0  0  0  0  0  0  0  0
   18.9458  -21.3566  -11.8233 O   0  0  0  0  0  0  0  0  0  0  0  0
  2  1  1  6
  3  2  1  0
  4  5  1  0
  4  3  1  0
  6  7  1  0
  6  5  1  0
  8  9  2  0
  8  2  1  0
 11 10  1  0
 12 11  2  0
 13 11  1  0
 14 13  1  0
 15 14  1  0
 16 15  1  0
 17 16  1  1
 17 18  1  0
 18  8  1  0
 19 17  1  0
 19 26  1  0
 20 19  2  0
 22 21  1  6
 22 24  1  0
 23 22  1  0
 25 24  1  1
 25 26  1  0
 25 27  1  0
 27 29  1  0
 28 27  2  0
M  END
$$$$
