KRL.pdb
     RDKit          3D

 29 28  0  0  1  0  0  0  0  0999 V2000
   20.7447  -19.3868  -17.1566 N   0  0  0  0  0  0  0  0  0  0  0  0
   21.4249  -18.7650  -16.0876 C   0  0  1  0  0  0  0  0  0  0  0  0
   20.4725  -18.0424  -15.1721 C   0  0  0  0  0  0  0  0  0  0  0  0
   19.2651  -17.4845  -15.8239 C   0  0  0  0  0  0  0  0  0  0  0  0
   18.8785  -16.0866  -15.5567 C   0  0  0  0  0  0  0  0  0  0  0  0
   17.4298  -15.7992  -15.3642 C   0  0  0  0  0  0  0  0  0  0  0  0
   16.6396  -15.7984  -16.5470 N   0  0  0  0  0  0  0  0  0  0  0  0
   22.2649  -19.7418  -15.3676 C   0  0  0  0  0  0  0  0  0  0  0  0
   21.7878  -20.7558  -14.7851 O   0  0  0  0  0  0  0  0  0  0  0  0
   30.0189  -22.7438  -17.2298 N   0  0  0  0  0  0  0  0  0  0  0  0
   28.6685  -22.8546  -17.6173 C   0  0  0  0  0  0  0  0  0  0  0  0
   28.3256  -23.2279  -18.7999 N   0  0  0  0  0  0  0  0  0  0  0  0
   27.6370  -22.5417  -16.6651 N   0  0  0  0  0  0  0  0  0  0  0  0
   27.9073  -22.1108  -15.3346 C   0  0  0  0  0  0  0  0  0  0  0  0
   26.6619  -21.7986  -14.5351 C   0  0  0  0  0  0  0  0  0  0  0  0
   25.7427  -20.8674  -15.2528 C   0  0  0  0  0  0  0  0  0  0  0  0
   24.5025  -20.5211  -14.5145 C   0  0  2  0  0  0  0  0  0  0  0  0
   23.6702  -19.5983  -15.2875 N   0  0  0  0  0  0  0  0  0  0  0  0
   24.7109  -19.9816  -13.1320 C   0  0  0  0  0  0  0  0  0  0  0  0
   25.0805  -18.7971  -12.9557 O   0  0  0  0  0  0  0  0  0  0  0  0
   27.2875  -23.3160  -19.0049 C   0  0  0  0  0  0  0  0  0  0  0  0
   21.7945  -19.0988  -10.0250 C   0  0  2  0  0  0  0  0  0  0  0  0
   22.1760  -20.5191  -10.1066 C   0  0  0  0  0  0  0  0  0  0  0  0
   21.1874  -21.3353   -9.2545 C   0  0  0  0  0  0  0  0  0  0  0  0
   23.5660  -20.8993   -9.8184 C   0  0  2  0  0  0  0  0  0  0  0  0
   24.6621  -20.3224  -10.6101 N   0  0  0  0  0  0  0  0  0  0  0  0
   24.4887  -20.8043  -12.0101 C   0  0  0  0  0  0  0  0  0  0  0  0
   26.0178  -20.7150  -10.2118 O   0  0  0  0  0  0  0  0  0  0  0  0
   26.7661  -21.5483  -10.7796 O   0  0  0  0  0  0  0  0  0  0  0  0
  2  1  1  6
  3  2  1  0
  4  5  1  0
  4  3  1  0
  6  7  1  0
  6  5  1  0
  8  9  2  0
  8  2  1  0
 11 10  1  0
 12 11  2  0
 13 11  1  0
 14 13  1  0
 15 14  1  0
 16 15  1  0
 17 16  1  6
 17 18  1  0
 18  8  1  0
 19 17  1  0
 19 26  1  0
 20 19  2  0
 22 21  1  6
 22 24  1  0
 23 22  1  0
 25 24  1  6
 25 26  1  0
 25 27  1  0
 27 29  1  0
 28 27  2  0
M  END
$$$$
