KRL.pdb
     RDKit          3D

 29 28  0  0  1  0  0  0  0  0999 V2000
   26.9858  -25.7454  -16.7294 N   0  0  0  0  0  0  0  0  0  0  0  0
   25.8022  -24.9867  -16.8535 C   0  0  1  0  0  0  0  0  0  0  0  0
   24.5766  -25.8582  -16.7786 C   0  0  0  0  0  0  0  0  0  0  0  0
   24.7768  -27.2712  -17.1754 C   0  0  0  0  0  0  0  0  0  0  0  0
   23.6186  -28.1834  -17.2146 C   0  0  0  0  0  0  0  0  0  0  0  0
   23.8671  -29.5918  -17.6306 C   0  0  0  0  0  0  0  0  0  0  0  0
   24.6750  -30.3612  -16.7481 N   0  0  0  0  0  0  0  0  0  0  0  0
   25.7777  -23.8954  -15.8601 C   0  0  0  0  0  0  0  0  0  0  0  0
   26.1864  -24.0411  -14.6740 O   0  0  0  0  0  0  0  0  0  0  0  0
   28.7423  -18.1857  -17.0844 N   0  0  0  0  0  0  0  0  0  0  0  0
   28.1524  -18.0958  -18.3610 C   0  0  0  0  0  0  0  0  0  0  0  0
   28.8482  -17.8799  -19.4215 N   0  0  0  0  0  0  0  0  0  0  0  0
   26.7280  -18.2493  -18.4886 N   0  0  0  0  0  0  0  0  0  0  0  0
   25.8692  -18.5136  -17.3832 C   0  0  0  0  0  0  0  0  0  0  0  0
   26.0294  -19.9049  -16.8119 C   0  0  0  0  0  0  0  0  0  0  0  0
   24.9858  -20.2269  -15.7950 C   0  0  0  0  0  0  0  0  0  0  0  0
   25.1161  -21.5662  -15.1684 C   0  0  2  0  0  0  0  0  0  0  0  0
   25.2899  -22.6070  -16.1824 N   0  0  0  0  0  0  0  0  0  0  0  0
   24.0070  -21.9458  -14.2349 C   0  0  0  0  0  0  0  0  0  0  0  0
   23.7524  -23.1501  -13.9989 O   0  0  0  0  0  0  0  0  0  0  0  0
   28.3270  -17.8038  -20.3434 C   0  0  0  0  0  0  0  0  0  0  0  0
   25.9510  -19.6334   -9.7574 C   0  0  1  0  0  0  0  0  0  0  0  0
   24.7760  -20.4012  -10.2039 C   0  0  0  0  0  0  0  0  0  0  0  0
   24.8056  -21.7764   -9.5127 C   0  0  0  0  0  0  0  0  0  0  0  0
   24.5206  -20.5359  -11.6449 C   0  0  2  0  0  0  0  0  0  0  0  0
   23.1571  -20.8037  -12.1249 N   0  0  0  0  0  0  0  0  0  0  0  0
   23.2373  -20.9469  -13.6066 C   0  0  0  0  0  0  0  0  0  0  0  0
   22.1689  -19.7499  -11.8728 O   0  0  0  0  0  0  0  0  0  0  0  0
   22.1182  -18.6124  -12.4022 O   0  0  0  0  0  0  0  0  0  0  0  0
  2  1  1  1
  3  2  1  0
  4  5  1  0
  4  3  1  0
  6  7  1  0
  6  5  1  0
  8  9  2  0
  8  2  1  0
 11 10  1  0
 12 11  2  0
 13 11  1  0
 14 13  1  0
 15 14  1  0
 16 15  1  0
 17 16  1  6
 17 18  1  0
 18  8  1  0
 19 17  1  0
 19 26  1  0
 20 19  2  0
 22 21  1  1
 22 24  1  0
 23 22  1  0
 25 24  1  1
 25 26  1  0
 25 27  1  0
 27 29  1  0
 28 27  2  0
M  END
$$$$
