KRL.pdb
     RDKit          3D

 29 28  0  0  1  0  0  0  0  0999 V2000
   25.1368  -16.0751  -20.2798 N   0  0  0  0  0  0  0  0  0  0  0  0
   24.7680  -15.6994  -18.9703 C   0  0  1  0  0  0  0  0  0  0  0  0
   23.5165  -14.8621  -18.9673 C   0  0  0  0  0  0  0  0  0  0  0  0
   23.6834  -13.4688  -19.4415 C   0  0  0  0  0  0  0  0  0  0  0  0
   23.8967  -12.3900  -18.4587 C   0  0  0  0  0  0  0  0  0  0  0  0
   23.8781  -10.9884  -18.9622 C   0  0  0  0  0  0  0  0  0  0  0  0
   23.8952   -9.9752  -17.9639 N   0  0  0  0  0  0  0  0  0  0  0  0
   24.6518  -16.8871  -18.1019 C   0  0  0  0  0  0  0  0  0  0  0  0
   23.9555  -17.8945  -18.4107 O   0  0  0  0  0  0  0  0  0  0  0  0
   26.1611  -20.1107  -10.3404 N   0  0  0  0  0  0  0  0  0  0  0  0
   26.3435  -20.9312  -11.4715 C   0  0  0  0  0  0  0  0  0  0  0  0
   25.5646  -21.9224  -11.7292 N   0  0  0  0  0  0  0  0  0  0  0  0
   27.4328  -20.6568  -12.3696 N   0  0  0  0  0  0  0  0  0  0  0  0
   27.4634  -19.5280  -13.2379 C   0  0  0  0  0  0  0  0  0  0  0  0
   26.1980  -19.3536  -14.0480 C   0  0  0  0  0  0  0  0  0  0  0  0
   26.2945  -18.2250  -15.0195 C   0  0  0  0  0  0  0  0  0  0  0  0
   25.1478  -18.1055  -15.9545 C   0  0  2  0  0  0  0  0  0  0  0  0
   25.3224  -16.9680  -16.8586 N   0  0  0  0  0  0  0  0  0  0  0  0
   23.7986  -18.0375  -15.3061 C   0  0  0  0  0  0  0  0  0  0  0  0
   23.3350  -16.9443  -14.9050 O   0  0  0  0  0  0  0  0  0  0  0  0
   25.7922  -22.5174  -12.5786 C   0  0  0  0  0  0  0  0  0  0  0  0
   18.6079  -18.3266  -16.8219 C   0  0  1  0  0  0  0  0  0  0  0  0
   19.4304  -18.1798  -15.6089 C   0  0  0  0  0  0  0  0  0  0  0  0
   19.0715  -16.8405  -14.9403 C   0  0  0  0  0  0  0  0  0  0  0  0
   20.8865  -18.3488  -15.7127 C   0  0  2  0  0  0  0  0  0  0  0  0
   21.5986  -19.1823  -14.7332 N   0  0  0  0  0  0  0  0  0  0  0  0
   23.0316  -19.2081  -15.1433 C   0  0  0  0  0  0  0  0  0  0  0  0
   21.1748  -20.5840  -14.6541 O   0  0  0  0  0  0  0  0  0  0  0  0
   21.6252  -21.5532  -15.3133 O   0  0  0  0  0  0  0  0  0  0  0  0
  2  1  1  6
  3  2  1  0
  4  5  1  0
  4  3  1  0
  6  7  1  0
  6  5  1  0
  8  9  2  0
  8  2  1  0
 11 10  1  0
 12 11  2  0
 13 11  1  0
 14 13  1  0
 15 14  1  0
 16 15  1  0
 17 16  1  1
 17 18  1  0
 18  8  1  0
 19 17  1  0
 19 26  1  0
 20 19  2  0
 22 21  1  1
 22 24  1  0
 23 22  1  0
 25 24  1  1
 25 26  1  0
 25 27  1  0
 27 29  1  0
 28 27  2  0
M  END
$$$$
