LYC.pdb
     RDKit          3D

 27 27  0  0  1  0  0  0  0  0999 V2000
    7.8109  -12.8824   17.9525 C   0  0  0  0  0  0  0  0  0  0  0  0
    8.1244  -14.2432   18.5376 C   0  0  1  0  0  0  0  0  0  0  0  0
    8.1141  -15.2411   17.3754 C   0  0  0  0  0  0  0  0  0  0  0  0
    9.4911  -14.3054   19.1401 C   0  0  0  0  0  0  0  0  0  0  0  0
    9.6864  -15.4045   20.1352 C   0  0  2  0  0  0  0  0  0  0  0  0
    8.5311  -16.3070   20.0070 N   0  0  0  0  0  0  0  0  0  0  0  0
    9.7068  -14.9584   21.5432 C   0  0  0  0  0  0  0  0  0  0  0  0
   10.7313  -14.3048   21.9279 O   0  0  0  0  0  0  0  0  0  0  0  0
    6.4986  -11.5691   29.0686 O   0  0  0  0  0  0  0  0  0  0  0  0
    6.6690  -12.2496   27.8582 C   0  0  0  0  0  0  0  0  0  0  0  0
    6.1091  -13.4708   27.5980 C   0  0  0  0  0  0  0  0  0  0  0  0
    6.3151  -14.1039   26.3668 C   0  0  0  0  0  0  0  0  0  0  0  0
    7.0839  -13.5145   25.3911 C   0  0  0  0  0  0  0  0  0  0  0  0
    7.3268  -14.1418   24.0853 C   0  0  0  0  0  0  0  0  0  0  0  0
    8.6913  -14.6940   23.8472 C   0  0  2  0  0  0  0  0  0  0  0  0
    8.6532  -15.2244   22.4610 N   0  0  0  0  0  0  0  0  0  0  0  0
    9.0959  -15.8135   24.7071 C   0  0  0  0  0  0  0  0  0  0  0  0
    8.9414  -15.6876   25.9632 O   0  0  0  0  0  0  0  0  0  0  0  0
    7.6331  -12.2816   25.6890 C   0  0  0  0  0  0  0  0  0  0  0  0
    7.4423  -11.6415   26.8951 C   0  0  0  0  0  0  0  0  0  0  0  0
    9.6467  -17.0406   24.2486 N   0  0  0  0  0  0  0  0  0  0  0  0
    9.9769  -18.0721   25.1817 C   0  0  1  0  0  0  0  0  0  0  0  0
    9.5804  -19.4523   24.6581 C   0  0  0  0  0  0  0  0  0  0  0  0
   10.4343  -19.8054   23.0966 S   0  0  0  0  0  0  0  0  0  0  0  0
   11.3868  -18.0955   25.5837 C   0  0  0  0  0  0  0  0  0  0  0  0
   11.8881  -18.8856   26.5969 O   0  0  0  0  0  0  0  0  0  0  0  0
   12.2270  -17.3589   24.9883 O   0  0  0  0  0  0  0  0  0  0  0  0
  2  1  1  6
  3  2  1  0
  4  5  1  0
  4  2  1  0
  5  6  1  1
  7  5  1  0
  7  8  2  0
  9 10  1  0
 10 11  2  0
 11 12  1  0
 13 12  2  0
 13 14  1  0
 15 14  1  1
 15 16  1  0
 16  7  1  0
 17 15  1  0
 18 17  2  0
 19 13  1  0
 20 10  1  0
 20 19  2  0
 21 17  1  0
 22 21  1  0
 22 25  1  0
 22 23  1  6
 24 23  1  0
 25 26  1  0
 27 25  2  0
M  END
$$$$
