LYC.pdb
     RDKit          3D

 27 27  0  0  1  0  0  0  0  0999 V2000
    7.2487  -12.1390   19.8013 C   0  0  0  0  0  0  0  0  0  0  0  0
    7.3057  -13.6113   19.4530 C   0  0  1  0  0  0  0  0  0  0  0  0
    8.1910  -13.7413   18.2097 C   0  0  0  0  0  0  0  0  0  0  0  0
    7.9540  -14.4276   20.5245 C   0  0  0  0  0  0  0  0  0  0  0  0
    8.0020  -15.8967   20.2489 C   0  0  2  0  0  0  0  0  0  0  0  0
    6.6176  -16.3301   20.0013 N   0  0  0  0  0  0  0  0  0  0  0  0
    8.4949  -16.7147   21.3757 C   0  0  0  0  0  0  0  0  0  0  0  0
    7.8864  -16.5918   22.4890 O   0  0  0  0  0  0  0  0  0  0  0  0
    3.9860  -20.8131   21.9493 O   0  0  0  0  0  0  0  0  0  0  0  0
    5.3606  -20.5682   22.0386 C   0  0  0  0  0  0  0  0  0  0  0  0
    6.0171  -20.3965   23.2269 C   0  0  0  0  0  0  0  0  0  0  0  0
    7.3953  -20.1539   23.2535 C   0  0  0  0  0  0  0  0  0  0  0  0
    8.1210  -20.0825   22.0879 C   0  0  0  0  0  0  0  0  0  0  0  0
    9.5680  -19.8302   22.0681 C   0  0  0  0  0  0  0  0  0  0  0  0
   10.0156  -18.4511   22.4160 C   0  0  2  0  0  0  0  0  0  0  0  0
    9.5944  -17.6106   21.2668 N   0  0  0  0  0  0  0  0  0  0  0  0
   11.4640  -18.2574   22.5605 C   0  0  0  0  0  0  0  0  0  0  0  0
   12.1286  -17.9301   21.5268 O   0  0  0  0  0  0  0  0  0  0  0  0
    7.4248  -20.2608   20.9072 C   0  0  0  0  0  0  0  0  0  0  0  0
    6.0680  -20.5006   20.8595 C   0  0  0  0  0  0  0  0  0  0  0  0
   12.1925  -18.4016   23.7721 N   0  0  0  0  0  0  0  0  0  0  0  0
   13.5093  -17.8571   23.8868 C   0  0  1  0  0  0  0  0  0  0  0  0
   13.5077  -16.3389   23.7090 C   0  0  0  0  0  0  0  0  0  0  0  0
   15.1665  -15.6659   24.0053 S   0  0  0  0  0  0  0  0  0  0  0  0
   14.1972  -18.1955   25.1367 C   0  0  0  0  0  0  0  0  0  0  0  0
   13.5654  -18.7008   26.2537 O   0  0  0  0  0  0  0  0  0  0  0  0
   15.4482  -18.0274   25.2363 O   0  0  0  0  0  0  0  0  0  0  0  0
  2  1  1  1
  3  2  1  0
  4  5  1  0
  4  2  1  0
  5  6  1  1
  7  5  1  0
  7  8  2  0
  9 10  1  0
 10 11  2  0
 11 12  1  0
 13 12  2  0
 13 14  1  0
 15 14  1  6
 15 16  1  0
 16  7  1  0
 17 15  1  0
 18 17  2  0
 19 13  1  0
 20 10  1  0
 20 19  2  0
 21 17  1  0
 22 21  1  0
 22 25  1  0
 22 23  1  1
 24 23  1  0
 25 26  1  0
 27 25  2  0
M  END
$$$$
