LYC.pdb
     RDKit          3D

 27 27  0  0  1  0  0  0  0  0999 V2000
    1.1002  -19.5717   19.9555 C   0  0  0  0  0  0  0  0  0  0  0  0
    2.6053  -19.5934   20.1192 C   0  0  1  0  0  0  0  0  0  0  0  0
    3.1663  -18.4786   19.2309 C   0  0  0  0  0  0  0  0  0  0  0  0
    3.0328  -19.2798   21.5169 C   0  0  0  0  0  0  0  0  0  0  0  0
    4.5016  -19.4113   21.7660 C   0  0  2  0  0  0  0  0  0  0  0  0
    5.0388  -20.2775   20.7045 N   0  0  0  0  0  0  0  0  0  0  0  0
    4.8491  -20.0629   23.0452 C   0  0  0  0  0  0  0  0  0  0  0  0
    4.4227  -19.5088   24.1110 O   0  0  0  0  0  0  0  0  0  0  0  0
    7.2132  -26.5163   28.7530 O   0  0  0  0  0  0  0  0  0  0  0  0
    6.7849  -25.6855   27.7120 C   0  0  0  0  0  0  0  0  0  0  0  0
    5.7509  -24.7979   27.8365 C   0  0  0  0  0  0  0  0  0  0  0  0
    5.3670  -23.9919   26.7585 C   0  0  0  0  0  0  0  0  0  0  0  0
    6.0190  -24.0728   25.5507 C   0  0  0  0  0  0  0  0  0  0  0  0
    5.6505  -23.2470   24.3931 C   0  0  0  0  0  0  0  0  0  0  0  0
    6.0376  -21.8079   24.4424 C   0  0  2  0  0  0  0  0  0  0  0  0
    5.6217  -21.2544   23.1291 N   0  0  0  0  0  0  0  0  0  0  0  0
    7.4732  -21.5276   24.5730 C   0  0  0  0  0  0  0  0  0  0  0  0
    8.0690  -21.9388   25.6187 O   0  0  0  0  0  0  0  0  0  0  0  0
    7.0580  -24.9801   25.4617 C   0  0  0  0  0  0  0  0  0  0  0  0
    7.4515  -25.7828   26.5113 C   0  0  0  0  0  0  0  0  0  0  0  0
    8.2620  -20.8326   23.6169 N   0  0  0  0  0  0  0  0  0  0  0  0
    9.6435  -20.5739   23.8782 C   0  0  1  0  0  0  0  0  0  0  0  0
    9.8722  -20.1520   25.3295 C   0  0  0  0  0  0  0  0  0  0  0  0
   11.6298  -19.8059   25.6178 S   0  0  0  0  0  0  0  0  0  0  0  0
   10.5396  -21.6880   23.5530 C   0  0  0  0  0  0  0  0  0  0  0  0
   11.9057  -21.5638   23.4091 O   0  0  0  0  0  0  0  0  0  0  0  0
   10.0685  -22.8512   23.3859 O   0  0  0  0  0  0  0  0  0  0  0  0
  2  1  1  1
  3  2  1  0
  4  5  1  0
  4  2  1  0
  5  6  1  6
  7  5  1  0
  7  8  2  0
  9 10  1  0
 10 11  2  0
 11 12  1  0
 13 12  2  0
 13 14  1  0
 15 14  1  6
 15 16  1  0
 16  7  1  0
 17 15  1  0
 18 17  2  0
 19 13  1  0
 20 10  1  0
 20 19  2  0
 21 17  1  0
 22 21  1  0
 22 25  1  0
 22 23  1  1
 24 23  1  0
 25 26  1  0
 27 25  2  0
M  END
$$$$
