LYC.pdb
     RDKit          3D

 27 27  0  0  1  0  0  0  0  0999 V2000
    7.4530  -12.7045   18.4845 C   0  0  0  0  0  0  0  0  0  0  0  0
    8.1890  -13.9475   18.9382 C   0  0  1  0  0  0  0  0  0  0  0  0
    9.5697  -13.4955   19.4239 C   0  0  0  0  0  0  0  0  0  0  0  0
    7.5253  -14.6124   20.1010 C   0  0  0  0  0  0  0  0  0  0  0  0
    8.2941  -15.7501   20.6933 C   0  0  2  0  0  0  0  0  0  0  0  0
    7.7101  -16.9877   20.1521 N   0  0  0  0  0  0  0  0  0  0  0  0
    8.1949  -15.8559   22.1632 C   0  0  0  0  0  0  0  0  0  0  0  0
    7.0806  -16.2498   22.6408 O   0  0  0  0  0  0  0  0  0  0  0  0
   11.0653  -16.0016   30.6724 O   0  0  0  0  0  0  0  0  0  0  0  0
   10.9058  -16.0582   29.2836 C   0  0  0  0  0  0  0  0  0  0  0  0
   10.6881  -17.2233   28.5996 C   0  0  0  0  0  0  0  0  0  0  0  0
   10.5359  -17.2176   27.2083 C   0  0  0  0  0  0  0  0  0  0  0  0
   10.6015  -16.0429   26.4969 C   0  0  0  0  0  0  0  0  0  0  0  0
   10.4476  -15.9895   25.0370 C   0  0  0  0  0  0  0  0  0  0  0  0
    9.1011  -15.6181   24.5153 C   0  0  2  0  0  0  0  0  0  0  0  0
    9.2687  -15.5428   23.0420 N   0  0  0  0  0  0  0  0  0  0  0  0
    8.5799  -14.3123   24.9391 C   0  0  0  0  0  0  0  0  0  0  0  0
    8.6551  -13.3443   24.1176 O   0  0  0  0  0  0  0  0  0  0  0  0
   10.8225  -14.8863   27.2208 C   0  0  0  0  0  0  0  0  0  0  0  0
   10.9750  -14.8705   28.5909 C   0  0  0  0  0  0  0  0  0  0  0  0
    7.9879  -14.0374   26.2014 N   0  0  0  0  0  0  0  0  0  0  0  0
    7.3507  -12.7795   26.4365 C   0  0  1  0  0  0  0  0  0  0  0  0
    6.2352  -12.5163   25.4252 C   0  0  0  0  0  0  0  0  0  0  0  0
    5.3068  -11.0257   25.8817 S   0  0  0  0  0  0  0  0  0  0  0  0
    6.8203  -12.6143   27.7935 C   0  0  0  0  0  0  0  0  0  0  0  0
    6.7331  -13.6339   28.7181 O   0  0  0  0  0  0  0  0  0  0  0  0
    6.4064  -11.4811   28.1777 O   0  0  0  0  0  0  0  0  0  0  0  0
  2  1  1  1
  3  2  1  0
  4  5  1  0
  4  2  1  0
  5  6  1  6
  7  5  1  0
  7  8  2  0
  9 10  1  0
 10 11  2  0
 11 12  1  0
 13 12  2  0
 13 14  1  0
 15 14  1  1
 15 16  1  0
 16  7  1  0
 17 15  1  0
 18 17  2  0
 19 13  1  0
 20 10  1  0
 20 19  2  0
 21 17  1  0
 22 21  1  0
 22 25  1  0
 22 23  1  6
 24 23  1  0
 25 26  1  0
 27 25  2  0
M  END
$$$$
