LYC.pdb
     RDKit          3D

 27 27  0  0  1  0  0  0  0  0999 V2000
    2.8110  -18.4175   20.4543 C   0  0  0  0  0  0  0  0  0  0  0  0
    3.7630  -18.7778   21.5752 C   0  0  1  0  0  0  0  0  0  0  0  0
    3.7144  -20.3012   21.7288 C   0  0  0  0  0  0  0  0  0  0  0  0
    5.1806  -18.4270   21.2561 C   0  0  0  0  0  0  0  0  0  0  0  0
    6.1546  -18.6946   22.3590 C   0  0  2  0  0  0  0  0  0  0  0  0
    5.5027  -18.2846   23.6131 N   0  0  0  0  0  0  0  0  0  0  0  0
    7.4067  -17.9161   22.2716 C   0  0  0  0  0  0  0  0  0  0  0  0
    8.2866  -18.3268   21.4457 O   0  0  0  0  0  0  0  0  0  0  0  0
    7.7833  -12.7973   17.5975 O   0  0  0  0  0  0  0  0  0  0  0  0
    7.9564  -13.2135   18.9219 C   0  0  0  0  0  0  0  0  0  0  0  0
    7.1909  -12.7550   19.9593 C   0  0  0  0  0  0  0  0  0  0  0  0
    7.4110  -13.2084   21.2651 C   0  0  0  0  0  0  0  0  0  0  0  0
    8.4003  -14.1241   21.5358 C   0  0  0  0  0  0  0  0  0  0  0  0
    8.6668  -14.6276   22.8898 C   0  0  0  0  0  0  0  0  0  0  0  0
    8.9813  -16.0794   23.0182 C   0  0  2  0  0  0  0  0  0  0  0  0
    7.6600  -16.7557   23.0543 N   0  0  0  0  0  0  0  0  0  0  0  0
    9.6859  -16.4837   24.2415 C   0  0  0  0  0  0  0  0  0  0  0  0
   10.7271  -15.8329   24.5734 O   0  0  0  0  0  0  0  0  0  0  0  0
    9.1533  -14.5648   20.4637 C   0  0  0  0  0  0  0  0  0  0  0  0
    8.9525  -14.1307   19.1707 C   0  0  0  0  0  0  0  0  0  0  0  0
    9.2955  -17.5487   25.0974 N   0  0  0  0  0  0  0  0  0  0  0  0
   10.1015  -17.8944   26.2264 C   0  0  1  0  0  0  0  0  0  0  0  0
    9.5114  -17.3495   27.5269 C   0  0  0  0  0  0  0  0  0  0  0  0
   10.4419  -17.9741   28.9538 S   0  0  0  0  0  0  0  0  0  0  0  0
   10.3503  -19.3318   26.3747 C   0  0  0  0  0  0  0  0  0  0  0  0
   11.4038  -19.8637   27.0883 O   0  0  0  0  0  0  0  0  0  0  0  0
    9.5726  -20.1684   25.8284 O   0  0  0  0  0  0  0  0  0  0  0  0
  2  1  1  6
  3  2  1  0
  4  5  1  0
  4  2  1  0
  5  6  1  1
  7  5  1  0
  7  8  2  0
  9 10  1  0
 10 11  2  0
 11 12  1  0
 13 12  2  0
 13 14  1  0
 15 14  1  1
 15 16  1  0
 16  7  1  0
 17 15  1  0
 18 17  2  0
 19 13  1  0
 20 10  1  0
 20 19  2  0
 21 17  1  0
 22 21  1  0
 22 25  1  0
 22 23  1  1
 24 23  1  0
 25 26  1  0
 27 25  2  0
M  END
$$$$
