LYC.pdb
     RDKit          3D

 27 27  0  0  1  0  0  0  0  0999 V2000
    6.6442  -16.0466   17.1783 C   0  0  0  0  0  0  0  0  0  0  0  0
    6.7983  -14.7594   17.9605 C   0  0  1  0  0  0  0  0  0  0  0  0
    5.3998  -14.3604   18.4419 C   0  0  0  0  0  0  0  0  0  0  0  0
    7.6372  -14.9318   19.1856 C   0  0  0  0  0  0  0  0  0  0  0  0
    7.7423  -13.7146   20.0481 C   0  0  2  0  0  0  0  0  0  0  0  0
    8.4393  -12.6888   19.2559 N   0  0  0  0  0  0  0  0  0  0  0  0
    8.5425  -13.9018   21.2755 C   0  0  0  0  0  0  0  0  0  0  0  0
    9.8085  -13.8095   21.1601 O   0  0  0  0  0  0  0  0  0  0  0  0
    9.9442  -15.0496   30.0912 O   0  0  0  0  0  0  0  0  0  0  0  0
    9.4540  -14.7394   28.8182 C   0  0  0  0  0  0  0  0  0  0  0  0
    9.4591  -13.4731   28.2995 C   0  0  0  0  0  0  0  0  0  0  0  0
    8.9545  -13.2234   27.0181 C   0  0  0  0  0  0  0  0  0  0  0  0
    8.4424  -14.2432   26.2512 C   0  0  0  0  0  0  0  0  0  0  0  0
    7.9027  -14.0277   24.9022 C   0  0  0  0  0  0  0  0  0  0  0  0
    8.8150  -14.3153   23.7584 C   0  0  2  0  0  0  0  0  0  0  0  0
    7.9673  -14.1741   22.5477 N   0  0  0  0  0  0  0  0  0  0  0  0
    9.3845  -15.6679   23.7085 C   0  0  0  0  0  0  0  0  0  0  0  0
    8.6376  -16.6156   23.3066 O   0  0  0  0  0  0  0  0  0  0  0  0
    8.4535  -15.5085   26.8074 C   0  0  0  0  0  0  0  0  0  0  0  0
    8.9458  -15.7753   28.0672 C   0  0  0  0  0  0  0  0  0  0  0  0
   10.7154  -16.0098   24.0706 N   0  0  0  0  0  0  0  0  0  0  0  0
   11.1394  -17.3747   24.0396 C   0  0  1  0  0  0  0  0  0  0  0  0
   11.7493  -17.7437   22.6874 C   0  0  0  0  0  0  0  0  0  0  0  0
   13.1666  -16.6722   22.3197 S   0  0  0  0  0  0  0  0  0  0  0  0
   12.0752  -17.7419   25.1070 C   0  0  0  0  0  0  0  0  0  0  0  0
   12.5691  -16.8546   26.0402 O   0  0  0  0  0  0  0  0  0  0  0  0
   12.4784  -18.9375   25.2116 O   0  0  0  0  0  0  0  0  0  0  0  0
  2  1  1  1
  3  2  1  0
  4  5  1  0
  4  2  1  0
  5  6  1  6
  7  5  1  0
  7  8  2  0
  9 10  1  0
 10 11  2  0
 11 12  1  0
 13 12  2  0
 13 14  1  0
 15 14  1  1
 15 16  1  0
 16  7  1  0
 17 15  1  0
 18 17  2  0
 19 13  1  0
 20 10  1  0
 20 19  2  0
 21 17  1  0
 22 21  1  0
 22 25  1  0
 22 23  1  6
 24 23  1  0
 25 26  1  0
 27 25  2  0
M  END
$$$$
