LYC.pdb
     RDKit          3D

 27 27  0  0  1  0  0  0  0  0999 V2000
    7.3717  -12.0308   18.9579 C   0  0  0  0  0  0  0  0  0  0  0  0
    7.8787  -13.4374   19.1961 C   0  0  1  0  0  0  0  0  0  0  0  0
    9.3431  -13.3159   19.6289 C   0  0  0  0  0  0  0  0  0  0  0  0
    7.1600  -14.1226   20.3135 C   0  0  0  0  0  0  0  0  0  0  0  0
    7.6686  -15.4909   20.6382 C   0  0  2  0  0  0  0  0  0  0  0  0
    6.9821  -16.4274   19.7341 N   0  0  0  0  0  0  0  0  0  0  0  0
    7.3661  -15.9462   22.0105 C   0  0  0  0  0  0  0  0  0  0  0  0
    6.1583  -16.2685   22.2598 O   0  0  0  0  0  0  0  0  0  0  0  0
    8.3775  -19.6299   30.0118 O   0  0  0  0  0  0  0  0  0  0  0  0
    8.5217  -19.1333   28.7118 C   0  0  0  0  0  0  0  0  0  0  0  0
    9.7113  -18.6822   28.2079 C   0  0  0  0  0  0  0  0  0  0  0  0
    9.7943  -18.1960   26.8980 C   0  0  0  0  0  0  0  0  0  0  0  0
    8.6840  -18.1604   26.0878 C   0  0  0  0  0  0  0  0  0  0  0  0
    8.7244  -17.6589   24.7077 C   0  0  0  0  0  0  0  0  0  0  0  0
    7.9728  -16.4024   24.4258 C   0  0  2  0  0  0  0  0  0  0  0  0
    8.3472  -16.0358   23.0366 N   0  0  0  0  0  0  0  0  0  0  0  0
    8.3097  -15.2444   25.2637 C   0  0  0  0  0  0  0  0  0  0  0  0
    9.4660  -14.7307   25.1351 O   0  0  0  0  0  0  0  0  0  0  0  0
    7.5002  -18.6240   26.6302 C   0  0  0  0  0  0  0  0  0  0  0  0
    7.3975  -19.1066   27.9176 C   0  0  0  0  0  0  0  0  0  0  0  0
    7.4415  -14.6401   26.2125 N   0  0  0  0  0  0  0  0  0  0  0  0
    7.8898  -13.5256   26.9876 C   0  0  1  0  0  0  0  0  0  0  0  0
    6.7166  -12.7188   27.5437 C   0  0  0  0  0  0  0  0  0  0  0  0
    5.5052  -12.3811   26.2359 S   0  0  0  0  0  0  0  0  0  0  0  0
    8.7964  -13.8775   28.0850 C   0  0  0  0  0  0  0  0  0  0  0  0
    9.1483  -15.1704   28.4117 O   0  0  0  0  0  0  0  0  0  0  0  0
    9.3080  -12.9665   28.8001 O   0  0  0  0  0  0  0  0  0  0  0  0
  2  1  1  1
  3  2  1  0
  4  5  1  0
  4  2  1  0
  5  6  1  6
  7  5  1  0
  7  8  2  0
  9 10  1  0
 10 11  2  0
 11 12  1  0
 13 12  2  0
 13 14  1  0
 15 14  1  1
 15 16  1  0
 16  7  1  0
 17 15  1  0
 18 17  2  0
 19 13  1  0
 20 10  1  0
 20 19  2  0
 21 17  1  0
 22 21  1  0
 22 25  1  0
 22 23  1  1
 24 23  1  0
 25 26  1  0
 27 25  2  0
M  END
$$$$
