LYC.pdb
     RDKit          3D

 27 27  0  0  1  0  0  0  0  0999 V2000
    6.3815  -12.5116   18.6162 C   0  0  0  0  0  0  0  0  0  0  0  0
    6.8666  -13.8152   19.2144 C   0  0  1  0  0  0  0  0  0  0  0  0
    7.9139  -14.3846   18.2523 C   0  0  0  0  0  0  0  0  0  0  0  0
    7.5553  -13.6207   20.5268 C   0  0  0  0  0  0  0  0  0  0  0  0
    8.0308  -14.8810   21.1764 C   0  0  2  0  0  0  0  0  0  0  0  0
    6.8401  -15.7098   21.4229 N   0  0  0  0  0  0  0  0  0  0  0  0
    8.6765  -14.6858   22.4905 C   0  0  0  0  0  0  0  0  0  0  0  0
    8.1633  -13.8113   23.2628 O   0  0  0  0  0  0  0  0  0  0  0  0
   11.1123  -15.3600   30.6548 O   0  0  0  0  0  0  0  0  0  0  0  0
   10.6953  -15.2891   29.3212 C   0  0  0  0  0  0  0  0  0  0  0  0
   10.4290  -14.1102   28.6794 C   0  0  0  0  0  0  0  0  0  0  0  0
   10.0146  -14.1019   27.3425 C   0  0  0  0  0  0  0  0  0  0  0  0
    9.8656  -15.2765   26.6435 C   0  0  0  0  0  0  0  0  0  0  0  0
    9.4334  -15.3155   25.2402 C   0  0  0  0  0  0  0  0  0  0  0  0
   10.4885  -15.1176   24.2052 C   0  0  2  0  0  0  0  0  0  0  0  0
    9.8197  -15.4186   22.9143 N   0  0  0  0  0  0  0  0  0  0  0  0
   11.6510  -16.0110   24.2865 C   0  0  0  0  0  0  0  0  0  0  0  0
   11.4629  -17.2543   24.0958 O   0  0  0  0  0  0  0  0  0  0  0  0
   10.1434  -16.4472   27.3238 C   0  0  0  0  0  0  0  0  0  0  0  0
   10.5526  -16.4769   28.6400 C   0  0  0  0  0  0  0  0  0  0  0  0
   12.9834  -15.5984   24.5582 N   0  0  0  0  0  0  0  0  0  0  0  0
   14.0520  -16.5469   24.5114 C   0  0  1  0  0  0  0  0  0  0  0  0
   15.1479  -16.1122   23.5386 C   0  0  0  0  0  0  0  0  0  0  0  0
   14.4217  -15.2798   22.0992 S   0  0  0  0  0  0  0  0  0  0  0  0
   14.6544  -16.8443   25.8148 C   0  0  0  0  0  0  0  0  0  0  0  0
   15.6587  -17.7694   26.0085 O   0  0  0  0  0  0  0  0  0  0  0  0
   14.2547  -16.2354   26.8505 O   0  0  0  0  0  0  0  0  0  0  0  0
  2  1  1  6
  3  2  1  0
  4  5  1  0
  4  2  1  0
  5  6  1  1
  7  5  1  0
  7  8  2  0
  9 10  1  0
 10 11  2  0
 11 12  1  0
 13 12  2  0
 13 14  1  0
 15 14  1  1
 15 16  1  0
 16  7  1  0
 17 15  1  0
 18 17  2  0
 19 13  1  0
 20 10  1  0
 20 19  2  0
 21 17  1  0
 22 21  1  0
 22 25  1  0
 22 23  1  6
 24 23  1  0
 25 26  1  0
 27 25  2  0
M  END
$$$$
