QDH.pdb
     RDKit          3D

 28 28  0  0  1  0  0  0  0  0999 V2000
   27.2342  -32.3752   -2.4373 N   0  0  0  0  0  0  0  0  0  0  0  0
   26.1719  -33.0198   -3.1175 C   0  0  0  0  0  0  0  0  0  0  0  0
   26.3867  -33.6331   -4.1826 O   0  0  0  0  0  0  0  0  0  0  0  0
   24.8040  -32.9652   -2.5627 C   0  0  0  0  0  0  0  0  0  0  0  0
   24.8013  -32.1059   -1.3311 C   0  0  0  0  0  0  0  0  0  0  0  0
   23.4326  -32.0925   -0.6751 C   0  0  2  0  0  0  0  0  0  0  0  0
   22.6203  -31.0063   -1.1234 N   0  0  0  0  0  0  0  0  0  0  0  0
   23.6492  -32.0746    0.7998 C   0  0  0  0  0  0  0  0  0  0  0  0
   23.6866  -31.0176    1.4478 O   0  0  0  0  0  0  0  0  0  0  0  0
   23.8278  -33.2572    1.5681 N   0  0  0  0  0  0  0  0  0  0  0  0
   23.9735  -33.3064    2.9595 C   0  0  1  0  0  0  0  0  0  0  0  0
   23.2462  -34.3263    3.7368 C   0  0  0  0  0  0  0  0  0  0  0  0
   23.1864  -34.0369    5.1940 C   0  0  0  0  0  0  0  0  0  0  0  0
   23.7200  -33.0413    5.7368 O   0  0  0  0  0  0  0  0  0  0  0  0
   25.4148  -33.4253    3.3012 C   0  0  0  0  0  0  0  0  0  0  0  0
   26.2589  -33.9926    2.5617 O   0  0  0  0  0  0  0  0  0  0  0  0
   22.4963  -34.9246    6.0059 O   0  0  0  0  0  0  0  0  0  0  0  0
   25.8617  -32.8695    4.5260 N   0  0  0  0  0  0  0  0  0  0  0  0
   27.2515  -33.0036    4.9170 C   0  0  1  0  0  0  0  0  0  0  0  0
   28.0643  -31.9483    4.1931 C   0  0  0  0  0  0  0  0  0  0  0  0
   29.4966  -32.0456    4.5187 C   0  0  0  0  0  0  0  0  0  0  0  0
   30.3885  -32.9446    3.9681 C   0  0  0  0  0  0  0  0  0  0  0  0
   31.6085  -32.7356    4.5078 N   0  0  0  0  0  0  0  0  0  0  0  0
   31.5029  -31.7244    5.3860 C   0  0  0  0  0  0  0  0  0  0  0  0
   30.2077  -31.3069    5.3876 N   0  0  0  0  0  0  0  0  0  0  0  0
   27.3949  -32.8507    6.3883 C   0  0  0  0  0  0  0  0  0  0  0  0
   28.5181  -33.0058    6.9339 O   0  0  0  0  0  0  0  0  0  0  0  0
   26.2849  -32.5375    7.1478 O   0  0  0  0  0  0  0  0  0  0  0  0
  2  3  2  0
  2  1  1  0
  4  2  1  0
  5  4  1  0
  5  6  1  0
  6  8  1  0
  6  7  1  6
  8  9  2  0
 10 11  1  0
 10  8  1  0
 11 12  1  6
 13 12  1  0
 14 13  2  0
 15 18  1  0
 15 11  1  0
 16 15  2  0
 17 13  1  0
 19 18  1  0
 19 20  1  6
 21 20  1  0
 22 21  2  0
 23 22  1  0
 24 23  1  0
 24 25  2  0
 25 21  1  0
 26 28  1  0
 26 19  1  0
 27 26  2  0
M  END
$$$$
