QDH.pdb
     RDKit          3D

 28 28  0  0  1  0  0  0  0  0999 V2000
   15.3871   -9.2175  -18.7748 N   0  0  0  0  0  0  0  0  0  0  0  0
   16.3675   -9.1438  -17.7550 C   0  0  0  0  0  0  0  0  0  0  0  0
   16.6949   -8.0395  -17.2752 O   0  0  0  0  0  0  0  0  0  0  0  0
   17.0046  -10.3802  -17.2579 C   0  0  0  0  0  0  0  0  0  0  0  0
   17.2655  -10.2472  -15.7849 C   0  0  0  0  0  0  0  0  0  0  0  0
   18.7081   -9.8587  -15.5167 C   0  0  2  0  0  0  0  0  0  0  0  0
   19.6115  -10.9516  -15.6894 N   0  0  0  0  0  0  0  0  0  0  0  0
   18.7627   -9.2825  -14.1428 C   0  0  0  0  0  0  0  0  0  0  0  0
   18.6685   -9.9888  -13.1275 O   0  0  0  0  0  0  0  0  0  0  0  0
   18.9255   -7.8923  -13.8947 N   0  0  0  0  0  0  0  0  0  0  0  0
   19.1065   -7.3087  -12.6353 C   0  0  1  0  0  0  0  0  0  0  0  0
   19.9077   -6.0779  -12.5063 C   0  0  0  0  0  0  0  0  0  0  0  0
   21.3030   -6.2186  -13.0003 C   0  0  0  0  0  0  0  0  0  0  0  0
   22.0164   -7.2325  -12.8165 O   0  0  0  0  0  0  0  0  0  0  0  0
   17.7807   -7.0478  -12.0168 C   0  0  0  0  0  0  0  0  0  0  0  0
   16.8223   -6.5121  -12.6297 O   0  0  0  0  0  0  0  0  0  0  0  0
   21.8517   -5.1610  -13.7102 O   0  0  0  0  0  0  0  0  0  0  0  0
   17.5864   -7.4227  -10.6639 N   0  0  0  0  0  0  0  0  0  0  0  0
   16.3218   -7.1456  -10.0107 C   0  0  1  0  0  0  0  0  0  0  0  0
   15.8140   -8.4234   -9.3722 C   0  0  0  0  0  0  0  0  0  0  0  0
   14.5189   -8.2202   -8.7024 C   0  0  0  0  0  0  0  0  0  0  0  0
   13.4073   -7.6228   -9.2630 C   0  0  0  0  0  0  0  0  0  0  0  0
   12.4105   -7.6136   -8.3521 N   0  0  0  0  0  0  0  0  0  0  0  0
   12.8715   -8.1925   -7.2309 C   0  0  0  0  0  0  0  0  0  0  0  0
   14.1626   -8.5614   -7.4524 N   0  0  0  0  0  0  0  0  0  0  0  0
   16.4881   -6.0831   -8.9850 C   0  0  0  0  0  0  0  0  0  0  0  0
   17.5876   -5.9462   -8.3886 O   0  0  0  0  0  0  0  0  0  0  0  0
   15.4256   -5.2502   -8.6946 O   0  0  0  0  0  0  0  0  0  0  0  0
  2  3  2  0
  2  1  1  0
  4  2  1  0
  5  4  1  0
  5  6  1  0
  6  8  1  0
  6  7  1  1
  8  9  2  0
 10 11  1  0
 10  8  1  0
 11 12  1  6
 13 12  1  0
 14 13  2  0
 15 18  1  0
 15 11  1  0
 16 15  2  0
 17 13  1  0
 19 18  1  0
 19 20  1  1
 21 20  1  0
 22 21  2  0
 23 22  1  0
 24 23  1  0
 24 25  2  0
 25 21  1  0
 26 28  1  0
 26 19  1  0
 27 26  2  0
M  END
$$$$
