QDH.pdb
     RDKit          3D

 28 28  0  0  1  0  0  0  0  0999 V2000
   26.4281  -31.6451   -8.8096 N   0  0  0  0  0  0  0  0  0  0  0  0
   25.4924  -32.1425   -7.8696 C   0  0  0  0  0  0  0  0  0  0  0  0
   25.4104  -31.6336   -6.7334 O   0  0  0  0  0  0  0  0  0  0  0  0
   24.6101  -33.2688   -8.2370 C   0  0  0  0  0  0  0  0  0  0  0  0
   24.5398  -34.2387   -7.0925 C   0  0  0  0  0  0  0  0  0  0  0  0
   25.7773  -35.1161   -7.0409 C   0  0  2  0  0  0  0  0  0  0  0  0
   25.8256  -36.0597   -8.1122 N   0  0  0  0  0  0  0  0  0  0  0  0
   25.8004  -35.7696   -5.7011 C   0  0  0  0  0  0  0  0  0  0  0  0
   24.9880  -36.6517   -5.3837 O   0  0  0  0  0  0  0  0  0  0  0  0
   26.7469  -35.4343   -4.6949 N   0  0  0  0  0  0  0  0  0  0  0  0
   26.8243  -36.0207   -3.4262 C   0  0  1  0  0  0  0  0  0  0  0  0
   28.0876  -35.9633   -2.6683 C   0  0  0  0  0  0  0  0  0  0  0  0
   29.2727  -36.4094   -3.4474 C   0  0  0  0  0  0  0  0  0  0  0  0
   29.2842  -37.4111   -4.2005 O   0  0  0  0  0  0  0  0  0  0  0  0
   25.7548  -35.4630   -2.5582 C   0  0  0  0  0  0  0  0  0  0  0  0
   25.3907  -34.2599   -2.5917 O   0  0  0  0  0  0  0  0  0  0  0  0
   30.4411  -35.6708   -3.3348 O   0  0  0  0  0  0  0  0  0  0  0  0
   25.1109  -36.3339   -1.6440 N   0  0  0  0  0  0  0  0  0  0  0  0
   24.0314  -35.8395   -0.8117 C   0  0  1  0  0  0  0  0  0  0  0  0
   22.7136  -36.3146   -1.3913 C   0  0  0  0  0  0  0  0  0  0  0  0
   21.5758  -35.9406   -0.5354 C   0  0  0  0  0  0  0  0  0  0  0  0
   20.7763  -34.8267   -0.6997 C   0  0  0  0  0  0  0  0  0  0  0  0
   19.8388  -34.8149    0.2721 N   0  0  0  0  0  0  0  0  0  0  0  0
   20.0316  -35.8975    1.0439 C   0  0  0  0  0  0  0  0  0  0  0  0
   21.0963  -36.5820    0.5439 N   0  0  0  0  0  0  0  0  0  0  0  0
   24.1886  -36.3225    0.5850 C   0  0  0  0  0  0  0  0  0  0  0  0
   24.7996  -37.3977    0.8175 O   0  0  0  0  0  0  0  0  0  0  0  0
   23.6582  -35.5803    1.6218 O   0  0  0  0  0  0  0  0  0  0  0  0
  2  3  2  0
  2  1  1  0
  4  2  1  0
  5  4  1  0
  5  6  1  0
  6  8  1  0
  6  7  1  6
  8  9  2  0
 10 11  1  0
 10  8  1  0
 11 12  1  1
 13 12  1  0
 14 13  2  0
 15 18  1  0
 15 11  1  0
 16 15  2  0
 17 13  1  0
 19 18  1  0
 19 20  1  6
 21 20  1  0
 22 21  2  0
 23 22  1  0
 24 23  1  0
 24 25  2  0
 25 21  1  0
 26 28  1  0
 26 19  1  0
 27 26  2  0
M  END
$$$$
