QDH.pdb
     RDKit          3D

 28 28  0  0  1  0  0  0  0  0999 V2000
   31.9273  -29.4099  -18.2813 N   0  0  0  0  0  0  0  0  0  0  0  0
   31.1011  -28.2615  -18.2101 C   0  0  0  0  0  0  0  0  0  0  0  0
   31.6025  -27.1206  -18.2706 O   0  0  0  0  0  0  0  0  0  0  0  0
   29.6394  -28.4162  -18.0634 C   0  0  0  0  0  0  0  0  0  0  0  0
   29.3031  -29.8754  -17.9498 C   0  0  0  0  0  0  0  0  0  0  0  0
   28.7559  -30.4152  -19.2587 C   0  0  2  0  0  0  0  0  0  0  0  0
   28.7399  -29.4309  -20.2938 N   0  0  0  0  0  0  0  0  0  0  0  0
   27.4015  -30.9707  -18.9762 C   0  0  0  0  0  0  0  0  0  0  0  0
   26.3828  -30.5431  -19.5401 O   0  0  0  0  0  0  0  0  0  0  0  0
   27.1773  -32.0231  -18.0473 N   0  0  0  0  0  0  0  0  0  0  0  0
   25.9524  -32.6643  -17.8278 C   0  0  1  0  0  0  0  0  0  0  0  0
   25.9213  -34.1147  -17.5653 C   0  0  0  0  0  0  0  0  0  0  0  0
   24.5502  -34.6897  -17.5487 C   0  0  0  0  0  0  0  0  0  0  0  0
   23.7359  -34.5965  -18.4968 O   0  0  0  0  0  0  0  0  0  0  0  0
   25.2353  -31.9912  -16.7139 C   0  0  0  0  0  0  0  0  0  0  0  0
   25.7846  -31.6675  -15.6301 O   0  0  0  0  0  0  0  0  0  0  0  0
   24.1450  -35.3732  -16.4121 O   0  0  0  0  0  0  0  0  0  0  0  0
   23.8588  -31.6987  -16.8822 N   0  0  0  0  0  0  0  0  0  0  0  0
   23.1424  -30.9716  -15.8523 C   0  0  1  0  0  0  0  0  0  0  0  0
   22.1331  -30.0557  -16.5163 C   0  0  0  0  0  0  0  0  0  0  0  0
   22.7844  -28.9026  -17.1594 C   0  0  0  0  0  0  0  0  0  0  0  0
   24.1159  -28.5580  -17.0366 C   0  0  0  0  0  0  0  0  0  0  0  0
   24.3482  -27.4459  -17.7664 N   0  0  0  0  0  0  0  0  0  0  0  0
   23.1913  -27.0838  -18.3454 C   0  0  0  0  0  0  0  0  0  0  0  0
   22.2384  -27.9798  -17.9695 N   0  0  0  0  0  0  0  0  0  0  0  0
   22.4591  -31.9149  -14.9294 C   0  0  0  0  0  0  0  0  0  0  0  0
   22.5852  -33.1570  -15.0870 O   0  0  0  0  0  0  0  0  0  0  0  0
   21.6865  -31.4147  -13.8999 O   0  0  0  0  0  0  0  0  0  0  0  0
  2  3  2  0
  2  1  1  0
  4  2  1  0
  5  4  1  0
  5  6  1  0
  6  8  1  0
  6  7  1  6
  8  9  2  0
 10 11  1  0
 10  8  1  0
 11 12  1  1
 13 12  1  0
 14 13  2  0
 15 18  1  0
 15 11  1  0
 16 15  2  0
 17 13  1  0
 19 18  1  0
 19 20  1  6
 21 20  1  0
 22 21  2  0
 23 22  1  0
 24 23  1  0
 24 25  2  0
 25 21  1  0
 26 28  1  0
 26 19  1  0
 27 26  2  0
M  END
$$$$
