QDH.pdb
     RDKit          3D

 28 28  0  0  1  0  0  0  0  0999 V2000
   27.0228  -15.5812  -14.7395 N   0  0  0  0  0  0  0  0  0  0  0  0
   26.7215  -16.3127  -15.9146 C   0  0  0  0  0  0  0  0  0  0  0  0
   26.3665  -15.7181  -16.9525 O   0  0  0  0  0  0  0  0  0  0  0  0
   26.8283  -17.7859  -15.9104 C   0  0  0  0  0  0  0  0  0  0  0  0
   27.3139  -18.2451  -14.5655 C   0  0  0  0  0  0  0  0  0  0  0  0
   27.4839  -19.7530  -14.5297 C   0  0  2  0  0  0  0  0  0  0  0  0
   27.7737  -20.3027  -15.8159 N   0  0  0  0  0  0  0  0  0  0  0  0
   26.2443  -20.3236  -13.9294 C   0  0  0  0  0  0  0  0  0  0  0  0
   25.4361  -20.9896  -14.5942 O   0  0  0  0  0  0  0  0  0  0  0  0
   25.8979  -20.1491  -12.5618 N   0  0  0  0  0  0  0  0  0  0  0  0
   24.7797  -20.7066  -11.9307 C   0  0  1  0  0  0  0  0  0  0  0  0
   24.7497  -20.8226  -10.4613 C   0  0  0  0  0  0  0  0  0  0  0  0
   26.0412  -21.2618   -9.8699 C   0  0  0  0  0  0  0  0  0  0  0  0
   26.7680  -22.1607  -10.3541 O   0  0  0  0  0  0  0  0  0  0  0  0
   23.5586  -19.9694  -12.3475 C   0  0  0  0  0  0  0  0  0  0  0  0
   23.5768  -18.7966  -12.8007 O   0  0  0  0  0  0  0  0  0  0  0  0
   26.4706  -20.6378   -8.7082 O   0  0  0  0  0  0  0  0  0  0  0  0
   22.3069  -20.6232  -12.2277 N   0  0  0  0  0  0  0  0  0  0  0  0
   21.2793  -20.4075  -13.2277 C   0  0  1  0  0  0  0  0  0  0  0  0
   21.7703  -20.9518  -14.5548 C   0  0  0  0  0  0  0  0  0  0  0  0
   20.7975  -20.7153  -15.6340 C   0  0  0  0  0  0  0  0  0  0  0  0
   19.5770  -20.0845  -15.4941 C   0  0  0  0  0  0  0  0  0  0  0  0
   18.9624  -20.0514  -16.6960 N   0  0  0  0  0  0  0  0  0  0  0  0
   19.7702  -20.6477  -17.5886 C   0  0  0  0  0  0  0  0  0  0  0  0
   20.8915  -21.0516  -16.9317 N   0  0  0  0  0  0  0  0  0  0  0  0
   20.0150  -21.0781  -12.8273 C   0  0  0  0  0  0  0  0  0  0  0  0
   20.0250  -22.2839  -12.4674 O   0  0  0  0  0  0  0  0  0  0  0  0
   18.8325  -20.3654  -12.8545 O   0  0  0  0  0  0  0  0  0  0  0  0
  2  3  2  0
  2  1  1  0
  4  2  1  0
  5  4  1  0
  5  6  1  0
  6  8  1  0
  6  7  1  6
  8  9  2  0
 10 11  1  0
 10  8  1  0
 11 12  1  1
 13 12  1  0
 14 13  2  0
 15 18  1  0
 15 11  1  0
 16 15  2  0
 17 13  1  0
 19 18  1  0
 19 20  1  6
 21 20  1  0
 22 21  2  0
 23 22  1  0
 24 23  1  0
 24 25  2  0
 25 21  1  0
 26 28  1  0
 26 19  1  0
 27 26  2  0
M  END
$$$$
