QDH.pdb
     RDKit          3D

 28 28  0  0  1  0  0  0  0  0999 V2000
   13.5263  -13.2897  -14.3205 N   0  0  0  0  0  0  0  0  0  0  0  0
   14.0895  -13.8537  -15.4915 C   0  0  0  0  0  0  0  0  0  0  0  0
   13.4573  -14.7078  -16.1456 O   0  0  0  0  0  0  0  0  0  0  0  0
   15.4312  -13.4284  -15.9397 C   0  0  0  0  0  0  0  0  0  0  0  0
   15.9530  -12.3700  -15.0107 C   0  0  0  0  0  0  0  0  0  0  0  0
   17.3350  -11.9044  -15.4315 C   0  0  2  0  0  0  0  0  0  0  0  0
   18.2582  -12.9852  -15.5732 N   0  0  0  0  0  0  0  0  0  0  0  0
   17.7850  -10.8947  -14.4312 C   0  0  0  0  0  0  0  0  0  0  0  0
   17.9691  -11.1843  -13.2392 O   0  0  0  0  0  0  0  0  0  0  0  0
   18.0349   -9.5357  -14.7650 N   0  0  0  0  0  0  0  0  0  0  0  0
   18.4755   -8.5495  -13.8746 C   0  0  1  0  0  0  0  0  0  0  0  0
   19.1513   -7.3452  -14.3910 C   0  0  0  0  0  0  0  0  0  0  0  0
   19.5883   -6.4027  -13.3273 C   0  0  0  0  0  0  0  0  0  0  0  0
   19.0185   -5.3161  -13.0715 O   0  0  0  0  0  0  0  0  0  0  0  0
   17.3364   -8.0988  -13.0336 C   0  0  0  0  0  0  0  0  0  0  0  0
   16.2177   -7.7655  -13.5011 O   0  0  0  0  0  0  0  0  0  0  0  0
   20.6972   -6.7466  -12.5687 O   0  0  0  0  0  0  0  0  0  0  0  0
   17.5208   -8.0417  -11.6295 N   0  0  0  0  0  0  0  0  0  0  0  0
   16.4286   -7.6229  -10.7727 C   0  0  1  0  0  0  0  0  0  0  0  0
   15.6399   -8.8488  -10.3560 C   0  0  0  0  0  0  0  0  0  0  0  0
   14.4710   -8.4914   -9.5356 C   0  0  0  0  0  0  0  0  0  0  0  0
   14.1149   -7.2128   -9.1547 C   0  0  0  0  0  0  0  0  0  0  0  0
   12.9898   -7.2761   -8.4107 N   0  0  0  0  0  0  0  0  0  0  0  0
   12.6308   -8.5672   -8.3156 C   0  0  0  0  0  0  0  0  0  0  0  0
   13.5417   -9.3054   -9.0064 N   0  0  0  0  0  0  0  0  0  0  0  0
   16.9493   -6.9095   -9.5775 C   0  0  0  0  0  0  0  0  0  0  0  0
   18.1648   -7.0018   -9.2653 O   0  0  0  0  0  0  0  0  0  0  0  0
   16.0868   -6.1463   -8.8154 O   0  0  0  0  0  0  0  0  0  0  0  0
  2  3  2  0
  2  1  1  0
  4  2  1  0
  5  4  1  0
  5  6  1  0
  6  8  1  0
  6  7  1  1
  8  9  2  0
 10 11  1  0
 10  8  1  0
 11 12  1  6
 13 12  1  0
 14 13  2  0
 15 18  1  0
 15 11  1  0
 16 15  2  0
 17 13  1  0
 19 18  1  0
 19 20  1  1
 21 20  1  0
 22 21  2  0
 23 22  1  0
 24 23  1  0
 24 25  2  0
 25 21  1  0
 26 28  1  0
 26 19  1  0
 27 26  2  0
M  END
$$$$
