QDH.pdb
     RDKit          3D

 28 28  0  0  1  0  0  0  0  0999 V2000
   19.4533  -16.3203  -12.3285 N   0  0  0  0  0  0  0  0  0  0  0  0
   19.5707  -17.4192  -13.2147 C   0  0  0  0  0  0  0  0  0  0  0  0
   19.7756  -18.5670  -12.7703 O   0  0  0  0  0  0  0  0  0  0  0  0
   19.4500  -17.2046  -14.6711 C   0  0  0  0  0  0  0  0  0  0  0  0
   19.1993  -15.7484  -14.9397 C   0  0  0  0  0  0  0  0  0  0  0  0
   17.9258  -15.5502  -15.7413 C   0  0  2  0  0  0  0  0  0  0  0  0
   17.9137  -16.3132  -16.9489 N   0  0  0  0  0  0  0  0  0  0  0  0
   17.7813  -14.0869  -15.9874 C   0  0  0  0  0  0  0  0  0  0  0  0
   18.3796  -13.5112  -16.9089 O   0  0  0  0  0  0  0  0  0  0  0  0
   16.9543  -13.2483  -15.1914 N   0  0  0  0  0  0  0  0  0  0  0  0
   16.7221  -11.8867  -15.4185 C   0  0  1  0  0  0  0  0  0  0  0  0
   15.6333  -11.1994  -14.7004 C   0  0  0  0  0  0  0  0  0  0  0  0
   14.2999  -11.8284  -14.8930 C   0  0  0  0  0  0  0  0  0  0  0  0
   14.0806  -12.7924  -15.6632 O   0  0  0  0  0  0  0  0  0  0  0  0
   17.9735  -11.1244  -15.1717 C   0  0  0  0  0  0  0  0  0  0  0  0
   18.6936  -11.2834  -14.1532 O   0  0  0  0  0  0  0  0  0  0  0  0
   13.2293  -11.3168  -14.1751 O   0  0  0  0  0  0  0  0  0  0  0  0
   18.3767  -10.1669  -16.1358 N   0  0  0  0  0  0  0  0  0  0  0  0
   19.6412   -9.4740  -15.9825 C   0  0  1  0  0  0  0  0  0  0  0  0
   20.1130   -9.0152  -17.3482 C   0  0  0  0  0  0  0  0  0  0  0  0
   21.3939   -8.2942  -17.2681 C   0  0  0  0  0  0  0  0  0  0  0  0
   22.6029   -8.7428  -17.7620 C   0  0  0  0  0  0  0  0  0  0  0  0
   23.5508   -7.8162  -17.5044 N   0  0  0  0  0  0  0  0  0  0  0  0
   22.9637   -6.7945  -16.8591 C   0  0  0  0  0  0  0  0  0  0  0  0
   21.6436   -7.0938  -16.7179 N   0  0  0  0  0  0  0  0  0  0  0  0
   19.4901   -8.3123  -15.0680 C   0  0  0  0  0  0  0  0  0  0  0  0
   20.4178   -8.0069  -14.2747 O   0  0  0  0  0  0  0  0  0  0  0  0
   18.3236   -7.5738  -15.0986 O   0  0  0  0  0  0  0  0  0  0  0  0
  2  3  2  0
  2  1  1  0
  4  2  1  0
  5  4  1  0
  5  6  1  0
  6  8  1  0
  6  7  1  6
  8  9  2  0
 10 11  1  0
 10  8  1  0
 11 12  1  1
 13 12  1  0
 14 13  2  0
 15 18  1  0
 15 11  1  0
 16 15  2  0
 17 13  1  0
 19 18  1  0
 19 20  1  6
 21 20  1  0
 22 21  2  0
 23 22  1  0
 24 23  1  0
 24 25  2  0
 25 21  1  0
 26 28  1  0
 26 19  1  0
 27 26  2  0
M  END
$$$$
