QDH.pdb
     RDKit          3D

 28 28  0  0  1  0  0  0  0  0999 V2000
   20.3179  -20.8994  -16.1407 N   0  0  0  0  0  0  0  0  0  0  0  0
   20.8711  -21.7936  -15.1915 C   0  0  0  0  0  0  0  0  0  0  0  0
   20.5692  -23.0040  -15.2163 O   0  0  0  0  0  0  0  0  0  0  0  0
   21.8096  -21.2901  -14.1679 C   0  0  0  0  0  0  0  0  0  0  0  0
   22.0375  -19.8212  -14.3824 C   0  0  0  0  0  0  0  0  0  0  0  0
   23.0494  -19.5793  -15.4875 C   0  0  2  0  0  0  0  0  0  0  0  0
   24.3566  -20.0424  -15.1450 N   0  0  0  0  0  0  0  0  0  0  0  0
   23.0223  -18.1219  -15.8006 C   0  0  0  0  0  0  0  0  0  0  0  0
   23.5340  -17.2769  -15.0505 O   0  0  0  0  0  0  0  0  0  0  0  0
   22.4133  -17.5953  -16.9721 N   0  0  0  0  0  0  0  0  0  0  0  0
   22.4053  -16.2464  -17.3460 C   0  0  1  0  0  0  0  0  0  0  0  0
   22.8512  -15.8576  -18.6964 C   0  0  0  0  0  0  0  0  0  0  0  0
   24.2920  -16.1233  -18.9496 C   0  0  0  0  0  0  0  0  0  0  0  0
   25.2282  -15.6215  -18.2845 O   0  0  0  0  0  0  0  0  0  0  0  0
   21.0439  -15.6860  -17.1445 C   0  0  0  0  0  0  0  0  0  0  0  0
   19.9879  -16.3310  -17.3680 O   0  0  0  0  0  0  0  0  0  0  0  0
   24.6228  -16.9812  -19.9878 O   0  0  0  0  0  0  0  0  0  0  0  0
   20.9298  -14.3535  -16.6754 N   0  0  0  0  0  0  0  0  0  0  0  0
   19.6216  -13.7953  -16.3932 C   0  0  1  0  0  0  0  0  0  0  0  0
   19.8006  -12.5019  -15.6228 C   0  0  0  0  0  0  0  0  0  0  0  0
   18.5078  -11.8730  -15.3063 C   0  0  0  0  0  0  0  0  0  0  0  0
   17.4214  -12.5077  -14.7372 C   0  0  0  0  0  0  0  0  0  0  0  0
   16.4181  -11.6148  -14.5971 N   0  0  0  0  0  0  0  0  0  0  0  0
   16.8504  -10.4323  -15.0659 C   0  0  0  0  0  0  0  0  0  0  0  0
   18.1302  -10.5977  -15.4983 N   0  0  0  0  0  0  0  0  0  0  0  0
   18.8779  -13.5488  -17.6560 C   0  0  0  0  0  0  0  0  0  0  0  0
   19.4752  -13.0849  -18.6617 O   0  0  0  0  0  0  0  0  0  0  0  0
   17.5278  -13.8337  -17.7133 O   0  0  0  0  0  0  0  0  0  0  0  0
  2  3  2  0
  2  1  1  0
  4  2  1  0
  5  4  1  0
  5  6  1  0
  6  8  1  0
  6  7  1  1
  8  9  2  0
 10 11  1  0
 10  8  1  0
 11 12  1  6
 13 12  1  0
 14 13  2  0
 15 18  1  0
 15 11  1  0
 16 15  2  0
 17 13  1  0
 19 18  1  0
 19 20  1  6
 21 20  1  0
 22 21  2  0
 23 22  1  0
 24 23  1  0
 24 25  2  0
 25 21  1  0
 26 28  1  0
 26 19  1  0
 27 26  2  0
M  END
$$$$
