QDH.pdb
     RDKit          3D

 28 28  0  0  1  0  0  0  0  0999 V2000
   19.2904  -15.5283  -15.4543 N   0  0  0  0  0  0  0  0  0  0  0  0
   17.8908  -15.7422  -15.4100 C   0  0  0  0  0  0  0  0  0  0  0  0
   17.4349  -16.8712  -15.1371 O   0  0  0  0  0  0  0  0  0  0  0  0
   16.9675  -14.6233  -15.6882 C   0  0  0  0  0  0  0  0  0  0  0  0
   17.7631  -13.3824  -15.9757 C   0  0  0  0  0  0  0  0  0  0  0  0
   16.8530  -12.2049  -16.2744 C   0  0  2  0  0  0  0  0  0  0  0  0
   15.9831  -12.4509  -17.3804 N   0  0  0  0  0  0  0  0  0  0  0  0
   17.7253  -11.0145  -16.4860 C   0  0  0  0  0  0  0  0  0  0  0  0
   18.4720  -10.9111  -17.4711 O   0  0  0  0  0  0  0  0  0  0  0  0
   17.7667   -9.9176  -15.5828 N   0  0  0  0  0  0  0  0  0  0  0  0
   18.5475   -8.7664  -15.7398 C   0  0  1  0  0  0  0  0  0  0  0  0
   18.1219   -7.5013  -15.1137 C   0  0  0  0  0  0  0  0  0  0  0  0
   18.9898   -6.3436  -15.4559 C   0  0  0  0  0  0  0  0  0  0  0  0
   19.6590   -5.6935  -14.6191 O   0  0  0  0  0  0  0  0  0  0  0  0
   19.9354   -9.0457  -15.2884 C   0  0  0  0  0  0  0  0  0  0  0  0
   20.2092   -9.7069  -14.2545 O   0  0  0  0  0  0  0  0  0  0  0  0
   19.0646   -5.9571  -16.7857 O   0  0  0  0  0  0  0  0  0  0  0  0
   21.0078   -8.5397  -16.0649 N   0  0  0  0  0  0  0  0  0  0  0  0
   22.3768   -8.8054  -15.6680 C   0  0  1  0  0  0  0  0  0  0  0  0
   22.9434   -9.8852  -16.5688 C   0  0  0  0  0  0  0  0  0  0  0  0
   24.3477  -10.1842  -16.2438 C   0  0  0  0  0  0  0  0  0  0  0  0
   25.0635   -9.6455  -15.1929 C   0  0  0  0  0  0  0  0  0  0  0  0
   26.3149  -10.1525  -15.2115 N   0  0  0  0  0  0  0  0  0  0  0  0
   26.4014  -10.9984  -16.2516 C   0  0  0  0  0  0  0  0  0  0  0  0
   25.1938  -11.0130  -16.8790 N   0  0  0  0  0  0  0  0  0  0  0  0
   23.1951   -7.5684  -15.7623 C   0  0  0  0  0  0  0  0  0  0  0  0
   22.8769   -6.6597  -16.5725 O   0  0  0  0  0  0  0  0  0  0  0  0
   24.3053   -7.4277  -14.9532 O   0  0  0  0  0  0  0  0  0  0  0  0
  2  3  2  0
  2  1  1  0
  4  2  1  0
  5  4  1  0
  5  6  1  0
  6  8  1  0
  6  7  1  6
  8  9  2  0
 10 11  1  0
 10  8  1  0
 11 12  1  1
 13 12  1  0
 14 13  2  0
 15 18  1  0
 15 11  1  0
 16 15  2  0
 17 13  1  0
 19 18  1  0
 19 20  1  6
 21 20  1  0
 22 21  2  0
 23 22  1  0
 24 23  1  0
 24 25  2  0
 25 21  1  0
 26 28  1  0
 26 19  1  0
 27 26  2  0
M  END
$$$$
