PGV.pdb
     RDKit          3D

 19 19  0  0  1  0  0  0  0  0999 V2000
   25.6700  -14.5056  -15.9857 N   0  0  0  0  0  0  0  0  0  0  0  0
   26.5533  -15.3915  -15.2652 C   0  0  0  0  0  0  0  0  0  0  0  0
   25.8301  -16.6999  -15.0869 C   0  0  0  0  0  0  0  0  0  0  0  0
   24.3855  -16.2893  -15.3024 C   0  0  0  0  0  0  0  0  0  0  0  0
   24.5359  -15.2630  -16.4155 C   0  0  1  0  0  0  0  0  0  0  0  0
   23.3072  -14.4195  -16.5288 C   0  0  0  0  0  0  0  0  0  0  0  0
   22.2123  -14.9657  -16.8299 O   0  0  0  0  0  0  0  0  0  0  0  0
   23.3227  -13.0270  -16.3109 N   0  0  0  0  0  0  0  0  0  0  0  0
   22.1041  -12.2627  -16.3554 C   0  0  0  0  0  0  0  0  0  0  0  0
   22.2892  -10.8470  -15.9704 C   0  0  0  0  0  0  0  0  0  0  0  0
   23.4174  -10.5232  -15.4562 O   0  0  0  0  0  0  0  0  0  0  0  0
   19.6629   -7.5422  -16.8178 C   0  0  0  0  0  0  0  0  0  0  0  0
   21.1551   -7.4927  -16.8878 C   0  0  2  0  0  0  0  0  0  0  0  0
   21.6869   -7.7856  -18.2748 C   0  0  0  0  0  0  0  0  0  0  0  0
   21.7522   -8.4470  -15.8594 C   0  0  2  0  0  0  0  0  0  0  0  0
   21.3351   -9.8163  -16.1144 N   0  0  0  0  0  0  0  0  0  0  0  0
   21.1753   -8.0638  -14.5473 C   0  0  0  0  0  0  0  0  0  0  0  0
   20.1919   -8.7100  -14.1106 O   0  0  0  0  0  0  0  0  0  0  0  0
   21.6616   -7.0263  -13.7692 O   0  0  0  0  0  0  0  0  0  0  0  0
  2  1  1  0
  3  4  1  0
  3  2  1  0
  4  5  1  0
  5  6  1  1
  5  1  1  0
  6  8  1  0
  7  6  2  0
  8  9  1  0
  9 10  1  0
 10 11  2  0
 10 16  1  0
 13 12  1  6
 13 15  1  0
 14 13  1  0
 15 17  1  0
 15 16  1  6
 17 18  2  0
 17 19  1  0
M  END
$$$$
