PGV.pdb
     RDKit          3D

 19 19  0  0  1  0  0  0  0  0999 V2000
   25.8343  -19.0847  -12.5452 N   0  0  0  0  0  0  0  0  0  0  0  0
   25.7808  -19.0057  -13.9858 C   0  0  0  0  0  0  0  0  0  0  0  0
   24.6210  -19.8516  -14.4395 C   0  0  0  0  0  0  0  0  0  0  0  0
   24.3967  -20.7452  -13.2340 C   0  0  0  0  0  0  0  0  0  0  0  0
   24.6645  -19.7727  -12.0950 C   0  0  1  0  0  0  0  0  0  0  0  0
   24.9024  -20.5073  -10.8153 C   0  0  0  0  0  0  0  0  0  0  0  0
   23.9325  -21.0692  -10.2395 O   0  0  0  0  0  0  0  0  0  0  0  0
   26.1773  -20.5983  -10.2210 N   0  0  0  0  0  0  0  0  0  0  0  0
   26.3528  -21.2629   -8.9566 C   0  0  0  0  0  0  0  0  0  0  0  0
   26.6846  -20.3372   -7.8522 C   0  0  0  0  0  0  0  0  0  0  0  0
   25.9934  -19.2620   -7.7624 O   0  0  0  0  0  0  0  0  0  0  0  0
   29.9338  -20.5815   -5.0821 C   0  0  0  0  0  0  0  0  0  0  0  0
   28.5716  -20.1766   -4.6187 C   0  0  2  0  0  0  0  0  0  0  0  0
   27.8106  -21.3142   -3.9713 C   0  0  0  0  0  0  0  0  0  0  0  0
   27.7851  -19.5841   -5.7828 C   0  0  2  0  0  0  0  0  0  0  0  0
   27.6969  -20.5267   -6.8863 N   0  0  0  0  0  0  0  0  0  0  0  0
   28.5722  -18.4263   -6.2742 C   0  0  0  0  0  0  0  0  0  0  0  0
   29.1528  -18.5205   -7.3830 O   0  0  0  0  0  0  0  0  0  0  0  0
   28.7053  -17.2376   -5.5759 O   0  0  0  0  0  0  0  0  0  0  0  0
  2  1  1  0
  3  4  1  0
  3  2  1  0
  4  5  1  0
  5  6  1  1
  5  1  1  0
  6  8  1  0
  7  6  2  0
  8  9  1  0
  9 10  1  0
 10 11  2  0
 10 16  1  0
 13 12  1  6
 13 15  1  0
 14 13  1  0
 15 17  1  0
 15 16  1  6
 17 18  2  0
 17 19  1  0
M  END
$$$$
