PGV.pdb
     RDKit          3D

 19 19  0  0  1  0  0  0  0  0999 V2000
   26.9894  -19.9904  -16.9520 N   0  0  0  0  0  0  0  0  0  0  0  0
   26.0863  -19.3507  -17.8789 C   0  0  0  0  0  0  0  0  0  0  0  0
   26.1902  -17.8655  -17.6551 C   0  0  0  0  0  0  0  0  0  0  0  0
   26.7979  -17.8015  -16.2663 C   0  0  0  0  0  0  0  0  0  0  0  0
   27.7676  -18.9727  -16.3169 C   0  0  1  0  0  0  0  0  0  0  0  0
   28.1936  -19.3684  -14.9400 C   0  0  0  0  0  0  0  0  0  0  0  0
   28.7268  -18.5074  -14.1902 O   0  0  0  0  0  0  0  0  0  0  0  0
   28.0222  -20.6756  -14.4414 N   0  0  0  0  0  0  0  0  0  0  0  0
   28.1093  -20.9408  -13.0295 C   0  0  0  0  0  0  0  0  0  0  0  0
   26.8029  -21.2590  -12.4141 C   0  0  0  0  0  0  0  0  0  0  0  0
   26.0525  -22.0935  -13.0327 O   0  0  0  0  0  0  0  0  0  0  0  0
   24.7823  -19.3031   -9.1542 C   0  0  0  0  0  0  0  0  0  0  0  0
   24.7953  -20.7934   -9.2691 C   0  0  2  0  0  0  0  0  0  0  0  0
   25.8205  -21.4422   -8.3635 C   0  0  0  0  0  0  0  0  0  0  0  0
   25.0150  -21.1973  -10.7229 C   0  0  2  0  0  0  0  0  0  0  0  0
   26.3025  -20.7255  -11.2065 N   0  0  0  0  0  0  0  0  0  0  0  0
   23.9782  -20.4914  -11.5154 C   0  0  0  0  0  0  0  0  0  0  0  0
   24.2963  -19.4388  -12.1205 O   0  0  0  0  0  0  0  0  0  0  0  0
   22.6688  -20.9288  -11.6278 O   0  0  0  0  0  0  0  0  0  0  0  0
  2  1  1  0
  3  4  1  0
  3  2  1  0
  4  5  1  0
  5  6  1  1
  5  1  1  0
  6  8  1  0
  7  6  2  0
  8  9  1  0
  9 10  1  0
 10 11  2  0
 10 16  1  0
 13 12  1  6
 13 15  1  0
 14 13  1  0
 15 17  1  0
 15 16  1  6
 17 18  2  0
 17 19  1  0
M  END
$$$$
