PGV.pdb
     RDKit          3D

 19 19  0  0  1  0  0  0  0  0999 V2000
   24.1620  -21.8345  -12.2347 N   0  0  0  0  0  0  0  0  0  0  0  0
   23.6249  -21.9001  -13.5732 C   0  0  0  0  0  0  0  0  0  0  0  0
   24.7233  -21.4925  -14.5187 C   0  0  0  0  0  0  0  0  0  0  0  0
   25.6713  -20.7519  -13.5942 C   0  0  0  0  0  0  0  0  0  0  0  0
   25.5684  -21.5957  -12.3324 C   0  0  1  0  0  0  0  0  0  0  0  0
   26.0947  -20.8480  -11.1500 C   0  0  0  0  0  0  0  0  0  0  0  0
   27.2930  -20.4582  -11.1528 O   0  0  0  0  0  0  0  0  0  0  0  0
   25.2995  -20.5586  -10.0227 N   0  0  0  0  0  0  0  0  0  0  0  0
   25.7222  -19.5785   -9.0575 C   0  0  0  0  0  0  0  0  0  0  0  0
   26.5549  -20.1467   -7.9756 C   0  0  0  0  0  0  0  0  0  0  0  0
   26.3462  -21.3704   -7.6579 O   0  0  0  0  0  0  0  0  0  0  0  0
   30.2723  -20.1801   -4.7531 C   0  0  0  0  0  0  0  0  0  0  0  0
   29.4552  -19.3598   -5.6985 C   0  0  2  0  0  0  0  0  0  0  0  0
   28.9562  -18.0725   -5.0770 C   0  0  0  0  0  0  0  0  0  0  0  0
   28.2972  -20.1929   -6.2369 C   0  0  2  0  0  0  0  0  0  0  0  0
   27.5595  -19.4638   -7.2558 N   0  0  0  0  0  0  0  0  0  0  0  0
   27.3647  -20.3978   -5.1012 C   0  0  0  0  0  0  0  0  0  0  0  0
   26.2896  -19.7504   -5.0811 O   0  0  0  0  0  0  0  0  0  0  0  0
   27.6124  -21.2686   -4.0530 O   0  0  0  0  0  0  0  0  0  0  0  0
  2  1  1  0
  3  4  1  0
  3  2  1  0
  4  5  1  0
  5  6  1  1
  5  1  1  0
  6  8  1  0
  7  6  2  0
  8  9  1  0
  9 10  1  0
 10 11  2  0
 10 16  1  0
 13 12  1  1
 13 15  1  0
 14 13  1  0
 15 17  1  0
 15 16  1  6
 17 18  2  0
 17 19  1  0
M  END
$$$$
