PGV.pdb
     RDKit          3D

 19 19  0  0  1  0  0  0  0  0999 V2000
   23.2048  -20.9343  -10.9379 N   0  0  0  0  0  0  0  0  0  0  0  0
   22.2374  -20.8595  -12.0069 C   0  0  0  0  0  0  0  0  0  0  0  0
   23.0026  -20.7971  -13.3020 C   0  0  0  0  0  0  0  0  0  0  0  0
   24.3739  -20.3488  -12.8323 C   0  0  0  0  0  0  0  0  0  0  0  0
   24.4980  -21.1114  -11.5216 C   0  0  1  0  0  0  0  0  0  0  0  0
   25.5822  -20.5318  -10.6714 C   0  0  0  0  0  0  0  0  0  0  0  0
   26.7799  -20.6314  -11.0501 O   0  0  0  0  0  0  0  0  0  0  0  0
   25.3180  -19.8731   -9.4536 N   0  0  0  0  0  0  0  0  0  0  0  0
   26.3596  -19.1586   -8.7637 C   0  0  0  0  0  0  0  0  0  0  0  0
   26.8837  -19.8844   -7.5868 C   0  0  0  0  0  0  0  0  0  0  0  0
   26.3108  -20.9880   -7.2770 O   0  0  0  0  0  0  0  0  0  0  0  0
   29.6159  -18.4564   -4.6530 C   0  0  0  0  0  0  0  0  0  0  0  0
   29.6865  -19.8886   -5.0747 C   0  0  2  0  0  0  0  0  0  0  0  0
   30.8131  -20.1576   -6.0498 C   0  0  0  0  0  0  0  0  0  0  0  0
   28.3449  -20.3230   -5.6546 C   0  0  2  0  0  0  0  0  0  0  0  0
   27.9579  -19.4723   -6.7683 N   0  0  0  0  0  0  0  0  0  0  0  0
   27.3377  -20.1096   -4.5862 C   0  0  0  0  0  0  0  0  0  0  0  0
   26.5391  -19.1475   -4.6956 O   0  0  0  0  0  0  0  0  0  0  0  0
   27.2257  -20.9159   -3.4656 O   0  0  0  0  0  0  0  0  0  0  0  0
  2  1  1  0
  3  4  1  0
  3  2  1  0
  4  5  1  0
  5  6  1  1
  5  1  1  0
  6  8  1  0
  7  6  2  0
  8  9  1  0
  9 10  1  0
 10 11  2  0
 10 16  1  0
 13 12  1  6
 13 15  1  0
 14 13  1  0
 15 17  1  0
 15 16  1  6
 17 18  2  0
 17 19  1  0
M  END
$$$$
