PGV.pdb
     RDKit          3D

 19 19  0  0  1  0  0  0  0  0999 V2000
   23.2515  -21.1464  -11.8370 N   0  0  0  0  0  0  0  0  0  0  0  0
   22.2514  -21.0456  -12.8734 C   0  0  0  0  0  0  0  0  0  0  0  0
   22.9764  -20.9192  -14.1868 C   0  0  0  0  0  0  0  0  0  0  0  0
   24.3541  -20.4670  -13.7400 C   0  0  0  0  0  0  0  0  0  0  0  0
   24.5292  -21.2786  -12.4651 C   0  0  1  0  0  0  0  0  0  0  0  0
   25.6293  -20.7151  -11.6246 C   0  0  0  0  0  0  0  0  0  0  0  0
   26.8191  -20.8023  -12.0302 O   0  0  0  0  0  0  0  0  0  0  0  0
   25.3888  -20.0849  -10.3869 N   0  0  0  0  0  0  0  0  0  0  0  0
   26.4578  -19.4407   -9.6704 C   0  0  0  0  0  0  0  0  0  0  0  0
   26.8520  -20.1604   -8.4402 C   0  0  0  0  0  0  0  0  0  0  0  0
   26.9493  -21.4360   -8.5142 O   0  0  0  0  0  0  0  0  0  0  0  0
   27.6929  -18.5600   -4.4988 C   0  0  0  0  0  0  0  0  0  0  0  0
   28.5309  -19.5993   -5.1711 C   0  0  2  0  0  0  0  0  0  0  0  0
   29.7341  -19.0137   -5.8796 C   0  0  0  0  0  0  0  0  0  0  0  0
   27.6716  -20.4130   -6.1325 C   0  0  2  0  0  0  0  0  0  0  0  0
   27.1292  -19.5717   -7.1871 N   0  0  0  0  0  0  0  0  0  0  0  0
   26.5152  -20.9072   -5.3453 C   0  0  0  0  0  0  0  0  0  0  0  0
   25.3913  -20.3802   -5.5313 O   0  0  0  0  0  0  0  0  0  0  0  0
   26.6030  -21.9243   -4.4093 O   0  0  0  0  0  0  0  0  0  0  0  0
  2  1  1  0
  3  4  1  0
  3  2  1  0
  4  5  1  0
  5  6  1  1
  5  1  1  0
  6  8  1  0
  7  6  2  0
  8  9  1  0
  9 10  1  0
 10 11  2  0
 10 16  1  0
 13 12  1  6
 13 15  1  0
 14 13  1  0
 15 17  1  0
 15 16  1  6
 17 18  2  0
 17 19  1  0
M  END
$$$$
