PGV.pdb
     RDKit          3D

 19 19  0  0  1  0  0  0  0  0999 V2000
   29.3692  -20.3081  -17.0327 N   0  0  0  0  0  0  0  0  0  0  0  0
   29.6103  -21.2773  -18.0751 C   0  0  0  0  0  0  0  0  0  0  0  0
   28.6447  -20.9851  -19.1926 C   0  0  0  0  0  0  0  0  0  0  0  0
   27.5883  -20.1586  -18.4835 C   0  0  0  0  0  0  0  0  0  0  0  0
   28.4481  -19.3365  -17.5349 C   0  0  1  0  0  0  0  0  0  0  0  0
   27.6149  -18.7378  -16.4480 C   0  0  0  0  0  0  0  0  0  0  0  0
   26.6113  -18.0407  -16.7559 O   0  0  0  0  0  0  0  0  0  0  0  0
   27.9079  -18.9221  -15.0816 N   0  0  0  0  0  0  0  0  0  0  0  0
   27.0163  -18.4277  -14.0658 C   0  0  0  0  0  0  0  0  0  0  0  0
   26.4420  -19.4981  -13.2226 C   0  0  0  0  0  0  0  0  0  0  0  0
   26.0066  -20.5442  -13.8210 O   0  0  0  0  0  0  0  0  0  0  0  0
   25.4117  -21.8054   -9.0084 C   0  0  0  0  0  0  0  0  0  0  0  0
   26.0213  -20.6048   -9.6574 C   0  0  2  0  0  0  0  0  0  0  0  0
   25.5747  -19.3050   -9.0224 C   0  0  0  0  0  0  0  0  0  0  0  0
   25.7192  -20.6165  -11.1519 C   0  0  2  0  0  0  0  0  0  0  0  0
   26.3255  -19.4737  -11.8156 N   0  0  0  0  0  0  0  0  0  0  0  0
   24.2502  -20.4550  -11.2838 C   0  0  0  0  0  0  0  0  0  0  0  0
   23.7905  -19.3147  -11.5365 O   0  0  0  0  0  0  0  0  0  0  0  0
   23.3485  -21.4969  -11.1435 O   0  0  0  0  0  0  0  0  0  0  0  0
  2  1  1  0
  3  4  1  0
  3  2  1  0
  4  5  1  0
  5  6  1  1
  5  1  1  0
  6  8  1  0
  7  6  2  0
  8  9  1  0
  9 10  1  0
 10 11  2  0
 10 16  1  0
 13 12  1  1
 13 15  1  0
 14 13  1  0
 15 17  1  0
 15 16  1  6
 17 18  2  0
 17 19  1  0
M  END
$$$$
