ASR.pdb
     RDKit          3D

 23 22  0  0  1  0  0  0  0  0999 V2000
    7.0161  -14.6666   13.5548 C   0  0  0  0  0  0  0  0  0  0  0  0
    7.4558  -15.5605   14.6948 C   0  0  2  0  0  0  0  0  0  0  0  0
    6.3238  -15.8887   15.5358 N   0  0  0  0  0  0  0  0  0  0  0  0
    8.4361  -14.7748   15.5161 C   0  0  0  0  0  0  0  0  0  0  0  0
    9.5556  -14.4617   15.0577 O   0  0  0  0  0  0  0  0  0  0  0  0
    7.7035  -14.1329   19.6870 O   0  0  0  0  0  0  0  0  0  0  0  0
    8.1867  -13.1133   18.8669 C   0  0  0  0  0  0  0  0  0  0  0  0
    9.0299  -13.7570   17.7571 C   0  0  2  0  0  0  0  0  0  0  0  0
    8.1250  -14.3611   16.8402 N   0  0  0  0  0  0  0  0  0  0  0  0
   10.0662  -14.6264   18.2895 C   0  0  0  0  0  0  0  0  0  0  0  0
    9.8500  -15.8473   18.4506 O   0  0  0  0  0  0  0  0  0  0  0  0
   16.9812  -12.7586   16.6392 N   0  0  0  0  0  0  0  0  0  0  0  0
   17.2722  -12.7822   18.0303 C   0  0  0  0  0  0  0  0  0  0  0  0
   18.2498  -12.1019   18.5522 N   0  0  0  0  0  0  0  0  0  0  0  0
   16.5017  -13.5579   18.9281 N   0  0  0  0  0  0  0  0  0  0  0  0
   16.2088  -14.9354   18.6038 C   0  0  0  0  0  0  0  0  0  0  0  0
   14.8663  -15.3544   19.1683 C   0  0  0  0  0  0  0  0  0  0  0  0
   13.7502  -14.4677   18.7484 C   0  0  0  0  0  0  0  0  0  0  0  0
   12.4120  -15.0156   19.1586 C   0  0  2  0  0  0  0  0  0  0  0  0
   11.3437  -14.1357   18.6425 N   0  0  0  0  0  0  0  0  0  0  0  0
   12.2428  -15.2460   20.5910 C   0  0  0  0  0  0  0  0  0  0  0  0
   11.5901  -14.5483   21.3970 O   0  0  0  0  0  0  0  0  0  0  0  0
   12.8734  -16.3723   21.1569 O   0  0  0  0  0  0  0  0  0  0  0  0
  2  1  1  6
  2  3  1  0
  4  2  1  0
  4  9  1  0
  5  4  2  0
  7  6  1  0
  8  9  1  0
  8  7  1  1
  8 10  1  0
 10 11  2  0
 10 20  1  0
 13 12  1  0
 13 14  2  0
 15 13  1  0
 16 17  1  0
 16 15  1  0
 18 17  1  0
 19 18  1  1
 20 19  1  0
 21 23  1  0
 21 19  1  0
 22 21  2  0
M  END
$$$$
