ASR.pdb
     RDKit          3D

 23 22  0  0  1  0  0  0  0  0999 V2000
    5.5426  -18.5405   18.5114 C   0  0  0  0  0  0  0  0  0  0  0  0
    6.3140  -17.4656   17.7756 C   0  0  2  0  0  0  0  0  0  0  0  0
    7.1641  -18.0637   16.7677 N   0  0  0  0  0  0  0  0  0  0  0  0
    7.1927  -16.7865   18.7854 C   0  0  0  0  0  0  0  0  0  0  0  0
    8.0709  -17.4223   19.4065 O   0  0  0  0  0  0  0  0  0  0  0  0
    8.2759  -12.4296   20.6696 O   0  0  0  0  0  0  0  0  0  0  0  0
    7.4140  -13.1905   19.8801 C   0  0  0  0  0  0  0  0  0  0  0  0
    7.8284  -14.6632   20.0094 C   0  0  2  0  0  0  0  0  0  0  0  0
    7.0559  -15.4000   19.0686 N   0  0  0  0  0  0  0  0  0  0  0  0
    7.7671  -15.1319   21.3841 C   0  0  0  0  0  0  0  0  0  0  0  0
    6.6769  -15.4775   21.8892 O   0  0  0  0  0  0  0  0  0  0  0  0
    6.6232  -19.3070   27.2369 N   0  0  0  0  0  0  0  0  0  0  0  0
    7.1217  -20.3330   26.3888 C   0  0  0  0  0  0  0  0  0  0  0  0
    6.4542  -21.4208   26.1399 N   0  0  0  0  0  0  0  0  0  0  0  0
    8.3864  -20.2195   25.7649 N   0  0  0  0  0  0  0  0  0  0  0  0
    8.4859  -19.5729   24.4763 C   0  0  0  0  0  0  0  0  0  0  0  0
    8.6416  -18.0733   24.6297 C   0  0  0  0  0  0  0  0  0  0  0  0
    8.7646  -17.3601   23.3319 C   0  0  0  0  0  0  0  0  0  0  0  0
    8.9090  -15.8755   23.5178 C   0  0  2  0  0  0  0  0  0  0  0  0
    8.9206  -15.2156   22.1964 N   0  0  0  0  0  0  0  0  0  0  0  0
   10.0581  -15.4537   24.3147 C   0  0  0  0  0  0  0  0  0  0  0  0
   11.1147  -14.9305   23.8997 O   0  0  0  0  0  0  0  0  0  0  0  0
    9.9991  -15.6447   25.7098 O   0  0  0  0  0  0  0  0  0  0  0  0
  2  1  1  1
  2  3  1  0
  4  2  1  0
  4  9  1  0
  5  4  2  0
  7  6  1  0
  8  9  1  0
  8  7  1  1
  8 10  1  0
 10 11  2  0
 10 20  1  0
 13 12  1  0
 13 14  2  0
 15 13  1  0
 16 17  1  0
 16 15  1  0
 18 17  1  0
 19 18  1  6
 20 19  1  0
 21 23  1  0
 21 19  1  0
 22 21  2  0
M  END
$$$$
