ASR.pdb
     RDKit          3D

 23 22  0  0  1  0  0  0  0  0999 V2000
    7.5146  -15.3962   15.1031 C   0  0  0  0  0  0  0  0  0  0  0  0
    7.3611  -13.9582   15.5507 C   0  0  2  0  0  0  0  0  0  0  0  0
    7.8640  -13.0623   14.5305 N   0  0  0  0  0  0  0  0  0  0  0  0
    8.2056  -13.7883   16.7799 C   0  0  0  0  0  0  0  0  0  0  0  0
    9.4393  -13.6098   16.6942 O   0  0  0  0  0  0  0  0  0  0  0  0
    6.7620  -15.1477   20.5522 O   0  0  0  0  0  0  0  0  0  0  0  0
    7.3179  -13.8735   20.4397 C   0  0  0  0  0  0  0  0  0  0  0  0
    8.3515  -13.9056   19.3049 C   0  0  2  0  0  0  0  0  0  0  0  0
    7.6317  -13.8246   18.0801 N   0  0  0  0  0  0  0  0  0  0  0  0
    9.2670  -15.0281   19.4280 C   0  0  0  0  0  0  0  0  0  0  0  0
    9.4514  -15.8056   18.4663 O   0  0  0  0  0  0  0  0  0  0  0  0
   16.2234  -13.5426   16.6181 N   0  0  0  0  0  0  0  0  0  0  0  0
   16.6653  -14.4377   17.6301 C   0  0  0  0  0  0  0  0  0  0  0  0
   17.8634  -14.9429   17.6427 N   0  0  0  0  0  0  0  0  0  0  0  0
   15.8113  -14.8283   18.6881 N   0  0  0  0  0  0  0  0  0  0  0  0
   14.4154  -14.4566   18.6467 C   0  0  0  0  0  0  0  0  0  0  0  0
   13.6387  -15.1310   19.7595 C   0  0  0  0  0  0  0  0  0  0  0  0
   12.1957  -14.7763   19.7668 C   0  0  0  0  0  0  0  0  0  0  0  0
   11.3909  -15.7130   20.6237 C   0  0  2  0  0  0  0  0  0  0  0  0
    9.9772  -15.2847   20.6226 N   0  0  0  0  0  0  0  0  0  0  0  0
   11.8765  -15.8837   21.9906 C   0  0  0  0  0  0  0  0  0  0  0  0
   11.5504  -15.2185   22.9973 O   0  0  0  0  0  0  0  0  0  0  0  0
   12.8184  -16.9037   22.2333 O   0  0  0  0  0  0  0  0  0  0  0  0
  2  1  1  6
  2  3  1  0
  4  2  1  0
  4  9  1  0
  5  4  2  0
  7  6  1  0
  8  9  1  0
  8  7  1  1
  8 10  1  0
 10 11  2  0
 10 20  1  0
 13 12  1  0
 13 14  2  0
 15 13  1  0
 16 17  1  0
 16 15  1  0
 18 17  1  0
 19 18  1  1
 20 19  1  0
 21 23  1  0
 21 19  1  0
 22 21  2  0
M  END
$$$$
