ASR.pdb
     RDKit          3D

 23 22  0  0  1  0  0  0  0  0999 V2000
    7.9452  -12.6530   19.2377 C   0  0  0  0  0  0  0  0  0  0  0  0
    8.1296  -14.0955   19.6583 C   0  0  2  0  0  0  0  0  0  0  0  0
    6.8427  -14.7477   19.7796 N   0  0  0  0  0  0  0  0  0  0  0  0
    8.7749  -14.0788   21.0135 C   0  0  0  0  0  0  0  0  0  0  0  0
    9.9433  -13.6629   21.1656 O   0  0  0  0  0  0  0  0  0  0  0  0
    6.5384  -15.3045   24.3814 O   0  0  0  0  0  0  0  0  0  0  0  0
    7.5419  -14.3406   24.4782 C   0  0  0  0  0  0  0  0  0  0  0  0
    8.6397  -14.6957   23.4654 C   0  0  2  0  0  0  0  0  0  0  0  0
    8.0801  -14.5345   22.1671 N   0  0  0  0  0  0  0  0  0  0  0  0
    9.2410  -15.9906   23.7392 C   0  0  0  0  0  0  0  0  0  0  0  0
    8.6888  -17.0424   23.3494 O   0  0  0  0  0  0  0  0  0  0  0  0
   12.7732  -17.9856   18.7845 N   0  0  0  0  0  0  0  0  0  0  0  0
   12.5680  -19.2681   19.3621 C   0  0  0  0  0  0  0  0  0  0  0  0
   12.3909  -20.3382   18.6449 N   0  0  0  0  0  0  0  0  0  0  0  0
   12.5459  -19.4458   20.7654 N   0  0  0  0  0  0  0  0  0  0  0  0
   12.7023  -18.2971   21.6282 C   0  0  0  0  0  0  0  0  0  0  0  0
   12.4783  -18.6711   23.0795 C   0  0  0  0  0  0  0  0  0  0  0  0
   12.4051  -17.4947   23.9844 C   0  0  0  0  0  0  0  0  0  0  0  0
   11.0898  -17.4232   24.7084 C   0  0  2  0  0  0  0  0  0  0  0  0
   10.4579  -16.1139   24.4474 N   0  0  0  0  0  0  0  0  0  0  0  0
   11.1503  -17.6894   26.1433 C   0  0  0  0  0  0  0  0  0  0  0  0
   10.8586  -16.9039   27.0708 O   0  0  0  0  0  0  0  0  0  0  0  0
   11.5817  -18.9648   26.5598 O   0  0  0  0  0  0  0  0  0  0  0  0
  2  1  1  1
  2  3  1  0
  4  2  1  0
  4  9  1  0
  5  4  2  0
  7  6  1  0
  8  9  1  0
  8  7  1  1
  8 10  1  0
 10 11  2  0
 10 20  1  0
 13 12  1  0
 13 14  2  0
 15 13  1  0
 16 17  1  0
 16 15  1  0
 18 17  1  0
 19 18  1  1
 20 19  1  0
 21 23  1  0
 21 19  1  0
 22 21  2  0
M  END
$$$$
