ASR.pdb
     RDKit          3D

 23 22  0  0  1  0  0  0  0  0999 V2000
    8.1030  -15.3725   17.6802 C   0  0  0  0  0  0  0  0  0  0  0  0
    7.6885  -14.1040   18.3949 C   0  0  2  0  0  0  0  0  0  0  0  0
    8.1524  -12.9447   17.6620 N   0  0  0  0  0  0  0  0  0  0  0  0
    8.3665  -14.1127   19.7340 C   0  0  0  0  0  0  0  0  0  0  0  0
    9.5283  -13.6736   19.8707 O   0  0  0  0  0  0  0  0  0  0  0  0
    6.6184  -16.2522   22.9080 O   0  0  0  0  0  0  0  0  0  0  0  0
    7.1219  -14.9778   23.1682 C   0  0  0  0  0  0  0  0  0  0  0  0
    8.2771  -14.7158   22.1914 C   0  0  2  0  0  0  0  0  0  0  0  0
    7.7113  -14.6197   20.8894 N   0  0  0  0  0  0  0  0  0  0  0  0
    9.3541  -15.6802   22.3439 C   0  0  0  0  0  0  0  0  0  0  0  0
    9.4561  -16.6477   21.5585 O   0  0  0  0  0  0  0  0  0  0  0  0
   17.9209  -15.1930   22.8430 N   0  0  0  0  0  0  0  0  0  0  0  0
   17.6216  -16.5768   22.9687 C   0  0  0  0  0  0  0  0  0  0  0  0
   18.5254  -17.5027   22.8391 N   0  0  0  0  0  0  0  0  0  0  0  0
   16.3071  -17.0212   23.2447 N   0  0  0  0  0  0  0  0  0  0  0  0
   15.2297  -16.0594   23.2959 C   0  0  0  0  0  0  0  0  0  0  0  0
   13.8904  -16.7497   23.4588 C   0  0  0  0  0  0  0  0  0  0  0  0
   12.7365  -15.8160   23.3899 C   0  0  0  0  0  0  0  0  0  0  0  0
   11.4232  -16.5343   23.5267 C   0  0  2  0  0  0  0  0  0  0  0  0
   10.3178  -15.5669   23.3714 N   0  0  0  0  0  0  0  0  0  0  0  0
   11.2598  -17.3111   24.7527 C   0  0  0  0  0  0  0  0  0  0  0  0
   10.6786  -16.9561   25.8008 O   0  0  0  0  0  0  0  0  0  0  0  0
   11.8075  -18.6092   24.7889 O   0  0  0  0  0  0  0  0  0  0  0  0
  2  1  1  6
  2  3  1  0
  4  2  1  0
  4  9  1  0
  5  4  2  0
  7  6  1  0
  8  9  1  0
  8  7  1  1
  8 10  1  0
 10 11  2  0
 10 20  1  0
 13 12  1  0
 13 14  2  0
 15 13  1  0
 16 17  1  0
 16 15  1  0
 18 17  1  0
 19 18  1  1
 20 19  1  0
 21 23  1  0
 21 19  1  0
 22 21  2  0
M  END
$$$$
