ASR.pdb
     RDKit          3D

 23 22  0  0  1  0  0  0  0  0999 V2000
   10.2007  -17.6726   17.9296 C   0  0  0  0  0  0  0  0  0  0  0  0
    9.1268  -18.0382   18.9320 C   0  0  2  0  0  0  0  0  0  0  0  0
    7.8183  -17.9333   18.3211 N   0  0  0  0  0  0  0  0  0  0  0  0
    9.2049  -17.0344   20.0452 C   0  0  0  0  0  0  0  0  0  0  0  0
   10.2371  -16.9224   20.7404 O   0  0  0  0  0  0  0  0  0  0  0  0
    5.8046  -14.6773   20.9253 O   0  0  0  0  0  0  0  0  0  0  0  0
    7.0853  -14.1287   20.9899 C   0  0  0  0  0  0  0  0  0  0  0  0
    8.0564  -15.2400   21.4133 C   0  0  2  0  0  0  0  0  0  0  0  0
    8.1097  -16.1791   20.3457 N   0  0  0  0  0  0  0  0  0  0  0  0
    7.7296  -15.7856   22.7205 C   0  0  0  0  0  0  0  0  0  0  0  0
    6.7325  -16.5252   22.8688 O   0  0  0  0  0  0  0  0  0  0  0  0
    6.4208  -21.3637   26.4721 N   0  0  0  0  0  0  0  0  0  0  0  0
    6.9762  -20.8866   27.6905 C   0  0  0  0  0  0  0  0  0  0  0  0
    6.9741  -21.5911   28.7834 N   0  0  0  0  0  0  0  0  0  0  0  0
    7.5669  -19.6039   27.7750 N   0  0  0  0  0  0  0  0  0  0  0  0
    7.4924  -18.7128   26.6398 C   0  0  0  0  0  0  0  0  0  0  0  0
    8.8156  -18.6566   25.9034 C   0  0  0  0  0  0  0  0  0  0  0  0
    8.7870  -17.7695   24.7116 C   0  0  0  0  0  0  0  0  0  0  0  0
    8.4655  -16.3474   25.0769 C   0  0  2  0  0  0  0  0  0  0  0  0
    8.5138  -15.5073   23.8629 N   0  0  0  0  0  0  0  0  0  0  0  0
    9.2911  -15.7714   26.1352 C   0  0  0  0  0  0  0  0  0  0  0  0
    9.2985  -16.0872   27.3446 O   0  0  0  0  0  0  0  0  0  0  0  0
   10.1894  -14.7433   25.7852 O   0  0  0  0  0  0  0  0  0  0  0  0
  2  1  1  6
  2  3  1  0
  4  2  1  0
  4  9  1  0
  5  4  2  0
  7  6  1  0
  8  9  1  0
  8  7  1  6
  8 10  1  0
 10 11  2  0
 10 20  1  0
 13 12  1  0
 13 14  2  0
 15 13  1  0
 16 17  1  0
 16 15  1  0
 18 17  1  0
 19 18  1  6
 20 19  1  0
 21 23  1  0
 21 19  1  0
 22 21  2  0
M  END
$$$$
