MQK.pdb
     RDKit          3D

 27 26  0  0  1  0  0  0  0  0999 V2000
   26.7802  -18.8781   -6.9833 C   0  0  0  0  0  0  0  0  0  0  0  0
   28.2987  -19.5259   -7.6878 S   0  0  0  0  0  0  0  0  0  0  0  0
   27.9601  -20.7874   -8.9506 C   0  0  0  0  0  0  0  0  0  0  0  0
   26.6590  -20.4921   -9.6142 C   0  0  0  0  0  0  0  0  0  0  0  0
   26.2605  -21.5034  -10.6366 C   0  0  2  0  0  0  0  0  0  0  0  0
   27.4052  -21.8344  -11.4586 N   0  0  0  0  0  0  0  0  0  0  0  0
   25.1920  -20.9424  -11.5083 C   0  0  0  0  0  0  0  0  0  0  0  0
   24.0479  -20.6300  -11.0357 O   0  0  0  0  0  0  0  0  0  0  0  0
   26.3540  -19.0464  -16.9901 N   0  0  0  0  0  0  0  0  0  0  0  0
   25.4400  -18.0517  -16.5480 C   0  0  0  0  0  0  0  0  0  0  0  0
   25.4190  -16.9382  -17.0951 O   0  0  0  0  0  0  0  0  0  0  0  0
   24.5310  -18.4063  -15.4217 C   0  0  0  0  0  0  0  0  0  0  0  0
   24.7150  -19.8455  -15.1030 C   0  0  0  0  0  0  0  0  0  0  0  0
   24.2806  -20.3099  -13.7731 C   0  0  2  0  0  0  0  0  0  0  0  0
   25.3671  -20.7193  -12.9022 N   0  0  0  0  0  0  0  0  0  0  0  0
   23.2084  -21.3673  -13.8045 C   0  0  0  0  0  0  0  0  0  0  0  0
   23.5491  -22.5709  -13.9136 O   0  0  0  0  0  0  0  0  0  0  0  0
   21.8695  -20.9659  -13.7100 N   0  0  0  0  0  0  0  0  0  0  0  0
   20.6800  -21.7423  -13.7647 C   0  0  1  0  0  0  0  0  0  0  0  0
   19.8008  -21.5753  -12.5749 C   0  0  0  0  0  0  0  0  0  0  0  0
   18.5672  -22.4176  -12.6746 C   0  0  0  0  0  0  0  0  0  0  0  0
   17.7268  -22.2809  -11.4076 C   0  0  0  0  0  0  0  0  0  0  0  0
   16.6010  -23.3045  -11.5522 C   0  0  0  0  0  0  0  0  0  0  0  0
   15.8018  -23.3337  -10.3365 N   0  0  0  0  0  0  0  0  0  0  0  0
   19.9738  -21.6002  -15.0496 C   0  0  0  0  0  0  0  0  0  0  0  0
   19.8323  -20.5266  -15.6484 O   0  0  0  0  0  0  0  0  0  0  0  0
   19.4327  -22.7443  -15.6247 O   0  0  0  0  0  0  0  0  0  0  0  0
  2  1  1  0
  3  4  1  0
  3  2  1  0
  4  5  1  0
  5  6  1  6
  7  5  1  0
  8  7  2  0
 10  9  1  0
 11 10  2  0
 12 10  1  0
 14 13  1  6
 13 12  1  0
 14 15  1  0
 15  7  1  0
 16 14  1  0
 17 16  2  0
 18 16  1  0
 19 25  1  0
 19 18  1  0
 19 20  1  1
 21 20  1  0
 22 21  1  0
 22 23  1  0
 23 24  1  0
 25 27  1  0
 26 25  2  0
M  END
$$$$
