MQK.pdb
     RDKit          3D

 27 26  0  0  1  0  0  0  0  0999 V2000
   23.0201  -22.1442   -6.9249 C   0  0  0  0  0  0  0  0  0  0  0  0
   23.6886  -21.6511   -8.5162 S   0  0  0  0  0  0  0  0  0  0  0  0
   25.0254  -20.4355   -8.3273 C   0  0  0  0  0  0  0  0  0  0  0  0
   25.4302  -19.9269   -9.6682 C   0  0  0  0  0  0  0  0  0  0  0  0
   25.8551  -20.9983  -10.6161 C   0  0  2  0  0  0  0  0  0  0  0  0
   27.2403  -21.3386  -10.3692 N   0  0  0  0  0  0  0  0  0  0  0  0
   25.7250  -20.5104  -12.0167 C   0  0  0  0  0  0  0  0  0  0  0  0
   26.3240  -19.4530  -12.4078 O   0  0  0  0  0  0  0  0  0  0  0  0
   26.4602  -23.3143  -17.0878 N   0  0  0  0  0  0  0  0  0  0  0  0
   27.4577  -22.6429  -16.3299 C   0  0  0  0  0  0  0  0  0  0  0  0
   28.6563  -22.9164  -16.4977 O   0  0  0  0  0  0  0  0  0  0  0  0
   27.0012  -21.6191  -15.3480 C   0  0  0  0  0  0  0  0  0  0  0  0
   25.5159  -21.5951  -15.3487 C   0  0  0  0  0  0  0  0  0  0  0  0
   24.8481  -20.7155  -14.3723 C   0  0  2  0  0  0  0  0  0  0  0  0
   24.9392  -21.1750  -12.9985 N   0  0  0  0  0  0  0  0  0  0  0  0
   23.4219  -20.3755  -14.7168 C   0  0  0  0  0  0  0  0  0  0  0  0
   22.4963  -21.0216  -14.1666 O   0  0  0  0  0  0  0  0  0  0  0  0
   23.1826  -19.3488  -15.6395 N   0  0  0  0  0  0  0  0  0  0  0  0
   21.9529  -18.7833  -16.0741 C   0  0  1  0  0  0  0  0  0  0  0  0
   22.1129  -17.5086  -16.8265 C   0  0  0  0  0  0  0  0  0  0  0  0
   20.7941  -16.9606  -17.2754 C   0  0  0  0  0  0  0  0  0  0  0  0
   21.0023  -15.7431  -18.1724 C   0  0  0  0  0  0  0  0  0  0  0  0
   19.5994  -15.2804  -18.5646 C   0  0  0  0  0  0  0  0  0  0  0  0
   19.6869  -14.0838  -19.3881 N   0  0  0  0  0  0  0  0  0  0  0  0
   21.0886  -19.7668  -16.7491 C   0  0  0  0  0  0  0  0  0  0  0  0
   21.4916  -20.5884  -17.5820 O   0  0  0  0  0  0  0  0  0  0  0  0
   19.7356  -19.7715  -16.4297 O   0  0  0  0  0  0  0  0  0  0  0  0
  2  1  1  0
  3  4  1  0
  3  2  1  0
  4  5  1  0
  5  6  1  1
  7  5  1  0
  8  7  2  0
 10  9  1  0
 11 10  2  0
 12 10  1  0
 14 13  1  6
 13 12  1  0
 14 15  1  0
 15  7  1  0
 16 14  1  0
 17 16  2  0
 18 16  1  0
 19 25  1  0
 19 18  1  0
 19 20  1  6
 21 20  1  0
 22 21  1  0
 22 23  1  0
 23 24  1  0
 25 27  1  0
 26 25  2  0
M  END
$$$$
