MQK.pdb
     RDKit          3D

 27 26  0  0  1  0  0  0  0  0999 V2000
   27.0627  -17.7203   -7.7825 C   0  0  0  0  0  0  0  0  0  0  0  0
   27.2107  -19.2285   -6.8205 S   0  0  0  0  0  0  0  0  0  0  0  0
   26.7357  -20.6869   -7.7943 C   0  0  0  0  0  0  0  0  0  0  0  0
   26.6564  -20.3196   -9.2363 C   0  0  0  0  0  0  0  0  0  0  0  0
   26.2421  -21.4458  -10.1233 C   0  0  2  0  0  0  0  0  0  0  0  0
   27.2518  -22.4826  -10.0892 N   0  0  0  0  0  0  0  0  0  0  0  0
   26.1044  -20.9582  -11.5232 C   0  0  0  0  0  0  0  0  0  0  0  0
   27.1297  -20.6828  -12.2322 O   0  0  0  0  0  0  0  0  0  0  0  0
   25.1709  -24.2806  -14.7641 N   0  0  0  0  0  0  0  0  0  0  0  0
   23.8600  -24.0711  -14.2563 C   0  0  0  0  0  0  0  0  0  0  0  0
   23.1266  -25.0404  -14.0072 O   0  0  0  0  0  0  0  0  0  0  0  0
   23.4229  -22.6623  -14.0439 C   0  0  0  0  0  0  0  0  0  0  0  0
   24.5540  -21.7617  -14.3844 C   0  0  0  0  0  0  0  0  0  0  0  0
   24.7130  -20.5344  -13.5833 C   0  0  2  0  0  0  0  0  0  0  0  0
   24.8452  -20.7685  -12.1570 N   0  0  0  0  0  0  0  0  0  0  0  0
   23.6682  -19.4819  -13.8462 C   0  0  0  0  0  0  0  0  0  0  0  0
   22.6235  -19.4796  -13.1495 O   0  0  0  0  0  0  0  0  0  0  0  0
   23.9034  -18.5438  -14.8597 N   0  0  0  0  0  0  0  0  0  0  0  0
   22.9821  -17.7610  -15.6078 C   0  0  1  0  0  0  0  0  0  0  0  0
   23.5879  -17.0926  -16.7921 C   0  0  0  0  0  0  0  0  0  0  0  0
   22.6220  -16.1630  -17.4583 C   0  0  0  0  0  0  0  0  0  0  0  0
   23.2537  -15.5419  -18.7015 C   0  0  0  0  0  0  0  0  0  0  0  0
   22.2012  -14.5841  -19.2590 C   0  0  0  0  0  0  0  0  0  0  0  0
   22.7464  -13.8609  -20.3980 N   0  0  0  0  0  0  0  0  0  0  0  0
   21.7385  -18.4907  -15.9092 C   0  0  0  0  0  0  0  0  0  0  0  0
   21.6992  -19.5903  -16.4754 O   0  0  0  0  0  0  0  0  0  0  0  0
   20.5342  -17.9066  -15.5337 O   0  0  0  0  0  0  0  0  0  0  0  0
  2  1  1  0
  3  4  1  0
  3  2  1  0
  4  5  1  0
  5  6  1  6
  7  5  1  0
  8  7  2  0
 10  9  1  0
 11 10  2  0
 12 10  1  0
 14 13  1  6
 13 12  1  0
 14 15  1  0
 15  7  1  0
 16 14  1  0
 17 16  2  0
 18 16  1  0
 19 25  1  0
 19 18  1  0
 19 20  1  6
 21 20  1  0
 22 21  1  0
 22 23  1  0
 23 24  1  0
 25 27  1  0
 26 25  2  0
M  END
$$$$
