MQK.pdb
     RDKit          3D

 27 26  0  0  1  0  0  0  0  0999 V2000
   21.6508  -18.6212   -9.7369 C   0  0  0  0  0  0  0  0  0  0  0  0
   20.4838  -19.7012   -8.9040 S   0  0  0  0  0  0  0  0  0  0  0  0
   20.3290  -21.2970   -9.7584 C   0  0  0  0  0  0  0  0  0  0  0  0
   19.3996  -22.1808   -8.9997 C   0  0  0  0  0  0  0  0  0  0  0  0
   19.2792  -23.5564   -9.5657 C   0  0  2  0  0  0  0  0  0  0  0  0
   18.7530  -23.4791  -10.9121 N   0  0  0  0  0  0  0  0  0  0  0  0
   18.3449  -24.3623   -8.7327 C   0  0  0  0  0  0  0  0  0  0  0  0
   17.0809  -24.2889   -8.8961 O   0  0  0  0  0  0  0  0  0  0  0  0
   18.4262  -30.0729   -7.3062 N   0  0  0  0  0  0  0  0  0  0  0  0
   17.9224  -29.4843   -8.4978 C   0  0  0  0  0  0  0  0  0  0  0  0
   17.7060  -30.1880   -9.4966 O   0  0  0  0  0  0  0  0  0  0  0  0
   17.6738  -28.0150   -8.4860 C   0  0  0  0  0  0  0  0  0  0  0  0
   17.9774  -27.4968   -7.1273 C   0  0  0  0  0  0  0  0  0  0  0  0
   17.8697  -26.0423   -6.9129 C   0  0  2  0  0  0  0  0  0  0  0  0
   18.7862  -25.2536   -7.7158 N   0  0  0  0  0  0  0  0  0  0  0  0
   17.9431  -25.6206   -5.4689 C   0  0  0  0  0  0  0  0  0  0  0  0
   19.0665  -25.3636   -4.9703 O   0  0  0  0  0  0  0  0  0  0  0  0
   16.7522  -25.5307   -4.7365 N   0  0  0  0  0  0  0  0  0  0  0  0
   16.5376  -25.1132   -3.3946 C   0  0  1  0  0  0  0  0  0  0  0  0
   15.3946  -24.1725   -3.2358 C   0  0  0  0  0  0  0  0  0  0  0  0
   15.2668  -23.6887   -1.8249 C   0  0  0  0  0  0  0  0  0  0  0  0
   14.0655  -22.7565   -1.6898 C   0  0  0  0  0  0  0  0  0  0  0  0
   14.0269  -22.3516   -0.2164 C   0  0  0  0  0  0  0  0  0  0  0  0
   12.8576  -21.5233    0.0369 N   0  0  0  0  0  0  0  0  0  0  0  0
   16.5116  -26.2438   -2.4508 C   0  0  0  0  0  0  0  0  0  0  0  0
   16.0766  -27.3688   -2.7276 O   0  0  0  0  0  0  0  0  0  0  0  0
   17.0071  -26.0330   -1.1692 O   0  0  0  0  0  0  0  0  0  0  0  0
  2  1  1  0
  3  4  1  0
  3  2  1  0
  4  5  1  0
  5  6  1  6
  7  5  1  0
  8  7  2  0
 10  9  1  0
 11 10  2  0
 12 10  1  0
 14 13  1  1
 13 12  1  0
 14 15  1  0
 15  7  1  0
 16 14  1  0
 17 16  2  0
 18 16  1  0
 19 25  1  0
 19 18  1  0
 19 20  1  6
 21 20  1  0
 22 21  1  0
 22 23  1  0
 23 24  1  0
 25 27  1  0
 26 25  2  0
M  END
$$$$
