MQK.pdb
     RDKit          3D

 27 26  0  0  1  0  0  0  0  0999 V2000
   20.3590  -13.4025    3.8799 C   0  0  0  0  0  0  0  0  0  0  0  0
   19.4292  -11.8949    4.1711 S   0  0  0  0  0  0  0  0  0  0  0  0
   17.6426  -12.1708    3.9905 C   0  0  0  0  0  0  0  0  0  0  0  0
   17.2716  -13.4675    4.6240 C   0  0  0  0  0  0  0  0  0  0  0  0
   15.8191  -13.7941    4.5227 C   0  0  2  0  0  0  0  0  0  0  0  0
   15.0637  -12.9005    5.3752 N   0  0  0  0  0  0  0  0  0  0  0  0
   15.5865  -15.1942    4.9722 C   0  0  0  0  0  0  0  0  0  0  0  0
   15.3044  -15.4609    6.1884 O   0  0  0  0  0  0  0  0  0  0  0  0
   15.7004  -20.2985    1.4255 N   0  0  0  0  0  0  0  0  0  0  0  0
   15.6447  -20.9651    2.6796 C   0  0  0  0  0  0  0  0  0  0  0  0
   15.5487  -22.2014    2.7238 O   0  0  0  0  0  0  0  0  0  0  0  0
   15.7060  -20.1236    3.9079 C   0  0  0  0  0  0  0  0  0  0  0  0
   15.6792  -18.6949    3.5020 C   0  0  0  0  0  0  0  0  0  0  0  0
   15.6957  -17.6818    4.5727 C   0  0  2  0  0  0  0  0  0  0  0  0
   15.6608  -16.3117    4.0952 N   0  0  0  0  0  0  0  0  0  0  0  0
   16.8043  -17.8579    5.5769 C   0  0  0  0  0  0  0  0  0  0  0  0
   17.9759  -17.5524    5.2440 O   0  0  0  0  0  0  0  0  0  0  0  0
   16.4845  -18.3564    6.8465 N   0  0  0  0  0  0  0  0  0  0  0  0
   17.3285  -18.6258    7.9583 C   0  0  1  0  0  0  0  0  0  0  0  0
   17.2133  -17.6245    9.0540 C   0  0  0  0  0  0  0  0  0  0  0  0
   18.1376  -17.9365   10.1895 C   0  0  0  0  0  0  0  0  0  0  0  0
   17.9625  -16.9174   11.3125 C   0  0  0  0  0  0  0  0  0  0  0  0
   19.0127  -17.2817   12.3615 C   0  0  0  0  0  0  0  0  0  0  0  0
   18.8828  -16.4038   13.5148 N   0  0  0  0  0  0  0  0  0  0  0  0
   17.2268  -20.0220    8.4166 C   0  0  0  0  0  0  0  0  0  0  0  0
   16.2137  -20.7214    8.2910 O   0  0  0  0  0  0  0  0  0  0  0  0
   18.3390  -20.5886    9.0285 O   0  0  0  0  0  0  0  0  0  0  0  0
  2  1  1  0
  3  4  1  0
  3  2  1  0
  4  5  1  0
  5  6  1  1
  7  5  1  0
  8  7  2  0
 10  9  1  0
 11 10  2  0
 12 10  1  0
 14 13  1  6
 13 12  1  0
 14 15  1  0
 15  7  1  0
 16 14  1  0
 17 16  2  0
 18 16  1  0
 19 25  1  0
 19 18  1  0
 19 20  1  1
 21 20  1  0
 22 21  1  0
 22 23  1  0
 23 24  1  0
 25 27  1  0
 26 25  2  0
M  END
$$$$
