MQK.pdb
     RDKit          3D

 27 26  0  0  1  0  0  0  0  0999 V2000
   29.7666  -21.0500   -6.8534 C   0  0  0  0  0  0  0  0  0  0  0  0
   28.6666  -19.9759   -5.9270 S   0  0  0  0  0  0  0  0  0  0  0  0
   26.9859  -19.9921   -6.6164 C   0  0  0  0  0  0  0  0  0  0  0  0
   27.0518  -20.2313   -8.0858 C   0  0  0  0  0  0  0  0  0  0  0  0
   25.7397  -20.0807   -8.7805 C   0  0  2  0  0  0  0  0  0  0  0  0
   24.7921  -21.0271   -8.2309 N   0  0  0  0  0  0  0  0  0  0  0  0
   25.9058  -20.3593  -10.2335 C   0  0  0  0  0  0  0  0  0  0  0  0
   26.8912  -19.8828  -10.8906 O   0  0  0  0  0  0  0  0  0  0  0  0
   25.1715  -24.9503  -14.0552 N   0  0  0  0  0  0  0  0  0  0  0  0
   23.8859  -24.3628  -14.2043 C   0  0  0  0  0  0  0  0  0  0  0  0
   22.9774  -24.9886  -14.7722 O   0  0  0  0  0  0  0  0  0  0  0  0
   23.6903  -22.9906  -13.6568 C   0  0  0  0  0  0  0  0  0  0  0  0
   24.9485  -22.5650  -12.9917 C   0  0  0  0  0  0  0  0  0  0  0  0
   24.9948  -21.2036  -12.4283 C   0  0  2  0  0  0  0  0  0  0  0  0
   24.9958  -21.1603  -10.9775 N   0  0  0  0  0  0  0  0  0  0  0  0
   23.9507  -20.2681  -12.9789 C   0  0  0  0  0  0  0  0  0  0  0  0
   22.8540  -20.1637  -12.3762 O   0  0  0  0  0  0  0  0  0  0  0  0
   24.2445  -19.5486  -14.1445 N   0  0  0  0  0  0  0  0  0  0  0  0
   23.4226  -18.6738  -14.9063 C   0  0  1  0  0  0  0  0  0  0  0  0
   24.1697  -17.8862  -15.9251 C   0  0  0  0  0  0  0  0  0  0  0  0
   23.2635  -16.9802  -16.6991 C   0  0  0  0  0  0  0  0  0  0  0  0
   24.0412  -16.2671  -17.8023 C   0  0  0  0  0  0  0  0  0  0  0  0
   23.0148  -15.3984  -18.5290 C   0  0  0  0  0  0  0  0  0  0  0  0
   23.6404  -14.7453  -19.6691 N   0  0  0  0  0  0  0  0  0  0  0  0
   22.2248  -19.3470  -15.4373 C   0  0  0  0  0  0  0  0  0  0  0  0
   22.2446  -20.4338  -16.0286 O   0  0  0  0  0  0  0  0  0  0  0  0
   20.9957  -18.7216  -15.2625 O   0  0  0  0  0  0  0  0  0  0  0  0
  2  1  1  0
  3  4  1  0
  3  2  1  0
  4  5  1  0
  5  6  1  1
  7  5  1  0
  8  7  2  0
 10  9  1  0
 11 10  2  0
 12 10  1  0
 14 13  1  1
 13 12  1  0
 14 15  1  0
 15  7  1  0
 16 14  1  0
 17 16  2  0
 18 16  1  0
 19 25  1  0
 19 18  1  0
 19 20  1  6
 21 20  1  0
 22 21  1  0
 22 23  1  0
 23 24  1  0
 25 27  1  0
 26 25  2  0
M  END
$$$$
