RGW.pdb
     RDKit          3D

 30 31  0  0  1  0  0  0  0  0999 V2000
   11.8800  -21.6120   13.5591 N   0  0  0  0  0  0  0  0  0  0  0  0
   11.8490  -20.5480   14.5061 C   0  0  0  0  0  0  0  0  0  0  0  0
   10.9937  -19.5960   14.3531 N   0  0  0  0  0  0  0  0  0  0  0  0
   12.7459  -20.5212   15.6155 N   0  0  0  0  0  0  0  0  0  0  0  0
   12.7271  -19.4063   16.5737 C   0  0  0  0  0  0  0  0  0  0  0  0
   11.7120  -19.6374   17.6478 C   0  0  0  0  0  0  0  0  0  0  0  0
   11.7229  -18.6542   18.7711 C   0  0  0  0  0  0  0  0  0  0  0  0
   10.6717  -18.8256   19.8121 C   0  0  2  0  0  0  0  0  0  0  0  0
    9.3394  -18.9783   19.2749 N   0  0  0  0  0  0  0  0  0  0  0  0
   10.6506  -17.7392   20.8123 C   0  0  0  0  0  0  0  0  0  0  0  0
   11.7264  -17.4173   21.3681 O   0  0  0  0  0  0  0  0  0  0  0  0
   10.9655  -18.8060   15.0155 N   0  0  0  0  0  0  0  0  0  0  0  0
    9.4794  -17.0368   21.1812 C   0  0  0  0  0  0  0  0  0  0  0  0
    9.3914  -16.0109   22.1684 C   0  0  0  0  0  0  0  0  0  0  0  0
    9.5651  -16.5052   23.5613 O   0  0  0  0  0  0  0  0  0  0  0  0
    9.3533  -17.6681   23.9297 N   0  0  0  0  0  0  0  0  0  0  0  0
   10.0079  -15.5524   24.5236 C   0  0  2  0  0  0  0  0  0  0  0  0
   10.1357  -15.8335   25.9335 C   0  0  0  0  0  0  0  0  0  0  0  0
    8.8368  -16.2796   26.5412 C   0  0  0  0  0  0  0  0  0  0  0  0
    7.7336  -15.3908   26.1597 C   0  0  0  0  0  0  0  0  0  0  0  0
    6.5608  -15.8433   25.5678 N   0  0  0  0  0  0  0  0  0  0  0  0
    5.7496  -14.8068   25.3358 C   0  0  0  0  0  0  0  0  0  0  0  0
    6.3453  -13.6805   25.7544 C   0  0  0  0  0  0  0  0  0  0  0  0
    5.9105  -12.3712   25.7286 C   0  0  0  0  0  0  0  0  0  0  0  0
    6.7513  -11.3883   26.2389 C   0  0  0  0  0  0  0  0  0  0  0  0
    7.9760  -11.7518   26.7471 C   0  0  0  0  0  0  0  0  0  0  0  0
    8.4139  -13.0722   26.7729 C   0  0  0  0  0  0  0  0  0  0  0  0
    7.5813  -14.0303   26.2696 C   0  0  0  0  0  0  0  0  0  0  0  0
   11.2641  -16.7479   26.2075 O   0  0  0  0  0  0  0  0  0  0  0  0
   11.4665  -17.2321   27.3492 O   0  0  0  0  0  0  0  0  0  0  0  0
  2  3  2  0
  2  1  1  0
  4  2  1  0
  5  4  1  0
  6  5  1  0
  7  6  1  0
  7  8  1  0
  8  9  1  6
 10  8  1  0
 10 12  1  0
 11 10  2  0
 13 12  1  0
 14 13  1  0
 15 14  2  0
 16 14  1  0
 17 28  1  0
 17 16  1  0
 17 18  1  6
 19 18  1  0
 20 19  2  0
 21 22  1  0
 21 20  1  0
 22 27  2  0
 23 22  1  0
 23 24  2  0
 24 25  1  0
 25 26  2  0
 27 19  1  0
 27 26  1  0
 28 30  1  0
 29 28  2  0
M  END
$$$$
