RGW.pdb
     RDKit          3D

 30 31  0  0  1  0  0  0  0  0999 V2000
    7.9834  -14.5985   17.1587 N   0  0  0  0  0  0  0  0  0  0  0  0
    7.7213  -13.4833   18.0057 C   0  0  0  0  0  0  0  0  0  0  0  0
    7.4101  -12.3509   17.4747 N   0  0  0  0  0  0  0  0  0  0  0  0
    7.7975  -13.6013   19.4256 N   0  0  0  0  0  0  0  0  0  0  0  0
    9.0198  -14.0946   20.0769 C   0  0  0  0  0  0  0  0  0  0  0  0
    9.2514  -15.5386   19.7625 C   0  0  0  0  0  0  0  0  0  0  0  0
   10.4553  -16.1539   20.3952 C   0  0  0  0  0  0  0  0  0  0  0  0
   10.2395  -17.4346   21.1242 C   0  0  2  0  0  0  0  0  0  0  0  0
    8.8828  -17.6219   21.5834 N   0  0  0  0  0  0  0  0  0  0  0  0
   11.1510  -17.6202   22.2713 C   0  0  0  0  0  0  0  0  0  0  0  0
   12.3839  -17.5047   22.0800 O   0  0  0  0  0  0  0  0  0  0  0  0
    7.1847  -11.5384   18.0686 N   0  0  0  0  0  0  0  0  0  0  0  0
   10.7103  -17.9223   23.5811 C   0  0  0  0  0  0  0  0  0  0  0  0
   10.4674  -16.9797   24.6237 C   0  0  0  0  0  0  0  0  0  0  0  0
   10.0168  -17.6015   25.8986 O   0  0  0  0  0  0  0  0  0  0  0  0
   10.7716  -18.0028   26.7943 N   0  0  0  0  0  0  0  0  0  0  0  0
    8.6098  -17.7344   26.0787 C   0  0  2  0  0  0  0  0  0  0  0  0
    7.6284  -17.0148   25.3028 C   0  0  0  0  0  0  0  0  0  0  0  0
    8.1312  -15.6699   24.8624 C   0  0  0  0  0  0  0  0  0  0  0  0
    7.9597  -14.6627   25.9154 C   0  0  0  0  0  0  0  0  0  0  0  0
    8.3044  -14.8830   27.2433 N   0  0  0  0  0  0  0  0  0  0  0  0
    8.0320  -13.7895   27.9620 C   0  0  0  0  0  0  0  0  0  0  0  0
    7.5178  -12.8502   27.1547 C   0  0  0  0  0  0  0  0  0  0  0  0
    7.0862  -11.5684   27.4286 C   0  0  0  0  0  0  0  0  0  0  0  0
    6.5894  -10.8029   26.3795 C   0  0  0  0  0  0  0  0  0  0  0  0
    6.5459  -11.3448   25.1166 C   0  0  0  0  0  0  0  0  0  0  0  0
    6.9813  -12.6371   24.8410 C   0  0  0  0  0  0  0  0  0  0  0  0
    7.4674  -13.3811   25.8776 C   0  0  0  0  0  0  0  0  0  0  0  0
    7.0942  -17.8393   24.1986 O   0  0  0  0  0  0  0  0  0  0  0  0
    7.8462  -18.4018   23.3636 O   0  0  0  0  0  0  0  0  0  0  0  0
  2  3  2  0
  2  1  1  0
  4  2  1  0
  5  4  1  0
  6  5  1  0
  7  6  1  0
  7  8  1  0
  8  9  1  1
 10  8  1  0
 10 12  1  0
 11 10  2  0
 13 12  1  0
 14 13  1  0
 15 14  2  0
 16 14  1  0
 17 28  1  0
 17 16  1  0
 17 18  1  1
 19 18  1  0
 20 19  2  0
 21 22  1  0
 21 20  1  0
 22 27  2  0
 23 22  1  0
 23 24  2  0
 24 25  1  0
 25 26  2  0
 27 19  1  0
 27 26  1  0
 28 30  1  0
 29 28  2  0
M  END
$$$$
