RGW.pdb
     RDKit          3D

 30 31  0  0  1  0  0  0  0  0999 V2000
    6.9286  -13.6621   16.5312 N   0  0  0  0  0  0  0  0  0  0  0  0
    7.5254  -13.5600   17.8208 C   0  0  0  0  0  0  0  0  0  0  0  0
    7.6523  -12.3980   18.3638 N   0  0  0  0  0  0  0  0  0  0  0  0
    7.9819  -14.7192   18.5165 N   0  0  0  0  0  0  0  0  0  0  0  0
    7.7508  -16.0652   17.9722 C   0  0  0  0  0  0  0  0  0  0  0  0
    7.3521  -17.0207   19.0517 C   0  0  0  0  0  0  0  0  0  0  0  0
    8.4343  -17.9177   19.5546 C   0  0  0  0  0  0  0  0  0  0  0  0
    8.6620  -17.9209   21.0264 C   0  0  2  0  0  0  0  0  0  0  0  0
    7.4535  -17.7693   21.8031 N   0  0  0  0  0  0  0  0  0  0  0  0
    9.6357  -16.9046   21.4739 C   0  0  0  0  0  0  0  0  0  0  0  0
    9.9423  -15.9817   20.6840 O   0  0  0  0  0  0  0  0  0  0  0  0
    8.0807  -12.3000   19.2968 N   0  0  0  0  0  0  0  0  0  0  0  0
   10.2457  -16.9128   22.7502 C   0  0  0  0  0  0  0  0  0  0  0  0
   11.2040  -15.9710   23.2290 C   0  0  0  0  0  0  0  0  0  0  0  0
   11.4808  -16.0882   24.6865 O   0  0  0  0  0  0  0  0  0  0  0  0
   12.4927  -15.6517   25.2508 N   0  0  0  0  0  0  0  0  0  0  0  0
   10.4950  -16.7558   25.4692 C   0  0  1  0  0  0  0  0  0  0  0  0
   10.3038  -16.5326   26.8823 C   0  0  0  0  0  0  0  0  0  0  0  0
    9.7138  -15.1812   27.1666 C   0  0  0  0  0  0  0  0  0  0  0  0
    8.5078  -14.9439   26.3654 C   0  0  0  0  0  0  0  0  0  0  0  0
    7.7569  -15.9662   25.7982 N   0  0  0  0  0  0  0  0  0  0  0  0
    6.7252  -15.4431   25.1288 C   0  0  0  0  0  0  0  0  0  0  0  0
    6.7662  -14.1067   25.2330 C   0  0  0  0  0  0  0  0  0  0  0  0
    5.9270  -13.1393   24.7189 C   0  0  0  0  0  0  0  0  0  0  0  0
    6.2154  -11.8063   24.9898 C   0  0  0  0  0  0  0  0  0  0  0  0
    7.3170  -11.5010   25.7538 C   0  0  0  0  0  0  0  0  0  0  0  0
    8.1627  -12.4767   26.2719 C   0  0  0  0  0  0  0  0  0  0  0  0
    7.8714  -13.7828   26.0006 C   0  0  0  0  0  0  0  0  0  0  0  0
    9.5678  -17.6468   27.5161 O   0  0  0  0  0  0  0  0  0  0  0  0
    8.9525  -18.5084   26.8394 O   0  0  0  0  0  0  0  0  0  0  0  0
  2  3  2  0
  2  1  1  0
  4  2  1  0
  5  4  1  0
  6  5  1  0
  7  6  1  0
  7  8  1  0
  8  9  1  1
 10  8  1  0
 10 12  1  0
 11 10  2  0
 13 12  1  0
 14 13  1  0
 15 14  2  0
 16 14  1  0
 17 28  1  0
 17 16  1  0
 17 18  1  1
 19 18  1  0
 20 19  2  0
 21 22  1  0
 21 20  1  0
 22 27  2  0
 23 22  1  0
 23 24  2  0
 24 25  1  0
 25 26  2  0
 27 19  1  0
 27 26  1  0
 28 30  1  0
 29 28  2  0
M  END
$$$$
