RGW.pdb
     RDKit          3D

 30 31  0  0  1  0  0  0  0  0999 V2000
    6.8841  -15.0851   21.2884 N   0  0  0  0  0  0  0  0  0  0  0  0
    6.5204  -14.7250   19.9587 C   0  0  0  0  0  0  0  0  0  0  0  0
    5.6828  -15.4633   19.3150 N   0  0  0  0  0  0  0  0  0  0  0  0
    7.0671  -13.5651   19.3328 N   0  0  0  0  0  0  0  0  0  0  0  0
    8.2645  -12.9080   19.8768 C   0  0  0  0  0  0  0  0  0  0  0  0
    9.4191  -13.8572   19.9353 C   0  0  0  0  0  0  0  0  0  0  0  0
   10.7125  -13.2753   20.4010 C   0  0  0  0  0  0  0  0  0  0  0  0
   11.8492  -14.2251   20.5553 C   0  0  2  0  0  0  0  0  0  0  0  0
   12.4467  -14.6269   19.3029 N   0  0  0  0  0  0  0  0  0  0  0  0
   11.5015  -15.4408   21.3184 C   0  0  0  0  0  0  0  0  0  0  0  0
   11.1152  -16.4524   20.6879 O   0  0  0  0  0  0  0  0  0  0  0  0
    5.4298  -15.2405   18.3403 N   0  0  0  0  0  0  0  0  0  0  0  0
   11.5796  -15.5299   22.7280 C   0  0  0  0  0  0  0  0  0  0  0  0
   11.2485  -16.6713   23.5169 C   0  0  0  0  0  0  0  0  0  0  0  0
   11.4400  -16.4638   24.9781 O   0  0  0  0  0  0  0  0  0  0  0  0
   12.5181  -16.1785   25.5158 N   0  0  0  0  0  0  0  0  0  0  0  0
   10.2839  -16.6100   25.7979 C   0  0  1  0  0  0  0  0  0  0  0  0
   10.3181  -16.6246   27.2407 C   0  0  0  0  0  0  0  0  0  0  0  0
    9.1100  -15.9653   27.8417 C   0  0  0  0  0  0  0  0  0  0  0  0
    8.9162  -14.6128   27.3071 C   0  0  0  0  0  0  0  0  0  0  0  0
    9.8541  -13.5972   27.4465 N   0  0  0  0  0  0  0  0  0  0  0  0
    9.3979  -12.4855   26.8615 C   0  0  0  0  0  0  0  0  0  0  0  0
    8.1875  -12.7296   26.3380 C   0  0  0  0  0  0  0  0  0  0  0  0
    7.3258  -11.9049   25.6442 C   0  0  0  0  0  0  0  0  0  0  0  0
    6.1142  -12.4329   25.2123 C   0  0  0  0  0  0  0  0  0  0  0  0
    5.8193  -13.7470   25.4890 C   0  0  0  0  0  0  0  0  0  0  0  0
    6.6886  -14.5782   26.1884 C   0  0  0  0  0  0  0  0  0  0  0  0
    7.8759  -14.0507   26.6085 C   0  0  0  0  0  0  0  0  0  0  0  0
   10.5771  -17.9814   27.7668 O   0  0  0  0  0  0  0  0  0  0  0  0
   10.7939  -18.1924   28.9864 O   0  0  0  0  0  0  0  0  0  0  0  0
  2  3  2  0
  2  1  1  0
  4  2  1  0
  5  4  1  0
  6  5  1  0
  7  6  1  0
  7  8  1  0
  8  9  1  6
 10  8  1  0
 10 12  1  0
 11 10  2  0
 13 12  1  0
 14 13  1  0
 15 14  2  0
 16 14  1  0
 17 28  1  0
 17 16  1  0
 17 18  1  1
 19 18  1  0
 20 19  2  0
 21 22  1  0
 21 20  1  0
 22 27  2  0
 23 22  1  0
 23 24  2  0
 24 25  1  0
 25 26  2  0
 27 19  1  0
 27 26  1  0
 28 30  1  0
 29 28  2  0
M  END
$$$$
