RGW.pdb
     RDKit          3D

 30 31  0  0  1  0  0  0  0  0999 V2000
    7.8275  -15.8808   15.0078 N   0  0  0  0  0  0  0  0  0  0  0  0
    8.2794  -14.5391   14.8482 C   0  0  0  0  0  0  0  0  0  0  0  0
    9.1959  -14.2844   13.9785 N   0  0  0  0  0  0  0  0  0  0  0  0
    7.7349  -13.4789   15.6327 N   0  0  0  0  0  0  0  0  0  0  0  0
    8.4650  -12.9474   16.7928 C   0  0  0  0  0  0  0  0  0  0  0  0
    7.7361  -13.2381   18.0663 C   0  0  0  0  0  0  0  0  0  0  0  0
    7.6748  -14.6758   18.4634 C   0  0  0  0  0  0  0  0  0  0  0  0
    8.7053  -15.1401   19.4333 C   0  0  2  0  0  0  0  0  0  0  0  0
    9.5947  -16.1462   18.9011 N   0  0  0  0  0  0  0  0  0  0  0  0
    8.1373  -15.6418   20.7009 C   0  0  0  0  0  0  0  0  0  0  0  0
    7.3874  -14.8855   21.3608 O   0  0  0  0  0  0  0  0  0  0  0  0
    9.6110  -13.3424   13.9158 N   0  0  0  0  0  0  0  0  0  0  0  0
    8.3924  -16.9343   21.2162 C   0  0  0  0  0  0  0  0  0  0  0  0
    8.0079  -17.4164   22.5025 C   0  0  0  0  0  0  0  0  0  0  0  0
    8.3646  -16.4966   23.6167 O   0  0  0  0  0  0  0  0  0  0  0  0
    7.6584  -15.5600   24.0131 N   0  0  0  0  0  0  0  0  0  0  0  0
    9.6149  -16.7302   24.2587 C   0  0  1  0  0  0  0  0  0  0  0  0
   10.0376  -16.0585   25.4642 C   0  0  0  0  0  0  0  0  0  0  0  0
    9.0338  -16.2005   26.5722 C   0  0  0  0  0  0  0  0  0  0  0  0
    7.9121  -15.2703   26.4014 C   0  0  0  0  0  0  0  0  0  0  0  0
    6.6026  -15.6861   26.1943 N   0  0  0  0  0  0  0  0  0  0  0  0
    5.8092  -14.6174   26.0732 C   0  0  0  0  0  0  0  0  0  0  0  0
    6.5490  -13.5053   26.1931 C   0  0  0  0  0  0  0  0  0  0  0  0
    6.1864  -12.1750   26.1401 C   0  0  0  0  0  0  0  0  0  0  0  0
    7.1798  -11.2151   26.2988 C   0  0  0  0  0  0  0  0  0  0  0  0
    8.4776  -11.6212   26.5014 C   0  0  0  0  0  0  0  0  0  0  0  0
    8.8428  -12.9626   26.5548 C   0  0  0  0  0  0  0  0  0  0  0  0
    7.8603  -13.8979   26.3979 C   0  0  0  0  0  0  0  0  0  0  0  0
   11.4096  -16.4471   25.8530 O   0  0  0  0  0  0  0  0  0  0  0  0
   11.9545  -16.0103   26.8976 O   0  0  0  0  0  0  0  0  0  0  0  0
  2  3  2  0
  2  1  1  0
  4  2  1  0
  5  4  1  0
  6  5  1  0
  7  6  1  0
  7  8  1  0
  8  9  1  6
 10  8  1  0
 10 12  1  0
 11 10  2  0
 13 12  1  0
 14 13  1  0
 15 14  2  0
 16 14  1  0
 17 28  1  0
 17 16  1  0
 17 18  1  6
 19 18  1  0
 20 19  2  0
 21 22  1  0
 21 20  1  0
 22 27  2  0
 23 22  1  0
 23 24  2  0
 24 25  1  0
 25 26  2  0
 27 19  1  0
 27 26  1  0
 28 30  1  0
 29 28  2  0
M  END
$$$$
