RGW.pdb
     RDKit          3D

 30 31  0  0  1  0  0  0  0  0999 V2000
    9.3639  -15.1595   15.0218 N   0  0  0  0  0  0  0  0  0  0  0  0
    8.7012  -13.9035   14.9078 C   0  0  0  0  0  0  0  0  0  0  0  0
    8.5815  -13.3598   13.7454 N   0  0  0  0  0  0  0  0  0  0  0  0
    8.1707  -13.2423   16.0556 N   0  0  0  0  0  0  0  0  0  0  0  0
    8.4629  -13.7324   17.4106 C   0  0  0  0  0  0  0  0  0  0  0  0
    7.2533  -13.6461   18.2863 C   0  0  0  0  0  0  0  0  0  0  0  0
    7.2851  -14.4871   19.5191 C   0  0  0  0  0  0  0  0  0  0  0  0
    8.6151  -15.0234   19.9214 C   0  0  2  0  0  0  0  0  0  0  0  0
    9.1684  -15.9725   18.9835 N   0  0  0  0  0  0  0  0  0  0  0  0
    8.6209  -15.6365   21.2651 C   0  0  0  0  0  0  0  0  0  0  0  0
    8.1711  -14.9721   22.2274 O   0  0  0  0  0  0  0  0  0  0  0  0
    8.1665  -12.4209   13.6467 N   0  0  0  0  0  0  0  0  0  0  0  0
    9.1077  -16.9380   21.5300 C   0  0  0  0  0  0  0  0  0  0  0  0
    9.1747  -17.5652   22.8094 C   0  0  0  0  0  0  0  0  0  0  0  0
    9.8501  -16.7381   23.8460 O   0  0  0  0  0  0  0  0  0  0  0  0
   10.7902  -15.9623   23.6285 N   0  0  0  0  0  0  0  0  0  0  0  0
    9.3621  -16.8655   25.1785 C   0  0  1  0  0  0  0  0  0  0  0  0
    9.9933  -16.2609   26.3270 C   0  0  0  0  0  0  0  0  0  0  0  0
    8.9954  -15.8625   27.3763 C   0  0  0  0  0  0  0  0  0  0  0  0
    7.8517  -15.1570   26.7875 C   0  0  0  0  0  0  0  0  0  0  0  0
    6.6958  -15.8009   26.3634 N   0  0  0  0  0  0  0  0  0  0  0  0
    5.8383  -14.9008   25.8726 C   0  0  0  0  0  0  0  0  0  0  0  0
    6.3870  -13.6800   25.9570 C   0  0  0  0  0  0  0  0  0  0  0  0
    5.8950  -12.4461   25.5833 C   0  0  0  0  0  0  0  0  0  0  0  0
    6.6954  -11.3281   25.7904 C   0  0  0  0  0  0  0  0  0  0  0  0
    7.9383  -11.4893   26.3555 C   0  0  0  0  0  0  0  0  0  0  0  0
    8.4339  -12.7336   26.7323 C   0  0  0  0  0  0  0  0  0  0  0  0
    7.6407  -13.8255   26.5250 C   0  0  0  0  0  0  0  0  0  0  0  0
   11.0979  -17.0954   26.8449 O   0  0  0  0  0  0  0  0  0  0  0  0
   11.8291  -16.7175   27.7944 O   0  0  0  0  0  0  0  0  0  0  0  0
  2  3  2  0
  2  1  1  0
  4  2  1  0
  5  4  1  0
  6  5  1  0
  7  6  1  0
  7  8  1  0
  8  9  1  6
 10  8  1  0
 10 12  1  0
 11 10  2  0
 13 12  1  0
 14 13  1  0
 15 14  2  0
 16 14  1  0
 17 28  1  0
 17 16  1  0
 17 18  1  1
 19 18  1  0
 20 19  2  0
 21 22  1  0
 21 20  1  0
 22 27  2  0
 23 22  1  0
 23 24  2  0
 24 25  1  0
 25 26  2  0
 27 19  1  0
 27 26  1  0
 28 30  1  0
 29 28  2  0
M  END
$$$$
