RGW.pdb
     RDKit          3D

 30 31  0  0  1  0  0  0  0  0999 V2000
    8.4618  -15.1075   16.3867 N   0  0  0  0  0  0  0  0  0  0  0  0
    7.6842  -13.9168   16.3005 C   0  0  0  0  0  0  0  0  0  0  0  0
    6.9504  -13.7200   15.2594 N   0  0  0  0  0  0  0  0  0  0  0  0
    7.7058  -12.9442   17.3443 N   0  0  0  0  0  0  0  0  0  0  0  0
    8.1336  -13.3061   18.7036 C   0  0  0  0  0  0  0  0  0  0  0  0
    7.1297  -14.1966   19.3642 C   0  0  0  0  0  0  0  0  0  0  0  0
    7.4524  -14.6113   20.7615 C   0  0  0  0  0  0  0  0  0  0  0  0
    8.7349  -15.3430   20.9563 C   0  0  2  0  0  0  0  0  0  0  0  0
    8.9415  -16.4174   20.0130 N   0  0  0  0  0  0  0  0  0  0  0  0
    8.9049  -15.8805   22.3213 C   0  0  0  0  0  0  0  0  0  0  0  0
    8.2983  -15.3208   23.2640 O   0  0  0  0  0  0  0  0  0  0  0  0
    6.4407  -12.8317   15.1382 N   0  0  0  0  0  0  0  0  0  0  0  0
    9.7175  -16.9970   22.6280 C   0  0  0  0  0  0  0  0  0  0  0  0
   11.0291  -16.9529   23.1870 C   0  0  0  0  0  0  0  0  0  0  0  0
   11.0650  -16.4533   24.5884 O   0  0  0  0  0  0  0  0  0  0  0  0
   11.9130  -15.6712   25.0380 N   0  0  0  0  0  0  0  0  0  0  0  0
   10.0388  -16.9236   25.4576 C   0  0  1  0  0  0  0  0  0  0  0  0
    9.9925  -16.6428   26.8726 C   0  0  0  0  0  0  0  0  0  0  0  0
    8.5853  -16.6066   27.3961 C   0  0  0  0  0  0  0  0  0  0  0  0
    7.7632  -15.6425   26.6564 C   0  0  0  0  0  0  0  0  0  0  0  0
    6.7951  -16.0176   25.7330 N   0  0  0  0  0  0  0  0  0  0  0  0
    6.2171  -14.9252   25.2242 C   0  0  0  0  0  0  0  0  0  0  0  0
    6.7697  -13.8368   25.7796 C   0  0  0  0  0  0  0  0  0  0  0  0
    6.5112  -12.4962   25.5790 C   0  0  0  0  0  0  0  0  0  0  0  0
    7.2501  -11.5677   26.3038 C   0  0  0  0  0  0  0  0  0  0  0  0
    8.2043  -12.0136   27.1876 C   0  0  0  0  0  0  0  0  0  0  0  0
    8.4645  -13.3654   27.3896 C   0  0  0  0  0  0  0  0  0  0  0  0
    7.7338  -14.2695   26.6733 C   0  0  0  0  0  0  0  0  0  0  0  0
   10.8869  -17.5382   27.6362 O   0  0  0  0  0  0  0  0  0  0  0  0
   11.0956  -17.3805   28.8652 O   0  0  0  0  0  0  0  0  0  0  0  0
  2  3  2  0
  2  1  1  0
  4  2  1  0
  5  4  1  0
  6  5  1  0
  7  6  1  0
  7  8  1  0
  8  9  1  6
 10  8  1  0
 10 12  1  0
 11 10  2  0
 13 12  1  0
 14 13  1  0
 15 14  2  0
 16 14  1  0
 17 28  1  0
 17 16  1  0
 17 18  1  1
 19 18  1  0
 20 19  2  0
 21 22  1  0
 21 20  1  0
 22 27  2  0
 23 22  1  0
 23 24  2  0
 24 25  1  0
 25 26  2  0
 27 19  1  0
 27 26  1  0
 28 30  1  0
 29 28  2  0
M  END
$$$$
