KKA.pdb
     RDKit          3D

 24 23  0  0  1  0  0  0  0  0999 V2000
    3.7885  -19.9224   19.3381 N   0  0  0  0  0  0  0  0  0  0  0  0
    5.1430  -19.6096   19.7344 C   0  0  1  0  0  0  0  0  0  0  0  0
    5.7135  -18.5044   18.8509 C   0  0  0  0  0  0  0  0  0  0  0  0
    6.3456  -19.1791   17.6875 C   0  0  0  0  0  0  0  0  0  0  0  0
    7.0394  -18.3257   16.6916 C   0  0  0  0  0  0  0  0  0  0  0  0
    7.5077  -19.0361   15.4767 C   0  0  0  0  0  0  0  0  0  0  0  0
    8.1763  -18.1559   14.5747 N   0  0  0  0  0  0  0  0  0  0  0  0
    5.1427  -19.1830   21.1677 C   0  0  0  0  0  0  0  0  0  0  0  0
    4.1283  -18.6069   21.6851 O   0  0  0  0  0  0  0  0  0  0  0  0
    6.2638  -19.3983   22.0124 N   0  0  0  0  0  0  0  0  0  0  0  0
    6.2599  -19.0583   23.4413 C   0  0  1  0  0  0  0  0  0  0  0  0
    6.5897  -20.2488   24.2755 C   0  0  0  0  0  0  0  0  0  0  0  0
    5.5666  -21.3231   24.3232 C   0  0  0  0  0  0  0  0  0  0  0  0
    6.0045  -22.5188   25.1497 C   0  0  0  0  0  0  0  0  0  0  0  0
    4.9251  -23.5729   25.1313 C   0  0  0  0  0  0  0  0  0  0  0  0
    5.3245  -24.7446   25.8534 N   0  0  0  0  0  0  0  0  0  0  0  0
    7.2256  -17.9649   23.7082 C   0  0  0  0  0  0  0  0  0  0  0  0
    8.4214  -18.0117   23.3255 O   0  0  0  0  0  0  0  0  0  0  0  0
    7.0402  -14.5400   25.2927 C   0  0  0  0  0  0  0  0  0  0  0  0
    7.7446  -15.8086   24.7949 C   0  0  2  0  0  0  0  0  0  0  0  0
    6.7679  -16.8088   24.4340 N   0  0  0  0  0  0  0  0  0  0  0  0
    8.6312  -16.2613   25.8665 C   0  0  0  0  0  0  0  0  0  0  0  0
    8.3953  -17.3132   26.4983 O   0  0  0  0  0  0  0  0  0  0  0  0
    9.7487  -15.5228   26.1930 O   0  0  0  0  0  0  0  0  0  0  0  0
  2  1  1  6
  3  2  1  0
  4  3  1  0
  5  4  1  0
  5  6  1  0
  7  6  1  0
  8  2  1  0
  8  9  2  0
 10  8  1  0
 11 12  1  1
 11 10  1  0
 13 12  1  0
 13 14  1  0
 14 15  1  0
 15 16  1  0
 17 11  1  0
 18 17  2  0
 20 19  1  1
 20 21  1  0
 21 17  1  0
 22 20  1  0
 22 24  1  0
 23 22  2  0
M  END
$$$$
