KKA.pdb
     RDKit          3D

 24 23  0  0  1  0  0  0  0  0999 V2000
    5.7491  -16.2336   21.3741 N   0  0  0  0  0  0  0  0  0  0  0  0
    7.0587  -15.7394   21.7354 C   0  0  1  0  0  0  0  0  0  0  0  0
    7.0830  -14.2148   21.6886 C   0  0  0  0  0  0  0  0  0  0  0  0
    7.2702  -13.8400   20.2628 C   0  0  0  0  0  0  0  0  0  0  0  0
    8.5599  -13.2142   19.8801 C   0  0  0  0  0  0  0  0  0  0  0  0
    8.6370  -12.7491   18.4739 C   0  0  0  0  0  0  0  0  0  0  0  0
    9.9123  -12.1848   18.1732 N   0  0  0  0  0  0  0  0  0  0  0  0
    7.3980  -16.2241   23.1089 C   0  0  0  0  0  0  0  0  0  0  0  0
    6.5648  -16.1214   24.0701 O   0  0  0  0  0  0  0  0  0  0  0  0
    8.6544  -16.8166   23.4039 N   0  0  0  0  0  0  0  0  0  0  0  0
    9.0629  -17.1776   24.7677 C   0  0  1  0  0  0  0  0  0  0  0  0
   10.0783  -18.2688   24.7509 C   0  0  0  0  0  0  0  0  0  0  0  0
   10.6132  -18.6907   26.0697 C   0  0  0  0  0  0  0  0  0  0  0  0
   11.6859  -19.7590   25.9571 C   0  0  0  0  0  0  0  0  0  0  0  0
   12.1969  -20.1139   27.3317 C   0  0  0  0  0  0  0  0  0  0  0  0
   13.2674  -21.0643   27.2636 N   0  0  0  0  0  0  0  0  0  0  0  0
    9.6033  -15.9886   25.4701 C   0  0  0  0  0  0  0  0  0  0  0  0
   10.6103  -15.3605   25.0579 O   0  0  0  0  0  0  0  0  0  0  0  0
    8.4585  -13.4085   27.7504 C   0  0  0  0  0  0  0  0  0  0  0  0
    9.5337  -14.4436   27.3957 C   0  0  2  0  0  0  0  0  0  0  0  0
    8.9432  -15.5429   26.6696 N   0  0  0  0  0  0  0  0  0  0  0  0
   10.1504  -14.8755   28.6497 C   0  0  0  0  0  0  0  0  0  0  0  0
   10.0183  -16.0469   29.0641 O   0  0  0  0  0  0  0  0  0  0  0  0
   10.8921  -13.9836   29.3947 O   0  0  0  0  0  0  0  0  0  0  0  0
  2  1  1  1
  3  2  1  0
  4  3  1  0
  5  4  1  0
  5  6  1  0
  7  6  1  0
  8  2  1  0
  8  9  2  0
 10  8  1  0
 11 12  1  6
 11 10  1  0
 13 12  1  0
 13 14  1  0
 14 15  1  0
 15 16  1  0
 17 11  1  0
 18 17  2  0
 20 19  1  1
 20 21  1  0
 21 17  1  0
 22 20  1  0
 22 24  1  0
 23 22  2  0
M  END
$$$$
