KKA.pdb
     RDKit          3D

 24 23  0  0  1  0  0  0  0  0999 V2000
    5.4414  -16.7343   21.5638 N   0  0  0  0  0  0  0  0  0  0  0  0
    6.7262  -16.2747   22.0409 C   0  0  1  0  0  0  0  0  0  0  0  0
    6.9418  -14.8127   21.6623 C   0  0  0  0  0  0  0  0  0  0  0  0
    7.5426  -14.8135   20.3032 C   0  0  0  0  0  0  0  0  0  0  0  0
    7.9622  -13.5081   19.7363 C   0  0  0  0  0  0  0  0  0  0  0  0
    8.4359  -13.5590   18.3317 C   0  0  0  0  0  0  0  0  0  0  0  0
    8.7081  -12.2560   17.8184 N   0  0  0  0  0  0  0  0  0  0  0  0
    6.7802  -16.4419   23.5260 C   0  0  0  0  0  0  0  0  0  0  0  0
    5.8223  -16.0460   24.2705 O   0  0  0  0  0  0  0  0  0  0  0  0
    7.8926  -17.0448   24.1709 N   0  0  0  0  0  0  0  0  0  0  0  0
    7.9811  -17.1949   25.6293 C   0  0  1  0  0  0  0  0  0  0  0  0
    8.3246  -18.5964   26.0031 C   0  0  0  0  0  0  0  0  0  0  0  0
    7.2167  -19.5827   25.9481 C   0  0  0  0  0  0  0  0  0  0  0  0
    7.6505  -20.9805   26.3515 C   0  0  0  0  0  0  0  0  0  0  0  0
    6.4627  -21.9106   26.3209 C   0  0  0  0  0  0  0  0  0  0  0  0
    6.8314  -23.2438   26.6958 N   0  0  0  0  0  0  0  0  0  0  0  0
    8.9914  -16.2583   26.1782 C   0  0  0  0  0  0  0  0  0  0  0  0
   10.1513  -16.1627   25.7048 O   0  0  0  0  0  0  0  0  0  0  0  0
    9.0445  -13.4263   28.6250 C   0  0  0  0  0  0  0  0  0  0  0  0
    9.6575  -14.6480   27.9284 C   0  0  2  0  0  0  0  0  0  0  0  0
    8.6214  -15.4300   27.2963 N   0  0  0  0  0  0  0  0  0  0  0  0
   10.3830  -15.4085   28.9455 C   0  0  0  0  0  0  0  0  0  0  0  0
   10.0336  -16.5671   29.2567 O   0  0  0  0  0  0  0  0  0  0  0  0
   11.4721  -14.8473   29.5777 O   0  0  0  0  0  0  0  0  0  0  0  0
  2  1  1  1
  3  2  1  0
  4  3  1  0
  5  4  1  0
  5  6  1  0
  7  6  1  0
  8  2  1  0
  8  9  2  0
 10  8  1  0
 11 12  1  6
 11 10  1  0
 13 12  1  0
 13 14  1  0
 14 15  1  0
 15 16  1  0
 17 11  1  0
 18 17  2  0
 20 19  1  1
 20 21  1  0
 21 17  1  0
 22 20  1  0
 22 24  1  0
 23 22  2  0
M  END
$$$$
