KKA.pdb
     RDKit          3D

 24 23  0  0  1  0  0  0  0  0999 V2000
    9.2894  -18.5500   20.6156 N   0  0  0  0  0  0  0  0  0  0  0  0
   10.5205  -17.8202   20.8191 C   0  0  1  0  0  0  0  0  0  0  0  0
   11.2078  -17.5542   19.4834 C   0  0  0  0  0  0  0  0  0  0  0  0
   10.1289  -17.4611   18.4657 C   0  0  0  0  0  0  0  0  0  0  0  0
   10.5286  -17.1860   17.0635 C   0  0  0  0  0  0  0  0  0  0  0  0
    9.4052  -17.0895   16.1000 C   0  0  0  0  0  0  0  0  0  0  0  0
    9.8528  -16.6942   14.8044 N   0  0  0  0  0  0  0  0  0  0  0  0
   10.2114  -16.5315   21.5121 C   0  0  0  0  0  0  0  0  0  0  0  0
   11.1413  -15.7316   21.8646 O   0  0  0  0  0  0  0  0  0  0  0  0
    8.8781  -16.1420   21.8073 N   0  0  0  0  0  0  0  0  0  0  0  0
    8.5531  -14.9161   22.5480 C   0  0  1  0  0  0  0  0  0  0  0  0
    7.3689  -14.2312   21.9560 C   0  0  0  0  0  0  0  0  0  0  0  0
    7.6479  -13.2396   20.8873 C   0  0  0  0  0  0  0  0  0  0  0  0
    7.7212  -13.8655   19.5062 C   0  0  0  0  0  0  0  0  0  0  0  0
    8.0039  -12.7978   18.4781 C   0  0  0  0  0  0  0  0  0  0  0  0
    8.1999  -13.3631   17.1758 N   0  0  0  0  0  0  0  0  0  0  0  0
    8.2987  -15.2338   23.9740 C   0  0  0  0  0  0  0  0  0  0  0  0
    8.0121  -14.3518   24.8217 O   0  0  0  0  0  0  0  0  0  0  0  0
    6.8952  -17.9499   25.7878 C   0  0  0  0  0  0  0  0  0  0  0  0
    8.0302  -16.9183   25.7602 C   0  0  2  0  0  0  0  0  0  0  0  0
    8.3850  -16.6078   24.3956 N   0  0  0  0  0  0  0  0  0  0  0  0
    9.1511  -17.4865   26.5085 C   0  0  0  0  0  0  0  0  0  0  0  0
   10.2397  -17.7377   25.9488 O   0  0  0  0  0  0  0  0  0  0  0  0
    9.0153  -17.7532   27.8543 O   0  0  0  0  0  0  0  0  0  0  0  0
  2  1  1  6
  3  2  1  0
  4  3  1  0
  5  4  1  0
  5  6  1  0
  7  6  1  0
  8  2  1  0
  8  9  2  0
 10  8  1  0
 11 12  1  6
 11 10  1  0
 13 12  1  0
 13 14  1  0
 14 15  1  0
 15 16  1  0
 17 11  1  0
 18 17  2  0
 20 19  1  6
 20 21  1  0
 21 17  1  0
 22 20  1  0
 22 24  1  0
 23 22  2  0
M  END
$$$$
