KKA.pdb
     RDKit          3D

 24 23  0  0  1  0  0  0  0  0999 V2000
    9.2957  -18.6399   18.8896 N   0  0  0  0  0  0  0  0  0  0  0  0
   10.6667  -18.3795   19.2669 C   0  0  1  0  0  0  0  0  0  0  0  0
   11.5068  -18.0647   18.0331 C   0  0  0  0  0  0  0  0  0  0  0  0
   10.8016  -18.6752   16.8762 C   0  0  0  0  0  0  0  0  0  0  0  0
    9.9155  -17.7989   16.0710 C   0  0  0  0  0  0  0  0  0  0  0  0
    9.3790  -18.4179   14.8345 C   0  0  0  0  0  0  0  0  0  0  0  0
    8.5709  -17.5045   14.0942 N   0  0  0  0  0  0  0  0  0  0  0  0
   10.6964  -17.2311   20.2245 C   0  0  0  0  0  0  0  0  0  0  0  0
   11.8013  -16.7436   20.6369 O   0  0  0  0  0  0  0  0  0  0  0  0
    9.5044  -16.6352   20.7151 N   0  0  0  0  0  0  0  0  0  0  0  0
    9.5077  -15.5242   21.6757 C   0  0  1  0  0  0  0  0  0  0  0  0
    8.2873  -14.6818   21.5237 C   0  0  0  0  0  0  0  0  0  0  0  0
    8.3253  -13.6552   20.4523 C   0  0  0  0  0  0  0  0  0  0  0  0
    7.6870  -14.1284   19.1587 C   0  0  0  0  0  0  0  0  0  0  0  0
    7.8484  -13.0705   18.0949 C   0  0  0  0  0  0  0  0  0  0  0  0
    7.3358  -13.5145   16.8324 N   0  0  0  0  0  0  0  0  0  0  0  0
    9.5973  -16.0471   23.0605 C   0  0  0  0  0  0  0  0  0  0  0  0
    8.5893  -16.4345   23.7027 O   0  0  0  0  0  0  0  0  0  0  0  0
   10.7203  -18.2629   24.8249 C   0  0  0  0  0  0  0  0  0  0  0  0
   10.9894  -16.7598   24.9721 C   0  0  2  0  0  0  0  0  0  0  0  0
   10.8925  -16.1105   23.6862 N   0  0  0  0  0  0  0  0  0  0  0  0
   12.3169  -16.6132   25.5682 C   0  0  0  0  0  0  0  0  0  0  0  0
   12.5820  -17.1099   26.6837 O   0  0  0  0  0  0  0  0  0  0  0  0
   13.2997  -15.9174   24.8968 O   0  0  0  0  0  0  0  0  0  0  0  0
  2  1  1  6
  3  2  1  0
  4  3  1  0
  5  4  1  0
  5  6  1  0
  7  6  1  0
  8  2  1  0
  8  9  2  0
 10  8  1  0
 11 12  1  1
 11 10  1  0
 13 12  1  0
 13 14  1  0
 14 15  1  0
 15 16  1  0
 17 11  1  0
 18 17  2  0
 20 19  1  6
 20 21  1  0
 21 17  1  0
 22 20  1  0
 22 24  1  0
 23 22  2  0
M  END
$$$$
