KKA.pdb
     RDKit          3D

 24 23  0  0  1  0  0  0  0  0999 V2000
    6.0924  -15.7050   20.8247 N   0  0  0  0  0  0  0  0  0  0  0  0
    7.3349  -15.2075   21.3709 C   0  0  1  0  0  0  0  0  0  0  0  0
    7.3442  -13.6820   21.3666 C   0  0  0  0  0  0  0  0  0  0  0  0
    8.4266  -13.2699   20.4354 C   0  0  0  0  0  0  0  0  0  0  0  0
    8.2125  -13.5042   18.9860 C   0  0  0  0  0  0  0  0  0  0  0  0
    9.3787  -13.1950   18.1232 C   0  0  0  0  0  0  0  0  0  0  0  0
    9.0734  -13.3681   16.7404 N   0  0  0  0  0  0  0  0  0  0  0  0
    7.4939  -15.7257   22.7647 C   0  0  0  0  0  0  0  0  0  0  0  0
    6.5657  -15.5895   23.6299 O   0  0  0  0  0  0  0  0  0  0  0  0
    8.6772  -16.3883   23.1859 N   0  0  0  0  0  0  0  0  0  0  0  0
    8.8769  -16.8616   24.5619 C   0  0  1  0  0  0  0  0  0  0  0  0
    9.5749  -18.1785   24.5788 C   0  0  0  0  0  0  0  0  0  0  0  0
    9.9225  -18.7223   25.9155 C   0  0  0  0  0  0  0  0  0  0  0  0
   10.7833  -19.9705   25.8391 C   0  0  0  0  0  0  0  0  0  0  0  0
   11.1253  -20.4387   27.2322 C   0  0  0  0  0  0  0  0  0  0  0  0
   12.0417  -21.5402   27.2045 N   0  0  0  0  0  0  0  0  0  0  0  0
    9.6521  -15.8632   25.3374 C   0  0  0  0  0  0  0  0  0  0  0  0
   10.8122  -15.5077   25.0113 O   0  0  0  0  0  0  0  0  0  0  0  0
    8.9531  -13.1098   27.6145 C   0  0  0  0  0  0  0  0  0  0  0  0
    9.8182  -14.3274   27.2645 C   0  0  2  0  0  0  0  0  0  0  0  0
    9.0454  -15.2836   26.5074 N   0  0  0  0  0  0  0  0  0  0  0  0
   10.3109  -14.8857   28.5234 C   0  0  0  0  0  0  0  0  0  0  0  0
    9.9765  -16.0303   28.8966 O   0  0  0  0  0  0  0  0  0  0  0  0
   11.1589  -14.1453   29.3192 O   0  0  0  0  0  0  0  0  0  0  0  0
  2  1  1  1
  3  2  1  0
  4  3  1  0
  5  4  1  0
  5  6  1  0
  7  6  1  0
  8  2  1  0
  8  9  2  0
 10  8  1  0
 11 12  1  6
 11 10  1  0
 13 12  1  0
 13 14  1  0
 14 15  1  0
 15 16  1  0
 17 11  1  0
 18 17  2  0
 20 19  1  1
 20 21  1  0
 21 17  1  0
 22 20  1  0
 22 24  1  0
 23 22  2  0
M  END
$$$$
