KKA.pdb
     RDKit          3D

 24 23  0  0  1  0  0  0  0  0999 V2000
    6.2389  -19.8894   24.7008 N   0  0  0  0  0  0  0  0  0  0  0  0
    6.1970  -18.4545   24.8713 C   0  0  1  0  0  0  0  0  0  0  0  0
    6.5114  -18.0816   26.3168 C   0  0  0  0  0  0  0  0  0  0  0  0
    7.8647  -18.6229   26.6067 C   0  0  0  0  0  0  0  0  0  0  0  0
    8.3958  -18.4463   27.9808 C   0  0  0  0  0  0  0  0  0  0  0  0
    9.7659  -18.9726   28.1946 C   0  0  0  0  0  0  0  0  0  0  0  0
   10.2166  -18.7459   29.5291 N   0  0  0  0  0  0  0  0  0  0  0  0
    7.1879  -17.8267   23.9438 C   0  0  0  0  0  0  0  0  0  0  0  0
    8.1785  -18.4900   23.4883 O   0  0  0  0  0  0  0  0  0  0  0  0
    7.0723  -16.4730   23.5305 N   0  0  0  0  0  0  0  0  0  0  0  0
    7.9817  -15.8591   22.5540 C   0  0  1  0  0  0  0  0  0  0  0  0
    7.3960  -14.6102   21.9891 C   0  0  0  0  0  0  0  0  0  0  0  0
    8.1838  -13.9353   20.9274 C   0  0  0  0  0  0  0  0  0  0  0  0
    7.3450  -13.5581   19.7196 C   0  0  0  0  0  0  0  0  0  0  0  0
    8.2299  -12.9672   18.6499 C   0  0  0  0  0  0  0  0  0  0  0  0
    7.4611  -12.4887   17.5390 N   0  0  0  0  0  0  0  0  0  0  0  0
    9.2901  -15.5676   23.1882 C   0  0  0  0  0  0  0  0  0  0  0  0
    9.3937  -15.2034   24.3862 O   0  0  0  0  0  0  0  0  0  0  0  0
   11.8690  -16.9768   23.9539 C   0  0  0  0  0  0  0  0  0  0  0  0
   11.7528  -15.7207   23.0809 C   0  0  2  0  0  0  0  0  0  0  0  0
   10.4828  -15.7098   22.3943 N   0  0  0  0  0  0  0  0  0  0  0  0
   12.8839  -15.7307   22.1538 C   0  0  0  0  0  0  0  0  0  0  0  0
   12.7116  -15.8950   20.9271 O   0  0  0  0  0  0  0  0  0  0  0  0
   14.1659  -15.5569   22.6303 O   0  0  0  0  0  0  0  0  0  0  0  0
  2  1  1  1
  3  2  1  0
  4  3  1  0
  5  4  1  0
  5  6  1  0
  7  6  1  0
  8  2  1  0
  8  9  2  0
 10  8  1  0
 11 12  1  1
 11 10  1  0
 13 12  1  0
 13 14  1  0
 14 15  1  0
 15 16  1  0
 17 11  1  0
 18 17  2  0
 20 19  1  1
 20 21  1  0
 21 17  1  0
 22 20  1  0
 22 24  1  0
 23 22  2  0
M  END
$$$$
