KKA.pdb
     RDKit          3D

 24 23  0  0  1  0  0  0  0  0999 V2000
    7.8028  -18.8482   20.2779 N   0  0  0  0  0  0  0  0  0  0  0  0
    9.1481  -18.4432   19.9378 C   0  0  1  0  0  0  0  0  0  0  0  0
    9.3973  -18.6279   18.4441 C   0  0  0  0  0  0  0  0  0  0  0  0
    8.0882  -18.4257   17.7705 C   0  0  0  0  0  0  0  0  0  0  0  0
    8.0552  -18.5200   16.2901 C   0  0  0  0  0  0  0  0  0  0  0  0
    6.7295  -18.2643   15.6762 C   0  0  0  0  0  0  0  0  0  0  0  0
    6.7916  -18.2987   14.2513 N   0  0  0  0  0  0  0  0  0  0  0  0
    9.3358  -17.0108   20.3243 C   0  0  0  0  0  0  0  0  0  0  0  0
   10.4541  -16.4209   20.1508 O   0  0  0  0  0  0  0  0  0  0  0  0
    8.2850  -16.2471   20.8981 N   0  0  0  0  0  0  0  0  0  0  0  0
    8.4697  -14.8684   21.3698 C   0  0  1  0  0  0  0  0  0  0  0  0
    7.3486  -13.9946   20.9208 C   0  0  0  0  0  0  0  0  0  0  0  0
    7.6475  -13.0605   19.8066 C   0  0  0  0  0  0  0  0  0  0  0  0
    7.5390  -13.7162   18.4418 C   0  0  0  0  0  0  0  0  0  0  0  0
    7.9684  -12.7411   17.3733 C   0  0  0  0  0  0  0  0  0  0  0  0
    7.9912  -13.3577   16.0797 N   0  0  0  0  0  0  0  0  0  0  0  0
    8.5742  -14.8447   22.8489 C   0  0  0  0  0  0  0  0  0  0  0  0
    8.7181  -13.7792   23.4988 O   0  0  0  0  0  0  0  0  0  0  0  0
    7.2139  -16.3448   25.6156 C   0  0  0  0  0  0  0  0  0  0  0  0
    8.5896  -16.0560   25.0012 C   0  0  2  0  0  0  0  0  0  0  0  0
    8.5071  -16.0947   23.5603 N   0  0  0  0  0  0  0  0  0  0  0  0
    9.5189  -17.0539   25.5300 C   0  0  0  0  0  0  0  0  0  0  0  0
    9.7943  -17.0980   26.7480 O   0  0  0  0  0  0  0  0  0  0  0  0
   10.1064  -17.9661   24.6794 O   0  0  0  0  0  0  0  0  0  0  0  0
  2  1  1  6
  3  2  1  0
  4  3  1  0
  5  4  1  0
  5  6  1  0
  7  6  1  0
  8  2  1  0
  8  9  2  0
 10  8  1  0
 11 12  1  1
 11 10  1  0
 13 12  1  0
 13 14  1  0
 14 15  1  0
 15 16  1  0
 17 11  1  0
 18 17  2  0
 20 19  1  1
 20 21  1  0
 21 17  1  0
 22 20  1  0
 22 24  1  0
 23 22  2  0
M  END
$$$$
