KKA.pdb
     RDKit          3D

 24 23  0  0  1  0  0  0  0  0999 V2000
    5.6790  -20.5138   21.4686 N   0  0  0  0  0  0  0  0  0  0  0  0
    5.6168  -19.4479   22.4431 C   0  0  1  0  0  0  0  0  0  0  0  0
    5.9294  -19.9832   23.8370 C   0  0  0  0  0  0  0  0  0  0  0  0
    5.1659  -21.2497   23.9830 C   0  0  0  0  0  0  0  0  0  0  0  0
    5.6987  -22.2695   24.9198 C   0  0  0  0  0  0  0  0  0  0  0  0
    4.9273  -23.5352   24.9719 C   0  0  0  0  0  0  0  0  0  0  0  0
    5.4971  -24.4638   25.8930 N   0  0  0  0  0  0  0  0  0  0  0  0
    6.5964  -18.3842   22.0616 C   0  0  0  0  0  0  0  0  0  0  0  0
    7.7471  -18.6820   21.5971 O   0  0  0  0  0  0  0  0  0  0  0  0
    6.2926  -17.0038   22.1982 N   0  0  0  0  0  0  0  0  0  0  0  0
    7.2637  -15.9425   21.9016 C   0  0  1  0  0  0  0  0  0  0  0  0
    6.5925  -14.6152   21.8035 C   0  0  0  0  0  0  0  0  0  0  0  0
    7.4195  -13.4957   21.2878 C   0  0  0  0  0  0  0  0  0  0  0  0
    7.8400  -13.6899   19.8421 C   0  0  0  0  0  0  0  0  0  0  0  0
    8.5923  -12.4728   19.3630 C   0  0  0  0  0  0  0  0  0  0  0  0
    8.9945  -12.6105   17.9943 N   0  0  0  0  0  0  0  0  0  0  0  0
    8.3152  -15.9064   22.9467 C   0  0  0  0  0  0  0  0  0  0  0  0
    8.0473  -15.8322   24.1720 O   0  0  0  0  0  0  0  0  0  0  0  0
   10.5748  -17.2267   24.4246 C   0  0  0  0  0  0  0  0  0  0  0  0
   10.7062  -15.9645   23.5626 C   0  0  2  0  0  0  0  0  0  0  0  0
    9.6934  -15.9591   22.5337 N   0  0  0  0  0  0  0  0  0  0  0  0
   12.0596  -15.9571   23.0081 C   0  0  0  0  0  0  0  0  0  0  0  0
   13.0605  -15.8599   23.7497 O   0  0  0  0  0  0  0  0  0  0  0  0
   12.2456  -16.0586   21.6458 O   0  0  0  0  0  0  0  0  0  0  0  0
  2  1  1  6
  3  2  1  0
  4  3  1  0
  5  4  1  0
  5  6  1  0
  7  6  1  0
  8  2  1  0
  8  9  2  0
 10  8  1  0
 11 12  1  1
 11 10  1  0
 13 12  1  0
 13 14  1  0
 14 15  1  0
 15 16  1  0
 17 11  1  0
 18 17  2  0
 20 19  1  6
 20 21  1  0
 21 17  1  0
 22 20  1  0
 22 24  1  0
 23 22  2  0
M  END
$$$$
