KKA.pdb
     RDKit          3D

 24 23  0  0  1  0  0  0  0  0999 V2000
    5.8007  -16.3643   21.0093 N   0  0  0  0  0  0  0  0  0  0  0  0
    7.0432  -15.9290   21.6063 C   0  0  1  0  0  0  0  0  0  0  0  0
    7.3204  -14.4710   21.2532 C   0  0  0  0  0  0  0  0  0  0  0  0
    7.7754  -14.4593   19.8386 C   0  0  0  0  0  0  0  0  0  0  0  0
    8.2911  -13.1795   19.2930 C   0  0  0  0  0  0  0  0  0  0  0  0
    8.7852  -13.2485   17.8962 C   0  0  0  0  0  0  0  0  0  0  0  0
    9.1661  -11.9639   17.4064 N   0  0  0  0  0  0  0  0  0  0  0  0
    6.9540  -16.0981   23.0896 C   0  0  0  0  0  0  0  0  0  0  0  0
    5.9199  -15.7222   23.7361 O   0  0  0  0  0  0  0  0  0  0  0  0
    8.0089  -16.6807   23.8407 N   0  0  0  0  0  0  0  0  0  0  0  0
    7.9498  -16.8463   25.2989 C   0  0  1  0  0  0  0  0  0  0  0  0
    7.9882  -18.2880   25.6757 C   0  0  0  0  0  0  0  0  0  0  0  0
    6.8569  -19.1231   25.2002 C   0  0  0  0  0  0  0  0  0  0  0  0
    7.0043  -20.5863   25.5769 C   0  0  0  0  0  0  0  0  0  0  0  0
    5.9442  -21.4011   24.8777 C   0  0  0  0  0  0  0  0  0  0  0  0
    6.0289  -22.7868   25.2333 N   0  0  0  0  0  0  0  0  0  0  0  0
    9.0728  -16.1212   25.9409 C   0  0  0  0  0  0  0  0  0  0  0  0
   10.2645  -16.2531   25.5652 O   0  0  0  0  0  0  0  0  0  0  0  0
    9.5041  -13.2137   28.1986 C   0  0  0  0  0  0  0  0  0  0  0  0
    9.8894  -14.6210   27.7249 C   0  0  2  0  0  0  0  0  0  0  0  0
    8.7784  -15.2337   27.0357 N   0  0  0  0  0  0  0  0  0  0  0  0
   10.2951  -15.3807   28.9070 C   0  0  0  0  0  0  0  0  0  0  0  0
    9.6271  -16.3581   29.3068 O   0  0  0  0  0  0  0  0  0  0  0  0
   11.4318  -15.0211   29.5994 O   0  0  0  0  0  0  0  0  0  0  0  0
  2  1  1  6
  3  2  1  0
  4  3  1  0
  5  4  1  0
  5  6  1  0
  7  6  1  0
  8  2  1  0
  8  9  2  0
 10  8  1  0
 11 12  1  6
 11 10  1  0
 13 12  1  0
 13 14  1  0
 14 15  1  0
 15 16  1  0
 17 11  1  0
 18 17  2  0
 20 19  1  1
 20 21  1  0
 21 17  1  0
 22 20  1  0
 22 24  1  0
 23 22  2  0
M  END
$$$$
