QTD.pdb
     RDKit          3D

 25 24  0  0  1  0  0  0  0  0999 V2000
    8.1182  -12.8005   17.0371 N   0  0  0  0  0  0  0  0  0  0  0  0
    7.9031  -14.0158   16.3140 C   0  0  0  0  0  0  0  0  0  0  0  0
    7.0169  -13.9921   15.4175 O   0  0  0  0  0  0  0  0  0  0  0  0
    8.6960  -15.2177   16.6258 C   0  0  0  0  0  0  0  0  0  0  0  0
    9.7566  -15.0320   17.6535 C   0  0  0  0  0  0  0  0  0  0  0  0
    9.8383  -16.1246   18.6854 C   0  0  2  0  0  0  0  0  0  0  0  0
    8.8275  -17.1434   18.4747 N   0  0  0  0  0  0  0  0  0  0  0  0
    9.8237  -15.5952   20.0585 C   0  0  0  0  0  0  0  0  0  0  0  0
   10.6076  -14.6622   20.3511 O   0  0  0  0  0  0  0  0  0  0  0  0
    7.5398  -13.6175   22.3498 C   0  0  0  0  0  0  0  0  0  0  0  0
    7.8952  -14.9275   23.0302 C   0  0  1  0  0  0  0  0  0  0  0  0
    6.8019  -15.7735   23.1350 O   0  0  0  0  0  0  0  0  0  0  0  0
    9.1030  -15.5728   22.4438 C   0  0  2  0  0  0  0  0  0  0  0  0
    8.9958  -16.0405   21.1120 N   0  0  0  0  0  0  0  0  0  0  0  0
    9.5159  -16.6763   23.3705 C   0  0  0  0  0  0  0  0  0  0  0  0
    9.3563  -17.8938   23.0434 O   0  0  0  0  0  0  0  0  0  0  0  0
   10.0990  -16.4555   24.6442 N   0  0  0  0  0  0  0  0  0  0  0  0
   10.5244  -17.5363   25.5143 C   0  0  1  0  0  0  0  0  0  0  0  0
   11.9632  -17.8419   25.1675 C   0  0  0  0  0  0  0  0  0  0  0  0
   12.5199  -18.9313   25.9993 C   0  0  0  0  0  0  0  0  0  0  0  0
   11.8377  -19.7896   26.6068 O   0  0  0  0  0  0  0  0  0  0  0  0
   10.5219  -17.1169   26.9402 C   0  0  0  0  0  0  0  0  0  0  0  0
   10.5208  -15.8874   27.1868 O   0  0  0  0  0  0  0  0  0  0  0  0
   13.9103  -18.9892   26.1015 O   0  0  0  0  0  0  0  0  0  0  0  0
   10.5208  -17.9940   28.0071 O   0  0  0  0  0  0  0  0  0  0  0  0
  2  1  1  0
  2  3  2  0
  4  2  1  0
  5  4  1  0
  6  5  1  0
  6  8  1  0
  6  7  1  1
  8  9  2  0
 11 10  1  6
 12 11  1  0
 13 11  1  0
 14  8  1  0
 13 14  1  6
 15 16  2  0
 15 13  1  0
 17 15  1  0
 18 17  1  0
 19 20  1  0
 18 19  1  6
 20 21  2  0
 22 18  1  0
 22 25  1  0
 23 22  2  0
 24 20  1  0
M  END
$$$$
