QTD.pdb
     RDKit          3D

 25 24  0  0  1  0  0  0  0  0999 V2000
    8.9358  -20.9849   16.9747 N   0  0  0  0  0  0  0  0  0  0  0  0
    9.3502  -20.1835   15.8648 C   0  0  0  0  0  0  0  0  0  0  0  0
    9.9260  -20.7831   14.9169 O   0  0  0  0  0  0  0  0  0  0  0  0
    9.1002  -18.7316   15.8607 C   0  0  0  0  0  0  0  0  0  0  0  0
    8.4496  -18.1939   17.0867 C   0  0  0  0  0  0  0  0  0  0  0  0
    8.1474  -16.7199   17.0501 C   0  0  2  0  0  0  0  0  0  0  0  0
    8.4871  -16.1305   15.7689 N   0  0  0  0  0  0  0  0  0  0  0  0
    8.7571  -15.9988   18.1788 C   0  0  0  0  0  0  0  0  0  0  0  0
    9.9007  -15.5080   18.0310 O   0  0  0  0  0  0  0  0  0  0  0  0
    7.5490  -12.8826   20.2702 C   0  0  0  0  0  0  0  0  0  0  0  0
    7.9426  -14.0365   21.1751 C   0  0  1  0  0  0  0  0  0  0  0  0
    6.8504  -14.5744   21.8384 O   0  0  0  0  0  0  0  0  0  0  0  0
    8.7868  -15.0501   20.4829 C   0  0  2  0  0  0  0  0  0  0  0  0
    8.1726  -15.7955   19.4480 N   0  0  0  0  0  0  0  0  0  0  0  0
    9.3536  -15.9549   21.5350 C   0  0  0  0  0  0  0  0  0  0  0  0
    8.9524  -17.1557   21.6446 O   0  0  0  0  0  0  0  0  0  0  0  0
   10.3505  -15.5551   22.4610 N   0  0  0  0  0  0  0  0  0  0  0  0
   10.8856  -16.4441   23.4758 C   0  0  1  0  0  0  0  0  0  0  0  0
   12.2903  -15.9751   23.7772 C   0  0  0  0  0  0  0  0  0  0  0  0
   13.2287  -16.2740   22.6733 C   0  0  0  0  0  0  0  0  0  0  0  0
   13.5304  -15.4779   21.7534 O   0  0  0  0  0  0  0  0  0  0  0  0
   10.1284  -16.3301   24.7496 C   0  0  0  0  0  0  0  0  0  0  0  0
    9.2863  -15.4062   24.8472 O   0  0  0  0  0  0  0  0  0  0  0  0
   13.8100  -17.5426   22.6757 O   0  0  0  0  0  0  0  0  0  0  0  0
   10.2939  -17.1757   25.8291 O   0  0  0  0  0  0  0  0  0  0  0  0
  2  1  1  0
  2  3  2  0
  4  2  1  0
  5  4  1  0
  6  5  1  0
  6  8  1  0
  6  7  1  6
  8  9  2  0
 11 10  1  6
 12 11  1  0
 13 11  1  0
 14  8  1  0
 13 14  1  6
 15 16  2  0
 15 13  1  0
 17 15  1  0
 18 17  1  0
 19 20  1  0
 18 19  1  1
 20 21  2  0
 22 18  1  0
 22 25  1  0
 23 22  2  0
 24 20  1  0
M  END
$$$$
