QTD.pdb
     RDKit          3D

 25 24  0  0  1  0  0  0  0  0999 V2000
    6.0427  -16.6997   13.0683 N   0  0  0  0  0  0  0  0  0  0  0  0
    6.9275  -15.6030   13.3134 C   0  0  0  0  0  0  0  0  0  0  0  0
    7.3009  -14.9408   12.3076 O   0  0  0  0  0  0  0  0  0  0  0  0
    7.3612  -15.2889   14.6860 C   0  0  0  0  0  0  0  0  0  0  0  0
    8.6899  -15.8355   15.0749 C   0  0  0  0  0  0  0  0  0  0  0  0
    8.6977  -16.6380   16.3481 C   0  0  2  0  0  0  0  0  0  0  0  0
    7.4288  -17.3030   16.5754 N   0  0  0  0  0  0  0  0  0  0  0  0
    9.1278  -15.8389   17.5067 C   0  0  0  0  0  0  0  0  0  0  0  0
   10.2456  -15.2737   17.4652 O   0  0  0  0  0  0  0  0  0  0  0  0
    7.3408  -12.9467   19.8401 C   0  0  0  0  0  0  0  0  0  0  0  0
    7.8971  -14.1365   20.6019 C   0  0  1  0  0  0  0  0  0  0  0  0
    6.8935  -14.9108   21.1638 O   0  0  0  0  0  0  0  0  0  0  0  0
    8.8881  -14.9167   19.8092 C   0  0  2  0  0  0  0  0  0  0  0  0
    8.3927  -15.6357   18.6950 N   0  0  0  0  0  0  0  0  0  0  0  0
    9.6069  -15.8253   20.7603 C   0  0  0  0  0  0  0  0  0  0  0  0
    9.4527  -17.0851   20.6978 O   0  0  0  0  0  0  0  0  0  0  0  0
   10.4878  -15.3653   21.7720 N   0  0  0  0  0  0  0  0  0  0  0  0
   11.1866  -16.2608   22.6754 C   0  0  1  0  0  0  0  0  0  0  0  0
   12.5969  -15.7358   22.8140 C   0  0  0  0  0  0  0  0  0  0  0  0
   13.4371  -16.6072   23.6646 C   0  0  0  0  0  0  0  0  0  0  0  0
   13.0516  -17.6725   24.2009 O   0  0  0  0  0  0  0  0  0  0  0  0
   10.5953  -16.2250   24.0385 C   0  0  0  0  0  0  0  0  0  0  0  0
    9.9244  -15.2147   24.3572 O   0  0  0  0  0  0  0  0  0  0  0  0
   14.7534  -16.1934   23.8723 O   0  0  0  0  0  0  0  0  0  0  0  0
   10.7382  -17.2319   24.9731 O   0  0  0  0  0  0  0  0  0  0  0  0
  2  1  1  0
  2  3  2  0
  4  2  1  0
  5  4  1  0
  6  5  1  0
  6  8  1  0
  6  7  1  1
  8  9  2  0
 11 10  1  6
 12 11  1  0
 13 11  1  0
 14  8  1  0
 13 14  1  6
 15 16  2  0
 15 13  1  0
 17 15  1  0
 18 17  1  0
 19 20  1  0
 18 19  1  1
 20 21  2  0
 22 18  1  0
 22 25  1  0
 23 22  2  0
 24 20  1  0
M  END
$$$$
