QTD.pdb
     RDKit          3D

 25 24  0  0  1  0  0  0  0  0999 V2000
    8.0055  -13.6073   15.5590 N   0  0  0  0  0  0  0  0  0  0  0  0
    7.8987  -14.4439   14.4038 C   0  0  0  0  0  0  0  0  0  0  0  0
    7.0124  -14.1360   13.5616 O   0  0  0  0  0  0  0  0  0  0  0  0
    8.7965  -15.5999   14.2364 C   0  0  0  0  0  0  0  0  0  0  0  0
    9.8591  -15.7359   15.2697 C   0  0  0  0  0  0  0  0  0  0  0  0
    9.4510  -16.4957   16.5032 C   0  0  2  0  0  0  0  0  0  0  0  0
    8.0834  -16.9713   16.4169 N   0  0  0  0  0  0  0  0  0  0  0  0
    9.7028  -15.7319   17.7357 C   0  0  0  0  0  0  0  0  0  0  0  0
   10.8451  -15.2512   17.9220 O   0  0  0  0  0  0  0  0  0  0  0  0
    7.5958  -12.8189   19.7113 C   0  0  0  0  0  0  0  0  0  0  0  0
    8.0186  -13.9834   20.5892 C   0  0  1  0  0  0  0  0  0  0  0  0
    6.9319  -14.7156   21.0424 O   0  0  0  0  0  0  0  0  0  0  0  0
    9.0889  -14.8139   19.9695 C   0  0  2  0  0  0  0  0  0  0  0  0
    8.7660  -15.4760   18.7608 N   0  0  0  0  0  0  0  0  0  0  0  0
    9.5583  -15.7874   21.0082 C   0  0  0  0  0  0  0  0  0  0  0  0
    9.2135  -17.0094   20.9568 O   0  0  0  0  0  0  0  0  0  0  0  0
   10.3977  -15.4328   22.0948 N   0  0  0  0  0  0  0  0  0  0  0  0
   10.9134  -16.4041   23.0419 C   0  0  1  0  0  0  0  0  0  0  0  0
   12.2345  -15.8707   23.5460 C   0  0  0  0  0  0  0  0  0  0  0  0
   13.2970  -15.9474   22.5194 C   0  0  0  0  0  0  0  0  0  0  0  0
   14.2758  -15.1682   22.4411 O   0  0  0  0  0  0  0  0  0  0  0  0
   10.0319  -16.5202   24.2329 C   0  0  0  0  0  0  0  0  0  0  0  0
    9.1534  -15.6406   24.3967 O   0  0  0  0  0  0  0  0  0  0  0  0
   13.1814  -16.9708   21.5779 O   0  0  0  0  0  0  0  0  0  0  0  0
   10.1198  -17.5334   25.1675 O   0  0  0  0  0  0  0  0  0  0  0  0
  2  1  1  0
  2  3  2  0
  4  2  1  0
  5  4  1  0
  6  5  1  0
  6  8  1  0
  6  7  1  6
  8  9  2  0
 11 10  1  6
 12 11  1  0
 13 11  1  0
 14  8  1  0
 13 14  1  6
 15 16  2  0
 15 13  1  0
 17 15  1  0
 18 17  1  0
 19 20  1  0
 18 19  1  1
 20 21  2  0
 22 18  1  0
 22 25  1  0
 23 22  2  0
 24 20  1  0
M  END
$$$$
