QTD.pdb
     RDKit          3D

 25 24  0  0  1  0  0  0  0  0999 V2000
    7.9312  -12.8658   16.1003 N   0  0  0  0  0  0  0  0  0  0  0  0
    8.1943  -14.2040   16.5312 C   0  0  0  0  0  0  0  0  0  0  0  0
    8.1202  -15.1064   15.6538 O   0  0  0  0  0  0  0  0  0  0  0  0
    8.5334  -14.4799   17.9381 C   0  0  0  0  0  0  0  0  0  0  0  0
    8.4924  -13.3011   18.8460 C   0  0  0  0  0  0  0  0  0  0  0  0
    9.4089  -13.3854   20.0369 C   0  0  2  0  0  0  0  0  0  0  0  0
   10.7898  -13.5898   19.6424 N   0  0  0  0  0  0  0  0  0  0  0  0
    8.9530  -14.3808   21.0203 C   0  0  0  0  0  0  0  0  0  0  0  0
    7.7398  -14.4040   21.3336 O   0  0  0  0  0  0  0  0  0  0  0  0
    8.7156  -18.5224   23.4711 C   0  0  0  0  0  0  0  0  0  0  0  0
    9.2087  -17.6638   22.3201 C   0  0  1  0  0  0  0  0  0  0  0  0
    8.5181  -17.9205   21.1456 O   0  0  0  0  0  0  0  0  0  0  0  0
    9.2853  -16.2180   22.6707 C   0  0  2  0  0  0  0  0  0  0  0  0
    9.7618  -15.3405   21.6673 N   0  0  0  0  0  0  0  0  0  0  0  0
   10.1050  -16.1030   23.9204 C   0  0  0  0  0  0  0  0  0  0  0  0
   11.3740  -16.1495   23.8720 O   0  0  0  0  0  0  0  0  0  0  0  0
    9.5468  -15.9381   25.2136 N   0  0  0  0  0  0  0  0  0  0  0  0
   10.3550  -15.8556   26.4162 C   0  0  1  0  0  0  0  0  0  0  0  0
    9.5608  -15.0626   27.4283 C   0  0  0  0  0  0  0  0  0  0  0  0
   10.3289  -14.8078   28.6667 C   0  0  0  0  0  0  0  0  0  0  0  0
   11.4704  -15.2653   28.9093 O   0  0  0  0  0  0  0  0  0  0  0  0
   10.5699  -17.1976   27.0176 C   0  0  0  0  0  0  0  0  0  0  0  0
   11.5095  -17.3258   27.8380 O   0  0  0  0  0  0  0  0  0  0  0  0
    9.7184  -13.9952   29.6227 O   0  0  0  0  0  0  0  0  0  0  0  0
    9.8017  -18.3089   26.7300 O   0  0  0  0  0  0  0  0  0  0  0  0
  2  1  1  0
  2  3  2  0
  4  2  1  0
  5  4  1  0
  6  5  1  0
  6  8  1  0
  6  7  1  6
  8  9  2  0
 11 10  1  1
 12 11  1  0
 13 11  1  0
 14  8  1  0
 13 14  1  6
 15 16  2  0
 15 13  1  0
 17 15  1  0
 18 17  1  0
 19 20  1  0
 18 19  1  1
 20 21  2  0
 22 18  1  0
 22 25  1  0
 23 22  2  0
 24 20  1  0
M  END
$$$$
