QTD.pdb
     RDKit          3D

 25 24  0  0  1  0  0  0  0  0999 V2000
    8.2953  -12.6102   16.5093 N   0  0  0  0  0  0  0  0  0  0  0  0
    7.4025  -13.7019   16.2705 C   0  0  0  0  0  0  0  0  0  0  0  0
    7.1455  -13.9700   15.0656 O   0  0  0  0  0  0  0  0  0  0  0  0
    6.8299  -14.4558   17.3993 C   0  0  0  0  0  0  0  0  0  0  0  0
    7.3333  -14.0675   18.7451 C   0  0  0  0  0  0  0  0  0  0  0  0
    8.3506  -15.0058   19.3368 C   0  0  2  0  0  0  0  0  0  0  0  0
    7.9729  -16.3948   19.1579 N   0  0  0  0  0  0  0  0  0  0  0  0
    8.6548  -14.6832   20.7401 C   0  0  0  0  0  0  0  0  0  0  0  0
    8.3731  -13.5397   21.1685 O   0  0  0  0  0  0  0  0  0  0  0  0
    7.6578  -13.4103   23.2032 C   0  0  0  0  0  0  0  0  0  0  0  0
    8.1042  -14.7620   23.7314 C   0  0  1  0  0  0  0  0  0  0  0  0
    7.0667  -15.6814   23.7532 O   0  0  0  0  0  0  0  0  0  0  0  0
    9.3392  -15.2622   23.0652 C   0  0  2  0  0  0  0  0  0  0  0  0
    9.2481  -15.5514   21.6825 N   0  0  0  0  0  0  0  0  0  0  0  0
    9.8107  -16.4584   23.8358 C   0  0  0  0  0  0  0  0  0  0  0  0
    9.3531  -17.6165   23.5825 O   0  0  0  0  0  0  0  0  0  0  0  0
   10.7740  -16.3940   24.8745 N   0  0  0  0  0  0  0  0  0  0  0  0
   11.2053  -17.5603   25.6228 C   0  0  1  0  0  0  0  0  0  0  0  0
   12.6834  -17.3919   25.8893 C   0  0  0  0  0  0  0  0  0  0  0  0
   13.4907  -17.5037   24.6546 C   0  0  0  0  0  0  0  0  0  0  0  0
   14.3157  -18.4172   24.4177 O   0  0  0  0  0  0  0  0  0  0  0  0
   10.5486  -17.6228   26.9546 C   0  0  0  0  0  0  0  0  0  0  0  0
    9.8239  -16.6573   27.2938 O   0  0  0  0  0  0  0  0  0  0  0  0
   13.3042  -16.5074   23.6956 O   0  0  0  0  0  0  0  0  0  0  0  0
   10.6864  -18.6746   27.8392 O   0  0  0  0  0  0  0  0  0  0  0  0
  2  1  1  0
  2  3  2  0
  4  2  1  0
  5  4  1  0
  6  5  1  0
  6  8  1  0
  6  7  1  1
  8  9  2  0
 11 10  1  6
 12 11  1  0
 13 11  1  0
 14  8  1  0
 13 14  1  6
 15 16  2  0
 15 13  1  0
 17 15  1  0
 18 17  1  0
 19 20  1  0
 18 19  1  1
 20 21  2  0
 22 18  1  0
 22 25  1  0
 23 22  2  0
 24 20  1  0
M  END
$$$$
