QTD.pdb
     RDKit          3D

 25 24  0  0  1  0  0  0  0  0999 V2000
    8.5497  -20.8151   16.4340 N   0  0  0  0  0  0  0  0  0  0  0  0
    9.8172  -20.1524   16.4342 C   0  0  0  0  0  0  0  0  0  0  0  0
   10.8337  -20.8741   16.6226 O   0  0  0  0  0  0  0  0  0  0  0  0
    9.8961  -18.6968   16.2207 C   0  0  0  0  0  0  0  0  0  0  0  0
    8.5897  -18.0094   16.0295 C   0  0  0  0  0  0  0  0  0  0  0  0
    8.6815  -16.5245   15.8017 C   0  0  2  0  0  0  0  0  0  0  0  0
    9.5926  -16.1992   14.7208 N   0  0  0  0  0  0  0  0  0  0  0  0
    8.9931  -15.7902   17.0384 C   0  0  0  0  0  0  0  0  0  0  0  0
   10.1844  -15.4742   17.2657 O   0  0  0  0  0  0  0  0  0  0  0  0
    7.8955  -13.0481   21.0152 C   0  0  0  0  0  0  0  0  0  0  0  0
    7.3836  -13.8204   19.8123 C   0  0  1  0  0  0  0  0  0  0  0  0
    6.7385  -12.9982   18.9013 O   0  0  0  0  0  0  0  0  0  0  0  0
    8.4242  -14.6954   19.2034 C   0  0  2  0  0  0  0  0  0  0  0  0
    8.0646  -15.3925   18.0250 N   0  0  0  0  0  0  0  0  0  0  0  0
    8.8923  -15.6418   20.2675 C   0  0  0  0  0  0  0  0  0  0  0  0
    9.1159  -16.8634   19.9983 O   0  0  0  0  0  0  0  0  0  0  0  0
    9.1157  -15.2605   21.6149 N   0  0  0  0  0  0  0  0  0  0  0  0
    9.9623  -16.0179   22.5183 C   0  0  1  0  0  0  0  0  0  0  0  0
   11.3782  -15.8931   22.0051 C   0  0  0  0  0  0  0  0  0  0  0  0
   12.3493  -16.6065   22.8634 C   0  0  0  0  0  0  0  0  0  0  0  0
   12.0589  -17.2216   23.9163 O   0  0  0  0  0  0  0  0  0  0  0  0
    9.9626  -15.4283   23.8826 C   0  0  0  0  0  0  0  0  0  0  0  0
    9.7660  -14.1941   23.9850 O   0  0  0  0  0  0  0  0  0  0  0  0
   13.6823  -16.5799   22.4518 O   0  0  0  0  0  0  0  0  0  0  0  0
   10.1653  -16.1528   25.0410 O   0  0  0  0  0  0  0  0  0  0  0  0
  2  1  1  0
  2  3  2  0
  4  2  1  0
  5  4  1  0
  6  5  1  0
  6  8  1  0
  6  7  1  6
  8  9  2  0
 11 10  1  1
 12 11  1  0
 13 11  1  0
 14  8  1  0
 13 14  1  6
 15 16  2  0
 15 13  1  0
 17 15  1  0
 18 17  1  0
 19 20  1  0
 18 19  1  6
 20 21  2  0
 22 18  1  0
 22 25  1  0
 23 22  2  0
 24 20  1  0
M  END
$$$$
