QTD.pdb
     RDKit          3D

 25 24  0  0  1  0  0  0  0  0999 V2000
    6.9492  -20.0342   18.3718 N   0  0  0  0  0  0  0  0  0  0  0  0
    8.3591  -19.9300   18.1548 C   0  0  0  0  0  0  0  0  0  0  0  0
    9.0886  -20.7597   18.7624 O   0  0  0  0  0  0  0  0  0  0  0  0
    8.8996  -18.8934   17.2582 C   0  0  0  0  0  0  0  0  0  0  0  0
    7.8826  -18.0383   16.5873 C   0  0  0  0  0  0  0  0  0  0  0  0
    8.3154  -16.6196   16.3321 C   0  0  2  0  0  0  0  0  0  0  0  0
    9.2072  -16.5236   15.1921 N   0  0  0  0  0  0  0  0  0  0  0  0
    8.8733  -15.9831   17.5361 C   0  0  0  0  0  0  0  0  0  0  0  0
   10.1104  -15.7920   17.5963 O   0  0  0  0  0  0  0  0  0  0  0  0
    7.2998  -12.7519   19.6349 C   0  0  0  0  0  0  0  0  0  0  0  0
    7.8002  -13.9078   20.4827 C   0  0  1  0  0  0  0  0  0  0  0  0
    6.7665  -14.5584   21.1388 O   0  0  0  0  0  0  0  0  0  0  0  0
    8.7085  -14.8210   19.7342 C   0  0  2  0  0  0  0  0  0  0  0  0
    8.1406  -15.5524   18.6636 N   0  0  0  0  0  0  0  0  0  0  0  0
    9.3459  -15.7376   20.7345 C   0  0  0  0  0  0  0  0  0  0  0  0
    8.9991  -16.9576   20.8116 O   0  0  0  0  0  0  0  0  0  0  0  0
   10.3542  -15.3286   21.6440 N   0  0  0  0  0  0  0  0  0  0  0  0
   10.9453  -16.2247   22.6206 C   0  0  1  0  0  0  0  0  0  0  0  0
   12.2114  -15.5648   23.1158 C   0  0  0  0  0  0  0  0  0  0  0  0
   13.4096  -16.3962   22.8673 C   0  0  0  0  0  0  0  0  0  0  0  0
   14.5351  -16.2047   23.3849 O   0  0  0  0  0  0  0  0  0  0  0  0
   10.0685  -16.3840   23.8101 C   0  0  0  0  0  0  0  0  0  0  0  0
    9.2726  -15.4526   24.0772 O   0  0  0  0  0  0  0  0  0  0  0  0
   13.2530  -17.4682   21.9879 O   0  0  0  0  0  0  0  0  0  0  0  0
   10.0757  -17.4903   24.6369 O   0  0  0  0  0  0  0  0  0  0  0  0
  2  1  1  0
  2  3  2  0
  4  2  1  0
  5  4  1  0
  6  5  1  0
  6  8  1  0
  6  7  1  6
  8  9  2  0
 11 10  1  6
 12 11  1  0
 13 11  1  0
 14  8  1  0
 13 14  1  6
 15 16  2  0
 15 13  1  0
 17 15  1  0
 18 17  1  0
 19 20  1  0
 18 19  1  1
 20 21  2  0
 22 18  1  0
 22 25  1  0
 23 22  2  0
 24 20  1  0
M  END
$$$$
