WEY.pdb
     RDKit          3D

 36 38  0  0  1  0  0  0  0  0999 V2000
    6.9048  -17.4961   25.1021 N   0  0  0  0  0  0  0  0  0  0  0  0
    7.8784  -16.5909   24.5346 C   0  0  1  0  0  0  0  0  0  0  0  0
    8.4335  -15.6636   25.5970 C   0  0  0  0  0  0  0  0  0  0  0  0
    7.4073  -14.6720   26.0081 C   0  0  0  0  0  0  0  0  0  0  0  0
    6.2116  -14.8455   26.6688 C   0  0  0  0  0  0  0  0  0  0  0  0
    5.6090  -13.6644   26.8260 N   0  0  0  0  0  0  0  0  0  0  0  0
    6.3630  -12.6924   26.2899 C   0  0  0  0  0  0  0  0  0  0  0  0
    6.2014  -11.3236   26.1862 C   0  0  0  0  0  0  0  0  0  0  0  0
    7.1760  -10.5993   25.5667 C   0  0  0  0  0  0  0  0  0  0  0  0
    8.3180  -11.2103   25.0431 C   0  0  0  0  0  0  0  0  0  0  0  0
    8.4786  -12.5753   25.1469 C   0  0  0  0  0  0  0  0  0  0  0  0
    7.4973  -13.3109   25.7716 C   0  0  0  0  0  0  0  0  0  0  0  0
    8.9693  -17.4370   23.9282 C   0  0  0  0  0  0  0  0  0  0  0  0
    9.3076  -18.4870   24.5045 O   0  0  0  0  0  0  0  0  0  0  0  0
    9.6050  -17.0552   22.7245 N   0  0  0  0  0  0  0  0  0  0  0  0
   10.9239  -17.3422   22.3051 C   0  0  1  0  0  0  0  0  0  0  0  0
   11.3427  -16.7673   20.9563 C   0  0  0  0  0  0  0  0  0  0  0  0
   12.6885  -17.1966   20.4914 C   0  0  0  0  0  0  0  0  0  0  0  0
   12.6703  -17.4569   19.0133 C   0  0  0  0  0  0  0  0  0  0  0  0
   11.6659  -17.1677   18.3430 O   0  0  0  0  0  0  0  0  0  0  0  0
   11.9769  -17.0405   23.2763 C   0  0  0  0  0  0  0  0  0  0  0  0
   12.6177  -15.9456   23.1143 O   0  0  0  0  0  0  0  0  0  0  0  0
   13.7980  -18.0213   18.4438 O   0  0  0  0  0  0  0  0  0  0  0  0
    8.4404  -14.6933   28.2909 O   0  0  0  0  0  0  0  0  0  0  0  0
    9.5227  -15.4791   27.9172 C   0  0  0  0  0  0  0  0  0  0  0  0
   10.7276  -14.8659   27.6339 C   0  0  0  0  0  0  0  0  0  0  0  0
   11.8346  -15.5938   27.2584 C   0  0  0  0  0  0  0  0  0  0  0  0
   11.7517  -16.9888   27.1578 C   0  0  0  0  0  0  0  0  0  0  0  0
   12.9254  -17.7584   26.7362 C   0  0  0  0  0  0  0  0  0  0  0  0
   13.3674  -17.4156   25.3545 C   0  0  2  0  0  0  0  0  0  0  0  0
   12.3533  -17.8309   24.3659 N   0  0  0  0  0  0  0  0  0  0  0  0
   14.6086  -18.1166   25.0179 C   0  0  0  0  0  0  0  0  0  0  0  0
   14.6308  -19.0470   24.0018 O   0  0  0  0  0  0  0  0  0  0  0  0
   10.5277  -17.5941   27.4471 C   0  0  0  0  0  0  0  0  0  0  0  0
    9.4343  -16.8434   27.8205 C   0  0  0  0  0  0  0  0  0  0  0  0
   15.6609  -17.8816   25.6486 O   0  0  0  0  0  0  0  0  0  0  0  0
  2  1  1  1
  3  2  1  0
  4  3  1  0
  4 12  1  0
  5  6  1  0
  5  4  2  0
  6  7  1  0
  7  8  2  0
  7 12  1  0
  8  9  1  0
  9 10  2  0
 11 10  1  0
 12 11  2  0
 13  2  1  0
 14 13  2  0
 15 13  1  0
 16 15  1  0
 16 17  1  6
 18 17  1  0
 19 23  1  0
 19 18  1  0
 20 19  2  0
 21 16  1  0
 21 31  1  0
 22 21  2  0
 24 25  1  0
 25 26  2  0
 26 27  1  0
 28 29  1  0
 28 27  2  0
 30 29  1  1
 30 31  1  0
 30 32  1  0
 32 36  2  0
 32 33  1  0
 34 28  1  0
 35 34  2  0
 35 25  1  0
M  END
$$$$
