WEY.pdb
     RDKit          3D

 36 38  0  0  1  0  0  0  0  0999 V2000
    6.6160  -17.7406   24.0979 N   0  0  0  0  0  0  0  0  0  0  0  0
    7.4958  -16.7878   23.4597 C   0  0  1  0  0  0  0  0  0  0  0  0
    8.1074  -15.8519   24.4828 C   0  0  0  0  0  0  0  0  0  0  0  0
    7.0635  -14.9788   25.0771 C   0  0  0  0  0  0  0  0  0  0  0  0
    5.9806  -15.2924   25.8679 C   0  0  0  0  0  0  0  0  0  0  0  0
    5.3070  -14.1798   26.1701 N   0  0  0  0  0  0  0  0  0  0  0  0
    5.9029  -13.1181   25.6061 C   0  0  0  0  0  0  0  0  0  0  0  0
    5.6163  -11.7659   25.6072 C   0  0  0  0  0  0  0  0  0  0  0  0
    6.4402  -10.9264   24.9182 C   0  0  0  0  0  0  0  0  0  0  0  0
    7.5526  -11.4048   24.2216 C   0  0  0  0  0  0  0  0  0  0  0  0
    7.8380  -12.7533   24.2209 C   0  0  0  0  0  0  0  0  0  0  0  0
    7.0091  -13.6049   24.9152 C   0  0  0  0  0  0  0  0  0  0  0  0
    8.5603  -17.5791   22.7426 C   0  0  0  0  0  0  0  0  0  0  0  0
    8.8360  -18.7232   23.1480 O   0  0  0  0  0  0  0  0  0  0  0  0
    9.2412  -17.0419   21.6260 N   0  0  0  0  0  0  0  0  0  0  0  0
   10.5976  -17.2112   21.2669 C   0  0  1  0  0  0  0  0  0  0  0  0
   10.9638  -16.8573   19.8295 C   0  0  0  0  0  0  0  0  0  0  0  0
   10.2580  -17.6599   18.7955 C   0  0  0  0  0  0  0  0  0  0  0  0
   10.6129  -17.1680   17.4225 C   0  0  0  0  0  0  0  0  0  0  0  0
   11.5834  -17.6536   16.8193 O   0  0  0  0  0  0  0  0  0  0  0  0
   11.5720  -16.5756   22.1555 C   0  0  0  0  0  0  0  0  0  0  0  0
   11.7108  -15.3085   22.0511 O   0  0  0  0  0  0  0  0  0  0  0  0
    9.8273  -16.1710   16.8716 O   0  0  0  0  0  0  0  0  0  0  0  0
   10.9075  -15.0697   30.4895 O   0  0  0  0  0  0  0  0  0  0  0  0
   10.9711  -15.4302   29.1499 C   0  0  0  0  0  0  0  0  0  0  0  0
    9.8676  -16.0184   28.5630 C   0  0  0  0  0  0  0  0  0  0  0  0
    9.8727  -16.3966   27.2389 C   0  0  0  0  0  0  0  0  0  0  0  0
   11.0161  -16.1858   26.4571 C   0  0  0  0  0  0  0  0  0  0  0  0
   11.0260  -16.6100   25.0543 C   0  0  0  0  0  0  0  0  0  0  0  0
   12.4058  -16.8184   24.5301 C   0  0  2  0  0  0  0  0  0  0  0  0
   12.3680  -17.2160   23.1093 N   0  0  0  0  0  0  0  0  0  0  0  0
   13.0811  -17.8940   25.2599 C   0  0  0  0  0  0  0  0  0  0  0  0
   13.6110  -17.6626   26.5105 O   0  0  0  0  0  0  0  0  0  0  0  0
   12.1232  -15.5907   27.0640 C   0  0  0  0  0  0  0  0  0  0  0  0
   12.0931  -15.2213   28.3911 C   0  0  0  0  0  0  0  0  0  0  0  0
   13.1869  -19.0326   24.7571 O   0  0  0  0  0  0  0  0  0  0  0  0
  2  1  1  1
  3  2  1  0
  4  3  1  0
  4 12  1  0
  5  6  1  0
  5  4  2  0
  6  7  1  0
  7  8  2  0
  7 12  1  0
  8  9  1  0
  9 10  2  0
 11 10  1  0
 12 11  2  0
 13  2  1  0
 14 13  2  0
 15 13  1  0
 16 15  1  0
 16 17  1  6
 18 17  1  0
 19 23  1  0
 19 18  1  0
 20 19  2  0
 21 16  1  0
 21 31  1  0
 22 21  2  0
 24 25  1  0
 25 26  2  0
 26 27  1  0
 28 29  1  0
 28 27  2  0
 30 29  1  1
 30 31  1  0
 30 32  1  0
 32 36  2  0
 32 33  1  0
 34 28  1  0
 35 34  2  0
 35 25  1  0
M  END
$$$$
