WEY.pdb
     RDKit          3D

 36 38  0  0  1  0  0  0  0  0999 V2000
    6.5152  -18.2825   25.0569 N   0  0  0  0  0  0  0  0  0  0  0  0
    6.9238  -17.7554   23.7745 C   0  0  1  0  0  0  0  0  0  0  0  0
    6.3627  -16.3637   23.5620 C   0  0  0  0  0  0  0  0  0  0  0  0
    6.4958  -15.5556   24.8007 C   0  0  0  0  0  0  0  0  0  0  0  0
    6.2683  -15.8931   26.1163 C   0  0  0  0  0  0  0  0  0  0  0  0
    6.5169  -14.8411   26.9000 N   0  0  0  0  0  0  0  0  0  0  0  0
    6.9074  -13.7973   26.1527 C   0  0  0  0  0  0  0  0  0  0  0  0
    7.2753  -12.5016   26.4630 C   0  0  0  0  0  0  0  0  0  0  0  0
    7.6275  -11.6648   25.4461 C   0  0  0  0  0  0  0  0  0  0  0  0
    7.6221  -12.0906   24.1156 C   0  0  0  0  0  0  0  0  0  0  0  0
    7.2552  -13.3828   23.8067 C   0  0  0  0  0  0  0  0  0  0  0  0
    6.8989  -14.2315   24.8301 C   0  0  0  0  0  0  0  0  0  0  0  0
    8.4315  -17.7411   23.7614 C   0  0  0  0  0  0  0  0  0  0  0  0
    9.0448  -17.9224   24.8292 O   0  0  0  0  0  0  0  0  0  0  0  0
    9.1488  -17.5270   22.5621 N   0  0  0  0  0  0  0  0  0  0  0  0
   10.5497  -17.4939   22.3773 C   0  0  1  0  0  0  0  0  0  0  0  0
   11.0377  -17.4092   20.9351 C   0  0  0  0  0  0  0  0  0  0  0  0
   12.5156  -17.3383   20.7849 C   0  0  0  0  0  0  0  0  0  0  0  0
   12.8864  -17.2141   19.3358 C   0  0  0  0  0  0  0  0  0  0  0  0
   13.2530  -16.1193   18.8791 O   0  0  0  0  0  0  0  0  0  0  0  0
   11.2683  -16.4883   23.1618 C   0  0  0  0  0  0  0  0  0  0  0  0
   11.3996  -15.3296   22.6369 O   0  0  0  0  0  0  0  0  0  0  0  0
   12.8029  -18.3493   18.5490 O   0  0  0  0  0  0  0  0  0  0  0  0
    9.9296  -17.8214   30.4732 O   0  0  0  0  0  0  0  0  0  0  0  0
   10.3919  -17.0693   29.4012 C   0  0  0  0  0  0  0  0  0  0  0  0
    9.6484  -17.0371   28.2375 C   0  0  0  0  0  0  0  0  0  0  0  0
   10.0570  -16.3089   27.1425 C   0  0  0  0  0  0  0  0  0  0  0  0
   11.2518  -15.5788   27.1959 C   0  0  0  0  0  0  0  0  0  0  0  0
   11.6950  -14.8230   26.0212 C   0  0  0  0  0  0  0  0  0  0  0  0
   12.5903  -15.6190   25.1340 C   0  0  2  0  0  0  0  0  0  0  0  0
   11.8268  -16.6679   24.4305 N   0  0  0  0  0  0  0  0  0  0  0  0
   13.6287  -16.2941   25.9158 C   0  0  0  0  0  0  0  0  0  0  0  0
   13.7004  -17.6698   25.9395 O   0  0  0  0  0  0  0  0  0  0  0  0
   11.9921  -15.6212   28.3783 C   0  0  0  0  0  0  0  0  0  0  0  0
   11.5618  -16.3577   29.4604 C   0  0  0  0  0  0  0  0  0  0  0  0
   14.4600  -15.6317   26.5721 O   0  0  0  0  0  0  0  0  0  0  0  0
  2  1  1  1
  3  2  1  0
  4  3  1  0
  4 12  1  0
  5  6  1  0
  5  4  2  0
  6  7  1  0
  7  8  2  0
  7 12  1  0
  8  9  1  0
  9 10  2  0
 11 10  1  0
 12 11  2  0
 13  2  1  0
 14 13  2  0
 15 13  1  0
 16 15  1  0
 16 17  1  6
 18 17  1  0
 19 23  1  0
 19 18  1  0
 20 19  2  0
 21 16  1  0
 21 31  1  0
 22 21  2  0
 24 25  1  0
 25 26  2  0
 26 27  1  0
 28 29  1  0
 28 27  2  0
 30 29  1  1
 30 31  1  0
 30 32  1  0
 32 36  2  0
 32 33  1  0
 34 28  1  0
 35 34  2  0
 35 25  1  0
M  END
$$$$
