WEY.pdb
     RDKit          3D

 36 38  0  0  1  0  0  0  0  0999 V2000
    8.9097  -17.4326   21.1107 N   0  0  0  0  0  0  0  0  0  0  0  0
    8.9475  -16.4685   22.1871 C   0  0  1  0  0  0  0  0  0  0  0  0
    7.5455  -16.0615   22.5936 C   0  0  0  0  0  0  0  0  0  0  0  0
    6.8667  -15.3534   21.4786 C   0  0  0  0  0  0  0  0  0  0  0  0
    5.7947  -15.7316   20.7013 C   0  0  0  0  0  0  0  0  0  0  0  0
    5.5250  -14.7741   19.8106 N   0  0  0  0  0  0  0  0  0  0  0  0
    6.3847  -13.7550   19.9615 C   0  0  0  0  0  0  0  0  0  0  0  0
    6.5367  -12.5461   19.3088 C   0  0  0  0  0  0  0  0  0  0  0  0
    7.5350  -11.7104   19.7131 C   0  0  0  0  0  0  0  0  0  0  0  0
    8.3934  -12.0522   20.7609 C   0  0  0  0  0  0  0  0  0  0  0  0
    8.2413  -13.2578   21.4114 C   0  0  0  0  0  0  0  0  0  0  0  0
    7.2348  -14.1050   21.0069 C   0  0  0  0  0  0  0  0  0  0  0  0
    9.6799  -17.1154   23.3355 C   0  0  0  0  0  0  0  0  0  0  0  0
    9.0870  -17.9642   24.0263 O   0  0  0  0  0  0  0  0  0  0  0  0
   11.0189  -16.7726   23.6328 N   0  0  0  0  0  0  0  0  0  0  0  0
   11.8124  -17.2131   24.7163 C   0  0  1  0  0  0  0  0  0  0  0  0
   13.3113  -17.3169   24.4559 C   0  0  0  0  0  0  0  0  0  0  0  0
   13.6736  -18.0244   23.1989 C   0  0  0  0  0  0  0  0  0  0  0  0
   15.1549  -17.9506   22.9682 C   0  0  0  0  0  0  0  0  0  0  0  0
   15.8367  -18.9882   22.9669 O   0  0  0  0  0  0  0  0  0  0  0  0
   11.6172  -16.4953   25.9772 C   0  0  0  0  0  0  0  0  0  0  0  0
   12.2693  -15.4060   26.1304 O   0  0  0  0  0  0  0  0  0  0  0  0
   15.7141  -16.7019   22.7619 O   0  0  0  0  0  0  0  0  0  0  0  0
    7.1831  -12.5764   24.7413 O   0  0  0  0  0  0  0  0  0  0  0  0
    7.7329  -13.3869   25.7258 C   0  0  0  0  0  0  0  0  0  0  0  0
    8.6335  -12.8376   26.6176 C   0  0  0  0  0  0  0  0  0  0  0  0
    9.2106  -13.5925   27.6143 C   0  0  0  0  0  0  0  0  0  0  0  0
    8.8860  -14.9498   27.7388 C   0  0  0  0  0  0  0  0  0  0  0  0
    9.5189  -15.7556   28.7865 C   0  0  0  0  0  0  0  0  0  0  0  0
   10.8542  -16.2772   28.3778 C   0  0  2  0  0  0  0  0  0  0  0  0
   10.7873  -16.8820   27.0332 N   0  0  0  0  0  0  0  0  0  0  0  0
   11.3064  -17.3233   29.2979 C   0  0  0  0  0  0  0  0  0  0  0  0
   11.5470  -18.5999   28.8388 O   0  0  0  0  0  0  0  0  0  0  0  0
    7.9747  -15.4906   26.8304 C   0  0  0  0  0  0  0  0  0  0  0  0
    7.4110  -14.7140   25.8416 C   0  0  0  0  0  0  0  0  0  0  0  0
   11.4770  -17.0720   30.5096 O   0  0  0  0  0  0  0  0  0  0  0  0
  2  1  1  6
  3  2  1  0
  4  3  1  0
  4 12  1  0
  5  6  1  0
  5  4  2  0
  6  7  1  0
  7  8  2  0
  7 12  1  0
  8  9  1  0
  9 10  2  0
 11 10  1  0
 12 11  2  0
 13  2  1  0
 14 13  2  0
 15 13  1  0
 16 15  1  0
 16 17  1  6
 18 17  1  0
 19 23  1  0
 19 18  1  0
 20 19  2  0
 21 16  1  0
 21 31  1  0
 22 21  2  0
 24 25  1  0
 25 26  2  0
 26 27  1  0
 28 29  1  0
 28 27  2  0
 30 29  1  1
 30 31  1  0
 30 32  1  0
 32 36  2  0
 32 33  1  0
 34 28  1  0
 35 34  2  0
 35 25  1  0
M  END
$$$$
