WEY.pdb
     RDKit          3D

 36 38  0  0  1  0  0  0  0  0999 V2000
    7.6389  -17.8730   21.4307 N   0  0  0  0  0  0  0  0  0  0  0  0
    8.8895  -17.1573   21.3164 C   0  0  1  0  0  0  0  0  0  0  0  0
    8.8117  -15.8221   22.0290 C   0  0  0  0  0  0  0  0  0  0  0  0
    7.8104  -14.9420   21.3748 C   0  0  0  0  0  0  0  0  0  0  0  0
    6.5004  -14.6779   21.7074 C   0  0  0  0  0  0  0  0  0  0  0  0
    5.9773  -13.8199   20.8282 N   0  0  0  0  0  0  0  0  0  0  0  0
    6.8965  -13.4933   19.9068 C   0  0  0  0  0  0  0  0  0  0  0  0
    6.8699  -12.6620   18.8029 C   0  0  0  0  0  0  0  0  0  0  0  0
    8.0006  -12.5443   18.0506 C   0  0  0  0  0  0  0  0  0  0  0  0
    9.1679  -13.2405   18.3737 C   0  0  0  0  0  0  0  0  0  0  0  0
    9.1938  -14.0694   19.4747 C   0  0  0  0  0  0  0  0  0  0  0  0
    8.0546  -14.1915   20.2374 C   0  0  0  0  0  0  0  0  0  0  0  0
    9.9580  -18.0336   21.9196 C   0  0  0  0  0  0  0  0  0  0  0  0
    9.7173  -18.6298   22.9854 O   0  0  0  0  0  0  0  0  0  0  0  0
   11.2170  -18.1846   21.2943 N   0  0  0  0  0  0  0  0  0  0  0  0
   12.4886  -18.2776   21.9042 C   0  0  1  0  0  0  0  0  0  0  0  0
   13.6820  -17.8906   21.0374 C   0  0  0  0  0  0  0  0  0  0  0  0
   15.0030  -18.0252   21.7071 C   0  0  0  0  0  0  0  0  0  0  0  0
   16.1067  -17.6484   20.7623 C   0  0  0  0  0  0  0  0  0  0  0  0
   16.2210  -18.2346   19.6738 O   0  0  0  0  0  0  0  0  0  0  0  0
   12.6231  -17.5995   23.1946 C   0  0  0  0  0  0  0  0  0  0  0  0
   12.9702  -16.3689   23.1687 O   0  0  0  0  0  0  0  0  0  0  0  0
   16.9720  -16.6408   21.1503 O   0  0  0  0  0  0  0  0  0  0  0  0
   10.2645  -14.0818   30.7402 O   0  0  0  0  0  0  0  0  0  0  0  0
   10.4247  -14.7235   29.5192 C   0  0  0  0  0  0  0  0  0  0  0  0
   10.3022  -16.0984   29.4657 C   0  0  0  0  0  0  0  0  0  0  0  0
   10.4506  -16.7885   28.2833 C   0  0  0  0  0  0  0  0  0  0  0  0
   10.7321  -16.0933   27.0998 C   0  0  0  0  0  0  0  0  0  0  0  0
   10.9117  -16.8329   25.8474 C   0  0  0  0  0  0  0  0  0  0  0  0
   12.2958  -17.3636   25.6906 C   0  0  2  0  0  0  0  0  0  0  0  0
   12.4096  -18.1634   24.4555 N   0  0  0  0  0  0  0  0  0  0  0  0
   12.6431  -18.2452   26.8075 C   0  0  0  0  0  0  0  0  0  0  0  0
   13.2583  -17.7382   27.9313 O   0  0  0  0  0  0  0  0  0  0  0  0
   10.8530  -14.7046   27.1696 C   0  0  0  0  0  0  0  0  0  0  0  0
   10.7002  -14.0371   28.3653 C   0  0  0  0  0  0  0  0  0  0  0  0
   12.3882  -19.4669   26.7543 O   0  0  0  0  0  0  0  0  0  0  0  0
  2  1  1  1
  3  2  1  0
  4  3  1  0
  4 12  1  0
  5  6  1  0
  5  4  2  0
  6  7  1  0
  7  8  2  0
  7 12  1  0
  8  9  1  0
  9 10  2  0
 11 10  1  0
 12 11  2  0
 13  2  1  0
 14 13  2  0
 15 13  1  0
 16 15  1  0
 16 17  1  6
 18 17  1  0
 19 23  1  0
 19 18  1  0
 20 19  2  0
 21 16  1  0
 21 31  1  0
 22 21  2  0
 24 25  1  0
 25 26  2  0
 26 27  1  0
 28 29  1  0
 28 27  2  0
 30 29  1  1
 30 31  1  0
 30 32  1  0
 32 36  2  0
 32 33  1  0
 34 28  1  0
 35 34  2  0
 35 25  1  0
M  END
$$$$
