WEY.pdb
     RDKit          3D

 36 38  0  0  1  0  0  0  0  0999 V2000
    6.6473  -17.0238   21.9694 N   0  0  0  0  0  0  0  0  0  0  0  0
    7.5804  -16.7810   23.0462 C   0  0  1  0  0  0  0  0  0  0  0  0
    6.8828  -16.8571   24.3894 C   0  0  0  0  0  0  0  0  0  0  0  0
    6.5085  -15.4985   24.8577 C   0  0  0  0  0  0  0  0  0  0  0  0
    5.8611  -15.0957   26.0045 C   0  0  0  0  0  0  0  0  0  0  0  0
    5.7351  -13.7664   26.0067 N   0  0  0  0  0  0  0  0  0  0  0  0
    6.2795  -13.2546   24.8921 C   0  0  0  0  0  0  0  0  0  0  0  0
    6.4117  -11.9640   24.4152 C   0  0  0  0  0  0  0  0  0  0  0  0
    7.0312  -11.7748   23.2157 C   0  0  0  0  0  0  0  0  0  0  0  0
    7.5268  -12.8492   22.4728 C   0  0  0  0  0  0  0  0  0  0  0  0
    7.3946  -14.1359   22.9489 C   0  0  0  0  0  0  0  0  0  0  0  0
    6.7699  -14.3319   24.1596 C   0  0  0  0  0  0  0  0  0  0  0  0
    8.6640  -17.8238   22.9369 C   0  0  0  0  0  0  0  0  0  0  0  0
    8.7558  -18.6922   23.8239 O   0  0  0  0  0  0  0  0  0  0  0  0
    9.5671  -17.8266   21.8491 N   0  0  0  0  0  0  0  0  0  0  0  0
   10.9664  -17.6301   21.8764 C   0  0  1  0  0  0  0  0  0  0  0  0
   11.6257  -17.2913   20.5437 C   0  0  0  0  0  0  0  0  0  0  0  0
   13.1120  -17.2539   20.5802 C   0  0  0  0  0  0  0  0  0  0  0  0
   13.6600  -16.9852   19.2090 C   0  0  0  0  0  0  0  0  0  0  0  0
   12.9838  -16.3527   18.3817 O   0  0  0  0  0  0  0  0  0  0  0  0
   11.4533  -16.6822   22.8801 C   0  0  0  0  0  0  0  0  0  0  0  0
   10.8994  -15.5298   22.9052 O   0  0  0  0  0  0  0  0  0  0  0  0
   14.9245  -17.4636   18.9146 O   0  0  0  0  0  0  0  0  0  0  0  0
   10.9201  -15.0772   31.2443 O   0  0  0  0  0  0  0  0  0  0  0  0
   10.9810  -15.5043   29.9243 C   0  0  0  0  0  0  0  0  0  0  0  0
   11.3648  -16.8046   29.6596 C   0  0  0  0  0  0  0  0  0  0  0  0
   11.4432  -17.2836   28.3710 C   0  0  0  0  0  0  0  0  0  0  0  0
   11.1290  -16.4442   27.2939 C   0  0  0  0  0  0  0  0  0  0  0  0
   11.2351  -16.9504   25.9227 C   0  0  0  0  0  0  0  0  0  0  0  0
   12.4175  -16.4003   25.2005 C   0  0  2  0  0  0  0  0  0  0  0  0
   12.4655  -16.9108   23.8165 N   0  0  0  0  0  0  0  0  0  0  0  0
   13.6621  -16.8115   25.8540 C   0  0  0  0  0  0  0  0  0  0  0  0
   14.0561  -18.1317   25.8364 O   0  0  0  0  0  0  0  0  0  0  0  0
   10.7430  -15.1331   27.5770 C   0  0  0  0  0  0  0  0  0  0  0  0
   10.6726  -14.6776   28.8756 C   0  0  0  0  0  0  0  0  0  0  0  0
   14.3800  -15.9717   26.4369 O   0  0  0  0  0  0  0  0  0  0  0  0
  2  1  1  6
  3  2  1  0
  4  3  1  0
  4 12  1  0
  5  6  1  0
  5  4  2  0
  6  7  1  0
  7  8  2  0
  7 12  1  0
  8  9  1  0
  9 10  2  0
 11 10  1  0
 12 11  2  0
 13  2  1  0
 14 13  2  0
 15 13  1  0
 16 15  1  0
 16 17  1  6
 18 17  1  0
 19 23  1  0
 19 18  1  0
 20 19  2  0
 21 16  1  0
 21 31  1  0
 22 21  2  0
 24 25  1  0
 25 26  2  0
 26 27  1  0
 28 29  1  0
 28 27  2  0
 30 29  1  1
 30 31  1  0
 30 32  1  0
 32 36  2  0
 32 33  1  0
 34 28  1  0
 35 34  2  0
 35 25  1  0
M  END
$$$$
