WEY.pdb
     RDKit          3D

 36 38  0  0  1  0  0  0  0  0999 V2000
    7.0225  -17.5147   25.4524 N   0  0  0  0  0  0  0  0  0  0  0  0
    7.1752  -17.3017   24.0308 C   0  0  1  0  0  0  0  0  0  0  0  0
    6.7162  -15.9104   23.6435 C   0  0  0  0  0  0  0  0  0  0  0  0
    6.6028  -15.0474   24.8466 C   0  0  0  0  0  0  0  0  0  0  0  0
    6.1460  -15.3361   26.1133 C   0  0  0  0  0  0  0  0  0  0  0  0
    6.2240  -14.2451   26.8792 N   0  0  0  0  0  0  0  0  0  0  0  0
    6.7217  -13.2224   26.1673 C   0  0  0  0  0  0  0  0  0  0  0  0
    6.9983  -11.9044   26.4784 C   0  0  0  0  0  0  0  0  0  0  0  0
    7.5121  -11.1008   25.5045 C   0  0  0  0  0  0  0  0  0  0  0  0
    7.7595  -11.5820   24.2165 C   0  0  0  0  0  0  0  0  0  0  0  0
    7.4835  -12.8964   23.9068 C   0  0  0  0  0  0  0  0  0  0  0  0
    6.9647  -13.7117   24.8869 C   0  0  0  0  0  0  0  0  0  0  0  0
    8.6342  -17.5023   23.7072 C   0  0  0  0  0  0  0  0  0  0  0  0
    9.3820  -17.9897   24.5745 O   0  0  0  0  0  0  0  0  0  0  0  0
    9.1565  -17.1472   22.4423 N   0  0  0  0  0  0  0  0  0  0  0  0
   10.4768  -17.3129   21.9657 C   0  0  1  0  0  0  0  0  0  0  0  0
   10.7408  -16.8505   20.5368 C   0  0  0  0  0  0  0  0  0  0  0  0
   12.1320  -17.0739   20.0610 C   0  0  0  0  0  0  0  0  0  0  0  0
   12.1215  -17.7095   18.7013 C   0  0  0  0  0  0  0  0  0  0  0  0
   11.9473  -17.0113   17.6895 O   0  0  0  0  0  0  0  0  0  0  0  0
   11.5322  -16.7703   22.8230 C   0  0  0  0  0  0  0  0  0  0  0  0
   12.1916  -15.7730   22.3691 O   0  0  0  0  0  0  0  0  0  0  0  0
   12.3104  -19.0783   18.6278 O   0  0  0  0  0  0  0  0  0  0  0  0
    9.1297  -16.1579   29.9218 O   0  0  0  0  0  0  0  0  0  0  0  0
    9.9476  -15.9582   28.8174 C   0  0  0  0  0  0  0  0  0  0  0  0
   11.2869  -16.2833   28.9102 C   0  0  0  0  0  0  0  0  0  0  0  0
   12.1454  -16.1070   27.8480 C   0  0  0  0  0  0  0  0  0  0  0  0
   11.6632  -15.5874   26.6394 C   0  0  0  0  0  0  0  0  0  0  0  0
   12.5839  -15.3801   25.5183 C   0  0  0  0  0  0  0  0  0  0  0  0
   13.0015  -16.6596   24.8777 C   0  0  2  0  0  0  0  0  0  0  0  0
   11.8925  -17.2340   24.0914 N   0  0  0  0  0  0  0  0  0  0  0  0
   13.3691  -17.6514   25.8910 C   0  0  0  0  0  0  0  0  0  0  0  0
   14.4067  -17.4055   26.7636 O   0  0  0  0  0  0  0  0  0  0  0  0
   10.3078  -15.2636   26.5609 C   0  0  0  0  0  0  0  0  0  0  0  0
    9.4691  -15.4492   27.6382 C   0  0  0  0  0  0  0  0  0  0  0  0
   12.7487  -18.7323   25.9750 O   0  0  0  0  0  0  0  0  0  0  0  0
  2  1  1  1
  3  2  1  0
  4  3  1  0
  4 12  1  0
  5  6  1  0
  5  4  2  0
  6  7  1  0
  7  8  2  0
  7 12  1  0
  8  9  1  0
  9 10  2  0
 11 10  1  0
 12 11  2  0
 13  2  1  0
 14 13  2  0
 15 13  1  0
 16 15  1  0
 16 17  1  6
 18 17  1  0
 19 23  1  0
 19 18  1  0
 20 19  2  0
 21 16  1  0
 21 31  1  0
 22 21  2  0
 24 25  1  0
 25 26  2  0
 26 27  1  0
 28 29  1  0
 28 27  2  0
 30 29  1  1
 30 31  1  0
 30 32  1  0
 32 36  2  0
 32 33  1  0
 34 28  1  0
 35 34  2  0
 35 25  1  0
M  END
$$$$
