WEY.pdb
     RDKit          3D

 36 38  0  0  1  0  0  0  0  0999 V2000
    9.0158  -16.2626   24.2262 N   0  0  0  0  0  0  0  0  0  0  0  0
    8.1505  -16.7533   23.1774 C   0  0  1  0  0  0  0  0  0  0  0  0
    6.9131  -15.8873   23.0525 C   0  0  0  0  0  0  0  0  0  0  0  0
    6.5578  -15.2968   24.3679 C   0  0  0  0  0  0  0  0  0  0  0  0
    5.9886  -15.8732   25.4815 C   0  0  0  0  0  0  0  0  0  0  0  0
    5.8483  -14.9555   26.4411 N   0  0  0  0  0  0  0  0  0  0  0  0
    6.3069  -13.7705   26.0099 C   0  0  0  0  0  0  0  0  0  0  0  0
    6.3908  -12.5223   26.5977 C   0  0  0  0  0  0  0  0  0  0  0  0
    6.9219  -11.4971   25.8729 C   0  0  0  0  0  0  0  0  0  0  0  0
    7.3756  -11.6862   24.5653 C   0  0  0  0  0  0  0  0  0  0  0  0
    7.2918  -12.9311   23.9797 C   0  0  0  0  0  0  0  0  0  0  0  0
    6.7563  -13.9694   24.7075 C   0  0  0  0  0  0  0  0  0  0  0  0
    8.9523  -16.7426   21.9004 C   0  0  0  0  0  0  0  0  0  0  0  0
    8.4423  -17.2088   20.8652 O   0  0  0  0  0  0  0  0  0  0  0  0
   10.2631  -16.2139   21.8662 N   0  0  0  0  0  0  0  0  0  0  0  0
   11.4822  -16.9130   21.7162 C   0  0  1  0  0  0  0  0  0  0  0  0
   12.2925  -16.5944   20.4643 C   0  0  0  0  0  0  0  0  0  0  0  0
   13.5592  -17.3627   20.3347 C   0  0  0  0  0  0  0  0  0  0  0  0
   14.2772  -16.9744   19.0751 C   0  0  0  0  0  0  0  0  0  0  0  0
   15.2473  -16.2011   19.1251 O   0  0  0  0  0  0  0  0  0  0  0  0
   12.3848  -16.8662   22.8679 C   0  0  0  0  0  0  0  0  0  0  0  0
   13.2229  -15.9010   22.9080 O   0  0  0  0  0  0  0  0  0  0  0  0
   13.8194  -17.5050   17.8820 O   0  0  0  0  0  0  0  0  0  0  0  0
   10.6027  -14.8369   30.9172 O   0  0  0  0  0  0  0  0  0  0  0  0
   10.7351  -15.2018   29.5839 C   0  0  0  0  0  0  0  0  0  0  0  0
   10.4812  -16.5102   29.2208 C   0  0  0  0  0  0  0  0  0  0  0  0
   10.5961  -16.9296   27.9142 C   0  0  0  0  0  0  0  0  0  0  0  0
   10.9780  -16.0193   26.9198 C   0  0  0  0  0  0  0  0  0  0  0  0
   11.1211  -16.4740   25.5341 C   0  0  0  0  0  0  0  0  0  0  0  0
   12.2992  -17.3675   25.3446 C   0  0  2  0  0  0  0  0  0  0  0  0
   12.4228  -17.7728   23.9309 N   0  0  0  0  0  0  0  0  0  0  0  0
   12.1526  -18.5935   26.1324 C   0  0  0  0  0  0  0  0  0  0  0  0
   11.6747  -19.7458   25.5472 O   0  0  0  0  0  0  0  0  0  0  0  0
   11.2312  -14.7010   27.3020 C   0  0  0  0  0  0  0  0  0  0  0  0
   11.1094  -14.3061   28.6164 C   0  0  0  0  0  0  0  0  0  0  0  0
   12.4564  -18.6092   27.3440 O   0  0  0  0  0  0  0  0  0  0  0  0
  2  1  1  1
  3  2  1  0
  4  3  1  0
  4 12  1  0
  5  6  1  0
  5  4  2  0
  6  7  1  0
  7  8  2  0
  7 12  1  0
  8  9  1  0
  9 10  2  0
 11 10  1  0
 12 11  2  0
 13  2  1  0
 14 13  2  0
 15 13  1  0
 16 15  1  0
 16 17  1  6
 18 17  1  0
 19 23  1  0
 19 18  1  0
 20 19  2  0
 21 16  1  0
 21 31  1  0
 22 21  2  0
 24 25  1  0
 25 26  2  0
 26 27  1  0
 28 29  1  0
 28 27  2  0
 30 29  1  6
 30 31  1  0
 30 32  1  0
 32 36  2  0
 32 33  1  0
 34 28  1  0
 35 34  2  0
 35 25  1  0
M  END
$$$$
