WEY.pdb
     RDKit          3D

 36 38  0  0  1  0  0  0  0  0999 V2000
    9.8545  -15.1251   22.5462 N   0  0  0  0  0  0  0  0  0  0  0  0
    9.0367  -15.7478   23.5625 C   0  0  1  0  0  0  0  0  0  0  0  0
    7.5673  -15.6480   23.2057 C   0  0  0  0  0  0  0  0  0  0  0  0
    7.1652  -14.2265   23.0541 C   0  0  0  0  0  0  0  0  0  0  0  0
    7.0006  -13.4605   21.9216 C   0  0  0  0  0  0  0  0  0  0  0  0
    6.6297  -12.2245   22.2645 N   0  0  0  0  0  0  0  0  0  0  0  0
    6.5376  -12.1296   23.5998 C   0  0  0  0  0  0  0  0  0  0  0  0
    6.1993  -11.0932   24.4494 C   0  0  0  0  0  0  0  0  0  0  0  0
    6.2013  -11.3269   25.7924 C   0  0  0  0  0  0  0  0  0  0  0  0
    6.5350  -12.5789   26.3148 C   0  0  0  0  0  0  0  0  0  0  0  0
    6.8722  -13.6120   25.4671 C   0  0  0  0  0  0  0  0  0  0  0  0
    6.8715  -13.3809   24.1102 C   0  0  0  0  0  0  0  0  0  0  0  0
    9.4749  -17.1870   23.6631 C   0  0  0  0  0  0  0  0  0  0  0  0
    8.6967  -18.0200   24.1629 O   0  0  0  0  0  0  0  0  0  0  0  0
   10.7464  -17.5968   23.2003 N   0  0  0  0  0  0  0  0  0  0  0  0
   11.6162  -18.5533   23.7714 C   0  0  1  0  0  0  0  0  0  0  0  0
   12.8945  -18.8507   22.9950 C   0  0  0  0  0  0  0  0  0  0  0  0
   12.6891  -19.1340   21.5496 C   0  0  0  0  0  0  0  0  0  0  0  0
   13.7377  -20.0854   21.0513 C   0  0  0  0  0  0  0  0  0  0  0  0
   14.9295  -19.7385   21.0230 O   0  0  0  0  0  0  0  0  0  0  0  0
   11.9758  -18.3257   25.1721 C   0  0  0  0  0  0  0  0  0  0  0  0
   12.8334  -17.4068   25.4078 O   0  0  0  0  0  0  0  0  0  0  0  0
   13.3255  -21.3385   20.6338 O   0  0  0  0  0  0  0  0  0  0  0  0
    9.5958  -12.8516   27.2240 O   0  0  0  0  0  0  0  0  0  0  0  0
    9.8512  -14.1835   27.5228 C   0  0  0  0  0  0  0  0  0  0  0  0
   11.0295  -14.5101   28.1654 C   0  0  0  0  0  0  0  0  0  0  0  0
   11.3364  -15.8135   28.4870 C   0  0  0  0  0  0  0  0  0  0  0  0
   10.4422  -16.8419   28.1614 C   0  0  0  0  0  0  0  0  0  0  0  0
   10.7821  -18.2302   28.4849 C   0  0  0  0  0  0  0  0  0  0  0  0
   11.9140  -18.7475   27.6643 C   0  0  2  0  0  0  0  0  0  0  0  0
   11.4745  -19.0135   26.2807 N   0  0  0  0  0  0  0  0  0  0  0  0
   12.4131  -20.0127   28.2079 C   0  0  0  0  0  0  0  0  0  0  0  0
   12.8975  -20.0757   29.4962 O   0  0  0  0  0  0  0  0  0  0  0  0
    9.2559  -16.4964   27.5123 C   0  0  0  0  0  0  0  0  0  0  0  0
    8.9720  -15.1845   27.2011 C   0  0  0  0  0  0  0  0  0  0  0  0
   12.4080  -21.0489   27.5101 O   0  0  0  0  0  0  0  0  0  0  0  0
  2  1  1  6
  3  2  1  0
  4  3  1  0
  4 12  1  0
  5  6  1  0
  5  4  2  0
  6  7  1  0
  7  8  2  0
  7 12  1  0
  8  9  1  0
  9 10  2  0
 11 10  1  0
 12 11  2  0
 13  2  1  0
 14 13  2  0
 15 13  1  0
 16 15  1  0
 16 17  1  6
 18 17  1  0
 19 23  1  0
 19 18  1  0
 20 19  2  0
 21 16  1  0
 21 31  1  0
 22 21  2  0
 24 25  1  0
 25 26  2  0
 26 27  1  0
 28 29  1  0
 28 27  2  0
 30 29  1  1
 30 31  1  0
 30 32  1  0
 32 36  2  0
 32 33  1  0
 34 28  1  0
 35 34  2  0
 35 25  1  0
M  END
$$$$
