PKA.pdb
     RDKit          3D

 22 22  0  0  1  0  0  0  0  0999 V2000
   26.2537  -19.5632  -13.8956 N   0  0  0  0  0  0  0  0  0  0  0  0
   27.7091  -19.6524  -13.7279 C   0  0  0  0  0  0  0  0  0  0  0  0
   27.9334  -21.1053  -14.0748 C   0  0  0  0  0  0  0  0  0  0  0  0
   27.0749  -21.2561  -15.3284 C   0  0  0  0  0  0  0  0  0  0  0  0
   26.0445  -20.1848  -15.1915 C   0  0  1  0  0  0  0  0  0  0  0  0
   24.6867  -20.7551  -15.2014 C   0  0  0  0  0  0  0  0  0  0  0  0
   24.2139  -21.3960  -16.1819 O   0  0  0  0  0  0  0  0  0  0  0  0
   23.8549  -20.5888  -14.0660 N   0  0  0  0  0  0  0  0  0  0  0  0
   22.5064  -21.1226  -14.0689 C   0  0  1  0  0  0  0  0  0  0  0  0
   22.1735  -21.4257  -12.6254 C   0  0  0  0  0  0  0  0  0  0  0  0
   20.8199  -22.0340  -12.4367 C   0  0  0  0  0  0  0  0  0  0  0  0
   20.6391  -22.4371  -10.9922 C   0  0  0  0  0  0  0  0  0  0  0  0
   19.2732  -23.0134  -10.7346 C   0  0  0  0  0  0  0  0  0  0  0  0
   19.0358  -23.1878   -9.2973 N   0  0  0  0  0  0  0  0  0  0  0  0
   21.6148  -20.1250  -14.6817 C   0  0  0  0  0  0  0  0  0  0  0  0
   21.6096  -18.9006  -14.3360 O   0  0  0  0  0  0  0  0  0  0  0  0
   19.6696  -19.7417  -17.8183 C   0  0  0  0  0  0  0  0  0  0  0  0
   19.8180  -19.5061  -16.3373 C   0  0  2  0  0  0  0  0  0  0  0  0
   20.6960  -20.4715  -15.7077 N   0  0  0  0  0  0  0  0  0  0  0  0
   18.5037  -19.4280  -15.6483 C   0  0  0  0  0  0  0  0  0  0  0  0
   18.1326  -20.2179  -14.7513 O   0  0  0  0  0  0  0  0  0  0  0  0
   17.6375  -18.4126  -16.0281 O   0  0  0  0  0  0  0  0  0  0  0  0
  1  5  1  0
  2  1  1  0
  2  3  1  0
  3  4  1  0
  4  5  1  0
  5  6  1  1
  6  7  2  0
  8  9  1  0
  8  6  1  0
  9 15  1  0
  9 10  1  1
 11 10  1  0
 11 12  1  0
 13 12  1  0
 14 13  1  0
 15 16  2  0
 18 17  1  6
 18 20  1  0
 19 15  1  0
 19 18  1  0
 20 21  2  0
 20 22  1  0
M  END
$$$$
