PKA.pdb
     RDKit          3D

 22 22  0  0  1  0  0  0  0  0999 V2000
   25.3120  -14.7837  -16.2896 N   0  0  0  0  0  0  0  0  0  0  0  0
   26.1076  -13.5838  -16.0040 C   0  0  0  0  0  0  0  0  0  0  0  0
   27.4235  -14.2166  -15.6175 C   0  0  0  0  0  0  0  0  0  0  0  0
   27.5878  -15.2709  -16.7097 C   0  0  0  0  0  0  0  0  0  0  0  0
   26.1909  -15.5486  -17.1566 C   0  0  1  0  0  0  0  0  0  0  0  0
   25.8575  -16.9733  -16.9891 C   0  0  0  0  0  0  0  0  0  0  0  0
   26.5010  -17.9040  -17.5507 O   0  0  0  0  0  0  0  0  0  0  0  0
   24.7664  -17.3389  -16.1617 N   0  0  0  0  0  0  0  0  0  0  0  0
   24.4174  -18.7367  -15.9949 C   0  0  1  0  0  0  0  0  0  0  0  0
   24.9350  -19.1372  -14.6318 C   0  0  0  0  0  0  0  0  0  0  0  0
   24.6701  -20.5684  -14.2861 C   0  0  0  0  0  0  0  0  0  0  0  0
   25.3291  -20.9050  -12.9692 C   0  0  0  0  0  0  0  0  0  0  0  0
   25.0850  -22.3340  -12.5659 C   0  0  0  0  0  0  0  0  0  0  0  0
   25.8426  -22.6787  -11.3577 N   0  0  0  0  0  0  0  0  0  0  0  0
   22.9584  -18.8693  -16.1329 C   0  0  0  0  0  0  0  0  0  0  0  0
   22.1359  -18.1688  -15.4608 O   0  0  0  0  0  0  0  0  0  0  0  0
   20.5538  -20.8481  -18.3108 C   0  0  0  0  0  0  0  0  0  0  0  0
   20.9444  -20.0307  -17.1065 C   0  0  2  0  0  0  0  0  0  0  0  0
   22.3725  -19.7971  -17.0345 N   0  0  0  0  0  0  0  0  0  0  0  0
   20.4182  -20.6088  -15.8427 C   0  0  0  0  0  0  0  0  0  0  0  0
   21.0949  -21.3055  -15.0535 O   0  0  0  0  0  0  0  0  0  0  0  0
   19.0917  -20.3564  -15.5231 O   0  0  0  0  0  0  0  0  0  0  0  0
  1  5  1  0
  2  1  1  0
  2  3  1  0
  3  4  1  0
  4  5  1  0
  5  6  1  1
  6  7  2  0
  8  9  1  0
  8  6  1  0
  9 15  1  0
  9 10  1  1
 11 10  1  0
 11 12  1  0
 13 12  1  0
 14 13  1  0
 15 16  2  0
 18 17  1  6
 18 20  1  0
 19 15  1  0
 19 18  1  0
 20 21  2  0
 20 22  1  0
M  END
$$$$
