PKA.pdb
     RDKit          3D

 22 22  0  0  1  0  0  0  0  0999 V2000
   21.9717  -11.7932  -17.9577 N   0  0  0  0  0  0  0  0  0  0  0  0
   21.9318  -13.1368  -18.5470 C   0  0  0  0  0  0  0  0  0  0  0  0
   20.8647  -12.9403  -19.5979 C   0  0  0  0  0  0  0  0  0  0  0  0
   21.2832  -11.6068  -20.2125 C   0  0  0  0  0  0  0  0  0  0  0  0
   22.0574  -10.9359  -19.1268 C   0  0  1  0  0  0  0  0  0  0  0  0
   21.4567   -9.6377  -18.7761 C   0  0  0  0  0  0  0  0  0  0  0  0
   21.3762   -8.6723  -19.5868 O   0  0  0  0  0  0  0  0  0  0  0  0
   20.9375   -9.4420  -17.4720 N   0  0  0  0  0  0  0  0  0  0  0  0
   20.3375   -8.1717  -17.1118 C   0  0  1  0  0  0  0  0  0  0  0  0
   18.9355   -8.4893  -16.6430 C   0  0  0  0  0  0  0  0  0  0  0  0
   18.1509   -7.2823  -16.2361 C   0  0  0  0  0  0  0  0  0  0  0  0
   16.7570   -7.6950  -15.8259 C   0  0  0  0  0  0  0  0  0  0  0  0
   15.9376   -6.5235  -15.3563 C   0  0  0  0  0  0  0  0  0  0  0  0
   14.6067   -6.9533  -14.9132 N   0  0  0  0  0  0  0  0  0  0  0  0
   21.1746   -7.5403  -16.0793 C   0  0  0  0  0  0  0  0  0  0  0  0
   21.4923   -8.1269  -14.9959 O   0  0  0  0  0  0  0  0  0  0  0  0
   23.2218   -4.3624  -15.7671 C   0  0  0  0  0  0  0  0  0  0  0  0
   22.5158   -5.5817  -15.2323 C   0  0  2  0  0  0  0  0  0  0  0  0
   21.6850   -6.2237  -16.2307 N   0  0  0  0  0  0  0  0  0  0  0  0
   21.7543   -5.2880  -13.9905 C   0  0  0  0  0  0  0  0  0  0  0  0
   20.5053   -5.2395  -13.9271 O   0  0  0  0  0  0  0  0  0  0  0  0
   22.4798   -5.0536  -12.8311 O   0  0  0  0  0  0  0  0  0  0  0  0
  1  5  1  0
  2  1  1  0
  2  3  1  0
  3  4  1  0
  4  5  1  0
  5  6  1  1
  6  7  2  0
  8  9  1  0
  8  6  1  0
  9 15  1  0
  9 10  1  1
 11 10  1  0
 11 12  1  0
 13 12  1  0
 14 13  1  0
 15 16  2  0
 18 17  1  6
 18 20  1  0
 19 15  1  0
 19 18  1  0
 20 21  2  0
 20 22  1  0
M  END
$$$$
