PKA.pdb
     RDKit          3D

 22 22  0  0  1  0  0  0  0  0999 V2000
   36.7807  -32.1094   -0.3553 N   0  0  0  0  0  0  0  0  0  0  0  0
   37.0385  -32.3437   -1.7811 C   0  0  0  0  0  0  0  0  0  0  0  0
   35.9986  -33.3992   -2.0747 C   0  0  0  0  0  0  0  0  0  0  0  0
   34.7699  -32.8196   -1.3777 C   0  0  0  0  0  0  0  0  0  0  0  0
   35.3391  -31.9368   -0.3172 C   0  0  1  0  0  0  0  0  0  0  0  0
   34.8731  -32.3488    1.0177 C   0  0  0  0  0  0  0  0  0  0  0  0
   33.6513  -32.4504    1.3219 O   0  0  0  0  0  0  0  0  0  0  0  0
   35.8250  -32.6512    2.0232 N   0  0  0  0  0  0  0  0  0  0  0  0
   35.3838  -33.0961    3.3312 C   0  0  1  0  0  0  0  0  0  0  0  0
   36.5721  -33.7876    3.9606 C   0  0  0  0  0  0  0  0  0  0  0  0
   36.5653  -35.2730    3.7830 C   0  0  0  0  0  0  0  0  0  0  0  0
   37.8060  -35.8666    4.4075 C   0  0  0  0  0  0  0  0  0  0  0  0
   37.8466  -37.3643    4.2664 C   0  0  0  0  0  0  0  0  0  0  0  0
   39.0918  -37.9130    4.8149 N   0  0  0  0  0  0  0  0  0  0  0  0
   34.9177  -31.9224    4.0866 C   0  0  0  0  0  0  0  0  0  0  0  0
   35.4634  -30.7773    3.9870 O   0  0  0  0  0  0  0  0  0  0  0  0
   31.8952  -31.1038    6.2259 C   0  0  0  0  0  0  0  0  0  0  0  0
   33.2549  -30.8323    5.6357 C   0  0  2  0  0  0  0  0  0  0  0  0
   33.8182  -31.9965    4.9826 N   0  0  0  0  0  0  0  0  0  0  0  0
   34.1930  -30.2544    6.6328 C   0  0  0  0  0  0  0  0  0  0  0  0
   35.2077  -30.8443    7.0671 O   0  0  0  0  0  0  0  0  0  0  0  0
   33.9210  -28.9797    7.1088 O   0  0  0  0  0  0  0  0  0  0  0  0
  1  5  1  0
  2  1  1  0
  2  3  1  0
  3  4  1  0
  4  5  1  0
  5  6  1  1
  6  7  2  0
  8  9  1  0
  8  6  1  0
  9 15  1  0
  9 10  1  1
 11 10  1  0
 11 12  1  0
 13 12  1  0
 14 13  1  0
 15 16  2  0
 18 17  1  1
 18 20  1  0
 19 15  1  0
 19 18  1  0
 20 21  2  0
 20 22  1  0
M  END
$$$$
