PKA.pdb
     RDKit          3D

 22 22  0  0  1  0  0  0  0  0999 V2000
   27.1656  -21.8367  -16.2864 N   0  0  0  0  0  0  0  0  0  0  0  0
   28.4101  -21.9786  -17.0514 C   0  0  0  0  0  0  0  0  0  0  0  0
   28.5510  -20.5792  -17.6021 C   0  0  0  0  0  0  0  0  0  0  0  0
   28.2434  -19.7333  -16.3687 C   0  0  0  0  0  0  0  0  0  0  0  0
   27.4002  -20.6257  -15.5198 C   0  0  1  0  0  0  0  0  0  0  0  0
   26.0917  -20.0087  -15.2442 C   0  0  0  0  0  0  0  0  0  0  0  0
   25.9566  -18.9444  -14.5772 O   0  0  0  0  0  0  0  0  0  0  0  0
   24.9154  -20.6221  -15.7430 N   0  0  0  0  0  0  0  0  0  0  0  0
   23.6314  -19.9663  -15.5860 C   0  0  1  0  0  0  0  0  0  0  0  0
   22.9780  -19.9942  -16.9493 C   0  0  0  0  0  0  0  0  0  0  0  0
   21.6275  -19.3514  -16.9808 C   0  0  0  0  0  0  0  0  0  0  0  0
   21.0603  -19.4255  -18.3788 C   0  0  0  0  0  0  0  0  0  0  0  0
   19.6833  -18.8242  -18.4610 C   0  0  0  0  0  0  0  0  0  0  0  0
   19.1524  -18.9044  -19.8263 N   0  0  0  0  0  0  0  0  0  0  0  0
   22.8682  -20.6839  -14.5526 C   0  0  0  0  0  0  0  0  0  0  0  0
   22.6990  -21.9448  -14.5717 O   0  0  0  0  0  0  0  0  0  0  0  0
   21.3026  -19.8077  -11.2069 C   0  0  0  0  0  0  0  0  0  0  0  0
   21.5610  -20.6945  -12.3976 C   0  0  2  0  0  0  0  0  0  0  0  0
   22.2675  -20.0059  -13.4588 N   0  0  0  0  0  0  0  0  0  0  0  0
   20.3187  -21.3410  -12.8945 C   0  0  0  0  0  0  0  0  0  0  0  0
   19.7926  -21.0933  -14.0027 O   0  0  0  0  0  0  0  0  0  0  0  0
   19.7079  -22.2776  -12.0728 O   0  0  0  0  0  0  0  0  0  0  0  0
  1  5  1  0
  2  1  1  0
  2  3  1  0
  3  4  1  0
  4  5  1  0
  5  6  1  6
  6  7  2  0
  8  9  1  0
  8  6  1  0
  9 15  1  0
  9 10  1  6
 11 10  1  0
 11 12  1  0
 13 12  1  0
 14 13  1  0
 15 16  2  0
 18 17  1  1
 18 20  1  0
 19 15  1  0
 19 18  1  0
 20 21  2  0
 20 22  1  0
M  END
$$$$
