PKA.pdb
     RDKit          3D

 22 22  0  0  1  0  0  0  0  0999 V2000
   27.5060  -18.6515   -6.4290 N   0  0  0  0  0  0  0  0  0  0  0  0
   27.8911  -18.4083   -5.0337 C   0  0  0  0  0  0  0  0  0  0  0  0
   27.8551  -19.8181   -4.4928 C   0  0  0  0  0  0  0  0  0  0  0  0
   28.5796  -20.5868   -5.5954 C   0  0  0  0  0  0  0  0  0  0  0  0
   28.3786  -19.7471   -6.8130 C   0  0  1  0  0  0  0  0  0  0  0  0
   27.6995  -20.5108   -7.8736 C   0  0  0  0  0  0  0  0  0  0  0  0
   28.0849  -21.6503   -8.2592 O   0  0  0  0  0  0  0  0  0  0  0  0
   26.5563  -19.9588   -8.5038 N   0  0  0  0  0  0  0  0  0  0  0  0
   25.9161  -20.6664   -9.5961 C   0  0  1  0  0  0  0  0  0  0  0  0
   24.4459  -20.3230   -9.5121 C   0  0  0  0  0  0  0  0  0  0  0  0
   23.6458  -20.8222  -10.6734 C   0  0  0  0  0  0  0  0  0  0  0  0
   22.1909  -20.4645  -10.4813 C   0  0  0  0  0  0  0  0  0  0  0  0
   21.3102  -21.1110  -11.5161 C   0  0  0  0  0  0  0  0  0  0  0  0
   19.8922  -20.8628  -11.2326 N   0  0  0  0  0  0  0  0  0  0  0  0
   26.5484  -20.2433  -10.8557 C   0  0  0  0  0  0  0  0  0  0  0  0
   26.7855  -19.0242  -11.1324 O   0  0  0  0  0  0  0  0  0  0  0  0
   28.7500  -21.6844  -13.4313 C   0  0  0  0  0  0  0  0  0  0  0  0
   27.5859  -20.7917  -13.0862 C   0  0  2  0  0  0  0  0  0  0  0  0
   26.9373  -21.1797  -11.8501 N   0  0  0  0  0  0  0  0  0  0  0  0
   26.6142  -20.6812  -14.2051 C   0  0  0  0  0  0  0  0  0  0  0  0
   25.3975  -20.9579  -14.1089 O   0  0  0  0  0  0  0  0  0  0  0  0
   27.0925  -20.2427  -15.4316 O   0  0  0  0  0  0  0  0  0  0  0  0
  1  5  1  0
  2  1  1  0
  2  3  1  0
  3  4  1  0
  4  5  1  0
  5  6  1  6
  6  7  2  0
  8  9  1  0
  8  6  1  0
  9 15  1  0
  9 10  1  6
 11 10  1  0
 11 12  1  0
 13 12  1  0
 14 13  1  0
 15 16  2  0
 18 17  1  6
 18 20  1  0
 19 15  1  0
 19 18  1  0
 20 21  2  0
 20 22  1  0
M  END
$$$$
