PKA.pdb
     RDKit          3D

 22 22  0  0  1  0  0  0  0  0999 V2000
   26.6965  -16.5220  -16.4709 N   0  0  0  0  0  0  0  0  0  0  0  0
   27.3039  -15.2292  -16.8084 C   0  0  0  0  0  0  0  0  0  0  0  0
   28.7189  -15.4623  -16.3339 C   0  0  0  0  0  0  0  0  0  0  0  0
   29.0003  -16.8576  -16.8865 C   0  0  0  0  0  0  0  0  0  0  0  0
   27.6469  -17.4728  -17.0205 C   0  0  1  0  0  0  0  0  0  0  0  0
   27.5504  -18.7115  -16.2298 C   0  0  0  0  0  0  0  0  0  0  0  0
   28.3136  -19.7030  -16.4034 O   0  0  0  0  0  0  0  0  0  0  0  0
   26.5613  -18.8160  -15.2201 N   0  0  0  0  0  0  0  0  0  0  0  0
   26.5140  -19.9886  -14.3680 C   0  0  1  0  0  0  0  0  0  0  0  0
   26.2368  -19.4798  -12.9713 C   0  0  0  0  0  0  0  0  0  0  0  0
   26.0300  -20.5682  -11.9661 C   0  0  0  0  0  0  0  0  0  0  0  0
   25.7947  -19.9640  -10.6018 C   0  0  0  0  0  0  0  0  0  0  0  0
   25.7278  -21.0129   -9.5249 C   0  0  0  0  0  0  0  0  0  0  0  0
   25.5144  -20.4042   -8.2071 N   0  0  0  0  0  0  0  0  0  0  0  0
   25.4734  -20.8931  -14.8823 C   0  0  0  0  0  0  0  0  0  0  0  0
   24.3694  -20.4746  -15.3567 O   0  0  0  0  0  0  0  0  0  0  0  0
   25.0837  -24.6386  -15.4099 C   0  0  0  0  0  0  0  0  0  0  0  0
   24.5913  -23.2201  -15.2818 C   0  0  2  0  0  0  0  0  0  0  0  0
   25.6393  -22.3036  -14.8809 N   0  0  0  0  0  0  0  0  0  0  0  0
   23.4033  -23.1177  -14.3949 C   0  0  0  0  0  0  0  0  0  0  0  0
   23.3799  -22.4710  -13.3237 O   0  0  0  0  0  0  0  0  0  0  0  0
   22.2500  -23.7836  -14.7848 O   0  0  0  0  0  0  0  0  0  0  0  0
  1  5  1  0
  2  1  1  0
  2  3  1  0
  3  4  1  0
  4  5  1  0
  5  6  1  1
  6  7  2  0
  8  9  1  0
  8  6  1  0
  9 15  1  0
  9 10  1  1
 11 10  1  0
 11 12  1  0
 13 12  1  0
 14 13  1  0
 15 16  2  0
 18 17  1  1
 18 20  1  0
 19 15  1  0
 19 18  1  0
 20 21  2  0
 20 22  1  0
M  END
$$$$
