HDA.pdb
     RDKit          3D

 24 24  0  0  1  0  0  0  0  0999 V2000
    7.4914  -17.0336   20.1992 N   0  0  0  0  0  0  0  0  0  0  0  0
    8.4169  -16.1627   20.9097 C   0  0  1  0  0  0  0  0  0  0  0  0
    7.8656  -14.7454   20.9089 C   0  0  0  0  0  0  0  0  0  0  0  0
    7.9924  -14.1629   19.5444 C   0  0  0  0  0  0  0  0  0  0  0  0
    8.4854  -14.7705   18.4223 C   0  0  0  0  0  0  0  0  0  0  0  0
    8.4170  -13.8714   17.4172 N   0  0  0  0  0  0  0  0  0  0  0  0
    7.8964  -12.7240   17.8814 C   0  0  0  0  0  0  0  0  0  0  0  0
    7.6426  -12.9152   19.1773 N   0  0  0  0  0  0  0  0  0  0  0  0
    8.5083  -16.6830   22.3134 C   0  0  0  0  0  0  0  0  0  0  0  0
    7.5366  -17.2193   22.9024 O   0  0  0  0  0  0  0  0  0  0  0  0
    9.7318  -16.5929   23.0666 N   0  0  0  0  0  0  0  0  0  0  0  0
    9.8079  -17.0006   24.4353 C   0  0  1  0  0  0  0  0  0  0  0  0
   11.0231  -17.9441   24.5422 C   0  0  0  0  0  0  0  0  0  0  0  0
   11.1734  -18.4328   25.9324 C   0  0  0  0  0  0  0  0  0  0  0  0
   10.2079  -18.8292   26.6280 O   0  0  0  0  0  0  0  0  0  0  0  0
   10.0514  -15.8668   25.3611 C   0  0  0  0  0  0  0  0  0  0  0  0
   11.1167  -15.1788   25.3048 O   0  0  0  0  0  0  0  0  0  0  0  0
   12.4483  -18.4472   26.4783 O   0  0  0  0  0  0  0  0  0  0  0  0
    8.0631  -13.5505   27.4991 C   0  0  0  0  0  0  0  0  0  0  0  0
    9.3476  -14.3234   27.2218 C   0  0  2  0  0  0  0  0  0  0  0  0
    9.1253  -15.4559   26.3787 N   0  0  0  0  0  0  0  0  0  0  0  0
   10.0282  -14.5816   28.4826 C   0  0  0  0  0  0  0  0  0  0  0  0
   10.1905  -15.8094   28.7957 O   0  0  0  0  0  0  0  0  0  0  0  0
   10.5173  -13.6724   29.3774 O   0  0  0  0  0  0  0  0  0  0  0  0
  2  1  1  6
  2  9  1  0
  3  4  1  0
  3  2  1  0
  4  8  1  0
  5  6  1  0
  5  4  2  0
  6  7  1  0
  7  8  2  0
  9 11  1  0
  9 10  2  0
 11 12  1  0
 12 16  1  0
 13 14  1  0
 12 13  1  6
 14 15  2  0
 16 17  2  0
 16 21  1  0
 18 14  1  0
 20 19  1  1
 20 22  1  0
 21 20  1  0
 22 24  1  0
 23 22  2  0
M  END
$$$$
