HDA.pdb
     RDKit          3D

 24 24  0  0  1  0  0  0  0  0999 V2000
    7.0839  -16.6447   20.9788 N   0  0  0  0  0  0  0  0  0  0  0  0
    8.1675  -15.9207   21.6281 C   0  0  1  0  0  0  0  0  0  0  0  0
    7.7912  -14.4509   21.7314 C   0  0  0  0  0  0  0  0  0  0  0  0
    8.0005  -13.7898   20.4137 C   0  0  0  0  0  0  0  0  0  0  0  0
    8.4522  -14.3634   19.2569 C   0  0  0  0  0  0  0  0  0  0  0  0
    8.4915  -13.3938   18.3179 N   0  0  0  0  0  0  0  0  0  0  0  0
    8.0778  -12.2356   18.8569 C   0  0  0  0  0  0  0  0  0  0  0  0
    7.7821  -12.4908   20.1327 N   0  0  0  0  0  0  0  0  0  0  0  0
    8.3239  -16.5136   22.9968 C   0  0  0  0  0  0  0  0  0  0  0  0
    7.3432  -16.7917   23.7314 O   0  0  0  0  0  0  0  0  0  0  0  0
    9.6243  -16.7983   23.5448 N   0  0  0  0  0  0  0  0  0  0  0  0
    9.7991  -17.1966   24.9072 C   0  0  1  0  0  0  0  0  0  0  0  0
   10.9534  -18.2193   24.9177 C   0  0  0  0  0  0  0  0  0  0  0  0
   11.2029  -18.6982   26.2970 C   0  0  0  0  0  0  0  0  0  0  0  0
   12.3225  -18.6226   26.8572 O   0  0  0  0  0  0  0  0  0  0  0  0
   10.2021  -16.0728   25.7884 C   0  0  0  0  0  0  0  0  0  0  0  0
   11.3377  -15.5162   25.6797 O   0  0  0  0  0  0  0  0  0  0  0  0
   10.1384  -19.2546   26.9905 O   0  0  0  0  0  0  0  0  0  0  0  0
    8.7000  -13.5103   28.0460 C   0  0  0  0  0  0  0  0  0  0  0  0
    9.8026  -14.5128   27.7240 C   0  0  2  0  0  0  0  0  0  0  0  0
    9.3630  -15.5269   26.8179 N   0  0  0  0  0  0  0  0  0  0  0  0
   10.4024  -14.9749   28.9675 C   0  0  0  0  0  0  0  0  0  0  0  0
   10.8674  -14.0704   29.7405 O   0  0  0  0  0  0  0  0  0  0  0  0
   10.5315  -16.2596   29.4140 O   0  0  0  0  0  0  0  0  0  0  0  0
  2  1  1  1
  2  9  1  0
  3  4  1  0
  3  2  1  0
  4  8  1  0
  5  6  1  0
  5  4  2  0
  6  7  1  0
  7  8  2  0
  9 11  1  0
  9 10  2  0
 11 12  1  0
 12 16  1  0
 13 14  1  0
 12 13  1  6
 14 15  2  0
 16 17  2  0
 16 21  1  0
 18 14  1  0
 20 19  1  1
 20 22  1  0
 21 20  1  0
 22 24  1  0
 23 22  2  0
M  END
$$$$
