HDA.pdb
     RDKit          3D

 24 24  0  0  1  0  0  0  0  0999 V2000
    6.7883  -16.4437   20.1125 N   0  0  0  0  0  0  0  0  0  0  0  0
    7.9632  -16.7088   20.9306 C   0  0  1  0  0  0  0  0  0  0  0  0
    9.0444  -15.6948   20.5909 C   0  0  0  0  0  0  0  0  0  0  0  0
    8.4114  -14.4144   20.1704 C   0  0  0  0  0  0  0  0  0  0  0  0
    7.0759  -14.1517   20.0324 C   0  0  0  0  0  0  0  0  0  0  0  0
    6.9599  -12.8687   19.6274 N   0  0  0  0  0  0  0  0  0  0  0  0
    8.1829  -12.3271   19.5097 C   0  0  0  0  0  0  0  0  0  0  0  0
    9.0570  -13.2785   19.8431 N   0  0  0  0  0  0  0  0  0  0  0  0
    7.5377  -16.5542   22.3604 C   0  0  0  0  0  0  0  0  0  0  0  0
    6.4796  -15.9635   22.6929 O   0  0  0  0  0  0  0  0  0  0  0  0
    8.3315  -17.0827   23.4388 N   0  0  0  0  0  0  0  0  0  0  0  0
    7.9229  -16.9672   24.8045 C   0  0  1  0  0  0  0  0  0  0  0  0
    8.0455  -18.3772   25.4169 C   0  0  0  0  0  0  0  0  0  0  0  0
    7.6614  -18.3512   26.8472 C   0  0  0  0  0  0  0  0  0  0  0  0
    6.6433  -17.7552   27.2731 O   0  0  0  0  0  0  0  0  0  0  0  0
    8.8014  -16.0692   25.5942 C   0  0  0  0  0  0  0  0  0  0  0  0
   10.0649  -16.1907   25.5771 O   0  0  0  0  0  0  0  0  0  0  0  0
    8.4756  -19.0223   27.7475 O   0  0  0  0  0  0  0  0  0  0  0  0
    8.5169  -12.8698   27.6129 C   0  0  0  0  0  0  0  0  0  0  0  0
    9.1674  -14.1964   27.2369 C   0  0  2  0  0  0  0  0  0  0  0  0
    8.3125  -15.0072   26.4279 N   0  0  0  0  0  0  0  0  0  0  0  0
    9.7011  -14.8212   28.4386 C   0  0  0  0  0  0  0  0  0  0  0  0
    9.2014  -15.9532   28.7562 O   0  0  0  0  0  0  0  0  0  0  0  0
   10.6733  -14.3476   29.2736 O   0  0  0  0  0  0  0  0  0  0  0  0
  2  1  1  6
  2  9  1  0
  3  4  1  0
  3  2  1  0
  4  8  1  0
  5  6  1  0
  5  4  2  0
  6  7  1  0
  7  8  2  0
  9 11  1  0
  9 10  2  0
 11 12  1  0
 12 16  1  0
 13 14  1  0
 12 13  1  1
 14 15  2  0
 16 17  2  0
 16 21  1  0
 18 14  1  0
 20 19  1  1
 20 22  1  0
 21 20  1  0
 22 24  1  0
 23 22  2  0
M  END
$$$$
