HDA.pdb
     RDKit          3D

 24 24  0  0  1  0  0  0  0  0999 V2000
    7.1808  -16.6899   20.9886 N   0  0  0  0  0  0  0  0  0  0  0  0
    8.0591  -15.7098   21.6113 C   0  0  1  0  0  0  0  0  0  0  0  0
    7.4757  -14.3201   21.4088 C   0  0  0  0  0  0  0  0  0  0  0  0
    7.7223  -13.8760   20.0091 C   0  0  0  0  0  0  0  0  0  0  0  0
    8.4209  -14.5374   19.0366 C   0  0  0  0  0  0  0  0  0  0  0  0
    8.3942  -13.7654   17.9290 N   0  0  0  0  0  0  0  0  0  0  0  0
    7.7000  -12.6447   18.1846 C   0  0  0  0  0  0  0  0  0  0  0  0
    7.2969  -12.7249   19.4540 N   0  0  0  0  0  0  0  0  0  0  0  0
    8.1108  -16.0429   23.0727 C   0  0  0  0  0  0  0  0  0  0  0  0
    7.1760  -16.6368   23.6662 O   0  0  0  0  0  0  0  0  0  0  0  0
    9.2506  -15.6940   23.8799 N   0  0  0  0  0  0  0  0  0  0  0  0
    9.2714  -15.9145   25.2929 C   0  0  1  0  0  0  0  0  0  0  0  0
   10.7521  -16.0954   25.6840 C   0  0  0  0  0  0  0  0  0  0  0  0
   11.1946  -17.4790   25.3943 C   0  0  0  0  0  0  0  0  0  0  0  0
   10.4166  -18.4628   25.3985 O   0  0  0  0  0  0  0  0  0  0  0  0
    8.7533  -14.7574   26.0638 C   0  0  0  0  0  0  0  0  0  0  0  0
    8.7472  -14.7525   27.3331 O   0  0  0  0  0  0  0  0  0  0  0  0
   12.5361  -17.6817   25.1063 O   0  0  0  0  0  0  0  0  0  0  0  0
    7.3330  -11.2862   25.3447 C   0  0  0  0  0  0  0  0  0  0  0  0
    7.6469  -12.5004   26.2115 C   0  0  2  0  0  0  0  0  0  0  0  0
    8.2256  -13.5676   25.4572 N   0  0  0  0  0  0  0  0  0  0  0  0
    6.4727  -12.8341   27.0048 C   0  0  0  0  0  0  0  0  0  0  0  0
    5.8285  -13.8781   26.6487 O   0  0  0  0  0  0  0  0  0  0  0  0
    5.9703  -12.1684   28.0870 O   0  0  0  0  0  0  0  0  0  0  0  0
  2  1  1  6
  2  9  1  0
  3  4  1  0
  3  2  1  0
  4  8  1  0
  5  6  1  0
  5  4  2  0
  6  7  1  0
  7  8  2  0
  9 11  1  0
  9 10  2  0
 11 12  1  0
 12 16  1  0
 13 14  1  0
 12 13  1  1
 14 15  2  0
 16 17  2  0
 16 21  1  0
 18 14  1  0
 20 19  1  6
 20 22  1  0
 21 20  1  0
 22 24  1  0
 23 22  2  0
M  END
$$$$
