HDA.pdb
     RDKit          3D

 24 24  0  0  1  0  0  0  0  0999 V2000
    7.8200  -17.4336   18.5678 N   0  0  0  0  0  0  0  0  0  0  0  0
    8.7113  -16.6008   19.3626 C   0  0  1  0  0  0  0  0  0  0  0  0
    7.8968  -15.5154   20.0490 C   0  0  0  0  0  0  0  0  0  0  0  0
    7.7461  -14.3517   19.1324 C   0  0  0  0  0  0  0  0  0  0  0  0
    8.1797  -14.2488   17.8391 C   0  0  0  0  0  0  0  0  0  0  0  0
    7.8335  -13.0208   17.3970 N   0  0  0  0  0  0  0  0  0  0  0  0
    7.1980  -12.3581   18.3769 C   0  0  0  0  0  0  0  0  0  0  0  0
    7.1516  -13.1796   19.4273 N   0  0  0  0  0  0  0  0  0  0  0  0
    9.3448  -17.4982   20.3837 C   0  0  0  0  0  0  0  0  0  0  0  0
    8.6754  -18.2623   21.1233 O   0  0  0  0  0  0  0  0  0  0  0  0
   10.7719  -17.5296   20.5700 N   0  0  0  0  0  0  0  0  0  0  0  0
   11.3766  -18.2390   21.6546 C   0  0  1  0  0  0  0  0  0  0  0  0
   12.8395  -18.5007   21.2425 C   0  0  0  0  0  0  0  0  0  0  0  0
   12.8962  -19.5176   20.1670 C   0  0  0  0  0  0  0  0  0  0  0  0
   12.2919  -20.6150   20.2284 O   0  0  0  0  0  0  0  0  0  0  0  0
   11.4103  -17.4501   22.9109 C   0  0  0  0  0  0  0  0  0  0  0  0
   12.1000  -16.3893   23.0122 O   0  0  0  0  0  0  0  0  0  0  0  0
   13.6576  -19.2292   19.0442 O   0  0  0  0  0  0  0  0  0  0  0  0
    9.4433  -16.3996   25.6762 C   0  0  0  0  0  0  0  0  0  0  0  0
   10.7663  -17.0651   25.3144 C   0  0  2  0  0  0  0  0  0  0  0  0
   10.6823  -17.8074   24.0960 N   0  0  0  0  0  0  0  0  0  0  0  0
   11.2686  -17.7857   26.4754 C   0  0  0  0  0  0  0  0  0  0  0  0
   11.3841  -19.0515   26.3480 O   0  0  0  0  0  0  0  0  0  0  0  0
   11.6336  -17.2768   27.6897 O   0  0  0  0  0  0  0  0  0  0  0  0
  2  1  1  6
  2  9  1  0
  3  4  1  0
  3  2  1  0
  4  8  1  0
  5  6  1  0
  5  4  2  0
  6  7  1  0
  7  8  2  0
  9 11  1  0
  9 10  2  0
 11 12  1  0
 12 16  1  0
 13 14  1  0
 12 13  1  6
 14 15  2  0
 16 17  2  0
 16 21  1  0
 18 14  1  0
 20 19  1  1
 20 22  1  0
 21 20  1  0
 22 24  1  0
 23 22  2  0
M  END
$$$$
