HDA.pdb
     RDKit          3D

 24 24  0  0  1  0  0  0  0  0999 V2000
    8.8566  -17.2499   18.8791 N   0  0  0  0  0  0  0  0  0  0  0  0
    9.4060  -16.3574   19.8897 C   0  0  1  0  0  0  0  0  0  0  0  0
    8.3015  -15.4456   20.4008 C   0  0  0  0  0  0  0  0  0  0  0  0
    7.9783  -14.4263   19.3646 C   0  0  0  0  0  0  0  0  0  0  0  0
    8.5403  -14.2924   18.1247 C   0  0  0  0  0  0  0  0  0  0  0  0
    7.9497  -13.2340   17.5294 N   0  0  0  0  0  0  0  0  0  0  0  0
    7.0379  -12.7068   18.3624 C   0  0  0  0  0  0  0  0  0  0  0  0
    7.0657  -13.4420   19.4755 N   0  0  0  0  0  0  0  0  0  0  0  0
    9.9177  -17.2256   21.0005 C   0  0  0  0  0  0  0  0  0  0  0  0
    9.3804  -18.3188   21.3090 O   0  0  0  0  0  0  0  0  0  0  0  0
   11.0666  -16.8444   21.7796 N   0  0  0  0  0  0  0  0  0  0  0  0
   11.5301  -17.6343   22.8781 C   0  0  1  0  0  0  0  0  0  0  0  0
   13.0705  -17.5706   22.8414 C   0  0  0  0  0  0  0  0  0  0  0  0
   13.5909  -18.3710   21.7089 C   0  0  0  0  0  0  0  0  0  0  0  0
   14.1564  -17.8617   20.7119 O   0  0  0  0  0  0  0  0  0  0  0  0
   11.1012  -17.0986   24.1937 C   0  0  0  0  0  0  0  0  0  0  0  0
   11.4552  -15.9459   24.5903 O   0  0  0  0  0  0  0  0  0  0  0  0
   13.4388  -19.7484   21.7670 O   0  0  0  0  0  0  0  0  0  0  0  0
    8.3832  -17.3428   26.6106 C   0  0  0  0  0  0  0  0  0  0  0  0
    9.8915  -17.3027   26.3926 C   0  0  2  0  0  0  0  0  0  0  0  0
   10.2665  -17.8190   25.1137 N   0  0  0  0  0  0  0  0  0  0  0  0
   10.5541  -17.8938   27.5463 C   0  0  0  0  0  0  0  0  0  0  0  0
   11.2483  -18.9427   27.3229 O   0  0  0  0  0  0  0  0  0  0  0  0
   10.5271  -17.4666   28.8437 O   0  0  0  0  0  0  0  0  0  0  0  0
  2  1  1  6
  2  9  1  0
  3  4  1  0
  3  2  1  0
  4  8  1  0
  5  6  1  0
  5  4  2  0
  6  7  1  0
  7  8  2  0
  9 11  1  0
  9 10  2  0
 11 12  1  0
 12 16  1  0
 13 14  1  0
 12 13  1  1
 14 15  2  0
 16 17  2  0
 16 21  1  0
 18 14  1  0
 20 19  1  1
 20 22  1  0
 21 20  1  0
 22 24  1  0
 23 22  2  0
M  END
$$$$
