HDA.pdb
     RDKit          3D

 24 24  0  0  1  0  0  0  0  0999 V2000
    9.8957  -15.3073   20.9148 N   0  0  0  0  0  0  0  0  0  0  0  0
    8.8771  -14.5550   21.6333 C   0  0  1  0  0  0  0  0  0  0  0  0
    7.5749  -14.6082   20.8498 C   0  0  0  0  0  0  0  0  0  0  0  0
    7.7907  -14.0478   19.4873 C   0  0  0  0  0  0  0  0  0  0  0  0
    8.1542  -12.7702   19.1604 C   0  0  0  0  0  0  0  0  0  0  0  0
    8.2279  -12.7068   17.8136 N   0  0  0  0  0  0  0  0  0  0  0  0
    7.9211  -13.9066   17.2944 C   0  0  0  0  0  0  0  0  0  0  0  0
    7.6571  -14.7133   18.3240 N   0  0  0  0  0  0  0  0  0  0  0  0
    8.7081  -15.2211   22.9664 C   0  0  0  0  0  0  0  0  0  0  0  0
    7.8190  -14.8809   23.7865 O   0  0  0  0  0  0  0  0  0  0  0  0
    9.5683  -16.2993   23.3786 N   0  0  0  0  0  0  0  0  0  0  0  0
    9.5224  -16.8383   24.7026 C   0  0  1  0  0  0  0  0  0  0  0  0
   10.3325  -18.1500   24.6676 C   0  0  0  0  0  0  0  0  0  0  0  0
    9.7305  -19.1000   23.7037 C   0  0  0  0  0  0  0  0  0  0  0  0
   10.2339  -19.3508   22.5826 O   0  0  0  0  0  0  0  0  0  0  0  0
   10.1643  -15.9541   25.7066 C   0  0  0  0  0  0  0  0  0  0  0  0
   11.3741  -15.5870   25.5932 O   0  0  0  0  0  0  0  0  0  0  0  0
    8.5538  -19.7355   24.0716 O   0  0  0  0  0  0  0  0  0  0  0  0
    9.3898  -13.3212   28.0884 C   0  0  0  0  0  0  0  0  0  0  0  0
   10.1352  -14.6292   27.8475 C   0  0  2  0  0  0  0  0  0  0  0  0
    9.4901  -15.4463   26.8682 N   0  0  0  0  0  0  0  0  0  0  0  0
   10.4157  -15.2591   29.1297 C   0  0  0  0  0  0  0  0  0  0  0  0
    9.9149  -16.4204   29.3100 O   0  0  0  0  0  0  0  0  0  0  0  0
   11.1501  -14.7627   30.1693 O   0  0  0  0  0  0  0  0  0  0  0  0
  2  1  1  6
  2  9  1  0
  3  4  1  0
  3  2  1  0
  4  8  1  0
  5  6  1  0
  5  4  2  0
  6  7  1  0
  7  8  2  0
  9 11  1  0
  9 10  2  0
 11 12  1  0
 12 16  1  0
 13 14  1  0
 12 13  1  6
 14 15  2  0
 16 17  2  0
 16 21  1  0
 18 14  1  0
 20 19  1  1
 20 22  1  0
 21 20  1  0
 22 24  1  0
 23 22  2  0
M  END
$$$$
