HDA.pdb
     RDKit          3D

 24 24  0  0  1  0  0  0  0  0999 V2000
    9.9836  -15.2733   20.8853 N   0  0  0  0  0  0  0  0  0  0  0  0
    8.9205  -14.6395   21.6521 C   0  0  1  0  0  0  0  0  0  0  0  0
    7.5921  -14.8789   20.9517 C   0  0  0  0  0  0  0  0  0  0  0  0
    7.6059  -14.2160   19.6185 C   0  0  0  0  0  0  0  0  0  0  0  0
    8.4570  -13.2371   19.1841 C   0  0  0  0  0  0  0  0  0  0  0  0
    8.1023  -12.9309   17.9177 N   0  0  0  0  0  0  0  0  0  0  0  0
    7.0567  -13.6903   17.5527 C   0  0  0  0  0  0  0  0  0  0  0  0
    6.7648  -14.4678   18.5971 N   0  0  0  0  0  0  0  0  0  0  0  0
    8.9181  -15.2875   23.0046 C   0  0  0  0  0  0  0  0  0  0  0  0
    8.0368  -15.0507   23.8684 O   0  0  0  0  0  0  0  0  0  0  0  0
    9.9400  -16.2270   23.3861 N   0  0  0  0  0  0  0  0  0  0  0  0
    9.9560  -16.8428   24.6769 C   0  0  1  0  0  0  0  0  0  0  0  0
   10.9245  -18.0388   24.5771 C   0  0  0  0  0  0  0  0  0  0  0  0
   10.3527  -19.0915   23.7059 C   0  0  0  0  0  0  0  0  0  0  0  0
    9.2632  -19.6642   23.9470 O   0  0  0  0  0  0  0  0  0  0  0  0
   10.4773  -15.9447   25.7368 C   0  0  0  0  0  0  0  0  0  0  0  0
   11.6293  -15.4180   25.6553 O   0  0  0  0  0  0  0  0  0  0  0  0
   11.0669  -19.4510   22.5726 O   0  0  0  0  0  0  0  0  0  0  0  0
    9.3750  -13.5747   28.2558 C   0  0  0  0  0  0  0  0  0  0  0  0
   10.2761  -14.7666   27.9529 C   0  0  2  0  0  0  0  0  0  0  0  0
    9.7423  -15.5990   26.9209 N   0  0  0  0  0  0  0  0  0  0  0  0
   10.6224  -15.4297   29.2019 C   0  0  0  0  0  0  0  0  0  0  0  0
   10.2621  -16.6503   29.3121 O   0  0  0  0  0  0  0  0  0  0  0  0
   11.2869  -14.9089   30.2760 O   0  0  0  0  0  0  0  0  0  0  0  0
  2  1  1  6
  2  9  1  0
  3  4  1  0
  3  2  1  0
  4  8  1  0
  5  6  1  0
  5  4  2  0
  6  7  1  0
  7  8  2  0
  9 11  1  0
  9 10  2  0
 11 12  1  0
 12 16  1  0
 13 14  1  0
 12 13  1  6
 14 15  2  0
 16 17  2  0
 16 21  1  0
 18 14  1  0
 20 19  1  1
 20 22  1  0
 21 20  1  0
 22 24  1  0
 23 22  2  0
M  END
$$$$
