FYF.pdb
     RDKit          3D

 35 37  0  0  1  0  0  0  0  0999 V2000
    7.0237  -18.4014   18.8170 N   0  0  0  0  0  0  0  0  0  0  0  0
    7.3971  -17.2368   19.5592 C   0  0  1  0  0  0  0  0  0  0  0  0
    6.5616  -16.0409   19.1128 C   0  0  0  0  0  0  0  0  0  0  0  0
    7.0996  -14.8215   19.7794 C   0  0  0  0  0  0  0  0  0  0  0  0
    8.0874  -14.0463   19.2286 C   0  0  0  0  0  0  0  0  0  0  0  0
    8.5551  -12.9271   19.8799 C   0  0  0  0  0  0  0  0  0  0  0  0
    8.0409  -12.5538   21.1087 C   0  0  0  0  0  0  0  0  0  0  0  0
    7.0500  -13.3172   21.6786 C   0  0  0  0  0  0  0  0  0  0  0  0
    6.5875  -14.4349   21.0212 C   0  0  0  0  0  0  0  0  0  0  0  0
    7.1994  -17.4314   21.0320 C   0  0  0  0  0  0  0  0  0  0  0  0
    6.0585  -17.3601   21.5536 O   0  0  0  0  0  0  0  0  0  0  0  0
    3.7018  -21.9381   21.7802 O   0  0  0  0  0  0  0  0  0  0  0  0
    4.8306  -21.2743   22.2388 C   0  0  0  0  0  0  0  0  0  0  0  0
    6.0299  -21.3406   21.5572 C   0  0  0  0  0  0  0  0  0  0  0  0
    7.1293  -20.6538   22.0650 C   0  0  0  0  0  0  0  0  0  0  0  0
    7.0090  -19.9224   23.2315 C   0  0  0  0  0  0  0  0  0  0  0  0
    8.1898  -19.2131   23.7340 C   0  0  0  0  0  0  0  0  0  0  0  0
    8.1929  -17.7337   23.3246 C   0  0  2  0  0  0  0  0  0  0  0  0
    8.3229  -17.7057   21.8829 N   0  0  0  0  0  0  0  0  0  0  0  0
    9.3956  -17.1136   23.9778 C   0  0  0  0  0  0  0  0  0  0  0  0
   10.5569  -17.5670   23.8221 O   0  0  0  0  0  0  0  0  0  0  0  0
    5.8166  -19.8517   23.9166 C   0  0  0  0  0  0  0  0  0  0  0  0
    4.7238  -20.5425   23.3995 C   0  0  0  0  0  0  0  0  0  0  0  0
    9.2530  -15.9709   24.8094 N   0  0  0  0  0  0  0  0  0  0  0  0
   10.3854  -15.2989   25.4383 C   0  0  1  0  0  0  0  0  0  0  0  0
   10.2623  -13.8195   25.3737 C   0  0  0  0  0  0  0  0  0  0  0  0
    8.9336  -13.3756   25.7950 C   0  0  0  0  0  0  0  0  0  0  0  0
    8.7474  -12.8059   27.0232 C   0  0  0  0  0  0  0  0  0  0  0  0
    7.4780  -12.3830   27.4026 C   0  0  0  0  0  0  0  0  0  0  0  0
    6.4189  -12.5396   26.5431 C   0  0  0  0  0  0  0  0  0  0  0  0
    6.5950  -13.1078   25.3143 C   0  0  0  0  0  0  0  0  0  0  0  0
    7.8655  -13.5242   24.9500 C   0  0  0  0  0  0  0  0  0  0  0  0
   10.4497  -15.7468   26.8363 C   0  0  0  0  0  0  0  0  0  0  0  0
    9.5790  -16.4254   27.4356 O   0  0  0  0  0  0  0  0  0  0  0  0
   11.5629  -15.4090   27.6037 O   0  0  0  0  0  0  0  0  0  0  0  0
  2  1  1  6
  2  3  1  0
  3  4  1  0
  4  9  1  0
  5  4  2  0
  5  6  1  0
  6  7  2  0
  7  8  1  0
  9  8  2  0
 10 11  2  0
 10  2  1  0
 12 13  1  0
 13 14  2  0
 14 15  1  0
 16 15  2  0
 16 17  1  0
 18 17  1  1
 18 19  1  0
 19 10  1  0
 20 18  1  0
 21 20  2  0
 22 16  1  0
 23 13  1  0
 23 22  2  0
 24 20  1  0
 25 24  1  0
 25 26  1  1
 26 27  1  0
 27 32  1  0
 28 27  2  0
 28 29  1  0
 29 30  2  0
 30 31  1  0
 32 31  2  0
 33 35  1  0
 33 25  1  0
 34 33  2  0
M  END
$$$$
