FYF.pdb
     RDKit          3D

 35 37  0  0  1  0  0  0  0  0999 V2000
    5.6962  -17.2549   24.0328 N   0  0  0  0  0  0  0  0  0  0  0  0
    6.8614  -16.4788   24.3267 C   0  0  1  0  0  0  0  0  0  0  0  0
    6.8060  -15.9750   25.7658 C   0  0  0  0  0  0  0  0  0  0  0  0
    6.5600  -14.5055   25.7361 C   0  0  0  0  0  0  0  0  0  0  0  0
    7.2897  -13.6440   24.9580 C   0  0  0  0  0  0  0  0  0  0  0  0
    7.0280  -12.2924   24.9615 C   0  0  0  0  0  0  0  0  0  0  0  0
    6.0210  -11.7661   25.7505 C   0  0  0  0  0  0  0  0  0  0  0  0
    5.2774  -12.6124   26.5381 C   0  0  0  0  0  0  0  0  0  0  0  0
    5.5450  -13.9629   26.5292 C   0  0  0  0  0  0  0  0  0  0  0  0
    8.1176  -17.2769   24.1507 C   0  0  0  0  0  0  0  0  0  0  0  0
    8.1096  -18.5317   24.2147 O   0  0  0  0  0  0  0  0  0  0  0  0
    8.8392  -16.4498   17.8123 O   0  0  0  0  0  0  0  0  0  0  0  0
    9.4860  -16.4711   19.0397 C   0  0  0  0  0  0  0  0  0  0  0  0
    9.6899  -15.3135   19.7647 C   0  0  0  0  0  0  0  0  0  0  0  0
   10.3451  -15.3959   20.9903 C   0  0  0  0  0  0  0  0  0  0  0  0
   10.7786  -16.6208   21.4614 C   0  0  0  0  0  0  0  0  0  0  0  0
   11.4646  -16.6660   22.7565 C   0  0  0  0  0  0  0  0  0  0  0  0
   10.6139  -17.3473   23.8375 C   0  0  2  0  0  0  0  0  0  0  0  0
    9.3671  -16.6143   23.9029 N   0  0  0  0  0  0  0  0  0  0  0  0
   11.3759  -17.2141   25.1257 C   0  0  0  0  0  0  0  0  0  0  0  0
   12.2937  -16.3705   25.2827 O   0  0  0  0  0  0  0  0  0  0  0  0
   10.5789  -17.7792   20.7442 C   0  0  0  0  0  0  0  0  0  0  0  0
    9.9225  -17.6848   19.5198 C   0  0  0  0  0  0  0  0  0  0  0  0
   11.0750  -18.0562   26.2293 N   0  0  0  0  0  0  0  0  0  0  0  0
   11.8163  -18.0157   27.4856 C   0  0  1  0  0  0  0  0  0  0  0  0
   11.0024  -17.4565   28.5959 C   0  0  0  0  0  0  0  0  0  0  0  0
   10.7734  -16.0224   28.4199 C   0  0  0  0  0  0  0  0  0  0  0  0
   11.7454  -15.1178   28.7435 C   0  0  0  0  0  0  0  0  0  0  0  0
   11.5117  -13.7589   28.5616 C   0  0  0  0  0  0  0  0  0  0  0  0
   10.3074  -13.3327   28.0588 C   0  0  0  0  0  0  0  0  0  0  0  0
    9.3303  -14.2287   27.7329 C   0  0  0  0  0  0  0  0  0  0  0  0
    9.5775  -15.5794   27.9194 C   0  0  0  0  0  0  0  0  0  0  0  0
   12.2368  -19.3881   27.7999 C   0  0  0  0  0  0  0  0  0  0  0  0
   12.9566  -19.7370   28.7684 O   0  0  0  0  0  0  0  0  0  0  0  0
   11.8202  -20.4290   26.9720 O   0  0  0  0  0  0  0  0  0  0  0  0
  2  1  1  1
  2  3  1  0
  3  4  1  0
  4  9  1  0
  5  4  2  0
  5  6  1  0
  6  7  2  0
  7  8  1  0
  9  8  2  0
 10 11  2  0
 10  2  1  0
 12 13  1  0
 13 14  2  0
 14 15  1  0
 16 15  2  0
 16 17  1  0
 18 17  1  6
 18 19  1  0
 19 10  1  0
 20 18  1  0
 21 20  2  0
 22 16  1  0
 23 13  1  0
 23 22  2  0
 24 20  1  0
 25 24  1  0
 25 26  1  1
 26 27  1  0
 27 32  1  0
 28 27  2  0
 28 29  1  0
 29 30  2  0
 30 31  1  0
 32 31  2  0
 33 35  1  0
 33 25  1  0
 34 33  2  0
M  END
$$$$
