FYF.pdb
     RDKit          3D

 35 37  0  0  1  0  0  0  0  0999 V2000
    6.8030  -17.5910   25.2339 N   0  0  0  0  0  0  0  0  0  0  0  0
    6.6263  -17.6707   23.8166 C   0  0  1  0  0  0  0  0  0  0  0  0
    6.1211  -16.3365   23.2758 C   0  0  0  0  0  0  0  0  0  0  0  0
    6.3363  -15.2978   24.3225 C   0  0  0  0  0  0  0  0  0  0  0  0
    5.9778  -15.4766   25.6338 C   0  0  0  0  0  0  0  0  0  0  0  0
    6.1954  -14.4893   26.5683 C   0  0  0  0  0  0  0  0  0  0  0  0
    6.7821  -13.2890   26.2096 C   0  0  0  0  0  0  0  0  0  0  0  0
    7.1491  -13.0891   24.9001 C   0  0  0  0  0  0  0  0  0  0  0  0
    6.9283  -14.0812   23.9714 C   0  0  0  0  0  0  0  0  0  0  0  0
    7.9068  -18.0128   23.1170 C   0  0  0  0  0  0  0  0  0  0  0  0
    7.9433  -18.8763   22.2050 O   0  0  0  0  0  0  0  0  0  0  0  0
    8.2005  -13.1765   17.3877 O   0  0  0  0  0  0  0  0  0  0  0  0
    8.4201  -13.6345   18.6789 C   0  0  0  0  0  0  0  0  0  0  0  0
    8.4508  -12.7675   19.7535 C   0  0  0  0  0  0  0  0  0  0  0  0
    8.6753  -13.2843   21.0266 C   0  0  0  0  0  0  0  0  0  0  0  0
    8.8627  -14.6429   21.1979 C   0  0  0  0  0  0  0  0  0  0  0  0
    9.0964  -15.1483   22.5543 C   0  0  0  0  0  0  0  0  0  0  0  0
    9.8330  -16.4951   22.5502 C   0  0  2  0  0  0  0  0  0  0  0  0
    9.1288  -17.3523   23.4806 N   0  0  0  0  0  0  0  0  0  0  0  0
   11.2281  -16.2190   23.0350 C   0  0  0  0  0  0  0  0  0  0  0  0
   12.2458  -16.4774   22.3450 O   0  0  0  0  0  0  0  0  0  0  0  0
    8.8334  -15.5134   20.1314 C   0  0  0  0  0  0  0  0  0  0  0  0
    8.6081  -14.9854   18.8628 C   0  0  0  0  0  0  0  0  0  0  0  0
   11.4435  -15.6447   24.3162 N   0  0  0  0  0  0  0  0  0  0  0  0
   11.4070  -16.4206   25.5516 C   0  0  1  0  0  0  0  0  0  0  0  0
   10.1331  -16.2306   26.2924 C   0  0  0  0  0  0  0  0  0  0  0  0
   10.1853  -15.0458   27.1489 C   0  0  0  0  0  0  0  0  0  0  0  0
   10.7630  -15.1066   28.3859 C   0  0  0  0  0  0  0  0  0  0  0  0
   10.8100  -13.9674   29.1824 C   0  0  0  0  0  0  0  0  0  0  0  0
   10.2766  -12.7887   28.7234 C   0  0  0  0  0  0  0  0  0  0  0  0
    9.6972  -12.7182   27.4892 C   0  0  0  0  0  0  0  0  0  0  0  0
    9.6577  -13.8613   26.7068 C   0  0  0  0  0  0  0  0  0  0  0  0
   11.5864  -17.8348   25.1956 C   0  0  0  0  0  0  0  0  0  0  0  0
   11.2760  -18.3664   24.1006 O   0  0  0  0  0  0  0  0  0  0  0  0
   12.1498  -18.7010   26.1309 O   0  0  0  0  0  0  0  0  0  0  0  0
  2  1  1  1
  2  3  1  0
  3  4  1  0
  4  9  1  0
  5  4  2  0
  5  6  1  0
  6  7  2  0
  7  8  1  0
  9  8  2  0
 10 11  2  0
 10  2  1  0
 12 13  1  0
 13 14  2  0
 14 15  1  0
 16 15  2  0
 16 17  1  0
 18 17  1  1
 18 19  1  0
 19 10  1  0
 20 18  1  0
 21 20  2  0
 22 16  1  0
 23 13  1  0
 23 22  2  0
 24 20  1  0
 25 24  1  0
 25 26  1  6
 26 27  1  0
 27 32  1  0
 28 27  2  0
 28 29  1  0
 29 30  2  0
 30 31  1  0
 32 31  2  0
 33 35  1  0
 33 25  1  0
 34 33  2  0
M  END
$$$$
