FYF.pdb
     RDKit          3D

 35 37  0  0  1  0  0  0  0  0999 V2000
    7.0289  -17.9787   19.9297 N   0  0  0  0  0  0  0  0  0  0  0  0
    7.5754  -16.7825   20.4927 C   0  0  1  0  0  0  0  0  0  0  0  0
    6.4617  -15.9293   21.0921 C   0  0  0  0  0  0  0  0  0  0  0  0
    7.0511  -14.6308   21.5252 C   0  0  0  0  0  0  0  0  0  0  0  0
    7.3245  -13.6093   20.6524 C   0  0  0  0  0  0  0  0  0  0  0  0
    7.8694  -12.4255   21.0964 C   0  0  0  0  0  0  0  0  0  0  0  0
    8.1563  -12.2342   22.4360 C   0  0  0  0  0  0  0  0  0  0  0  0
    7.8900  -13.2456   23.3279 C   0  0  0  0  0  0  0  0  0  0  0  0
    7.3449  -14.4265   22.8764 C   0  0  0  0  0  0  0  0  0  0  0  0
    8.5751  -17.0829   21.5682 C   0  0  0  0  0  0  0  0  0  0  0  0
    8.3306  -17.9195   22.4731 O   0  0  0  0  0  0  0  0  0  0  0  0
   16.4369  -17.1408   25.5255 O   0  0  0  0  0  0  0  0  0  0  0  0
   15.3553  -16.7965   24.7274 C   0  0  0  0  0  0  0  0  0  0  0  0
   14.7434  -15.5635   24.8391 C   0  0  0  0  0  0  0  0  0  0  0  0
   13.6620  -15.2736   24.0117 C   0  0  0  0  0  0  0  0  0  0  0  0
   13.2187  -16.2121   23.0991 C   0  0  0  0  0  0  0  0  0  0  0  0
   12.0769  -15.8689   22.2457 C   0  0  0  0  0  0  0  0  0  0  0  0
   10.8089  -16.6394   22.6395 C   0  0  2  0  0  0  0  0  0  0  0  0
    9.8445  -16.4122   21.5838 N   0  0  0  0  0  0  0  0  0  0  0  0
   10.3313  -16.0409   23.9323 C   0  0  0  0  0  0  0  0  0  0  0  0
   10.0386  -14.8242   24.0451 O   0  0  0  0  0  0  0  0  0  0  0  0
   13.8238  -17.4435   22.9820 C   0  0  0  0  0  0  0  0  0  0  0  0
   14.9044  -17.7225   23.8146 C   0  0  0  0  0  0  0  0  0  0  0  0
   10.1930  -16.8500   25.0915 N   0  0  0  0  0  0  0  0  0  0  0  0
    9.6995  -16.3368   26.3652 C   0  0  1  0  0  0  0  0  0  0  0  0
    8.2272  -16.1365   26.3533 C   0  0  0  0  0  0  0  0  0  0  0  0
    7.8821  -14.7152   26.3232 C   0  0  0  0  0  0  0  0  0  0  0  0
    8.7388  -13.7804   26.8330 C   0  0  0  0  0  0  0  0  0  0  0  0
    8.3965  -12.4332   26.7881 C   0  0  0  0  0  0  0  0  0  0  0  0
    7.2012  -12.0487   26.2329 C   0  0  0  0  0  0  0  0  0  0  0  0
    6.3388  -12.9752   25.7213 C   0  0  0  0  0  0  0  0  0  0  0  0
    6.6934  -14.3139   25.7730 C   0  0  0  0  0  0  0  0  0  0  0  0
   10.0770  -17.2985   27.4101 C   0  0  0  0  0  0  0  0  0  0  0  0
   10.5273  -18.4558   27.2214 O   0  0  0  0  0  0  0  0  0  0  0  0
    9.9383  -16.9324   28.7476 O   0  0  0  0  0  0  0  0  0  0  0  0
  2  1  1  1
  2  3  1  0
  3  4  1  0
  4  9  1  0
  5  4  2  0
  5  6  1  0
  6  7  2  0
  7  8  1  0
  9  8  2  0
 10 11  2  0
 10  2  1  0
 12 13  1  0
 13 14  2  0
 14 15  1  0
 16 15  2  0
 16 17  1  0
 18 17  1  6
 18 19  1  0
 19 10  1  0
 20 18  1  0
 21 20  2  0
 22 16  1  0
 23 13  1  0
 23 22  2  0
 24 20  1  0
 25 24  1  0
 25 26  1  6
 26 27  1  0
 27 32  1  0
 28 27  2  0
 28 29  1  0
 29 30  2  0
 30 31  1  0
 32 31  2  0
 33 35  1  0
 33 25  1  0
 34 33  2  0
M  END
$$$$
