FYF.pdb
     RDKit          3D

 35 37  0  0  1  0  0  0  0  0999 V2000
    6.7075  -17.4770   20.2845 N   0  0  0  0  0  0  0  0  0  0  0  0
    8.0225  -16.9517   20.4877 C   0  0  1  0  0  0  0  0  0  0  0  0
    7.9555  -15.6855   21.3361 C   0  0  0  0  0  0  0  0  0  0  0  0
    7.9107  -14.5118   20.4189 C   0  0  0  0  0  0  0  0  0  0  0  0
    8.8100  -14.3281   19.4003 C   0  0  0  0  0  0  0  0  0  0  0  0
    8.7313  -13.2281   18.5761 C   0  0  0  0  0  0  0  0  0  0  0  0
    7.7422  -12.2774   18.7533 C   0  0  0  0  0  0  0  0  0  0  0  0
    6.8305  -12.4423   19.7687 C   0  0  0  0  0  0  0  0  0  0  0  0
    6.9157  -13.5449   20.5887 C   0  0  0  0  0  0  0  0  0  0  0  0
    8.9132  -17.9397   21.1782 C   0  0  0  0  0  0  0  0  0  0  0  0
    8.4563  -18.7601   22.0130 O   0  0  0  0  0  0  0  0  0  0  0  0
   16.6494  -20.5619   24.4716 O   0  0  0  0  0  0  0  0  0  0  0  0
   15.6421  -20.0609   23.6593 C   0  0  0  0  0  0  0  0  0  0  0  0
   14.5348  -20.8204   23.3363 C   0  0  0  0  0  0  0  0  0  0  0  0
   13.5559  -20.2649   22.5169 C   0  0  0  0  0  0  0  0  0  0  0  0
   13.7020  -18.9753   22.0420 C   0  0  0  0  0  0  0  0  0  0  0  0
   12.6492  -18.4261   21.1818 C   0  0  0  0  0  0  0  0  0  0  0  0
   11.2851  -18.3967   21.8851 C   0  0  2  0  0  0  0  0  0  0  0  0
   10.3205  -17.9667   20.8947 N   0  0  0  0  0  0  0  0  0  0  0  0
   11.3976  -17.3850   22.9903 C   0  0  0  0  0  0  0  0  0  0  0  0
   11.6958  -16.1832   22.7773 O   0  0  0  0  0  0  0  0  0  0  0  0
   14.8032  -18.2120   22.3599 C   0  0  0  0  0  0  0  0  0  0  0  0
   15.7758  -18.7778   23.1800 C   0  0  0  0  0  0  0  0  0  0  0  0
   11.1650  -17.7649   24.3391 N   0  0  0  0  0  0  0  0  0  0  0  0
   11.2261  -16.8232   25.4522 C   0  0  1  0  0  0  0  0  0  0  0  0
    9.8745  -16.4673   25.9567 C   0  0  0  0  0  0  0  0  0  0  0  0
    9.9528  -15.5295   27.0767 C   0  0  0  0  0  0  0  0  0  0  0  0
   10.0762  -15.9860   28.3590 C   0  0  0  0  0  0  0  0  0  0  0  0
   10.1570  -15.0786   29.4098 C   0  0  0  0  0  0  0  0  0  0  0  0
   10.1123  -13.7303   29.1550 C   0  0  0  0  0  0  0  0  0  0  0  0
    9.9889  -13.2648   27.8776 C   0  0  0  0  0  0  0  0  0  0  0  0
    9.9096  -14.1807   26.8407 C   0  0  0  0  0  0  0  0  0  0  0  0
   12.0236  -17.4441   26.5187 C   0  0  0  0  0  0  0  0  0  0  0  0
   12.8245  -16.8510   27.2833 O   0  0  0  0  0  0  0  0  0  0  0  0
   11.9107  -18.8162   26.7355 O   0  0  0  0  0  0  0  0  0  0  0  0
  2  1  1  1
  2  3  1  0
  3  4  1  0
  4  9  1  0
  5  4  2  0
  5  6  1  0
  6  7  2  0
  7  8  1  0
  9  8  2  0
 10 11  2  0
 10  2  1  0
 12 13  1  0
 13 14  2  0
 14 15  1  0
 16 15  2  0
 16 17  1  0
 18 17  1  6
 18 19  1  0
 19 10  1  0
 20 18  1  0
 21 20  2  0
 22 16  1  0
 23 13  1  0
 23 22  2  0
 24 20  1  0
 25 24  1  0
 25 26  1  1
 26 27  1  0
 27 32  1  0
 28 27  2  0
 28 29  1  0
 29 30  2  0
 30 31  1  0
 32 31  2  0
 33 35  1  0
 33 25  1  0
 34 33  2  0
M  END
$$$$
