FYF.pdb
     RDKit          3D

 35 37  0  0  1  0  0  0  0  0999 V2000
    5.2967  -18.9318   21.9585 N   0  0  0  0  0  0  0  0  0  0  0  0
    6.0120  -17.8925   22.6329 C   0  0  1  0  0  0  0  0  0  0  0  0
    5.6037  -17.8436   24.1021 C   0  0  0  0  0  0  0  0  0  0  0  0
    6.3198  -16.7070   24.7472 C   0  0  0  0  0  0  0  0  0  0  0  0
    6.8146  -16.7676   26.0246 C   0  0  0  0  0  0  0  0  0  0  0  0
    7.4702  -15.6927   26.5816 C   0  0  0  0  0  0  0  0  0  0  0  0
    7.6478  -14.5214   25.8673 C   0  0  0  0  0  0  0  0  0  0  0  0
    7.1594  -14.4396   24.5851 C   0  0  0  0  0  0  0  0  0  0  0  0
    6.5049  -15.5187   24.0349 C   0  0  0  0  0  0  0  0  0  0  0  0
    7.4941  -18.1016   22.5583 C   0  0  0  0  0  0  0  0  0  0  0  0
    7.9983  -19.2486   22.6532 O   0  0  0  0  0  0  0  0  0  0  0  0
    7.8746  -11.9089   19.1824 O   0  0  0  0  0  0  0  0  0  0  0  0
    8.3903  -13.1438   19.5488 C   0  0  0  0  0  0  0  0  0  0  0  0
    7.6391  -14.2975   19.4391 C   0  0  0  0  0  0  0  0  0  0  0  0
    8.2093  -15.5085   19.8221 C   0  0  0  0  0  0  0  0  0  0  0  0
    9.5049  -15.5414   20.3020 C   0  0  0  0  0  0  0  0  0  0  0  0
   10.0696  -16.8362   20.6951 C   0  0  0  0  0  0  0  0  0  0  0  0
    9.7965  -17.1619   22.1702 C   0  0  2  0  0  0  0  0  0  0  0  0
    8.3745  -16.9823   22.3750 N   0  0  0  0  0  0  0  0  0  0  0  0
   10.5789  -16.1654   22.9780 C   0  0  0  0  0  0  0  0  0  0  0  0
   10.4710  -14.9252   22.8079 O   0  0  0  0  0  0  0  0  0  0  0  0
   10.2599  -14.3953   20.4142 C   0  0  0  0  0  0  0  0  0  0  0  0
    9.6795  -13.1900   20.0282 C   0  0  0  0  0  0  0  0  0  0  0  0
   11.4840  -16.6049   23.9807 N   0  0  0  0  0  0  0  0  0  0  0  0
   11.1514  -16.6186   25.4014 C   0  0  1  0  0  0  0  0  0  0  0  0
    9.8035  -16.0512   25.6644 C   0  0  0  0  0  0  0  0  0  0  0  0
    9.8707  -14.9259   26.5967 C   0  0  0  0  0  0  0  0  0  0  0  0
   10.7266  -14.9550   27.6617 C   0  0  0  0  0  0  0  0  0  0  0  0
   10.7818  -13.8720   28.5326 C   0  0  0  0  0  0  0  0  0  0  0  0
    9.9773  -12.7803   28.3191 C   0  0  0  0  0  0  0  0  0  0  0  0
    9.1189  -12.7421   27.2582 C   0  0  0  0  0  0  0  0  0  0  0  0
    9.0749  -13.8284   26.3989 C   0  0  0  0  0  0  0  0  0  0  0  0
   11.2191  -18.0123   25.8620 C   0  0  0  0  0  0  0  0  0  0  0  0
   11.3220  -18.3922   27.0549 O   0  0  0  0  0  0  0  0  0  0  0  0
   11.1675  -19.0385   24.9205 O   0  0  0  0  0  0  0  0  0  0  0  0
  2  1  1  6
  2  3  1  0
  3  4  1  0
  4  9  1  0
  5  4  2  0
  5  6  1  0
  6  7  2  0
  7  8  1  0
  9  8  2  0
 10 11  2  0
 10  2  1  0
 12 13  1  0
 13 14  2  0
 14 15  1  0
 16 15  2  0
 16 17  1  0
 18 17  1  6
 18 19  1  0
 19 10  1  0
 20 18  1  0
 21 20  2  0
 22 16  1  0
 23 13  1  0
 23 22  2  0
 24 20  1  0
 25 24  1  0
 25 26  1  6
 26 27  1  0
 27 32  1  0
 28 27  2  0
 28 29  1  0
 29 30  2  0
 30 31  1  0
 32 31  2  0
 33 35  1  0
 33 25  1  0
 34 33  2  0
M  END
$$$$
