FYF.pdb
     RDKit          3D

 35 37  0  0  1  0  0  0  0  0999 V2000
    6.4632  -21.2513   24.4519 N   0  0  0  0  0  0  0  0  0  0  0  0
    6.8869  -20.0946   25.1792 C   0  0  1  0  0  0  0  0  0  0  0  0
    7.8420  -20.4999   26.2978 C   0  0  0  0  0  0  0  0  0  0  0  0
    8.0533  -19.3184   27.1811 C   0  0  0  0  0  0  0  0  0  0  0  0
    7.0213  -18.6405   27.7774 C   0  0  0  0  0  0  0  0  0  0  0  0
    7.2625  -17.5532   28.5868 C   0  0  0  0  0  0  0  0  0  0  0  0
    8.5534  -17.1145   28.8207 C   0  0  0  0  0  0  0  0  0  0  0  0
    9.6025  -17.7799   28.2325 C   0  0  0  0  0  0  0  0  0  0  0  0
    9.3534  -18.8664   27.4245 C   0  0  0  0  0  0  0  0  0  0  0  0
    7.5847  -19.1078   24.2929 C   0  0  0  0  0  0  0  0  0  0  0  0
    8.6332  -19.4138   23.6718 O   0  0  0  0  0  0  0  0  0  0  0  0
    8.0448  -12.1676   18.9189 O   0  0  0  0  0  0  0  0  0  0  0  0
    7.6854  -13.0368   19.9390 C   0  0  0  0  0  0  0  0  0  0  0  0
    7.8037  -12.6749   21.2665 C   0  0  0  0  0  0  0  0  0  0  0  0
    7.4276  -13.5887   22.2473 C   0  0  0  0  0  0  0  0  0  0  0  0
    6.9460  -14.8325   21.8850 C   0  0  0  0  0  0  0  0  0  0  0  0
    6.5605  -15.7668   22.9473 C   0  0  0  0  0  0  0  0  0  0  0  0
    7.6205  -16.8538   23.1736 C   0  0  2  0  0  0  0  0  0  0  0  0
    7.0615  -17.7799   24.1359 N   0  0  0  0  0  0  0  0  0  0  0  0
    8.8261  -16.1608   23.7427 C   0  0  0  0  0  0  0  0  0  0  0  0
    9.6799  -15.5891   23.0196 O   0  0  0  0  0  0  0  0  0  0  0  0
    6.8253  -15.2003   20.5635 C   0  0  0  0  0  0  0  0  0  0  0  0
    7.2043  -14.2785   19.5913 C   0  0  0  0  0  0  0  0  0  0  0  0
    9.0420  -16.1302   25.1463 N   0  0  0  0  0  0  0  0  0  0  0  0
   10.0903  -15.3311   25.7723 C   0  0  1  0  0  0  0  0  0  0  0  0
    9.6169  -14.6625   27.0121 C   0  0  0  0  0  0  0  0  0  0  0  0
    8.4817  -13.7802   26.7425 C   0  0  0  0  0  0  0  0  0  0  0  0
    8.6649  -12.5866   26.1025 C   0  0  0  0  0  0  0  0  0  0  0  0
    7.5720  -11.7650   25.8481 C   0  0  0  0  0  0  0  0  0  0  0  0
    6.3158  -12.1557   26.2406 C   0  0  0  0  0  0  0  0  0  0  0  0
    6.1228  -13.3460   26.8807 C   0  0  0  0  0  0  0  0  0  0  0  0
    7.2212  -14.1543   27.1272 C   0  0  0  0  0  0  0  0  0  0  0  0
   11.2157  -16.2271   26.0715 C   0  0  0  0  0  0  0  0  0  0  0  0
   12.2972  -15.8977   26.6190 O   0  0  0  0  0  0  0  0  0  0  0  0
   11.1149  -17.5753   25.7329 O   0  0  0  0  0  0  0  0  0  0  0  0
  2  1  1  6
  2  3  1  0
  3  4  1  0
  4  9  1  0
  5  4  2  0
  5  6  1  0
  6  7  2  0
  7  8  1  0
  9  8  2  0
 10 11  2  0
 10  2  1  0
 12 13  1  0
 13 14  2  0
 14 15  1  0
 16 15  2  0
 16 17  1  0
 18 17  1  1
 18 19  1  0
 19 10  1  0
 20 18  1  0
 21 20  2  0
 22 16  1  0
 23 13  1  0
 23 22  2  0
 24 20  1  0
 25 24  1  0
 25 26  1  1
 26 27  1  0
 27 32  1  0
 28 27  2  0
 28 29  1  0
 29 30  2  0
 30 31  1  0
 32 31  2  0
 33 35  1  0
 33 25  1  0
 34 33  2  0
M  END
$$$$
