FYF.pdb
     RDKit          3D

 35 37  0  0  1  0  0  0  0  0999 V2000
    7.0593  -18.3171   20.5188 N   0  0  0  0  0  0  0  0  0  0  0  0
    7.6125  -17.0951   21.0161 C   0  0  1  0  0  0  0  0  0  0  0  0
    6.5053  -16.2106   21.5813 C   0  0  0  0  0  0  0  0  0  0  0  0
    6.9595  -14.7930   21.5106 C   0  0  0  0  0  0  0  0  0  0  0  0
    6.2546  -13.7567   22.0668 C   0  0  0  0  0  0  0  0  0  0  0  0
    6.7117  -12.4611   21.9776 C   0  0  0  0  0  0  0  0  0  0  0  0
    7.8954  -12.1692   21.3239 C   0  0  0  0  0  0  0  0  0  0  0  0
    8.6175  -13.1934   20.7592 C   0  0  0  0  0  0  0  0  0  0  0  0
    8.1540  -14.4864   20.8526 C   0  0  0  0  0  0  0  0  0  0  0  0
    8.6210  -17.3428   22.0967 C   0  0  0  0  0  0  0  0  0  0  0  0
    8.3812  -18.1286   23.0473 O   0  0  0  0  0  0  0  0  0  0  0  0
   16.5030  -17.5018   25.9584 O   0  0  0  0  0  0  0  0  0  0  0  0
   15.4303  -17.2417   25.1176 C   0  0  0  0  0  0  0  0  0  0  0  0
   14.5917  -18.2518   24.6889 C   0  0  0  0  0  0  0  0  0  0  0  0
   13.5314  -17.9312   23.8457 C   0  0  0  0  0  0  0  0  0  0  0  0
   13.3328  -16.6213   23.4521 C   0  0  0  0  0  0  0  0  0  0  0  0
   12.2050  -16.3242   22.5635 C   0  0  0  0  0  0  0  0  0  0  0  0
   10.8808  -16.8815   23.1042 C   0  0  2  0  0  0  0  0  0  0  0  0
    9.8937  -16.6789   22.0646 N   0  0  0  0  0  0  0  0  0  0  0  0
   10.5428  -16.0692   24.3222 C   0  0  0  0  0  0  0  0  0  0  0  0
   10.6047  -14.8144   24.3350 O   0  0  0  0  0  0  0  0  0  0  0  0
   14.1646  -15.6089   23.8754 C   0  0  0  0  0  0  0  0  0  0  0  0
   15.2218  -15.9412   24.7185 C   0  0  0  0  0  0  0  0  0  0  0  0
   10.1340  -16.7093   25.5226 N   0  0  0  0  0  0  0  0  0  0  0  0
   10.0351  -16.0130   26.8011 C   0  0  1  0  0  0  0  0  0  0  0  0
    8.6239  -15.7526   27.1870 C   0  0  0  0  0  0  0  0  0  0  0  0
    8.1379  -14.4961   26.6167 C   0  0  0  0  0  0  0  0  0  0  0  0
    8.7475  -13.3118   26.9222 C   0  0  0  0  0  0  0  0  0  0  0  0
    8.2757  -12.1285   26.3638 C   0  0  0  0  0  0  0  0  0  0  0  0
    7.2013  -12.1554   25.5097 C   0  0  0  0  0  0  0  0  0  0  0  0
    6.5856  -13.3336   25.1988 C   0  0  0  0  0  0  0  0  0  0  0  0
    7.0668  -14.5044   25.7626 C   0  0  0  0  0  0  0  0  0  0  0  0
   10.6978  -16.8451   27.8147 C   0  0  0  0  0  0  0  0  0  0  0  0
   11.1132  -18.0192   27.6505 O   0  0  0  0  0  0  0  0  0  0  0  0
   10.9044  -16.3213   29.0896 O   0  0  0  0  0  0  0  0  0  0  0  0
  2  1  1  1
  2  3  1  0
  3  4  1  0
  4  9  1  0
  5  4  2  0
  5  6  1  0
  6  7  2  0
  7  8  1  0
  9  8  2  0
 10 11  2  0
 10  2  1  0
 12 13  1  0
 13 14  2  0
 14 15  1  0
 16 15  2  0
 16 17  1  0
 18 17  1  6
 18 19  1  0
 19 10  1  0
 20 18  1  0
 21 20  2  0
 22 16  1  0
 23 13  1  0
 23 22  2  0
 24 20  1  0
 25 24  1  0
 25 26  1  1
 26 27  1  0
 27 32  1  0
 28 27  2  0
 28 29  1  0
 29 30  2  0
 30 31  1  0
 32 31  2  0
 33 35  1  0
 33 25  1  0
 34 33  2  0
M  END
$$$$
