FYF.pdb
     RDKit          3D

 35 37  0  0  1  0  0  0  0  0999 V2000
    9.8473  -15.4774   16.1572 N   0  0  0  0  0  0  0  0  0  0  0  0
    9.6841  -14.8865   17.4498 C   0  0  1  0  0  0  0  0  0  0  0  0
    8.2216  -14.9592   17.8782 C   0  0  0  0  0  0  0  0  0  0  0  0
    8.0938  -14.3071   19.2121 C   0  0  0  0  0  0  0  0  0  0  0  0
    7.7387  -14.9928   20.3451 C   0  0  0  0  0  0  0  0  0  0  0  0
    7.6325  -14.3498   21.5578 C   0  0  0  0  0  0  0  0  0  0  0  0
    7.8811  -12.9934   21.6665 C   0  0  0  0  0  0  0  0  0  0  0  0
    8.2385  -12.2870   20.5427 C   0  0  0  0  0  0  0  0  0  0  0  0
    8.3427  -12.9371   19.3336 C   0  0  0  0  0  0  0  0  0  0  0  0
   10.5175  -15.5794   18.4849 C   0  0  0  0  0  0  0  0  0  0  0  0
   10.5171  -16.8311   18.5941 O   0  0  0  0  0  0  0  0  0  0  0  0
   15.4154  -15.9949   14.8538 O   0  0  0  0  0  0  0  0  0  0  0  0
   14.9688  -15.6891   16.1315 C   0  0  0  0  0  0  0  0  0  0  0  0
   14.5387  -14.4179   16.4573 C   0  0  0  0  0  0  0  0  0  0  0  0
   14.1015  -14.1696   17.7556 C   0  0  0  0  0  0  0  0  0  0  0  0
   14.1032  -15.1861   18.6919 C   0  0  0  0  0  0  0  0  0  0  0  0
   13.6353  -14.8847   20.0484 C   0  0  0  0  0  0  0  0  0  0  0  0
   12.2374  -15.4587   20.3184 C   0  0  2  0  0  0  0  0  0  0  0  0
   11.3406  -14.8166   19.3805 N   0  0  0  0  0  0  0  0  0  0  0  0
   11.8876  -15.0814   21.7301 C   0  0  0  0  0  0  0  0  0  0  0  0
   12.0654  -13.9229   22.1828 O   0  0  0  0  0  0  0  0  0  0  0  0
   14.5306  -16.4560   18.3743 C   0  0  0  0  0  0  0  0  0  0  0  0
   14.9656  -16.6929   17.0730 C   0  0  0  0  0  0  0  0  0  0  0  0
   11.3332  -16.0441   22.6152 N   0  0  0  0  0  0  0  0  0  0  0  0
   11.6116  -16.0608   24.0476 C   0  0  1  0  0  0  0  0  0  0  0  0
   10.6295  -15.2531   24.8163 C   0  0  0  0  0  0  0  0  0  0  0  0
    9.2668  -15.4625   24.3269 C   0  0  0  0  0  0  0  0  0  0  0  0
    8.2008  -14.9093   24.9791 C   0  0  0  0  0  0  0  0  0  0  0  0
    6.9134  -15.1132   24.4939 C   0  0  0  0  0  0  0  0  0  0  0  0
    6.7193  -15.8682   23.3639 C   0  0  0  0  0  0  0  0  0  0  0  0
    7.7780  -16.4251   22.7057 C   0  0  0  0  0  0  0  0  0  0  0  0
    9.0548  -16.2133   23.2008 C   0  0  0  0  0  0  0  0  0  0  0  0
   11.5822  -17.4612   24.4915 C   0  0  0  0  0  0  0  0  0  0  0  0
   11.1697  -18.4403   23.8214 O   0  0  0  0  0  0  0  0  0  0  0  0
   12.0459  -17.7756   25.7676 O   0  0  0  0  0  0  0  0  0  0  0  0
  2  1  1  6
  2  3  1  0
  3  4  1  0
  4  9  1  0
  5  4  2  0
  5  6  1  0
  6  7  2  0
  7  8  1  0
  9  8  2  0
 10 11  2  0
 10  2  1  0
 12 13  1  0
 13 14  2  0
 14 15  1  0
 16 15  2  0
 16 17  1  0
 18 17  1  6
 18 19  1  0
 19 10  1  0
 20 18  1  0
 21 20  2  0
 22 16  1  0
 23 13  1  0
 23 22  2  0
 24 20  1  0
 25 24  1  0
 25 26  1  1
 26 27  1  0
 27 32  1  0
 28 27  2  0
 28 29  1  0
 29 30  2  0
 30 31  1  0
 32 31  2  0
 33 35  1  0
 33 25  1  0
 34 33  2  0
M  END
$$$$
