FYF.pdb
     RDKit          3D

 35 37  0  0  1  0  0  0  0  0999 V2000
    5.7591  -18.3418   21.1745 N   0  0  0  0  0  0  0  0  0  0  0  0
    6.3624  -17.2851   21.9268 C   0  0  1  0  0  0  0  0  0  0  0  0
    5.9620  -17.3926   23.3951 C   0  0  0  0  0  0  0  0  0  0  0  0
    6.6961  -16.3427   24.1564 C   0  0  0  0  0  0  0  0  0  0  0  0
    7.0016  -15.1154   23.6269 C   0  0  0  0  0  0  0  0  0  0  0  0
    7.6818  -14.1745   24.3667 C   0  0  0  0  0  0  0  0  0  0  0  0
    8.0761  -14.4418   25.6655 C   0  0  0  0  0  0  0  0  0  0  0  0
    7.7799  -15.6661   26.2155 C   0  0  0  0  0  0  0  0  0  0  0  0
    7.0993  -16.6019   25.4695 C   0  0  0  0  0  0  0  0  0  0  0  0
    7.8579  -17.3254   21.8379 C   0  0  0  0  0  0  0  0  0  0  0  0
    8.4888  -18.4089   21.9202 O   0  0  0  0  0  0  0  0  0  0  0  0
    7.6502  -13.6385   16.2313 O   0  0  0  0  0  0  0  0  0  0  0  0
    8.3325  -13.8912   17.4128 C   0  0  0  0  0  0  0  0  0  0  0  0
    8.2579  -13.0243   18.4853 C   0  0  0  0  0  0  0  0  0  0  0  0
    8.9643  -13.3297   19.6454 C   0  0  0  0  0  0  0  0  0  0  0  0
    9.7229  -14.4832   19.7094 C   0  0  0  0  0  0  0  0  0  0  0  0
   10.4522  -14.7696   20.9487 C   0  0  0  0  0  0  0  0  0  0  0  0
   10.0494  -16.1200   21.5574 C   0  0  2  0  0  0  0  0  0  0  0  0
    8.6048  -16.1129   21.6551 N   0  0  0  0  0  0  0  0  0  0  0  0
   10.6732  -16.1744   22.9232 C   0  0  0  0  0  0  0  0  0  0  0  0
   11.9174  -16.1636   23.0977 O   0  0  0  0  0  0  0  0  0  0  0  0
    9.8020  -15.3522   18.6442 C   0  0  0  0  0  0  0  0  0  0  0  0
    9.0914  -15.0367   17.4891 C   0  0  0  0  0  0  0  0  0  0  0  0
    9.8574  -16.2412   24.0841 N   0  0  0  0  0  0  0  0  0  0  0  0
   10.3542  -15.9429   25.4234 C   0  0  1  0  0  0  0  0  0  0  0  0
    9.6651  -14.7727   26.0264 C   0  0  0  0  0  0  0  0  0  0  0  0
   10.0687  -14.5747   27.4185 C   0  0  0  0  0  0  0  0  0  0  0  0
    9.5827  -13.5211   28.1406 C   0  0  0  0  0  0  0  0  0  0  0  0
    9.9720  -13.3542   29.4653 C   0  0  0  0  0  0  0  0  0  0  0  0
   10.8416  -14.2471   30.0409 C   0  0  0  0  0  0  0  0  0  0  0  0
   11.3326  -15.3025   29.3276 C   0  0  0  0  0  0  0  0  0  0  0  0
   10.9357  -15.4560   28.0088 C   0  0  0  0  0  0  0  0  0  0  0  0
   10.1508  -17.1396   26.2514 C   0  0  0  0  0  0  0  0  0  0  0  0
   10.6361  -17.3398   27.3926 O   0  0  0  0  0  0  0  0  0  0  0  0
    9.3520  -18.1718   25.7628 O   0  0  0  0  0  0  0  0  0  0  0  0
  2  1  1  6
  2  3  1  0
  3  4  1  0
  4  9  1  0
  5  4  2  0
  5  6  1  0
  6  7  2  0
  7  8  1  0
  9  8  2  0
 10 11  2  0
 10  2  1  0
 12 13  1  0
 13 14  2  0
 14 15  1  0
 16 15  2  0
 16 17  1  0
 18 17  1  1
 18 19  1  0
 19 10  1  0
 20 18  1  0
 21 20  2  0
 22 16  1  0
 23 13  1  0
 23 22  2  0
 24 20  1  0
 25 24  1  0
 25 26  1  1
 26 27  1  0
 27 32  1  0
 28 27  2  0
 28 29  1  0
 29 30  2  0
 30 31  1  0
 32 31  2  0
 33 35  1  0
 33 25  1  0
 34 33  2  0
M  END
$$$$
