FYF.pdb
     RDKit          3D

 35 37  0  0  1  0  0  0  0  0999 V2000
    7.0797  -19.0882   20.1587 N   0  0  0  0  0  0  0  0  0  0  0  0
    6.9951  -18.4897   21.4553 C   0  0  1  0  0  0  0  0  0  0  0  0
    7.1316  -19.5584   22.5355 C   0  0  0  0  0  0  0  0  0  0  0  0
    7.0479  -18.8905   23.8651 C   0  0  0  0  0  0  0  0  0  0  0  0
    5.9333  -18.2142   24.2898 C   0  0  0  0  0  0  0  0  0  0  0  0
    5.8995  -17.6114   25.5271 C   0  0  0  0  0  0  0  0  0  0  0  0
    6.9898  -17.6717   26.3763 C   0  0  0  0  0  0  0  0  0  0  0  0
    8.1173  -18.3447   25.9700 C   0  0  0  0  0  0  0  0  0  0  0  0
    8.1436  -18.9449   24.7313 C   0  0  0  0  0  0  0  0  0  0  0  0
    8.0680  -17.4641   21.6632 C   0  0  0  0  0  0  0  0  0  0  0  0
    9.2838  -17.7548   21.5369 O   0  0  0  0  0  0  0  0  0  0  0  0
    8.0551  -13.7304   16.1535 O   0  0  0  0  0  0  0  0  0  0  0  0
    8.1024  -13.7750   17.5395 C   0  0  0  0  0  0  0  0  0  0  0  0
    8.5442  -14.9000   18.2077 C   0  0  0  0  0  0  0  0  0  0  0  0
    8.5697  -14.8871   19.5997 C   0  0  0  0  0  0  0  0  0  0  0  0
    8.1575  -13.7619   20.2882 C   0  0  0  0  0  0  0  0  0  0  0  0
    8.1993  -13.7875   21.7536 C   0  0  0  0  0  0  0  0  0  0  0  0
    8.7359  -15.1207   22.2931 C   0  0  2  0  0  0  0  0  0  0  0  0
    7.7217  -16.1157   22.0145 N   0  0  0  0  0  0  0  0  0  0  0  0
    8.9101  -14.9412   23.7747 C   0  0  0  0  0  0  0  0  0  0  0  0
    8.5095  -13.9169   24.3821 O   0  0  0  0  0  0  0  0  0  0  0  0
    7.7159  -12.6365   19.6288 C   0  0  0  0  0  0  0  0  0  0  0  0
    7.6947  -12.6607   18.2368 C   0  0  0  0  0  0  0  0  0  0  0  0
    9.5469  -15.9462   24.5507 N   0  0  0  0  0  0  0  0  0  0  0  0
    9.8302  -15.7917   25.9738 C   0  0  1  0  0  0  0  0  0  0  0  0
    8.5878  -15.6821   26.7814 C   0  0  0  0  0  0  0  0  0  0  0  0
    7.9894  -14.3524   26.6624 C   0  0  0  0  0  0  0  0  0  0  0  0
    6.6976  -14.2061   26.2413 C   0  0  0  0  0  0  0  0  0  0  0  0
    6.1439  -12.9341   26.1421 C   0  0  0  0  0  0  0  0  0  0  0  0
    6.8964  -11.8327   26.4669 C   0  0  0  0  0  0  0  0  0  0  0  0
    8.1878  -11.9689   26.8883 C   0  0  0  0  0  0  0  0  0  0  0  0
    8.7259  -13.2424   26.9823 C   0  0  0  0  0  0  0  0  0  0  0  0
   10.6175  -16.9565   26.4010 C   0  0  0  0  0  0  0  0  0  0  0  0
   10.9075  -17.9524   25.6926 O   0  0  0  0  0  0  0  0  0  0  0  0
   11.1069  -17.0000   27.7051 O   0  0  0  0  0  0  0  0  0  0  0  0
  2  1  1  6
  2  3  1  0
  3  4  1  0
  4  9  1  0
  5  4  2  0
  5  6  1  0
  6  7  2  0
  7  8  1  0
  9  8  2  0
 10 11  2  0
 10  2  1  0
 12 13  1  0
 13 14  2  0
 14 15  1  0
 16 15  2  0
 16 17  1  0
 18 17  1  6
 18 19  1  0
 19 10  1  0
 20 18  1  0
 21 20  2  0
 22 16  1  0
 23 13  1  0
 23 22  2  0
 24 20  1  0
 25 24  1  0
 25 26  1  1
 26 27  1  0
 27 32  1  0
 28 27  2  0
 28 29  1  0
 29 30  2  0
 30 31  1  0
 32 31  2  0
 33 35  1  0
 33 25  1  0
 34 33  2  0
M  END
$$$$
