FYF.pdb
     RDKit          3D

 35 37  0  0  1  0  0  0  0  0999 V2000
    8.3107  -16.5877   20.5495 N   0  0  0  0  0  0  0  0  0  0  0  0
    7.9192  -15.4935   21.3837 C   0  0  1  0  0  0  0  0  0  0  0  0
    6.7089  -14.7843   20.7839 C   0  0  0  0  0  0  0  0  0  0  0  0
    7.1271  -14.1537   19.5001 C   0  0  0  0  0  0  0  0  0  0  0  0
    6.8751  -14.7184   18.2763 C   0  0  0  0  0  0  0  0  0  0  0  0
    7.2799  -14.1005   17.1145 C   0  0  0  0  0  0  0  0  0  0  0  0
    7.9524  -12.8922   17.1500 C   0  0  0  0  0  0  0  0  0  0  0  0
    8.2153  -12.3088   18.3666 C   0  0  0  0  0  0  0  0  0  0  0  0
    7.8073  -12.9328   19.5240 C   0  0  0  0  0  0  0  0  0  0  0  0
    7.5654  -15.9500   22.7666 C   0  0  0  0  0  0  0  0  0  0  0  0
    7.0692  -15.1607   23.6089 O   0  0  0  0  0  0  0  0  0  0  0  0
    8.3123  -21.3306   29.7280 O   0  0  0  0  0  0  0  0  0  0  0  0
    8.1422  -20.8107   28.4528 C   0  0  0  0  0  0  0  0  0  0  0  0
    6.9118  -20.3570   28.0199 C   0  0  0  0  0  0  0  0  0  0  0  0
    6.8011  -19.8456   26.7297 C   0  0  0  0  0  0  0  0  0  0  0  0
    7.9107  -19.7986   25.9072 C   0  0  0  0  0  0  0  0  0  0  0  0
    7.7532  -19.2530   24.5553 C   0  0  0  0  0  0  0  0  0  0  0  0
    7.7558  -17.7179   24.5479 C   0  0  2  0  0  0  0  0  0  0  0  0
    7.7896  -17.3131   23.1582 N   0  0  0  0  0  0  0  0  0  0  0  0
    9.0105  -17.2908   25.2556 C   0  0  0  0  0  0  0  0  0  0  0  0
   10.1538  -17.6507   24.8786 O   0  0  0  0  0  0  0  0  0  0  0  0
    9.1407  -20.2491   26.3318 C   0  0  0  0  0  0  0  0  0  0  0  0
    9.2396  -20.7585   27.6239 C   0  0  0  0  0  0  0  0  0  0  0  0
    8.9408  -16.4486   26.3973 N   0  0  0  0  0  0  0  0  0  0  0  0
   10.1239  -15.9428   27.0856 C   0  0  1  0  0  0  0  0  0  0  0  0
   10.3507  -14.4989   26.8176 C   0  0  0  0  0  0  0  0  0  0  0  0
    9.0931  -13.7517   26.8201 C   0  0  0  0  0  0  0  0  0  0  0  0
    8.7452  -12.9789   27.8922 C   0  0  0  0  0  0  0  0  0  0  0  0
    7.5490  -12.2696   27.8725 C   0  0  0  0  0  0  0  0  0  0  0  0
    6.7241  -12.3489   26.7780 C   0  0  0  0  0  0  0  0  0  0  0  0
    7.0629  -13.1185   25.7025 C   0  0  0  0  0  0  0  0  0  0  0  0
    8.2578  -13.8194   25.7363 C   0  0  0  0  0  0  0  0  0  0  0  0
    9.9354  -16.1731   28.5245 C   0  0  0  0  0  0  0  0  0  0  0  0
    8.8748  -16.5544   29.0792 O   0  0  0  0  0  0  0  0  0  0  0  0
   11.0076  -15.9605   29.3892 O   0  0  0  0  0  0  0  0  0  0  0  0
  2  1  1  6
  2  3  1  0
  3  4  1  0
  4  9  1  0
  5  4  2  0
  5  6  1  0
  6  7  2  0
  7  8  1  0
  9  8  2  0
 10 11  2  0
 10  2  1  0
 12 13  1  0
 13 14  2  0
 14 15  1  0
 16 15  2  0
 16 17  1  0
 18 17  1  6
 18 19  1  0
 19 10  1  0
 20 18  1  0
 21 20  2  0
 22 16  1  0
 23 13  1  0
 23 22  2  0
 24 20  1  0
 25 24  1  0
 25 26  1  1
 26 27  1  0
 27 32  1  0
 28 27  2  0
 28 29  1  0
 29 30  2  0
 30 31  1  0
 32 31  2  0
 33 35  1  0
 33 25  1  0
 34 33  2  0
M  END
$$$$
