VYW.pdb
     RDKit          3D

 34 36  0  0  1  0  0  0  0  0999 V2000
    8.9428  -20.2705   22.6476 C   0  0  0  0  0  0  0  0  0  0  0  0
    7.7969  -19.6532   21.8380 C   0  0  2  0  0  0  0  0  0  0  0  0
    6.7563  -20.6556   21.5018 C   0  0  0  0  0  0  0  0  0  0  0  0
    8.3663  -18.8764   20.7194 C   0  0  2  0  0  0  0  0  0  0  0  0
    8.8813  -19.7307   19.6662 N   0  0  0  0  0  0  0  0  0  0  0  0
    9.3301  -17.8174   21.0764 C   0  0  0  0  0  0  0  0  0  0  0  0
   10.5538  -17.8688   20.8493 O   0  0  0  0  0  0  0  0  0  0  0  0
    7.5712  -12.8307   16.6801 O   0  0  0  0  0  0  0  0  0  0  0  0
    7.8685  -13.1863   17.9909 C   0  0  0  0  0  0  0  0  0  0  0  0
    9.1749  -13.5094   18.3409 C   0  0  0  0  0  0  0  0  0  0  0  0
    9.5063  -13.8674   19.6347 C   0  0  0  0  0  0  0  0  0  0  0  0
    8.5594  -13.9227   20.6439 C   0  0  0  0  0  0  0  0  0  0  0  0
    8.9050  -14.3058   22.0300 C   0  0  0  0  0  0  0  0  0  0  0  0
    9.7211  -15.5548   22.1557 C   0  0  2  0  0  0  0  0  0  0  0  0
    8.8330  -16.6534   21.7266 N   0  0  0  0  0  0  0  0  0  0  0  0
   10.1072  -15.7459   23.5784 C   0  0  0  0  0  0  0  0  0  0  0  0
   10.9608  -14.9435   24.0507 O   0  0  0  0  0  0  0  0  0  0  0  0
    7.2582  -13.5976   20.2815 C   0  0  0  0  0  0  0  0  0  0  0  0
    6.9278  -13.2413   18.9949 C   0  0  0  0  0  0  0  0  0  0  0  0
    9.5616  -16.7701   24.3854 N   0  0  0  0  0  0  0  0  0  0  0  0
    9.9641  -16.8542   25.7872 C   0  0  1  0  0  0  0  0  0  0  0  0
    9.6959  -15.5776   26.4977 C   0  0  0  0  0  0  0  0  0  0  0  0
    8.3040  -15.1205   26.3376 C   0  0  0  0  0  0  0  0  0  0  0  0
    7.1950  -15.9055   25.9794 C   0  0  0  0  0  0  0  0  0  0  0  0
    6.1091  -15.1230   25.8853 N   0  0  0  0  0  0  0  0  0  0  0  0
    6.4346  -13.8582   26.1627 C   0  0  0  0  0  0  0  0  0  0  0  0
    5.6561  -12.7190   26.2101 C   0  0  0  0  0  0  0  0  0  0  0  0
    6.2222  -11.4979   26.5519 C   0  0  0  0  0  0  0  0  0  0  0  0
    7.5742  -11.4799   26.8361 C   0  0  0  0  0  0  0  0  0  0  0  0
    8.3420  -12.6245   26.7843 C   0  0  0  0  0  0  0  0  0  0  0  0
    7.7939  -13.8450   26.4451 C   0  0  0  0  0  0  0  0  0  0  0  0
    9.3742  -18.0087   26.4663 C   0  0  0  0  0  0  0  0  0  0  0  0
    9.7775  -18.3396   27.7415 O   0  0  0  0  0  0  0  0  0  0  0  0
    8.5065  -18.7051   25.9107 O   0  0  0  0  0  0  0  0  0  0  0  0
  2  1  1  6
  2  3  1  0
  2  4  1  0
  4  5  1  6
  6 15  1  0
  6  4  1  0
  7  6  2  0
  8  9  1  0
  9 19  2  0
 10  9  1  0
 10 11  2  0
 11 12  1  0
 12 18  2  0
 12 13  1  0
 14 13  1  1
 14 16  1  0
 14 15  1  0
 16 20  1  0
 17 16  2  0
 19 18  1  0
 20 21  1  0
 21 32  1  0
 21 22  1  1
 23 22  1  0
 23 24  2  0
 25 24  1  0
 26 31  2  0
 26 25  1  0
 27 26  1  0
 28 29  1  0
 28 27  2  0
 29 30  2  0
 30 31  1  0
 31 23  1  0
 32 33  1  0
 34 32  2  0
M  END
$$$$
