VYW.pdb
     RDKit          3D

 34 36  0  0  1  0  0  0  0  0999 V2000
   11.3016  -19.7967   22.1466 C   0  0  0  0  0  0  0  0  0  0  0  0
    9.8801  -19.7100   21.5798 C   0  0  2  0  0  0  0  0  0  0  0  0
    9.3897  -21.0307   21.1151 C   0  0  0  0  0  0  0  0  0  0  0  0
    9.8172  -18.5939   20.6156 C   0  0  2  0  0  0  0  0  0  0  0  0
   10.4793  -18.9132   19.3651 N   0  0  0  0  0  0  0  0  0  0  0  0
   10.2212  -17.2663   21.1177 C   0  0  0  0  0  0  0  0  0  0  0  0
   11.2749  -16.6816   20.8028 O   0  0  0  0  0  0  0  0  0  0  0  0
    7.2752  -13.4459   16.7405 O   0  0  0  0  0  0  0  0  0  0  0  0
    7.5592  -13.6705   18.0828 C   0  0  0  0  0  0  0  0  0  0  0  0
    6.9546  -14.7301   18.7502 C   0  0  0  0  0  0  0  0  0  0  0  0
    7.2140  -14.9827   20.0847 C   0  0  0  0  0  0  0  0  0  0  0  0
    8.0846  -14.1976   20.8222 C   0  0  0  0  0  0  0  0  0  0  0  0
    8.3667  -14.4599   22.2501 C   0  0  0  0  0  0  0  0  0  0  0  0
    9.6198  -15.2356   22.5146 C   0  0  2  0  0  0  0  0  0  0  0  0
    9.3503  -16.6026   22.0265 N   0  0  0  0  0  0  0  0  0  0  0  0
    9.8772  -15.2652   23.9784 C   0  0  0  0  0  0  0  0  0  0  0  0
    9.6511  -14.2004   24.6192 O   0  0  0  0  0  0  0  0  0  0  0  0
    8.6821  -13.1425   20.1441 C   0  0  0  0  0  0  0  0  0  0  0  0
    8.4248  -12.8906   18.8167 C   0  0  0  0  0  0  0  0  0  0  0  0
   10.3541  -16.4165   24.6455 N   0  0  0  0  0  0  0  0  0  0  0  0
    9.7523  -16.7928   25.9223 C   0  0  1  0  0  0  0  0  0  0  0  0
    8.2801  -16.9438   25.7952 C   0  0  0  0  0  0  0  0  0  0  0  0
    7.5531  -15.6994   26.1032 C   0  0  0  0  0  0  0  0  0  0  0  0
    6.1895  -15.4429   25.8812 C   0  0  0  0  0  0  0  0  0  0  0  0
    5.9105  -14.1813   26.2431 N   0  0  0  0  0  0  0  0  0  0  0  0
    7.0151  -13.5832   26.6956 C   0  0  0  0  0  0  0  0  0  0  0  0
    7.2096  -12.3086   27.1892 C   0  0  0  0  0  0  0  0  0  0  0  0
    8.4653  -11.9129   27.6307 C   0  0  0  0  0  0  0  0  0  0  0  0
    9.4885  -12.8382   27.5533 C   0  0  0  0  0  0  0  0  0  0  0  0
    9.2822  -14.1085   27.0572 C   0  0  0  0  0  0  0  0  0  0  0  0
    8.0403  -14.5159   26.6137 C   0  0  0  0  0  0  0  0  0  0  0  0
   10.3884  -17.9725   26.5101 C   0  0  0  0  0  0  0  0  0  0  0  0
   10.5130  -18.0800   27.8780 O   0  0  0  0  0  0  0  0  0  0  0  0
   10.8236  -18.8907   25.7930 O   0  0  0  0  0  0  0  0  0  0  0  0
  2  1  1  6
  2  3  1  0
  2  4  1  0
  4  5  1  6
  6 15  1  0
  6  4  1  0
  7  6  2  0
  8  9  1  0
  9 19  2  0
 10  9  1  0
 10 11  2  0
 11 12  1  0
 12 18  2  0
 12 13  1  0
 14 13  1  1
 14 16  1  0
 14 15  1  0
 16 20  1  0
 17 16  2  0
 19 18  1  0
 20 21  1  0
 21 32  1  0
 21 22  1  6
 23 22  1  0
 23 24  2  0
 25 24  1  0
 26 31  2  0
 26 25  1  0
 27 26  1  0
 28 29  1  0
 28 27  2  0
 29 30  2  0
 30 31  1  0
 31 23  1  0
 32 33  1  0
 34 32  2  0
M  END
$$$$
