VYW.pdb
     RDKit          3D

 34 36  0  0  1  0  0  0  0  0999 V2000
    8.6788  -20.4912   18.6925 C   0  0  0  0  0  0  0  0  0  0  0  0
    9.2301  -19.1072   19.0533 C   0  0  2  0  0  0  0  0  0  0  0  0
   10.5775  -18.8821   18.4749 C   0  0  0  0  0  0  0  0  0  0  0  0
    9.0803  -18.8970   20.5067 C   0  0  2  0  0  0  0  0  0  0  0  0
    7.7233  -19.1403   20.9578 N   0  0  0  0  0  0  0  0  0  0  0  0
    9.6109  -17.6305   21.0471 C   0  0  0  0  0  0  0  0  0  0  0  0
   10.7920  -17.2520   20.9321 O   0  0  0  0  0  0  0  0  0  0  0  0
    7.9754  -13.3204   16.2379 O   0  0  0  0  0  0  0  0  0  0  0  0
    8.0162  -13.6259   17.5936 C   0  0  0  0  0  0  0  0  0  0  0  0
    7.0582  -13.0968   18.4514 C   0  0  0  0  0  0  0  0  0  0  0  0
    7.0686  -13.3795   19.8049 C   0  0  0  0  0  0  0  0  0  0  0  0
    8.0287  -14.1998   20.3737 C   0  0  0  0  0  0  0  0  0  0  0  0
    8.0479  -14.5063   21.8204 C   0  0  0  0  0  0  0  0  0  0  0  0
    9.1264  -15.4509   22.2521 C   0  0  2  0  0  0  0  0  0  0  0  0
    8.7154  -16.7774   21.7509 N   0  0  0  0  0  0  0  0  0  0  0  0
    9.1929  -15.4721   23.7369 C   0  0  0  0  0  0  0  0  0  0  0  0
    8.2849  -14.8510   24.3577 O   0  0  0  0  0  0  0  0  0  0  0  0
    8.9800  -14.7220   19.5062 C   0  0  0  0  0  0  0  0  0  0  0  0
    8.9703  -14.4414   18.1599 C   0  0  0  0  0  0  0  0  0  0  0  0
   10.2141  -16.1459   24.4448 N   0  0  0  0  0  0  0  0  0  0  0  0
   10.2146  -16.0925   25.9046 C   0  0  1  0  0  0  0  0  0  0  0  0
    8.9090  -16.5373   26.4561 C   0  0  0  0  0  0  0  0  0  0  0  0
    7.8544  -15.5182   26.3103 C   0  0  0  0  0  0  0  0  0  0  0  0
    6.5687  -15.7064   25.7756 C   0  0  0  0  0  0  0  0  0  0  0  0
    5.9171  -14.5334   25.7630 N   0  0  0  0  0  0  0  0  0  0  0  0
    6.6994  -13.5734   26.2619 C   0  0  0  0  0  0  0  0  0  0  0  0
    6.4565  -12.2292   26.4625 C   0  0  0  0  0  0  0  0  0  0  0  0
    7.4315  -11.4184   27.0286 C   0  0  0  0  0  0  0  0  0  0  0  0
    8.6309  -12.0109   27.3739 C   0  0  0  0  0  0  0  0  0  0  0  0
    8.8624  -13.3549   27.1677 C   0  0  0  0  0  0  0  0  0  0  0  0
    7.9037  -14.1731   26.6051 C   0  0  0  0  0  0  0  0  0  0  0  0
   11.3452  -16.8169   26.4868 C   0  0  0  0  0  0  0  0  0  0  0  0
   12.2790  -17.4124   25.6673 O   0  0  0  0  0  0  0  0  0  0  0  0
   11.4828  -16.9071   27.7195 O   0  0  0  0  0  0  0  0  0  0  0  0
  2  1  1  1
  2  3  1  0
  2  4  1  0
  4  5  1  6
  6 15  1  0
  6  4  1  0
  7  6  2  0
  8  9  1  0
  9 19  2  0
 10  9  1  0
 10 11  2  0
 11 12  1  0
 12 18  2  0
 12 13  1  0
 14 13  1  1
 14 16  1  0
 14 15  1  0
 16 20  1  0
 17 16  2  0
 19 18  1  0
 20 21  1  0
 21 32  1  0
 21 22  1  1
 23 22  1  0
 23 24  2  0
 25 24  1  0
 26 31  2  0
 26 25  1  0
 27 26  1  0
 28 29  1  0
 28 27  2  0
 29 30  2  0
 30 31  1  0
 31 23  1  0
 32 33  1  0
 34 32  2  0
M  END
$$$$
