VYW.pdb
     RDKit          3D

 34 36  0  0  1  0  0  0  0  0999 V2000
    7.0135  -13.9721   20.7825 C   0  0  0  0  0  0  0  0  0  0  0  0
    8.1754  -13.2006   20.1467 C   0  0  2  0  0  0  0  0  0  0  0  0
    7.6969  -12.0712   19.3124 C   0  0  0  0  0  0  0  0  0  0  0  0
    9.0959  -14.1626   19.5092 C   0  0  2  0  0  0  0  0  0  0  0  0
    8.5638  -14.6877   18.2661 N   0  0  0  0  0  0  0  0  0  0  0  0
    9.6224  -15.2397   20.3698 C   0  0  0  0  0  0  0  0  0  0  0  0
    9.3735  -16.4508   20.2191 O   0  0  0  0  0  0  0  0  0  0  0  0
   15.1318  -16.3584   17.2575 O   0  0  0  0  0  0  0  0  0  0  0  0
   14.5078  -16.1945   18.4891 C   0  0  0  0  0  0  0  0  0  0  0  0
   14.2185  -14.9162   18.9535 C   0  0  0  0  0  0  0  0  0  0  0  0
   13.5987  -14.7163   20.1733 C   0  0  0  0  0  0  0  0  0  0  0  0
   13.2360  -15.7732   20.9917 C   0  0  0  0  0  0  0  0  0  0  0  0
   12.5739  -15.5682   22.2982 C   0  0  0  0  0  0  0  0  0  0  0  0
   11.1103  -15.8832   22.3214 C   0  0  2  0  0  0  0  0  0  0  0  0
   10.4742  -14.8755   21.4499 N   0  0  0  0  0  0  0  0  0  0  0  0
   10.6011  -15.7408   23.7107 C   0  0  0  0  0  0  0  0  0  0  0  0
   10.7436  -14.6112   24.2578 O   0  0  0  0  0  0  0  0  0  0  0  0
   13.5303  -17.0450   20.5163 C   0  0  0  0  0  0  0  0  0  0  0  0
   14.1466  -17.2447   19.3032 C   0  0  0  0  0  0  0  0  0  0  0  0
    9.9847  -16.8037   24.4094 N   0  0  0  0  0  0  0  0  0  0  0  0
    9.9417  -16.7583   25.8689 C   0  0  1  0  0  0  0  0  0  0  0  0
    8.5486  -16.8916   26.3668 C   0  0  0  0  0  0  0  0  0  0  0  0
    7.6410  -15.8835   25.7909 C   0  0  0  0  0  0  0  0  0  0  0  0
    6.7136  -16.0790   24.7535 C   0  0  0  0  0  0  0  0  0  0  0  0
    6.1097  -14.9142   24.4725 N   0  0  0  0  0  0  0  0  0  0  0  0
    6.5842  -13.9526   25.2680 C   0  0  0  0  0  0  0  0  0  0  0  0
    6.2545  -12.6148   25.3567 C   0  0  0  0  0  0  0  0  0  0  0  0
    6.8767  -11.8011   26.2944 C   0  0  0  0  0  0  0  0  0  0  0  0
    7.8216  -12.3842   27.1167 C   0  0  0  0  0  0  0  0  0  0  0  0
    8.1434  -13.7218   27.0179 C   0  0  0  0  0  0  0  0  0  0  0  0
    7.5346  -14.5427   26.0903 C   0  0  0  0  0  0  0  0  0  0  0  0
   10.8515  -17.7270   26.4819 C   0  0  0  0  0  0  0  0  0  0  0  0
   11.0197  -17.7464   27.8493 O   0  0  0  0  0  0  0  0  0  0  0  0
   11.4829  -18.5426   25.7871 O   0  0  0  0  0  0  0  0  0  0  0  0
  2  1  1  6
  2  3  1  0
  2  4  1  0
  4  5  1  6
  6 15  1  0
  6  4  1  0
  7  6  2  0
  8  9  1  0
  9 19  2  0
 10  9  1  0
 10 11  2  0
 11 12  1  0
 12 18  2  0
 12 13  1  0
 14 13  1  1
 14 16  1  0
 14 15  1  0
 16 20  1  0
 17 16  2  0
 19 18  1  0
 20 21  1  0
 21 32  1  0
 21 22  1  6
 23 22  1  0
 23 24  2  0
 25 24  1  0
 26 31  2  0
 26 25  1  0
 27 26  1  0
 28 29  1  0
 28 27  2  0
 29 30  2  0
 30 31  1  0
 31 23  1  0
 32 33  1  0
 34 32  2  0
M  END
$$$$
