VYW.pdb
     RDKit          3D

 34 36  0  0  1  0  0  0  0  0999 V2000
    7.9869  -12.4565   18.7925 C   0  0  0  0  0  0  0  0  0  0  0  0
    8.1571  -13.3965   19.9912 C   0  0  2  0  0  0  0  0  0  0  0  0
    8.9040  -12.7500   21.0978 C   0  0  0  0  0  0  0  0  0  0  0  0
    8.6631  -14.6973   19.5104 C   0  0  2  0  0  0  0  0  0  0  0  0
    7.9216  -15.1822   18.3618 N   0  0  0  0  0  0  0  0  0  0  0  0
    8.8366  -15.7529   20.5270 C   0  0  0  0  0  0  0  0  0  0  0  0
    7.9348  -16.5230   20.9080 O   0  0  0  0  0  0  0  0  0  0  0  0
   10.9642  -21.1185   17.1749 O   0  0  0  0  0  0  0  0  0  0  0  0
   11.1452  -20.2500   18.2455 C   0  0  0  0  0  0  0  0  0  0  0  0
   10.7305  -20.6252   19.5186 C   0  0  0  0  0  0  0  0  0  0  0  0
   10.8950  -19.7867   20.6058 C   0  0  0  0  0  0  0  0  0  0  0  0
   11.4779  -18.5362   20.4839 C   0  0  0  0  0  0  0  0  0  0  0  0
   11.6564  -17.6327   21.6411 C   0  0  0  0  0  0  0  0  0  0  0  0
   10.4067  -16.9576   22.1146 C   0  0  2  0  0  0  0  0  0  0  0  0
   10.1220  -15.9064   21.1178 N   0  0  0  0  0  0  0  0  0  0  0  0
   10.6581  -16.3379   23.4421 C   0  0  0  0  0  0  0  0  0  0  0  0
   11.6750  -15.5951   23.5418 O   0  0  0  0  0  0  0  0  0  0  0  0
   11.8878  -18.1734   19.2070 C   0  0  0  0  0  0  0  0  0  0  0  0
   11.7248  -19.0068   18.1252 C   0  0  0  0  0  0  0  0  0  0  0  0
    9.8162  -16.5549   24.5566 N   0  0  0  0  0  0  0  0  0  0  0  0
   10.3534  -16.3453   25.8987 C   0  0  1  0  0  0  0  0  0  0  0  0
    9.9353  -15.0275   26.4419 C   0  0  0  0  0  0  0  0  0  0  0  0
    8.4818  -14.8064   26.3390 C   0  0  0  0  0  0  0  0  0  0  0  0
    7.4986  -15.7750   26.0755 C   0  0  0  0  0  0  0  0  0  0  0  0
    6.2972  -15.1811   26.0079 N   0  0  0  0  0  0  0  0  0  0  0  0
    6.4269  -13.8682   26.2133 C   0  0  0  0  0  0  0  0  0  0  0  0
    5.4777  -12.8666   26.2550 C   0  0  0  0  0  0  0  0  0  0  0  0
    5.8546  -11.5552   26.5133 C   0  0  0  0  0  0  0  0  0  0  0  0
    7.1978  -11.3079   26.7222 C   0  0  0  0  0  0  0  0  0  0  0  0
    8.1371  -12.3168   26.6769 C   0  0  0  0  0  0  0  0  0  0  0  0
    7.7781  -13.6245   26.4202 C   0  0  0  0  0  0  0  0  0  0  0  0
   10.0357  -17.4510   26.8033 C   0  0  0  0  0  0  0  0  0  0  0  0
   10.5807  -17.4863   28.0682 O   0  0  0  0  0  0  0  0  0  0  0  0
    9.2754  -18.3699   26.4506 O   0  0  0  0  0  0  0  0  0  0  0  0
  2  1  1  6
  2  3  1  0
  2  4  1  0
  4  5  1  6
  6 15  1  0
  6  4  1  0
  7  6  2  0
  8  9  1  0
  9 19  2  0
 10  9  1  0
 10 11  2  0
 11 12  1  0
 12 18  2  0
 12 13  1  0
 14 13  1  6
 14 16  1  0
 14 15  1  0
 16 20  1  0
 17 16  2  0
 19 18  1  0
 20 21  1  0
 21 32  1  0
 21 22  1  1
 23 22  1  0
 23 24  2  0
 25 24  1  0
 26 31  2  0
 26 25  1  0
 27 26  1  0
 28 29  1  0
 28 27  2  0
 29 30  2  0
 30 31  1  0
 31 23  1  0
 32 33  1  0
 34 32  2  0
M  END
$$$$
