VYW.pdb
     RDKit          3D

 34 36  0  0  1  0  0  0  0  0999 V2000
    5.5455  -14.4009   26.3048 C   0  0  0  0  0  0  0  0  0  0  0  0
    6.8903  -14.8916   25.7571 C   0  0  2  0  0  0  0  0  0  0  0  0
    7.8819  -13.7923   25.6625 C   0  0  0  0  0  0  0  0  0  0  0  0
    6.6484  -15.6837   24.5351 C   0  0  2  0  0  0  0  0  0  0  0  0
    5.6481  -16.7140   24.7400 N   0  0  0  0  0  0  0  0  0  0  0  0
    7.8412  -16.2169   23.8490 C   0  0  0  0  0  0  0  0  0  0  0  0
    8.1402  -17.4244   23.7858 O   0  0  0  0  0  0  0  0  0  0  0  0
    6.7755  -14.4600   16.9965 O   0  0  0  0  0  0  0  0  0  0  0  0
    7.6211  -14.5325   18.0978 C   0  0  0  0  0  0  0  0  0  0  0  0
    8.0069  -13.3676   18.7518 C   0  0  0  0  0  0  0  0  0  0  0  0
    8.8465  -13.4026   19.8499 C   0  0  0  0  0  0  0  0  0  0  0  0
    9.3444  -14.5932   20.3527 C   0  0  0  0  0  0  0  0  0  0  0  0
   10.2438  -14.6395   21.5259 C   0  0  0  0  0  0  0  0  0  0  0  0
    9.9406  -15.7244   22.5122 C   0  0  2  0  0  0  0  0  0  0  0  0
    8.7156  -15.2915   23.2135 N   0  0  0  0  0  0  0  0  0  0  0  0
   11.0633  -15.8333   23.4804 C   0  0  0  0  0  0  0  0  0  0  0  0
   11.8857  -14.8750   23.5106 O   0  0  0  0  0  0  0  0  0  0  0  0
    8.9515  -15.7497   19.6906 C   0  0  0  0  0  0  0  0  0  0  0  0
    8.1163  -15.7158   18.5984 C   0  0  0  0  0  0  0  0  0  0  0  0
   11.2269  -16.9463   24.3361 N   0  0  0  0  0  0  0  0  0  0  0  0
   12.3123  -16.9319   25.3137 C   0  0  1  0  0  0  0  0  0  0  0  0
   12.2091  -15.7512   26.2093 C   0  0  0  0  0  0  0  0  0  0  0  0
   11.0237  -15.8036   27.0833 C   0  0  0  0  0  0  0  0  0  0  0  0
   10.6301  -16.8722   27.9065 C   0  0  0  0  0  0  0  0  0  0  0  0
    9.4712  -16.5650   28.5090 N   0  0  0  0  0  0  0  0  0  0  0  0
    9.0716  -15.3480   28.1322 C   0  0  0  0  0  0  0  0  0  0  0  0
    7.9630  -14.6118   28.4997 C   0  0  0  0  0  0  0  0  0  0  0  0
    7.7674  -13.3367   27.9855 C   0  0  0  0  0  0  0  0  0  0  0  0
    8.7171  -12.8517   27.1069 C   0  0  0  0  0  0  0  0  0  0  0  0
    9.8201  -13.5971   26.7464 C   0  0  0  0  0  0  0  0  0  0  0  0
   10.0274  -14.8661   27.2480 C   0  0  0  0  0  0  0  0  0  0  0  0
   12.4101  -18.1905   26.0541 C   0  0  0  0  0  0  0  0  0  0  0  0
   11.5267  -19.2152   25.7932 O   0  0  0  0  0  0  0  0  0  0  0  0
   13.2837  -18.3569   26.9234 O   0  0  0  0  0  0  0  0  0  0  0  0
  2  1  1  6
  2  3  1  0
  2  4  1  0
  4  5  1  1
  6 15  1  0
  6  4  1  0
  7  6  2  0
  8  9  1  0
  9 19  2  0
 10  9  1  0
 10 11  2  0
 11 12  1  0
 12 18  2  0
 12 13  1  0
 14 13  1  6
 14 16  1  0
 14 15  1  0
 16 20  1  0
 17 16  2  0
 19 18  1  0
 20 21  1  0
 21 32  1  0
 21 22  1  1
 23 22  1  0
 23 24  2  0
 25 24  1  0
 26 31  2  0
 26 25  1  0
 27 26  1  0
 28 29  1  0
 28 27  2  0
 29 30  2  0
 30 31  1  0
 31 23  1  0
 32 33  1  0
 34 32  2  0
M  END
$$$$
