VYW.pdb
     RDKit          3D

 34 36  0  0  1  0  0  0  0  0999 V2000
    7.3029  -12.4055   19.1095 C   0  0  0  0  0  0  0  0  0  0  0  0
    7.7502  -13.3868   20.1987 C   0  0  2  0  0  0  0  0  0  0  0  0
    7.9514  -12.7094   21.5030 C   0  0  0  0  0  0  0  0  0  0  0  0
    8.8725  -14.1949   19.6823 C   0  0  2  0  0  0  0  0  0  0  0  0
    8.5904  -14.7486   18.3716 N   0  0  0  0  0  0  0  0  0  0  0  0
    9.4225  -15.2167   20.5940 C   0  0  0  0  0  0  0  0  0  0  0  0
    9.1117  -16.4228   20.5747 O   0  0  0  0  0  0  0  0  0  0  0  0
   14.8763  -15.6344   17.0278 O   0  0  0  0  0  0  0  0  0  0  0  0
   14.3184  -15.5808   18.3001 C   0  0  0  0  0  0  0  0  0  0  0  0
   14.0537  -14.3489   18.8883 C   0  0  0  0  0  0  0  0  0  0  0  0
   13.4994  -14.2583   20.1518 C   0  0  0  0  0  0  0  0  0  0  0  0
   13.1807  -15.3839   20.8934 C   0  0  0  0  0  0  0  0  0  0  0  0
   12.5887  -15.2961   22.2459 C   0  0  0  0  0  0  0  0  0  0  0  0
   11.1714  -15.7682   22.3473 C   0  0  2  0  0  0  0  0  0  0  0  0
   10.3747  -14.8012   21.5664 N   0  0  0  0  0  0  0  0  0  0  0  0
   10.7462  -15.7375   23.7713 C   0  0  0  0  0  0  0  0  0  0  0  0
   10.9689  -14.6710   24.4105 O   0  0  0  0  0  0  0  0  0  0  0  0
   13.4497  -16.6083   20.2947 C   0  0  0  0  0  0  0  0  0  0  0  0
   14.0010  -16.6992   19.0380 C   0  0  0  0  0  0  0  0  0  0  0  0
   10.1220  -16.8364   24.4045 N   0  0  0  0  0  0  0  0  0  0  0  0
    9.9378  -16.8051   25.8533 C   0  0  1  0  0  0  0  0  0  0  0  0
    8.5266  -17.0907   26.2187 C   0  0  0  0  0  0  0  0  0  0  0  0
    7.5935  -16.0610   25.7277 C   0  0  0  0  0  0  0  0  0  0  0  0
    6.6275  -16.2115   24.7184 C   0  0  0  0  0  0  0  0  0  0  0  0
    6.0087  -15.0379   24.5177 N   0  0  0  0  0  0  0  0  0  0  0  0
    6.5099  -14.1132   25.3400 C   0  0  0  0  0  0  0  0  0  0  0  0
    6.1788  -12.7832   25.5061 C   0  0  0  0  0  0  0  0  0  0  0  0
    6.8337  -12.0122   26.4576 C   0  0  0  0  0  0  0  0  0  0  0  0
    7.8119  -12.6290   27.2138 C   0  0  0  0  0  0  0  0  0  0  0  0
    8.1347  -13.9584   27.0379 C   0  0  0  0  0  0  0  0  0  0  0  0
    7.4936  -14.7369   26.0957 C   0  0  0  0  0  0  0  0  0  0  0  0
   10.8851  -17.6742   26.5527 C   0  0  0  0  0  0  0  0  0  0  0  0
   10.9475  -17.6607   27.9290 O   0  0  0  0  0  0  0  0  0  0  0  0
   11.6434  -18.4335   25.9241 O   0  0  0  0  0  0  0  0  0  0  0  0
  2  1  1  6
  2  3  1  0
  2  4  1  0
  4  5  1  6
  6 15  1  0
  6  4  1  0
  7  6  2  0
  8  9  1  0
  9 19  2  0
 10  9  1  0
 10 11  2  0
 11 12  1  0
 12 18  2  0
 12 13  1  0
 14 13  1  1
 14 16  1  0
 14 15  1  0
 16 20  1  0
 17 16  2  0
 19 18  1  0
 20 21  1  0
 21 32  1  0
 21 22  1  6
 23 22  1  0
 23 24  2  0
 25 24  1  0
 26 31  2  0
 26 25  1  0
 27 26  1  0
 28 29  1  0
 28 27  2  0
 29 30  2  0
 30 31  1  0
 31 23  1  0
 32 33  1  0
 34 32  2  0
M  END
$$$$
