VYW.pdb
     RDKit          3D

 34 36  0  0  1  0  0  0  0  0999 V2000
    7.6161  -13.3724   20.9704 C   0  0  0  0  0  0  0  0  0  0  0  0
    8.5937  -13.3933   19.7901 C   0  0  2  0  0  0  0  0  0  0  0  0
    8.3499  -12.2707   18.8516 C   0  0  0  0  0  0  0  0  0  0  0  0
    8.6215  -14.7532   19.2164 C   0  0  2  0  0  0  0  0  0  0  0  0
    7.4985  -14.9966   18.3311 N   0  0  0  0  0  0  0  0  0  0  0  0
    8.8111  -15.8655   20.1676 C   0  0  0  0  0  0  0  0  0  0  0  0
    7.8998  -16.6097   20.5764 O   0  0  0  0  0  0  0  0  0  0  0  0
   13.2669  -22.1981   24.5372 O   0  0  0  0  0  0  0  0  0  0  0  0
   12.8419  -21.1542   23.7231 C   0  0  0  0  0  0  0  0  0  0  0  0
   13.6617  -20.0473   23.5327 C   0  0  0  0  0  0  0  0  0  0  0  0
   13.2710  -18.9914   22.7299 C   0  0  0  0  0  0  0  0  0  0  0  0
   12.0494  -18.9813   22.0773 C   0  0  0  0  0  0  0  0  0  0  0  0
   11.6232  -17.8556   21.2179 C   0  0  0  0  0  0  0  0  0  0  0  0
   10.4014  -17.1290   21.6879 C   0  0  2  0  0  0  0  0  0  0  0  0
   10.1250  -16.1097   20.6563 N   0  0  0  0  0  0  0  0  0  0  0  0
   10.6953  -16.4656   22.9853 C   0  0  0  0  0  0  0  0  0  0  0  0
   11.4071  -15.4229   22.9447 O   0  0  0  0  0  0  0  0  0  0  0  0
   11.2399  -20.0929   22.2755 C   0  0  0  0  0  0  0  0  0  0  0  0
   11.6277  -21.1435   23.0738 C   0  0  0  0  0  0  0  0  0  0  0  0
   10.2150  -16.9588   24.2198 N   0  0  0  0  0  0  0  0  0  0  0  0
   10.5421  -16.2338   25.4451 C   0  0  1  0  0  0  0  0  0  0  0  0
    9.9951  -14.8532   25.4113 C   0  0  0  0  0  0  0  0  0  0  0  0
    8.5648  -14.8005   25.7624 C   0  0  0  0  0  0  0  0  0  0  0  0
    7.6493  -15.8660   25.7301 C   0  0  0  0  0  0  0  0  0  0  0  0
    6.4315  -15.4153   26.0683 N   0  0  0  0  0  0  0  0  0  0  0  0
    6.4864  -14.1063   26.3254 C   0  0  0  0  0  0  0  0  0  0  0  0
    5.5002  -13.2261   26.7239 C   0  0  0  0  0  0  0  0  0  0  0  0
    5.8056  -11.8917   26.9577 C   0  0  0  0  0  0  0  0  0  0  0  0
    7.1172  -11.4971   26.7759 C   0  0  0  0  0  0  0  0  0  0  0  0
    8.0936  -12.3856   26.3765 C   0  0  0  0  0  0  0  0  0  0  0  0
    7.8053  -13.7143   26.1392 C   0  0  0  0  0  0  0  0  0  0  0  0
   10.1424  -16.9661   26.6476 C   0  0  0  0  0  0  0  0  0  0  0  0
    9.4623  -18.1590   26.5350 O   0  0  0  0  0  0  0  0  0  0  0  0
   10.4068  -16.5297   27.7817 O   0  0  0  0  0  0  0  0  0  0  0  0
  2  1  1  1
  2  3  1  0
  2  4  1  0
  4  5  1  1
  6 15  1  0
  6  4  1  0
  7  6  2  0
  8  9  1  0
  9 19  2  0
 10  9  1  0
 10 11  2  0
 11 12  1  0
 12 18  2  0
 12 13  1  0
 14 13  1  6
 14 16  1  0
 14 15  1  0
 16 20  1  0
 17 16  2  0
 19 18  1  0
 20 21  1  0
 21 32  1  0
 21 22  1  6
 23 22  1  0
 23 24  2  0
 25 24  1  0
 26 31  2  0
 26 25  1  0
 27 26  1  0
 28 29  1  0
 28 27  2  0
 29 30  2  0
 30 31  1  0
 31 23  1  0
 32 33  1  0
 34 32  2  0
M  END
$$$$
