VYW.pdb
     RDKit          3D

 34 36  0  0  1  0  0  0  0  0999 V2000
    7.0534  -12.4000   18.7467 C   0  0  0  0  0  0  0  0  0  0  0  0
    7.5502  -13.5062   19.6842 C   0  0  2  0  0  0  0  0  0  0  0  0
    7.6340  -13.0415   21.0905 C   0  0  0  0  0  0  0  0  0  0  0  0
    8.7645  -14.1139   19.1051 C   0  0  2  0  0  0  0  0  0  0  0  0
    8.5417  -14.6050   17.7585 N   0  0  0  0  0  0  0  0  0  0  0  0
    9.4614  -15.1140   19.9370 C   0  0  0  0  0  0  0  0  0  0  0  0
    9.3449  -16.3473   19.8067 O   0  0  0  0  0  0  0  0  0  0  0  0
   15.3201  -15.5687   17.0848 O   0  0  0  0  0  0  0  0  0  0  0  0
   14.6139  -15.4271   18.2740 C   0  0  0  0  0  0  0  0  0  0  0  0
   14.2321  -16.5559   18.9907 C   0  0  0  0  0  0  0  0  0  0  0  0
   13.5291  -16.4521   20.1769 C   0  0  0  0  0  0  0  0  0  0  0  0
   13.1703  -15.2251   20.7099 C   0  0  0  0  0  0  0  0  0  0  0  0
   12.4173  -15.1051   21.9772 C   0  0  0  0  0  0  0  0  0  0  0  0
   10.9920  -15.5588   21.9109 C   0  0  2  0  0  0  0  0  0  0  0  0
   10.3282  -14.6427   20.9623 N   0  0  0  0  0  0  0  0  0  0  0  0
   10.3732  -15.4261   23.2559 C   0  0  0  0  0  0  0  0  0  0  0  0
   10.2899  -14.2595   23.7332 O   0  0  0  0  0  0  0  0  0  0  0  0
   13.5576  -14.1053   19.9844 C   0  0  0  0  0  0  0  0  0  0  0  0
   14.2569  -14.2076   18.8046 C   0  0  0  0  0  0  0  0  0  0  0  0
    9.8946  -16.5366   23.9878 N   0  0  0  0  0  0  0  0  0  0  0  0
   10.3141  -16.7001   25.3775 C   0  0  1  0  0  0  0  0  0  0  0  0
    9.9352  -15.5176   26.1928 C   0  0  0  0  0  0  0  0  0  0  0  0
    8.5057  -15.1798   26.0726 C   0  0  0  0  0  0  0  0  0  0  0  0
    7.4698  -16.0340   25.6583 C   0  0  0  0  0  0  0  0  0  0  0  0
    6.3158  -15.3499   25.6280 N   0  0  0  0  0  0  0  0  0  0  0  0
    6.5268  -14.0855   26.0010 C   0  0  0  0  0  0  0  0  0  0  0  0
    5.6477  -13.0298   26.1385 C   0  0  0  0  0  0  0  0  0  0  0  0
    6.1029  -11.7915   26.5716 C   0  0  0  0  0  0  0  0  0  0  0  0
    7.4504  -11.6707   26.8523 C   0  0  0  0  0  0  0  0  0  0  0  0
    8.3193  -12.7324   26.7101 C   0  0  0  0  0  0  0  0  0  0  0  0
    7.8820  -13.9687   26.2796 C   0  0  0  0  0  0  0  0  0  0  0  0
    9.8383  -17.9568   25.9574 C   0  0  0  0  0  0  0  0  0  0  0  0
    9.1647  -18.8674   25.1730 O   0  0  0  0  0  0  0  0  0  0  0  0
   10.0316  -18.2234   27.1567 O   0  0  0  0  0  0  0  0  0  0  0  0
  2  1  1  6
  2  3  1  0
  2  4  1  0
  4  5  1  6
  6 15  1  0
  6  4  1  0
  7  6  2  0
  8  9  1  0
  9 19  2  0
 10  9  1  0
 10 11  2  0
 11 12  1  0
 12 18  2  0
 12 13  1  0
 14 13  1  1
 14 16  1  0
 14 15  1  0
 16 20  1  0
 17 16  2  0
 19 18  1  0
 20 21  1  0
 21 32  1  0
 21 22  1  1
 23 22  1  0
 23 24  2  0
 25 24  1  0
 26 31  2  0
 26 25  1  0
 27 26  1  0
 28 29  1  0
 28 27  2  0
 29 30  2  0
 30 31  1  0
 31 23  1  0
 32 33  1  0
 34 32  2  0
M  END
$$$$
