VYW.pdb
     RDKit          3D

 34 36  0  0  1  0  0  0  0  0999 V2000
    7.3293  -19.8706   23.4885 C   0  0  0  0  0  0  0  0  0  0  0  0
    6.3677  -18.9251   22.7600 C   0  0  2  0  0  0  0  0  0  0  0  0
    4.9856  -19.4627   22.7253 C   0  0  0  0  0  0  0  0  0  0  0  0
    6.9680  -18.5343   21.4692 C   0  0  2  0  0  0  0  0  0  0  0  0
    6.9370  -19.6148   20.5019 N   0  0  0  0  0  0  0  0  0  0  0  0
    8.2986  -17.8985   21.5273 C   0  0  0  0  0  0  0  0  0  0  0  0
    9.3680  -18.4685   21.2393 O   0  0  0  0  0  0  0  0  0  0  0  0
    7.3515  -13.4460   16.4535 O   0  0  0  0  0  0  0  0  0  0  0  0
    7.8142  -13.6565   17.7476 C   0  0  0  0  0  0  0  0  0  0  0  0
    8.8830  -14.5181   17.9689 C   0  0  0  0  0  0  0  0  0  0  0  0
    9.3688  -14.7507   19.2424 C   0  0  0  0  0  0  0  0  0  0  0  0
    8.8190  -14.1411   20.3579 C   0  0  0  0  0  0  0  0  0  0  0  0
    9.3317  -14.3852   21.7235 C   0  0  0  0  0  0  0  0  0  0  0  0
    9.6548  -15.8144   22.0312 C   0  0  2  0  0  0  0  0  0  0  0  0
    8.3717  -16.5391   21.9414 N   0  0  0  0  0  0  0  0  0  0  0  0
   10.1903  -15.9081   23.4148 C   0  0  0  0  0  0  0  0  0  0  0  0
   11.3584  -15.4667   23.6057 O   0  0  0  0  0  0  0  0  0  0  0  0
    7.7521  -13.2827   20.1235 C   0  0  0  0  0  0  0  0  0  0  0  0
    7.2683  -13.0507   18.8572 C   0  0  0  0  0  0  0  0  0  0  0  0
    9.4491  -16.4620   24.4833 N   0  0  0  0  0  0  0  0  0  0  0  0
   10.0818  -16.5807   25.7946 C   0  0  1  0  0  0  0  0  0  0  0  0
    9.6483  -15.4843   26.6982 C   0  0  0  0  0  0  0  0  0  0  0  0
    8.2488  -15.0819   26.4717 C   0  0  0  0  0  0  0  0  0  0  0  0
    7.1648  -15.9280   26.1825 C   0  0  0  0  0  0  0  0  0  0  0  0
    6.0622  -15.1874   25.9917 N   0  0  0  0  0  0  0  0  0  0  0  0
    6.3530  -13.8927   26.1392 C   0  0  0  0  0  0  0  0  0  0  0  0
    5.5470  -12.7749   26.0560 C   0  0  0  0  0  0  0  0  0  0  0  0
    6.0782  -11.5108   26.2755 C   0  0  0  0  0  0  0  0  0  0  0  0
    7.4245  -11.4288   26.5751 C   0  0  0  0  0  0  0  0  0  0  0  0
    8.2201  -12.5527   26.6543 C   0  0  0  0  0  0  0  0  0  0  0  0
    7.7068  -13.8155   26.4376 C   0  0  0  0  0  0  0  0  0  0  0  0
    9.8886  -17.9050   26.3869 C   0  0  0  0  0  0  0  0  0  0  0  0
   10.6194  -18.2796   27.4932 O   0  0  0  0  0  0  0  0  0  0  0  0
    9.0693  -18.7086   25.9076 O   0  0  0  0  0  0  0  0  0  0  0  0
  2  1  1  6
  2  3  1  0
  2  4  1  0
  4  5  1  6
  6 15  1  0
  6  4  1  0
  7  6  2  0
  8  9  1  0
  9 19  2  0
 10  9  1  0
 10 11  2  0
 11 12  1  0
 12 18  2  0
 12 13  1  0
 14 13  1  1
 14 16  1  0
 14 15  1  0
 16 20  1  0
 17 16  2  0
 19 18  1  0
 20 21  1  0
 21 32  1  0
 21 22  1  1
 23 22  1  0
 23 24  2  0
 25 24  1  0
 26 31  2  0
 26 25  1  0
 27 26  1  0
 28 29  1  0
 28 27  2  0
 29 30  2  0
 30 31  1  0
 31 23  1  0
 32 33  1  0
 34 32  2  0
M  END
$$$$
