VYW.pdb
     RDKit          3D

 34 36  0  0  1  0  0  0  0  0999 V2000
    7.8407  -12.7192   17.9680 C   0  0  0  0  0  0  0  0  0  0  0  0
    8.1103  -13.6103   19.1856 C   0  0  2  0  0  0  0  0  0  0  0  0
    8.6895  -12.8417   20.3145 C   0  0  0  0  0  0  0  0  0  0  0  0
    8.8458  -14.8120   18.7449 C   0  0  2  0  0  0  0  0  0  0  0  0
    8.2057  -15.4625   17.6175 N   0  0  0  0  0  0  0  0  0  0  0  0
    9.2094  -15.7834   19.7947 C   0  0  0  0  0  0  0  0  0  0  0  0
    8.4592  -16.6845   20.2151 O   0  0  0  0  0  0  0  0  0  0  0  0
   12.4931  -20.9147   16.9290 O   0  0  0  0  0  0  0  0  0  0  0  0
   12.4557  -19.9483   17.9279 C   0  0  0  0  0  0  0  0  0  0  0  0
   12.1773  -20.3187   19.2390 C   0  0  0  0  0  0  0  0  0  0  0  0
   12.1321  -19.3843   20.2572 C   0  0  0  0  0  0  0  0  0  0  0  0
   12.3604  -18.0380   20.0255 C   0  0  0  0  0  0  0  0  0  0  0  0
   12.3129  -17.0318   21.1084 C   0  0  0  0  0  0  0  0  0  0  0  0
   10.9389  -16.5657   21.4781 C   0  0  2  0  0  0  0  0  0  0  0  0
   10.5067  -15.6889   20.3717 N   0  0  0  0  0  0  0  0  0  0  0  0
   11.0104  -15.7848   22.7409 C   0  0  0  0  0  0  0  0  0  0  0  0
   11.2380  -14.5469   22.6343 O   0  0  0  0  0  0  0  0  0  0  0  0
   12.6376  -17.6810   18.7118 C   0  0  0  0  0  0  0  0  0  0  0  0
   12.6828  -18.6097   17.6984 C   0  0  0  0  0  0  0  0  0  0  0  0
   10.8376  -16.3756   24.0134 N   0  0  0  0  0  0  0  0  0  0  0  0
    9.8593  -15.7991   24.9325 C   0  0  1  0  0  0  0  0  0  0  0  0
    8.5958  -15.4641   24.2268 C   0  0  0  0  0  0  0  0  0  0  0  0
    7.5678  -14.9193   25.1313 C   0  0  0  0  0  0  0  0  0  0  0  0
    6.3273  -15.5003   25.4446 C   0  0  0  0  0  0  0  0  0  0  0  0
    5.6475  -14.6816   26.2620 N   0  0  0  0  0  0  0  0  0  0  0  0
    6.3689  -13.5862   26.5113 C   0  0  0  0  0  0  0  0  0  0  0  0
    6.0929  -12.4882   27.3014 C   0  0  0  0  0  0  0  0  0  0  0  0
    7.0233  -11.4651   27.4282 C   0  0  0  0  0  0  0  0  0  0  0  0
    8.2136  -11.5977   26.7392 C   0  0  0  0  0  0  0  0  0  0  0  0
    8.4776  -12.6990   25.9519 C   0  0  0  0  0  0  0  0  0  0  0  0
    7.5624  -13.7230   25.8152 C   0  0  0  0  0  0  0  0  0  0  0  0
    9.6384  -16.6413   26.1088 C   0  0  0  0  0  0  0  0  0  0  0  0
    9.7820  -18.0084   26.0157 O   0  0  0  0  0  0  0  0  0  0  0  0
    9.3205  -16.1435   27.2033 O   0  0  0  0  0  0  0  0  0  0  0  0
  2  1  1  6
  2  3  1  0
  2  4  1  0
  4  5  1  6
  6 15  1  0
  6  4  1  0
  7  6  2  0
  8  9  1  0
  9 19  2  0
 10  9  1  0
 10 11  2  0
 11 12  1  0
 12 18  2  0
 12 13  1  0
 14 13  1  6
 14 16  1  0
 14 15  1  0
 16 20  1  0
 17 16  2  0
 19 18  1  0
 20 21  1  0
 21 32  1  0
 21 22  1  6
 23 22  1  0
 23 24  2  0
 25 24  1  0
 26 31  2  0
 26 25  1  0
 27 26  1  0
 28 29  1  0
 28 27  2  0
 29 30  2  0
 30 31  1  0
 31 23  1  0
 32 33  1  0
 34 32  2  0
M  END
$$$$
