YRY.pdb
     RDKit          3D

 36 37  0  0  1  0  0  0  0  0999 V2000
    5.0612  -10.6262   26.7271 O   0  0  0  0  0  0  0  0  0  0  0  0
    5.8217  -11.7499   26.3468 C   0  0  0  0  0  0  0  0  0  0  0  0
    6.7214  -11.6620   25.3023 C   0  0  0  0  0  0  0  0  0  0  0  0
    7.4507  -12.7778   24.9541 C   0  0  0  0  0  0  0  0  0  0  0  0
    7.3160  -13.9858   25.6117 C   0  0  0  0  0  0  0  0  0  0  0  0
    8.1253  -15.1892   25.2091 C   0  0  0  0  0  0  0  0  0  0  0  0
    7.3001  -15.9212   24.1924 C   0  0  2  0  0  0  0  0  0  0  0  0
    6.2710  -16.6896   24.8627 N   0  0  0  0  0  0  0  0  0  0  0  0
    8.0927  -16.8310   23.3288 C   0  0  0  0  0  0  0  0  0  0  0  0
    8.1553  -18.0752   23.5251 O   0  0  0  0  0  0  0  0  0  0  0  0
    6.4103  -14.0380   26.6477 C   0  0  0  0  0  0  0  0  0  0  0  0
    5.6735  -12.9310   27.0082 C   0  0  0  0  0  0  0  0  0  0  0  0
    6.9371  -13.8401   18.0857 N   0  0  0  0  0  0  0  0  0  0  0  0
    8.2775  -13.3479   18.2325 C   0  0  0  0  0  0  0  0  0  0  0  0
    8.5169  -12.1040   18.4584 N   0  0  0  0  0  0  0  0  0  0  0  0
    9.3921  -14.2260   18.1319 N   0  0  0  0  0  0  0  0  0  0  0  0
    9.2356  -15.6469   18.1247 C   0  0  0  0  0  0  0  0  0  0  0  0
    8.9701  -16.2325   19.5071 C   0  0  0  0  0  0  0  0  0  0  0  0
   10.2010  -16.2214   20.3466 C   0  0  0  0  0  0  0  0  0  0  0  0
   10.0025  -16.8867   21.6831 C   0  0  2  0  0  0  0  0  0  0  0  0
    8.8034  -16.2916   22.2484 N   0  0  0  0  0  0  0  0  0  0  0  0
   11.1410  -16.8559   22.5874 C   0  0  0  0  0  0  0  0  0  0  0  0
   12.0589  -16.0055   22.4544 O   0  0  0  0  0  0  0  0  0  0  0  0
    9.5147  -11.8042   18.5009 O   0  0  0  0  0  0  0  0  0  0  0  0
   10.7079  -15.5057   31.0853 C   0  0  0  0  0  0  0  0  0  0  0  0
   10.6713  -15.7141   29.7173 C   0  0  0  0  0  0  0  0  0  0  0  0
   10.6934  -14.6138   28.8740 C   0  0  0  0  0  0  0  0  0  0  0  0
   10.6575  -14.8102   27.5171 C   0  0  0  0  0  0  0  0  0  0  0  0
   10.6001  -16.0615   26.9505 C   0  0  0  0  0  0  0  0  0  0  0  0
   10.5588  -16.3075   25.4921 C   0  0  1  0  0  0  0  0  0  0  0  0
   11.5607  -17.3235   25.0527 N   0  0  0  0  0  0  0  0  0  0  0  0
   11.3113  -17.7685   23.6805 C   0  0  0  0  0  0  0  0  0  0  0  0
   11.7415  -18.4605   25.9545 O   0  0  0  0  0  0  0  0  0  0  0  0
   11.5122  -19.7838   25.5328 C   0  0  0  0  0  0  0  0  0  0  0  0
   10.5784  -17.1570   27.8050 C   0  0  0  0  0  0  0  0  0  0  0  0
   10.6136  -16.9795   29.1661 O   0  0  0  0  0  0  0  0  0  0  0  0
  2 12  2  0
  2  1  1  0
  3  2  1  0
  4  5  1  0
  4  3  2  0
  5 11  2  0
  6  5  1  0
  7  6  1  0
  7  8  1  1
  9  7  1  0
  9 10  2  0
 11 12  1  0
 14 13  1  0
 15 14  2  0
 16 14  1  0
 17 16  1  0
 18 17  1  0
 18 19  1  0
 20 19  1  6
 20 21  1  0
 21  9  1  0
 22 20  1  0
 23 22  2  0
 24 25  1  0
 25 26  2  0
 25 35  1  0
 26 27  1  0
 27 28  2  0
 28 29  1  0
 30 29  1  6
 30 31  1  0
 31 22  1  0
 32 33  1  0
 32 30  1  0
 34 28  1  0
 35 34  2  0
 36 32  2  0
M  END
$$$$
