YRY.pdb
     RDKit          3D

 36 37  0  0  1  0  0  0  0  0999 V2000
    7.2775  -11.7375   17.1721 O   0  0  0  0  0  0  0  0  0  0  0  0
    7.5197  -12.6210   18.2429 C   0  0  0  0  0  0  0  0  0  0  0  0
    6.5802  -13.5731   18.5877 C   0  0  0  0  0  0  0  0  0  0  0  0
    6.8459  -14.4227   19.6391 C   0  0  0  0  0  0  0  0  0  0  0  0
    8.0203  -14.3586   20.3648 C   0  0  0  0  0  0  0  0  0  0  0  0
    8.2837  -15.2994   21.5098 C   0  0  0  0  0  0  0  0  0  0  0  0
    9.1370  -16.4003   20.9524 C   0  0  2  0  0  0  0  0  0  0  0  0
    8.4186  -17.0867   19.8982 N   0  0  0  0  0  0  0  0  0  0  0  0
    9.5622  -17.3938   21.9692 C   0  0  0  0  0  0  0  0  0  0  0  0
    9.3649  -18.6324   21.8369 O   0  0  0  0  0  0  0  0  0  0  0  0
    8.9346  -13.3979   19.9943 C   0  0  0  0  0  0  0  0  0  0  0  0
    8.6838  -12.5408   18.9450 C   0  0  0  0  0  0  0  0  0  0  0  0
   15.1296  -20.1555   19.4815 N   0  0  0  0  0  0  0  0  0  0  0  0
   13.8583  -19.6074   19.1024 C   0  0  0  0  0  0  0  0  0  0  0  0
   13.5670  -19.3716   17.8714 N   0  0  0  0  0  0  0  0  0  0  0  0
   12.8728  -19.3048   20.0826 N   0  0  0  0  0  0  0  0  0  0  0  0
   12.7670  -20.0455   21.3005 C   0  0  0  0  0  0  0  0  0  0  0  0
   11.6908  -19.5129   22.2401 C   0  0  0  0  0  0  0  0  0  0  0  0
   12.1470  -18.2824   22.9455 C   0  0  0  0  0  0  0  0  0  0  0  0
   11.1245  -17.7523   23.9159 C   0  0  2  0  0  0  0  0  0  0  0  0
   10.2106  -16.9436   23.1270 N   0  0  0  0  0  0  0  0  0  0  0  0
   11.6491  -17.0567   25.0802 C   0  0  0  0  0  0  0  0  0  0  0  0
   12.6954  -16.3611   25.0100 O   0  0  0  0  0  0  0  0  0  0  0  0
   12.6275  -18.9685   17.6661 O   0  0  0  0  0  0  0  0  0  0  0  0
    6.0235  -11.3000   27.8012 C   0  0  0  0  0  0  0  0  0  0  0  0
    6.8262  -12.3218   27.3240 C   0  0  0  0  0  0  0  0  0  0  0  0
    6.2404  -13.5378   27.0069 C   0  0  0  0  0  0  0  0  0  0  0  0
    7.0275  -14.5561   26.5333 C   0  0  0  0  0  0  0  0  0  0  0  0
    8.3846  -14.4237   26.3571 C   0  0  0  0  0  0  0  0  0  0  0  0
    9.2615  -15.5021   25.8500 C   0  0  1  0  0  0  0  0  0  0  0  0
   10.1957  -16.0203   26.8930 N   0  0  0  0  0  0  0  0  0  0  0  0
   11.0352  -17.1024   26.3755 C   0  0  0  0  0  0  0  0  0  0  0  0
    9.5763  -16.3914   28.1647 O   0  0  0  0  0  0  0  0  0  0  0  0
    9.0176  -17.6667   28.3720 C   0  0  0  0  0  0  0  0  0  0  0  0
    8.9610  -13.2008   26.6780 C   0  0  0  0  0  0  0  0  0  0  0  0
    8.1886  -12.1699   27.1535 O   0  0  0  0  0  0  0  0  0  0  0  0
  2 12  2  0
  2  1  1  0
  3  2  1  0
  4  5  1  0
  4  3  2  0
  5 11  2  0
  6  5  1  0
  7  6  1  0
  7  8  1  6
  9  7  1  0
  9 10  2  0
 11 12  1  0
 14 13  1  0
 15 14  2  0
 16 14  1  0
 17 16  1  0
 18 17  1  0
 18 19  1  0
 20 19  1  6
 20 21  1  0
 21  9  1  0
 22 20  1  0
 23 22  2  0
 24 25  1  0
 25 26  2  0
 25 35  1  0
 26 27  1  0
 27 28  2  0
 28 29  1  0
 30 29  1  6
 30 31  1  0
 31 22  1  0
 32 33  1  0
 32 30  1  0
 34 28  1  0
 35 34  2  0
 36 32  2  0
M  END
$$$$
