YRY.pdb
     RDKit          3D

 36 37  0  0  1  0  0  0  0  0999 V2000
    6.3846  -10.6314   27.6405 O   0  0  0  0  0  0  0  0  0  0  0  0
    6.1220  -11.7976   26.8941 C   0  0  0  0  0  0  0  0  0  0  0  0
    5.7930  -12.9763   27.5348 C   0  0  0  0  0  0  0  0  0  0  0  0
    5.5414  -14.0995   26.7779 C   0  0  0  0  0  0  0  0  0  0  0  0
    5.6059  -14.0923   25.3974 C   0  0  0  0  0  0  0  0  0  0  0  0
    5.3269  -15.3351   24.5956 C   0  0  0  0  0  0  0  0  0  0  0  0
    6.6139  -16.1053   24.5655 C   0  0  2  0  0  0  0  0  0  0  0  0
    7.5339  -15.5542   25.5395 N   0  0  0  0  0  0  0  0  0  0  0  0
    7.2706  -16.1116   23.2349 C   0  0  0  0  0  0  0  0  0  0  0  0
    7.0328  -16.9891   22.3610 O   0  0  0  0  0  0  0  0  0  0  0  0
    5.9368  -12.9008   24.7915 C   0  0  0  0  0  0  0  0  0  0  0  0
    6.1911  -11.7686   25.5344 C   0  0  0  0  0  0  0  0  0  0  0  0
    7.2896  -14.9825   16.0226 N   0  0  0  0  0  0  0  0  0  0  0  0
    8.6284  -14.4714   16.1042 C   0  0  0  0  0  0  0  0  0  0  0  0
    9.3868  -14.4017   15.0669 N   0  0  0  0  0  0  0  0  0  0  0  0
    9.1637  -14.0227   17.3434 N   0  0  0  0  0  0  0  0  0  0  0  0
    8.3600  -13.9239   18.5214 C   0  0  0  0  0  0  0  0  0  0  0  0
    9.1340  -13.4385   19.7420 C   0  0  0  0  0  0  0  0  0  0  0  0
    8.4087  -13.7533   21.0048 C   0  0  0  0  0  0  0  0  0  0  0  0
    8.9111  -15.0077   21.6698 C   0  0  2  0  0  0  0  0  0  0  0  0
    8.1943  -15.1029   22.9303 N   0  0  0  0  0  0  0  0  0  0  0  0
   10.3534  -15.1182   21.8187 C   0  0  0  0  0  0  0  0  0  0  0  0
   11.1256  -14.2213   21.3913 O   0  0  0  0  0  0  0  0  0  0  0  0
   10.3495  -14.0229   15.1971 O   0  0  0  0  0  0  0  0  0  0  0  0
   11.5335  -15.7149   30.2311 C   0  0  0  0  0  0  0  0  0  0  0  0
   11.2127  -15.7273   28.8846 C   0  0  0  0  0  0  0  0  0  0  0  0
   11.1806  -16.9423   28.2175 C   0  0  0  0  0  0  0  0  0  0  0  0
   10.8638  -16.9648   26.8834 C   0  0  0  0  0  0  0  0  0  0  0  0
   10.5736  -15.8252   26.1711 C   0  0  0  0  0  0  0  0  0  0  0  0
   10.2298  -15.8148   24.7321 C   0  0  1  0  0  0  0  0  0  0  0  0
   11.3717  -16.2337   23.8660 N   0  0  0  0  0  0  0  0  0  0  0  0
   11.0034  -16.2304   22.4491 C   0  0  0  0  0  0  0  0  0  0  0  0
   12.0200  -17.4892   24.2427 O   0  0  0  0  0  0  0  0  0  0  0  0
   11.4845  -18.7383   23.8758 C   0  0  0  0  0  0  0  0  0  0  0  0
   10.6088  -14.6131   26.8496 C   0  0  0  0  0  0  0  0  0  0  0  0
   10.9241  -14.5714   28.1853 O   0  0  0  0  0  0  0  0  0  0  0  0
  2 12  2  0
  2  1  1  0
  3  2  1  0
  4  5  1  0
  4  3  2  0
  5 11  2  0
  6  5  1  0
  7  6  1  0
  7  8  1  1
  9  7  1  0
  9 10  2  0
 11 12  1  0
 14 13  1  0
 15 14  2  0
 16 14  1  0
 17 16  1  0
 18 17  1  0
 18 19  1  0
 20 19  1  1
 20 21  1  0
 21  9  1  0
 22 20  1  0
 23 22  2  0
 24 25  1  0
 25 26  2  0
 25 35  1  0
 26 27  1  0
 27 28  2  0
 28 29  1  0
 30 29  1  6
 30 31  1  0
 31 22  1  0
 32 33  1  0
 32 30  1  0
 34 28  1  0
 35 34  2  0
 36 32  2  0
M  END
$$$$
