YRY.pdb
     RDKit          3D

 36 37  0  0  1  0  0  0  0  0999 V2000
    8.1217  -12.7852   17.2007 O   0  0  0  0  0  0  0  0  0  0  0  0
    7.9979  -13.3572   18.4826 C   0  0  0  0  0  0  0  0  0  0  0  0
    7.2226  -12.7446   19.4478 C   0  0  0  0  0  0  0  0  0  0  0  0
    7.1208  -13.3282   20.6916 C   0  0  0  0  0  0  0  0  0  0  0  0
    7.7671  -14.5071   21.0118 C   0  0  0  0  0  0  0  0  0  0  0  0
    7.6387  -15.1220   22.3796 C   0  0  0  0  0  0  0  0  0  0  0  0
    7.4995  -16.5991   22.1574 C   0  0  2  0  0  0  0  0  0  0  0  0
    6.1511  -16.9009   21.7221 N   0  0  0  0  0  0  0  0  0  0  0  0
    7.8088  -17.4115   23.3599 C   0  0  0  0  0  0  0  0  0  0  0  0
    6.9336  -17.7347   24.2084 O   0  0  0  0  0  0  0  0  0  0  0  0
    8.5315  -15.0907   20.0263 C   0  0  0  0  0  0  0  0  0  0  0  0
    8.6433  -14.5196   18.7774 C   0  0  0  0  0  0  0  0  0  0  0  0
   12.1743  -22.2341   27.5338 N   0  0  0  0  0  0  0  0  0  0  0  0
   12.9057  -22.5460   26.3388 C   0  0  0  0  0  0  0  0  0  0  0  0
   13.3298  -23.7373   26.1007 N   0  0  0  0  0  0  0  0  0  0  0  0
   13.1874  -21.5407   25.3726 N   0  0  0  0  0  0  0  0  0  0  0  0
   12.7856  -20.1815   25.5582 C   0  0  0  0  0  0  0  0  0  0  0  0
   11.2762  -20.0101   25.6887 C   0  0  0  0  0  0  0  0  0  0  0  0
   10.7004  -19.3403   24.4887 C   0  0  0  0  0  0  0  0  0  0  0  0
    9.6318  -18.3374   24.8359 C   0  0  2  0  0  0  0  0  0  0  0  0
    9.1265  -17.8408   23.5672 N   0  0  0  0  0  0  0  0  0  0  0  0
   10.0229  -17.2788   25.7531 C   0  0  0  0  0  0  0  0  0  0  0  0
   10.9595  -16.4858   25.4752 O   0  0  0  0  0  0  0  0  0  0  0  0
   13.8814  -23.8883   25.2287 O   0  0  0  0  0  0  0  0  0  0  0  0
    7.7330  -11.7773   24.0651 C   0  0  0  0  0  0  0  0  0  0  0  0
    8.0500  -12.6011   25.1313 C   0  0  0  0  0  0  0  0  0  0  0  0
    8.0550  -12.0653   26.4100 C   0  0  0  0  0  0  0  0  0  0  0  0
    8.3679  -12.8737   27.4728 C   0  0  0  0  0  0  0  0  0  0  0  0
    8.6796  -14.2046   27.3253 C   0  0  0  0  0  0  0  0  0  0  0  0
    9.0227  -15.1028   28.4498 C   0  0  2  0  0  0  0  0  0  0  0  0
    9.9680  -16.1873   28.0505 N   0  0  0  0  0  0  0  0  0  0  0  0
    9.3912  -17.0534   27.0207 C   0  0  0  0  0  0  0  0  0  0  0  0
   10.5276  -16.9715   29.1507 O   0  0  0  0  0  0  0  0  0  0  0  0
   11.2436  -16.3673   30.2014 C   0  0  0  0  0  0  0  0  0  0  0  0
    8.6716  -14.7310   26.0394 C   0  0  0  0  0  0  0  0  0  0  0  0
    8.3609  -13.9366   24.9634 O   0  0  0  0  0  0  0  0  0  0  0  0
  2 12  2  0
  2  1  1  0
  3  2  1  0
  4  5  1  0
  4  3  2  0
  5 11  2  0
  6  5  1  0
  7  6  1  0
  7  8  1  1
  9  7  1  0
  9 10  2  0
 11 12  1  0
 14 13  1  0
 15 14  2  0
 16 14  1  0
 17 16  1  0
 18 17  1  0
 18 19  1  0
 20 19  1  6
 20 21  1  0
 21  9  1  0
 22 20  1  0
 23 22  2  0
 24 25  1  0
 25 26  2  0
 25 35  1  0
 26 27  1  0
 27 28  2  0
 28 29  1  0
 30 29  1  6
 30 31  1  0
 31 22  1  0
 32 33  1  0
 32 30  1  0
 34 28  1  0
 35 34  2  0
 36 32  2  0
M  END
$$$$
