YRY.pdb
     RDKit          3D

 36 37  0  0  1  0  0  0  0  0999 V2000
   17.7876  -15.1903   16.1594 O   0  0  0  0  0  0  0  0  0  0  0  0
   16.7485  -14.8610   17.0527 C   0  0  0  0  0  0  0  0  0  0  0  0
   16.8656  -15.1546   18.3974 C   0  0  0  0  0  0  0  0  0  0  0  0
   15.8330  -14.8201   19.2458 C   0  0  0  0  0  0  0  0  0  0  0  0
   14.6806  -14.2002   18.8016 C   0  0  0  0  0  0  0  0  0  0  0  0
   13.5676  -13.8469   19.7513 C   0  0  0  0  0  0  0  0  0  0  0  0
   12.9727  -15.1509   20.1945 C   0  0  2  0  0  0  0  0  0  0  0  0
   12.3786  -15.8259   19.0586 N   0  0  0  0  0  0  0  0  0  0  0  0
   11.9466  -15.0044   21.2563 C   0  0  0  0  0  0  0  0  0  0  0  0
   12.1963  -14.4881   22.3795 O   0  0  0  0  0  0  0  0  0  0  0  0
   14.5970  -13.9223   17.4555 C   0  0  0  0  0  0  0  0  0  0  0  0
   15.6211  -14.2503   16.5941 C   0  0  0  0  0  0  0  0  0  0  0  0
    9.2075  -14.9281   16.8533 N   0  0  0  0  0  0  0  0  0  0  0  0
    8.1975  -13.9101   16.9173 C   0  0  0  0  0  0  0  0  0  0  0  0
    8.3001  -12.8170   16.2462 N   0  0  0  0  0  0  0  0  0  0  0  0
    7.0428  -14.0782   17.7308 N   0  0  0  0  0  0  0  0  0  0  0  0
    7.0721  -14.8517   18.9326 C   0  0  0  0  0  0  0  0  0  0  0  0
    8.2787  -14.5517   19.8150 C   0  0  0  0  0  0  0  0  0  0  0  0
    8.2836  -15.4054   21.0361 C   0  0  0  0  0  0  0  0  0  0  0  0
    9.5125  -15.2058   21.8835 C   0  0  2  0  0  0  0  0  0  0  0  0
   10.6440  -15.4565   21.0069 N   0  0  0  0  0  0  0  0  0  0  0  0
    9.5650  -15.9663   23.1220 C   0  0  0  0  0  0  0  0  0  0  0  0
    9.9531  -17.1632   23.1384 O   0  0  0  0  0  0  0  0  0  0  0  0
    7.5385  -12.1126   16.3512 O   0  0  0  0  0  0  0  0  0  0  0  0
    5.0316  -11.4966   26.7687 C   0  0  0  0  0  0  0  0  0  0  0  0
    6.0227  -12.4626   26.7913 C   0  0  0  0  0  0  0  0  0  0  0  0
    7.3026  -12.1150   26.3872 C   0  0  0  0  0  0  0  0  0  0  0  0
    8.2913  -13.0652   26.4061 C   0  0  0  0  0  0  0  0  0  0  0  0
    8.0677  -14.3597   26.8121 C   0  0  0  0  0  0  0  0  0  0  0  0
    9.1111  -15.4082   26.8430 C   0  0  1  0  0  0  0  0  0  0  0  0
    9.1156  -16.2501   25.6099 N   0  0  0  0  0  0  0  0  0  0  0  0
    9.1885  -15.4315   24.3983 C   0  0  0  0  0  0  0  0  0  0  0  0
    8.0416  -17.2384   25.5185 O   0  0  0  0  0  0  0  0  0  0  0  0
    7.9185  -18.2865   26.4501 C   0  0  0  0  0  0  0  0  0  0  0  0
    6.7814  -14.6970   27.2150 C   0  0  0  0  0  0  0  0  0  0  0  0
    5.7789  -13.7587   27.2025 O   0  0  0  0  0  0  0  0  0  0  0  0
  2 12  2  0
  2  1  1  0
  3  2  1  0
  4  5  1  0
  4  3  2  0
  5 11  2  0
  6  5  1  0
  7  6  1  0
  7  8  1  6
  9  7  1  0
  9 10  2  0
 11 12  1  0
 14 13  1  0
 15 14  2  0
 16 14  1  0
 17 16  1  0
 18 17  1  0
 18 19  1  0
 20 19  1  6
 20 21  1  0
 21  9  1  0
 22 20  1  0
 23 22  2  0
 24 25  1  0
 25 26  2  0
 25 35  1  0
 26 27  1  0
 27 28  2  0
 28 29  1  0
 30 29  1  1
 30 31  1  0
 31 22  1  0
 32 33  1  0
 32 30  1  0
 34 28  1  0
 35 34  2  0
 36 32  2  0
M  END
$$$$
