YRY.pdb
     RDKit          3D

 36 37  0  0  1  0  0  0  0  0999 V2000
    4.7642  -10.4104   27.3318 O   0  0  0  0  0  0  0  0  0  0  0  0
    5.5985  -11.4283   26.8281 C   0  0  0  0  0  0  0  0  0  0  0  0
    5.4711  -11.8505   25.5190 C   0  0  0  0  0  0  0  0  0  0  0  0
    6.3014  -12.8473   25.0555 C   0  0  0  0  0  0  0  0  0  0  0  0
    7.2601  -13.4433   25.8528 C   0  0  0  0  0  0  0  0  0  0  0  0
    8.1533  -14.5312   25.3200 C   0  0  0  0  0  0  0  0  0  0  0  0
    7.3014  -15.3498   24.3954 C   0  0  2  0  0  0  0  0  0  0  0  0
    6.1833  -15.9069   25.1290 N   0  0  0  0  0  0  0  0  0  0  0  0
    8.0379  -16.4538   23.7317 C   0  0  0  0  0  0  0  0  0  0  0  0
    7.4834  -17.5321   23.3850 O   0  0  0  0  0  0  0  0  0  0  0  0
    7.3597  -12.9985   27.1522 C   0  0  0  0  0  0  0  0  0  0  0  0
    6.5369  -12.0024   27.6308 C   0  0  0  0  0  0  0  0  0  0  0  0
   11.0078  -20.4438   19.7517 N   0  0  0  0  0  0  0  0  0  0  0  0
   10.2344  -20.2329   18.5610 C   0  0  0  0  0  0  0  0  0  0  0  0
   10.3848  -20.9748   17.5204 N   0  0  0  0  0  0  0  0  0  0  0  0
    9.2704  -19.1892   18.4925 N   0  0  0  0  0  0  0  0  0  0  0  0
    8.8793  -18.4457   19.6491 C   0  0  0  0  0  0  0  0  0  0  0  0
    9.7430  -17.2138   19.8961 C   0  0  0  0  0  0  0  0  0  0  0  0
    9.3146  -16.4883   21.1250 C   0  0  0  0  0  0  0  0  0  0  0  0
   10.0982  -16.8936   22.3457 C   0  0  2  0  0  0  0  0  0  0  0  0
    9.4069  -16.2980   23.4766 N   0  0  0  0  0  0  0  0  0  0  0  0
   11.5212  -16.5952   22.3195 C   0  0  0  0  0  0  0  0  0  0  0  0
   12.2884  -17.1404   21.4844 O   0  0  0  0  0  0  0  0  0  0  0  0
    9.8391  -20.7265   16.6673 O   0  0  0  0  0  0  0  0  0  0  0  0
   11.3289  -16.5528   30.9248 C   0  0  0  0  0  0  0  0  0  0  0  0
   11.2398  -16.3510   29.5583 C   0  0  0  0  0  0  0  0  0  0  0  0
   10.5606  -17.2832   28.7890 C   0  0  0  0  0  0  0  0  0  0  0  0
   10.4670  -17.0919   27.4342 C   0  0  0  0  0  0  0  0  0  0  0  0
   11.0219  -16.0062   26.7988 C   0  0  0  0  0  0  0  0  0  0  0  0
   10.9403  -15.7712   25.3403 C   0  0  2  0  0  0  0  0  0  0  0  0
   12.2603  -15.9240   24.6595 N   0  0  0  0  0  0  0  0  0  0  0  0
   12.1564  -15.6776   23.2202 C   0  0  0  0  0  0  0  0  0  0  0  0
   12.9694  -17.1732   24.9340 O   0  0  0  0  0  0  0  0  0  0  0  0
   12.4028  -18.4270   24.6365 C   0  0  0  0  0  0  0  0  0  0  0  0
   11.7003  -15.0783   27.5795 C   0  0  0  0  0  0  0  0  0  0  0  0
   11.8041  -15.2535   28.9374 O   0  0  0  0  0  0  0  0  0  0  0  0
  2 12  2  0
  2  1  1  0
  3  2  1  0
  4  5  1  0
  4  3  2  0
  5 11  2  0
  6  5  1  0
  7  6  1  0
  7  8  1  1
  9  7  1  0
  9 10  2  0
 11 12  1  0
 14 13  1  0
 15 14  2  0
 16 14  1  0
 17 16  1  0
 18 17  1  0
 18 19  1  0
 20 19  1  6
 20 21  1  0
 21  9  1  0
 22 20  1  0
 23 22  2  0
 24 25  1  0
 25 26  2  0
 25 35  1  0
 26 27  1  0
 27 28  2  0
 28 29  1  0
 30 29  1  1
 30 31  1  0
 31 22  1  0
 32 33  1  0
 32 30  1  0
 34 28  1  0
 35 34  2  0
 36 32  2  0
M  END
$$$$
