WTI.pdb
     RDKit          3D

 30 31  0  0  1  0  0  0  0  0999 V2000
   27.2677  -21.8830  -12.8311 N   0  0  0  0  0  0  0  0  0  0  0  0
   26.2613  -21.2567  -12.0182 C   0  0  1  0  0  0  0  0  0  0  0  0
   26.7846  -20.0623  -11.2551 C   0  0  0  0  0  0  0  0  0  0  0  0
   27.7901  -20.3569  -10.2474 C   0  0  0  0  0  0  0  0  0  0  0  0
   29.1105  -20.6480  -10.4674 C   0  0  0  0  0  0  0  0  0  0  0  0
   29.7092  -20.8802   -9.2979 N   0  0  0  0  0  0  0  0  0  0  0  0
   28.8244  -20.7516   -8.3048 C   0  0  0  0  0  0  0  0  0  0  0  0
   28.9740  -20.8905   -6.9213 C   0  0  0  0  0  0  0  0  0  0  0  0
   27.8729  -20.6898   -6.1227 C   0  0  0  0  0  0  0  0  0  0  0  0
   26.6542  -20.3614   -6.6567 C   0  0  0  0  0  0  0  0  0  0  0  0
   26.5411  -20.2321   -8.0291 C   0  0  0  0  0  0  0  0  0  0  0  0
   27.6191  -20.4236   -8.8876 C   0  0  0  0  0  0  0  0  0  0  0  0
   25.0490  -20.9080  -12.7674 C   0  0  0  0  0  0  0  0  0  0  0  0
   25.1553  -20.0600  -13.7143 O   0  0  0  0  0  0  0  0  0  0  0  0
   24.1257  -20.8517  -15.3508 C   0  0  0  0  0  0  0  0  0  0  0  0
   22.9206  -21.6244  -14.8490 C   0  0  1  0  0  0  0  0  0  0  0  0
   23.2830  -22.9687  -14.8059 O   0  0  0  0  0  0  0  0  0  0  0  0
   22.6215  -21.1724  -13.4239 C   0  0  2  0  0  0  0  0  0  0  0  0
   23.7471  -21.4224  -12.5536 N   0  0  0  0  0  0  0  0  0  0  0  0
   21.3682  -21.7650  -12.9236 C   0  0  0  0  0  0  0  0  0  0  0  0
   21.4783  -22.6965  -12.0502 O   0  0  0  0  0  0  0  0  0  0  0  0
   15.4358  -20.6590  -11.7741 C   0  0  0  0  0  0  0  0  0  0  0  0
   16.5785  -21.5981  -11.9354 C   0  0  0  0  0  0  0  0  0  0  0  0
   17.7958  -21.0244  -12.5781 C   0  0  2  0  0  0  0  0  0  0  0  0
   17.5322  -20.3088  -13.8601 C   0  0  0  0  0  0  0  0  0  0  0  0
   18.8797  -22.0594  -12.6806 C   0  0  2  0  0  0  0  0  0  0  0  0
   20.0577  -21.4314  -13.2874 N   0  0  0  0  0  0  0  0  0  0  0  0
   18.4679  -23.3044  -13.3245 C   0  0  0  0  0  0  0  0  0  0  0  0
   17.9459  -24.4029  -12.6636 O   0  0  0  0  0  0  0  0  0  0  0  0
   18.5789  -23.4305  -14.5767 O   0  0  0  0  0  0  0  0  0  0  0  0
  2  1  1  6
  2 13  1  0
  3  2  1  0
  3  4  1  0
  4  5  2  0
  4 12  1  0
  5  6  1  0
  6  7  1  0
  7  8  2  0
  9  8  1  0
 10  9  2  0
 11 12  2  0
 11 10  1  0
 12  7  1  0
 13 14  2  0
 16 15  1  1
 16 18  1  0
 17 16  1  0
 19 13  1  0
 18 19  1  1
 20 18  1  0
 20 21  2  0
 22 23  1  0
 23 24  1  0
 24 25  1  6
 24 26  1  0
 26 28  1  0
 26 27  1  6
 27 20  1  0
 28 30  2  0
 28 29  1  0
M  END
$$$$
