WTI.pdb
     RDKit          3D

 30 31  0  0  1  0  0  0  0  0999 V2000
   28.3253  -21.0075   -9.4190 N   0  0  0  0  0  0  0  0  0  0  0  0
   26.8938  -21.1345   -9.4303 C   0  0  1  0  0  0  0  0  0  0  0  0
   26.2361  -20.4526   -8.2533 C   0  0  0  0  0  0  0  0  0  0  0  0
   27.1187  -19.6476   -7.4251 C   0  0  0  0  0  0  0  0  0  0  0  0
   27.5924  -18.3941   -7.7095 C   0  0  0  0  0  0  0  0  0  0  0  0
   28.3901  -17.9914   -6.7186 N   0  0  0  0  0  0  0  0  0  0  0  0
   28.4605  -18.9416   -5.7818 C   0  0  0  0  0  0  0  0  0  0  0  0
   29.1561  -18.9824   -4.5693 C   0  0  0  0  0  0  0  0  0  0  0  0
   29.0376  -20.1066   -3.7867 C   0  0  0  0  0  0  0  0  0  0  0  0
   28.2606  -21.1671   -4.1738 C   0  0  0  0  0  0  0  0  0  0  0  0
   27.5862  -21.0940   -5.3791 C   0  0  0  0  0  0  0  0  0  0  0  0
   27.6679  -19.9835   -6.2134 C   0  0  0  0  0  0  0  0  0  0  0  0
   26.2857  -20.6999  -10.6928 C   0  0  0  0  0  0  0  0  0  0  0  0
   26.4951  -19.5011  -11.0750 O   0  0  0  0  0  0  0  0  0  0  0  0
   26.9597  -21.6236  -13.9849 C   0  0  0  0  0  0  0  0  0  0  0  0
   25.4488  -21.7598  -13.9862 C   0  0  1  0  0  0  0  0  0  0  0  0
   25.1576  -23.1102  -13.8076 O   0  0  0  0  0  0  0  0  0  0  0  0
   24.8985  -20.9977  -12.7857 C   0  0  2  0  0  0  0  0  0  0  0  0
   25.4781  -21.4816  -11.5542 N   0  0  0  0  0  0  0  0  0  0  0  0
   23.4248  -21.0120  -12.7693 C   0  0  0  0  0  0  0  0  0  0  0  0
   22.8643  -21.6898  -11.8372 O   0  0  0  0  0  0  0  0  0  0  0  0
   18.3252  -17.8455  -13.5061 C   0  0  0  0  0  0  0  0  0  0  0  0
   19.0213  -19.1598  -13.4645 C   0  0  0  0  0  0  0  0  0  0  0  0
   20.5073  -19.1037  -13.5755 C   0  0  2  0  0  0  0  0  0  0  0  0
   21.0063  -18.2571  -14.6977 C   0  0  0  0  0  0  0  0  0  0  0  0
   21.0933  -20.4868  -13.5611 C   0  0  2  0  0  0  0  0  0  0  0  0
   22.5518  -20.3681  -13.6550 N   0  0  0  0  0  0  0  0  0  0  0  0
   20.5045  -21.4031  -14.5346 C   0  0  0  0  0  0  0  0  0  0  0  0
   21.1456  -21.8748  -15.6670 O   0  0  0  0  0  0  0  0  0  0  0  0
   19.3240  -21.8219  -14.3688 O   0  0  0  0  0  0  0  0  0  0  0  0
  2  1  1  6
  2 13  1  0
  3  2  1  0
  3  4  1  0
  4  5  2  0
  4 12  1  0
  5  6  1  0
  6  7  1  0
  7  8  2  0
  9  8  1  0
 10  9  2  0
 11 12  2  0
 11 10  1  0
 12  7  1  0
 13 14  2  0
 16 15  1  1
 16 18  1  0
 17 16  1  0
 19 13  1  0
 18 19  1  1
 20 18  1  0
 20 21  2  0
 22 23  1  0
 23 24  1  0
 24 25  1  6
 24 26  1  0
 26 28  1  0
 26 27  1  6
 27 20  1  0
 28 30  2  0
 28 29  1  0
M  END
$$$$
