WTI.pdb
     RDKit          3D

 30 31  0  0  1  0  0  0  0  0999 V2000
   27.6543  -22.8223  -10.2281 N   0  0  0  0  0  0  0  0  0  0  0  0
   26.9678  -21.5612  -10.2897 C   0  0  1  0  0  0  0  0  0  0  0  0
   27.8696  -20.3879   -9.9844 C   0  0  0  0  0  0  0  0  0  0  0  0
   28.5742  -20.4559   -8.7148 C   0  0  0  0  0  0  0  0  0  0  0  0
   29.7669  -21.0844   -8.4717 C   0  0  0  0  0  0  0  0  0  0  0  0
   30.0815  -20.9450   -7.1826 N   0  0  0  0  0  0  0  0  0  0  0  0
   29.1317  -20.2407   -6.5602 C   0  0  0  0  0  0  0  0  0  0  0  0
   29.0173  -19.8362   -5.2264 C   0  0  0  0  0  0  0  0  0  0  0  0
   27.9150  -19.1005   -4.8600 C   0  0  0  0  0  0  0  0  0  0  0  0
   26.9460  -18.7656   -5.7694 C   0  0  0  0  0  0  0  0  0  0  0  0
   27.0901  -19.1818   -7.0804 C   0  0  0  0  0  0  0  0  0  0  0  0
   28.1827  -19.9287   -7.5100 C   0  0  0  0  0  0  0  0  0  0  0  0
   26.2518  -21.3550  -11.5536 C   0  0  0  0  0  0  0  0  0  0  0  0
   26.8379  -21.6946  -12.6343 O   0  0  0  0  0  0  0  0  0  0  0  0
   25.6254  -22.6316  -13.7519 C   0  0  0  0  0  0  0  0  0  0  0  0
   24.2053  -22.1087  -13.6469 C   0  0  1  0  0  0  0  0  0  0  0  0
   23.5063  -22.9811  -12.8160 O   0  0  0  0  0  0  0  0  0  0  0  0
   24.2464  -20.7444  -12.9676 C   0  0  2  0  0  0  0  0  0  0  0  0
   24.9529  -20.8127  -11.7094 N   0  0  0  0  0  0  0  0  0  0  0  0
   22.8962  -20.1685  -12.8355 C   0  0  0  0  0  0  0  0  0  0  0  0
   22.3921  -20.1429  -11.6575 O   0  0  0  0  0  0  0  0  0  0  0  0
   22.1954  -16.9397  -16.1592 C   0  0  0  0  0  0  0  0  0  0  0  0
   21.5583  -17.0445  -14.8188 C   0  0  0  0  0  0  0  0  0  0  0  0
   20.4785  -18.0660  -14.6987 C   0  0  2  0  0  0  0  0  0  0  0  0
   19.1010  -17.4970  -14.6368 C   0  0  0  0  0  0  0  0  0  0  0  0
   20.7803  -19.0292  -13.5862 C   0  0  2  0  0  0  0  0  0  0  0  0
   22.0879  -19.6385  -13.8489 N   0  0  0  0  0  0  0  0  0  0  0  0
   19.7159  -19.9922  -13.3148 C   0  0  0  0  0  0  0  0  0  0  0  0
   19.6619  -21.2778  -13.8252 O   0  0  0  0  0  0  0  0  0  0  0  0
   18.7535  -19.6693  -12.5626 O   0  0  0  0  0  0  0  0  0  0  0  0
  2  1  1  6
  2 13  1  0
  3  2  1  0
  3  4  1  0
  4  5  2  0
  4 12  1  0
  5  6  1  0
  6  7  1  0
  7  8  2  0
  9  8  1  0
 10  9  2  0
 11 12  2  0
 11 10  1  0
 12  7  1  0
 13 14  2  0
 16 15  1  1
 16 18  1  0
 17 16  1  0
 19 13  1  0
 18 19  1  1
 20 18  1  0
 20 21  2  0
 22 23  1  0
 23 24  1  0
 24 25  1  1
 24 26  1  0
 26 28  1  0
 26 27  1  6
 27 20  1  0
 28 30  2  0
 28 29  1  0
M  END
$$$$
