WTI.pdb
     RDKit          3D

 30 31  0  0  1  0  0  0  0  0999 V2000
   24.7084  -18.9078  -18.6191 N   0  0  0  0  0  0  0  0  0  0  0  0
   24.7635  -18.4873  -17.2458 C   0  0  1  0  0  0  0  0  0  0  0  0
   23.7492  -17.4157  -16.9204 C   0  0  0  0  0  0  0  0  0  0  0  0
   24.0630  -16.0869  -17.4190 C   0  0  0  0  0  0  0  0  0  0  0  0
   23.3608  -15.3757  -18.3559 C   0  0  0  0  0  0  0  0  0  0  0  0
   23.9696  -14.2074  -18.5668 N   0  0  0  0  0  0  0  0  0  0  0  0
   25.0577  -14.1202  -17.7961 C   0  0  0  0  0  0  0  0  0  0  0  0
   26.0044  -13.0998  -17.6603 C   0  0  0  0  0  0  0  0  0  0  0  0
   27.0361  -13.2814  -16.7698 C   0  0  0  0  0  0  0  0  0  0  0  0
   27.1451  -14.4287  -16.0280 C   0  0  0  0  0  0  0  0  0  0  0  0
   26.1917  -15.4180  -16.1869 C   0  0  0  0  0  0  0  0  0  0  0  0
   25.1261  -15.2915  -17.0726 C   0  0  0  0  0  0  0  0  0  0  0  0
   24.6689  -19.6020  -16.2966 C   0  0  0  0  0  0  0  0  0  0  0  0
   24.2737  -20.7312  -16.7390 O   0  0  0  0  0  0  0  0  0  0  0  0
   25.9983  -21.8204  -16.1644 C   0  0  0  0  0  0  0  0  0  0  0  0
   26.2979  -21.6129  -14.6918 C   0  0  1  0  0  0  0  0  0  0  0  0
   27.4995  -20.9130  -14.6114 O   0  0  0  0  0  0  0  0  0  0  0  0
   25.2017  -20.7342  -14.0994 C   0  0  2  0  0  0  0  0  0  0  0  0
   24.9782  -19.5632  -14.9152 N   0  0  0  0  0  0  0  0  0  0  0  0
   25.4791  -20.4055  -12.6897 C   0  0  0  0  0  0  0  0  0  0  0  0
   25.9824  -19.2505  -12.4545 O   0  0  0  0  0  0  0  0  0  0  0  0
   23.7007  -21.0024   -6.8958 C   0  0  0  0  0  0  0  0  0  0  0  0
   24.7169  -20.6228   -7.9140 C   0  0  0  0  0  0  0  0  0  0  0  0
   24.4628  -21.1269   -9.2943 C   0  0  2  0  0  0  0  0  0  0  0  0
   24.0609  -22.5620   -9.3581 C   0  0  0  0  0  0  0  0  0  0  0  0
   25.6078  -20.7836  -10.2040 C   0  0  2  0  0  0  0  0  0  0  0  0
   25.2568  -21.2071  -11.5632 N   0  0  0  0  0  0  0  0  0  0  0  0
   26.9091  -21.2639   -9.7457 C   0  0  0  0  0  0  0  0  0  0  0  0
   27.6882  -20.6445   -8.7837 O   0  0  0  0  0  0  0  0  0  0  0  0
   27.3973  -22.3205  -10.2373 O   0  0  0  0  0  0  0  0  0  0  0  0
  2  1  1  6
  2 13  1  0
  3  2  1  0
  3  4  1  0
  4  5  2  0
  4 12  1  0
  5  6  1  0
  6  7  1  0
  7  8  2  0
  9  8  1  0
 10  9  2  0
 11 12  2  0
 11 10  1  0
 12  7  1  0
 13 14  2  0
 16 15  1  6
 16 18  1  0
 17 16  1  0
 19 13  1  0
 18 19  1  6
 20 18  1  0
 20 21  2  0
 22 23  1  0
 23 24  1  0
 24 25  1  1
 24 26  1  0
 26 28  1  0
 26 27  1  6
 27 20  1  0
 28 30  2  0
 28 29  1  0
M  END
$$$$
