WTI.pdb
     RDKit          3D

 30 31  0  0  1  0  0  0  0  0999 V2000
   27.7262  -22.5466  -13.5626 N   0  0  0  0  0  0  0  0  0  0  0  0
   26.6455  -21.8220  -12.9520 C   0  0  1  0  0  0  0  0  0  0  0  0
   27.0654  -20.4625  -12.4438 C   0  0  0  0  0  0  0  0  0  0  0  0
   27.9403  -20.4728  -11.2829 C   0  0  0  0  0  0  0  0  0  0  0  0
   29.2836  -20.7411  -11.2710 C   0  0  0  0  0  0  0  0  0  0  0  0
   29.7332  -20.6740  -10.0166 N   0  0  0  0  0  0  0  0  0  0  0  0
   28.7268  -20.3680   -9.1925 C   0  0  0  0  0  0  0  0  0  0  0  0
   28.7018  -20.1838   -7.8065 C   0  0  0  0  0  0  0  0  0  0  0  0
   27.5042  -19.8622   -7.2126 C   0  0  0  0  0  0  0  0  0  0  0  0
   26.3570  -19.7226   -7.9492 C   0  0  0  0  0  0  0  0  0  0  0  0
   26.4168  -19.9119   -9.3179 C   0  0  0  0  0  0  0  0  0  0  0  0
   27.5990  -20.2393   -9.9746 C   0  0  0  0  0  0  0  0  0  0  0  0
   25.4627  -21.7155  -13.8134 C   0  0  0  0  0  0  0  0  0  0  0  0
   25.5907  -21.1168  -14.9324 O   0  0  0  0  0  0  0  0  0  0  0  0
   24.6449  -22.1017  -16.3766 C   0  0  0  0  0  0  0  0  0  0  0  0
   23.4785  -22.8750  -15.7910 C   0  0  1  0  0  0  0  0  0  0  0  0
   23.9400  -24.1564  -15.4990 O   0  0  0  0  0  0  0  0  0  0  0  0
   23.0743  -22.2109  -14.4794 C   0  0  2  0  0  0  0  0  0  0  0  0
   24.1681  -22.2179  -13.5359 N   0  0  0  0  0  0  0  0  0  0  0  0
   21.8424  -22.8070  -13.9322 C   0  0  0  0  0  0  0  0  0  0  0  0
   21.9859  -23.6807  -13.0056 O   0  0  0  0  0  0  0  0  0  0  0  0
   16.8013  -23.1291  -11.4973 C   0  0  0  0  0  0  0  0  0  0  0  0
   17.0708  -22.9354  -12.9476 C   0  0  0  0  0  0  0  0  0  0  0  0
   18.3609  -22.2640  -13.2774 C   0  0  2  0  0  0  0  0  0  0  0  0
   18.2236  -21.0798  -14.1739 C   0  0  0  0  0  0  0  0  0  0  0  0
   19.3730  -23.2652  -13.7568 C   0  0  2  0  0  0  0  0  0  0  0  0
   20.5200  -22.5326  -14.3026 N   0  0  0  0  0  0  0  0  0  0  0  0
   18.8356  -24.2869  -14.6520 C   0  0  0  0  0  0  0  0  0  0  0  0
   18.9703  -24.2832  -16.0296 O   0  0  0  0  0  0  0  0  0  0  0  0
   18.1937  -25.2651  -14.1752 O   0  0  0  0  0  0  0  0  0  0  0  0
  2  1  1  6
  2 13  1  0
  3  2  1  0
  3  4  1  0
  4  5  2  0
  4 12  1  0
  5  6  1  0
  6  7  1  0
  7  8  2  0
  9  8  1  0
 10  9  2  0
 11 12  2  0
 11 10  1  0
 12  7  1  0
 13 14  2  0
 16 15  1  1
 16 18  1  0
 17 16  1  0
 19 13  1  0
 18 19  1  1
 20 18  1  0
 20 21  2  0
 22 23  1  0
 23 24  1  0
 24 25  1  6
 24 26  1  0
 26 28  1  0
 26 27  1  6
 27 20  1  0
 28 30  2  0
 28 29  1  0
M  END
$$$$
