WTI.pdb
     RDKit          3D

 30 31  0  0  1  0  0  0  0  0999 V2000
   24.7742  -21.3735  -14.3352 N   0  0  0  0  0  0  0  0  0  0  0  0
   24.6038  -20.9198  -12.9821 C   0  0  1  0  0  0  0  0  0  0  0  0
   23.1951  -21.1152  -12.4719 C   0  0  0  0  0  0  0  0  0  0  0  0
   22.1538  -20.4624  -13.2482 C   0  0  0  0  0  0  0  0  0  0  0  0
   22.1949  -19.1989  -13.7759 C   0  0  0  0  0  0  0  0  0  0  0  0
   21.0450  -18.9486  -14.4046 N   0  0  0  0  0  0  0  0  0  0  0  0
   20.2392  -20.0104  -14.3108 C   0  0  0  0  0  0  0  0  0  0  0  0
   18.9498  -20.2281  -14.8064 C   0  0  0  0  0  0  0  0  0  0  0  0
   18.3524  -21.4417  -14.5599 C   0  0  0  0  0  0  0  0  0  0  0  0
   18.9937  -22.4214  -13.8478 C   0  0  0  0  0  0  0  0  0  0  0  0
   20.2683  -22.1731  -13.3718 C   0  0  0  0  0  0  0  0  0  0  0  0
   20.9233  -20.9649  -13.5889 C   0  0  0  0  0  0  0  0  0  0  0  0
   25.5811  -21.4970  -12.0524 C   0  0  0  0  0  0  0  0  0  0  0  0
   26.3229  -22.4437  -12.4774 O   0  0  0  0  0  0  0  0  0  0  0  0
   28.0695  -21.1675  -12.2971 C   0  0  0  0  0  0  0  0  0  0  0  0
   28.1808  -20.5766  -10.9044 C   0  0  1  0  0  0  0  0  0  0  0  0
   27.9403  -19.2093  -11.0175 O   0  0  0  0  0  0  0  0  0  0  0  0
   27.0781  -21.1777  -10.0398 C   0  0  2  0  0  0  0  0  0  0  0  0
   25.7993  -21.1086  -10.7082 N   0  0  0  0  0  0  0  0  0  0  0  0
   27.0560  -20.5701   -8.6972 C   0  0  0  0  0  0  0  0  0  0  0  0
   26.0870  -19.7714   -8.4409 O   0  0  0  0  0  0  0  0  0  0  0  0
   29.5984  -20.7213   -3.0111 C   0  0  0  0  0  0  0  0  0  0  0  0
   28.6403  -20.2074   -4.0267 C   0  0  0  0  0  0  0  0  0  0  0  0
   28.8528  -20.7003   -5.4180 C   0  0  2  0  0  0  0  0  0  0  0  0
   30.2601  -20.5879   -5.8994 C   0  0  0  0  0  0  0  0  0  0  0  0
   27.8479  -20.0936   -6.3554 C   0  0  2  0  0  0  0  0  0  0  0  0
   27.9719  -20.7608   -7.6552 N   0  0  0  0  0  0  0  0  0  0  0  0
   27.8903  -18.6351   -6.4259 C   0  0  0  0  0  0  0  0  0  0  0  0
   27.3110  -17.7804   -5.5039 O   0  0  0  0  0  0  0  0  0  0  0  0
   28.4906  -18.0698   -7.3831 O   0  0  0  0  0  0  0  0  0  0  0  0
  2  1  1  6
  2 13  1  0
  3  2  1  0
  3  4  1  0
  4  5  2  0
  4 12  1  0
  5  6  1  0
  6  7  1  0
  7  8  2  0
  9  8  1  0
 10  9  2  0
 11 12  2  0
 11 10  1  0
 12  7  1  0
 13 14  2  0
 16 15  1  6
 16 18  1  0
 17 16  1  0
 19 13  1  0
 18 19  1  6
 20 18  1  0
 20 21  2  0
 22 23  1  0
 23 24  1  0
 24 25  1  6
 24 26  1  0
 26 28  1  0
 26 27  1  6
 27 20  1  0
 28 30  2  0
 28 29  1  0
M  END
$$$$
