WTI.pdb
     RDKit          3D

 30 31  0  0  1  0  0  0  0  0999 V2000
   20.3287  -19.1650  -14.9558 N   0  0  0  0  0  0  0  0  0  0  0  0
   21.7447  -18.9553  -14.8267 C   0  0  1  0  0  0  0  0  0  0  0  0
   22.1175  -17.4921  -14.7716 C   0  0  0  0  0  0  0  0  0  0  0  0
   21.9583  -16.7600  -16.0172 C   0  0  0  0  0  0  0  0  0  0  0  0
   21.0809  -15.7364  -16.2602 C   0  0  0  0  0  0  0  0  0  0  0  0
   21.2163  -15.3336  -17.5250 N   0  0  0  0  0  0  0  0  0  0  0  0
   22.1598  -16.0601  -18.1312 C   0  0  0  0  0  0  0  0  0  0  0  0
   22.6561  -16.0097  -19.4377 C   0  0  0  0  0  0  0  0  0  0  0  0
   23.6513  -16.8898  -19.7919 C   0  0  0  0  0  0  0  0  0  0  0  0
   24.1527  -17.7983  -18.8965 C   0  0  0  0  0  0  0  0  0  0  0  0
   23.6392  -17.8214  -17.6126 C   0  0  0  0  0  0  0  0  0  0  0  0
   22.6318  -16.9565  -17.1964 C   0  0  0  0  0  0  0  0  0  0  0  0
   22.3364  -19.6881  -13.7018 C   0  0  0  0  0  0  0  0  0  0  0  0
   21.7005  -19.7002  -12.5962 O   0  0  0  0  0  0  0  0  0  0  0  0
   25.8327  -22.3560  -13.8300 C   0  0  0  0  0  0  0  0  0  0  0  0
   24.5431  -22.5458  -13.0539 C   0  0  1  0  0  0  0  0  0  0  0  0
   24.8519  -23.2939  -11.9203 O   0  0  0  0  0  0  0  0  0  0  0  0
   24.0548  -21.1764  -12.5947 C   0  0  2  0  0  0  0  0  0  0  0  0
   23.5595  -20.4019  -13.7089 N   0  0  0  0  0  0  0  0  0  0  0  0
   25.0899  -20.4683  -11.8204 C   0  0  0  0  0  0  0  0  0  0  0  0
   25.8038  -19.6148  -12.4563 O   0  0  0  0  0  0  0  0  0  0  0  0
   27.3965  -18.9172   -6.3890 C   0  0  0  0  0  0  0  0  0  0  0  0
   27.6729  -19.5109   -7.7250 C   0  0  0  0  0  0  0  0  0  0  0  0
   26.5173  -20.1912   -8.3773 C   0  0  2  0  0  0  0  0  0  0  0  0
   26.2251  -21.5520   -7.8409 C   0  0  0  0  0  0  0  0  0  0  0  0
   26.6537  -20.1524   -9.8728 C   0  0  2  0  0  0  0  0  0  0  0  0
   25.3919  -20.6132  -10.4606 N   0  0  0  0  0  0  0  0  0  0  0  0
   27.8379  -20.8340  -10.3898 C   0  0  0  0  0  0  0  0  0  0  0  0
   27.8194  -22.0102  -11.1194 O   0  0  0  0  0  0  0  0  0  0  0  0
   28.9847  -20.3478  -10.1787 O   0  0  0  0  0  0  0  0  0  0  0  0
  2  1  1  1
  2 13  1  0
  3  2  1  0
  3  4  1  0
  4  5  2  0
  4 12  1  0
  5  6  1  0
  6  7  1  0
  7  8  2  0
  9  8  1  0
 10  9  2  0
 11 12  2  0
 11 10  1  0
 12  7  1  0
 13 14  2  0
 16 15  1  6
 16 18  1  0
 17 16  1  0
 19 13  1  0
 18 19  1  6
 20 18  1  0
 20 21  2  0
 22 23  1  0
 23 24  1  0
 24 25  1  1
 24 26  1  0
 26 28  1  0
 26 27  1  6
 27 20  1  0
 28 30  2  0
 28 29  1  0
M  END
$$$$
