WTI.pdb
     RDKit          3D

 30 31  0  0  1  0  0  0  0  0999 V2000
   23.4599  -21.3108  -17.8323 N   0  0  0  0  0  0  0  0  0  0  0  0
   23.4919  -20.6807  -16.5409 C   0  0  1  0  0  0  0  0  0  0  0  0
   22.3528  -21.1157  -15.6486 C   0  0  0  0  0  0  0  0  0  0  0  0
   21.0462  -20.5846  -16.0006 C   0  0  0  0  0  0  0  0  0  0  0  0
   19.9183  -21.3065  -16.2889 C   0  0  0  0  0  0  0  0  0  0  0  0
   18.9239  -20.4674  -16.5840 N   0  0  0  0  0  0  0  0  0  0  0  0
   19.3579  -19.2063  -16.5000 C   0  0  0  0  0  0  0  0  0  0  0  0
   18.6941  -17.9935  -16.7097 C   0  0  0  0  0  0  0  0  0  0  0  0
   19.4004  -16.8258  -16.5424 C   0  0  0  0  0  0  0  0  0  0  0  0
   20.7219  -16.8367  -16.1793 C   0  0  0  0  0  0  0  0  0  0  0  0
   21.3480  -18.0537  -15.9799 C   0  0  0  0  0  0  0  0  0  0  0  0
   20.6857  -19.2675  -16.1349 C   0  0  0  0  0  0  0  0  0  0  0  0
   24.7802  -20.8339  -15.8558 C   0  0  0  0  0  0  0  0  0  0  0  0
   25.5159  -21.8236  -16.1815 O   0  0  0  0  0  0  0  0  0  0  0  0
   27.6379  -18.3955  -15.4753 C   0  0  0  0  0  0  0  0  0  0  0  0
   27.3666  -18.9095  -14.0740 C   0  0  1  0  0  0  0  0  0  0  0  0
   26.5632  -17.9658  -13.4383 O   0  0  0  0  0  0  0  0  0  0  0  0
   26.5711  -20.2055  -14.1851 C   0  0  2  0  0  0  0  0  0  0  0  0
   25.3103  -19.9843  -14.8545 N   0  0  0  0  0  0  0  0  0  0  0  0
   26.4156  -20.8552  -12.8713 C   0  0  0  0  0  0  0  0  0  0  0  0
   25.2818  -21.4008  -12.6277 O   0  0  0  0  0  0  0  0  0  0  0  0
   30.7297  -21.4457   -9.7555 C   0  0  0  0  0  0  0  0  0  0  0  0
   29.3752  -21.8920  -10.1795 C   0  0  0  0  0  0  0  0  0  0  0  0
   28.2358  -21.1165   -9.6101 C   0  0  2  0  0  0  0  0  0  0  0  0
   27.9914  -21.3627   -8.1594 C   0  0  0  0  0  0  0  0  0  0  0  0
   27.0078  -21.2755  -10.4607 C   0  0  2  0  0  0  0  0  0  0  0  0
   27.3643  -20.9526  -11.8459 N   0  0  0  0  0  0  0  0  0  0  0  0
   25.8324  -20.5638   -9.9647 C   0  0  0  0  0  0  0  0  0  0  0  0
   25.4414  -19.3000  -10.3719 O   0  0  0  0  0  0  0  0  0  0  0  0
   25.0889  -21.1060   -9.0990 O   0  0  0  0  0  0  0  0  0  0  0  0
  2  1  1  6
  2 13  1  0
  3  2  1  0
  3  4  1  0
  4  5  2  0
  4 12  1  0
  5  6  1  0
  6  7  1  0
  7  8  2  0
  9  8  1  0
 10  9  2  0
 11 12  2  0
 11 10  1  0
 12  7  1  0
 13 14  2  0
 16 15  1  6
 16 18  1  0
 17 16  1  0
 19 13  1  0
 18 19  1  1
 20 18  1  0
 20 21  2  0
 22 23  1  0
 23 24  1  0
 24 25  1  1
 24 26  1  0
 26 28  1  0
 26 27  1  6
 27 20  1  0
 28 30  2  0
 28 29  1  0
M  END
$$$$
