WTI.pdb
     RDKit          3D

 30 31  0  0  1  0  0  0  0  0999 V2000
   26.9894  -18.6582   -8.6379 N   0  0  0  0  0  0  0  0  0  0  0  0
   26.7606  -19.9791   -9.1564 C   0  0  1  0  0  0  0  0  0  0  0  0
   25.9378  -20.8391   -8.2258 C   0  0  0  0  0  0  0  0  0  0  0  0
   26.3404  -20.8100   -6.8293 C   0  0  0  0  0  0  0  0  0  0  0  0
   25.6222  -21.2744   -5.7592 C   0  0  0  0  0  0  0  0  0  0  0  0
   26.3124  -21.0539   -4.6388 N   0  0  0  0  0  0  0  0  0  0  0  0
   27.4706  -20.4558   -4.9329 C   0  0  0  0  0  0  0  0  0  0  0  0
   28.5188  -20.0344   -4.1087 C   0  0  0  0  0  0  0  0  0  0  0  0
   29.6130  -19.4437   -4.6954 C   0  0  0  0  0  0  0  0  0  0  0  0
   29.6867  -19.2667   -6.0524 C   0  0  0  0  0  0  0  0  0  0  0  0
   28.6324  -19.6948   -6.8384 C   0  0  0  0  0  0  0  0  0  0  0  0
   27.4992  -20.2983   -6.3020 C   0  0  0  0  0  0  0  0  0  0  0  0
   26.1901  -19.9777  -10.5081 C   0  0  0  0  0  0  0  0  0  0  0  0
   25.5194  -18.9556  -10.8722 O   0  0  0  0  0  0  0  0  0  0  0  0
   28.2205  -21.3693  -13.4500 C   0  0  0  0  0  0  0  0  0  0  0  0
   26.7753  -21.6946  -13.7770 C   0  0  1  0  0  0  0  0  0  0  0  0
   26.5816  -23.0431  -13.4869 O   0  0  0  0  0  0  0  0  0  0  0  0
   25.8797  -20.8810  -12.8493 C   0  0  2  0  0  0  0  0  0  0  0  0
   26.3072  -21.0056  -11.4751 N   0  0  0  0  0  0  0  0  0  0  0  0
   24.4582  -21.2208  -13.0397 C   0  0  0  0  0  0  0  0  0  0  0  0
   23.8805  -21.8452  -12.0812 O   0  0  0  0  0  0  0  0  0  0  0  0
   19.2050  -19.0696  -14.9542 C   0  0  0  0  0  0  0  0  0  0  0  0
   20.0767  -20.2686  -14.8265 C   0  0  0  0  0  0  0  0  0  0  0  0
   21.4329  -20.0194  -14.2585 C   0  0  2  0  0  0  0  0  0  0  0  0
   22.1637  -18.8843  -14.8928 C   0  0  0  0  0  0  0  0  0  0  0  0
   22.2292  -21.2921  -14.2079 C   0  0  2  0  0  0  0  0  0  0  0  0
   23.6517  -20.9412  -14.1499 N   0  0  0  0  0  0  0  0  0  0  0  0
   21.8939  -22.2571  -15.2522 C   0  0  0  0  0  0  0  0  0  0  0  0
   22.7117  -22.5849  -16.3198 O   0  0  0  0  0  0  0  0  0  0  0  0
   20.7847  -22.8610  -15.2166 O   0  0  0  0  0  0  0  0  0  0  0  0
  2  1  1  1
  2 13  1  0
  3  2  1  0
  3  4  1  0
  4  5  2  0
  4 12  1  0
  5  6  1  0
  6  7  1  0
  7  8  2  0
  9  8  1  0
 10  9  2  0
 11 12  2  0
 11 10  1  0
 12  7  1  0
 13 14  2  0
 16 15  1  1
 16 18  1  0
 17 16  1  0
 19 13  1  0
 18 19  1  1
 20 18  1  0
 20 21  2  0
 22 23  1  0
 23 24  1  0
 24 25  1  6
 24 26  1  0
 26 28  1  0
 26 27  1  6
 27 20  1  0
 28 30  2  0
 28 29  1  0
M  END
$$$$
