SHD.pdb
     RDKit          3D

 25 25  0  0  1  0  0  0  0  0999 V2000
    8.5538  -18.6639   15.8900 O   0  0  0  0  0  0  0  0  0  0  0  0
    9.3383  -17.5305   15.7803 C   0  0  0  0  0  0  0  0  0  0  0  0
   10.6388  -17.7030   16.5418 C   0  0  2  0  0  0  0  0  0  0  0  0
   11.2208  -18.9501   16.1736 N   0  0  0  0  0  0  0  0  0  0  0  0
   10.3295  -17.6092   18.0073 C   0  0  0  0  0  0  0  0  0  0  0  0
    9.8854  -16.5207   18.4305 O   0  0  0  0  0  0  0  0  0  0  0  0
   10.5254  -18.6900   18.8801 N   0  0  0  0  0  0  0  0  0  0  0  0
   10.2537  -18.7788   20.2828 C   0  0  1  0  0  0  0  0  0  0  0  0
    9.3942  -19.9649   20.6649 C   0  0  0  0  0  0  0  0  0  0  0  0
    8.1010  -19.9308   19.9375 C   0  0  0  0  0  0  0  0  0  0  0  0
    6.9340  -19.2380   20.2828 C   0  0  0  0  0  0  0  0  0  0  0  0
    5.9621  -19.5059   19.3836 N   0  0  0  0  0  0  0  0  0  0  0  0
    6.4888  -20.3456   18.4875 C   0  0  0  0  0  0  0  0  0  0  0  0
    7.7559  -20.5968   18.8165 N   0  0  0  0  0  0  0  0  0  0  0  0
   11.4482  -18.5916   21.1006 C   0  0  0  0  0  0  0  0  0  0  0  0
   12.3844  -19.4618   21.0507 O   0  0  0  0  0  0  0  0  0  0  0  0
   11.6102  -17.4708   21.9555 N   0  0  0  0  0  0  0  0  0  0  0  0
   12.7346  -17.1994   22.8000 C   0  0  1  0  0  0  0  0  0  0  0  0
   13.8118  -16.4239   22.1380 C   0  0  0  0  0  0  0  0  0  0  0  0
   14.9603  -16.2265   23.0285 C   0  0  0  0  0  0  0  0  0  0  0  0
   15.5259  -17.1708   23.6685 O   0  0  0  0  0  0  0  0  0  0  0  0
   12.3612  -16.6868   24.1491 C   0  0  0  0  0  0  0  0  0  0  0  0
   11.2823  -16.0568   24.3240 O   0  0  0  0  0  0  0  0  0  0  0  0
   15.4527  -14.9218   23.1745 O   0  0  0  0  0  0  0  0  0  0  0  0
   13.1556  -16.8663   25.2463 O   0  0  0  0  0  0  0  0  0  0  0  0
  1  2  1  0
  3  2  1  0
  3  4  1  1
  5  6  2  0
  5  3  1  0
  7  5  1  0
  8  9  1  6
  8  7  1  0
  9 10  1  0
 10 14  1  0
 11 10  2  0
 11 12  1  0
 12 13  1  0
 14 13  2  0
 15  8  1  0
 16 15  2  0
 17 15  1  0
 18 17  1  0
 18 19  1  6
 19 20  1  0
 20 24  1  0
 21 20  2  0
 22 25  1  0
 22 18  1  0
 23 22  2  0
M  END
$$$$
