SHD.pdb
     RDKit          3D

 25 25  0  0  1  0  0  0  0  0999 V2000
   12.7344  -17.9948   16.3455 O   0  0  0  0  0  0  0  0  0  0  0  0
   11.4545  -17.6563   15.9466 C   0  0  0  0  0  0  0  0  0  0  0  0
   11.3203  -16.1530   15.7947 C   0  0  2  0  0  0  0  0  0  0  0  0
   12.1203  -15.7329   14.6933 N   0  0  0  0  0  0  0  0  0  0  0  0
   11.7298  -15.5212   17.0928 C   0  0  0  0  0  0  0  0  0  0  0  0
   12.8700  -15.0135   17.1483 O   0  0  0  0  0  0  0  0  0  0  0  0
   10.8790  -15.4935   18.2081 N   0  0  0  0  0  0  0  0  0  0  0  0
   11.1318  -14.9907   19.5243 C   0  0  1  0  0  0  0  0  0  0  0  0
    9.8826  -14.8123   20.3606 C   0  0  0  0  0  0  0  0  0  0  0  0
    8.8930  -13.9647   19.6500 C   0  0  0  0  0  0  0  0  0  0  0  0
    9.1005  -13.1485   18.5311 C   0  0  0  0  0  0  0  0  0  0  0  0
    7.9549  -12.5044   18.2182 N   0  0  0  0  0  0  0  0  0  0  0  0
    7.0390  -12.8950   19.1094 C   0  0  0  0  0  0  0  0  0  0  0  0
    7.5957  -13.7601   19.9572 N   0  0  0  0  0  0  0  0  0  0  0  0
   12.2285  -15.6855   20.1916 C   0  0  0  0  0  0  0  0  0  0  0  0
   12.2157  -16.9630   20.2532 O   0  0  0  0  0  0  0  0  0  0  0  0
   13.3171  -14.9899   20.7786 N   0  0  0  0  0  0  0  0  0  0  0  0
   14.3978  -15.5690   21.5188 C   0  0  1  0  0  0  0  0  0  0  0  0
   15.6770  -14.8282   21.3960 C   0  0  0  0  0  0  0  0  0  0  0  0
   16.1026  -14.7142   19.9971 C   0  0  0  0  0  0  0  0  0  0  0  0
   15.9998  -15.6595   19.1503 O   0  0  0  0  0  0  0  0  0  0  0  0
   14.0393  -15.9295   22.9201 C   0  0  0  0  0  0  0  0  0  0  0  0
   12.9152  -15.6163   23.3995 O   0  0  0  0  0  0  0  0  0  0  0  0
   16.6511  -13.4924   19.5822 O   0  0  0  0  0  0  0  0  0  0  0  0
   14.8956  -16.6031   23.7449 O   0  0  0  0  0  0  0  0  0  0  0  0
  1  2  1  0
  3  2  1  0
  3  4  1  6
  5  6  2  0
  5  3  1  0
  7  5  1  0
  8  9  1  1
  8  7  1  0
  9 10  1  0
 10 14  1  0
 11 10  2  0
 11 12  1  0
 12 13  1  0
 14 13  2  0
 15  8  1  0
 16 15  2  0
 17 15  1  0
 18 17  1  0
 18 19  1  1
 19 20  1  0
 20 24  1  0
 21 20  2  0
 22 25  1  0
 22 18  1  0
 23 22  2  0
M  END
$$$$
