SHD.pdb
     RDKit          3D

 25 25  0  0  1  0  0  0  0  0999 V2000
   10.7254  -19.8073   16.8230 O   0  0  0  0  0  0  0  0  0  0  0  0
   11.5515  -18.8730   17.4201 C   0  0  0  0  0  0  0  0  0  0  0  0
   11.0854  -17.4648   17.1028 C   0  0  2  0  0  0  0  0  0  0  0  0
   11.8305  -16.9777   15.9905 N   0  0  0  0  0  0  0  0  0  0  0  0
   11.2629  -16.6322   18.3386 C   0  0  0  0  0  0  0  0  0  0  0  0
   12.3607  -16.0545   18.4874 O   0  0  0  0  0  0  0  0  0  0  0  0
   10.2477  -16.4976   19.2976 N   0  0  0  0  0  0  0  0  0  0  0  0
   10.2480  -15.7409   20.5128 C   0  0  1  0  0  0  0  0  0  0  0  0
    8.9025  -15.1393   20.8583 C   0  0  0  0  0  0  0  0  0  0  0  0
    8.3645  -14.3656   19.7118 C   0  0  0  0  0  0  0  0  0  0  0  0
    8.5603  -13.0107   19.4163 C   0  0  0  0  0  0  0  0  0  0  0  0
    7.8609  -12.6801   18.3089 N   0  0  0  0  0  0  0  0  0  0  0  0
    7.2345  -13.7892   17.9049 C   0  0  0  0  0  0  0  0  0  0  0  0
    7.5334  -14.7871   18.7366 N   0  0  0  0  0  0  0  0  0  0  0  0
   10.9141  -16.4369   21.6094 C   0  0  0  0  0  0  0  0  0  0  0  0
   10.5542  -17.6279   21.9061 O   0  0  0  0  0  0  0  0  0  0  0  0
   11.9547  -15.8360   22.3639 N   0  0  0  0  0  0  0  0  0  0  0  0
   12.6053  -16.3932   23.5118 C   0  0  1  0  0  0  0  0  0  0  0  0
   13.9369  -15.8042   23.7945 C   0  0  0  0  0  0  0  0  0  0  0  0
   14.8852  -16.0669   22.7069 C   0  0  0  0  0  0  0  0  0  0  0  0
   14.9072  -15.4088   21.6172 O   0  0  0  0  0  0  0  0  0  0  0  0
   11.7231  -16.4976   24.7089 C   0  0  0  0  0  0  0  0  0  0  0  0
   12.1201  -17.0826   25.7539 O   0  0  0  0  0  0  0  0  0  0  0  0
   15.8130  -17.1021   22.8897 O   0  0  0  0  0  0  0  0  0  0  0  0
   10.4599  -15.9775   24.7354 O   0  0  0  0  0  0  0  0  0  0  0  0
  1  2  1  0
  3  2  1  0
  3  4  1  6
  5  6  2  0
  5  3  1  0
  7  5  1  0
  8  9  1  1
  8  7  1  0
  9 10  1  0
 10 14  1  0
 11 10  2  0
 11 12  1  0
 12 13  1  0
 14 13  2  0
 15  8  1  0
 16 15  2  0
 17 15  1  0
 18 17  1  0
 18 19  1  1
 19 20  1  0
 20 24  1  0
 21 20  2  0
 22 25  1  0
 22 18  1  0
 23 22  2  0
M  END
$$$$
