SHD.pdb
     RDKit          3D

 25 25  0  0  1  0  0  0  0  0999 V2000
   12.5772  -18.1811   16.4094 O   0  0  0  0  0  0  0  0  0  0  0  0
   11.5130  -17.5721   15.7702 C   0  0  0  0  0  0  0  0  0  0  0  0
   11.7141  -16.0699   15.7070 C   0  0  2  0  0  0  0  0  0  0  0  0
   12.7358  -15.7863   14.7555 N   0  0  0  0  0  0  0  0  0  0  0  0
   12.0501  -15.5924   17.0894 C   0  0  0  0  0  0  0  0  0  0  0  0
   13.2199  -15.2036   17.2928 O   0  0  0  0  0  0  0  0  0  0  0  0
   11.1011  -15.5768   18.1227 N   0  0  0  0  0  0  0  0  0  0  0  0
   11.2297  -15.0813   19.4595 C   0  0  1  0  0  0  0  0  0  0  0  0
    9.9184  -15.0063   20.2122 C   0  0  0  0  0  0  0  0  0  0  0  0
    8.9821  -14.0703   19.5416 C   0  0  0  0  0  0  0  0  0  0  0  0
    9.2316  -13.2388   18.4427 C   0  0  0  0  0  0  0  0  0  0  0  0
    8.1307  -12.5062   18.1664 N   0  0  0  0  0  0  0  0  0  0  0  0
    7.2019  -12.8565   19.0609 C   0  0  0  0  0  0  0  0  0  0  0  0
    7.7071  -13.7831   19.8751 N   0  0  0  0  0  0  0  0  0  0  0  0
   12.3269  -15.7089   20.1897 C   0  0  0  0  0  0  0  0  0  0  0  0
   12.4297  -16.9839   20.1918 O   0  0  0  0  0  0  0  0  0  0  0  0
   13.2912  -14.9504   20.9024 N   0  0  0  0  0  0  0  0  0  0  0  0
   14.4306  -15.4637   21.6021 C   0  0  1  0  0  0  0  0  0  0  0  0
   15.5485  -14.4964   21.7240 C   0  0  0  0  0  0  0  0  0  0  0  0
   16.7226  -15.1054   22.3577 C   0  0  0  0  0  0  0  0  0  0  0  0
   17.3986  -16.0469   21.8307 O   0  0  0  0  0  0  0  0  0  0  0  0
   14.0891  -16.1578   22.8763 C   0  0  0  0  0  0  0  0  0  0  0  0
   13.0141  -15.8991   23.4839 O   0  0  0  0  0  0  0  0  0  0  0  0
   17.1114  -14.6151   23.6125 O   0  0  0  0  0  0  0  0  0  0  0  0
   14.9094  -17.0913   23.4445 O   0  0  0  0  0  0  0  0  0  0  0  0
  1  2  1  0
  3  2  1  0
  3  4  1  6
  5  6  2  0
  5  3  1  0
  7  5  1  0
  8  9  1  1
  8  7  1  0
  9 10  1  0
 10 14  1  0
 11 10  2  0
 11 12  1  0
 12 13  1  0
 14 13  2  0
 15  8  1  0
 16 15  2  0
 17 15  1  0
 18 17  1  0
 18 19  1  1
 19 20  1  0
 20 24  1  0
 21 20  2  0
 22 25  1  0
 22 18  1  0
 23 22  2  0
M  END
$$$$
