SHD.pdb
     RDKit          3D

 25 25  0  0  1  0  0  0  0  0999 V2000
   10.5357  -18.2091   17.3633 O   0  0  0  0  0  0  0  0  0  0  0  0
   10.5501  -17.2198   16.3973 C   0  0  0  0  0  0  0  0  0  0  0  0
   11.7655  -16.3272   16.5622 C   0  0  2  0  0  0  0  0  0  0  0  0
   12.8986  -16.9938   16.0133 N   0  0  0  0  0  0  0  0  0  0  0  0
   11.9156  -16.0201   18.0234 C   0  0  0  0  0  0  0  0  0  0  0  0
   12.7567  -16.6849   18.6651 O   0  0  0  0  0  0  0  0  0  0  0  0
   11.1505  -15.0303   18.6584 N   0  0  0  0  0  0  0  0  0  0  0  0
   11.1601  -14.6233   20.0308 C   0  0  1  0  0  0  0  0  0  0  0  0
   10.5229  -13.2714   20.2718 C   0  0  0  0  0  0  0  0  0  0  0  0
    9.0843  -13.2980   19.9079 C   0  0  0  0  0  0  0  0  0  0  0  0
    8.4582  -12.6833   18.8164 C   0  0  0  0  0  0  0  0  0  0  0  0
    7.1274  -12.9098   18.8677 N   0  0  0  0  0  0  0  0  0  0  0  0
    6.9052  -13.6476   19.9594 C   0  0  0  0  0  0  0  0  0  0  0  0
    8.0650  -13.8771   20.5749 N   0  0  0  0  0  0  0  0  0  0  0  0
   10.7238  -15.6827   20.9354 C   0  0  0  0  0  0  0  0  0  0  0  0
    9.8682  -16.5417   20.5277 O   0  0  0  0  0  0  0  0  0  0  0  0
   11.2183  -15.7954   22.2606 N   0  0  0  0  0  0  0  0  0  0  0  0
   11.1911  -16.9678   23.0827 C   0  0  1  0  0  0  0  0  0  0  0  0
   11.5897  -18.2090   22.3750 C   0  0  0  0  0  0  0  0  0  0  0  0
   11.5721  -19.3703   23.2706 C   0  0  0  0  0  0  0  0  0  0  0  0
   10.5103  -19.8434   23.7899 O   0  0  0  0  0  0  0  0  0  0  0  0
   11.8521  -16.7871   24.4066 C   0  0  0  0  0  0  0  0  0  0  0  0
   11.7576  -17.6717   25.3011 O   0  0  0  0  0  0  0  0  0  0  0  0
   12.7985  -19.9839   23.5630 O   0  0  0  0  0  0  0  0  0  0  0  0
   12.5791  -15.6722   24.7160 O   0  0  0  0  0  0  0  0  0  0  0  0
  1  2  1  0
  3  2  1  0
  3  4  1  1
  5  6  2  0
  5  3  1  0
  7  5  1  0
  8  9  1  6
  8  7  1  0
  9 10  1  0
 10 14  1  0
 11 10  2  0
 11 12  1  0
 12 13  1  0
 14 13  2  0
 15  8  1  0
 16 15  2  0
 17 15  1  0
 18 17  1  0
 18 19  1  6
 19 20  1  0
 20 24  1  0
 21 20  2  0
 22 25  1  0
 22 18  1  0
 23 22  2  0
M  END
$$$$
