SHD.pdb
     RDKit          3D

 25 25  0  0  1  0  0  0  0  0999 V2000
   13.8102  -17.2416   16.7512 O   0  0  0  0  0  0  0  0  0  0  0  0
   12.5842  -17.0373   16.1453 C   0  0  0  0  0  0  0  0  0  0  0  0
   12.1729  -15.5807   16.2452 C   0  0  2  0  0  0  0  0  0  0  0  0
   12.9796  -14.8170   15.3532 N   0  0  0  0  0  0  0  0  0  0  0  0
   12.3200  -15.1585   17.6777 C   0  0  0  0  0  0  0  0  0  0  0  0
   13.3799  -14.5798   17.9985 O   0  0  0  0  0  0  0  0  0  0  0  0
   11.3180  -15.3964   18.6305 N   0  0  0  0  0  0  0  0  0  0  0  0
   11.2719  -15.0102   20.0082 C   0  0  1  0  0  0  0  0  0  0  0  0
    9.8729  -14.9710   20.5853 C   0  0  0  0  0  0  0  0  0  0  0  0
    8.9740  -14.1614   19.7256 C   0  0  0  0  0  0  0  0  0  0  0  0
    8.7324  -12.7833   19.7852 C   0  0  0  0  0  0  0  0  0  0  0  0
    7.8116  -12.4415   18.8576 N   0  0  0  0  0  0  0  0  0  0  0  0
    7.4718  -13.5663   18.2212 C   0  0  0  0  0  0  0  0  0  0  0  0
    8.1608  -14.5846   18.7361 N   0  0  0  0  0  0  0  0  0  0  0  0
   12.2576  -15.7134   20.8234 C   0  0  0  0  0  0  0  0  0  0  0  0
   12.3416  -16.9873   20.7449 O   0  0  0  0  0  0  0  0  0  0  0  0
   13.1331  -15.0300   21.7064 N   0  0  0  0  0  0  0  0  0  0  0  0
   14.1910  -15.6123   22.4765 C   0  0  1  0  0  0  0  0  0  0  0  0
   15.3453  -14.7069   22.6956 C   0  0  0  0  0  0  0  0  0  0  0  0
   16.4384  -15.3864   23.3988 C   0  0  0  0  0  0  0  0  0  0  0  0
   16.5985  -15.3430   24.6611 O   0  0  0  0  0  0  0  0  0  0  0  0
   13.7229  -16.3056   23.7103 C   0  0  0  0  0  0  0  0  0  0  0  0
   14.4964  -17.0635   24.3575 O   0  0  0  0  0  0  0  0  0  0  0  0
   17.3503  -16.1206   22.6271 O   0  0  0  0  0  0  0  0  0  0  0  0
   12.4531  -16.1617   24.1942 O   0  0  0  0  0  0  0  0  0  0  0  0
  1  2  1  0
  3  2  1  0
  3  4  1  6
  5  6  2  0
  5  3  1  0
  7  5  1  0
  8  9  1  1
  8  7  1  0
  9 10  1  0
 10 14  1  0
 11 10  2  0
 11 12  1  0
 12 13  1  0
 14 13  2  0
 15  8  1  0
 16 15  2  0
 17 15  1  0
 18 17  1  0
 18 19  1  1
 19 20  1  0
 20 24  1  0
 21 20  2  0
 22 25  1  0
 22 18  1  0
 23 22  2  0
M  END
$$$$
