SHD.pdb
     RDKit          3D

 25 25  0  0  1  0  0  0  0  0999 V2000
   14.4131  -17.1409   16.0348 O   0  0  0  0  0  0  0  0  0  0  0  0
   14.1023  -16.6712   17.2977 C   0  0  0  0  0  0  0  0  0  0  0  0
   13.2693  -15.4066   17.2093 C   0  0  2  0  0  0  0  0  0  0  0  0
   14.0446  -14.3932   16.5757 N   0  0  0  0  0  0  0  0  0  0  0  0
   12.8446  -15.0375   18.6005 C   0  0  0  0  0  0  0  0  0  0  0  0
   13.6266  -14.3287   19.2691 O   0  0  0  0  0  0  0  0  0  0  0  0
   11.6228  -15.4629   19.1433 N   0  0  0  0  0  0  0  0  0  0  0  0
   11.1191  -15.2978   20.4730 C   0  0  1  0  0  0  0  0  0  0  0  0
    9.6079  -15.3139   20.5604 C   0  0  0  0  0  0  0  0  0  0  0  0
    9.0237  -14.2284   19.7340 C   0  0  0  0  0  0  0  0  0  0  0  0
    9.6971  -13.2429   19.0015 C   0  0  0  0  0  0  0  0  0  0  0  0
    8.8015  -12.4132   18.4232 N   0  0  0  0  0  0  0  0  0  0  0  0
    7.5891  -12.8523   18.7737 C   0  0  0  0  0  0  0  0  0  0  0  0
    7.7217  -13.9276   19.5502 N   0  0  0  0  0  0  0  0  0  0  0  0
   11.8038  -16.1460   21.4439 C   0  0  0  0  0  0  0  0  0  0  0  0
   11.5438  -17.3980   21.4754 O   0  0  0  0  0  0  0  0  0  0  0  0
   12.7548  -15.6284   22.3608 N   0  0  0  0  0  0  0  0  0  0  0  0
   13.4579  -16.3673   23.3663 C   0  0  1  0  0  0  0  0  0  0  0  0
   14.8183  -15.8503   23.6530 C   0  0  0  0  0  0  0  0  0  0  0  0
   15.6257  -15.7497   22.4328 C   0  0  0  0  0  0  0  0  0  0  0  0
   15.7025  -16.6742   21.5607 O   0  0  0  0  0  0  0  0  0  0  0  0
   12.6458  -16.6429   24.5856 C   0  0  0  0  0  0  0  0  0  0  0  0
   11.4822  -16.1703   24.7063 O   0  0  0  0  0  0  0  0  0  0  0  0
   16.3479  -14.5656   22.2272 O   0  0  0  0  0  0  0  0  0  0  0  0
   13.1120  -17.4054   25.6192 O   0  0  0  0  0  0  0  0  0  0  0  0
  1  2  1  0
  3  2  1  0
  3  4  1  1
  5  6  2  0
  5  3  1  0
  7  5  1  0
  8  9  1  6
  8  7  1  0
  9 10  1  0
 10 14  1  0
 11 10  2  0
 11 12  1  0
 12 13  1  0
 14 13  2  0
 15  8  1  0
 16 15  2  0
 17 15  1  0
 18 17  1  0
 18 19  1  1
 19 20  1  0
 20 24  1  0
 21 20  2  0
 22 25  1  0
 22 18  1  0
 23 22  2  0
M  END
$$$$
