SHD.pdb
     RDKit          3D

 25 25  0  0  1  0  0  0  0  0999 V2000
    8.5744  -18.6173   20.2914 O   0  0  0  0  0  0  0  0  0  0  0  0
    7.6465  -17.6898   19.8548 C   0  0  0  0  0  0  0  0  0  0  0  0
    8.2858  -16.3225   19.7034 C   0  0  2  0  0  0  0  0  0  0  0  0
    9.4274  -16.4439   18.8599 N   0  0  0  0  0  0  0  0  0  0  0  0
    8.6207  -15.8169   21.0760 C   0  0  0  0  0  0  0  0  0  0  0  0
    9.8203  -15.8542   21.4233 O   0  0  0  0  0  0  0  0  0  0  0  0
    7.6390  -15.3194   21.9461 N   0  0  0  0  0  0  0  0  0  0  0  0
    7.7761  -14.8632   23.2960 C   0  0  1  0  0  0  0  0  0  0  0  0
    6.5249  -14.2182   23.8531 C   0  0  0  0  0  0  0  0  0  0  0  0
    6.7943  -13.6129   25.1811 C   0  0  0  0  0  0  0  0  0  0  0  0
    7.9938  -13.6155   25.9041 C   0  0  0  0  0  0  0  0  0  0  0  0
    7.8116  -12.9971   27.0912 N   0  0  0  0  0  0  0  0  0  0  0  0
    6.5335  -12.6089   27.1299 C   0  0  0  0  0  0  0  0  0  0  0  0
    5.9317  -12.9742   25.9979 N   0  0  0  0  0  0  0  0  0  0  0  0
    8.3994  -15.8563   24.1655 C   0  0  0  0  0  0  0  0  0  0  0  0
    7.8444  -16.9998   24.3092 O   0  0  0  0  0  0  0  0  0  0  0  0
    9.6081  -15.5976   24.8622 N   0  0  0  0  0  0  0  0  0  0  0  0
   10.2848  -16.4910   25.7540 C   0  0  1  0  0  0  0  0  0  0  0  0
   11.7639  -16.4017   25.6883 C   0  0  0  0  0  0  0  0  0  0  0  0
   12.2750  -16.8549   24.3904 C   0  0  0  0  0  0  0  0  0  0  0  0
   13.3598  -17.5062   24.2490 O   0  0  0  0  0  0  0  0  0  0  0  0
    9.7388  -16.4811   27.1411 C   0  0  0  0  0  0  0  0  0  0  0  0
   10.2251  -17.2313   28.0312 O   0  0  0  0  0  0  0  0  0  0  0  0
   11.5182  -16.5476   23.2508 O   0  0  0  0  0  0  0  0  0  0  0  0
    8.6996  -15.6757   27.5133 O   0  0  0  0  0  0  0  0  0  0  0  0
  1  2  1  0
  3  2  1  0
  3  4  1  6
  5  6  2  0
  5  3  1  0
  7  5  1  0
  8  9  1  1
  8  7  1  0
  9 10  1  0
 10 14  1  0
 11 10  2  0
 11 12  1  0
 12 13  1  0
 14 13  2  0
 15  8  1  0
 16 15  2  0
 17 15  1  0
 18 17  1  0
 18 19  1  1
 19 20  1  0
 20 24  1  0
 21 20  2  0
 22 25  1  0
 22 18  1  0
 23 22  2  0
M  END
$$$$
