SHD.pdb
     RDKit          3D

 25 25  0  0  1  0  0  0  0  0999 V2000
   13.5768  -18.1637   15.3974 O   0  0  0  0  0  0  0  0  0  0  0  0
   13.4892  -17.4544   16.5811 C   0  0  0  0  0  0  0  0  0  0  0  0
   12.4322  -16.3711   16.4799 C   0  0  2  0  0  0  0  0  0  0  0  0
   12.7999  -15.4713   15.4383 N   0  0  0  0  0  0  0  0  0  0  0  0
   12.3260  -15.7055   17.8207 C   0  0  0  0  0  0  0  0  0  0  0  0
   13.2638  -14.9544   18.1633 O   0  0  0  0  0  0  0  0  0  0  0  0
   11.2255  -15.9078   18.6670 N   0  0  0  0  0  0  0  0  0  0  0  0
   11.0275  -15.4625   20.0130 C   0  0  1  0  0  0  0  0  0  0  0  0
    9.5715  -15.3562   20.4136 C   0  0  0  0  0  0  0  0  0  0  0  0
    8.8890  -14.2954   19.6316 C   0  0  0  0  0  0  0  0  0  0  0  0
    9.4542  -13.3973   18.7178 C   0  0  0  0  0  0  0  0  0  0  0  0
    8.5019  -12.5584   18.2549 N   0  0  0  0  0  0  0  0  0  0  0  0
    7.3591  -12.9070   18.8535 C   0  0  0  0  0  0  0  0  0  0  0  0
    7.5895  -13.9361   19.6689 N   0  0  0  0  0  0  0  0  0  0  0  0
   11.8824  -16.1603   20.9685 C   0  0  0  0  0  0  0  0  0  0  0  0
   11.8150  -17.4347   21.0553 O   0  0  0  0  0  0  0  0  0  0  0  0
   12.7928  -15.4712   21.8109 N   0  0  0  0  0  0  0  0  0  0  0  0
   13.6640  -16.0587   22.7842 C   0  0  1  0  0  0  0  0  0  0  0  0
   14.8936  -15.2712   23.0451 C   0  0  0  0  0  0  0  0  0  0  0  0
   15.8099  -15.3060   21.9005 C   0  0  0  0  0  0  0  0  0  0  0  0
   15.8279  -16.2450   21.0409 O   0  0  0  0  0  0  0  0  0  0  0  0
   12.9633  -16.5139   24.0187 C   0  0  0  0  0  0  0  0  0  0  0  0
   11.7482  -16.2346   24.2112 O   0  0  0  0  0  0  0  0  0  0  0  0
   16.7104  -14.2410   21.7565 O   0  0  0  0  0  0  0  0  0  0  0  0
   13.5904  -17.2416   24.9905 O   0  0  0  0  0  0  0  0  0  0  0  0
  1  2  1  0
  3  2  1  0
  3  4  1  6
  5  6  2  0
  5  3  1  0
  7  5  1  0
  8  9  1  1
  8  7  1  0
  9 10  1  0
 10 14  1  0
 11 10  2  0
 11 12  1  0
 12 13  1  0
 14 13  2  0
 15  8  1  0
 16 15  2  0
 17 15  1  0
 18 17  1  0
 18 19  1  1
 19 20  1  0
 20 24  1  0
 21 20  2  0
 22 25  1  0
 22 18  1  0
 23 22  2  0
M  END
$$$$
