MGE.pdb
     RDKit          3D

 22 21  0  0  1  0  0  0  0  0999 V2000
   23.2131  -20.8920  -16.8537 C   0  0  0  0  0  0  0  0  0  0  0  0
   23.6672  -19.3041  -16.1983 S   0  0  0  0  0  0  0  0  0  0  0  0
   23.8939  -18.0006  -17.3715 C   0  0  0  0  0  0  0  0  0  0  0  0
   24.3191  -16.6679  -16.9213 C   0  0  0  0  0  0  0  0  0  0  0  0
   23.6255  -16.1556  -15.7164 C   0  0  2  0  0  0  0  0  0  0  0  0
   22.2337  -15.8915  -16.0706 N   0  0  0  0  0  0  0  0  0  0  0  0
   24.2436  -14.8443  -15.2643 C   0  0  0  0  0  0  0  0  0  0  0  0
   25.3660  -14.8898  -14.7560 O   0  0  0  0  0  0  0  0  0  0  0  0
   23.5577  -13.6104  -15.4186 N   0  0  0  0  0  0  0  0  0  0  0  0
   24.1403  -12.3437  -14.9899 C   0  0  0  0  0  0  0  0  0  0  0  0
   23.2128  -11.2153  -15.3088 C   0  0  0  0  0  0  0  0  0  0  0  0
   22.0620  -11.4620  -15.7497 O   0  0  0  0  0  0  0  0  0  0  0  0
   23.5705   -9.8580  -15.1375 N   0  0  0  0  0  0  0  0  0  0  0  0
   22.5472   -8.8397  -15.2390 C   0  0  1  0  0  0  0  0  0  0  0  0
   22.8603   -7.6151  -14.4523 C   0  0  0  0  0  0  0  0  0  0  0  0
   21.8506   -6.5247  -14.4903 C   0  0  0  0  0  0  0  0  0  0  0  0
   22.2725   -5.3277  -13.7312 C   0  0  0  0  0  0  0  0  0  0  0  0
   22.3030   -4.2240  -14.3334 O   0  0  0  0  0  0  0  0  0  0  0  0
   22.2750   -8.6099  -16.6770 C   0  0  0  0  0  0  0  0  0  0  0  0
   20.9991   -8.3140  -17.1419 O   0  0  0  0  0  0  0  0  0  0  0  0
   22.6382   -5.3386  -12.3936 O   0  0  0  0  0  0  0  0  0  0  0  0
   23.1913   -8.6700  -17.5599 O   0  0  0  0  0  0  0  0  0  0  0  0
  2  3  1  0
  2  1  1  0
  3  4  1  0
  4  5  1  0
  5  7  1  0
  5  6  1  6
  7  8  2  0
  9  7  1  0
  9 10  1  0
 10 11  1  0
 11 12  2  0
 11 13  1  0
 13 14  1  0
 14 19  1  0
 14 15  1  6
 15 16  1  0
 17 16  1  0
 18 17  2  0
 19 20  1  0
 21 17  1  0
 22 19  2  0
M  END
$$$$
