MGE.pdb
     RDKit          3D

 22 21  0  0  1  0  0  0  0  0999 V2000
   25.2397  -10.5279  -13.6236 C   0  0  0  0  0  0  0  0  0  0  0  0
   26.4280  -11.0568  -14.8341 S   0  0  0  0  0  0  0  0  0  0  0  0
   26.5501  -10.0779  -16.3016 C   0  0  0  0  0  0  0  0  0  0  0  0
   25.4116   -9.2580  -16.7390 C   0  0  0  0  0  0  0  0  0  0  0  0
   24.6380   -9.8053  -17.8781 C   0  0  2  0  0  0  0  0  0  0  0  0
   25.4672   -9.7144  -19.0766 N   0  0  0  0  0  0  0  0  0  0  0  0
   23.3876   -8.9779  -18.1179 C   0  0  0  0  0  0  0  0  0  0  0  0
   23.5316   -7.8630  -18.6246 O   0  0  0  0  0  0  0  0  0  0  0  0
   22.0993   -9.4656  -17.7725 N   0  0  0  0  0  0  0  0  0  0  0  0
   20.8798   -8.7551  -18.1405 C   0  0  0  0  0  0  0  0  0  0  0  0
   20.5706   -7.7015  -17.1258 C   0  0  0  0  0  0  0  0  0  0  0  0
   21.2960   -7.5888  -16.1057 O   0  0  0  0  0  0  0  0  0  0  0  0
   19.4825   -6.8080  -17.2565 N   0  0  0  0  0  0  0  0  0  0  0  0
   19.2812   -5.7880  -16.2498 C   0  0  1  0  0  0  0  0  0  0  0  0
   18.4872   -4.6288  -16.7419 C   0  0  0  0  0  0  0  0  0  0  0  0
   18.1797   -3.5650  -15.7500 C   0  0  0  0  0  0  0  0  0  0  0  0
   17.3035   -2.5073  -16.2986 C   0  0  0  0  0  0  0  0  0  0  0  0
   17.1094   -1.4781  -15.6025 O   0  0  0  0  0  0  0  0  0  0  0  0
   18.7451   -6.4465  -15.0358 C   0  0  0  0  0  0  0  0  0  0  0  0
   18.9921   -5.9465  -13.7628 O   0  0  0  0  0  0  0  0  0  0  0  0
   16.6783   -2.5727  -17.5347 O   0  0  0  0  0  0  0  0  0  0  0  0
   18.0319   -7.5004  -15.0934 O   0  0  0  0  0  0  0  0  0  0  0  0
  2  3  1  0
  2  1  1  0
  3  4  1  0
  4  5  1  0
  5  7  1  0
  5  6  1  6
  7  8  2  0
  9  7  1  0
  9 10  1  0
 10 11  1  0
 11 12  2  0
 11 13  1  0
 13 14  1  0
 14 19  1  0
 14 15  1  6
 15 16  1  0
 17 16  1  0
 18 17  2  0
 19 20  1  0
 21 17  1  0
 22 19  2  0
M  END
$$$$
