MGE.pdb
     RDKit          3D

 22 21  0  0  1  0  0  0  0  0999 V2000
   32.2273  -22.0231  -10.9118 C   0  0  0  0  0  0  0  0  0  0  0  0
   30.4660  -21.9392  -11.1302 S   0  0  0  0  0  0  0  0  0  0  0  0
   29.7637  -20.3227  -11.2728 C   0  0  0  0  0  0  0  0  0  0  0  0
   28.3140  -20.1607  -11.4514 C   0  0  0  0  0  0  0  0  0  0  0  0
   27.5260  -21.4145  -11.4011 C   0  0  2  0  0  0  0  0  0  0  0  0
   27.4686  -21.9701  -12.7503 N   0  0  0  0  0  0  0  0  0  0  0  0
   26.1018  -21.1300  -10.9581 C   0  0  0  0  0  0  0  0  0  0  0  0
   25.9368  -20.2679  -10.0920 O   0  0  0  0  0  0  0  0  0  0  0  0
   24.9989  -21.8286  -11.5170 N   0  0  0  0  0  0  0  0  0  0  0  0
   23.6313  -21.3354  -11.3984 C   0  0  0  0  0  0  0  0  0  0  0  0
   23.3349  -20.3673  -12.4985 C   0  0  0  0  0  0  0  0  0  0  0  0
   23.5840  -19.1463  -12.3360 O   0  0  0  0  0  0  0  0  0  0  0  0
   22.7771  -20.7620  -13.7364 N   0  0  0  0  0  0  0  0  0  0  0  0
   22.6367  -19.7822  -14.7922 C   0  0  1  0  0  0  0  0  0  0  0  0
   23.8685  -19.6268  -15.6138 C   0  0  0  0  0  0  0  0  0  0  0  0
   23.8152  -18.6214  -16.7075 C   0  0  0  0  0  0  0  0  0  0  0  0
   25.0726  -18.5525  -17.4831 C   0  0  0  0  0  0  0  0  0  0  0  0
   24.9941  -18.5187  -18.7378 O   0  0  0  0  0  0  0  0  0  0  0  0
   21.4097  -20.1087  -15.5556 C   0  0  0  0  0  0  0  0  0  0  0  0
   20.4483  -19.1467  -15.8414 O   0  0  0  0  0  0  0  0  0  0  0  0
   26.3389  -18.5221  -16.9188 O   0  0  0  0  0  0  0  0  0  0  0  0
   21.1717  -21.2825  -15.9895 O   0  0  0  0  0  0  0  0  0  0  0  0
  2  3  1  0
  2  1  1  0
  3  4  1  0
  4  5  1  0
  5  7  1  0
  5  6  1  6
  7  8  2  0
  9  7  1  0
  9 10  1  0
 10 11  1  0
 11 12  2  0
 11 13  1  0
 13 14  1  0
 14 19  1  0
 14 15  1  6
 15 16  1  0
 17 16  1  0
 18 17  2  0
 19 20  1  0
 21 17  1  0
 22 19  2  0
M  END
$$$$
