MGE.pdb
     RDKit          3D

 22 21  0  0  1  0  0  0  0  0999 V2000
   27.9927  -13.7389  -15.2813 C   0  0  0  0  0  0  0  0  0  0  0  0
   26.4391  -12.9529  -14.9271 S   0  0  0  0  0  0  0  0  0  0  0  0
   25.1022  -13.3139  -16.0266 C   0  0  0  0  0  0  0  0  0  0  0  0
   23.7727  -12.7351  -15.7874 C   0  0  0  0  0  0  0  0  0  0  0  0
   22.7363  -13.0972  -16.7824 C   0  0  2  0  0  0  0  0  0  0  0  0
   23.2859  -12.8680  -18.1157 N   0  0  0  0  0  0  0  0  0  0  0  0
   21.5159  -12.2071  -16.6270 C   0  0  0  0  0  0  0  0  0  0  0  0
   20.9096  -12.2551  -15.5544 O   0  0  0  0  0  0  0  0  0  0  0  0
   21.0854  -11.3510  -17.6752 N   0  0  0  0  0  0  0  0  0  0  0  0
   19.8721  -10.5485  -17.5684 C   0  0  0  0  0  0  0  0  0  0  0  0
   19.9520   -9.6488  -16.3771 C   0  0  0  0  0  0  0  0  0  0  0  0
   19.6931  -10.1049  -15.2350 O   0  0  0  0  0  0  0  0  0  0  0  0
   20.3101   -8.2840  -16.4706 N   0  0  0  0  0  0  0  0  0  0  0  0
   20.3881   -7.4900  -15.2632 C   0  0  1  0  0  0  0  0  0  0  0  0
   21.3391   -6.3498  -15.3733 C   0  0  0  0  0  0  0  0  0  0  0  0
   21.4683   -5.4747  -14.1786 C   0  0  0  0  0  0  0  0  0  0  0  0
   22.3574   -4.3160  -14.4116 C   0  0  0  0  0  0  0  0  0  0  0  0
   23.5754   -4.5381  -14.6320 O   0  0  0  0  0  0  0  0  0  0  0  0
   19.0079   -7.1209  -14.8714 C   0  0  0  0  0  0  0  0  0  0  0  0
   18.6545   -6.9169  -13.5428 O   0  0  0  0  0  0  0  0  0  0  0  0
   21.9377   -2.9943  -14.4043 O   0  0  0  0  0  0  0  0  0  0  0  0
   18.0759   -6.9709  -15.7267 O   0  0  0  0  0  0  0  0  0  0  0  0
  2  3  1  0
  2  1  1  0
  3  4  1  0
  4  5  1  0
  5  7  1  0
  5  6  1  6
  7  8  2  0
  9  7  1  0
  9 10  1  0
 10 11  1  0
 11 12  2  0
 11 13  1  0
 13 14  1  0
 14 19  1  0
 14 15  1  6
 15 16  1  0
 17 16  1  0
 18 17  2  0
 19 20  1  0
 21 17  1  0
 22 19  2  0
M  END
$$$$
