MGE.pdb
     RDKit          3D

 22 21  0  0  1  0  0  0  0  0999 V2000
   29.4610  -18.2712   -5.0117 C   0  0  0  0  0  0  0  0  0  0  0  0
   27.8282  -18.8843   -4.6726 S   0  0  0  0  0  0  0  0  0  0  0  0
   27.2606  -20.2205   -5.6821 C   0  0  0  0  0  0  0  0  0  0  0  0
   27.6002  -20.2621   -7.1113 C   0  0  0  0  0  0  0  0  0  0  0  0
   26.4479  -20.1747   -8.0386 C   0  0  2  0  0  0  0  0  0  0  0  0
   25.4630  -21.1747   -7.6357 N   0  0  0  0  0  0  0  0  0  0  0  0
   26.8813  -20.4990   -9.4573 C   0  0  0  0  0  0  0  0  0  0  0  0
   28.0856  -20.4322   -9.7137 O   0  0  0  0  0  0  0  0  0  0  0  0
   25.9384  -20.8650  -10.4542 N   0  0  0  0  0  0  0  0  0  0  0  0
   24.8427  -19.9838  -10.8422 C   0  0  0  0  0  0  0  0  0  0  0  0
   24.1167  -20.5512  -12.0196 C   0  0  0  0  0  0  0  0  0  0  0  0
   24.6135  -21.5190  -12.6490 O   0  0  0  0  0  0  0  0  0  0  0  0
   22.8760  -20.0450  -12.4712 N   0  0  0  0  0  0  0  0  0  0  0  0
   22.2349  -20.6618  -13.6126 C   0  0  1  0  0  0  0  0  0  0  0  0
   21.0275  -21.4532  -13.2485 C   0  0  0  0  0  0  0  0  0  0  0  0
   20.7097  -21.5517  -11.7996 C   0  0  0  0  0  0  0  0  0  0  0  0
   19.5552  -22.4346  -11.5259 C   0  0  0  0  0  0  0  0  0  0  0  0
   18.9798  -22.9783  -12.5031 O   0  0  0  0  0  0  0  0  0  0  0  0
   22.0127  -19.6107  -14.6327 C   0  0  0  0  0  0  0  0  0  0  0  0
   22.2651  -18.2698  -14.3684 O   0  0  0  0  0  0  0  0  0  0  0  0
   19.0613  -22.7061  -10.2589 O   0  0  0  0  0  0  0  0  0  0  0  0
   21.5814  -19.8782  -15.8011 O   0  0  0  0  0  0  0  0  0  0  0  0
  2  3  1  0
  2  1  1  0
  3  4  1  0
  4  5  1  0
  5  7  1  0
  5  6  1  1
  7  8  2  0
  9  7  1  0
  9 10  1  0
 10 11  1  0
 11 12  2  0
 11 13  1  0
 13 14  1  0
 14 19  1  0
 14 15  1  1
 15 16  1  0
 17 16  1  0
 18 17  2  0
 19 20  1  0
 21 17  1  0
 22 19  2  0
M  END
$$$$
