MGE.pdb
     RDKit          3D

 22 21  0  0  1  0  0  0  0  0999 V2000
   28.7451  -18.6798   -3.8778 C   0  0  0  0  0  0  0  0  0  0  0  0
   27.9643  -18.8999   -5.4586 S   0  0  0  0  0  0  0  0  0  0  0  0
   28.4817  -20.2994   -6.4074 C   0  0  0  0  0  0  0  0  0  0  0  0
   27.9908  -20.4829   -7.7804 C   0  0  0  0  0  0  0  0  0  0  0  0
   26.5408  -20.2454   -7.9713 C   0  0  2  0  0  0  0  0  0  0  0  0
   25.8152  -21.3718   -7.3907 N   0  0  0  0  0  0  0  0  0  0  0  0
   26.2012  -20.1905   -9.4502 C   0  0  0  0  0  0  0  0  0  0  0  0
   26.3985  -19.1258  -10.0402 O   0  0  0  0  0  0  0  0  0  0  0  0
   25.6753  -21.3200  -10.1317 N   0  0  0  0  0  0  0  0  0  0  0  0
   25.4312  -21.3103  -11.5697 C   0  0  0  0  0  0  0  0  0  0  0  0
   24.0113  -20.9349  -11.8493 C   0  0  0  0  0  0  0  0  0  0  0  0
   23.1867  -20.8729  -10.9029 O   0  0  0  0  0  0  0  0  0  0  0  0
   23.5385  -20.6408  -13.1491 N   0  0  0  0  0  0  0  0  0  0  0  0
   22.1601  -20.2362  -13.3246 C   0  0  1  0  0  0  0  0  0  0  0  0
   21.9482  -19.3880  -14.5297 C   0  0  0  0  0  0  0  0  0  0  0  0
   20.5457  -19.2403  -14.9999 C   0  0  0  0  0  0  0  0  0  0  0  0
   20.4570  -18.7047  -16.3756 C   0  0  0  0  0  0  0  0  0  0  0  0
   21.5258  -18.5381  -17.0170 O   0  0  0  0  0  0  0  0  0  0  0  0
   21.3168  -21.4523  -13.2563 C   0  0  0  0  0  0  0  0  0  0  0  0
   21.8003  -22.6998  -13.6324 O   0  0  0  0  0  0  0  0  0  0  0  0
   19.2698  -18.3721  -17.0103 O   0  0  0  0  0  0  0  0  0  0  0  0
   20.1097  -21.4201  -12.8506 O   0  0  0  0  0  0  0  0  0  0  0  0
  2  3  1  0
  2  1  1  0
  3  4  1  0
  4  5  1  0
  5  7  1  0
  5  6  1  1
  7  8  2  0
  9  7  1  0
  9 10  1  0
 10 11  1  0
 11 12  2  0
 11 13  1  0
 13 14  1  0
 14 19  1  0
 14 15  1  6
 15 16  1  0
 17 16  1  0
 18 17  2  0
 19 20  1  0
 21 17  1  0
 22 19  2  0
M  END
$$$$
