MGE.pdb
     RDKit          3D

 22 21  0  0  1  0  0  0  0  0999 V2000
   28.7770  -20.6670   -3.6745 C   0  0  0  0  0  0  0  0  0  0  0  0
   29.5488  -20.1887   -5.2018 S   0  0  0  0  0  0  0  0  0  0  0  0
   28.4884  -19.5140   -6.4456 C   0  0  0  0  0  0  0  0  0  0  0  0
   27.8272  -20.4012   -7.4127 C   0  0  0  0  0  0  0  0  0  0  0  0
   26.9517  -19.7237   -8.3976 C   0  0  2  0  0  0  0  0  0  0  0  0
   25.9143  -19.0037   -7.6644 N   0  0  0  0  0  0  0  0  0  0  0  0
   26.2644  -20.7436   -9.2880 C   0  0  0  0  0  0  0  0  0  0  0  0
   25.2806  -21.3285   -8.8291 O   0  0  0  0  0  0  0  0  0  0  0  0
   26.7341  -21.0171  -10.6001 N   0  0  0  0  0  0  0  0  0  0  0  0
   25.9332  -21.7572  -11.5689 C   0  0  0  0  0  0  0  0  0  0  0  0
   24.7139  -20.9738  -11.9359 C   0  0  0  0  0  0  0  0  0  0  0  0
   24.5356  -19.8326  -11.4404 O   0  0  0  0  0  0  0  0  0  0  0  0
   23.7309  -21.4602  -12.8284 N   0  0  0  0  0  0  0  0  0  0  0  0
   22.5966  -20.6226  -13.1546 C   0  0  1  0  0  0  0  0  0  0  0  0
   22.4737  -20.3458  -14.6123 C   0  0  0  0  0  0  0  0  0  0  0  0
   22.8318  -21.4574  -15.5321 C   0  0  0  0  0  0  0  0  0  0  0  0
   23.7638  -21.0376  -16.6010 C   0  0  0  0  0  0  0  0  0  0  0  0
   23.9939  -19.8089  -16.7381 O   0  0  0  0  0  0  0  0  0  0  0  0
   21.3952  -21.2183  -12.5249 C   0  0  0  0  0  0  0  0  0  0  0  0
   20.2079  -20.5074  -12.3966 O   0  0  0  0  0  0  0  0  0  0  0  0
   24.4051  -21.9106  -17.4669 O   0  0  0  0  0  0  0  0  0  0  0  0
   21.3857  -22.4082  -12.0702 O   0  0  0  0  0  0  0  0  0  0  0  0
  2  3  1  0
  2  1  1  0
  3  4  1  0
  4  5  1  0
  5  7  1  0
  5  6  1  1
  7  8  2  0
  9  7  1  0
  9 10  1  0
 10 11  1  0
 11 12  2  0
 11 13  1  0
 13 14  1  0
 14 19  1  0
 14 15  1  6
 15 16  1  0
 17 16  1  0
 18 17  2  0
 19 20  1  0
 21 17  1  0
 22 19  2  0
M  END
$$$$
