MGE.pdb
     RDKit          3D

 22 21  0  0  1  0  0  0  0  0999 V2000
   17.8467  -18.2215  -16.6996 C   0  0  0  0  0  0  0  0  0  0  0  0
   18.8034  -16.7249  -16.7449 S   0  0  0  0  0  0  0  0  0  0  0  0
   18.1598  -15.4053  -17.7304 C   0  0  0  0  0  0  0  0  0  0  0  0
   18.9196  -14.1560  -17.8783 C   0  0  0  0  0  0  0  0  0  0  0  0
   19.3944  -13.5502  -16.6122 C   0  0  2  0  0  0  0  0  0  0  0  0
   18.2261  -13.1414  -15.8374 N   0  0  0  0  0  0  0  0  0  0  0  0
   20.2193  -12.3070  -16.8943 C   0  0  0  0  0  0  0  0  0  0  0  0
   21.2180  -12.4361  -17.6060 O   0  0  0  0  0  0  0  0  0  0  0  0
   19.8583  -11.0418  -16.3597 N   0  0  0  0  0  0  0  0  0  0  0  0
   20.5890   -9.8245  -16.6944 C   0  0  0  0  0  0  0  0  0  0  0  0
   19.8856   -8.6302  -16.1341 C   0  0  0  0  0  0  0  0  0  0  0  0
   18.7962   -8.7791  -15.5254 O   0  0  0  0  0  0  0  0  0  0  0  0
   20.3920   -7.3157  -16.2565 N   0  0  0  0  0  0  0  0  0  0  0  0
   19.6850   -6.2243  -15.6212 C   0  0  1  0  0  0  0  0  0  0  0  0
   20.5867   -5.2834  -14.9012 C   0  0  0  0  0  0  0  0  0  0  0  0
   21.5614   -5.8893  -13.9563 C   0  0  0  0  0  0  0  0  0  0  0  0
   22.4166   -4.8817  -13.2925 C   0  0  0  0  0  0  0  0  0  0  0  0
   23.1840   -4.1902  -14.0098 O   0  0  0  0  0  0  0  0  0  0  0  0
   18.8064   -5.5989  -16.6369 C   0  0  0  0  0  0  0  0  0  0  0  0
   17.6514   -4.9123  -16.2820 O   0  0  0  0  0  0  0  0  0  0  0  0
   22.4300   -4.6453  -11.9261 O   0  0  0  0  0  0  0  0  0  0  0  0
   19.0615   -5.6559  -17.8836 O   0  0  0  0  0  0  0  0  0  0  0  0
  2  3  1  0
  2  1  1  0
  3  4  1  0
  4  5  1  0
  5  7  1  0
  5  6  1  1
  7  8  2  0
  9  7  1  0
  9 10  1  0
 10 11  1  0
 11 12  2  0
 11 13  1  0
 13 14  1  0
 14 19  1  0
 14 15  1  6
 15 16  1  0
 17 16  1  0
 18 17  2  0
 19 20  1  0
 21 17  1  0
 22 19  2  0
M  END
$$$$
