GHY.pdb
     RDKit          3D

 27 28  0  0  1  0  0  0  0  0999 V2000
   24.7779  -13.3514  -17.1405 N   0  0  0  0  0  0  0  0  0  0  0  0
   23.3762  -13.2426  -16.8863 C   0  0  0  0  0  0  0  0  0  0  0  0
   22.8873  -11.8413  -16.9025 C   0  0  0  0  0  0  0  0  0  0  0  0
   23.6930  -10.8610  -17.0490 O   0  0  0  0  0  0  0  0  0  0  0  0
   21.5181  -11.5984  -16.7540 N   0  0  0  0  0  0  0  0  0  0  0  0
   20.9217  -10.2264  -16.9632 C   0  0  1  0  0  0  0  0  0  0  0  0
   19.6760  -10.4413  -17.7568 C   0  0  0  0  0  0  0  0  0  0  0  0
   19.7531  -10.5007  -19.2067 C   0  0  0  0  0  0  0  0  0  0  0  0
   20.8023   -9.9298  -19.9303 C   0  0  0  0  0  0  0  0  0  0  0  0
   20.5915  -10.1496  -21.2292 N   0  0  0  0  0  0  0  0  0  0  0  0
   19.4359  -10.8465  -21.3710 C   0  0  0  0  0  0  0  0  0  0  0  0
   18.9700  -11.0337  -20.1375 N   0  0  0  0  0  0  0  0  0  0  0  0
   20.6947   -9.7101  -15.5941 C   0  0  0  0  0  0  0  0  0  0  0  0
   20.1402  -10.4781  -14.7293 O   0  0  0  0  0  0  0  0  0  0  0  0
   24.0989   -3.3602  -16.3912 O   0  0  0  0  0  0  0  0  0  0  0  0
   23.6279   -4.3891  -15.6085 C   0  0  0  0  0  0  0  0  0  0  0  0
   23.9948   -5.6697  -15.9234 C   0  0  0  0  0  0  0  0  0  0  0  0
   23.5473   -6.7394  -15.1666 C   0  0  0  0  0  0  0  0  0  0  0  0
   22.7252   -6.4766  -14.0917 C   0  0  0  0  0  0  0  0  0  0  0  0
   22.2310   -7.6013  -13.2871 C   0  0  0  0  0  0  0  0  0  0  0  0
   20.8579   -7.9956  -13.7707 C   0  0  2  0  0  0  0  0  0  0  0  0
   21.0468   -8.4364  -15.1591 N   0  0  0  0  0  0  0  0  0  0  0  0
   19.8904   -6.8873  -13.7813 C   0  0  0  0  0  0  0  0  0  0  0  0
   19.5089   -6.3621  -12.7101 O   0  0  0  0  0  0  0  0  0  0  0  0
   22.3646   -5.1890  -13.7865 C   0  0  0  0  0  0  0  0  0  0  0  0
   22.8118   -4.1140  -14.5436 C   0  0  0  0  0  0  0  0  0  0  0  0
   19.3759   -6.3927  -14.9676 O   0  0  0  0  0  0  0  0  0  0  0  0
  1  2  1  0
  2  3  1  0
  3  5  1  0
  4  3  2  0
  5  6  1  0
  6 13  1  0
  6  7  1  6
  7  8  1  0
  8 12  1  0
  9  8  2  0
  9 10  1  0
 10 11  1  0
 12 11  2  0
 13 14  2  0
 15 16  1  0
 16 17  2  0
 17 18  1  0
 19 18  2  0
 19 20  1  0
 21 20  1  6
 22 21  1  0
 22 13  1  0
 23 21  1  0
 24 23  2  0
 25 19  1  0
 26 16  1  0
 26 25  2  0
 27 23  1  0
M  END
$$$$
