GHY.pdb
     RDKit          3D

 27 28  0  0  1  0  0  0  0  0999 V2000
   45.1065   -5.6790   -6.8027 N   0  0  0  0  0  0  0  0  0  0  0  0
   44.0008   -5.2917   -7.6205 C   0  0  0  0  0  0  0  0  0  0  0  0
   43.5460   -6.3685   -8.5349 C   0  0  0  0  0  0  0  0  0  0  0  0
   44.2324   -6.6999   -9.5600 O   0  0  0  0  0  0  0  0  0  0  0  0
   42.3430   -7.0274   -8.2624 N   0  0  0  0  0  0  0  0  0  0  0  0
   41.7654   -8.0595   -9.2020 C   0  0  1  0  0  0  0  0  0  0  0  0
   41.6731   -9.3223   -8.4117 C   0  0  0  0  0  0  0  0  0  0  0  0
   42.8627   -9.8501   -7.7654 C   0  0  0  0  0  0  0  0  0  0  0  0
   43.0311   -9.8497   -6.3790 C   0  0  0  0  0  0  0  0  0  0  0  0
   44.2146  -10.3959   -6.0946 N   0  0  0  0  0  0  0  0  0  0  0  0
   44.8204  -10.7513   -7.2556 C   0  0  0  0  0  0  0  0  0  0  0  0
   43.9768  -10.4065   -8.2268 N   0  0  0  0  0  0  0  0  0  0  0  0
   40.4588   -7.4958   -9.6114 C   0  0  0  0  0  0  0  0  0  0  0  0
   39.7908   -8.0910  -10.5304 O   0  0  0  0  0  0  0  0  0  0  0  0
   37.6865  -10.8820   -5.6138 O   0  0  0  0  0  0  0  0  0  0  0  0
   37.7042   -9.6510   -6.2281 C   0  0  0  0  0  0  0  0  0  0  0  0
   38.4911   -8.6661   -5.6945 C   0  0  0  0  0  0  0  0  0  0  0  0
   38.5433   -7.4105   -6.2759 C   0  0  0  0  0  0  0  0  0  0  0  0
   37.7824   -7.1838   -7.4028 C   0  0  0  0  0  0  0  0  0  0  0  0
   37.8161   -5.8533   -8.0236 C   0  0  0  0  0  0  0  0  0  0  0  0
   38.5036   -5.9447   -9.3629 C   0  0  2  0  0  0  0  0  0  0  0  0
   39.8824   -6.3536   -9.0648 N   0  0  0  0  0  0  0  0  0  0  0  0
   38.5634   -4.6664  -10.0889 C   0  0  0  0  0  0  0  0  0  0  0  0
   39.6651   -4.1293  -10.3469 O   0  0  0  0  0  0  0  0  0  0  0  0
   36.9979   -8.1787   -7.9278 C   0  0  0  0  0  0  0  0  0  0  0  0
   36.9434   -9.4391   -7.3471 C   0  0  0  0  0  0  0  0  0  0  0  0
   37.4117   -4.0224  -10.5079 O   0  0  0  0  0  0  0  0  0  0  0  0
  1  2  1  0
  2  3  1  0
  3  5  1  0
  4  3  2  0
  5  6  1  0
  6 13  1  0
  6  7  1  1
  7  8  1  0
  8 12  1  0
  9  8  2  0
  9 10  1  0
 10 11  1  0
 12 11  2  0
 13 14  2  0
 15 16  1  0
 16 17  2  0
 17 18  1  0
 19 18  2  0
 19 20  1  0
 21 20  1  1
 22 21  1  0
 22 13  1  0
 23 21  1  0
 24 23  2  0
 25 19  1  0
 26 16  1  0
 26 25  2  0
 27 23  1  0
M  END
$$$$
