GHY.pdb
     RDKit          3D

 27 28  0  0  1  0  0  0  0  0999 V2000
   21.6146  -13.5743  -15.7881 N   0  0  0  0  0  0  0  0  0  0  0  0
   22.5313  -14.6543  -15.6027 C   0  0  0  0  0  0  0  0  0  0  0  0
   21.8837  -15.9879  -15.6721 C   0  0  0  0  0  0  0  0  0  0  0  0
   20.6150  -16.1124  -15.5904 O   0  0  0  0  0  0  0  0  0  0  0  0
   22.6840  -17.1238  -15.8300 N   0  0  0  0  0  0  0  0  0  0  0  0
   22.0918  -18.5059  -15.9747 C   0  0  1  0  0  0  0  0  0  0  0  0
   23.0212  -19.2545  -16.8710 C   0  0  0  0  0  0  0  0  0  0  0  0
   22.9437  -19.0556  -18.3084 C   0  0  0  0  0  0  0  0  0  0  0  0
   21.9762  -18.2455  -18.9067 C   0  0  0  0  0  0  0  0  0  0  0  0
   22.1643  -18.2639  -20.2274 N   0  0  0  0  0  0  0  0  0  0  0  0
   23.2258  -19.0622  -20.5050 C   0  0  0  0  0  0  0  0  0  0  0  0
   23.6594  -19.5131  -19.3293 N   0  0  0  0  0  0  0  0  0  0  0  0
   22.0247  -19.0254  -14.5897 C   0  0  0  0  0  0  0  0  0  0  0  0
   23.0437  -18.8766  -13.8250 O   0  0  0  0  0  0  0  0  0  0  0  0
   15.1265  -17.6892  -13.0984 O   0  0  0  0  0  0  0  0  0  0  0  0
   16.4436  -17.9679  -12.8146 C   0  0  0  0  0  0  0  0  0  0  0  0
   16.7219  -18.8407  -11.7975 C   0  0  0  0  0  0  0  0  0  0  0  0
   18.0312  -19.1536  -11.4732 C   0  0  0  0  0  0  0  0  0  0  0  0
   19.0407  -18.5624  -12.2022 C   0  0  0  0  0  0  0  0  0  0  0  0
   20.4350  -18.8733  -11.8618 C   0  0  0  0  0  0  0  0  0  0  0  0
   20.8767  -20.0926  -12.6317 C   0  0  2  0  0  0  0  0  0  0  0  0
   20.9220  -19.6692  -14.0375 N   0  0  0  0  0  0  0  0  0  0  0  0
   19.9437  -21.2262  -12.5362 C   0  0  0  0  0  0  0  0  0  0  0  0
   19.3471  -21.6501  -13.5527 O   0  0  0  0  0  0  0  0  0  0  0  0
   18.7490  -17.6893  -13.2189 C   0  0  0  0  0  0  0  0  0  0  0  0
   17.4368  -17.3734  -13.5467 C   0  0  0  0  0  0  0  0  0  0  0  0
   19.6988  -21.8565  -11.3281 O   0  0  0  0  0  0  0  0  0  0  0  0
  1  2  1  0
  2  3  1  0
  3  5  1  0
  4  3  2  0
  5  6  1  0
  6 13  1  0
  6  7  1  6
  7  8  1  0
  8 12  1  0
  9  8  2  0
  9 10  1  0
 10 11  1  0
 12 11  2  0
 13 14  2  0
 15 16  1  0
 16 17  2  0
 17 18  1  0
 19 18  2  0
 19 20  1  0
 21 20  1  1
 22 21  1  0
 22 13  1  0
 23 21  1  0
 24 23  2  0
 25 19  1  0
 26 16  1  0
 26 25  2  0
 27 23  1  0
M  END
$$$$
