GHY.pdb
     RDKit          3D

 27 28  0  0  1  0  0  0  0  0999 V2000
   22.0523  -11.5241  -16.6326 N   0  0  0  0  0  0  0  0  0  0  0  0
   22.9662  -10.6577  -17.3074 C   0  0  0  0  0  0  0  0  0  0  0  0
   22.3432   -9.3874  -17.7556 C   0  0  0  0  0  0  0  0  0  0  0  0
   22.9827   -8.5594  -18.4884 O   0  0  0  0  0  0  0  0  0  0  0  0
   21.0320   -9.0993  -17.3642 N   0  0  0  0  0  0  0  0  0  0  0  0
   20.2965   -7.8796  -17.8674 C   0  0  1  0  0  0  0  0  0  0  0  0
   18.9890   -8.3787  -18.3862 C   0  0  0  0  0  0  0  0  0  0  0  0
   18.9636   -9.2188  -19.5716 C   0  0  0  0  0  0  0  0  0  0  0  0
   19.3310   -8.7516  -20.8353 C   0  0  0  0  0  0  0  0  0  0  0  0
   19.2033   -9.7498  -21.7111 N   0  0  0  0  0  0  0  0  0  0  0  0
   18.7635  -10.8523  -21.0536 C   0  0  0  0  0  0  0  0  0  0  0  0
   18.6344  -10.4886  -19.7790 N   0  0  0  0  0  0  0  0  0  0  0  0
   20.1895   -6.9982  -16.6825 C   0  0  0  0  0  0  0  0  0  0  0  0
   19.5872   -5.8722  -16.8037 O   0  0  0  0  0  0  0  0  0  0  0  0
   18.6716   -3.8776   -8.8842 O   0  0  0  0  0  0  0  0  0  0  0  0
   18.8652   -4.6543  -10.0034 C   0  0  0  0  0  0  0  0  0  0  0  0
   19.7232   -5.7175   -9.9199 C   0  0  0  0  0  0  0  0  0  0  0  0
   19.9517   -6.5292  -11.0182 C   0  0  0  0  0  0  0  0  0  0  0  0
   19.2920   -6.2353  -12.1923 C   0  0  0  0  0  0  0  0  0  0  0  0
   19.5338   -7.0784  -13.3702 C   0  0  0  0  0  0  0  0  0  0  0  0
   20.5360   -6.4015  -14.2712 C   0  0  2  0  0  0  0  0  0  0  0  0
   20.6938   -7.3008  -15.4217 N   0  0  0  0  0  0  0  0  0  0  0  0
   21.8615   -6.2233  -13.6581 C   0  0  0  0  0  0  0  0  0  0  0  0
   22.7200   -7.1334  -13.7166 O   0  0  0  0  0  0  0  0  0  0  0  0
   18.4348   -5.1670  -12.2633 C   0  0  0  0  0  0  0  0  0  0  0  0
   18.2035   -4.3510  -11.1635 C   0  0  0  0  0  0  0  0  0  0  0  0
   22.1994   -5.0514  -13.0029 O   0  0  0  0  0  0  0  0  0  0  0  0
  1  2  1  0
  2  3  1  0
  3  5  1  0
  4  3  2  0
  5  6  1  0
  6 13  1  0
  6  7  1  1
  7  8  1  0
  8 12  1  0
  9  8  2  0
  9 10  1  0
 10 11  1  0
 12 11  2  0
 13 14  2  0
 15 16  1  0
 16 17  2  0
 17 18  1  0
 19 18  2  0
 19 20  1  0
 21 20  1  1
 22 21  1  0
 22 13  1  0
 23 21  1  0
 24 23  2  0
 25 19  1  0
 26 16  1  0
 26 25  2  0
 27 23  1  0
M  END
$$$$
