GHY.pdb
     RDKit          3D

 27 28  0  0  1  0  0  0  0  0999 V2000
   26.7440  -21.0262  -10.7710 N   0  0  0  0  0  0  0  0  0  0  0  0
   26.7380  -21.4388  -12.1389 C   0  0  0  0  0  0  0  0  0  0  0  0
   26.1009  -20.4499  -13.0438 C   0  0  0  0  0  0  0  0  0  0  0  0
   25.7729  -19.2876  -12.6279 O   0  0  0  0  0  0  0  0  0  0  0  0
   25.8589  -20.8049  -14.3746 N   0  0  0  0  0  0  0  0  0  0  0  0
   25.3564  -19.8061  -15.3904 C   0  0  1  0  0  0  0  0  0  0  0  0
   26.1669  -20.0367  -16.6224 C   0  0  0  0  0  0  0  0  0  0  0  0
   27.2871  -19.1590  -16.9163 C   0  0  0  0  0  0  0  0  0  0  0  0
   27.6116  -18.0580  -16.1208 C   0  0  0  0  0  0  0  0  0  0  0  0
   28.6804  -17.4555  -16.6448 N   0  0  0  0  0  0  0  0  0  0  0  0
   29.0599  -18.1326  -17.7578 C   0  0  0  0  0  0  0  0  0  0  0  0
   28.1996  -19.1418  -17.8810 N   0  0  0  0  0  0  0  0  0  0  0  0
   23.9168  -20.1204  -15.5361 C   0  0  0  0  0  0  0  0  0  0  0  0
   23.5213  -21.3195  -15.3105 O   0  0  0  0  0  0  0  0  0  0  0  0
   16.9804  -18.3082  -11.1881 O   0  0  0  0  0  0  0  0  0  0  0  0
   18.1890  -18.4705  -11.8252 C   0  0  0  0  0  0  0  0  0  0  0  0
   18.7356  -17.3954  -12.4726 C   0  0  0  0  0  0  0  0  0  0  0  0
   19.9498  -17.5079  -13.1285 C   0  0  0  0  0  0  0  0  0  0  0  0
   20.5882  -18.7295  -13.1097 C   0  0  0  0  0  0  0  0  0  0  0  0
   21.8703  -18.8689  -13.8122 C   0  0  0  0  0  0  0  0  0  0  0  0
   21.6120  -19.1684  -15.2676 C   0  0  2  0  0  0  0  0  0  0  0  0
   22.9379  -19.2008  -15.8988 N   0  0  0  0  0  0  0  0  0  0  0  0
   20.8152  -18.1394  -15.9539 C   0  0  0  0  0  0  0  0  0  0  0  0
   21.3681  -17.1374  -16.4629 O   0  0  0  0  0  0  0  0  0  0  0  0
   20.0302  -19.7993  -12.4576 C   0  0  0  0  0  0  0  0  0  0  0  0
   18.8125  -19.6897  -11.7988 C   0  0  0  0  0  0  0  0  0  0  0  0
   19.4390  -18.2466  -16.0590 O   0  0  0  0  0  0  0  0  0  0  0  0
  1  2  1  0
  2  3  1  0
  3  5  1  0
  4  3  2  0
  5  6  1  0
  6 13  1  0
  6  7  1  6
  7  8  1  0
  8 12  1  0
  9  8  2  0
  9 10  1  0
 10 11  1  0
 12 11  2  0
 13 14  2  0
 15 16  1  0
 16 17  2  0
 17 18  1  0
 19 18  2  0
 19 20  1  0
 21 20  1  1
 22 21  1  0
 22 13  1  0
 23 21  1  0
 24 23  2  0
 25 19  1  0
 26 16  1  0
 26 25  2  0
 27 23  1  0
M  END
$$$$
