GHY.pdb
     RDKit          3D

 27 28  0  0  1  0  0  0  0  0999 V2000
   34.6935  -25.4073  -15.1589 N   0  0  0  0  0  0  0  0  0  0  0  0
   33.2773  -25.5053  -15.3203 C   0  0  0  0  0  0  0  0  0  0  0  0
   32.7446  -24.5943  -16.3639 C   0  0  0  0  0  0  0  0  0  0  0  0
   33.4523  -24.2580  -17.3727 O   0  0  0  0  0  0  0  0  0  0  0  0
   31.4432  -24.0995  -16.2329 N   0  0  0  0  0  0  0  0  0  0  0  0
   30.8124  -23.2186  -17.2856 C   0  0  1  0  0  0  0  0  0  0  0  0
   30.7937  -24.0311  -18.5375 C   0  0  0  0  0  0  0  0  0  0  0  0
   30.1415  -23.5024  -19.7235 C   0  0  0  0  0  0  0  0  0  0  0  0
   30.7629  -22.5963  -20.5855 C   0  0  0  0  0  0  0  0  0  0  0  0
   29.9164  -22.3007  -21.5734 N   0  0  0  0  0  0  0  0  0  0  0  0
   28.7629  -22.9883  -21.3788 C   0  0  0  0  0  0  0  0  0  0  0  0
   28.9427  -23.6923  -20.2627 N   0  0  0  0  0  0  0  0  0  0  0  0
   29.4726  -22.8972  -16.7434 C   0  0  0  0  0  0  0  0  0  0  0  0
   28.8620  -23.7817  -16.0434 O   0  0  0  0  0  0  0  0  0  0  0  0
   28.8620  -16.3268  -19.7149 O   0  0  0  0  0  0  0  0  0  0  0  0
   28.5825  -17.2463  -18.7303 C   0  0  0  0  0  0  0  0  0  0  0  0
   27.2723  -17.4929  -18.4200 C   0  0  0  0  0  0  0  0  0  0  0  0
   26.9394  -18.4093  -17.4368 C   0  0  0  0  0  0  0  0  0  0  0  0
   27.9624  -19.0623  -16.7833 C   0  0  0  0  0  0  0  0  0  0  0  0
   27.6264  -20.0273  -15.7285 C   0  0  0  0  0  0  0  0  0  0  0  0
   27.5002  -21.4034  -16.3327 C   0  0  2  0  0  0  0  0  0  0  0  0
   28.8117  -21.6872  -16.9299 N   0  0  0  0  0  0  0  0  0  0  0  0
   26.4933  -21.4932  -17.4017 C   0  0  0  0  0  0  0  0  0  0  0  0
   26.8391  -21.6821  -18.5907 O   0  0  0  0  0  0  0  0  0  0  0  0
   29.2713  -18.8064  -17.1032 C   0  0  0  0  0  0  0  0  0  0  0  0
   29.6086  -17.8879  -18.0889 C   0  0  0  0  0  0  0  0  0  0  0  0
   25.1414  -21.3740  -17.1285 O   0  0  0  0  0  0  0  0  0  0  0  0
  1  2  1  0
  2  3  1  0
  3  5  1  0
  4  3  2  0
  5  6  1  0
  6 13  1  0
  6  7  1  6
  7  8  1  0
  8 12  1  0
  9  8  2  0
  9 10  1  0
 10 11  1  0
 12 11  2  0
 13 14  2  0
 15 16  1  0
 16 17  2  0
 17 18  1  0
 19 18  2  0
 19 20  1  0
 21 20  1  6
 22 21  1  0
 22 13  1  0
 23 21  1  0
 24 23  2  0
 25 19  1  0
 26 16  1  0
 26 25  2  0
 27 23  1  0
M  END
$$$$
