GHY.pdb
     RDKit          3D

 27 28  0  0  1  0  0  0  0  0999 V2000
   25.2240  -24.4194  -15.6712 N   0  0  0  0  0  0  0  0  0  0  0  0
   24.6719  -23.3644  -14.8817 C   0  0  0  0  0  0  0  0  0  0  0  0
   25.7049  -22.5265  -14.2231 C   0  0  0  0  0  0  0  0  0  0  0  0
   26.9346  -22.8721  -14.2211 O   0  0  0  0  0  0  0  0  0  0  0  0
   25.3165  -21.3387  -13.5955 N   0  0  0  0  0  0  0  0  0  0  0  0
   26.3107  -20.4397  -12.8989 C   0  0  1  0  0  0  0  0  0  0  0  0
   25.8586  -19.0440  -13.1734 C   0  0  0  0  0  0  0  0  0  0  0  0
   26.3282  -18.3618  -14.3674 C   0  0  0  0  0  0  0  0  0  0  0  0
   27.5911  -18.5892  -14.9186 C   0  0  0  0  0  0  0  0  0  0  0  0
   27.7269  -17.8209  -16.0008 N   0  0  0  0  0  0  0  0  0  0  0  0
   26.5892  -17.1008  -16.1692 C   0  0  0  0  0  0  0  0  0  0  0  0
   25.7824  -17.4562  -15.1709 N   0  0  0  0  0  0  0  0  0  0  0  0
   26.2355  -20.8395  -11.4753 C   0  0  0  0  0  0  0  0  0  0  0  0
   25.1534  -21.3740  -11.0410 O   0  0  0  0  0  0  0  0  0  0  0  0
   28.1098  -19.7466   -3.1248 O   0  0  0  0  0  0  0  0  0  0  0  0
   28.1950  -20.0189   -4.4707 C   0  0  0  0  0  0  0  0  0  0  0  0
   28.8125  -21.1751   -4.8653 C   0  0  0  0  0  0  0  0  0  0  0  0
   28.9236  -21.4942   -6.2081 C   0  0  0  0  0  0  0  0  0  0  0  0
   28.3960  -20.6165   -7.1308 C   0  0  0  0  0  0  0  0  0  0  0  0
   28.5176  -20.9338   -8.5595 C   0  0  0  0  0  0  0  0  0  0  0  0
   27.1412  -21.1055   -9.1515 C   0  0  2  0  0  0  0  0  0  0  0  0
   27.2660  -20.6854  -10.5534 N   0  0  0  0  0  0  0  0  0  0  0  0
   26.1136  -20.2615   -8.5218 C   0  0  0  0  0  0  0  0  0  0  0  0
   25.9920  -19.0568   -8.8422 O   0  0  0  0  0  0  0  0  0  0  0  0
   27.7797  -19.4611   -6.7229 C   0  0  0  0  0  0  0  0  0  0  0  0
   27.6666  -19.1382   -5.3768 C   0  0  0  0  0  0  0  0  0  0  0  0
   25.2540  -20.7695   -7.5629 O   0  0  0  0  0  0  0  0  0  0  0  0
  1  2  1  0
  2  3  1  0
  3  5  1  0
  4  3  2  0
  5  6  1  0
  6 13  1  0
  6  7  1  1
  7  8  1  0
  8 12  1  0
  9  8  2  0
  9 10  1  0
 10 11  1  0
 12 11  2  0
 13 14  2  0
 15 16  1  0
 16 17  2  0
 17 18  1  0
 19 18  2  0
 19 20  1  0
 21 20  1  1
 22 21  1  0
 22 13  1  0
 23 21  1  0
 24 23  2  0
 25 19  1  0
 26 16  1  0
 26 25  2  0
 27 23  1  0
M  END
$$$$
