GHY.pdb
     RDKit          3D

 27 28  0  0  1  0  0  0  0  0999 V2000
   20.9453  -34.9334   -4.2095 N   0  0  0  0  0  0  0  0  0  0  0  0
   21.6571  -33.6973   -4.1290 C   0  0  0  0  0  0  0  0  0  0  0  0
   23.1310  -33.8720   -4.1237 C   0  0  0  0  0  0  0  0  0  0  0  0
   23.6594  -35.0349   -4.1169 O   0  0  0  0  0  0  0  0  0  0  0  0
   23.9490  -32.7378   -4.1262 N   0  0  0  0  0  0  0  0  0  0  0  0
   25.4557  -32.8379   -4.0872 C   0  0  1  0  0  0  0  0  0  0  0  0
   25.9532  -31.8893   -5.1266 C   0  0  0  0  0  0  0  0  0  0  0  0
   26.1525  -32.3592   -6.4871 C   0  0  0  0  0  0  0  0  0  0  0  0
   26.0082  -33.6998   -6.8509 C   0  0  0  0  0  0  0  0  0  0  0  0
   26.2539  -33.8144   -8.1571 N   0  0  0  0  0  0  0  0  0  0  0  0
   26.5539  -32.5874   -8.6531 C   0  0  0  0  0  0  0  0  0  0  0  0
   26.4810  -31.7497   -7.6204 N   0  0  0  0  0  0  0  0  0  0  0  0
   25.8142  -32.4689   -2.6987 C   0  0  0  0  0  0  0  0  0  0  0  0
   25.4049  -31.3458   -2.2337 O   0  0  0  0  0  0  0  0  0  0  0  0
   26.3491  -30.5249    5.2931 O   0  0  0  0  0  0  0  0  0  0  0  0
   26.1336  -31.0307    4.0318 C   0  0  0  0  0  0  0  0  0  0  0  0
   26.5670  -32.2990    3.7539 C   0  0  0  0  0  0  0  0  0  0  0  0
   26.3739  -32.8529    2.4996 C   0  0  0  0  0  0  0  0  0  0  0  0
   25.7350  -32.0920    1.5442 C   0  0  0  0  0  0  0  0  0  0  0  0
   25.5345  -32.6599    0.2048 C   0  0  0  0  0  0  0  0  0  0  0  0
   26.8742  -32.8576   -0.4591 C   0  0  2  0  0  0  0  0  0  0  0  0
   26.5687  -33.2600   -1.8383 N   0  0  0  0  0  0  0  0  0  0  0  0
   27.6870  -33.9233    0.1479 C   0  0  0  0  0  0  0  0  0  0  0  0
   27.3970  -35.1285   -0.0314 O   0  0  0  0  0  0  0  0  0  0  0  0
   25.3055  -30.8223    1.8349 C   0  0  0  0  0  0  0  0  0  0  0  0
   25.4977  -30.2638    3.0919 C   0  0  0  0  0  0  0  0  0  0  0  0
   28.7910  -33.6292    0.9297 O   0  0  0  0  0  0  0  0  0  0  0  0
  1  2  1  0
  2  3  1  0
  3  5  1  0
  4  3  2  0
  5  6  1  0
  6 13  1  0
  6  7  1  6
  7  8  1  0
  8 12  1  0
  9  8  2  0
  9 10  1  0
 10 11  1  0
 12 11  2  0
 13 14  2  0
 15 16  1  0
 16 17  2  0
 17 18  1  0
 19 18  2  0
 19 20  1  0
 21 20  1  1
 22 21  1  0
 22 13  1  0
 23 21  1  0
 24 23  2  0
 25 19  1  0
 26 16  1  0
 26 25  2  0
 27 23  1  0
M  END
$$$$
