HDF.pdb
     RDKit          3D

 30 31  0  0  1  0  0  0  0  0999 V2000
   17.9338  -11.3416  -21.6252 N   0  0  0  0  0  0  0  0  0  0  0  0
   17.2701  -10.3950  -20.7305 C   0  0  1  0  0  0  0  0  0  0  0  0
   16.4442  -11.1996  -19.7840 C   0  0  0  0  0  0  0  0  0  0  0  0
   17.2493  -12.1067  -18.9430 C   0  0  0  0  0  0  0  0  0  0  0  0
   17.7580  -11.8651  -17.6869 C   0  0  0  0  0  0  0  0  0  0  0  0
   18.4382  -12.9409  -17.2521 N   0  0  0  0  0  0  0  0  0  0  0  0
   18.3601  -13.8567  -18.2263 C   0  0  0  0  0  0  0  0  0  0  0  0
   17.6381  -13.3535  -19.2562 N   0  0  0  0  0  0  0  0  0  0  0  0
   18.2980   -9.5460  -20.0927 C   0  0  0  0  0  0  0  0  0  0  0  0
   19.4754   -9.9966  -20.0103 O   0  0  0  0  0  0  0  0  0  0  0  0
   18.0408   -8.2552  -19.5719 N   0  0  0  0  0  0  0  0  0  0  0  0
   19.1483   -7.5272  -18.9218 C   0  0  1  0  0  0  0  0  0  0  0  0
   18.9995   -6.0605  -19.3090 C   0  0  0  0  0  0  0  0  0  0  0  0
   20.0699   -5.2542  -18.7545 C   0  0  0  0  0  0  0  0  0  0  0  0
   20.9415   -5.7033  -17.9905 O   0  0  0  0  0  0  0  0  0  0  0  0
   19.1055   -7.7479  -17.4755 C   0  0  0  0  0  0  0  0  0  0  0  0
   18.0264   -7.7559  -16.8545 O   0  0  0  0  0  0  0  0  0  0  0  0
   20.1562   -3.8929  -19.0765 O   0  0  0  0  0  0  0  0  0  0  0  0
   20.2647   -7.9723  -16.6479 N   0  0  0  0  0  0  0  0  0  0  0  0
   20.1865   -8.1602  -15.2382 C   0  0  1  0  0  0  0  0  0  0  0  0
   20.3434   -9.5670  -14.7815 C   0  0  0  0  0  0  0  0  0  0  0  0
   21.6486  -10.1598  -15.0780 C   0  0  0  0  0  0  0  0  0  0  0  0
   22.6770  -10.1217  -14.1664 C   0  0  0  0  0  0  0  0  0  0  0  0
   23.9190  -10.6792  -14.4388 C   0  0  0  0  0  0  0  0  0  0  0  0
   24.1562  -11.2922  -15.6434 C   0  0  0  0  0  0  0  0  0  0  0  0
   23.1500  -11.3420  -16.5632 C   0  0  0  0  0  0  0  0  0  0  0  0
   21.9017  -10.7785  -16.2822 C   0  0  0  0  0  0  0  0  0  0  0  0
   21.0900   -7.2714  -14.4494 C   0  0  0  0  0  0  0  0  0  0  0  0
   22.0097   -6.6239  -15.0028 O   0  0  0  0  0  0  0  0  0  0  0  0
   20.9498   -7.1258  -13.0752 O   0  0  0  0  0  0  0  0  0  0  0  0
  2  1  1  6
  2  9  1  0
  2  3  1  0
  3  4  1  0
  4  5  2  0
  4  8  1  0
  5  6  1  0
  6  7  1  0
  8  7  2  0
  9 10  2  0
 11 12  1  0
 11  9  1  0
 12 13  1  1
 13 14  1  0
 14 18  1  0
 14 15  2  0
 16 17  2  0
 16 12  1  0
 19 16  1  0
 20 21  1  6
 20 19  1  0
 22 27  1  0
 22 21  1  0
 23 22  2  0
 24 25  2  0
 24 23  1  0
 25 26  1  0
 26 27  2  0
 28 20  1  0
 28 30  1  0
 29 28  2  0
M  END
$$$$
