HDF.pdb
     RDKit          3D

 30 31  0  0  1  0  0  0  0  0999 V2000
   28.1867  -20.8634  -15.9076 N   0  0  0  0  0  0  0  0  0  0  0  0
   27.9067  -21.6637  -14.7168 C   0  0  1  0  0  0  0  0  0  0  0  0
   29.2180  -21.9361  -14.0597 C   0  0  0  0  0  0  0  0  0  0  0  0
   30.0569  -22.8852  -14.8171 C   0  0  0  0  0  0  0  0  0  0  0  0
   29.7651  -23.5032  -16.0121 C   0  0  0  0  0  0  0  0  0  0  0  0
   30.7860  -24.2980  -16.3795 N   0  0  0  0  0  0  0  0  0  0  0  0
   31.7172  -24.1835  -15.4237 C   0  0  0  0  0  0  0  0  0  0  0  0
   31.2779  -23.3254  -14.4719 N   0  0  0  0  0  0  0  0  0  0  0  0
   26.9292  -20.9388  -13.8783 C   0  0  0  0  0  0  0  0  0  0  0  0
   26.9007  -19.6779  -13.9516 O   0  0  0  0  0  0  0  0  0  0  0  0
   26.0198  -21.5756  -13.0001 N   0  0  0  0  0  0  0  0  0  0  0  0
   25.0102  -20.7464  -12.3130 C   0  0  1  0  0  0  0  0  0  0  0  0
   23.6539  -21.3859  -12.5865 C   0  0  0  0  0  0  0  0  0  0  0  0
   22.5810  -20.6477  -11.9483 C   0  0  0  0  0  0  0  0  0  0  0  0
   21.6228  -21.1912  -11.3724 O   0  0  0  0  0  0  0  0  0  0  0  0
   25.3279  -20.6581  -10.8870 C   0  0  0  0  0  0  0  0  0  0  0  0
   24.5350  -20.1396  -10.0790 O   0  0  0  0  0  0  0  0  0  0  0  0
   22.5940  -19.2463  -11.9625 O   0  0  0  0  0  0  0  0  0  0  0  0
   26.5461  -21.1451  -10.2890 N   0  0  0  0  0  0  0  0  0  0  0  0
   26.8071  -21.0712   -8.8907 C   0  0  1  0  0  0  0  0  0  0  0  0
   28.0368  -20.3214   -8.5192 C   0  0  0  0  0  0  0  0  0  0  0  0
   28.2737  -20.2189   -7.0782 C   0  0  0  0  0  0  0  0  0  0  0  0
   28.9385  -21.2054   -6.3892 C   0  0  0  0  0  0  0  0  0  0  0  0
   29.1664  -21.1185   -5.0224 C   0  0  0  0  0  0  0  0  0  0  0  0
   28.7274  -20.0292   -4.3127 C   0  0  0  0  0  0  0  0  0  0  0  0
   28.0654  -19.0379   -4.9760 C   0  0  0  0  0  0  0  0  0  0  0  0
   27.8394  -19.1319   -6.3525 C   0  0  0  0  0  0  0  0  0  0  0  0
   25.6550  -20.5833   -8.0762 C   0  0  0  0  0  0  0  0  0  0  0  0
   25.1039  -19.4848   -8.3229 O   0  0  0  0  0  0  0  0  0  0  0  0
   25.1483  -21.3233   -7.0156 O   0  0  0  0  0  0  0  0  0  0  0  0
  2  1  1  6
  2  9  1  0
  2  3  1  0
  3  4  1  0
  4  5  2  0
  4  8  1  0
  5  6  1  0
  6  7  1  0
  8  7  2  0
  9 10  2  0
 11 12  1  0
 11  9  1  0
 12 13  1  1
 13 14  1  0
 14 18  1  0
 14 15  2  0
 16 17  2  0
 16 12  1  0
 19 16  1  0
 20 21  1  6
 20 19  1  0
 22 27  1  0
 22 21  1  0
 23 22  2  0
 24 25  2  0
 24 23  1  0
 25 26  1  0
 26 27  2  0
 28 20  1  0
 28 30  1  0
 29 28  2  0
M  END
$$$$
