HDF.pdb
     RDKit          3D

 30 31  0  0  1  0  0  0  0  0999 V2000
   23.3397  -14.2899  -18.9473 N   0  0  0  0  0  0  0  0  0  0  0  0
   21.9947  -13.8251  -18.6127 C   0  0  1  0  0  0  0  0  0  0  0  0
   21.5760  -14.5589  -17.3832 C   0  0  0  0  0  0  0  0  0  0  0  0
   21.2287  -15.9696  -17.6432 C   0  0  0  0  0  0  0  0  0  0  0  0
   21.9040  -16.8746  -18.4305 C   0  0  0  0  0  0  0  0  0  0  0  0
   21.2705  -18.0609  -18.4134 N   0  0  0  0  0  0  0  0  0  0  0  0
   20.2019  -17.9075  -17.6206 C   0  0  0  0  0  0  0  0  0  0  0  0
   20.1728  -16.6374  -17.1502 N   0  0  0  0  0  0  0  0  0  0  0  0
   22.0216  -12.3534  -18.4802 C   0  0  0  0  0  0  0  0  0  0  0  0
   23.1106  -11.8049  -18.1495 O   0  0  0  0  0  0  0  0  0  0  0  0
   20.8987  -11.5218  -18.7062 N   0  0  0  0  0  0  0  0  0  0  0  0
   21.0692  -10.0613  -18.5756 C   0  0  1  0  0  0  0  0  0  0  0  0
   20.0635   -9.4136  -19.5201 C   0  0  0  0  0  0  0  0  0  0  0  0
   20.1240   -7.9663  -19.4481 C   0  0  0  0  0  0  0  0  0  0  0  0
   19.1188   -7.2421  -19.3476 O   0  0  0  0  0  0  0  0  0  0  0  0
   20.8863   -9.6635  -17.1790 C   0  0  0  0  0  0  0  0  0  0  0  0
   19.9908  -10.1669  -16.4755 O   0  0  0  0  0  0  0  0  0  0  0  0
   21.3655   -7.3173  -19.4910 O   0  0  0  0  0  0  0  0  0  0  0  0
   21.6940   -8.6842  -16.4952 N   0  0  0  0  0  0  0  0  0  0  0  0
   21.4481   -8.2771  -15.1526 C   0  0  1  0  0  0  0  0  0  0  0  0
   22.3262   -8.9103  -14.1326 C   0  0  0  0  0  0  0  0  0  0  0  0
   23.5922   -9.4257  -14.6566 C   0  0  0  0  0  0  0  0  0  0  0  0
   24.3579   -8.6916  -15.5311 C   0  0  0  0  0  0  0  0  0  0  0  0
   25.5589   -9.1723  -16.0352 C   0  0  0  0  0  0  0  0  0  0  0  0
   26.0201  -10.4115  -15.6682 C   0  0  0  0  0  0  0  0  0  0  0  0
   25.2766  -11.1575  -14.8012 C   0  0  0  0  0  0  0  0  0  0  0  0
   24.0681  -10.6672  -14.2974 C   0  0  0  0  0  0  0  0  0  0  0  0
   21.4309   -6.7978  -14.9531 C   0  0  0  0  0  0  0  0  0  0  0  0
   21.8376   -6.0170  -15.8454 O   0  0  0  0  0  0  0  0  0  0  0  0
   20.9655   -6.2276  -13.7751 O   0  0  0  0  0  0  0  0  0  0  0  0
  2  1  1  1
  2  9  1  0
  2  3  1  0
  3  4  1  0
  4  5  2  0
  4  8  1  0
  5  6  1  0
  6  7  1  0
  8  7  2  0
  9 10  2  0
 11 12  1  0
 11  9  1  0
 12 13  1  6
 13 14  1  0
 14 18  1  0
 14 15  2  0
 16 17  2  0
 16 12  1  0
 19 16  1  0
 20 21  1  1
 20 19  1  0
 22 27  1  0
 22 21  1  0
 23 22  2  0
 24 25  2  0
 24 23  1  0
 25 26  1  0
 26 27  2  0
 28 20  1  0
 28 30  1  0
 29 28  2  0
M  END
$$$$
