HDF.pdb
     RDKit          3D

 30 31  0  0  1  0  0  0  0  0999 V2000
   24.0497  -22.5688  -16.1749 N   0  0  0  0  0  0  0  0  0  0  0  0
   25.2263  -21.7209  -16.3580 C   0  0  1  0  0  0  0  0  0  0  0  0
   25.4977  -21.0671  -15.0449 C   0  0  0  0  0  0  0  0  0  0  0  0
   24.3905  -20.2036  -14.5904 C   0  0  0  0  0  0  0  0  0  0  0  0
   23.5031  -20.4378  -13.5643 C   0  0  0  0  0  0  0  0  0  0  0  0
   22.6391  -19.4122  -13.4613 N   0  0  0  0  0  0  0  0  0  0  0  0
   22.9776  -18.5353  -14.4154 C   0  0  0  0  0  0  0  0  0  0  0  0
   24.0420  -19.0127  -15.1041 N   0  0  0  0  0  0  0  0  0  0  0  0
   26.3318  -22.5515  -16.8799 C   0  0  0  0  0  0  0  0  0  0  0  0
   26.4700  -23.7186  -16.4166 O   0  0  0  0  0  0  0  0  0  0  0  0
   27.2429  -22.1164  -17.8720 N   0  0  0  0  0  0  0  0  0  0  0  0
   28.2407  -23.0789  -18.3791 C   0  0  1  0  0  0  0  0  0  0  0  0
   28.5176  -22.7037  -19.8303 C   0  0  0  0  0  0  0  0  0  0  0  0
   27.3866  -23.0138  -20.6835 C   0  0  0  0  0  0  0  0  0  0  0  0
   26.9838  -22.2625  -21.5881 O   0  0  0  0  0  0  0  0  0  0  0  0
   29.4372  -23.0432  -17.5369 C   0  0  0  0  0  0  0  0  0  0  0  0
   29.9611  -21.9639  -17.2037 O   0  0  0  0  0  0  0  0  0  0  0  0
   26.6884  -24.2161  -20.5063 O   0  0  0  0  0  0  0  0  0  0  0  0
   30.1099  -24.2099  -17.0220 N   0  0  0  0  0  0  0  0  0  0  0  0
   31.3365  -24.1428  -16.3011 C   0  0  1  0  0  0  0  0  0  0  0  0
   31.2726  -24.6462  -14.9029 C   0  0  0  0  0  0  0  0  0  0  0  0
   32.5253  -24.5240  -14.1555 C   0  0  0  0  0  0  0  0  0  0  0  0
   32.8013  -23.4119  -13.3959 C   0  0  0  0  0  0  0  0  0  0  0  0
   33.9872  -23.2857  -12.6850 C   0  0  0  0  0  0  0  0  0  0  0  0
   34.9292  -24.2828  -12.7226 C   0  0  0  0  0  0  0  0  0  0  0  0
   34.6764  -25.3958  -13.4698 C   0  0  0  0  0  0  0  0  0  0  0  0
   33.4801  -25.5163  -14.1831 C   0  0  0  0  0  0  0  0  0  0  0  0
   32.4976  -24.7620  -17.0061 C   0  0  0  0  0  0  0  0  0  0  0  0
   32.4085  -25.8960  -17.5327 O   0  0  0  0  0  0  0  0  0  0  0  0
   33.7198  -24.1098  -17.1073 O   0  0  0  0  0  0  0  0  0  0  0  0
  2  1  1  1
  2  9  1  0
  2  3  1  0
  3  4  1  0
  4  5  2  0
  4  8  1  0
  5  6  1  0
  6  7  1  0
  8  7  2  0
  9 10  2  0
 11 12  1  0
 11  9  1  0
 12 13  1  6
 13 14  1  0
 14 18  1  0
 14 15  2  0
 16 17  2  0
 16 12  1  0
 19 16  1  0
 20 21  1  1
 20 19  1  0
 22 27  1  0
 22 21  1  0
 23 22  2  0
 24 25  2  0
 24 23  1  0
 25 26  1  0
 26 27  2  0
 28 20  1  0
 28 30  1  0
 29 28  2  0
M  END
$$$$
