HDF.pdb
     RDKit          3D

 30 31  0  0  1  0  0  0  0  0999 V2000
   22.5629  -15.5392  -18.1896 N   0  0  0  0  0  0  0  0  0  0  0  0
   21.5308  -14.5158  -18.0335 C   0  0  1  0  0  0  0  0  0  0  0  0
   20.8747  -14.7595  -16.7162 C   0  0  0  0  0  0  0  0  0  0  0  0
   19.9121  -15.8777  -16.7490 C   0  0  0  0  0  0  0  0  0  0  0  0
   20.1014  -17.1685  -16.3098 C   0  0  0  0  0  0  0  0  0  0  0  0
   18.9852  -17.8911  -16.5124 N   0  0  0  0  0  0  0  0  0  0  0  0
   18.0959  -17.0630  -17.0758 C   0  0  0  0  0  0  0  0  0  0  0  0
   18.6554  -15.8378  -17.2213 N   0  0  0  0  0  0  0  0  0  0  0  0
   22.1574  -13.1853  -18.1800 C   0  0  0  0  0  0  0  0  0  0  0  0
   23.2786  -12.9912  -17.6310 O   0  0  0  0  0  0  0  0  0  0  0  0
   21.5759  -12.1164  -18.9031 N   0  0  0  0  0  0  0  0  0  0  0  0
   22.3010  -10.8319  -18.9612 C   0  0  1  0  0  0  0  0  0  0  0  0
   21.7805  -10.0865  -20.1847 C   0  0  0  0  0  0  0  0  0  0  0  0
   22.2490  -10.6945  -21.4152 C   0  0  0  0  0  0  0  0  0  0  0  0
   21.5442  -11.4286  -22.1290 O   0  0  0  0  0  0  0  0  0  0  0  0
   22.1053  -10.0949  -17.7119 C   0  0  0  0  0  0  0  0  0  0  0  0
   21.2482  -10.4479  -16.8806 O   0  0  0  0  0  0  0  0  0  0  0  0
   23.5603  -10.4629  -21.8524 O   0  0  0  0  0  0  0  0  0  0  0  0
   22.8569   -8.9267  -17.3253 N   0  0  0  0  0  0  0  0  0  0  0  0
   22.6821   -8.2717  -16.0726 C   0  0  1  0  0  0  0  0  0  0  0  0
   23.1811   -9.0274  -14.8927 C   0  0  0  0  0  0  0  0  0  0  0  0
   24.4845   -9.6651  -15.0866 C   0  0  0  0  0  0  0  0  0  0  0  0
   25.4884   -9.0445  -15.7916 C   0  0  0  0  0  0  0  0  0  0  0  0
   26.7271   -9.6417  -15.9827 C   0  0  0  0  0  0  0  0  0  0  0  0
   26.9857  -10.8860  -15.4651 C   0  0  0  0  0  0  0  0  0  0  0  0
   26.0041  -11.5206  -14.7618 C   0  0  0  0  0  0  0  0  0  0  0  0
   24.7590  -10.9133  -14.5731 C   0  0  0  0  0  0  0  0  0  0  0  0
   23.2049   -6.8739  -16.0326 C   0  0  0  0  0  0  0  0  0  0  0  0
   23.9225   -6.4219  -16.9556 O   0  0  0  0  0  0  0  0  0  0  0  0
   22.9191   -6.0199  -14.9751 O   0  0  0  0  0  0  0  0  0  0  0  0
  2  1  1  1
  2  9  1  0
  2  3  1  0
  3  4  1  0
  4  5  2  0
  4  8  1  0
  5  6  1  0
  6  7  1  0
  8  7  2  0
  9 10  2  0
 11 12  1  0
 11  9  1  0
 12 13  1  6
 13 14  1  0
 14 18  1  0
 14 15  2  0
 16 17  2  0
 16 12  1  0
 19 16  1  0
 20 21  1  1
 20 19  1  0
 22 27  1  0
 22 21  1  0
 23 22  2  0
 24 25  2  0
 24 23  1  0
 25 26  1  0
 26 27  2  0
 28 20  1  0
 28 30  1  0
 29 28  2  0
M  END
$$$$
