HDF.pdb
     RDKit          3D

 30 31  0  0  1  0  0  0  0  0999 V2000
   23.5398  -11.6478  -21.1914 N   0  0  0  0  0  0  0  0  0  0  0  0
   22.4123  -10.7348  -21.0118 C   0  0  1  0  0  0  0  0  0  0  0  0
   21.2485  -11.5628  -20.5814 C   0  0  0  0  0  0  0  0  0  0  0  0
   20.7047  -12.4022  -21.6667 C   0  0  0  0  0  0  0  0  0  0  0  0
   21.0451  -13.6977  -21.9841 C   0  0  0  0  0  0  0  0  0  0  0  0
   20.3259  -14.1159  -23.0409 N   0  0  0  0  0  0  0  0  0  0  0  0
   19.5358  -13.0921  -23.3895 C   0  0  0  0  0  0  0  0  0  0  0  0
   19.7629  -12.0482  -22.5564 N   0  0  0  0  0  0  0  0  0  0  0  0
   22.8080   -9.6753  -20.0604 C   0  0  0  0  0  0  0  0  0  0  0  0
   23.6275   -9.9717  -19.1458 O   0  0  0  0  0  0  0  0  0  0  0  0
   22.3247   -8.3460  -20.1166 N   0  0  0  0  0  0  0  0  0  0  0  0
   22.7799   -7.3897  -19.0884 C   0  0  1  0  0  0  0  0  0  0  0  0
   22.5271   -5.9925  -19.6426 C   0  0  0  0  0  0  0  0  0  0  0  0
   23.4836   -5.6515  -20.6782 C   0  0  0  0  0  0  0  0  0  0  0  0
   23.1762   -5.5025  -21.8733 O   0  0  0  0  0  0  0  0  0  0  0  0
   22.0793   -7.6447  -17.8289 C   0  0  0  0  0  0  0  0  0  0  0  0
   20.8606   -7.8992  -17.8071 O   0  0  0  0  0  0  0  0  0  0  0  0
   24.8341   -5.4729  -20.3488 O   0  0  0  0  0  0  0  0  0  0  0  0
   22.7027   -7.6302  -16.5289 N   0  0  0  0  0  0  0  0  0  0  0  0
   21.9718   -7.7874  -15.3165 C   0  0  1  0  0  0  0  0  0  0  0  0
   22.3731   -8.9550  -14.4870 C   0  0  0  0  0  0  0  0  0  0  0  0
   23.4870   -9.7330  -15.0319 C   0  0  0  0  0  0  0  0  0  0  0  0
   24.6925   -9.1449  -15.3332 C   0  0  0  0  0  0  0  0  0  0  0  0
   25.7541   -9.8736  -15.8521 C   0  0  0  0  0  0  0  0  0  0  0  0
   25.6261  -11.2205  -16.0813 C   0  0  0  0  0  0  0  0  0  0  0  0
   24.4387  -11.8253  -15.7895 C   0  0  0  0  0  0  0  0  0  0  0  0
   23.3737  -11.0853  -15.2671 C   0  0  0  0  0  0  0  0  0  0  0  0
   21.9205   -6.5608  -14.4672 C   0  0  0  0  0  0  0  0  0  0  0  0
   22.6396   -5.5654  -14.7192 O   0  0  0  0  0  0  0  0  0  0  0  0
   21.0774   -6.4720  -13.3669 O   0  0  0  0  0  0  0  0  0  0  0  0
  2  1  1  1
  2  9  1  0
  2  3  1  0
  3  4  1  0
  4  5  2  0
  4  8  1  0
  5  6  1  0
  6  7  1  0
  8  7  2  0
  9 10  2  0
 11 12  1  0
 11  9  1  0
 12 13  1  6
 13 14  1  0
 14 18  1  0
 14 15  2  0
 16 17  2  0
 16 12  1  0
 19 16  1  0
 20 21  1  1
 20 19  1  0
 22 27  1  0
 22 21  1  0
 23 22  2  0
 24 25  2  0
 24 23  1  0
 25 26  1  0
 26 27  2  0
 28 20  1  0
 28 30  1  0
 29 28  2  0
M  END
$$$$
