HDF.pdb
     RDKit          3D

 30 31  0  0  1  0  0  0  0  0999 V2000
   14.0581  -19.7178    2.6126 N   0  0  0  0  0  0  0  0  0  0  0  0
   15.1258  -20.3766    3.3627 C   0  0  1  0  0  0  0  0  0  0  0  0
   16.0992  -20.9007    2.3612 C   0  0  0  0  0  0  0  0  0  0  0  0
   15.5527  -22.0044    1.5479 C   0  0  0  0  0  0  0  0  0  0  0  0
   15.2882  -22.0077    0.1970 C   0  0  0  0  0  0  0  0  0  0  0  0
   14.7956  -23.2036   -0.1718 N   0  0  0  0  0  0  0  0  0  0  0  0
   14.7489  -23.9518    0.9381 C   0  0  0  0  0  0  0  0  0  0  0  0
   15.2084  -23.2264    1.9860 N   0  0  0  0  0  0  0  0  0  0  0  0
   15.6881  -19.4127    4.3317 C   0  0  0  0  0  0  0  0  0  0  0  0
   15.8115  -18.2084    3.9704 O   0  0  0  0  0  0  0  0  0  0  0  0
   16.0930  -19.7596    5.6428 N   0  0  0  0  0  0  0  0  0  0  0  0
   16.5433  -18.6826    6.5465 C   0  0  1  0  0  0  0  0  0  0  0  0
   15.8684  -18.9244    7.8916 C   0  0  0  0  0  0  0  0  0  0  0  0
   16.2978  -17.9562    8.8822 C   0  0  0  0  0  0  0  0  0  0  0  0
   17.4135  -17.9838    9.4294 O   0  0  0  0  0  0  0  0  0  0  0  0
   18.0047  -18.6817    6.6276 C   0  0  0  0  0  0  0  0  0  0  0  0
   18.6559  -19.7414    6.5700 O   0  0  0  0  0  0  0  0  0  0  0  0
   15.4343  -16.9210    9.2658 O   0  0  0  0  0  0  0  0  0  0  0  0
   18.8147  -17.4982    6.7760 N   0  0  0  0  0  0  0  0  0  0  0  0
   20.2386  -17.5304    6.7952 C   0  0  1  0  0  0  0  0  0  0  0  0
   20.9009  -16.6628    5.7848 C   0  0  0  0  0  0  0  0  0  0  0  0
   20.5821  -15.2391    5.9041 C   0  0  0  0  0  0  0  0  0  0  0  0
   19.5284  -14.6807    5.2202 C   0  0  0  0  0  0  0  0  0  0  0  0
   19.2192  -13.3313    5.3251 C   0  0  0  0  0  0  0  0  0  0  0  0
   19.9687  -12.5070    6.1262 C   0  0  0  0  0  0  0  0  0  0  0  0
   21.0193  -13.0396    6.8144 C   0  0  0  0  0  0  0  0  0  0  0  0
   21.3249  -14.3994    6.7042 C   0  0  0  0  0  0  0  0  0  0  0  0
   20.8400  -17.2864    8.1396 C   0  0  0  0  0  0  0  0  0  0  0  0
   20.1355  -16.9218    9.1101 O   0  0  0  0  0  0  0  0  0  0  0  0
   22.1997  -17.4524    8.3696 O   0  0  0  0  0  0  0  0  0  0  0  0
  2  1  1  6
  2  9  1  0
  2  3  1  0
  3  4  1  0
  4  5  2  0
  4  8  1  0
  5  6  1  0
  6  7  1  0
  8  7  2  0
  9 10  2  0
 11 12  1  0
 11  9  1  0
 12 13  1  1
 13 14  1  0
 14 18  1  0
 14 15  2  0
 16 17  2  0
 16 12  1  0
 19 16  1  0
 20 21  1  6
 20 19  1  0
 22 27  1  0
 22 21  1  0
 23 22  2  0
 24 25  2  0
 24 23  1  0
 25 26  1  0
 26 27  2  0
 28 20  1  0
 28 30  1  0
 29 28  2  0
M  END
$$$$
