HDF.pdb
     RDKit          3D

 30 31  0  0  1  0  0  0  0  0999 V2000
   25.8564  -18.5411  -15.2097 N   0  0  0  0  0  0  0  0  0  0  0  0
   26.6820  -19.3571  -14.3212 C   0  0  1  0  0  0  0  0  0  0  0  0
   28.0817  -18.8575  -14.4499 C   0  0  0  0  0  0  0  0  0  0  0  0
   28.6304  -19.0222  -15.8101 C   0  0  0  0  0  0  0  0  0  0  0  0
   29.0359  -20.1866  -16.4222 C   0  0  0  0  0  0  0  0  0  0  0  0
   29.4772  -19.9228  -17.6650 N   0  0  0  0  0  0  0  0  0  0  0  0
   29.3516  -18.6006  -17.8380 C   0  0  0  0  0  0  0  0  0  0  0  0
   28.8370  -18.0492  -16.7126 N   0  0  0  0  0  0  0  0  0  0  0  0
   26.1196  -19.2879  -12.9562 C   0  0  0  0  0  0  0  0  0  0  0  0
   25.3735  -18.3100  -12.6682 O   0  0  0  0  0  0  0  0  0  0  0  0
   26.3655  -20.2561  -11.9533 N   0  0  0  0  0  0  0  0  0  0  0  0
   25.4279  -20.3427  -10.8164 C   0  0  1  0  0  0  0  0  0  0  0  0
   24.1396  -20.9558  -11.3528 C   0  0  0  0  0  0  0  0  0  0  0  0
   23.1451  -19.9385  -11.6345 C   0  0  0  0  0  0  0  0  0  0  0  0
   22.9879  -18.9216  -10.9373 O   0  0  0  0  0  0  0  0  0  0  0  0
   26.0303  -21.1235   -9.7349 C   0  0  0  0  0  0  0  0  0  0  0  0
   26.3949  -22.3007   -9.9131 O   0  0  0  0  0  0  0  0  0  0  0  0
   22.3002  -20.0775  -12.7441 O   0  0  0  0  0  0  0  0  0  0  0  0
   26.2581  -20.6306   -8.3992 N   0  0  0  0  0  0  0  0  0  0  0  0
   26.7783  -21.4428   -7.3511 C   0  0  1  0  0  0  0  0  0  0  0  0
   28.1961  -21.1735   -6.9914 C   0  0  0  0  0  0  0  0  0  0  0  0
   28.3768  -20.1603   -5.9504 C   0  0  0  0  0  0  0  0  0  0  0  0
   28.2142  -18.8215   -6.2171 C   0  0  0  0  0  0  0  0  0  0  0  0
   28.3853  -17.8529   -5.2374 C   0  0  0  0  0  0  0  0  0  0  0  0
   28.7263  -18.2118   -3.9576 C   0  0  0  0  0  0  0  0  0  0  0  0
   28.8927  -19.5349   -3.6700 C   0  0  0  0  0  0  0  0  0  0  0  0
   28.7189  -20.5051   -4.6616 C   0  0  0  0  0  0  0  0  0  0  0  0
   25.9406  -21.4614   -6.1156 C   0  0  0  0  0  0  0  0  0  0  0  0
   25.0024  -20.6458   -5.9543 O   0  0  0  0  0  0  0  0  0  0  0  0
   26.1652  -22.3793   -5.0976 O   0  0  0  0  0  0  0  0  0  0  0  0
  2  1  1  6
  2  9  1  0
  2  3  1  0
  3  4  1  0
  4  5  2  0
  4  8  1  0
  5  6  1  0
  6  7  1  0
  8  7  2  0
  9 10  2  0
 11 12  1  0
 11  9  1  0
 12 13  1  6
 13 14  1  0
 14 18  1  0
 14 15  2  0
 16 17  2  0
 16 12  1  0
 19 16  1  0
 20 21  1  1
 20 19  1  0
 22 27  1  0
 22 21  1  0
 23 22  2  0
 24 25  2  0
 24 23  1  0
 25 26  1  0
 26 27  2  0
 28 20  1  0
 28 30  1  0
 29 28  2  0
M  END
$$$$
