HDF.pdb
     RDKit          3D

 30 31  0  0  1  0  0  0  0  0999 V2000
   23.7743  -28.1751  -17.2988 N   0  0  0  0  0  0  0  0  0  0  0  0
   23.9325  -27.6327  -15.9506 C   0  0  1  0  0  0  0  0  0  0  0  0
   24.6515  -26.3330  -16.0881 C   0  0  0  0  0  0  0  0  0  0  0  0
   26.0476  -26.4907  -16.5400 C   0  0  0  0  0  0  0  0  0  0  0  0
   27.1524  -26.7983  -15.7786 C   0  0  0  0  0  0  0  0  0  0  0  0
   28.2471  -26.8523  -16.5582 N   0  0  0  0  0  0  0  0  0  0  0  0
   27.8376  -26.5811  -17.8042 C   0  0  0  0  0  0  0  0  0  0  0  0
   26.5009  -26.3606  -17.7976 N   0  0  0  0  0  0  0  0  0  0  0  0
   22.6004  -27.5430  -15.3169 C   0  0  0  0  0  0  0  0  0  0  0  0
   21.5811  -27.6673  -16.0529 O   0  0  0  0  0  0  0  0  0  0  0  0
   22.3999  -27.3295  -13.9321 N   0  0  0  0  0  0  0  0  0  0  0  0
   21.0164  -27.3131  -13.4175 C   0  0  1  0  0  0  0  0  0  0  0  0
   21.0206  -28.1055  -12.1154 C   0  0  0  0  0  0  0  0  0  0  0  0
   19.6979  -28.1598  -11.5232 C   0  0  0  0  0  0  0  0  0  0  0  0
   19.4967  -28.3415  -10.3101 O   0  0  0  0  0  0  0  0  0  0  0  0
   20.5665  -25.9306  -13.2484 C   0  0  0  0  0  0  0  0  0  0  0  0
   21.2088  -25.1223  -12.5525 O   0  0  0  0  0  0  0  0  0  0  0  0
   18.5644  -28.0023  -12.3324 O   0  0  0  0  0  0  0  0  0  0  0  0
   19.3772  -25.3786  -13.8484 N   0  0  0  0  0  0  0  0  0  0  0  0
   18.9452  -24.0400  -13.6241 C   0  0  1  0  0  0  0  0  0  0  0  0
   18.9458  -23.1686  -14.8294 C   0  0  0  0  0  0  0  0  0  0  0  0
   20.2505  -23.0312  -15.4790 C   0  0  0  0  0  0  0  0  0  0  0  0
   20.6994  -23.9587  -16.3890 C   0  0  0  0  0  0  0  0  0  0  0  0
   21.9359  -23.8385  -17.0088 C   0  0  0  0  0  0  0  0  0  0  0  0
   22.7547  -22.7745  -16.7251 C   0  0  0  0  0  0  0  0  0  0  0  0
   22.3295  -21.8416  -15.8252 C   0  0  0  0  0  0  0  0  0  0  0  0
   21.0831  -21.9690  -15.2047 C   0  0  0  0  0  0  0  0  0  0  0  0
   17.6319  -23.9282  -12.9231 C   0  0  0  0  0  0  0  0  0  0  0  0
   16.9237  -24.9392  -12.7049 O   0  0  0  0  0  0  0  0  0  0  0  0
   17.1423  -22.7042  -12.4856 O   0  0  0  0  0  0  0  0  0  0  0  0
  2  1  1  6
  2  9  1  0
  2  3  1  0
  3  4  1  0
  4  5  2  0
  4  8  1  0
  5  6  1  0
  6  7  1  0
  8  7  2  0
  9 10  2  0
 11 12  1  0
 11  9  1  0
 12 13  1  1
 13 14  1  0
 14 18  1  0
 14 15  2  0
 16 17  2  0
 16 12  1  0
 19 16  1  0
 20 21  1  6
 20 19  1  0
 22 27  1  0
 22 21  1  0
 23 22  2  0
 24 25  2  0
 24 23  1  0
 25 26  1  0
 26 27  2  0
 28 20  1  0
 28 30  1  0
 29 28  2  0
M  END
$$$$
