CYC.pdb
     RDKit          3D

 25 25  0  0  1  0  0  0  0  0999 V2000
   25.1551  -16.1711  -19.8144 N   0  0  0  0  0  0  0  0  0  0  0  0
   25.6869  -15.0410  -20.5523 C   0  0  1  0  0  0  0  0  0  0  0  0
   24.5939  -14.0493  -20.8208 C   0  0  0  0  0  0  0  0  0  0  0  0
   23.3109  -14.7575  -21.8474 S   0  0  0  0  0  0  0  0  0  0  0  0
   26.7702  -14.3776  -19.8129 C   0  0  0  0  0  0  0  0  0  0  0  0
   26.7238  -14.4659  -18.5384 O   0  0  0  0  0  0  0  0  0  0  0  0
   34.4361  -10.8076  -17.5668 O   0  0  0  0  0  0  0  0  0  0  0  0
   33.3809  -11.4444  -18.2252 C   0  0  0  0  0  0  0  0  0  0  0  0
   32.8687  -12.5938  -17.6933 C   0  0  0  0  0  0  0  0  0  0  0  0
   31.8217  -13.2336  -18.3386 C   0  0  0  0  0  0  0  0  0  0  0  0
   31.3046  -12.7150  -19.5033 C   0  0  0  0  0  0  0  0  0  0  0  0
   30.2057  -13.3582  -20.2172 C   0  0  0  0  0  0  0  0  0  0  0  0
   28.8440  -13.0754  -19.6736 C   0  0  2  0  0  0  0  0  0  0  0  0
   27.8063  -13.6798  -20.4567 N   0  0  0  0  0  0  0  0  0  0  0  0
   28.6225  -11.5828  -19.7625 C   0  0  0  0  0  0  0  0  0  0  0  0
   28.4030  -11.0170  -20.8592 O   0  0  0  0  0  0  0  0  0  0  0  0
   31.8476  -11.5538  -20.0089 C   0  0  0  0  0  0  0  0  0  0  0  0
   32.8861  -10.9081  -19.3800 C   0  0  0  0  0  0  0  0  0  0  0  0
   28.6552  -10.7659  -18.6047 N   0  0  0  0  0  0  0  0  0  0  0  0
   28.5626   -9.3396  -18.6243 C   0  0  1  0  0  0  0  0  0  0  0  0
   27.2557   -8.8046  -18.1075 C   0  0  0  0  0  0  0  0  0  0  0  0
   27.3300   -6.9900  -18.1730 S   0  0  0  0  0  0  0  0  0  0  0  0
   29.6670   -8.7047  -17.8620 C   0  0  0  0  0  0  0  0  0  0  0  0
   29.9636   -9.1693  -16.5758 O   0  0  0  0  0  0  0  0  0  0  0  0
   30.3361   -7.7734  -18.3312 O   0  0  0  0  0  0  0  0  0  0  0  0
  2  1  1  1
  2  3  1  0
  3  4  1  0
  5  6  2  0
  5  2  1  0
  7  8  1  0
  8 18  2  0
  8  9  1  0
  9 10  2  0
 10 11  1  0
 11 12  1  0
 13 12  1  6
 13 15  1  0
 13 14  1  0
 14  5  1  0
 15 19  1  0
 16 15  2  0
 17 11  2  0
 18 17  1  0
 19 20  1  0
 20 23  1  0
 21 22  1  0
 20 21  1  1
 23 25  2  0
 23 24  1  0
M  END
$$$$
