CYC.pdb
     RDKit          3D

 25 25  0  0  1  0  0  0  0  0999 V2000
   27.9010  -11.8349  -18.3695 N   0  0  0  0  0  0  0  0  0  0  0  0
   27.7835  -10.6791  -17.5007 C   0  0  1  0  0  0  0  0  0  0  0  0
   28.5099   -9.5136  -18.1043 C   0  0  0  0  0  0  0  0  0  0  0  0
   30.2831   -9.7338  -18.0120 S   0  0  0  0  0  0  0  0  0  0  0  0
   26.3773  -10.3114  -17.2822 C   0  0  0  0  0  0  0  0  0  0  0  0
   25.6150  -10.3499  -18.3077 O   0  0  0  0  0  0  0  0  0  0  0  0
   18.4592   -9.0943  -13.8021 O   0  0  0  0  0  0  0  0  0  0  0  0
   19.8119   -9.3703  -14.0176 C   0  0  0  0  0  0  0  0  0  0  0  0
   20.2124   -9.7813  -15.2574 C   0  0  0  0  0  0  0  0  0  0  0  0
   21.5522  -10.0577  -15.4819 C   0  0  0  0  0  0  0  0  0  0  0  0
   22.4685   -9.9191  -14.4650 C   0  0  0  0  0  0  0  0  0  0  0  0
   23.8875  -10.2034  -14.6564 C   0  0  0  0  0  0  0  0  0  0  0  0
   24.4966   -9.5987  -15.8784 C   0  0  2  0  0  0  0  0  0  0  0  0
   25.8829   -9.9347  -16.0218 N   0  0  0  0  0  0  0  0  0  0  0  0
   24.4428   -8.0970  -15.7147 C   0  0  0  0  0  0  0  0  0  0  0  0
   25.2871   -7.4827  -15.0212 O   0  0  0  0  0  0  0  0  0  0  0  0
   22.0264   -9.5022  -13.2282 C   0  0  0  0  0  0  0  0  0  0  0  0
   20.7008   -9.2244  -12.9907 C   0  0  0  0  0  0  0  0  0  0  0  0
   23.4320   -7.3263  -16.3417 N   0  0  0  0  0  0  0  0  0  0  0  0
   23.3235   -5.9049  -16.2369 C   0  0  1  0  0  0  0  0  0  0  0  0
   23.2979   -5.1943  -17.5621 C   0  0  0  0  0  0  0  0  0  0  0  0
   24.9090   -5.4490  -18.3635 S   0  0  0  0  0  0  0  0  0  0  0  0
   22.1251   -5.4989  -15.4605 C   0  0  0  0  0  0  0  0  0  0  0  0
   22.0381   -4.1895  -14.9748 O   0  0  0  0  0  0  0  0  0  0  0  0
   21.1970   -6.2864  -15.2287 O   0  0  0  0  0  0  0  0  0  0  0  0
  2  1  1  6
  2  3  1  0
  3  4  1  0
  5  6  2  0
  5  2  1  0
  7  8  1  0
  8 18  2  0
  8  9  1  0
  9 10  2  0
 10 11  1  0
 11 12  1  0
 13 12  1  1
 13 15  1  0
 13 14  1  0
 14  5  1  0
 15 19  1  0
 16 15  2  0
 17 11  2  0
 18 17  1  0
 19 20  1  0
 20 23  1  0
 21 22  1  0
 20 21  1  6
 23 25  2  0
 23 24  1  0
M  END
$$$$
