CYC.pdb
     RDKit          3D

 25 25  0  0  1  0  0  0  0  0999 V2000
   22.8943  -10.2520  -19.7992 N   0  0  0  0  0  0  0  0  0  0  0  0
   23.3120   -9.1281  -18.9828 C   0  0  1  0  0  0  0  0  0  0  0  0
   23.3356   -7.8783  -19.8122 C   0  0  0  0  0  0  0  0  0  0  0  0
   24.7444   -7.8560  -20.9151 S   0  0  0  0  0  0  0  0  0  0  0  0
   22.4118   -8.9311  -17.8377 C   0  0  0  0  0  0  0  0  0  0  0  0
   21.1600   -8.9177  -18.0963 O   0  0  0  0  0  0  0  0  0  0  0  0
   21.8171  -15.0678  -15.9806 O   0  0  0  0  0  0  0  0  0  0  0  0
   21.9298  -13.7335  -15.5815 C   0  0  0  0  0  0  0  0  0  0  0  0
   23.1745  -13.2076  -15.3799 C   0  0  0  0  0  0  0  0  0  0  0  0
   23.2974  -11.8848  -14.9839 C   0  0  0  0  0  0  0  0  0  0  0  0
   22.1759  -11.1102  -14.7959 C   0  0  0  0  0  0  0  0  0  0  0  0
   22.2594   -9.7148  -14.3754 C   0  0  0  0  0  0  0  0  0  0  0  0
   21.9520   -8.7122  -15.4385 C   0  0  2  0  0  0  0  0  0  0  0  0
   22.8856   -8.7641  -16.5253 N   0  0  0  0  0  0  0  0  0  0  0  0
   22.1001   -7.3399  -14.8223 C   0  0  0  0  0  0  0  0  0  0  0  0
   23.2210   -6.8883  -14.4896 O   0  0  0  0  0  0  0  0  0  0  0  0
   20.9377  -11.6760  -15.0092 C   0  0  0  0  0  0  0  0  0  0  0  0
   20.8001  -12.9866  -15.4022 C   0  0  0  0  0  0  0  0  0  0  0  0
   20.9726   -6.5110  -14.5976 N   0  0  0  0  0  0  0  0  0  0  0  0
   21.0473   -5.1587  -14.1404 C   0  0  1  0  0  0  0  0  0  0  0  0
   21.9469   -4.2824  -14.9677 C   0  0  0  0  0  0  0  0  0  0  0  0
   21.9234   -2.6159  -14.2432 S   0  0  0  0  0  0  0  0  0  0  0  0
   19.7065   -4.5255  -14.0697 C   0  0  0  0  0  0  0  0  0  0  0  0
   18.6598   -5.0572  -14.8313 O   0  0  0  0  0  0  0  0  0  0  0  0
   19.4852   -3.5379  -13.3550 O   0  0  0  0  0  0  0  0  0  0  0  0
  2  1  1  6
  2  3  1  0
  3  4  1  0
  5  6  2  0
  5  2  1  0
  7  8  1  0
  8 18  2  0
  8  9  1  0
  9 10  2  0
 10 11  1  0
 11 12  1  0
 13 12  1  1
 13 15  1  0
 13 14  1  0
 14  5  1  0
 15 19  1  0
 16 15  2  0
 17 11  2  0
 18 17  1  0
 19 20  1  0
 20 23  1  0
 21 22  1  0
 20 21  1  6
 23 25  2  0
 23 24  1  0
M  END
$$$$
