CYC.pdb
     RDKit          3D

 25 25  0  0  1  0  0  0  0  0999 V2000
   28.2475  -22.7216  -17.9429 N   0  0  0  0  0  0  0  0  0  0  0  0
   27.6495  -21.4855  -17.4752 C   0  0  1  0  0  0  0  0  0  0  0  0
   26.6164  -21.0172  -18.4568 C   0  0  0  0  0  0  0  0  0  0  0  0
   27.3713  -20.4657  -19.9823 S   0  0  0  0  0  0  0  0  0  0  0  0
   27.0213  -21.6569  -16.1574 C   0  0  0  0  0  0  0  0  0  0  0  0
   26.5238  -22.8085  -15.9118 O   0  0  0  0  0  0  0  0  0  0  0  0
   24.7104  -20.6337   -7.7594 O   0  0  0  0  0  0  0  0  0  0  0  0
   25.2588  -20.4658   -9.0336 C   0  0  0  0  0  0  0  0  0  0  0  0
   26.3118  -21.2517   -9.4078 C   0  0  0  0  0  0  0  0  0  0  0  0
   26.8632  -21.0933  -10.6698 C   0  0  0  0  0  0  0  0  0  0  0  0
   26.3541  -20.1532  -11.5359 C   0  0  0  0  0  0  0  0  0  0  0  0
   26.9069  -19.9503  -12.8717 C   0  0  0  0  0  0  0  0  0  0  0  0
   26.3847  -20.8747  -13.9217 C   0  0  2  0  0  0  0  0  0  0  0  0
   26.9618  -20.6213  -15.2094 N   0  0  0  0  0  0  0  0  0  0  0  0
   24.9040  -20.6066  -14.0645 C   0  0  0  0  0  0  0  0  0  0  0  0
   24.4762  -19.5313  -14.5459 O   0  0  0  0  0  0  0  0  0  0  0  0
   25.2915  -19.3794  -11.1225 C   0  0  0  0  0  0  0  0  0  0  0  0
   24.7341  -19.5252   -9.8739 C   0  0  0  0  0  0  0  0  0  0  0  0
   23.9422  -21.5648  -13.6577 N   0  0  0  0  0  0  0  0  0  0  0  0
   22.5298  -21.3962  -13.7990 C   0  0  1  0  0  0  0  0  0  0  0  0
   21.7372  -22.6517  -13.5596 C   0  0  0  0  0  0  0  0  0  0  0  0
   20.6572  -22.3654  -12.1263 S   0  0  0  0  0  0  0  0  0  0  0  0
   22.0092  -20.3317  -12.9049 C   0  0  0  0  0  0  0  0  0  0  0  0
   20.6950  -19.8813  -13.0732 O   0  0  0  0  0  0  0  0  0  0  0  0
   22.7048  -19.8283  -12.0116 O   0  0  0  0  0  0  0  0  0  0  0  0
  2  1  1  6
  2  3  1  0
  3  4  1  0
  5  6  2  0
  5  2  1  0
  7  8  1  0
  8 18  2  0
  8  9  1  0
  9 10  2  0
 10 11  1  0
 11 12  1  0
 13 12  1  1
 13 15  1  0
 13 14  1  0
 14  5  1  0
 15 19  1  0
 16 15  2  0
 17 11  2  0
 18 17  1  0
 19 20  1  0
 20 23  1  0
 21 22  1  0
 20 21  1  1
 23 25  2  0
 23 24  1  0
M  END
$$$$
