CYC.pdb
     RDKit          3D

 25 25  0  0  1  0  0  0  0  0999 V2000
   24.5290  -11.1160  -15.8635 N   0  0  0  0  0  0  0  0  0  0  0  0
   24.0256  -11.1848  -17.2223 C   0  0  1  0  0  0  0  0  0  0  0  0
   23.4866  -12.5576  -17.4959 C   0  0  0  0  0  0  0  0  0  0  0  0
   24.6961  -13.8195  -17.1135 S   0  0  0  0  0  0  0  0  0  0  0  0
   22.9647  -10.1942  -17.4535 C   0  0  0  0  0  0  0  0  0  0  0  0
   22.4615  -10.1659  -18.6283 O   0  0  0  0  0  0  0  0  0  0  0  0
   16.9357  -12.8679  -17.6083 O   0  0  0  0  0  0  0  0  0  0  0  0
   17.7579  -11.8253  -17.1731 C   0  0  0  0  0  0  0  0  0  0  0  0
   17.4905  -10.5537  -17.5950 C   0  0  0  0  0  0  0  0  0  0  0  0
   18.3001   -9.5120  -17.1691 C   0  0  0  0  0  0  0  0  0  0  0  0
   19.3622   -9.7579  -16.3298 C   0  0  0  0  0  0  0  0  0  0  0  0
   20.2422   -8.6918  -15.8607 C   0  0  0  0  0  0  0  0  0  0  0  0
   21.4312   -8.4246  -16.7237 C   0  0  2  0  0  0  0  0  0  0  0  0
   22.5179   -9.3186  -16.4493 N   0  0  0  0  0  0  0  0  0  0  0  0
   21.9318   -7.0386  -16.3873 C   0  0  0  0  0  0  0  0  0  0  0  0
   22.6335   -6.8240  -15.3711 O   0  0  0  0  0  0  0  0  0  0  0  0
   19.6000  -11.0537  -15.9258 C   0  0  0  0  0  0  0  0  0  0  0  0
   18.8057  -12.0970  -16.3398 C   0  0  0  0  0  0  0  0  0  0  0  0
   21.6248   -5.9274  -17.2118 N   0  0  0  0  0  0  0  0  0  0  0  0
   22.0621   -4.5909  -16.9554 C   0  0  1  0  0  0  0  0  0  0  0  0
   22.2306   -3.7545  -18.1938 C   0  0  0  0  0  0  0  0  0  0  0  0
   22.7192   -2.0824  -17.6761 S   0  0  0  0  0  0  0  0  0  0  0  0
   21.1479   -3.8801  -16.0265 C   0  0  0  0  0  0  0  0  0  0  0  0
   21.6119   -2.7501  -15.3439 O   0  0  0  0  0  0  0  0  0  0  0  0
   19.9833   -4.2580  -15.8367 O   0  0  0  0  0  0  0  0  0  0  0  0
  2  1  1  1
  2  3  1  0
  3  4  1  0
  5  6  2  0
  5  2  1  0
  7  8  1  0
  8 18  2  0
  8  9  1  0
  9 10  2  0
 10 11  1  0
 11 12  1  0
 13 12  1  1
 13 15  1  0
 13 14  1  0
 14  5  1  0
 15 19  1  0
 16 15  2  0
 17 11  2  0
 18 17  1  0
 19 20  1  0
 20 23  1  0
 21 22  1  0
 20 21  1  6
 23 25  2  0
 23 24  1  0
M  END
$$$$
