CYC.pdb
     RDKit          3D

 25 25  0  0  1  0  0  0  0  0999 V2000
   23.0257  -12.8513  -17.2646 N   0  0  0  0  0  0  0  0  0  0  0  0
   22.7163  -11.6337  -17.9900 C   0  0  1  0  0  0  0  0  0  0  0  0
   21.3295  -11.7174  -18.5557 C   0  0  0  0  0  0  0  0  0  0  0  0
   20.9134  -10.2422  -19.4787 S   0  0  0  0  0  0  0  0  0  0  0  0
   22.8137  -10.4513  -17.1224 C   0  0  0  0  0  0  0  0  0  0  0  0
   22.3384  -10.5734  -15.9419 O   0  0  0  0  0  0  0  0  0  0  0  0
   28.7363  -11.7857  -15.7975 O   0  0  0  0  0  0  0  0  0  0  0  0
   27.7938  -10.7687  -15.9696 C   0  0  0  0  0  0  0  0  0  0  0  0
   26.9689  -10.4502  -14.9282 C   0  0  0  0  0  0  0  0  0  0  0  0
   26.0302   -9.4426  -15.0885 C   0  0  0  0  0  0  0  0  0  0  0  0
   25.9315   -8.7708  -16.2851 C   0  0  0  0  0  0  0  0  0  0  0  0
   24.9551   -7.7067  -16.4982 C   0  0  0  0  0  0  0  0  0  0  0  0
   23.5385   -8.1615  -16.6252 C   0  0  2  0  0  0  0  0  0  0  0  0
   23.3933   -9.2455  -17.5523 N   0  0  0  0  0  0  0  0  0  0  0  0
   22.7434   -7.0101  -17.1969 C   0  0  0  0  0  0  0  0  0  0  0  0
   23.0118   -6.5218  -18.3197 O   0  0  0  0  0  0  0  0  0  0  0  0
   26.7811   -9.1204  -17.3122 C   0  0  0  0  0  0  0  0  0  0  0  0
   27.7170  -10.1175  -17.1680 C   0  0  0  0  0  0  0  0  0  0  0  0
   21.6615   -6.4387  -16.4814 N   0  0  0  0  0  0  0  0  0  0  0  0
   20.7956   -5.4288  -17.0047 C   0  0  1  0  0  0  0  0  0  0  0  0
   20.1066   -5.8169  -18.2838 C   0  0  0  0  0  0  0  0  0  0  0  0
   19.0848   -4.4116  -18.8163 S   0  0  0  0  0  0  0  0  0  0  0  0
   19.7643   -5.0212  -16.0178 C   0  0  0  0  0  0  0  0  0  0  0  0
   19.5619   -3.6598  -15.7652 O   0  0  0  0  0  0  0  0  0  0  0  0
   19.0752   -5.8519  -15.4093 O   0  0  0  0  0  0  0  0  0  0  0  0
  2  1  1  1
  2  3  1  0
  3  4  1  0
  5  6  2  0
  5  2  1  0
  7  8  1  0
  8 18  2  0
  8  9  1  0
  9 10  2  0
 10 11  1  0
 11 12  1  0
 13 12  1  6
 13 15  1  0
 13 14  1  0
 14  5  1  0
 15 19  1  0
 16 15  2  0
 17 11  2  0
 18 17  1  0
 19 20  1  0
 20 23  1  0
 21 22  1  0
 20 21  1  6
 23 25  2  0
 23 24  1  0
M  END
$$$$
