QRS.pdb
     RDKit          3D

 27 26  0  0  1  0  0  0  0  0999 V2000
   14.3291  -22.2670   16.0107 N   0  0  0  0  0  0  0  0  0  0  0  0
   13.1368  -21.6517   15.4768 C   0  0  0  0  0  0  0  0  0  0  0  0
   12.4391  -22.3331   14.7037 O   0  0  0  0  0  0  0  0  0  0  0  0
   12.8166  -20.2934   15.8685 C   0  0  0  0  0  0  0  0  0  0  0  0
   11.4705  -19.8034   15.5036 C   0  0  0  0  0  0  0  0  0  0  0  0
   11.4546  -18.5203   14.7440 C   0  0  2  0  0  0  0  0  0  0  0  0
   12.5219  -18.4407   13.8063 N   0  0  0  0  0  0  0  0  0  0  0  0
   11.4675  -17.3340   15.6304 C   0  0  0  0  0  0  0  0  0  0  0  0
   12.5160  -16.6479   15.6387 O   0  0  0  0  0  0  0  0  0  0  0  0
    9.0427  -13.3881   21.2063 N   0  0  0  0  0  0  0  0  0  0  0  0
    8.2675  -12.2769   20.7416 C   0  0  0  0  0  0  0  0  0  0  0  0
    8.2295  -11.1970   21.4376 N   0  0  0  0  0  0  0  0  0  0  0  0
    7.5487  -12.3901   19.5138 N   0  0  0  0  0  0  0  0  0  0  0  0
    7.5487  -13.6111   18.7309 C   0  0  0  0  0  0  0  0  0  0  0  0
    8.9718  -14.0104   18.4078 C   0  0  0  0  0  0  0  0  0  0  0  0
    8.9928  -15.2945   17.6142 C   0  0  0  0  0  0  0  0  0  0  0  0
   10.3447  -15.7784   17.2595 C   0  0  2  0  0  0  0  0  0  0  0  0
   10.3975  -16.9648   16.4274 N   0  0  0  0  0  0  0  0  0  0  0  0
   11.0930  -16.1618   18.5146 C   0  0  0  0  0  0  0  0  0  0  0  0
   10.9932  -17.2960   19.0486 O   0  0  0  0  0  0  0  0  0  0  0  0
    7.6535  -10.3906   21.1205 O   0  0  0  0  0  0  0  0  0  0  0  0
   14.6569  -14.4752   19.5390 C   0  0  0  0  0  0  0  0  0  0  0  0
   13.7985  -14.5816   20.6104 C   0  0  2  0  0  0  0  0  0  0  0  0
   12.7669  -15.6589   20.3264 N   0  0  0  0  0  0  0  0  0  0  0  0
   11.9659  -15.2518   19.1754 C   0  0  0  0  0  0  0  0  0  0  0  0
   11.9308  -15.9828   21.4908 O   0  0  0  0  0  0  0  0  0  0  0  0
   10.6778  -15.8709   21.4904 O   0  0  0  0  0  0  0  0  0  0  0  0
  1  2  1  0
  2  3  2  0
  4  5  1  0
  4  2  1  0
  5  6  1  0
  6  8  1  0
  6  7  1  6
  8  9  2  0
 11 10  1  0
 11 12  2  0
 13 14  1  0
 13 11  1  0
 14 15  1  0
 15 16  1  0
 17 16  1  1
 17 19  1  0
 18 17  1  0
 18  8  1  0
 19 20  2  0
 21 22  1  0
 23 22  1  6
 23 25  1  0
 24 19  1  0
 24 23  1  0
 25 26  2  0
 25 27  1  0
M  END
$$$$
