QRS.pdb
     RDKit          3D

 27 26  0  0  1  0  0  0  0  0999 V2000
   11.9828  -20.5974   20.6416 N   0  0  0  0  0  0  0  0  0  0  0  0
   13.1355  -19.7358   20.5237 C   0  0  0  0  0  0  0  0  0  0  0  0
   14.1093  -20.1686   19.8809 O   0  0  0  0  0  0  0  0  0  0  0  0
   13.0962  -18.4277   21.1470 C   0  0  0  0  0  0  0  0  0  0  0  0
   11.9172  -18.1355   21.9895 C   0  0  0  0  0  0  0  0  0  0  0  0
   10.9548  -17.1583   21.4043 C   0  0  2  0  0  0  0  0  0  0  0  0
   11.5658  -16.3276   20.4238 N   0  0  0  0  0  0  0  0  0  0  0  0
   10.2923  -16.3256   22.4343 C   0  0  0  0  0  0  0  0  0  0  0  0
   10.6348  -15.1215   22.4917 O   0  0  0  0  0  0  0  0  0  0  0  0
    7.4470  -19.9874   27.0234 N   0  0  0  0  0  0  0  0  0  0  0  0
    6.6389  -20.6986   26.0785 C   0  0  0  0  0  0  0  0  0  0  0  0
    6.6764  -21.9831   26.0545 N   0  0  0  0  0  0  0  0  0  0  0  0
    5.8073  -19.9669   25.1784 N   0  0  0  0  0  0  0  0  0  0  0  0
    5.8447  -18.5191   25.0995 C   0  0  0  0  0  0  0  0  0  0  0  0
    7.2678  -18.0565   24.8759 C   0  0  0  0  0  0  0  0  0  0  0  0
    7.3190  -16.5543   24.7360 C   0  0  0  0  0  0  0  0  0  0  0  0
    8.6260  -16.0200   24.2957 C   0  0  2  0  0  0  0  0  0  0  0  0
    9.3376  -16.8118   23.3110 N   0  0  0  0  0  0  0  0  0  0  0  0
    9.5678  -15.9450   25.4745 C   0  0  0  0  0  0  0  0  0  0  0  0
   10.4003  -16.8491   25.7411 O   0  0  0  0  0  0  0  0  0  0  0  0
    6.0537  -22.5125   25.4106 O   0  0  0  0  0  0  0  0  0  0  0  0
    9.0104  -12.9733   28.1137 C   0  0  0  0  0  0  0  0  0  0  0  0
   10.2976  -13.4514   28.2152 C   0  0  1  0  0  0  0  0  0  0  0  0
   10.3765  -14.8288   27.5810 N   0  0  0  0  0  0  0  0  0  0  0  0
    9.5694  -14.8336   26.3642 C   0  0  0  0  0  0  0  0  0  0  0  0
    9.9951  -15.9122   28.4978 O   0  0  0  0  0  0  0  0  0  0  0  0
    9.0175  -16.6764   28.2907 O   0  0  0  0  0  0  0  0  0  0  0  0
  1  2  1  0
  2  3  2  0
  4  5  1  0
  4  2  1  0
  5  6  1  0
  6  8  1  0
  6  7  1  6
  8  9  2  0
 11 10  1  0
 11 12  2  0
 13 14  1  0
 13 11  1  0
 14 15  1  0
 15 16  1  0
 17 16  1  1
 17 19  1  0
 18 17  1  0
 18  8  1  0
 19 20  2  0
 21 22  1  0
 23 22  1  6
 23 25  1  0
 24 19  1  0
 24 23  1  0
 25 26  2  0
 25 27  1  0
M  END
$$$$
