QRS.pdb
     RDKit          3D

 27 26  0  0  1  0  0  0  0  0999 V2000
   17.5677  -12.4764   18.5762 N   0  0  0  0  0  0  0  0  0  0  0  0
   17.2318  -13.8532   18.8526 C   0  0  0  0  0  0  0  0  0  0  0  0
   18.1663  -14.6746   18.8833 O   0  0  0  0  0  0  0  0  0  0  0  0
   15.8434  -14.2008   19.0821 C   0  0  0  0  0  0  0  0  0  0  0  0
   14.8625  -13.6651   18.1144 C   0  0  0  0  0  0  0  0  0  0  0  0
   13.9263  -14.6766   17.5452 C   0  0  2  0  0  0  0  0  0  0  0  0
   12.9974  -14.0947   16.6378 N   0  0  0  0  0  0  0  0  0  0  0  0
   13.2058  -15.4375   18.5916 C   0  0  0  0  0  0  0  0  0  0  0  0
   12.2756  -14.8411   19.1827 O   0  0  0  0  0  0  0  0  0  0  0  0
   13.3650  -22.2981   22.5325 N   0  0  0  0  0  0  0  0  0  0  0  0
   12.0106  -22.6783   22.2626 C   0  0  0  0  0  0  0  0  0  0  0  0
   11.4153  -23.5005   23.0510 N   0  0  0  0  0  0  0  0  0  0  0  0
   11.3468  -22.1381   21.1203 N   0  0  0  0  0  0  0  0  0  0  0  0
   12.0426  -21.3346   20.1334 C   0  0  0  0  0  0  0  0  0  0  0  0
   12.0246  -19.8812   20.5538 C   0  0  0  0  0  0  0  0  0  0  0  0
   12.7714  -19.0327   19.5531 C   0  0  0  0  0  0  0  0  0  0  0  0
   12.7319  -17.5795   19.8253 C   0  0  2  0  0  0  0  0  0  0  0  0
   13.5115  -16.7439   18.9327 N   0  0  0  0  0  0  0  0  0  0  0  0
   13.3013  -17.3035   21.1971 C   0  0  0  0  0  0  0  0  0  0  0  0
   14.5368  -17.2324   21.4211 O   0  0  0  0  0  0  0  0  0  0  0  0
   10.4166  -23.7461   22.8931 O   0  0  0  0  0  0  0  0  0  0  0  0
   10.8034  -17.1057   24.4697 C   0  0  0  0  0  0  0  0  0  0  0  0
   11.9391  -16.3333   24.5662 C   0  0  1  0  0  0  0  0  0  0  0  0
   13.0193  -16.9082   23.6672 N   0  0  0  0  0  0  0  0  0  0  0  0
   12.4640  -17.1052   22.3312 C   0  0  0  0  0  0  0  0  0  0  0  0
   13.6222  -18.1385   24.1986 O   0  0  0  0  0  0  0  0  0  0  0  0
   13.5385  -19.2517   23.6187 O   0  0  0  0  0  0  0  0  0  0  0  0
  1  2  1  0
  2  3  2  0
  4  5  1  0
  4  2  1  0
  5  6  1  0
  6  8  1  0
  6  7  1  6
  8  9  2  0
 11 10  1  0
 11 12  2  0
 13 14  1  0
 13 11  1  0
 14 15  1  0
 15 16  1  0
 17 16  1  6
 17 19  1  0
 18 17  1  0
 18  8  1  0
 19 20  2  0
 21 22  1  0
 23 22  1  6
 23 25  1  0
 24 19  1  0
 24 23  1  0
 25 26  2  0
 25 27  1  0
M  END
$$$$
