QRS.pdb
     RDKit          3D

 27 26  0  0  1  0  0  0  0  0999 V2000
   10.3063  -23.9383   19.3179 N   0  0  0  0  0  0  0  0  0  0  0  0
   11.5970  -23.3313   19.0927 C   0  0  0  0  0  0  0  0  0  0  0  0
   12.5751  -24.0927   18.9811 O   0  0  0  0  0  0  0  0  0  0  0  0
   11.6836  -21.8871   19.0042 C   0  0  0  0  0  0  0  0  0  0  0  0
   10.4067  -21.1458   19.0755 C   0  0  0  0  0  0  0  0  0  0  0  0
   10.4028  -19.8335   18.3675 C   0  0  2  0  0  0  0  0  0  0  0  0
   11.3850  -19.7775   17.3394 N   0  0  0  0  0  0  0  0  0  0  0  0
   10.5686  -18.6879   19.2913 C   0  0  0  0  0  0  0  0  0  0  0  0
   11.5665  -17.9531   19.1049 O   0  0  0  0  0  0  0  0  0  0  0  0
    7.7185  -13.6029   19.2027 N   0  0  0  0  0  0  0  0  0  0  0  0
    7.7373  -12.6758   20.2944 C   0  0  0  0  0  0  0  0  0  0  0  0
    8.1899  -11.4875   20.1073 N   0  0  0  0  0  0  0  0  0  0  0  0
    7.2543  -13.0897   21.5721 N   0  0  0  0  0  0  0  0  0  0  0  0
    7.0846  -14.4887   21.9152 C   0  0  0  0  0  0  0  0  0  0  0  0
    8.4339  -15.1724   21.9526 C   0  0  0  0  0  0  0  0  0  0  0  0
    8.3958  -16.4593   21.1643 C   0  0  0  0  0  0  0  0  0  0  0  0
    9.6832  -17.1851   21.1058 C   0  0  2  0  0  0  0  0  0  0  0  0
    9.6900  -18.4060   20.3233 N   0  0  0  0  0  0  0  0  0  0  0  0
   10.0836  -17.6230   22.4952 C   0  0  0  0  0  0  0  0  0  0  0  0
    9.4304  -18.4685   23.1587 O   0  0  0  0  0  0  0  0  0  0  0  0
    8.1466  -10.7848   20.8735 O   0  0  0  0  0  0  0  0  0  0  0  0
   13.8954  -17.4716   23.8433 C   0  0  0  0  0  0  0  0  0  0  0  0
   13.0125  -17.0002   24.7888 C   0  0  2  0  0  0  0  0  0  0  0  0
   11.6203  -17.5256   24.4868 N   0  0  0  0  0  0  0  0  0  0  0  0
   11.2373  -17.0988   23.1439 C   0  0  0  0  0  0  0  0  0  0  0  0
   10.6223  -17.1359   25.4927 O   0  0  0  0  0  0  0  0  0  0  0  0
    9.6110  -16.4376   25.2239 O   0  0  0  0  0  0  0  0  0  0  0  0
  1  2  1  0
  2  3  2  0
  4  5  1  0
  4  2  1  0
  5  6  1  0
  6  8  1  0
  6  7  1  6
  8  9  2  0
 11 10  1  0
 11 12  2  0
 13 14  1  0
 13 11  1  0
 14 15  1  0
 15 16  1  0
 17 16  1  1
 17 19  1  0
 18 17  1  0
 18  8  1  0
 19 20  2  0
 21 22  1  0
 23 22  1  6
 23 25  1  0
 24 19  1  0
 24 23  1  0
 25 26  2  0
 25 27  1  0
M  END
$$$$
