QRS.pdb
     RDKit          3D

 27 26  0  0  1  0  0  0  0  0999 V2000
   12.2721  -15.8629   10.6370 N   0  0  0  0  0  0  0  0  0  0  0  0
   13.1437  -15.2778   11.6283 C   0  0  0  0  0  0  0  0  0  0  0  0
   13.7386  -14.2293   11.3190 O   0  0  0  0  0  0  0  0  0  0  0  0
   13.2740  -15.9304   12.9161 C   0  0  0  0  0  0  0  0  0  0  0  0
   12.1052  -16.7065   13.3816 C   0  0  0  0  0  0  0  0  0  0  0  0
   12.2382  -17.2797   14.7517 C   0  0  2  0  0  0  0  0  0  0  0  0
   11.0950  -18.0393   15.1270 N   0  0  0  0  0  0  0  0  0  0  0  0
   12.5208  -16.2476   15.7754 C   0  0  0  0  0  0  0  0  0  0  0  0
   13.5231  -15.5208   15.5815 O   0  0  0  0  0  0  0  0  0  0  0  0
    6.5621  -13.2763   21.1151 N   0  0  0  0  0  0  0  0  0  0  0  0
    7.6491  -12.3994   20.7970 C   0  0  0  0  0  0  0  0  0  0  0  0
    7.7284  -11.2546   21.3757 N   0  0  0  0  0  0  0  0  0  0  0  0
    8.6243  -12.8127   19.8403 N   0  0  0  0  0  0  0  0  0  0  0  0
    8.4756  -14.0297   19.0652 C   0  0  0  0  0  0  0  0  0  0  0  0
    9.6375  -14.1693   18.1062 C   0  0  0  0  0  0  0  0  0  0  0  0
   10.8384  -14.7506   18.8126 C   0  0  0  0  0  0  0  0  0  0  0  0
   11.9831  -15.0613   17.9291 C   0  0  2  0  0  0  0  0  0  0  0  0
   11.7438  -16.0605   16.9057 N   0  0  0  0  0  0  0  0  0  0  0  0
   13.1205  -15.6233   18.7493 C   0  0  0  0  0  0  0  0  0  0  0  0
   13.1819  -16.8316   19.0926 O   0  0  0  0  0  0  0  0  0  0  0  0
    8.4825  -10.5873   21.1136 O   0  0  0  0  0  0  0  0  0  0  0  0
   16.3843  -13.2525   19.9141 C   0  0  0  0  0  0  0  0  0  0  0  0
   16.5802  -14.5766   19.5916 C   0  0  1  0  0  0  0  0  0  0  0  0
   15.3299  -15.3693   19.9290 N   0  0  0  0  0  0  0  0  0  0  0  0
   14.2034  -14.8096   19.1875 C   0  0  0  0  0  0  0  0  0  0  0  0
   15.0583  -15.4381   21.3717 O   0  0  0  0  0  0  0  0  0  0  0  0
   15.8771  -15.9060   22.2042 O   0  0  0  0  0  0  0  0  0  0  0  0
  1  2  1  0
  2  3  2  0
  4  5  1  0
  4  2  1  0
  5  6  1  0
  6  8  1  0
  6  7  1  1
  8  9  2  0
 11 10  1  0
 11 12  2  0
 13 14  1  0
 13 11  1  0
 14 15  1  0
 15 16  1  0
 17 16  1  1
 17 19  1  0
 18 17  1  0
 18  8  1  0
 19 20  2  0
 21 22  1  0
 23 22  1  6
 23 25  1  0
 24 19  1  0
 24 23  1  0
 25 26  2  0
 25 27  1  0
M  END
$$$$
