QRS.pdb
     RDKit          3D

 27 26  0  0  1  0  0  0  0  0999 V2000
   14.0851  -18.3789   16.1025 N   0  0  0  0  0  0  0  0  0  0  0  0
   13.4398  -17.0991   15.9271 C   0  0  0  0  0  0  0  0  0  0  0  0
   13.8626  -16.3660   15.0146 O   0  0  0  0  0  0  0  0  0  0  0  0
   12.3449  -16.7426   16.8076 C   0  0  0  0  0  0  0  0  0  0  0  0
   12.5038  -17.1003   18.2331 C   0  0  0  0  0  0  0  0  0  0  0  0
   11.2384  -17.4627   18.9337 C   0  0  2  0  0  0  0  0  0  0  0  0
   10.0905  -17.1975   18.1357 N   0  0  0  0  0  0  0  0  0  0  0  0
   11.1064  -16.7979   20.2505 C   0  0  0  0  0  0  0  0  0  0  0  0
   12.1707  -16.5176   20.8497 O   0  0  0  0  0  0  0  0  0  0  0  0
    8.5996  -11.6149   19.7781 N   0  0  0  0  0  0  0  0  0  0  0  0
    8.5664  -12.7614   18.9202 C   0  0  0  0  0  0  0  0  0  0  0  0
    9.2962  -12.7812   17.8624 N   0  0  0  0  0  0  0  0  0  0  0  0
    7.7208  -13.8614   19.2551 N   0  0  0  0  0  0  0  0  0  0  0  0
    7.1787  -14.0382   20.5887 C   0  0  0  0  0  0  0  0  0  0  0  0
    8.2872  -13.9139   21.6110 C   0  0  0  0  0  0  0  0  0  0  0  0
    8.4384  -15.2011   22.3852 C   0  0  0  0  0  0  0  0  0  0  0  0
    9.7119  -15.9157   22.1509 C   0  0  2  0  0  0  0  0  0  0  0  0
    9.8883  -16.4840   20.8285 N   0  0  0  0  0  0  0  0  0  0  0  0
    9.8119  -17.0967   23.0877 C   0  0  0  0  0  0  0  0  0  0  0  0
    9.4761  -18.2620   22.7545 O   0  0  0  0  0  0  0  0  0  0  0  0
    9.2332  -13.5800   17.1986 O   0  0  0  0  0  0  0  0  0  0  0  0
   13.3432  -18.9186   24.6724 C   0  0  0  0  0  0  0  0  0  0  0  0
   12.4670  -18.0006   24.1382 C   0  0  2  0  0  0  0  0  0  0  0  0
   11.2192  -17.9317   25.0008 N   0  0  0  0  0  0  0  0  0  0  0  0
   10.2980  -16.9597   24.4188 C   0  0  0  0  0  0  0  0  0  0  0  0
   11.5053  -17.6407   26.4126 O   0  0  0  0  0  0  0  0  0  0  0  0
   12.2379  -18.3691   27.1303 O   0  0  0  0  0  0  0  0  0  0  0  0
  1  2  1  0
  2  3  2  0
  4  5  1  0
  4  2  1  0
  5  6  1  0
  6  8  1  0
  6  7  1  6
  8  9  2  0
 11 10  1  0
 11 12  2  0
 13 14  1  0
 13 11  1  0
 14 15  1  0
 15 16  1  0
 17 16  1  6
 17 19  1  0
 18 17  1  0
 18  8  1  0
 19 20  2  0
 21 22  1  0
 23 22  1  6
 23 25  1  0
 24 19  1  0
 24 23  1  0
 25 26  2  0
 25 27  1  0
M  END
$$$$
