QRS.pdb
     RDKit          3D

 27 26  0  0  1  0  0  0  0  0999 V2000
   18.0554  -12.6310   15.7197 N   0  0  0  0  0  0  0  0  0  0  0  0
   17.7307  -12.2360   14.3693 C   0  0  0  0  0  0  0  0  0  0  0  0
   18.5968  -11.6081   13.7335 O   0  0  0  0  0  0  0  0  0  0  0  0
   16.4327  -12.5916   13.8308 C   0  0  0  0  0  0  0  0  0  0  0  0
   16.3907  -13.7698   12.9390 C   0  0  0  0  0  0  0  0  0  0  0  0
   15.0331  -14.1286   12.4373 C   0  0  2  0  0  0  0  0  0  0  0  0
   14.4206  -13.0529   11.7355 N   0  0  0  0  0  0  0  0  0  0  0  0
   14.1369  -14.6084   13.5142 C   0  0  0  0  0  0  0  0  0  0  0  0
   13.4015  -13.7523   14.0589 O   0  0  0  0  0  0  0  0  0  0  0  0
    9.9205  -21.8413   16.7501 N   0  0  0  0  0  0  0  0  0  0  0  0
    9.8457  -21.2189   15.4621 C   0  0  0  0  0  0  0  0  0  0  0  0
    8.8728  -21.5101   14.6745 N   0  0  0  0  0  0  0  0  0  0  0  0
   10.8556  -20.2872   15.0758 N   0  0  0  0  0  0  0  0  0  0  0  0
   11.9488  -19.9263   15.9580 C   0  0  0  0  0  0  0  0  0  0  0  0
   12.0684  -18.4198   16.0328 C   0  0  0  0  0  0  0  0  0  0  0  0
   12.9448  -17.9035   14.9174 C   0  0  0  0  0  0  0  0  0  0  0  0
   13.1921  -16.4457   14.9517 C   0  0  2  0  0  0  0  0  0  0  0  0
   14.0821  -15.9274   13.9308 N   0  0  0  0  0  0  0  0  0  0  0  0
   13.8546  -16.0730   16.2572 C   0  0  0  0  0  0  0  0  0  0  0  0
   15.1030  -16.0047   16.3936 O   0  0  0  0  0  0  0  0  0  0  0  0
    8.7946  -21.0462   13.7464 O   0  0  0  0  0  0  0  0  0  0  0  0
   13.3142  -14.3851   20.7702 C   0  0  0  0  0  0  0  0  0  0  0  0
   12.7034  -14.8071   19.6106 C   0  0  2  0  0  0  0  0  0  0  0  0
   13.7420  -15.4146   18.6844 N   0  0  0  0  0  0  0  0  0  0  0  0
   13.0968  -15.7732   17.4245 C   0  0  0  0  0  0  0  0  0  0  0  0
   14.4554  -16.5531   19.2800 O   0  0  0  0  0  0  0  0  0  0  0  0
   15.2822  -16.4311   20.2202 O   0  0  0  0  0  0  0  0  0  0  0  0
  1  2  1  0
  2  3  2  0
  4  5  1  0
  4  2  1  0
  5  6  1  0
  6  8  1  0
  6  7  1  1
  8  9  2  0
 11 10  1  0
 11 12  2  0
 13 14  1  0
 13 11  1  0
 14 15  1  0
 15 16  1  0
 17 16  1  6
 17 19  1  0
 18 17  1  0
 18  8  1  0
 19 20  2  0
 21 22  1  0
 23 22  1  6
 23 25  1  0
 24 19  1  0
 24 23  1  0
 25 26  2  0
 25 27  1  0
M  END
$$$$
