QRS.pdb
     RDKit          3D

 27 26  0  0  1  0  0  0  0  0999 V2000
    7.7469  -12.0536   18.9552 N   0  0  0  0  0  0  0  0  0  0  0  0
    7.9583  -13.2435   18.1649 C   0  0  0  0  0  0  0  0  0  0  0  0
    7.8980  -13.1260   16.9274 O   0  0  0  0  0  0  0  0  0  0  0  0
    8.2313  -14.4941   18.8450 C   0  0  0  0  0  0  0  0  0  0  0  0
    8.2424  -14.4507   20.3226 C   0  0  0  0  0  0  0  0  0  0  0  0
    8.5178  -15.7572   20.9865 C   0  0  2  0  0  0  0  0  0  0  0  0
    8.0656  -16.8588   20.2075 N   0  0  0  0  0  0  0  0  0  0  0  0
    7.9491  -15.8329   22.3517 C   0  0  0  0  0  0  0  0  0  0  0  0
    6.7839  -15.3969   22.5021 O   0  0  0  0  0  0  0  0  0  0  0  0
    5.7323  -22.9276   24.6474 N   0  0  0  0  0  0  0  0  0  0  0  0
    4.9681  -22.0324   23.8310 C   0  0  0  0  0  0  0  0  0  0  0  0
    3.9709  -22.4852   23.1584 N   0  0  0  0  0  0  0  0  0  0  0  0
    5.3299  -20.6528   23.7777 N   0  0  0  0  0  0  0  0  0  0  0  0
    6.4748  -20.1283   24.4972 C   0  0  0  0  0  0  0  0  0  0  0  0
    6.6298  -18.6521   24.2037 C   0  0  0  0  0  0  0  0  0  0  0  0
    7.7688  -18.0709   25.0061 C   0  0  0  0  0  0  0  0  0  0  0  0
    8.0522  -16.6455   24.7316 C   0  0  2  0  0  0  0  0  0  0  0  0
    8.6351  -16.3508   23.4369 N   0  0  0  0  0  0  0  0  0  0  0  0
    9.0614  -16.1265   25.7289 C   0  0  0  0  0  0  0  0  0  0  0  0
   10.2782  -16.4428   25.6954 O   0  0  0  0  0  0  0  0  0  0  0  0
    3.4299  -21.8517   22.5350 O   0  0  0  0  0  0  0  0  0  0  0  0
    9.9288  -13.3153   29.5942 C   0  0  0  0  0  0  0  0  0  0  0  0
    9.0088  -13.7638   28.6732 C   0  0  2  0  0  0  0  0  0  0  0  0
    9.6327  -14.8603   27.8283 N   0  0  0  0  0  0  0  0  0  0  0  0
    8.6913  -15.2383   26.7780 C   0  0  0  0  0  0  0  0  0  0  0  0
   10.0720  -16.0205   28.6161 O   0  0  0  0  0  0  0  0  0  0  0  0
    9.3291  -17.0050   28.8638 O   0  0  0  0  0  0  0  0  0  0  0  0
  1  2  1  0
  2  3  2  0
  4  5  1  0
  4  2  1  0
  5  6  1  0
  6  8  1  0
  6  7  1  6
  8  9  2  0
 11 10  1  0
 11 12  2  0
 13 14  1  0
 13 11  1  0
 14 15  1  0
 15 16  1  0
 17 16  1  1
 17 19  1  0
 18 17  1  0
 18  8  1  0
 19 20  2  0
 21 22  1  0
 23 22  1  6
 23 25  1  0
 24 19  1  0
 24 23  1  0
 25 26  2  0
 25 27  1  0
M  END
$$$$
