QRS.pdb
     RDKit          3D

 27 26  0  0  1  0  0  0  0  0999 V2000
    7.5260  -13.0469   16.9454 N   0  0  0  0  0  0  0  0  0  0  0  0
    8.0475  -13.8361   15.8544 C   0  0  0  0  0  0  0  0  0  0  0  0
    7.4433  -13.7793   14.7679 O   0  0  0  0  0  0  0  0  0  0  0  0
    9.2344  -14.6378   16.0775 C   0  0  0  0  0  0  0  0  0  0  0  0
    9.8405  -14.5556   17.4233 C   0  0  0  0  0  0  0  0  0  0  0  0
    9.4855  -15.6763   18.3406 C   0  0  2  0  0  0  0  0  0  0  0  0
    8.1424  -16.1103   18.1600 N   0  0  0  0  0  0  0  0  0  0  0  0
    9.7253  -15.3446   19.7638 C   0  0  0  0  0  0  0  0  0  0  0  0
   10.8349  -14.8345   20.0446 O   0  0  0  0  0  0  0  0  0  0  0  0
    8.0612  -17.4337   26.8676 N   0  0  0  0  0  0  0  0  0  0  0  0
    7.0504  -17.7416   25.9005 C   0  0  0  0  0  0  0  0  0  0  0  0
    6.8157  -18.9689   25.5998 N   0  0  0  0  0  0  0  0  0  0  0  0
    6.3230  -16.6783   25.2863 N   0  0  0  0  0  0  0  0  0  0  0  0
    6.7990  -15.3083   25.3041 C   0  0  0  0  0  0  0  0  0  0  0  0
    8.0847  -15.2043   24.5132 C   0  0  0  0  0  0  0  0  0  0  0  0
    7.8108  -15.3614   23.0369 C   0  0  0  0  0  0  0  0  0  0  0  0
    9.0138  -15.3136   22.1779 C   0  0  2  0  0  0  0  0  0  0  0  0
    8.7984  -15.5703   20.7670 N   0  0  0  0  0  0  0  0  0  0  0  0
    9.9916  -16.3800   22.6124 C   0  0  0  0  0  0  0  0  0  0  0  0
    9.9053  -17.5777   22.2387 O   0  0  0  0  0  0  0  0  0  0  0  0
    6.0856  -19.2045   24.8968 O   0  0  0  0  0  0  0  0  0  0  0  0
   14.3849  -17.5215   23.9425 C   0  0  0  0  0  0  0  0  0  0  0  0
   13.4519  -16.5814   23.5662 C   0  0  1  0  0  0  0  0  0  0  0  0
   12.0576  -17.1107   23.8514 N   0  0  0  0  0  0  0  0  0  0  0  0
   11.0817  -16.0897   23.4808 C   0  0  0  0  0  0  0  0  0  0  0  0
   11.8810  -17.5618   25.2388 O   0  0  0  0  0  0  0  0  0  0  0  0
   11.1247  -16.9818   26.0598 O   0  0  0  0  0  0  0  0  0  0  0  0
  1  2  1  0
  2  3  2  0
  4  5  1  0
  4  2  1  0
  5  6  1  0
  6  8  1  0
  6  7  1  1
  8  9  2  0
 11 10  1  0
 11 12  2  0
 13 14  1  0
 13 11  1  0
 14 15  1  0
 15 16  1  0
 17 16  1  1
 17 19  1  0
 18 17  1  0
 18  8  1  0
 19 20  2  0
 21 22  1  0
 23 22  1  6
 23 25  1  0
 24 19  1  0
 24 23  1  0
 25 26  2  0
 25 27  1  0
M  END
$$$$
