QRS.pdb
     RDKit          3D

 27 26  0  0  1  0  0  0  0  0999 V2000
    8.1536  -21.2612   27.7663 N   0  0  0  0  0  0  0  0  0  0  0  0
    6.7787  -21.6058   27.4913 C   0  0  0  0  0  0  0  0  0  0  0  0
    6.1703  -22.2633   28.3552 O   0  0  0  0  0  0  0  0  0  0  0  0
    6.1856  -21.1691   26.2428 C   0  0  0  0  0  0  0  0  0  0  0  0
    7.0250  -20.3103   25.3806 C   0  0  0  0  0  0  0  0  0  0  0  0
    6.4122  -19.9469   24.0707 C   0  0  2  0  0  0  0  0  0  0  0  0
    6.3526  -21.0565   23.1819 N   0  0  0  0  0  0  0  0  0  0  0  0
    7.0990  -18.8090   23.4174 C   0  0  0  0  0  0  0  0  0  0  0  0
    8.0875  -19.0847   22.6983 O   0  0  0  0  0  0  0  0  0  0  0  0
    9.1180  -14.3175   18.1745 N   0  0  0  0  0  0  0  0  0  0  0  0
    8.6221  -13.2144   18.9420 C   0  0  0  0  0  0  0  0  0  0  0  0
    8.2978  -12.1235   18.3448 N   0  0  0  0  0  0  0  0  0  0  0  0
    8.4991  -13.3464   20.3578 N   0  0  0  0  0  0  0  0  0  0  0  0
    7.2499  -13.7245   20.9906 C   0  0  0  0  0  0  0  0  0  0  0  0
    7.4626  -13.8950   22.4788 C   0  0  0  0  0  0  0  0  0  0  0  0
    6.6723  -15.0737   22.9937 C   0  0  0  0  0  0  0  0  0  0  0  0
    7.4356  -16.3375   23.0805 C   0  0  2  0  0  0  0  0  0  0  0  0
    6.7031  -17.4908   23.5665 N   0  0  0  0  0  0  0  0  0  0  0  0
    8.5782  -16.1755   24.0554 C   0  0  0  0  0  0  0  0  0  0  0  0
    9.4649  -15.2930   23.9266 O   0  0  0  0  0  0  0  0  0  0  0  0
    7.9325  -11.3169   18.8914 O   0  0  0  0  0  0  0  0  0  0  0  0
    8.3808  -17.3912   27.9177 C   0  0  0  0  0  0  0  0  0  0  0  0
    9.2810  -16.4472   27.4768 C   0  0  1  0  0  0  0  0  0  0  0  0
    9.8325  -16.8668   26.1258 N   0  0  0  0  0  0  0  0  0  0  0  0
    8.7211  -17.0217   25.1913 C   0  0  0  0  0  0  0  0  0  0  0  0
   10.6687  -18.0736   26.1900 O   0  0  0  0  0  0  0  0  0  0  0  0
   10.3627  -19.1535   25.6219 O   0  0  0  0  0  0  0  0  0  0  0  0
  1  2  1  0
  2  3  2  0
  4  5  1  0
  4  2  1  0
  5  6  1  0
  6  8  1  0
  6  7  1  6
  8  9  2  0
 11 10  1  0
 11 12  2  0
 13 14  1  0
 13 11  1  0
 14 15  1  0
 15 16  1  0
 17 16  1  1
 17 19  1  0
 18 17  1  0
 18  8  1  0
 19 20  2  0
 21 22  1  0
 23 22  1  6
 23 25  1  0
 24 19  1  0
 24 23  1  0
 25 26  2  0
 25 27  1  0
M  END
$$$$
