QRS.pdb
     RDKit          3D

 27 26  0  0  1  0  0  0  0  0999 V2000
    8.2081  -12.2177   17.8824 N   0  0  0  0  0  0  0  0  0  0  0  0
    7.0495  -12.8954   17.3502 C   0  0  0  0  0  0  0  0  0  0  0  0
    6.2228  -12.2079   16.7236 O   0  0  0  0  0  0  0  0  0  0  0  0
    6.9147  -14.3225   17.5660 C   0  0  0  0  0  0  0  0  0  0  0  0
    8.0078  -14.9811   18.3121 C   0  0  0  0  0  0  0  0  0  0  0  0
    9.2184  -15.2982   17.5013 C   0  0  2  0  0  0  0  0  0  0  0  0
    8.9390  -16.2338   16.4663 N   0  0  0  0  0  0  0  0  0  0  0  0
   10.3481  -15.7790   18.3295 C   0  0  0  0  0  0  0  0  0  0  0  0
   10.3940  -17.0098   18.5604 O   0  0  0  0  0  0  0  0  0  0  0  0
   17.4152  -15.5267   19.0308 N   0  0  0  0  0  0  0  0  0  0  0  0
   16.9446  -14.2681   18.5345 C   0  0  0  0  0  0  0  0  0  0  0  0
   17.2542  -13.9028   17.3418 N   0  0  0  0  0  0  0  0  0  0  0  0
   16.1412  -13.4408   19.3754 N   0  0  0  0  0  0  0  0  0  0  0  0
   15.7858  -13.8303   20.7266 C   0  0  0  0  0  0  0  0  0  0  0  0
   14.6865  -14.8692   20.6860 C   0  0  0  0  0  0  0  0  0  0  0  0
   13.5547  -14.4061   19.8008 C   0  0  0  0  0  0  0  0  0  0  0  0
   12.4455  -15.3743   19.6607 C   0  0  2  0  0  0  0  0  0  0  0  0
   11.3265  -14.9457   18.8439 N   0  0  0  0  0  0  0  0  0  0  0  0
   11.8403  -15.6539   21.0164 C   0  0  0  0  0  0  0  0  0  0  0  0
   11.1101  -14.8275   21.6210 O   0  0  0  0  0  0  0  0  0  0  0  0
   17.0007  -12.9519   17.0038 O   0  0  0  0  0  0  0  0  0  0  0  0
   10.5303  -18.9470   24.2594 C   0  0  0  0  0  0  0  0  0  0  0  0
   11.0418  -18.6388   23.0188 C   0  0  1  0  0  0  0  0  0  0  0  0
   11.4307  -17.1715   22.9827 N   0  0  0  0  0  0  0  0  0  0  0  0
   12.0629  -16.8836   21.6983 C   0  0  0  0  0  0  0  0  0  0  0  0
   12.2768  -16.7676   24.1144 O   0  0  0  0  0  0  0  0  0  0  0  0
   13.4808  -16.4266   23.9859 O   0  0  0  0  0  0  0  0  0  0  0  0
  1  2  1  0
  2  3  2  0
  4  5  1  0
  4  2  1  0
  5  6  1  0
  6  8  1  0
  6  7  1  6
  8  9  2  0
 11 10  1  0
 11 12  2  0
 13 14  1  0
 13 11  1  0
 14 15  1  0
 15 16  1  0
 17 16  1  1
 17 19  1  0
 18 17  1  0
 18  8  1  0
 19 20  2  0
 21 22  1  0
 23 22  1  6
 23 25  1  0
 24 19  1  0
 24 23  1  0
 25 26  2  0
 25 27  1  0
M  END
$$$$
