QRS.pdb
     RDKit          3D

 27 26  0  0  1  0  0  0  0  0999 V2000
   -0.7902  -28.3098   34.3772 N   0  0  0  0  0  0  0  0  0  0  0  0
   -2.0075  -28.3564   33.6019 C   0  0  0  0  0  0  0  0  0  0  0  0
   -2.6188  -29.4397   33.5622 O   0  0  0  0  0  0  0  0  0  0  0  0
   -2.4503  -27.1539   32.9243 C   0  0  0  0  0  0  0  0  0  0  0  0
   -3.0777  -27.3388   31.5986 C   0  0  0  0  0  0  0  0  0  0  0  0
   -2.2265  -26.9409   30.4408 C   0  0  2  0  0  0  0  0  0  0  0  0
   -0.8467  -26.8882   30.7846 N   0  0  0  0  0  0  0  0  0  0  0  0
   -2.6495  -25.6557   29.8386 C   0  0  0  0  0  0  0  0  0  0  0  0
   -2.2386  -24.6104   30.3944 O   0  0  0  0  0  0  0  0  0  0  0  0
   -3.2903  -21.1174   24.0813 N   0  0  0  0  0  0  0  0  0  0  0  0
   -4.6965  -20.9322   23.8812 C   0  0  0  0  0  0  0  0  0  0  0  0
   -5.1391  -19.7766   23.5340 N   0  0  0  0  0  0  0  0  0  0  0  0
   -5.5817  -22.0351   24.0734 N   0  0  0  0  0  0  0  0  0  0  0  0
   -5.1311  -23.2967   24.6295 C   0  0  0  0  0  0  0  0  0  0  0  0
   -4.6902  -23.0944   26.0626 C   0  0  0  0  0  0  0  0  0  0  0  0
   -4.2879  -24.4110   26.6822 C   0  0  0  0  0  0  0  0  0  0  0  0
   -3.9118  -24.3312   28.1104 C   0  0  2  0  0  0  0  0  0  0  0  0
   -3.4582  -25.5670   28.7186 N   0  0  0  0  0  0  0  0  0  0  0  0
   -5.1133  -23.9236   28.9305 C   0  0  0  0  0  0  0  0  0  0  0  0
   -6.0102  -24.7346   29.2762 O   0  0  0  0  0  0  0  0  0  0  0  0
   -6.1635  -19.6096   23.4601 O   0  0  0  0  0  0  0  0  0  0  0  0
   -7.2397  -20.5178   31.6382 C   0  0  0  0  0  0  0  0  0  0  0  0
   -6.1836  -20.8579   30.8228 C   0  0  2  0  0  0  0  0  0  0  0  0
   -6.4684  -22.1925   30.1570 N   0  0  0  0  0  0  0  0  0  0  0  0
   -5.3043  -22.5818   29.3662 C   0  0  0  0  0  0  0  0  0  0  0  0
   -7.7008  -22.1900   29.3564 O   0  0  0  0  0  0  0  0  0  0  0  0
   -7.7205  -21.9348   28.1247 O   0  0  0  0  0  0  0  0  0  0  0  0
  1  2  1  0
  2  3  2  0
  4  5  1  0
  4  2  1  0
  5  6  1  0
  6  8  1  0
  6  7  1  1
  8  9  2  0
 11 10  1  0
 11 12  2  0
 13 14  1  0
 13 11  1  0
 14 15  1  0
 15 16  1  0
 17 16  1  6
 17 19  1  0
 18 17  1  0
 18  8  1  0
 19 20  2  0
 21 22  1  0
 23 22  1  1
 23 25  1  0
 24 19  1  0
 24 23  1  0
 25 26  2  0
 25 27  1  0
M  END
$$$$
