QRS.pdb
     RDKit          3D

 27 26  0  0  1  0  0  0  0  0999 V2000
    8.4255  -12.3243   18.3776 N   0  0  0  0  0  0  0  0  0  0  0  0
    8.6748  -13.4060   17.4542 C   0  0  0  0  0  0  0  0  0  0  0  0
    9.2153  -13.1194   16.3705 O   0  0  0  0  0  0  0  0  0  0  0  0
    8.2925  -14.7513   17.8351 C   0  0  0  0  0  0  0  0  0  0  0  0
    7.6183  -14.8985   19.1425 C   0  0  0  0  0  0  0  0  0  0  0  0
    7.4034  -16.3070   19.5824 C   0  0  2  0  0  0  0  0  0  0  0  0
    6.4951  -16.9996   18.7338 N   0  0  0  0  0  0  0  0  0  0  0  0
    6.9555  -16.4012   20.9908 C   0  0  0  0  0  0  0  0  0  0  0  0
    5.7426  -16.1779   21.2128 O   0  0  0  0  0  0  0  0  0  0  0  0
    8.2591  -22.2402   27.4172 N   0  0  0  0  0  0  0  0  0  0  0  0
    7.3898  -21.2465   27.9728 C   0  0  0  0  0  0  0  0  0  0  0  0
    6.8392  -21.4552   29.1152 N   0  0  0  0  0  0  0  0  0  0  0  0
    7.1490  -20.0422   27.2456 N   0  0  0  0  0  0  0  0  0  0  0  0
    7.6286  -19.8519   25.8900 C   0  0  0  0  0  0  0  0  0  0  0  0
    7.2680  -18.4627   25.4112 C   0  0  0  0  0  0  0  0  0  0  0  0
    7.6986  -18.2700   23.9772 C   0  0  0  0  0  0  0  0  0  0  0  0
    7.3832  -16.9402   23.4118 C   0  0  2  0  0  0  0  0  0  0  0  0
    7.8004  -16.7166   22.0411 N   0  0  0  0  0  0  0  0  0  0  0  0
    8.0950  -15.8689   24.2044 C   0  0  0  0  0  0  0  0  0  0  0  0
    9.3387  -15.6913   24.1475 O   0  0  0  0  0  0  0  0  0  0  0  0
    6.2940  -20.6998   29.5787 O   0  0  0  0  0  0  0  0  0  0  0  0
    5.9803  -13.1552   26.5465 C   0  0  0  0  0  0  0  0  0  0  0  0
    7.1942  -12.7679   26.0246 C   0  0  1  0  0  0  0  0  0  0  0  0
    8.0904  -13.9842   25.8732 N   0  0  0  0  0  0  0  0  0  0  0  0
    7.3925  -14.9864   25.0728 C   0  0  0  0  0  0  0  0  0  0  0  0
    8.5499  -14.5297   27.1581 O   0  0  0  0  0  0  0  0  0  0  0  0
    9.1533  -13.8418   28.0212 O   0  0  0  0  0  0  0  0  0  0  0  0
  1  2  1  0
  2  3  2  0
  4  5  1  0
  4  2  1  0
  5  6  1  0
  6  8  1  0
  6  7  1  6
  8  9  2  0
 11 10  1  0
 11 12  2  0
 13 14  1  0
 13 11  1  0
 14 15  1  0
 15 16  1  0
 17 16  1  1
 17 19  1  0
 18 17  1  0
 18  8  1  0
 19 20  2  0
 21 22  1  0
 23 22  1  6
 23 25  1  0
 24 19  1  0
 24 23  1  0
 25 26  2  0
 25 27  1  0
M  END
$$$$
