SEI.pdb
     RDKit          3D

 24 23  0  0  1  0  0  0  0  0999 V2000
   28.4005  -22.3690  -14.3714 O   0  0  0  0  0  0  0  0  0  0  0  0
   28.7310  -21.1614  -14.9598 C   0  0  0  0  0  0  0  0  0  0  0  0
   27.4295  -20.4879  -15.3633 C   0  0  2  0  0  0  0  0  0  0  0  0
   27.7464  -19.3064  -16.1176 N   0  0  0  0  0  0  0  0  0  0  0  0
   26.6816  -20.0920  -14.1535 C   0  0  0  0  0  0  0  0  0  0  0  0
   26.9416  -18.9563  -13.6245 O   0  0  0  0  0  0  0  0  0  0  0  0
   25.7031  -20.9348  -13.5854 N   0  0  0  0  0  0  0  0  0  0  0  0
   24.9188  -20.4650  -12.4783 C   0  0  1  0  0  0  0  0  0  0  0  0
   23.4635  -20.8712  -12.6099 C   0  0  0  0  0  0  0  0  0  0  0  0
   22.6460  -19.7086  -13.1222 C   0  0  0  0  0  0  0  0  0  0  0  0
   22.0069  -19.9850  -14.4123 C   0  0  0  0  0  0  0  0  0  0  0  0
   21.2288  -20.9479  -14.5345 O   0  0  0  0  0  0  0  0  0  0  0  0
   25.5068  -20.9844  -11.2084 C   0  0  0  0  0  0  0  0  0  0  0  0
   25.8968  -22.1771  -11.1283 O   0  0  0  0  0  0  0  0  0  0  0  0
   22.2524  -19.1905  -15.5086 O   0  0  0  0  0  0  0  0  0  0  0  0
   28.4771  -19.5107   -5.9631 C   0  0  0  0  0  0  0  0  0  0  0  0
   27.5321  -20.3754   -6.7122 C   0  0  0  0  0  0  0  0  0  0  0  0
   26.9570  -19.8216   -7.9624 C   0  0  2  0  0  0  0  0  0  0  0  0
   26.2645  -18.4752   -7.7239 C   0  0  0  0  0  0  0  0  0  0  0  0
   26.0535  -20.7005   -8.7487 C   0  0  2  0  0  0  0  0  0  0  0  0
   25.6600  -20.1884  -10.0401 N   0  0  0  0  0  0  0  0  0  0  0  0
   24.9179  -21.2382   -7.9737 C   0  0  0  0  0  0  0  0  0  0  0  0
   23.6163  -20.8735   -8.2949 O   0  0  0  0  0  0  0  0  0  0  0  0
   25.0381  -22.0346   -7.0039 O   0  0  0  0  0  0  0  0  0  0  0  0
  2  3  1  0
  2  1  1  0
  3  4  1  6
  5  6  2  0
  5  3  1  0
  7  5  1  0
  8 13  1  0
  8  7  1  0
  8  9  1  6
 10 11  1  0
 10  9  1  0
 11 12  2  0
 13 21  1  0
 14 13  2  0
 15 11  1  0
 17 16  1  0
 18 17  1  0
 18 20  1  0
 18 19  1  1
 20 22  1  0
 20 21  1  6
 22 24  2  0
 22 23  1  0
M  END
$$$$
