SEI.pdb
     RDKit          3D

 24 23  0  0  1  0  0  0  0  0999 V2000
   11.5247  -13.0685  -12.8124 O   0  0  0  0  0  0  0  0  0  0  0  0
   12.4028  -12.3409  -12.0294 C   0  0  0  0  0  0  0  0  0  0  0  0
   13.7948  -12.5512  -12.6024 C   0  0  2  0  0  0  0  0  0  0  0  0
   14.2237  -13.8825  -12.2724 N   0  0  0  0  0  0  0  0  0  0  0  0
   14.7315  -11.5862  -11.9931 C   0  0  0  0  0  0  0  0  0  0  0  0
   15.0877  -11.7715  -10.7782 O   0  0  0  0  0  0  0  0  0  0  0  0
   15.2283  -10.4842  -12.7205 N   0  0  0  0  0  0  0  0  0  0  0  0
   16.2225   -9.6339  -12.1288 C   0  0  1  0  0  0  0  0  0  0  0  0
   17.2020   -9.1129  -13.1628 C   0  0  0  0  0  0  0  0  0  0  0  0
   18.2558   -8.2612  -12.4945 C   0  0  0  0  0  0  0  0  0  0  0  0
   19.2583   -7.7517  -13.4350 C   0  0  0  0  0  0  0  0  0  0  0  0
   20.3431   -8.3434  -13.5787 O   0  0  0  0  0  0  0  0  0  0  0  0
   15.5436   -8.5091  -11.4201 C   0  0  0  0  0  0  0  0  0  0  0  0
   14.6474   -7.8417  -11.9965 O   0  0  0  0  0  0  0  0  0  0  0  0
   19.0224   -6.6153  -14.1742 O   0  0  0  0  0  0  0  0  0  0  0  0
   12.2521   -8.6507   -7.5399 C   0  0  0  0  0  0  0  0  0  0  0  0
   13.1313   -8.2119   -8.6519 C   0  0  0  0  0  0  0  0  0  0  0  0
   14.3146   -7.3924   -8.2934 C   0  0  2  0  0  0  0  0  0  0  0  0
   13.9198   -6.1286   -7.5211 C   0  0  0  0  0  0  0  0  0  0  0  0
   15.2479   -7.0215   -9.3881 C   0  0  2  0  0  0  0  0  0  0  0  0
   15.8564   -8.1294  -10.0859 N   0  0  0  0  0  0  0  0  0  0  0  0
   16.2189   -5.9731   -9.0174 C   0  0  0  0  0  0  0  0  0  0  0  0
   15.8633   -4.6321   -9.0920 O   0  0  0  0  0  0  0  0  0  0  0  0
   17.3933   -6.2053   -8.6222 O   0  0  0  0  0  0  0  0  0  0  0  0
  2  3  1  0
  2  1  1  0
  3  4  1  1
  5  6  2  0
  5  3  1  0
  7  5  1  0
  8 13  1  0
  8  7  1  0
  8  9  1  6
 10 11  1  0
 10  9  1  0
 11 12  2  0
 13 21  1  0
 14 13  2  0
 15 11  1  0
 17 16  1  0
 18 17  1  0
 18 20  1  0
 18 19  1  6
 20 22  1  0
 20 21  1  1
 22 24  2  0
 22 23  1  0
M  END
$$$$
