SEI.pdb
     RDKit          3D

 24 23  0  0  1  0  0  0  0  0999 V2000
   15.6583  -13.1543  -14.4517 O   0  0  0  0  0  0  0  0  0  0  0  0
   16.6475  -12.2038  -14.6298 C   0  0  0  0  0  0  0  0  0  0  0  0
   16.6194  -11.7958  -16.0937 C   0  0  2  0  0  0  0  0  0  0  0  0
   17.1611  -12.8738  -16.8744 N   0  0  0  0  0  0  0  0  0  0  0  0
   17.4608  -10.5985  -16.2897 C   0  0  0  0  0  0  0  0  0  0  0  0
   18.6568  -10.7609  -16.7145 O   0  0  0  0  0  0  0  0  0  0  0  0
   16.9710   -9.3034  -16.0194 N   0  0  0  0  0  0  0  0  0  0  0  0
   17.7765   -8.1591  -16.3411 C   0  0  1  0  0  0  0  0  0  0  0  0
   16.9500   -6.8885  -16.3929 C   0  0  0  0  0  0  0  0  0  0  0  0
   17.8152   -5.7255  -16.8186 C   0  0  0  0  0  0  0  0  0  0  0  0
   17.0745   -4.4630  -16.8996 C   0  0  0  0  0  0  0  0  0  0  0  0
   17.6187   -3.3930  -16.5733 O   0  0  0  0  0  0  0  0  0  0  0  0
   18.8779   -8.0408  -15.3405 C   0  0  0  0  0  0  0  0  0  0  0  0
   18.6420   -8.1836  -14.1138 O   0  0  0  0  0  0  0  0  0  0  0  0
   15.7696   -4.4346  -17.3356 O   0  0  0  0  0  0  0  0  0  0  0  0
   23.0895  -11.0984  -15.2465 C   0  0  0  0  0  0  0  0  0  0  0  0
   22.0026  -10.1065  -15.0542 C   0  0  0  0  0  0  0  0  0  0  0  0
   22.4010   -8.6818  -14.9441 C   0  0  2  0  0  0  0  0  0  0  0  0
   23.4705   -8.4707  -13.8666 C   0  0  0  0  0  0  0  0  0  0  0  0
   21.3193   -7.6806  -14.7583 C   0  0  2  0  0  0  0  0  0  0  0  0
   20.2267   -7.7669  -15.6981 N   0  0  0  0  0  0  0  0  0  0  0  0
   21.8074   -6.3001  -14.5699 C   0  0  0  0  0  0  0  0  0  0  0  0
   21.5543   -5.3310  -15.5327 O   0  0  0  0  0  0  0  0  0  0  0  0
   22.4624   -5.9130  -13.5647 O   0  0  0  0  0  0  0  0  0  0  0  0
  2  3  1  0
  2  1  1  0
  3  4  1  6
  5  6  2  0
  5  3  1  0
  7  5  1  0
  8 13  1  0
  8  7  1  0
  8  9  1  1
 10 11  1  0
 10  9  1  0
 11 12  2  0
 13 21  1  0
 14 13  2  0
 15 11  1  0
 17 16  1  0
 18 17  1  0
 18 20  1  0
 18 19  1  1
 20 22  1  0
 20 21  1  6
 22 24  2  0
 22 23  1  0
M  END
$$$$
