SEI.pdb
     RDKit          3D

 24 23  0  0  1  0  0  0  0  0999 V2000
   17.7705  -14.0200  -14.2798 O   0  0  0  0  0  0  0  0  0  0  0  0
   16.7487  -13.4663  -15.0300 C   0  0  0  0  0  0  0  0  0  0  0  0
   17.2325  -13.4031  -16.4696 C   0  0  2  0  0  0  0  0  0  0  0  0
   17.8867  -14.6439  -16.7819 N   0  0  0  0  0  0  0  0  0  0  0  0
   18.2065  -12.3032  -16.6161 C   0  0  0  0  0  0  0  0  0  0  0  0
   19.4463  -12.6013  -16.7218 O   0  0  0  0  0  0  0  0  0  0  0  0
   17.7940  -10.9542  -16.6405 N   0  0  0  0  0  0  0  0  0  0  0  0
   18.7474   -9.9266  -16.9513 C   0  0  1  0  0  0  0  0  0  0  0  0
   18.0662   -8.6375  -17.3686 C   0  0  0  0  0  0  0  0  0  0  0  0
   17.2028   -8.8787  -18.5847 C   0  0  0  0  0  0  0  0  0  0  0  0
   16.1795   -7.8458  -18.7718 C   0  0  0  0  0  0  0  0  0  0  0  0
   15.0130   -8.0397  -18.3855 O   0  0  0  0  0  0  0  0  0  0  0  0
   19.6308   -9.7065  -15.7683 C   0  0  0  0  0  0  0  0  0  0  0  0
   19.1838   -9.8577  -14.6028 O   0  0  0  0  0  0  0  0  0  0  0  0
   16.4853   -6.6473  -19.3748 O   0  0  0  0  0  0  0  0  0  0  0  0
   25.2202  -10.8678  -15.6924 C   0  0  0  0  0  0  0  0  0  0  0  0
   24.1010   -9.8939  -15.7195 C   0  0  0  0  0  0  0  0  0  0  0  0
   23.0433  -10.0528  -14.6916 C   0  0  2  0  0  0  0  0  0  0  0  0
   22.5319  -11.4959  -14.6182 C   0  0  0  0  0  0  0  0  0  0  0  0
   21.8821   -9.1283  -14.7551 C   0  0  2  0  0  0  0  0  0  0  0  0
   20.9956   -9.3228  -15.8780 N   0  0  0  0  0  0  0  0  0  0  0  0
   22.2331   -7.7106  -14.5392 C   0  0  0  0  0  0  0  0  0  0  0  0
   21.9050   -6.7554  -15.4932 O   0  0  0  0  0  0  0  0  0  0  0  0
   22.8312   -7.2784  -13.5171 O   0  0  0  0  0  0  0  0  0  0  0  0
  2  3  1  0
  2  1  1  0
  3  4  1  1
  5  6  2  0
  5  3  1  0
  7  5  1  0
  8 13  1  0
  8  7  1  0
  8  9  1  1
 10 11  1  0
 10  9  1  0
 11 12  2  0
 13 21  1  0
 14 13  2  0
 15 11  1  0
 17 16  1  0
 18 17  1  0
 18 20  1  0
 18 19  1  6
 20 22  1  0
 20 21  1  6
 22 24  2  0
 22 23  1  0
M  END
$$$$
