SEI.pdb
     RDKit          3D

 24 23  0  0  1  0  0  0  0  0999 V2000
   14.0927  -10.3356  -13.9074 O   0  0  0  0  0  0  0  0  0  0  0  0
   15.4132  -10.0231  -14.1766 C   0  0  0  0  0  0  0  0  0  0  0  0
   15.4886   -9.6155  -15.6390 C   0  0  2  0  0  0  0  0  0  0  0  0
   15.7505  -10.7908  -16.4234 N   0  0  0  0  0  0  0  0  0  0  0  0
   16.5985   -8.6607  -15.8297 C   0  0  0  0  0  0  0  0  0  0  0  0
   17.6967   -9.0977  -16.3199 O   0  0  0  0  0  0  0  0  0  0  0  0
   16.4647   -7.2993  -15.4845 N   0  0  0  0  0  0  0  0  0  0  0  0
   17.5296   -6.3838  -15.7839 C   0  0  1  0  0  0  0  0  0  0  0  0
   17.0375   -4.9504  -15.8390 C   0  0  0  0  0  0  0  0  0  0  0  0
   18.1810   -4.0235  -16.1799 C   0  0  0  0  0  0  0  0  0  0  0  0
   17.7691   -2.6197  -16.2729 C   0  0  0  0  0  0  0  0  0  0  0  0
   17.7491   -1.9020  -15.2569 O   0  0  0  0  0  0  0  0  0  0  0  0
   18.6088   -6.5405  -14.7647 C   0  0  0  0  0  0  0  0  0  0  0  0
   18.3205   -6.7083  -13.5524 O   0  0  0  0  0  0  0  0  0  0  0  0
   17.3982   -2.0691  -17.4782 O   0  0  0  0  0  0  0  0  0  0  0  0
   22.2323  -10.2531  -14.8729 C   0  0  0  0  0  0  0  0  0  0  0  0
   21.3251   -9.1035  -14.6336 C   0  0  0  0  0  0  0  0  0  0  0  0
   21.9570   -7.8020  -14.3061 C   0  0  2  0  0  0  0  0  0  0  0  0
   22.8932   -7.9110  -13.0973 C   0  0  0  0  0  0  0  0  0  0  0  0
   21.0601   -6.6320  -14.1225 C   0  0  2  0  0  0  0  0  0  0  0  0
   19.9933   -6.5113  -15.0879 N   0  0  0  0  0  0  0  0  0  0  0  0
   21.7742   -5.3604  -13.8933 C   0  0  0  0  0  0  0  0  0  0  0  0
   21.7118   -4.3430  -14.8373 O   0  0  0  0  0  0  0  0  0  0  0  0
   22.4646   -5.1123  -12.8681 O   0  0  0  0  0  0  0  0  0  0  0  0
  2  3  1  0
  2  1  1  0
  3  4  1  6
  5  6  2  0
  5  3  1  0
  7  5  1  0
  8 13  1  0
  8  7  1  0
  8  9  1  1
 10 11  1  0
 10  9  1  0
 11 12  2  0
 13 21  1  0
 14 13  2  0
 15 11  1  0
 17 16  1  0
 18 17  1  0
 18 20  1  0
 18 19  1  1
 20 22  1  0
 20 21  1  6
 22 24  2  0
 22 23  1  0
M  END
$$$$
