SEI.pdb
     RDKit          3D

 24 23  0  0  1  0  0  0  0  0999 V2000
   17.5243  -14.2753  -14.7237 O   0  0  0  0  0  0  0  0  0  0  0  0
   16.3610  -13.8001  -15.3022 C   0  0  0  0  0  0  0  0  0  0  0  0
   16.6774  -13.4892  -16.7561 C   0  0  2  0  0  0  0  0  0  0  0  0
   17.3634  -14.6185  -17.3213 N   0  0  0  0  0  0  0  0  0  0  0  0
   17.5639  -12.3108  -16.8282 C   0  0  0  0  0  0  0  0  0  0  0  0
   18.8188  -12.5048  -16.9860 O   0  0  0  0  0  0  0  0  0  0  0  0
   17.0535  -10.9995  -16.7271 N   0  0  0  0  0  0  0  0  0  0  0  0
   17.9167   -9.8808  -16.9822 C   0  0  1  0  0  0  0  0  0  0  0  0
   17.1292   -8.6024  -17.1961 C   0  0  0  0  0  0  0  0  0  0  0  0
   18.0640   -7.4747  -17.5663 C   0  0  0  0  0  0  0  0  0  0  0  0
   17.3648   -6.2075  -17.7996 C   0  0  0  0  0  0  0  0  0  0  0  0
   16.8974   -5.9450  -18.9222 O   0  0  0  0  0  0  0  0  0  0  0  0
   18.8754   -9.7354  -15.8474 C   0  0  0  0  0  0  0  0  0  0  0  0
   18.5340  -10.0553  -14.6803 O   0  0  0  0  0  0  0  0  0  0  0  0
   17.2114   -5.2870  -16.7883 O   0  0  0  0  0  0  0  0  0  0  0  0
   23.4938  -12.1194  -15.7152 C   0  0  0  0  0  0  0  0  0  0  0  0
   22.2485  -11.3353  -15.5240 C   0  0  0  0  0  0  0  0  0  0  0  0
   22.3996   -9.9223  -15.0985 C   0  0  2  0  0  0  0  0  0  0  0  0
   23.2484   -9.7970  -13.8284 C   0  0  0  0  0  0  0  0  0  0  0  0
   21.1600   -9.1197  -14.9358 C   0  0  2  0  0  0  0  0  0  0  0  0
   20.1988   -9.2400  -16.0065 N   0  0  0  0  0  0  0  0  0  0  0  0
   21.4017   -7.7195  -14.5354 C   0  0  0  0  0  0  0  0  0  0  0  0
   21.6155   -7.4005  -13.2002 O   0  0  0  0  0  0  0  0  0  0  0  0
   21.4310   -6.7493  -15.3399 O   0  0  0  0  0  0  0  0  0  0  0  0
  2  3  1  0
  2  1  1  0
  3  4  1  1
  5  6  2  0
  5  3  1  0
  7  5  1  0
  8 13  1  0
  8  7  1  0
  8  9  1  1
 10 11  1  0
 10  9  1  0
 11 12  2  0
 13 21  1  0
 14 13  2  0
 15 11  1  0
 17 16  1  0
 18 17  1  0
 18 20  1  0
 18 19  1  1
 20 22  1  0
 20 21  1  6
 22 24  2  0
 22 23  1  0
M  END
$$$$
