SEI.pdb
     RDKit          3D

 24 23  0  0  1  0  0  0  0  0999 V2000
   18.7374  -23.9911  -12.6397 O   0  0  0  0  0  0  0  0  0  0  0  0
   19.8785  -24.4431  -12.0015 C   0  0  0  0  0  0  0  0  0  0  0  0
   19.6351  -25.8948  -11.6221 C   0  0  2  0  0  0  0  0  0  0  0  0
   19.1267  -26.5848  -12.7757 N   0  0  0  0  0  0  0  0  0  0  0  0
   18.6264  -25.9623  -10.5461 C   0  0  0  0  0  0  0  0  0  0  0  0
   17.4585  -26.3972  -10.8363 O   0  0  0  0  0  0  0  0  0  0  0  0
   18.9294  -25.5608   -9.2280 N   0  0  0  0  0  0  0  0  0  0  0  0
   17.9236  -25.6585   -8.2080 C   0  0  1  0  0  0  0  0  0  0  0  0
   18.5348  -25.7058   -6.8208 C   0  0  0  0  0  0  0  0  0  0  0  0
   17.4509  -25.8846   -5.7836 C   0  0  0  0  0  0  0  0  0  0  0  0
   17.9822  -26.0928   -4.4333 C   0  0  0  0  0  0  0  0  0  0  0  0
   19.1988  -25.9614   -4.2095 O   0  0  0  0  0  0  0  0  0  0  0  0
   16.9822  -24.5075   -8.3392 C   0  0  0  0  0  0  0  0  0  0  0  0
   17.4064  -23.3732   -8.6777 O   0  0  0  0  0  0  0  0  0  0  0  0
   17.1519  -26.4358   -3.3909 O   0  0  0  0  0  0  0  0  0  0  0  0
   11.4847  -23.0452  -10.4992 C   0  0  0  0  0  0  0  0  0  0  0  0
   12.5566  -22.7549   -9.5149 C   0  0  0  0  0  0  0  0  0  0  0  0
   13.5120  -23.8494   -9.2153 C   0  0  2  0  0  0  0  0  0  0  0  0
   12.7957  -25.1141   -8.7285 C   0  0  0  0  0  0  0  0  0  0  0  0
   14.6374  -23.5434   -8.2951 C   0  0  2  0  0  0  0  0  0  0  0  0
   15.5851  -24.6146   -8.0972 N   0  0  0  0  0  0  0  0  0  0  0  0
   14.2204  -22.9045   -7.0312 C   0  0  0  0  0  0  0  0  0  0  0  0
   13.6473  -21.6389   -7.0428 O   0  0  0  0  0  0  0  0  0  0  0  0
   14.3473  -23.4360   -5.8951 O   0  0  0  0  0  0  0  0  0  0  0  0
  2  3  1  0
  2  1  1  0
  3  4  1  6
  5  6  2  0
  5  3  1  0
  7  5  1  0
  8 13  1  0
  8  7  1  0
  8  9  1  1
 10 11  1  0
 10  9  1  0
 11 12  2  0
 13 21  1  0
 14 13  2  0
 15 11  1  0
 17 16  1  0
 18 17  1  0
 18 20  1  0
 18 19  1  1
 20 22  1  0
 20 21  1  1
 22 24  2  0
 22 23  1  0
M  END
$$$$
