SEI.pdb
     RDKit          3D

 24 23  0  0  1  0  0  0  0  0999 V2000
   15.6526  -11.7699  -16.3916 O   0  0  0  0  0  0  0  0  0  0  0  0
   16.6132  -10.7869  -16.2344 C   0  0  0  0  0  0  0  0  0  0  0  0
   17.2764  -10.5872  -17.5875 C   0  0  2  0  0  0  0  0  0  0  0  0
   17.9395  -11.8092  -17.9511 N   0  0  0  0  0  0  0  0  0  0  0  0
   18.2831   -9.5116  -17.4909 C   0  0  0  0  0  0  0  0  0  0  0  0
   19.5207   -9.8352  -17.5199 O   0  0  0  0  0  0  0  0  0  0  0  0
   17.9037   -8.1582  -17.3695 N   0  0  0  0  0  0  0  0  0  0  0  0
   18.9150   -7.1406  -17.3120 C   0  0  1  0  0  0  0  0  0  0  0  0
   18.3356   -5.7601  -17.5536 C   0  0  0  0  0  0  0  0  0  0  0  0
   19.4312   -4.7215  -17.4950 C   0  0  0  0  0  0  0  0  0  0  0  0
   18.9492   -3.3670  -17.7816 C   0  0  0  0  0  0  0  0  0  0  0  0
   19.7236   -2.3960  -17.7094 O   0  0  0  0  0  0  0  0  0  0  0  0
   19.6012   -7.2088  -15.9881 C   0  0  0  0  0  0  0  0  0  0  0  0
   18.9359   -7.3722  -14.9336 O   0  0  0  0  0  0  0  0  0  0  0  0
   17.6384   -3.1419  -18.1345 O   0  0  0  0  0  0  0  0  0  0  0  0
   23.0363  -10.8574  -14.8780 C   0  0  0  0  0  0  0  0  0  0  0  0
   22.0982   -9.7084  -14.9232 C   0  0  0  0  0  0  0  0  0  0  0  0
   22.6180   -8.3948  -14.4707 C   0  0  2  0  0  0  0  0  0  0  0  0
   23.1787   -8.4638  -13.0458 C   0  0  0  0  0  0  0  0  0  0  0  0
   21.7095   -7.2244  -14.5794 C   0  0  2  0  0  0  0  0  0  0  0  0
   21.0107   -7.0970  -15.8364 N   0  0  0  0  0  0  0  0  0  0  0  0
   22.3114   -5.9551  -14.1255 C   0  0  0  0  0  0  0  0  0  0  0  0
   22.4337   -5.6847  -12.7682 O   0  0  0  0  0  0  0  0  0  0  0  0
   22.7414   -5.0595  -14.9015 O   0  0  0  0  0  0  0  0  0  0  0  0
  2  3  1  0
  2  1  1  0
  3  4  1  1
  5  6  2  0
  5  3  1  0
  7  5  1  0
  8 13  1  0
  8  7  1  0
  8  9  1  1
 10 11  1  0
 10  9  1  0
 11 12  2  0
 13 21  1  0
 14 13  2  0
 15 11  1  0
 17 16  1  0
 18 17  1  0
 18 20  1  0
 18 19  1  1
 20 22  1  0
 20 21  1  6
 22 24  2  0
 22 23  1  0
M  END
$$$$
