NVL.pdb
     RDKit          3D

 24 23  0  0  1  0  0  0  0  0999 V2000
   28.3707  -17.7629  -17.5540 N   0  0  0  0  0  0  0  0  0  0  0  0
   28.3349  -16.8856  -16.4520 C   0  0  0  0  0  0  0  0  0  0  0  0
   29.2263  -16.0141  -16.3332 O   0  0  0  0  0  0  0  0  0  0  0  0
   27.2446  -17.0126  -15.4581 C   0  0  0  0  0  0  0  0  0  0  0  0
   26.3093  -18.1496  -15.8244 C   0  0  2  0  0  0  0  0  0  0  0  0
   25.3469  -17.7470  -16.8271 N   0  0  0  0  0  0  0  0  0  0  0  0
   25.5559  -18.4872  -14.5732 C   0  0  0  0  0  0  0  0  0  0  0  0
   24.6631  -17.7542  -14.0971 O   0  0  0  0  0  0  0  0  0  0  0  0
   23.5824  -21.3614  -14.5067 C   0  0  0  0  0  0  0  0  0  0  0  0
   24.5388  -21.5938  -13.3690 C   0  0  2  0  0  0  0  0  0  0  0  0
   23.8503  -22.3187  -12.2588 C   0  0  0  0  0  0  0  0  0  0  0  0
   25.1009  -20.2667  -12.8743 C   0  0  2  0  0  0  0  0  0  0  0  0
   25.9070  -19.7092  -13.9311 N   0  0  0  0  0  0  0  0  0  0  0  0
   25.9557  -20.4836  -11.6855 C   0  0  0  0  0  0  0  0  0  0  0  0
   26.9899  -21.2153  -11.7543 O   0  0  0  0  0  0  0  0  0  0  0  0
   27.8286  -18.5930   -6.1859 C   0  0  0  0  0  0  0  0  0  0  0  0
   27.5658  -19.7943   -7.1094 C   0  0  2  0  0  0  0  0  0  0  0  0
   28.8857  -20.5137   -7.2996 C   0  0  0  0  0  0  0  0  0  0  0  0
   26.9909  -19.3073   -8.4041 C   0  0  0  0  0  0  0  0  0  0  0  0
   26.3451  -20.3407   -9.2469 C   0  0  2  0  0  0  0  0  0  0  0  0
   25.6631  -19.8884  -10.4189 N   0  0  0  0  0  0  0  0  0  0  0  0
   25.3315  -21.0346   -8.3871 C   0  0  0  0  0  0  0  0  0  0  0  0
   25.7002  -22.1013   -7.5741 O   0  0  0  0  0  0  0  0  0  0  0  0
   24.1420  -20.6597   -8.3928 O   0  0  0  0  0  0  0  0  0  0  0  0
  2  1  1  0
  2  3  2  0
  4  2  1  0
  5  4  1  0
  5  6  1  6
  7  8  2  0
  7  5  1  0
 10  9  1  6
 10 12  1  0
 11 10  1  0
 12 13  1  6
 13  7  1  0
 14 21  1  0
 14 12  1  0
 15 14  2  0
 17 16  1  1
 18 17  1  0
 20 19  1  1
 19 17  1  0
 20 22  1  0
 20 21  1  0
 22 23  1  0
 24 22  2  0
M  END
$$$$
