NVL.pdb
     RDKit          3D

 24 23  0  0  1  0  0  0  0  0999 V2000
   13.9420  -12.7668  -15.7755 N   0  0  0  0  0  0  0  0  0  0  0  0
   13.7476  -12.4351  -14.4200 C   0  0  0  0  0  0  0  0  0  0  0  0
   12.6893  -12.7848  -13.8491 O   0  0  0  0  0  0  0  0  0  0  0  0
   14.7982  -11.6803  -13.6993 C   0  0  0  0  0  0  0  0  0  0  0  0
   15.9396  -11.3191  -14.6313 C   0  0  2  0  0  0  0  0  0  0  0  0
   16.6628  -12.4934  -15.0693 N   0  0  0  0  0  0  0  0  0  0  0  0
   16.8802  -10.4729  -13.8276 C   0  0  0  0  0  0  0  0  0  0  0  0
   18.0558  -10.8127  -13.5754 O   0  0  0  0  0  0  0  0  0  0  0  0
   17.3194   -6.9864  -14.8843 C   0  0  0  0  0  0  0  0  0  0  0  0
   18.1345   -7.6886  -13.8328 C   0  0  2  0  0  0  0  0  0  0  0  0
   18.9393   -8.7838  -14.4531 C   0  0  0  0  0  0  0  0  0  0  0  0
   17.2239   -8.2438  -12.7445 C   0  0  2  0  0  0  0  0  0  0  0  0
   16.3677   -9.2328  -13.3497 N   0  0  0  0  0  0  0  0  0  0  0  0
   16.3825   -7.1645  -12.1806 C   0  0  0  0  0  0  0  0  0  0  0  0
   15.3558   -6.7507  -12.8005 O   0  0  0  0  0  0  0  0  0  0  0  0
   13.5032   -7.1943   -8.8120 C   0  0  0  0  0  0  0  0  0  0  0  0
   14.9567   -7.1109   -8.3168 C   0  0  2  0  0  0  0  0  0  0  0  0
   14.9217   -7.1774   -6.8035 C   0  0  0  0  0  0  0  0  0  0  0  0
   15.5783   -5.8430   -8.8168 C   0  0  0  0  0  0  0  0  0  0  0  0
   15.6971   -5.7253  -10.2891 C   0  0  2  0  0  0  0  0  0  0  0  0
   16.6802   -6.5434  -10.9277 N   0  0  0  0  0  0  0  0  0  0  0  0
   16.0502   -4.2987  -10.5860 C   0  0  0  0  0  0  0  0  0  0  0  0
   15.0945   -3.2935  -10.4810 O   0  0  0  0  0  0  0  0  0  0  0  0
   17.2102   -3.9984  -10.9319 O   0  0  0  0  0  0  0  0  0  0  0  0
  2  1  1  0
  2  3  2  0
  4  2  1  0
  5  4  1  0
  5  6  1  1
  7  8  2  0
  7  5  1  0
 10  9  1  6
 10 12  1  0
 11 10  1  0
 12 13  1  6
 13  7  1  0
 14 21  1  0
 14 12  1  0
 15 14  2  0
 17 16  1  6
 18 17  1  0
 20 19  1  1
 19 17  1  0
 20 22  1  0
 20 21  1  0
 22 23  1  0
 24 22  2  0
M  END
$$$$
