NVL.pdb
     RDKit          3D

 24 23  0  0  1  0  0  0  0  0999 V2000
   17.5578  -11.4229  -20.0910 N   0  0  0  0  0  0  0  0  0  0  0  0
   17.2945  -10.1540  -19.5382 C   0  0  0  0  0  0  0  0  0  0  0  0
   16.6139   -9.3302  -20.1912 O   0  0  0  0  0  0  0  0  0  0  0  0
   17.8277   -9.8212  -18.1974 C   0  0  0  0  0  0  0  0  0  0  0  0
   18.6379  -10.9749  -17.6366 C   0  0  2  0  0  0  0  0  0  0  0  0
   17.7907  -12.0794  -17.2413 N   0  0  0  0  0  0  0  0  0  0  0  0
   19.3123  -10.4492  -16.4055 C   0  0  0  0  0  0  0  0  0  0  0  0
   18.7501  -10.3961  -15.2909 O   0  0  0  0  0  0  0  0  0  0  0  0
   22.6207  -11.6820  -15.3485 C   0  0  0  0  0  0  0  0  0  0  0  0
   22.7832  -10.1920  -15.4762 C   0  0  2  0  0  0  0  0  0  0  0  0
   23.6572   -9.6746  -14.3805 C   0  0  0  0  0  0  0  0  0  0  0  0
   21.4215   -9.5090  -15.4425 C   0  0  2  0  0  0  0  0  0  0  0  0
   20.6553  -10.0004  -16.5600 N   0  0  0  0  0  0  0  0  0  0  0  0
   21.5798   -8.0437  -15.5795 C   0  0  0  0  0  0  0  0  0  0  0  0
   22.1239   -7.5431  -16.6106 O   0  0  0  0  0  0  0  0  0  0  0  0
   20.0617   -4.4968  -17.1764 C   0  0  0  0  0  0  0  0  0  0  0  0
   19.3039   -4.9600  -15.9209 C   0  0  2  0  0  0  0  0  0  0  0  0
   18.0635   -4.0983  -15.7996 C   0  0  0  0  0  0  0  0  0  0  0  0
   20.2011   -4.8379  -14.7276 C   0  0  0  0  0  0  0  0  0  0  0  0
   21.3821   -5.7326  -14.7201 C   0  0  2  0  0  0  0  0  0  0  0  0
   21.1341   -7.1326  -14.5719 N   0  0  0  0  0  0  0  0  0  0  0  0
   22.2410   -5.3123  -13.5653 C   0  0  0  0  0  0  0  0  0  0  0  0
   22.9409   -4.1108  -13.6005 O   0  0  0  0  0  0  0  0  0  0  0  0
   22.3365   -6.0401  -12.5569 O   0  0  0  0  0  0  0  0  0  0  0  0
  2  1  1  0
  2  3  2  0
  4  2  1  0
  5  4  1  0
  5  6  1  1
  7  8  2  0
  7  5  1  0
 10  9  1  1
 10 12  1  0
 11 10  1  0
 12 13  1  6
 13  7  1  0
 14 21  1  0
 14 12  1  0
 15 14  2  0
 17 16  1  6
 18 17  1  0
 20 19  1  1
 19 17  1  0
 20 22  1  0
 20 21  1  0
 22 23  1  0
 24 22  2  0
M  END
$$$$
