NVL.pdb
     RDKit          3D

 24 23  0  0  1  0  0  0  0  0999 V2000
   18.7352  -18.4349  -14.0826 N   0  0  0  0  0  0  0  0  0  0  0  0
   18.8917  -18.7143  -12.7105 C   0  0  0  0  0  0  0  0  0  0  0  0
   18.4225  -17.9182  -11.8654 O   0  0  0  0  0  0  0  0  0  0  0  0
   19.6075  -19.9429  -12.2968 C   0  0  0  0  0  0  0  0  0  0  0  0
   20.1192  -20.7032  -13.5060 C   0  0  2  0  0  0  0  0  0  0  0  0
   19.1279  -21.6264  -14.0146 N   0  0  0  0  0  0  0  0  0  0  0  0
   21.2914  -21.5051  -13.0268 C   0  0  0  0  0  0  0  0  0  0  0  0
   21.1775  -22.4924  -12.2696 O   0  0  0  0  0  0  0  0  0  0  0  0
   23.6303  -23.1953  -15.2109 C   0  0  0  0  0  0  0  0  0  0  0  0
   24.4622  -22.1978  -14.4520 C   0  0  2  0  0  0  0  0  0  0  0  0
   25.8197  -22.7602  -14.1823 C   0  0  0  0  0  0  0  0  0  0  0  0
   23.7707  -21.8193  -13.1480 C   0  0  2  0  0  0  0  0  0  0  0  0
   22.5751  -21.0865  -13.4808 N   0  0  0  0  0  0  0  0  0  0  0  0
   24.6515  -20.9517  -12.3341 C   0  0  0  0  0  0  0  0  0  0  0  0
   24.8022  -19.7257  -12.6235 O   0  0  0  0  0  0  0  0  0  0  0  0
   28.6932  -20.9927   -7.6703 C   0  0  0  0  0  0  0  0  0  0  0  0
   27.7658  -20.1220   -8.5345 C   0  0  2  0  0  0  0  0  0  0  0  0
   27.1640  -19.0674   -7.6282 C   0  0  0  0  0  0  0  0  0  0  0  0
   26.7227  -20.9891   -9.1701 C   0  0  0  0  0  0  0  0  0  0  0  0
   26.3274  -20.6107  -10.5470 C   0  0  2  0  0  0  0  0  0  0  0  0
   25.3660  -21.4445  -11.1980 N   0  0  0  0  0  0  0  0  0  0  0  0
   27.5725  -20.6384  -11.3819 C   0  0  0  0  0  0  0  0  0  0  0  0
   28.1924  -19.4562  -11.7729 O   0  0  0  0  0  0  0  0  0  0  0  0
   28.0666  -21.7277  -11.7355 O   0  0  0  0  0  0  0  0  0  0  0  0
  2  1  1  0
  2  3  2  0
  4  2  1  0
  5  4  1  0
  5  6  1  1
  7  8  2  0
  7  5  1  0
 10  9  1  1
 10 12  1  0
 11 10  1  0
 12 13  1  6
 13  7  1  0
 14 21  1  0
 14 12  1  0
 15 14  2  0
 17 16  1  1
 18 17  1  0
 20 19  1  1
 19 17  1  0
 20 22  1  0
 20 21  1  0
 22 23  1  0
 24 22  2  0
M  END
$$$$
