NVL.pdb
     RDKit          3D

 24 23  0  0  1  0  0  0  0  0999 V2000
   23.0261  -13.8604  -15.1048 N   0  0  0  0  0  0  0  0  0  0  0  0
   23.4717  -12.6995  -15.7674 C   0  0  0  0  0  0  0  0  0  0  0  0
   24.6988  -12.4545  -15.8165 O   0  0  0  0  0  0  0  0  0  0  0  0
   22.4801  -11.7940  -16.3917 C   0  0  0  0  0  0  0  0  0  0  0  0
   21.0700  -12.3173  -16.1927 C   0  0  2  0  0  0  0  0  0  0  0  0
   20.8205  -13.4965  -16.9935 N   0  0  0  0  0  0  0  0  0  0  0  0
   20.1529  -11.2331  -16.6725 C   0  0  0  0  0  0  0  0  0  0  0  0
   19.8332  -11.0928  -17.8722 O   0  0  0  0  0  0  0  0  0  0  0  0
   16.9002  -10.9918  -16.3712 C   0  0  0  0  0  0  0  0  0  0  0  0
   17.3179   -9.7947  -15.5615 C   0  0  2  0  0  0  0  0  0  0  0  0
   16.3089   -8.7019  -15.7020 C   0  0  0  0  0  0  0  0  0  0  0  0
   18.6938   -9.3132  -16.0051 C   0  0  2  0  0  0  0  0  0  0  0  0
   19.6465  -10.3450  -15.6806 N   0  0  0  0  0  0  0  0  0  0  0  0
   19.0627   -8.0772  -15.2791 C   0  0  0  0  0  0  0  0  0  0  0  0
   19.0573   -8.0431  -14.0109 O   0  0  0  0  0  0  0  0  0  0  0  0
   22.8839   -5.6586  -15.5291 C   0  0  0  0  0  0  0  0  0  0  0  0
   21.8843   -5.1894  -16.5994 C   0  0  2  0  0  0  0  0  0  0  0  0
   22.5654   -4.1033  -17.4070 C   0  0  0  0  0  0  0  0  0  0  0  0
   20.6348   -4.7034  -15.9311 C   0  0  0  0  0  0  0  0  0  0  0  0
   19.8522   -5.7340  -15.2095 C   0  0  2  0  0  0  0  0  0  0  0  0
   19.4381   -6.8777  -15.9605 N   0  0  0  0  0  0  0  0  0  0  0  0
   18.6093   -5.0644  -14.7047 C   0  0  0  0  0  0  0  0  0  0  0  0
   17.3631   -5.3913  -15.2289 O   0  0  0  0  0  0  0  0  0  0  0  0
   18.6816   -4.2035  -13.8051 O   0  0  0  0  0  0  0  0  0  0  0  0
  2  1  1  0
  2  3  2  0
  4  2  1  0
  5  4  1  0
  5  6  1  6
  7  8  2  0
  7  5  1  0
 10  9  1  6
 10 12  1  0
 11 10  1  0
 12 13  1  1
 13  7  1  0
 14 21  1  0
 14 12  1  0
 15 14  2  0
 17 16  1  1
 18 17  1  0
 20 19  1  6
 19 17  1  0
 20 22  1  0
 20 21  1  0
 22 23  1  0
 24 22  2  0
M  END
$$$$
