NVL.pdb
     RDKit          3D

 24 23  0  0  1  0  0  0  0  0999 V2000
   18.0960  -19.9168  -14.9237 N   0  0  0  0  0  0  0  0  0  0  0  0
   17.4482  -21.0808  -14.4646 C   0  0  0  0  0  0  0  0  0  0  0  0
   16.2938  -21.3418  -14.8739 O   0  0  0  0  0  0  0  0  0  0  0  0
   18.1457  -21.9706  -13.5082 C   0  0  0  0  0  0  0  0  0  0  0  0
   19.5604  -21.4858  -13.2523 C   0  0  2  0  0  0  0  0  0  0  0  0
   20.4283  -21.7543  -14.3786 N   0  0  0  0  0  0  0  0  0  0  0  0
   20.0656  -22.2768  -12.0836 C   0  0  0  0  0  0  0  0  0  0  0  0
   20.6871  -23.3536  -12.2075 O   0  0  0  0  0  0  0  0  0  0  0  0
   20.2857  -20.1289   -8.5685 C   0  0  0  0  0  0  0  0  0  0  0  0
   21.0843  -21.3827   -8.7991 C   0  0  2  0  0  0  0  0  0  0  0  0
   22.3534  -21.0587   -9.5176 C   0  0  0  0  0  0  0  0  0  0  0  0
   20.2628  -22.3918   -9.5920 C   0  0  2  0  0  0  0  0  0  0  0  0
   19.8023  -21.7385  -10.7914 N   0  0  0  0  0  0  0  0  0  0  0  0
   19.0878  -22.8278   -8.8044 C   0  0  0  0  0  0  0  0  0  0  0  0
   17.9738  -22.2311   -8.9162 O   0  0  0  0  0  0  0  0  0  0  0  0
   15.4176  -25.0584   -6.6643 C   0  0  0  0  0  0  0  0  0  0  0  0
   16.1847  -26.2523   -7.2569 C   0  0  2  0  0  0  0  0  0  0  0  0
   16.3560  -27.2723   -6.1496 C   0  0  0  0  0  0  0  0  0  0  0  0
   17.4968  -25.7771   -7.8014 C   0  0  0  0  0  0  0  0  0  0  0  0
   17.9436  -24.4470   -7.3254 C   0  0  2  0  0  0  0  0  0  0  0  0
   19.1485  -23.9267   -7.8920 N   0  0  0  0  0  0  0  0  0  0  0  0
   18.1662  -24.5644   -5.8473 C   0  0  0  0  0  0  0  0  0  0  0  0
   17.0980  -24.4882   -4.9596 O   0  0  0  0  0  0  0  0  0  0  0  0
   19.3174  -24.7322   -5.3976 O   0  0  0  0  0  0  0  0  0  0  0  0
  2  1  1  0
  2  3  2  0
  4  2  1  0
  5  4  1  0
  5  6  1  6
  7  8  2  0
  7  5  1  0
 10  9  1  6
 10 12  1  0
 11 10  1  0
 12 13  1  6
 13  7  1  0
 14 21  1  0
 14 12  1  0
 15 14  2  0
 17 16  1  1
 18 17  1  0
 20 19  1  6
 19 17  1  0
 20 22  1  0
 20 21  1  0
 22 23  1  0
 24 22  2  0
M  END
$$$$
