NVL.pdb
     RDKit          3D

 24 23  0  0  1  0  0  0  0  0999 V2000
   22.7188   -3.9591  -15.9177 N   0  0  0  0  0  0  0  0  0  0  0  0
   21.6468   -4.8710  -15.9841 C   0  0  0  0  0  0  0  0  0  0  0  0
   20.5035   -4.4997  -15.6330 O   0  0  0  0  0  0  0  0  0  0  0  0
   21.8944   -6.2487  -16.4674 C   0  0  0  0  0  0  0  0  0  0  0  0
   23.3569   -6.4422  -16.8220 C   0  0  2  0  0  0  0  0  0  0  0  0
   23.7167   -5.7127  -18.0188 N   0  0  0  0  0  0  0  0  0  0  0  0
   23.5254   -7.9042  -17.1064 C   0  0  0  0  0  0  0  0  0  0  0  0
   23.4614   -8.3860  -18.2574 O   0  0  0  0  0  0  0  0  0  0  0  0
   26.3351   -9.9611  -15.3639 C   0  0  0  0  0  0  0  0  0  0  0  0
   24.9992  -10.5928  -15.0822 C   0  0  2  0  0  0  0  0  0  0  0  0
   25.1297  -12.0809  -15.0560 C   0  0  0  0  0  0  0  0  0  0  0  0
   23.9818  -10.1631  -16.1321 C   0  0  2  0  0  0  0  0  0  0  0  0
   23.7680   -8.7455  -15.9829 N   0  0  0  0  0  0  0  0  0  0  0  0
   22.6965  -10.8651  -15.9175 C   0  0  0  0  0  0  0  0  0  0  0  0
   21.9808  -10.6127  -14.9007 O   0  0  0  0  0  0  0  0  0  0  0  0
   18.1354  -13.7180  -18.4633 C   0  0  0  0  0  0  0  0  0  0  0  0
   18.5369  -12.8254  -17.2771 C   0  0  2  0  0  0  0  0  0  0  0  0
   17.4298  -11.8095  -17.0825 C   0  0  0  0  0  0  0  0  0  0  0  0
   19.8573  -12.1802  -17.5674 C   0  0  0  0  0  0  0  0  0  0  0  0
   20.9378  -12.4672  -16.5950 C   0  0  2  0  0  0  0  0  0  0  0  0
   22.2044  -11.8480  -16.8316 N   0  0  0  0  0  0  0  0  0  0  0  0
   21.1611  -13.9497  -16.6152 C   0  0  0  0  0  0  0  0  0  0  0  0
   20.3646  -14.7986  -15.8538 O   0  0  0  0  0  0  0  0  0  0  0  0
   22.0679  -14.4380  -17.3185 O   0  0  0  0  0  0  0  0  0  0  0  0
  2  1  1  0
  2  3  2  0
  4  2  1  0
  5  4  1  0
  5  6  1  6
  7  8  2  0
  7  5  1  0
 10  9  1  6
 10 12  1  0
 11 10  1  0
 12 13  1  1
 13  7  1  0
 14 21  1  0
 14 12  1  0
 15 14  2  0
 17 16  1  6
 18 17  1  0
 20 19  1  6
 19 17  1  0
 20 22  1  0
 20 21  1  0
 22 23  1  0
 24 22  2  0
M  END
$$$$
