NVL.pdb
     RDKit          3D

 24 23  0  0  1  0  0  0  0  0999 V2000
   16.4421  -15.6850  -16.0758 N   0  0  0  0  0  0  0  0  0  0  0  0
   16.5922  -14.6234  -15.1616 C   0  0  0  0  0  0  0  0  0  0  0  0
   15.8256  -14.5520  -14.1740 O   0  0  0  0  0  0  0  0  0  0  0  0
   17.6527  -13.6149  -15.3878 C   0  0  0  0  0  0  0  0  0  0  0  0
   18.3280  -13.8324  -16.7289 C   0  0  2  0  0  0  0  0  0  0  0  0
   19.1629  -15.0142  -16.7205 N   0  0  0  0  0  0  0  0  0  0  0  0
   19.2155  -12.6439  -16.9446 C   0  0  0  0  0  0  0  0  0  0  0  0
   20.4181  -12.6215  -16.6063 O   0  0  0  0  0  0  0  0  0  0  0  0
   19.1345  -10.5067  -20.2840 C   0  0  0  0  0  0  0  0  0  0  0  0
   18.8042   -9.6640  -19.0824 C   0  0  2  0  0  0  0  0  0  0  0  0
   19.3481   -8.2836  -19.2577 C   0  0  0  0  0  0  0  0  0  0  0  0
   19.3666  -10.3046  -17.8194 C   0  0  2  0  0  0  0  0  0  0  0  0
   18.6183  -11.5104  -17.5672 N   0  0  0  0  0  0  0  0  0  0  0  0
   19.2039   -9.3916  -16.6658 C   0  0  0  0  0  0  0  0  0  0  0  0
   18.0598   -9.1853  -16.1575 O   0  0  0  0  0  0  0  0  0  0  0  0
   22.0350   -5.5176  -13.0013 C   0  0  0  0  0  0  0  0  0  0  0  0
   21.0160   -6.6667  -12.9222 C   0  0  2  0  0  0  0  0  0  0  0  0
   21.1848   -7.3263  -11.5686 C   0  0  0  0  0  0  0  0  0  0  0  0
   21.2546   -7.6191  -14.0535 C   0  0  0  0  0  0  0  0  0  0  0  0
   20.0987   -7.8493  -14.9513 C   0  0  2  0  0  0  0  0  0  0  0  0
   20.3112   -8.7067  -16.0752 N   0  0  0  0  0  0  0  0  0  0  0  0
   19.6899   -6.5107  -15.4890 C   0  0  0  0  0  0  0  0  0  0  0  0
   18.6974   -5.7656  -14.8610 O   0  0  0  0  0  0  0  0  0  0  0  0
   20.2391   -6.0503  -16.5098 O   0  0  0  0  0  0  0  0  0  0  0  0
  2  1  1  0
  2  3  2  0
  4  2  1  0
  5  4  1  0
  5  6  1  1
  7  8  2  0
  7  5  1  0
 10  9  1  6
 10 12  1  0
 11 10  1  0
 12 13  1  1
 13  7  1  0
 14 21  1  0
 14 12  1  0
 15 14  2  0
 17 16  1  6
 18 17  1  0
 20 19  1  6
 19 17  1  0
 20 22  1  0
 20 21  1  0
 22 23  1  0
 24 22  2  0
M  END
$$$$
