NVL.pdb
     RDKit          3D

 24 23  0  0  1  0  0  0  0  0999 V2000
   15.5717  -14.6304  -14.8258 N   0  0  0  0  0  0  0  0  0  0  0  0
   15.8050  -14.5349  -16.2121 C   0  0  0  0  0  0  0  0  0  0  0  0
   15.2260  -15.3298  -16.9873 O   0  0  0  0  0  0  0  0  0  0  0  0
   16.7294  -13.4969  -16.7229 C   0  0  0  0  0  0  0  0  0  0  0  0
   15.9976  -12.5150  -17.6185 C   0  0  2  0  0  0  0  0  0  0  0  0
   15.6868  -13.0968  -18.9064 N   0  0  0  0  0  0  0  0  0  0  0  0
   16.9437  -11.3747  -17.8452 C   0  0  0  0  0  0  0  0  0  0  0  0
   17.8471  -11.4005  -18.7079 O   0  0  0  0  0  0  0  0  0  0  0  0
   15.7991   -7.6711  -18.1782 C   0  0  0  0  0  0  0  0  0  0  0  0
   16.6996   -7.8351  -16.9844 C   0  0  2  0  0  0  0  0  0  0  0  0
   17.5252   -6.6051  -16.7907 C   0  0  0  0  0  0  0  0  0  0  0  0
   17.5928   -9.0568  -17.1625 C   0  0  2  0  0  0  0  0  0  0  0  0
   16.7679  -10.2296  -17.0164 N   0  0  0  0  0  0  0  0  0  0  0  0
   18.6438   -9.0793  -16.1206 C   0  0  0  0  0  0  0  0  0  0  0  0
   18.3499   -9.3033  -14.9068 O   0  0  0  0  0  0  0  0  0  0  0  0
   24.5252  -10.4491  -15.1312 C   0  0  0  0  0  0  0  0  0  0  0  0
   23.2387   -9.8013  -14.5924 C   0  0  2  0  0  0  0  0  0  0  0  0
   22.7785  -10.6291  -13.4098 C   0  0  0  0  0  0  0  0  0  0  0  0
   22.2149   -9.7503  -15.6847 C   0  0  0  0  0  0  0  0  0  0  0  0
   21.0035   -8.9497  -15.3901 C   0  0  2  0  0  0  0  0  0  0  0  0
   20.0223   -8.8533  -16.4251 N   0  0  0  0  0  0  0  0  0  0  0  0
   21.4645   -7.5552  -15.0884 C   0  0  0  0  0  0  0  0  0  0  0  0
   21.8399   -7.1943  -13.7986 O   0  0  0  0  0  0  0  0  0  0  0  0
   21.5160   -6.7013  -15.9960 O   0  0  0  0  0  0  0  0  0  0  0  0
  2  1  1  0
  2  3  2  0
  4  2  1  0
  5  4  1  0
  5  6  1  6
  7  8  2  0
  7  5  1  0
 10  9  1  6
 10 12  1  0
 11 10  1  0
 12 13  1  1
 13  7  1  0
 14 21  1  0
 14 12  1  0
 15 14  2  0
 17 16  1  6
 18 17  1  0
 20 19  1  6
 19 17  1  0
 20 22  1  0
 20 21  1  0
 22 23  1  0
 24 22  2  0
M  END
$$$$
