ALQ.pdb
     RDKit          3D

 23 22  0  0  1  0  0  0  0  0999 V2000
   27.2099  -19.5362  -16.8339 C   0  0  0  0  0  0  0  0  0  0  0  0
   27.6412  -20.7641  -16.0978 C   0  0  2  0  0  0  0  0  0  0  0  0
   27.8190  -21.9160  -16.9381 N   0  0  0  0  0  0  0  0  0  0  0  0
   26.6263  -21.0849  -15.0345 C   0  0  0  0  0  0  0  0  0  0  0  0
   25.6175  -21.7728  -15.3223 O   0  0  0  0  0  0  0  0  0  0  0  0
   24.6163  -22.0983  -10.2442 C   0  0  0  0  0  0  0  0  0  0  0  0
   24.9850  -20.6144  -10.3709 C   0  0  1  0  0  0  0  0  0  0  0  0
   25.4451  -20.1840   -8.9944 C   0  0  0  0  0  0  0  0  0  0  0  0
   26.1502  -20.5611  -11.3312 C   0  0  0  0  0  0  0  0  0  0  0  0
   25.7509  -20.9201  -12.7461 C   0  0  2  0  0  0  0  0  0  0  0  0
   26.7721  -20.6315  -13.7023 N   0  0  0  0  0  0  0  0  0  0  0  0
   24.5428  -20.1004  -13.0567 C   0  0  0  0  0  0  0  0  0  0  0  0
   24.7073  -18.8565  -13.1854 O   0  0  0  0  0  0  0  0  0  0  0  0
   20.0510  -18.8161  -16.6202 N   0  0  0  0  0  0  0  0  0  0  0  0
   19.9223  -20.1895  -16.2937 C   0  0  0  0  0  0  0  0  0  0  0  0
   19.0030  -20.8715  -16.7924 O   0  0  0  0  0  0  0  0  0  0  0  0
   20.8921  -20.8211  -15.3484 C   0  0  0  0  0  0  0  0  0  0  0  0
   21.9348  -19.8072  -15.0082 C   0  0  0  0  0  0  0  0  0  0  0  0
   22.1536  -19.7538  -13.5302 C   0  0  2  0  0  0  0  0  0  0  0  0
   23.2632  -20.6623  -13.2052 N   0  0  0  0  0  0  0  0  0  0  0  0
   21.0200  -20.1460  -12.6964 C   0  0  0  0  0  0  0  0  0  0  0  0
   20.0048  -19.2060  -12.4294 O   0  0  0  0  0  0  0  0  0  0  0  0
   20.9355  -21.3100  -12.2125 O   0  0  0  0  0  0  0  0  0  0  0  0
  2  1  1  6
  2  3  1  0
  4  2  1  0
  4  5  2  0
  7  6  1  1
  7  9  1  0
  8  7  1  0
 10  9  1  1
 10 12  1  0
 10 11  1  0
 11  4  1  0
 12 13  2  0
 15 14  1  0
 16 15  2  0
 17 15  1  0
 18 17  1  0
 19 18  1  6
 20 19  1  0
 20 12  1  0
 21 19  1  0
 22 21  1  0
 23 21  2  0
M  END
$$$$
