ALQ.pdb
     RDKit          3D

 23 22  0  0  1  0  0  0  0  0999 V2000
   18.4045  -11.0353  -16.5104 C   0  0  0  0  0  0  0  0  0  0  0  0
   17.6621   -9.8174  -16.0620 C   0  0  2  0  0  0  0  0  0  0  0  0
   17.8855   -8.6615  -16.8857 N   0  0  0  0  0  0  0  0  0  0  0  0
   18.0536   -9.4935  -14.6459 C   0  0  0  0  0  0  0  0  0  0  0  0
   17.9557  -10.3714  -13.7552 O   0  0  0  0  0  0  0  0  0  0  0  0
   22.4011   -6.3993  -13.3803 C   0  0  0  0  0  0  0  0  0  0  0  0
   21.3734   -7.5337  -13.4840 C   0  0  1  0  0  0  0  0  0  0  0  0
   21.9267   -8.6699  -12.6507 C   0  0  0  0  0  0  0  0  0  0  0  0
   20.1121   -7.0055  -12.8415 C   0  0  0  0  0  0  0  0  0  0  0  0
   18.9616   -7.9842  -12.9348 C   0  0  2  0  0  0  0  0  0  0  0  0
   18.5354   -8.2150  -14.2785 N   0  0  0  0  0  0  0  0  0  0  0  0
   17.8380   -7.3783  -12.1615 C   0  0  0  0  0  0  0  0  0  0  0  0
   17.3065   -6.3374  -12.6359 O   0  0  0  0  0  0  0  0  0  0  0  0
   13.5515  -10.3456   -9.2258 N   0  0  0  0  0  0  0  0  0  0  0  0
   13.1903   -9.0308   -8.8383 C   0  0  0  0  0  0  0  0  0  0  0  0
   12.1410   -8.8311   -8.1918 O   0  0  0  0  0  0  0  0  0  0  0  0
   14.0708   -7.8808   -9.2063 C   0  0  0  0  0  0  0  0  0  0  0  0
   15.3050   -8.4282   -9.8452 C   0  0  0  0  0  0  0  0  0  0  0  0
   16.1689   -7.3195  -10.3549 C   0  0  2  0  0  0  0  0  0  0  0  0
   17.3698   -7.9217  -10.9528 N   0  0  0  0  0  0  0  0  0  0  0  0
   16.6246   -6.3493   -9.3623 C   0  0  0  0  0  0  0  0  0  0  0  0
   18.0009   -6.2527   -9.0762 O   0  0  0  0  0  0  0  0  0  0  0  0
   15.8076   -5.5982   -8.7585 O   0  0  0  0  0  0  0  0  0  0  0  0
  2  1  1  6
  2  3  1  0
  4  2  1  0
  4  5  2  0
  7  6  1  1
  7  9  1  0
  8  7  1  0
 10  9  1  6
 10 12  1  0
 10 11  1  0
 11  4  1  0
 12 13  2  0
 15 14  1  0
 16 15  2  0
 17 15  1  0
 18 17  1  0
 19 18  1  1
 20 19  1  0
 20 12  1  0
 21 19  1  0
 22 21  1  0
 23 21  2  0
M  END
$$$$
