ALQ.pdb
     RDKit          3D

 23 22  0  0  1  0  0  0  0  0999 V2000
   27.4723  -20.1890  -16.4224 C   0  0  0  0  0  0  0  0  0  0  0  0
   28.0567  -21.1829  -15.4704 C   0  0  2  0  0  0  0  0  0  0  0  0
   28.4112  -22.4352  -16.0789 N   0  0  0  0  0  0  0  0  0  0  0  0
   27.0756  -21.4383  -14.3587 C   0  0  0  0  0  0  0  0  0  0  0  0
   26.1974  -22.3240  -14.4930 O   0  0  0  0  0  0  0  0  0  0  0  0
   25.2099  -21.8326   -9.4267 C   0  0  0  0  0  0  0  0  0  0  0  0
   25.2949  -20.3602   -9.8492 C   0  0  1  0  0  0  0  0  0  0  0  0
   25.6468  -19.5900   -8.5944 C   0  0  0  0  0  0  0  0  0  0  0  0
   26.4426  -20.2792  -10.8285 C   0  0  0  0  0  0  0  0  0  0  0  0
   26.1329  -20.9663  -12.1409 C   0  0  2  0  0  0  0  0  0  0  0  0
   27.1094  -20.7040  -13.1499 N   0  0  0  0  0  0  0  0  0  0  0  0
   24.8121  -20.4331  -12.5866 C   0  0  0  0  0  0  0  0  0  0  0  0
   24.7897  -19.2590  -13.0471 O   0  0  0  0  0  0  0  0  0  0  0  0
   19.4278  -22.6365  -16.2715 N   0  0  0  0  0  0  0  0  0  0  0  0
   20.5953  -21.8365  -16.1919 C   0  0  0  0  0  0  0  0  0  0  0  0
   21.4206  -21.8326  -17.1288 O   0  0  0  0  0  0  0  0  0  0  0  0
   20.8368  -20.9953  -14.9806 C   0  0  0  0  0  0  0  0  0  0  0  0
   22.1099  -21.4513  -14.3463 C   0  0  0  0  0  0  0  0  0  0  0  0
   22.4228  -20.6232  -13.1414 C   0  0  2  0  0  0  0  0  0  0  0  0
   23.6262  -21.1834  -12.5090 N   0  0  0  0  0  0  0  0  0  0  0  0
   21.3863  -20.5638  -12.1135 C   0  0  0  0  0  0  0  0  0  0  0  0
   20.3024  -19.6791  -12.2800 O   0  0  0  0  0  0  0  0  0  0  0  0
   21.4461  -21.2901  -11.0814 O   0  0  0  0  0  0  0  0  0  0  0  0
  2  1  1  6
  2  3  1  0
  4  2  1  0
  4  5  2  0
  7  6  1  1
  7  9  1  0
  8  7  1  0
 10  9  1  1
 10 12  1  0
 10 11  1  0
 11  4  1  0
 12 13  2  0
 15 14  1  0
 16 15  2  0
 17 15  1  0
 18 17  1  0
 19 18  1  6
 20 19  1  0
 20 12  1  0
 21 19  1  0
 22 21  1  0
 23 21  2  0
M  END
$$$$
