ALQ.pdb
     RDKit          3D

 23 22  0  0  1  0  0  0  0  0999 V2000
   21.9442  -19.0580  -16.8439 C   0  0  0  0  0  0  0  0  0  0  0  0
   22.1408  -17.9929  -17.8746 C   0  0  2  0  0  0  0  0  0  0  0  0
   23.1329  -18.3135  -18.8632 N   0  0  0  0  0  0  0  0  0  0  0  0
   22.5266  -16.7092  -17.1912 C   0  0  0  0  0  0  0  0  0  0  0  0
   21.8122  -16.2567  -16.2646 O   0  0  0  0  0  0  0  0  0  0  0  0
   27.6937  -15.1832  -16.5243 C   0  0  0  0  0  0  0  0  0  0  0  0
   26.2252  -15.4631  -16.1790 C   0  0  1  0  0  0  0  0  0  0  0  0
   26.1088  -15.2702  -14.6821 C   0  0  0  0  0  0  0  0  0  0  0  0
   25.4255  -14.3954  -16.8883 C   0  0  0  0  0  0  0  0  0  0  0  0
   23.9490  -14.7223  -16.9482 C   0  0  2  0  0  0  0  0  0  0  0  0
   23.6834  -15.9843  -17.5625 N   0  0  0  0  0  0  0  0  0  0  0  0
   23.3172  -13.6400  -17.7586 C   0  0  0  0  0  0  0  0  0  0  0  0
   23.4594  -13.6989  -19.0106 O   0  0  0  0  0  0  0  0  0  0  0  0
   17.8001  -12.0192  -17.6534 N   0  0  0  0  0  0  0  0  0  0  0  0
   18.2473  -11.0788  -18.6152 C   0  0  0  0  0  0  0  0  0  0  0  0
   17.4234  -10.4537  -19.3147 O   0  0  0  0  0  0  0  0  0  0  0  0
   19.7114  -10.8365  -18.7905 C   0  0  0  0  0  0  0  0  0  0  0  0
   20.4479  -11.7928  -17.9107 C   0  0  0  0  0  0  0  0  0  0  0  0
   21.9246  -11.6386  -18.0868 C   0  0  2  0  0  0  0  0  0  0  0  0
   22.5886  -12.5865  -17.1800 N   0  0  0  0  0  0  0  0  0  0  0  0
   22.4730  -10.3151  -17.8002 C   0  0  0  0  0  0  0  0  0  0  0  0
   22.2140   -9.2554  -18.6919 O   0  0  0  0  0  0  0  0  0  0  0  0
   23.1731  -10.1063  -16.7694 O   0  0  0  0  0  0  0  0  0  0  0  0
  2  1  1  1
  2  3  1  0
  4  2  1  0
  4  5  2  0
  7  6  1  6
  7  9  1  0
  8  7  1  0
 10  9  1  6
 10 12  1  0
 10 11  1  0
 11  4  1  0
 12 13  2  0
 15 14  1  0
 16 15  2  0
 17 15  1  0
 18 17  1  0
 19 18  1  1
 20 19  1  0
 20 12  1  0
 21 19  1  0
 22 21  1  0
 23 21  2  0
M  END
$$$$
