ALQ.pdb
     RDKit          3D

 23 22  0  0  1  0  0  0  0  0999 V2000
   20.2545  -11.7540  -18.3068 C   0  0  0  0  0  0  0  0  0  0  0  0
   21.5328  -12.3000  -17.7560 C   0  0  2  0  0  0  0  0  0  0  0  0
   21.3858  -13.5581  -17.0777 N   0  0  0  0  0  0  0  0  0  0  0  0
   22.1295  -11.2976  -16.8059 C   0  0  0  0  0  0  0  0  0  0  0  0
   21.6289  -11.1438  -15.6659 O   0  0  0  0  0  0  0  0  0  0  0  0
   27.5127   -9.8970  -16.8539 C   0  0  0  0  0  0  0  0  0  0  0  0
   26.1329  -10.4012  -16.4115 C   0  0  1  0  0  0  0  0  0  0  0  0
   26.2919  -10.8262  -14.9673 C   0  0  0  0  0  0  0  0  0  0  0  0
   25.2145   -9.2038  -16.4862 C   0  0  0  0  0  0  0  0  0  0  0  0
   23.7692   -9.5657  -16.2208 C   0  0  2  0  0  0  0  0  0  0  0  0
   23.2515  -10.5111  -17.1582 N   0  0  0  0  0  0  0  0  0  0  0  0
   22.9964   -8.2936  -16.3301 C   0  0  0  0  0  0  0  0  0  0  0  0
   22.5292   -7.9981  -17.4639 O   0  0  0  0  0  0  0  0  0  0  0  0
   18.0099   -7.5433  -16.0671 N   0  0  0  0  0  0  0  0  0  0  0  0
   18.1941   -6.1480  -15.8979 C   0  0  0  0  0  0  0  0  0  0  0  0
   17.2155   -5.3739  -15.9428 O   0  0  0  0  0  0  0  0  0  0  0  0
   19.5663   -5.6040  -15.6649 C   0  0  0  0  0  0  0  0  0  0  0  0
   20.5220   -6.7516  -15.6421 C   0  0  0  0  0  0  0  0  0  0  0  0
   21.9219   -6.2659  -15.4430 C   0  0  2  0  0  0  0  0  0  0  0  0
   22.7816   -7.4404  -15.2341 N   0  0  0  0  0  0  0  0  0  0  0  0
   22.1379   -5.3695  -14.3099 C   0  0  0  0  0  0  0  0  0  0  0  0
   21.8019   -4.0070  -14.4370 O   0  0  0  0  0  0  0  0  0  0  0  0
   22.6194   -5.7945  -13.2218 O   0  0  0  0  0  0  0  0  0  0  0  0
  2  1  1  1
  2  3  1  0
  4  2  1  0
  4  5  2  0
  7  6  1  1
  7  9  1  0
  8  7  1  0
 10  9  1  6
 10 12  1  0
 10 11  1  0
 11  4  1  0
 12 13  2  0
 15 14  1  0
 16 15  2  0
 17 15  1  0
 18 17  1  0
 19 18  1  1
 20 19  1  0
 20 12  1  0
 21 19  1  0
 22 21  1  0
 23 21  2  0
M  END
$$$$
