ALQ.pdb
     RDKit          3D

 23 22  0  0  1  0  0  0  0  0999 V2000
   17.9929  -10.8002  -12.4991 C   0  0  0  0  0  0  0  0  0  0  0  0
   16.9829  -10.8260  -11.3968 C   0  0  2  0  0  0  0  0  0  0  0  0
   15.9640  -11.8254  -11.5623 N   0  0  0  0  0  0  0  0  0  0  0  0
   16.3312   -9.4740  -11.2921 C   0  0  0  0  0  0  0  0  0  0  0  0
   15.5348   -9.0947  -12.1841 O   0  0  0  0  0  0  0  0  0  0  0  0
   14.5130   -6.9783   -6.5489 C   0  0  0  0  0  0  0  0  0  0  0  0
   14.5288   -7.5620   -7.9677 C   0  0  1  0  0  0  0  0  0  0  0  0
   13.2404   -7.1040   -8.6172 C   0  0  0  0  0  0  0  0  0  0  0  0
   15.7024   -6.9149   -8.6651 C   0  0  0  0  0  0  0  0  0  0  0  0
   15.8547   -7.3828  -10.0964 C   0  0  2  0  0  0  0  0  0  0  0  0
   16.5887   -8.6031  -10.2073 N   0  0  0  0  0  0  0  0  0  0  0  0
   16.5932   -6.2999  -10.8103 C   0  0  0  0  0  0  0  0  0  0  0  0
   17.8346   -6.2151  -10.6033 O   0  0  0  0  0  0  0  0  0  0  0  0
   18.2947   -3.4652  -17.0098 N   0  0  0  0  0  0  0  0  0  0  0  0
   17.6267   -4.2486  -16.0354 C   0  0  0  0  0  0  0  0  0  0  0  0
   17.2636   -5.4125  -16.3045 O   0  0  0  0  0  0  0  0  0  0  0  0
   17.3573   -3.6766  -14.6814 C   0  0  0  0  0  0  0  0  0  0  0  0
   16.6425   -4.7112  -13.8753 C   0  0  0  0  0  0  0  0  0  0  0  0
   16.8095   -4.4463  -12.4133 C   0  0  2  0  0  0  0  0  0  0  0  0
   15.9598   -5.3979  -11.6824 N   0  0  0  0  0  0  0  0  0  0  0  0
   16.4460   -3.1074  -11.9554 C   0  0  0  0  0  0  0  0  0  0  0  0
   17.3318   -2.0367  -12.1883 O   0  0  0  0  0  0  0  0  0  0  0  0
   15.3542   -2.8950  -11.3560 O   0  0  0  0  0  0  0  0  0  0  0  0
  2  1  1  6
  2  3  1  0
  4  2  1  0
  4  5  2  0
  7  6  1  1
  7  9  1  0
  8  7  1  0
 10  9  1  1
 10 12  1  0
 10 11  1  0
 11  4  1  0
 12 13  2  0
 15 14  1  0
 16 15  2  0
 17 15  1  0
 18 17  1  0
 19 18  1  6
 20 19  1  0
 20 12  1  0
 21 19  1  0
 22 21  1  0
 23 21  2  0
M  END
$$$$
