ALQ.pdb
     RDKit          3D

 23 22  0  0  1  0  0  0  0  0999 V2000
   28.4168  -21.5655  -16.8419 C   0  0  0  0  0  0  0  0  0  0  0  0
   27.3787  -20.5375  -16.5237 C   0  0  2  0  0  0  0  0  0  0  0  0
   27.9152  -19.2363  -16.2348 N   0  0  0  0  0  0  0  0  0  0  0  0
   26.5650  -21.0045  -15.3476 C   0  0  0  0  0  0  0  0  0  0  0  0
   25.8824  -22.0531  -15.4382 O   0  0  0  0  0  0  0  0  0  0  0  0
   25.4098  -22.1227  -10.4296 C   0  0  0  0  0  0  0  0  0  0  0  0
   25.1746  -20.6170  -10.6069 C   0  0  1  0  0  0  0  0  0  0  0  0
   25.6053  -19.9754   -9.3052 C   0  0  0  0  0  0  0  0  0  0  0  0
   26.1060  -20.1833  -11.7147 C   0  0  0  0  0  0  0  0  0  0  0  0
   25.7083  -20.7505  -13.0602 C   0  0  2  0  0  0  0  0  0  0  0  0
   26.5425  -20.2922  -14.1254 N   0  0  0  0  0  0  0  0  0  0  0  0
   24.3078  -20.2962  -13.3043 C   0  0  0  0  0  0  0  0  0  0  0  0
   24.0851  -19.0560  -13.2453 O   0  0  0  0  0  0  0  0  0  0  0  0
   18.7499  -21.3295  -17.3225 N   0  0  0  0  0  0  0  0  0  0  0  0
   19.9450  -20.6260  -17.0288 C   0  0  0  0  0  0  0  0  0  0  0  0
   20.7304  -20.3091  -17.9462 O   0  0  0  0  0  0  0  0  0  0  0  0
   20.2636  -20.2633  -15.6146 C   0  0  0  0  0  0  0  0  0  0  0  0
   21.6255  -20.7884  -15.2972 C   0  0  0  0  0  0  0  0  0  0  0  0
   21.9289  -20.6177  -13.8432 C   0  0  2  0  0  0  0  0  0  0  0  0
   23.2602  -21.1885  -13.5901 N   0  0  0  0  0  0  0  0  0  0  0  0
   21.0035  -21.2588  -12.9122 C   0  0  0  0  0  0  0  0  0  0  0  0
   19.8637  -20.5523  -12.4794 O   0  0  0  0  0  0  0  0  0  0  0  0
   21.2079  -22.4320  -12.4903 O   0  0  0  0  0  0  0  0  0  0  0  0
  2  1  1  1
  2  3  1  0
  4  2  1  0
  4  5  2  0
  7  6  1  1
  7  9  1  0
  8  7  1  0
 10  9  1  1
 10 12  1  0
 10 11  1  0
 11  4  1  0
 12 13  2  0
 15 14  1  0
 16 15  2  0
 17 15  1  0
 18 17  1  0
 19 18  1  6
 20 19  1  0
 20 12  1  0
 21 19  1  0
 22 21  1  0
 23 21  2  0
M  END
$$$$
