ALQ.pdb
     RDKit          3D

 23 22  0  0  1  0  0  0  0  0999 V2000
   27.3224  -19.3791  -16.5179 C   0  0  0  0  0  0  0  0  0  0  0  0
   27.7958  -20.2759  -15.4192 C   0  0  2  0  0  0  0  0  0  0  0  0
   28.5931  -21.3822  -15.8716 N   0  0  0  0  0  0  0  0  0  0  0  0
   26.6058  -20.8049  -14.6658 C   0  0  0  0  0  0  0  0  0  0  0  0
   26.0154  -21.8333  -15.0749 O   0  0  0  0  0  0  0  0  0  0  0  0
   25.8110  -20.2703   -9.0995 C   0  0  0  0  0  0  0  0  0  0  0  0
   26.0677  -20.7953  -10.5181 C   0  0  1  0  0  0  0  0  0  0  0  0
   25.9872  -22.3039  -10.4212 C   0  0  0  0  0  0  0  0  0  0  0  0
   24.9224  -20.2826  -11.3595 C   0  0  0  0  0  0  0  0  0  0  0  0
   25.0116  -20.7409  -12.7991 C   0  0  2  0  0  0  0  0  0  0  0  0
   26.1226  -20.1740  -13.4953 N   0  0  0  0  0  0  0  0  0  0  0  0
   23.7454  -20.2990  -13.4542 C   0  0  0  0  0  0  0  0  0  0  0  0
   23.6275  -19.0699  -13.7115 O   0  0  0  0  0  0  0  0  0  0  0  0
   19.2126  -22.0604  -16.9301 N   0  0  0  0  0  0  0  0  0  0  0  0
   20.1421  -23.0553  -16.5355 C   0  0  0  0  0  0  0  0  0  0  0  0
   19.9109  -24.2601  -16.7677 O   0  0  0  0  0  0  0  0  0  0  0  0
   21.4029  -22.6578  -15.8388 C   0  0  0  0  0  0  0  0  0  0  0  0
   21.4836  -21.1663  -15.8420 C   0  0  0  0  0  0  0  0  0  0  0  0
   21.5186  -20.6388  -14.4435 C   0  0  2  0  0  0  0  0  0  0  0  0
   22.7102  -21.1912  -13.7825 N   0  0  0  0  0  0  0  0  0  0  0  0
   20.3705  -20.9673  -13.6019 C   0  0  0  0  0  0  0  0  0  0  0  0
   19.1270  -20.3601  -13.8673 O   0  0  0  0  0  0  0  0  0  0  0  0
   20.4741  -21.7840  -12.6435 O   0  0  0  0  0  0  0  0  0  0  0  0
  2  1  1  6
  2  3  1  0
  4  2  1  0
  4  5  2  0
  7  6  1  1
  7  9  1  0
  8  7  1  0
 10  9  1  1
 10 12  1  0
 10 11  1  0
 11  4  1  0
 12 13  2  0
 15 14  1  0
 16 15  2  0
 17 15  1  0
 18 17  1  0
 19 18  1  6
 20 19  1  0
 20 12  1  0
 21 19  1  0
 22 21  1  0
 23 21  2  0
M  END
$$$$
