DPL.pdb
     RDKit          3D

 24 24  0  0  1  0  0  0  0  0999 V2000
   27.8382  -25.3249  -16.8141 N   0  0  0  0  0  0  0  0  0  0  0  0
   28.8557  -24.5105  -17.5153 C   0  0  1  0  0  0  0  0  0  0  0  0
   29.0246  -23.1961  -16.8307 C   0  0  0  0  0  0  0  0  0  0  0  0
   27.8491  -22.3230  -16.8972 C   0  0  0  0  0  0  0  0  0  0  0  0
   27.5505  -21.7307  -17.9537 O   0  0  0  0  0  0  0  0  0  0  0  0
   30.0749  -25.3593  -17.4771 C   0  0  0  0  0  0  0  0  0  0  0  0
   30.2138  -26.1110  -16.4578 O   0  0  0  0  0  0  0  0  0  0  0  0
   27.0076  -22.1048  -15.8030 O   0  0  0  0  0  0  0  0  0  0  0  0
   31.0910  -25.4082  -18.4663 N   0  0  0  0  0  0  0  0  0  0  0  0
   31.0628  -24.5877  -19.6371 C   0  0  0  0  0  0  0  0  0  0  0  0
   32.0507  -25.1404  -20.5887 C   0  0  0  0  0  0  0  0  0  0  0  0
   32.5590  -26.3756  -19.9524 C   0  0  0  0  0  0  0  0  0  0  0  0
   32.2531  -26.2153  -18.4482 C   0  0  1  0  0  0  0  0  0  0  0  0
   33.4345  -25.5811  -17.7762 C   0  0  0  0  0  0  0  0  0  0  0  0
   33.5965  -24.3428  -17.8871 O   0  0  0  0  0  0  0  0  0  0  0  0
   36.8158  -27.1067  -12.9595 C   0  0  0  0  0  0  0  0  0  0  0  0
   36.3124  -26.0911  -13.9619 C   0  0  2  0  0  0  0  0  0  0  0  0
   35.1190  -25.3490  -13.4039 C   0  0  0  0  0  0  0  0  0  0  0  0
   35.8698  -26.7818  -15.2353 C   0  0  0  0  0  0  0  0  0  0  0  0
   35.4615  -25.7638  -16.2931 C   0  0  2  0  0  0  0  0  0  0  0  0
   34.3547  -26.3303  -17.0329 N   0  0  0  0  0  0  0  0  0  0  0  0
   36.6089  -25.6143  -17.2216 C   0  0  0  0  0  0  0  0  0  0  0  0
   36.7009  -26.3106  -18.2399 O   0  0  0  0  0  0  0  0  0  0  0  0
   37.6003  -24.6735  -16.9429 O   0  0  0  0  0  0  0  0  0  0  0  0
  2  1  1  1
  2  3  1  0
  2  6  1  0
  3  4  1  0
  4  5  2  0
  4  8  1  0
  6  7  2  0
  9 13  1  0
  9  6  1  0
 10  9  1  0
 11 10  1  0
 11 12  1  0
 12 13  1  0
 13 14  1  1
 14 21  1  0
 14 15  2  0
 17 16  1  1
 17 18  1  0
 19 17  1  0
 20 19  1  1
 20 22  1  0
 21 20  1  0
 22 23  2  0
 22 24  1  0
M  END
$$$$
