DPL.pdb
     RDKit          3D

 24 24  0  0  1  0  0  0  0  0999 V2000
   24.4054  -20.2517  -16.1625 N   0  0  0  0  0  0  0  0  0  0  0  0
   25.0462  -19.5305  -15.0403 C   0  0  1  0  0  0  0  0  0  0  0  0
   24.0251  -18.7600  -14.2732 C   0  0  0  0  0  0  0  0  0  0  0  0
   23.3585  -17.7051  -15.0422 C   0  0  0  0  0  0  0  0  0  0  0  0
   24.0204  -16.8297  -15.6355 O   0  0  0  0  0  0  0  0  0  0  0  0
   25.6912  -20.6103  -14.2489 C   0  0  0  0  0  0  0  0  0  0  0  0
   25.0390  -21.6987  -14.1331 O   0  0  0  0  0  0  0  0  0  0  0  0
   21.9684  -17.6168  -15.1558 O   0  0  0  0  0  0  0  0  0  0  0  0
   26.9588  -20.5395  -13.6153 N   0  0  0  0  0  0  0  0  0  0  0  0
   27.7252  -19.3333  -13.5640 C   0  0  0  0  0  0  0  0  0  0  0  0
   29.1002  -19.6996  -13.1616 C   0  0  0  0  0  0  0  0  0  0  0  0
   29.1089  -21.1776  -13.0967 C   0  0  0  0  0  0  0  0  0  0  0  0
   27.6292  -21.5879  -12.9417 C   0  0  1  0  0  0  0  0  0  0  0  0
   27.3031  -21.6912  -11.4815 C   0  0  0  0  0  0  0  0  0  0  0  0
   28.1978  -22.0739  -10.6909 O   0  0  0  0  0  0  0  0  0  0  0  0
   27.0647  -18.7067   -7.0496 C   0  0  0  0  0  0  0  0  0  0  0  0
   26.2896  -19.9082   -7.5450 C   0  0  2  0  0  0  0  0  0  0  0  0
   26.6145  -21.1248   -6.7079 C   0  0  0  0  0  0  0  0  0  0  0  0
   26.6645  -20.2230   -8.9784 C   0  0  0  0  0  0  0  0  0  0  0  0
   25.7169  -21.2569   -9.5745 C   0  0  2  0  0  0  0  0  0  0  0  0
   26.0346  -21.3734  -10.9811 N   0  0  0  0  0  0  0  0  0  0  0  0
   24.3429  -20.7101   -9.4554 C   0  0  0  0  0  0  0  0  0  0  0  0
   23.6922  -20.8409   -8.4114 O   0  0  0  0  0  0  0  0  0  0  0  0
   23.7749  -20.0374  -10.5372 O   0  0  0  0  0  0  0  0  0  0  0  0
  2  1  1  6
  2  3  1  0
  2  6  1  0
  3  4  1  0
  4  5  2  0
  4  8  1  0
  6  7  2  0
  9 13  1  0
  9  6  1  0
 10  9  1  0
 11 10  1  0
 11 12  1  0
 12 13  1  0
 13 14  1  1
 14 21  1  0
 14 15  2  0
 17 16  1  1
 17 18  1  0
 19 17  1  0
 20 19  1  1
 20 22  1  0
 21 20  1  0
 22 23  2  0
 22 24  1  0
M  END
$$$$
