DPL.pdb
     RDKit          3D

 24 24  0  0  1  0  0  0  0  0999 V2000
   24.5354  -22.0728  -12.0390 N   0  0  0  0  0  0  0  0  0  0  0  0
   25.6304  -21.0796  -11.9695 C   0  0  1  0  0  0  0  0  0  0  0  0
   25.0712  -19.6969  -11.9514 C   0  0  0  0  0  0  0  0  0  0  0  0
   24.5409  -19.2411  -13.2397 C   0  0  0  0  0  0  0  0  0  0  0  0
   23.3149  -19.0818  -13.4070 O   0  0  0  0  0  0  0  0  0  0  0  0
   26.3566  -21.4412  -10.7244 C   0  0  0  0  0  0  0  0  0  0  0  0
   25.6593  -21.9443   -9.7841 O   0  0  0  0  0  0  0  0  0  0  0  0
   25.3595  -18.9626  -14.3375 O   0  0  0  0  0  0  0  0  0  0  0  0
   27.7464  -21.2783  -10.4898 N   0  0  0  0  0  0  0  0  0  0  0  0
   28.6293  -20.7184  -11.4653 C   0  0  0  0  0  0  0  0  0  0  0  0
   30.0118  -21.0232  -11.0378 C   0  0  0  0  0  0  0  0  0  0  0  0
   29.8715  -21.8771   -9.8378 C   0  0  0  0  0  0  0  0  0  0  0  0
   28.4494  -21.6017   -9.3051 C   0  0  1  0  0  0  0  0  0  0  0  0
   28.5126  -20.4887   -8.3018 C   0  0  0  0  0  0  0  0  0  0  0  0
   28.5391  -19.3058   -8.7164 O   0  0  0  0  0  0  0  0  0  0  0  0
   28.5998  -19.0791   -3.1249 C   0  0  0  0  0  0  0  0  0  0  0  0
   27.2354  -19.2030   -3.7675 C   0  0  2  0  0  0  0  0  0  0  0  0
   26.2464  -19.7975   -2.7903 C   0  0  0  0  0  0  0  0  0  0  0  0
   27.3006  -20.1205   -4.9710 C   0  0  0  0  0  0  0  0  0  0  0  0
   28.4293  -19.7093   -5.9086 C   0  0  2  0  0  0  0  0  0  0  0  0
   28.5423  -20.7341   -6.9235 N   0  0  0  0  0  0  0  0  0  0  0  0
   29.6808  -19.7086   -5.1119 C   0  0  0  0  0  0  0  0  0  0  0  0
   30.3019  -20.7569   -4.8982 O   0  0  0  0  0  0  0  0  0  0  0  0
   30.1659  -18.5072   -4.5954 O   0  0  0  0  0  0  0  0  0  0  0  0
  2  1  1  1
  2  3  1  0
  2  6  1  0
  3  4  1  0
  4  5  2  0
  4  8  1  0
  6  7  2  0
  9 13  1  0
  9  6  1  0
 10  9  1  0
 11 10  1  0
 11 12  1  0
 12 13  1  0
 13 14  1  1
 14 21  1  0
 14 15  2  0
 17 16  1  1
 17 18  1  0
 19 17  1  0
 20 19  1  1
 20 22  1  0
 21 20  1  0
 22 23  2  0
 22 24  1  0
M  END
$$$$
