DPL.pdb
     RDKit          3D

 24 24  0  0  1  0  0  0  0  0999 V2000
   18.7068  -12.0691  -15.1170 N   0  0  0  0  0  0  0  0  0  0  0  0
   18.3521  -10.6461  -15.3157 C   0  0  1  0  0  0  0  0  0  0  0  0
   16.9964  -10.5338  -15.9274 C   0  0  0  0  0  0  0  0  0  0  0  0
   16.9235  -10.9740  -17.3237 C   0  0  0  0  0  0  0  0  0  0  0  0
   17.5596  -10.3788  -18.2166 O   0  0  0  0  0  0  0  0  0  0  0  0
   18.4353  -10.0674  -13.9495 C   0  0  0  0  0  0  0  0  0  0  0  0
   17.8755  -10.7291  -13.0156 O   0  0  0  0  0  0  0  0  0  0  0  0
   16.1523  -12.0655  -17.7322 O   0  0  0  0  0  0  0  0  0  0  0  0
   19.0774   -8.8532  -13.5935 N   0  0  0  0  0  0  0  0  0  0  0  0
   19.6993   -8.0017  -14.5593 C   0  0  0  0  0  0  0  0  0  0  0  0
   20.5519   -7.0447  -13.8216 C   0  0  0  0  0  0  0  0  0  0  0  0
   20.4745   -7.4626  -12.4045 C   0  0  0  0  0  0  0  0  0  0  0  0
   19.1818   -8.2987  -12.2958 C   0  0  1  0  0  0  0  0  0  0  0  0
   18.0471   -7.3937  -11.9183 C   0  0  0  0  0  0  0  0  0  0  0  0
   17.5371   -6.6669  -12.8036 O   0  0  0  0  0  0  0  0  0  0  0  0
   14.4639   -6.8300   -6.8775 C   0  0  0  0  0  0  0  0  0  0  0  0
   14.6519   -6.5727   -8.3567 C   0  0  2  0  0  0  0  0  0  0  0  0
   13.5125   -7.1788   -9.1445 C   0  0  0  0  0  0  0  0  0  0  0  0
   15.9372   -7.2094   -8.8435 C   0  0  0  0  0  0  0  0  0  0  0  0
   16.2885   -6.7242  -10.2447 C   0  0  2  0  0  0  0  0  0  0  0  0
   17.5452   -7.3396  -10.6122 N   0  0  0  0  0  0  0  0  0  0  0  0
   16.4999   -5.2582  -10.1593 C   0  0  0  0  0  0  0  0  0  0  0  0
   17.5750   -4.7904   -9.7648 O   0  0  0  0  0  0  0  0  0  0  0  0
   15.4707   -4.3928  -10.5297 O   0  0  0  0  0  0  0  0  0  0  0  0
  2  1  1  1
  2  3  1  0
  2  6  1  0
  3  4  1  0
  4  5  2  0
  4  8  1  0
  6  7  2  0
  9 13  1  0
  9  6  1  0
 10  9  1  0
 11 10  1  0
 11 12  1  0
 12 13  1  0
 13 14  1  6
 14 21  1  0
 14 15  2  0
 17 16  1  1
 17 18  1  0
 19 17  1  0
 20 19  1  1
 20 22  1  0
 21 20  1  0
 22 23  2  0
 22 24  1  0
M  END
$$$$
