DPL.pdb
     RDKit          3D

 24 24  0  0  1  0  0  0  0  0999 V2000
   21.3517  -15.3123  -17.6469 N   0  0  0  0  0  0  0  0  0  0  0  0
   22.3257  -14.2108  -17.8155 C   0  0  1  0  0  0  0  0  0  0  0  0
   22.3257  -13.7351  -19.2291 C   0  0  0  0  0  0  0  0  0  0  0  0
   22.8798  -14.6928  -20.1906 C   0  0  0  0  0  0  0  0  0  0  0  0
   22.3174  -14.8995  -21.2848 O   0  0  0  0  0  0  0  0  0  0  0  0
   21.8680  -13.1831  -16.8446 C   0  0  0  0  0  0  0  0  0  0  0  0
   20.6117  -12.9814  -16.7786 O   0  0  0  0  0  0  0  0  0  0  0  0
   24.0486  -15.4186  -19.9455 O   0  0  0  0  0  0  0  0  0  0  0  0
   22.6977  -12.4118  -15.9902 N   0  0  0  0  0  0  0  0  0  0  0  0
   24.1246  -12.5005  -16.0206 C   0  0  0  0  0  0  0  0  0  0  0  0
   24.6346  -11.8515  -14.7936 C   0  0  0  0  0  0  0  0  0  0  0  0
   23.4313  -11.4911  -14.0119 C   0  0  0  0  0  0  0  0  0  0  0  0
   22.2756  -11.4578  -15.0342 C   0  0  1  0  0  0  0  0  0  0  0  0
   22.1408  -10.0639  -15.5711 C   0  0  0  0  0  0  0  0  0  0  0  0
   22.9737   -9.6623  -16.4178 O   0  0  0  0  0  0  0  0  0  0  0  0
   19.4904   -8.3906  -18.3807 C   0  0  0  0  0  0  0  0  0  0  0  0
   18.9035   -8.7804  -17.0416 C   0  0  2  0  0  0  0  0  0  0  0  0
   17.3930   -8.7405  -17.0982 C   0  0  0  0  0  0  0  0  0  0  0  0
   19.3491   -7.8095  -15.9678 C   0  0  0  0  0  0  0  0  0  0  0  0
   20.8520   -7.9067  -15.7356 C   0  0  2  0  0  0  0  0  0  0  0  0
   21.1160   -9.2053  -15.1550 N   0  0  0  0  0  0  0  0  0  0  0  0
   21.2070   -6.8721  -14.7332 C   0  0  0  0  0  0  0  0  0  0  0  0
   21.4412   -7.1765  -13.5573 O   0  0  0  0  0  0  0  0  0  0  0  0
   21.2784   -5.5345  -15.1221 O   0  0  0  0  0  0  0  0  0  0  0  0
  2  1  1  6
  2  3  1  0
  2  6  1  0
  3  4  1  0
  4  5  2  0
  4  8  1  0
  6  7  2  0
  9 13  1  0
  9  6  1  0
 10  9  1  0
 11 10  1  0
 11 12  1  0
 12 13  1  0
 13 14  1  6
 14 21  1  0
 14 15  2  0
 17 16  1  6
 17 18  1  0
 19 17  1  0
 20 19  1  1
 20 22  1  0
 21 20  1  0
 22 23  2  0
 22 24  1  0
M  END
$$$$
