DPL.pdb
     RDKit          3D

 24 24  0  0  1  0  0  0  0  0999 V2000
   12.6745   -4.4132   -7.7240 N   0  0  0  0  0  0  0  0  0  0  0  0
   13.5269   -4.2042   -8.9156 C   0  0  1  0  0  0  0  0  0  0  0  0
   14.9294   -3.9116   -8.5008 C   0  0  0  0  0  0  0  0  0  0  0  0
   15.1092   -2.6121   -7.8469 C   0  0  0  0  0  0  0  0  0  0  0  0
   14.8852   -1.5498   -8.4614 O   0  0  0  0  0  0  0  0  0  0  0  0
   13.3867   -5.4727   -9.6769 C   0  0  0  0  0  0  0  0  0  0  0  0
   13.3532   -6.5469   -8.9926 O   0  0  0  0  0  0  0  0  0  0  0  0
   15.5341   -2.4859   -6.5216 O   0  0  0  0  0  0  0  0  0  0  0  0
   13.2872   -5.5948  -11.0871 N   0  0  0  0  0  0  0  0  0  0  0  0
   13.3830   -4.4694  -11.9639 C   0  0  0  0  0  0  0  0  0  0  0  0
   12.8901   -4.8987  -13.2904 C   0  0  0  0  0  0  0  0  0  0  0  0
   12.4055   -6.2834  -13.0990 C   0  0  0  0  0  0  0  0  0  0  0  0
   13.1118   -6.7902  -11.8238 C   0  0  1  0  0  0  0  0  0  0  0  0
   14.3914   -7.4686  -12.2131 C   0  0  0  0  0  0  0  0  0  0  0  0
   15.4125   -6.7654  -12.3995 O   0  0  0  0  0  0  0  0  0  0  0  0
   16.7471  -12.6266  -12.4992 C   0  0  0  0  0  0  0  0  0  0  0  0
   17.1509  -11.3961  -11.7165 C   0  0  2  0  0  0  0  0  0  0  0  0
   17.7199  -11.7914  -10.3725 C   0  0  0  0  0  0  0  0  0  0  0  0
   15.9464  -10.5130  -11.4640 C   0  0  0  0  0  0  0  0  0  0  0  0
   15.7019   -9.5761  -12.6406 C   0  0  2  0  0  0  0  0  0  0  0  0
   14.4754   -8.8572  -12.3723 N   0  0  0  0  0  0  0  0  0  0  0  0
   15.4868  -10.4253  -13.8379 C   0  0  0  0  0  0  0  0  0  0  0  0
   14.3779  -10.9170  -14.0808 O   0  0  0  0  0  0  0  0  0  0  0  0
   16.5512  -10.6735  -14.7045 O   0  0  0  0  0  0  0  0  0  0  0  0
  2  1  1  1
  2  3  1  0
  2  6  1  0
  3  4  1  0
  4  5  2  0
  4  8  1  0
  6  7  2  0
  9 13  1  0
  9  6  1  0
 10  9  1  0
 11 10  1  0
 11 12  1  0
 12 13  1  0
 13 14  1  6
 14 21  1  0
 14 15  2  0
 17 16  1  1
 17 18  1  0
 19 17  1  0
 20 19  1  1
 20 22  1  0
 21 20  1  0
 22 23  2  0
 22 24  1  0
M  END
$$$$
