DPL.pdb
     RDKit          3D

 24 24  0  0  1  0  0  0  0  0999 V2000
   24.9123  -24.0764  -15.3001 N   0  0  0  0  0  0  0  0  0  0  0  0
   24.4952  -22.7949  -14.6883 C   0  0  1  0  0  0  0  0  0  0  0  0
   23.1257  -22.9214  -14.1110 C   0  0  0  0  0  0  0  0  0  0  0  0
   22.2460  -21.7809  -14.3828 C   0  0  0  0  0  0  0  0  0  0  0  0
   21.8113  -21.5674  -15.5325 O   0  0  0  0  0  0  0  0  0  0  0  0
   25.5452  -22.5313  -13.6704 C   0  0  0  0  0  0  0  0  0  0  0  0
   26.0069  -23.5455  -13.0526 O   0  0  0  0  0  0  0  0  0  0  0  0
   21.8482  -20.8807  -13.3907 O   0  0  0  0  0  0  0  0  0  0  0  0
   26.0765  -21.2613  -13.3267 N   0  0  0  0  0  0  0  0  0  0  0  0
   25.6270  -20.0497  -13.9390 C   0  0  0  0  0  0  0  0  0  0  0  0
   26.6146  -18.9976  -13.6156 C   0  0  0  0  0  0  0  0  0  0  0  0
   27.7011  -19.6903  -12.8885 C   0  0  0  0  0  0  0  0  0  0  0  0
   27.0687  -20.9928  -12.3542 C   0  0  1  0  0  0  0  0  0  0  0  0
   26.5310  -20.7433  -10.9765 C   0  0  0  0  0  0  0  0  0  0  0  0
   25.2900  -20.6544  -10.8221 O   0  0  0  0  0  0  0  0  0  0  0  0
   28.3203  -18.8177   -5.4466 C   0  0  0  0  0  0  0  0  0  0  0  0
   27.4247  -19.7588   -6.2225 C   0  0  2  0  0  0  0  0  0  0  0  0
   27.4236  -21.1293   -5.5836 C   0  0  0  0  0  0  0  0  0  0  0  0
   27.9275  -19.9142   -7.6428 C   0  0  0  0  0  0  0  0  0  0  0  0
   26.9311  -20.6954   -8.4907 C   0  0  2  0  0  0  0  0  0  0  0  0
   27.3727  -20.6085   -9.8657 N   0  0  0  0  0  0  0  0  0  0  0  0
   25.6248  -20.0008   -8.3807 C   0  0  0  0  0  0  0  0  0  0  0  0
   25.4527  -18.8822   -8.8800 O   0  0  0  0  0  0  0  0  0  0  0  0
   24.5731  -20.6183   -7.7038 O   0  0  0  0  0  0  0  0  0  0  0  0
  2  1  1  1
  2  3  1  0
  2  6  1  0
  3  4  1  0
  4  5  2  0
  4  8  1  0
  6  7  2  0
  9 13  1  0
  9  6  1  0
 10  9  1  0
 11 10  1  0
 11 12  1  0
 12 13  1  0
 13 14  1  1
 14 21  1  0
 14 15  2  0
 17 16  1  1
 17 18  1  0
 19 17  1  0
 20 19  1  1
 20 22  1  0
 21 20  1  0
 22 23  2  0
 22 24  1  0
M  END
$$$$
