DPL.pdb
     RDKit          3D

 24 24  0  0  1  0  0  0  0  0999 V2000
   15.1774   -2.4851  -15.2782 N   0  0  0  0  0  0  0  0  0  0  0  0
   16.3738   -3.3417  -15.1192 C   0  0  1  0  0  0  0  0  0  0  0  0
   17.3483   -2.6984  -14.1911 C   0  0  0  0  0  0  0  0  0  0  0  0
   18.0420   -1.5353  -14.7521 C   0  0  0  0  0  0  0  0  0  0  0  0
   18.6704   -1.6214  -15.8263 O   0  0  0  0  0  0  0  0  0  0  0  0
   15.8246   -4.6236  -14.6060 C   0  0  0  0  0  0  0  0  0  0  0  0
   14.8765   -4.5385  -13.7591 O   0  0  0  0  0  0  0  0  0  0  0  0
   18.0420   -0.2837  -14.1304 O   0  0  0  0  0  0  0  0  0  0  0  0
   16.2572   -5.9246  -14.9715 N   0  0  0  0  0  0  0  0  0  0  0  0
   17.2666   -6.1488  -15.9592 C   0  0  0  0  0  0  0  0  0  0  0  0
   17.2100   -7.5784  -16.3331 C   0  0  0  0  0  0  0  0  0  0  0  0
   16.0508   -8.1301  -15.5978 C   0  0  0  0  0  0  0  0  0  0  0  0
   15.8049   -7.1513  -14.4302 C   0  0  1  0  0  0  0  0  0  0  0  0
   16.5764   -7.6190  -13.2322 C   0  0  0  0  0  0  0  0  0  0  0  0
   17.7664   -7.2470  -13.1002 O   0  0  0  0  0  0  0  0  0  0  0  0
   16.1922   -6.8177   -8.9324 C   0  0  0  0  0  0  0  0  0  0  0  0
   15.0851   -7.6407   -9.5544 C   0  0  2  0  0  0  0  0  0  0  0  0
   13.9701   -7.8607   -8.5571 C   0  0  0  0  0  0  0  0  0  0  0  0
   15.6076   -9.0011   -9.9673 C   0  0  0  0  0  0  0  0  0  0  0  0
   16.6732   -8.8699  -11.0487 C   0  0  2  0  0  0  0  0  0  0  0  0
   16.0065   -8.4543  -12.2635 N   0  0  0  0  0  0  0  0  0  0  0  0
   17.2380  -10.2235  -11.2721 C   0  0  0  0  0  0  0  0  0  0  0  0
   16.8533  -10.9283  -12.2131 O   0  0  0  0  0  0  0  0  0  0  0  0
   18.2188  -10.7099  -10.4079 O   0  0  0  0  0  0  0  0  0  0  0  0
  2  1  1  1
  2  3  1  0
  2  6  1  0
  3  4  1  0
  4  5  2  0
  4  8  1  0
  6  7  2  0
  9 13  1  0
  9  6  1  0
 10  9  1  0
 11 10  1  0
 11 12  1  0
 12 13  1  0
 13 14  1  1
 14 21  1  0
 14 15  2  0
 17 16  1  1
 17 18  1  0
 19 17  1  0
 20 19  1  1
 20 22  1  0
 21 20  1  0
 22 23  2  0
 22 24  1  0
M  END
$$$$
