DPL.pdb
     RDKit          3D

 24 24  0  0  1  0  0  0  0  0999 V2000
   17.5814  -13.5387  -18.8479 N   0  0  0  0  0  0  0  0  0  0  0  0
   17.0628  -12.3792  -18.0883 C   0  0  1  0  0  0  0  0  0  0  0  0
   16.6982  -12.7928  -16.7023 C   0  0  0  0  0  0  0  0  0  0  0  0
   15.6079  -13.7698  -16.6287 C   0  0  0  0  0  0  0  0  0  0  0  0
   14.5405  -13.5856  -17.2478 O   0  0  0  0  0  0  0  0  0  0  0  0
   18.1766  -11.3968  -18.1396 C   0  0  0  0  0  0  0  0  0  0  0  0
   19.3531  -11.8746  -18.2441 O   0  0  0  0  0  0  0  0  0  0  0  0
   15.6952  -14.9437  -15.8757 O   0  0  0  0  0  0  0  0  0  0  0  0
   18.0492   -9.9847  -18.0834 N   0  0  0  0  0  0  0  0  0  0  0  0
   16.7798   -9.3307  -18.0085 C   0  0  0  0  0  0  0  0  0  0  0  0
   16.9991   -7.9019  -18.3206 C   0  0  0  0  0  0  0  0  0  0  0  0
   18.4287   -7.7956  -18.6862 C   0  0  0  0  0  0  0  0  0  0  0  0
   19.1016   -9.0389  -18.0671 C   0  0  1  0  0  0  0  0  0  0  0  0
   19.5978   -8.6914  -16.6951 C   0  0  0  0  0  0  0  0  0  0  0  0
   18.8881   -8.9895  -15.7054 O   0  0  0  0  0  0  0  0  0  0  0  0
   22.9867   -9.8103  -13.3784 C   0  0  0  0  0  0  0  0  0  0  0  0
   23.6853   -9.6931  -14.7155 C   0  0  2  0  0  0  0  0  0  0  0  0
   24.6846   -8.5586  -14.6886 C   0  0  0  0  0  0  0  0  0  0  0  0
   22.6818   -9.3957  -15.8105 C   0  0  0  0  0  0  0  0  0  0  0  0
   21.7081   -8.3071  -15.3758 C   0  0  2  0  0  0  0  0  0  0  0  0
   20.8245   -8.0477  -16.4916 N   0  0  0  0  0  0  0  0  0  0  0  0
   22.5063   -7.0820  -15.1245 C   0  0  0  0  0  0  0  0  0  0  0  0
   22.9626   -6.8368  -14.0012 O   0  0  0  0  0  0  0  0  0  0  0  0
   22.7468   -6.1920  -16.1712 O   0  0  0  0  0  0  0  0  0  0  0  0
  2  1  1  6
  2  3  1  0
  2  6  1  0
  3  4  1  0
  4  5  2  0
  4  8  1  0
  6  7  2  0
  9 13  1  0
  9  6  1  0
 10  9  1  0
 11 10  1  0
 11 12  1  0
 12 13  1  0
 13 14  1  1
 14 21  1  0
 14 15  2  0
 17 16  1  1
 17 18  1  0
 19 17  1  0
 20 19  1  6
 20 22  1  0
 21 20  1  0
 22 23  2  0
 22 24  1  0
M  END
$$$$
