IQH.pdb
     RDKit          3D

 28 28  0  0  1  0  0  0  0  0999 V2000
    7.9282  -12.1564   21.1286 C   0  0  0  0  0  0  0  0  0  0  0  0
    7.6806  -13.5975   20.8310 C   0  0  0  0  0  0  0  0  0  0  0  0
    8.3970  -14.0171   19.5584 C   0  0  2  0  0  0  0  0  0  0  0  0
    7.9157  -13.1592   18.4106 C   0  0  0  0  0  0  0  0  0  0  0  0
    8.1314  -15.4653   19.2494 C   0  0  2  0  0  0  0  0  0  0  0  0
    6.7007  -15.6891   19.0626 N   0  0  0  0  0  0  0  0  0  0  0  0
    8.4932  -16.2723   20.4690 C   0  0  0  0  0  0  0  0  0  0  0  0
    7.5607  -16.5437   21.2985 O   0  0  0  0  0  0  0  0  0  0  0  0
   13.8310  -20.1221   20.4160 N   0  0  0  0  0  0  0  0  0  0  0  0
   13.0038  -19.0879   19.8945 C   0  0  0  0  0  0  0  0  0  0  0  0
   12.8271  -19.0349   18.6609 O   0  0  0  0  0  0  0  0  0  0  0  0
   12.4048  -18.1438   20.8571 C   0  0  0  0  0  0  0  0  0  0  0  0
   11.1113  -18.6587   21.4428 C   0  0  0  0  0  0  0  0  0  0  0  0
   10.2101  -17.5460   21.7769 C   0  0  2  0  0  0  0  0  0  0  0  0
    9.8034  -16.7149   20.6829 N   0  0  0  0  0  0  0  0  0  0  0  0
   10.5081  -16.8159   23.0442 C   0  0  0  0  0  0  0  0  0  0  0  0
   11.2499  -15.8213   23.0098 O   0  0  0  0  0  0  0  0  0  0  0  0
    9.9934  -17.1851   24.3078 N   0  0  0  0  0  0  0  0  0  0  0  0
   10.3443  -16.4126   25.5124 C   0  0  1  0  0  0  0  0  0  0  0  0
    9.0773  -16.0368   26.2616 C   0  0  0  0  0  0  0  0  0  0  0  0
    9.4745  -15.3105   27.4930 C   0  0  0  0  0  0  0  0  0  0  0  0
   10.7435  -14.7723   27.7589 C   0  0  0  0  0  0  0  0  0  0  0  0
   10.7267  -14.1918   28.9653 N   0  0  0  0  0  0  0  0  0  0  0  0
    9.4996  -14.3375   29.4796 C   0  0  0  0  0  0  0  0  0  0  0  0
    8.7509  -15.0110   28.5899 N   0  0  0  0  0  0  0  0  0  0  0  0
   11.3009  -17.1769   26.3481 C   0  0  0  0  0  0  0  0  0  0  0  0
   11.8635  -16.7249   27.3710 O   0  0  0  0  0  0  0  0  0  0  0  0
   11.5954  -18.4819   25.9751 O   0  0  0  0  0  0  0  0  0  0  0  0
  1  2  1  0
  3  2  1  0
  3  4  1  6
  5  3  1  0
  5  6  1  1
  7  8  2  0
  7  5  1  0
  9 10  1  0
 10 12  1  0
 11 10  2  0
 12 13  1  0
 14 13  1  6
 14 15  1  0
 15  7  1  0
 16 14  1  0
 16 17  2  0
 18 16  1  0
 19 18  1  0
 19 20  1  1
 20 21  1  0
 21 22  2  0
 21 25  1  0
 22 23  1  0
 23 24  1  0
 25 24  2  0
 26 19  1  0
 27 26  2  0
 28 26  1  0
M  END
$$$$
