IQH.pdb
     RDKit          3D

 28 28  0  0  1  0  0  0  0  0999 V2000
    6.4303  -11.0182   27.6385 C   0  0  0  0  0  0  0  0  0  0  0  0
    5.8620  -12.3029   27.1354 C   0  0  0  0  0  0  0  0  0  0  0  0
    6.8125  -12.9659   26.1526 C   0  0  2  0  0  0  0  0  0  0  0  0
    7.1019  -12.0096   25.0182 C   0  0  0  0  0  0  0  0  0  0  0  0
    6.2138  -14.2318   25.6027 C   0  0  2  0  0  0  0  0  0  0  0  0
    6.0543  -15.2199   26.6657 N   0  0  0  0  0  0  0  0  0  0  0  0
    7.2127  -14.8417   24.6541 C   0  0  0  0  0  0  0  0  0  0  0  0
    8.0418  -15.6887   25.1301 O   0  0  0  0  0  0  0  0  0  0  0  0
    7.7959  -13.8725   18.3350 N   0  0  0  0  0  0  0  0  0  0  0  0
    8.8630  -14.7632   18.6417 C   0  0  0  0  0  0  0  0  0  0  0  0
    9.6027  -15.1448   17.7128 O   0  0  0  0  0  0  0  0  0  0  0  0
    9.0237  -15.1745   20.0494 C   0  0  0  0  0  0  0  0  0  0  0  0
    7.9686  -14.5771   20.9501 C   0  0  0  0  0  0  0  0  0  0  0  0
    8.1600  -15.0154   22.3405 C   0  0  2  0  0  0  0  0  0  0  0  0
    7.2279  -14.4978   23.2978 N   0  0  0  0  0  0  0  0  0  0  0  0
    9.5723  -15.0939   22.8170 C   0  0  0  0  0  0  0  0  0  0  0  0
   10.2748  -14.0708   22.7997 O   0  0  0  0  0  0  0  0  0  0  0  0
   10.1788  -16.2768   23.2975 N   0  0  0  0  0  0  0  0  0  0  0  0
   11.5302  -16.2390   23.8832 C   0  0  1  0  0  0  0  0  0  0  0  0
   11.6002  -17.1956   25.0613 C   0  0  0  0  0  0  0  0  0  0  0  0
   10.7923  -16.6198   26.1645 C   0  0  0  0  0  0  0  0  0  0  0  0
   10.1787  -15.3571   26.1641 C   0  0  0  0  0  0  0  0  0  0  0  0
    9.5380  -15.1834   27.3268 N   0  0  0  0  0  0  0  0  0  0  0  0
    9.7176  -16.2829   28.0686 C   0  0  0  0  0  0  0  0  0  0  0  0
   10.4726  -17.1433   27.3646 N   0  0  0  0  0  0  0  0  0  0  0  0
   12.5454  -16.5326   22.8435 C   0  0  0  0  0  0  0  0  0  0  0  0
   12.2764  -16.8377   21.6595 O   0  0  0  0  0  0  0  0  0  0  0  0
   13.8853  -16.4657   23.2024 O   0  0  0  0  0  0  0  0  0  0  0  0
  1  2  1  0
  3  2  1  0
  3  4  1  6
  5  3  1  0
  5  6  1  1
  7  8  2  0
  7  5  1  0
  9 10  1  0
 10 12  1  0
 11 10  2  0
 12 13  1  0
 14 13  1  6
 14 15  1  0
 15  7  1  0
 16 14  1  0
 16 17  2  0
 18 16  1  0
 19 18  1  0
 19 20  1  1
 20 21  1  0
 21 22  2  0
 21 25  1  0
 22 23  1  0
 23 24  1  0
 25 24  2  0
 26 19  1  0
 27 26  2  0
 28 26  1  0
M  END
$$$$
