IQH.pdb
     RDKit          3D

 28 28  0  0  1  0  0  0  0  0999 V2000
    5.7722  -11.2546   26.6165 C   0  0  0  0  0  0  0  0  0  0  0  0
    5.3544  -12.5772   26.0663 C   0  0  0  0  0  0  0  0  0  0  0  0
    6.5610  -13.3722   25.5963 C   0  0  2  0  0  0  0  0  0  0  0  0
    7.3324  -12.5546   24.5855 C   0  0  0  0  0  0  0  0  0  0  0  0
    6.1328  -14.6715   24.9704 C   0  0  2  0  0  0  0  0  0  0  0  0
    5.4247  -15.4947   25.9464 N   0  0  0  0  0  0  0  0  0  0  0  0
    7.3753  -15.4539   24.6332 C   0  0  0  0  0  0  0  0  0  0  0  0
    7.9217  -16.1310   25.5683 O   0  0  0  0  0  0  0  0  0  0  0  0
    9.0742  -18.3388   19.9032 N   0  0  0  0  0  0  0  0  0  0  0  0
   10.3829  -18.1768   20.4390 C   0  0  0  0  0  0  0  0  0  0  0  0
   11.2326  -19.0598   20.2065 O   0  0  0  0  0  0  0  0  0  0  0  0
   10.6473  -16.9640   21.2364 C   0  0  0  0  0  0  0  0  0  0  0  0
    9.3930  -16.1689   21.5121 C   0  0  0  0  0  0  0  0  0  0  0  0
    9.1141  -16.1175   22.9549 C   0  0  2  0  0  0  0  0  0  0  0  0
    7.9088  -15.4449   23.3395 N   0  0  0  0  0  0  0  0  0  0  0  0
   10.2865  -15.8636   23.8429 C   0  0  0  0  0  0  0  0  0  0  0  0
   10.3606  -14.7863   24.4548 O   0  0  0  0  0  0  0  0  0  0  0  0
   11.3410  -16.7840   24.0407 N   0  0  0  0  0  0  0  0  0  0  0  0
   12.0066  -16.8875   25.3511 C   0  0  1  0  0  0  0  0  0  0  0  0
   11.0155  -17.3923   26.3858 C   0  0  0  0  0  0  0  0  0  0  0  0
   10.6144  -16.2415   27.2321 C   0  0  0  0  0  0  0  0  0  0  0  0
   10.9399  -14.8957   27.0007 C   0  0  0  0  0  0  0  0  0  0  0  0
   10.4057  -14.1449   27.9720 N   0  0  0  0  0  0  0  0  0  0  0  0
    9.7531  -14.9560   28.8131 C   0  0  0  0  0  0  0  0  0  0  0  0
    9.8819  -16.2157   28.3632 N   0  0  0  0  0  0  0  0  0  0  0  0
   13.2124  -17.7434   25.2447 C   0  0  0  0  0  0  0  0  0  0  0  0
   13.4417  -18.5264   24.2952 O   0  0  0  0  0  0  0  0  0  0  0  0
   14.1531  -17.6753   26.2642 O   0  0  0  0  0  0  0  0  0  0  0  0
  1  2  1  0
  3  2  1  0
  3  4  1  6
  5  3  1  0
  5  6  1  1
  7  8  2  0
  7  5  1  0
  9 10  1  0
 10 12  1  0
 11 10  2  0
 12 13  1  0
 14 13  1  6
 14 15  1  0
 15  7  1  0
 16 14  1  0
 16 17  2  0
 18 16  1  0
 19 18  1  0
 19 20  1  1
 20 21  1  0
 21 22  2  0
 21 25  1  0
 22 23  1  0
 23 24  1  0
 25 24  2  0
 26 19  1  0
 27 26  2  0
 28 26  1  0
M  END
$$$$
