IQH.pdb
     RDKit          3D

 28 28  0  0  1  0  0  0  0  0999 V2000
    7.6426  -11.6372   19.0786 C   0  0  0  0  0  0  0  0  0  0  0  0
    7.9318  -13.0357   18.6458 C   0  0  0  0  0  0  0  0  0  0  0  0
    8.1589  -13.9371   19.8478 C   0  0  2  0  0  0  0  0  0  0  0  0
    9.3478  -13.4304   20.6320 C   0  0  0  0  0  0  0  0  0  0  0  0
    8.4115  -15.3545   19.4115 C   0  0  2  0  0  0  0  0  0  0  0  0
    7.2505  -15.8795   18.6987 N   0  0  0  0  0  0  0  0  0  0  0  0
    8.5234  -16.2062   20.6491 C   0  0  0  0  0  0  0  0  0  0  0  0
    7.4486  -16.4688   21.2874 O   0  0  0  0  0  0  0  0  0  0  0  0
    8.8724  -20.5019   23.1161 N   0  0  0  0  0  0  0  0  0  0  0  0
    9.0935  -20.4997   21.7100 C   0  0  0  0  0  0  0  0  0  0  0  0
    8.4509  -21.3053   21.0073 O   0  0  0  0  0  0  0  0  0  0  0  0
   10.0733  -19.5346   21.1759 C   0  0  0  0  0  0  0  0  0  0  0  0
   10.6723  -18.6627   22.2540 C   0  0  0  0  0  0  0  0  0  0  0  0
    9.9745  -17.3706   22.3281 C   0  0  2  0  0  0  0  0  0  0  0  0
    9.7601  -16.6984   21.0811 N   0  0  0  0  0  0  0  0  0  0  0  0
   10.3561  -16.4811   23.4643 C   0  0  0  0  0  0  0  0  0  0  0  0
   11.0164  -15.4554   23.2350 O   0  0  0  0  0  0  0  0  0  0  0  0
   10.0105  -16.7299   24.8122 N   0  0  0  0  0  0  0  0  0  0  0  0
    9.3939  -15.6729   25.6329 C   0  0  1  0  0  0  0  0  0  0  0  0
    8.1632  -15.1329   24.9246 C   0  0  0  0  0  0  0  0  0  0  0  0
    7.6487  -13.9873   25.7146 C   0  0  0  0  0  0  0  0  0  0  0  0
    8.2451  -13.4450   26.8640 C   0  0  0  0  0  0  0  0  0  0  0  0
    7.4982  -12.4239   27.3022 N   0  0  0  0  0  0  0  0  0  0  0  0
    6.4503  -12.2926   26.4800 C   0  0  0  0  0  0  0  0  0  0  0  0
    6.5460  -13.2353   25.5272 N   0  0  0  0  0  0  0  0  0  0  0  0
    9.0956  -16.1893   26.9901 C   0  0  0  0  0  0  0  0  0  0  0  0
    9.2070  -15.5190   28.0415 O   0  0  0  0  0  0  0  0  0  0  0  0
    8.6636  -17.5040   27.1077 O   0  0  0  0  0  0  0  0  0  0  0  0
  1  2  1  0
  3  2  1  0
  3  4  1  6
  5  3  1  0
  5  6  1  6
  7  8  2  0
  7  5  1  0
  9 10  1  0
 10 12  1  0
 11 10  2  0
 12 13  1  0
 14 13  1  6
 14 15  1  0
 15  7  1  0
 16 14  1  0
 16 17  2  0
 18 16  1  0
 19 18  1  0
 19 20  1  6
 20 21  1  0
 21 22  2  0
 21 25  1  0
 22 23  1  0
 23 24  1  0
 25 24  2  0
 26 19  1  0
 27 26  2  0
 28 26  1  0
M  END
$$$$
