IQH.pdb
     RDKit          3D

 28 28  0  0  1  0  0  0  0  0999 V2000
    6.0945  -11.2634   27.4734 C   0  0  0  0  0  0  0  0  0  0  0  0
    5.6167  -12.4841   26.7604 C   0  0  0  0  0  0  0  0  0  0  0  0
    6.7836  -13.2520   26.1625 C   0  0  2  0  0  0  0  0  0  0  0  0
    7.5417  -12.3482   25.2170 C   0  0  0  0  0  0  0  0  0  0  0  0
    6.2981  -14.4652   25.4172 C   0  0  2  0  0  0  0  0  0  0  0  0
    5.5783  -15.3593   26.3196 N   0  0  0  0  0  0  0  0  0  0  0  0
    7.5054  -15.2507   24.9759 C   0  0  0  0  0  0  0  0  0  0  0  0
    8.0993  -15.9669   25.8510 O   0  0  0  0  0  0  0  0  0  0  0  0
    7.9512  -16.5467   19.2326 N   0  0  0  0  0  0  0  0  0  0  0  0
    8.1465  -15.1918   19.6229 C   0  0  0  0  0  0  0  0  0  0  0  0
    7.7672  -14.2908   18.8483 O   0  0  0  0  0  0  0  0  0  0  0  0
    8.7866  -14.9446   20.9289 C   0  0  0  0  0  0  0  0  0  0  0  0
    9.0508  -16.2201   21.6937 C   0  0  0  0  0  0  0  0  0  0  0  0
    9.0557  -15.9687   23.1424 C   0  0  2  0  0  0  0  0  0  0  0  0
    7.9571  -15.2031   23.6523 N   0  0  0  0  0  0  0  0  0  0  0  0
   10.3809  -15.6484   23.7500 C   0  0  0  0  0  0  0  0  0  0  0  0
   10.5697  -14.5197   24.2306 O   0  0  0  0  0  0  0  0  0  0  0  0
   11.4590  -16.5600   23.8184 N   0  0  0  0  0  0  0  0  0  0  0  0
   12.0677  -16.9015   25.1160 C   0  0  1  0  0  0  0  0  0  0  0  0
   10.9981  -17.4335   26.0544 C   0  0  0  0  0  0  0  0  0  0  0  0
   10.8119  -16.4418   27.1422 C   0  0  0  0  0  0  0  0  0  0  0  0
   11.1643  -16.6206   28.4893 C   0  0  0  0  0  0  0  0  0  0  0  0
   10.8471  -15.5143   29.1733 N   0  0  0  0  0  0  0  0  0  0  0  0
   10.3071  -14.6374   28.3184 C   0  0  0  0  0  0  0  0  0  0  0  0
   10.2885  -15.2005   27.0984 N   0  0  0  0  0  0  0  0  0  0  0  0
   13.1860  -17.8547   24.9199 C   0  0  0  0  0  0  0  0  0  0  0  0
   13.1869  -18.7791   24.0756 O   0  0  0  0  0  0  0  0  0  0  0  0
   14.3097  -17.7168   25.7244 O   0  0  0  0  0  0  0  0  0  0  0  0
  1  2  1  0
  3  2  1  0
  3  4  1  6
  5  3  1  0
  5  6  1  1
  7  8  2  0
  7  5  1  0
  9 10  1  0
 10 12  1  0
 11 10  2  0
 12 13  1  0
 14 13  1  6
 14 15  1  0
 15  7  1  0
 16 14  1  0
 16 17  2  0
 18 16  1  0
 19 18  1  0
 19 20  1  1
 20 21  1  0
 21 22  2  0
 21 25  1  0
 22 23  1  0
 23 24  1  0
 25 24  2  0
 26 19  1  0
 27 26  2  0
 28 26  1  0
M  END
$$$$
