IQH.pdb
     RDKit          3D

 28 28  0  0  1  0  0  0  0  0999 V2000
    7.3889  -11.8963   18.9057 C   0  0  0  0  0  0  0  0  0  0  0  0
    8.3317  -12.9506   18.4300 C   0  0  0  0  0  0  0  0  0  0  0  0
    8.6060  -13.9650   19.5275 C   0  0  2  0  0  0  0  0  0  0  0  0
    9.2260  -13.2604   20.7126 C   0  0  0  0  0  0  0  0  0  0  0  0
    9.5371  -15.0409   19.0388 C   0  0  2  0  0  0  0  0  0  0  0  0
    8.9498  -15.7395   17.8992 N   0  0  0  0  0  0  0  0  0  0  0  0
    9.6445  -16.0852   20.1193 C   0  0  0  0  0  0  0  0  0  0  0  0
    9.1841  -17.2495   19.8666 O   0  0  0  0  0  0  0  0  0  0  0  0
   11.9448  -20.4262   21.1610 N   0  0  0  0  0  0  0  0  0  0  0  0
   12.7612  -19.2872   20.9117 C   0  0  0  0  0  0  0  0  0  0  0  0
   13.8567  -19.4563   20.3398 O   0  0  0  0  0  0  0  0  0  0  0  0
   12.2498  -17.9738   21.3477 C   0  0  0  0  0  0  0  0  0  0  0  0
   10.8965  -18.0719   22.0114 C   0  0  0  0  0  0  0  0  0  0  0  0
   10.4139  -16.7421   22.4122 C   0  0  2  0  0  0  0  0  0  0  0  0
   10.2339  -15.7925   21.3543 N   0  0  0  0  0  0  0  0  0  0  0  0
   10.9955  -16.1821   23.6675 C   0  0  0  0  0  0  0  0  0  0  0  0
   11.9444  -15.3855   23.5924 O   0  0  0  0  0  0  0  0  0  0  0  0
   10.5312  -16.5015   24.9638 N   0  0  0  0  0  0  0  0  0  0  0  0
    9.6975  -15.5470   25.7153 C   0  0  1  0  0  0  0  0  0  0  0  0
    8.4428  -15.2319   24.9189 C   0  0  0  0  0  0  0  0  0  0  0  0
    7.7471  -14.1068   25.5910 C   0  0  0  0  0  0  0  0  0  0  0  0
    8.2226  -13.3883   26.6993 C   0  0  0  0  0  0  0  0  0  0  0  0
    7.3262  -12.4494   27.0273 N   0  0  0  0  0  0  0  0  0  0  0  0
    6.2988  -12.5395   26.1742 C   0  0  0  0  0  0  0  0  0  0  0  0
    6.5574  -13.5379   25.3127 N   0  0  0  0  0  0  0  0  0  0  0  0
    9.4017  -16.0813   27.0662 C   0  0  0  0  0  0  0  0  0  0  0  0
    9.1302  -15.3733   28.0623 O   0  0  0  0  0  0  0  0  0  0  0  0
    9.4262  -17.4586   27.2430 O   0  0  0  0  0  0  0  0  0  0  0  0
  1  2  1  0
  3  2  1  0
  3  4  1  1
  5  3  1  0
  5  6  1  6
  7  8  2  0
  7  5  1  0
  9 10  1  0
 10 12  1  0
 11 10  2  0
 12 13  1  0
 14 13  1  6
 14 15  1  0
 15  7  1  0
 16 14  1  0
 16 17  2  0
 18 16  1  0
 19 18  1  0
 19 20  1  6
 20 21  1  0
 21 22  2  0
 21 25  1  0
 22 23  1  0
 23 24  1  0
 25 24  2  0
 26 19  1  0
 27 26  2  0
 28 26  1  0
M  END
$$$$
