IQH.pdb
     RDKit          3D

 28 28  0  0  1  0  0  0  0  0999 V2000
    7.2099  -11.8281   20.1094 C   0  0  0  0  0  0  0  0  0  0  0  0
    7.6798  -13.0844   19.4556 C   0  0  0  0  0  0  0  0  0  0  0  0
    8.0753  -14.1193   20.4955 C   0  0  2  0  0  0  0  0  0  0  0  0
    9.1797  -13.5575   21.3615 C   0  0  0  0  0  0  0  0  0  0  0  0
    8.5491  -15.3852   19.8350 C   0  0  2  0  0  0  0  0  0  0  0  0
    7.4810  -15.9643   19.0254 N   0  0  0  0  0  0  0  0  0  0  0  0
    8.8094  -16.4014   20.9162 C   0  0  0  0  0  0  0  0  0  0  0  0
    7.8158  -17.0814   21.3425 O   0  0  0  0  0  0  0  0  0  0  0  0
   13.6032  -20.0912   21.4210 N   0  0  0  0  0  0  0  0  0  0  0  0
   12.5513  -19.9863   20.4678 C   0  0  0  0  0  0  0  0  0  0  0  0
   12.6549  -20.6190   19.3980 O   0  0  0  0  0  0  0  0  0  0  0  0
   11.3999  -19.1317   20.8152 C   0  0  0  0  0  0  0  0  0  0  0  0
   11.5790  -18.4319   22.1417 C   0  0  0  0  0  0  0  0  0  0  0  0
   10.4275  -17.5659   22.4349 C   0  0  2  0  0  0  0  0  0  0  0  0
   10.0955  -16.5987   21.4312 N   0  0  0  0  0  0  0  0  0  0  0  0
   10.3124  -17.0780   23.8407 C   0  0  0  0  0  0  0  0  0  0  0  0
   11.2452  -16.4236   24.3328 O   0  0  0  0  0  0  0  0  0  0  0  0
    9.1912  -17.3133   24.6688 N   0  0  0  0  0  0  0  0  0  0  0  0
    9.2237  -16.9415   26.0942 C   0  0  1  0  0  0  0  0  0  0  0  0
    7.8204  -16.5931   26.5602 C   0  0  0  0  0  0  0  0  0  0  0  0
    7.4811  -15.2527   26.0220 C   0  0  0  0  0  0  0  0  0  0  0  0
    8.3410  -14.4156   25.2936 C   0  0  0  0  0  0  0  0  0  0  0  0
    7.6885  -13.2903   24.9765 N   0  0  0  0  0  0  0  0  0  0  0  0
    6.4482  -13.3751   25.4725 C   0  0  0  0  0  0  0  0  0  0  0  0
    6.3292  -14.5574   26.1002 N   0  0  0  0  0  0  0  0  0  0  0  0
    9.8406  -18.0287   26.8911 C   0  0  0  0  0  0  0  0  0  0  0  0
   10.0076  -17.9885   28.1312 O   0  0  0  0  0  0  0  0  0  0  0  0
   10.2630  -19.1697   26.2215 O   0  0  0  0  0  0  0  0  0  0  0  0
  1  2  1  0
  3  2  1  0
  3  4  1  6
  5  3  1  0
  5  6  1  6
  7  8  2  0
  7  5  1  0
  9 10  1  0
 10 12  1  0
 11 10  2  0
 12 13  1  0
 14 13  1  6
 14 15  1  0
 15  7  1  0
 16 14  1  0
 16 17  2  0
 18 16  1  0
 19 18  1  0
 19 20  1  1
 20 21  1  0
 21 22  2  0
 21 25  1  0
 22 23  1  0
 23 24  1  0
 25 24  2  0
 26 19  1  0
 27 26  2  0
 28 26  1  0
M  END
$$$$
