IQH.pdb
     RDKit          3D

 28 28  0  0  1  0  0  0  0  0999 V2000
    7.1641  -11.6820   19.9524 C   0  0  0  0  0  0  0  0  0  0  0  0
    7.3407  -13.1260   19.6202 C   0  0  0  0  0  0  0  0  0  0  0  0
    7.6688  -13.9308   20.8666 C   0  0  2  0  0  0  0  0  0  0  0  0
    9.0173  -13.4996   21.3965 C   0  0  0  0  0  0  0  0  0  0  0  0
    7.6969  -15.4031   20.5589 C   0  0  2  0  0  0  0  0  0  0  0  0
    6.4002  -15.8385   20.0481 N   0  0  0  0  0  0  0  0  0  0  0  0
    7.8691  -16.1441   21.8592 C   0  0  0  0  0  0  0  0  0  0  0  0
    6.8391  -16.2877   22.6008 O   0  0  0  0  0  0  0  0  0  0  0  0
   11.2561  -21.0407   23.1204 N   0  0  0  0  0  0  0  0  0  0  0  0
   10.1183  -20.8271   22.2921 C   0  0  0  0  0  0  0  0  0  0  0  0
    9.7824  -21.7310   21.5010 O   0  0  0  0  0  0  0  0  0  0  0  0
    9.4070  -19.5419   22.4298 C   0  0  0  0  0  0  0  0  0  0  0  0
   10.0901  -18.6041   23.3970 C   0  0  0  0  0  0  0  0  0  0  0  0
    9.3682  -17.3260   23.4828 C   0  0  2  0  0  0  0  0  0  0  0  0
    9.1121  -16.6628   22.2388 N   0  0  0  0  0  0  0  0  0  0  0  0
    9.7575  -16.4250   24.6073 C   0  0  0  0  0  0  0  0  0  0  0  0
   10.9357  -16.0457   24.6991 O   0  0  0  0  0  0  0  0  0  0  0  0
    8.8590  -15.9627   25.5958 N   0  0  0  0  0  0  0  0  0  0  0  0
    9.3480  -15.5918   26.9353 C   0  0  1  0  0  0  0  0  0  0  0  0
    8.2130  -14.9802   27.7389 C   0  0  0  0  0  0  0  0  0  0  0  0
    7.7080  -13.8026   26.9908 C   0  0  0  0  0  0  0  0  0  0  0  0
    6.5684  -13.7738   26.1715 C   0  0  0  0  0  0  0  0  0  0  0  0
    6.4274  -12.5428   25.6642 N   0  0  0  0  0  0  0  0  0  0  0  0
    7.4297  -11.7855   26.1260 C   0  0  0  0  0  0  0  0  0  0  0  0
    8.1967  -12.5483   26.9233 N   0  0  0  0  0  0  0  0  0  0  0  0
    9.9543  -16.7693   27.6014 C   0  0  0  0  0  0  0  0  0  0  0  0
    9.5196  -17.9391   27.5020 O   0  0  0  0  0  0  0  0  0  0  0  0
   11.0798  -16.5657   28.3891 O   0  0  0  0  0  0  0  0  0  0  0  0
  1  2  1  0
  3  2  1  0
  3  4  1  6
  5  3  1  0
  5  6  1  1
  7  8  2  0
  7  5  1  0
  9 10  1  0
 10 12  1  0
 11 10  2  0
 12 13  1  0
 14 13  1  6
 14 15  1  0
 15  7  1  0
 16 14  1  0
 16 17  2  0
 18 16  1  0
 19 18  1  0
 19 20  1  1
 20 21  1  0
 21 22  2  0
 21 25  1  0
 22 23  1  0
 23 24  1  0
 25 24  2  0
 26 19  1  0
 27 26  2  0
 28 26  1  0
M  END
$$$$
