QNT.pdb
     RDKit          3D

 25 24  0  0  1  0  0  0  0  0999 V2000
   17.1086  -14.5029  -20.6791 N   0  0  0  0  0  0  0  0  0  0  0  0
   17.1747  -13.4047  -19.7937 C   0  0  0  0  0  0  0  0  0  0  0  0
   17.3314  -12.2725  -20.3008 O   0  0  0  0  0  0  0  0  0  0  0  0
   17.0656  -13.5533  -18.3358 C   0  0  0  0  0  0  0  0  0  0  0  0
   16.7006  -12.2758  -17.6376 C   0  0  0  0  0  0  0  0  0  0  0  0
   17.9292  -11.4834  -17.3500 C   0  0  2  0  0  0  0  0  0  0  0  0
   18.7148  -12.2754  -16.3916 N   0  0  0  0  0  0  0  0  0  0  0  0
   17.6124  -10.1841  -16.6783 C   0  0  0  0  0  0  0  0  0  0  0  0
   16.4133   -9.8370  -16.5720 O   0  0  0  0  0  0  0  0  0  0  0  0
   16.5279   -8.9955  -13.4934 N   0  0  0  0  0  0  0  0  0  0  0  0
   17.8216   -8.5731  -13.0952 C   0  0  0  0  0  0  0  0  0  0  0  0
   18.1270   -8.6026  -11.8795 O   0  0  0  0  0  0  0  0  0  0  0  0
   18.7728   -8.1140  -14.0939 C   0  0  0  0  0  0  0  0  0  0  0  0
   18.2526   -8.0988  -15.5050 C   0  0  2  0  0  0  0  0  0  0  0  0
   18.6206   -9.3368  -16.1604 N   0  0  0  0  0  0  0  0  0  0  0  0
   18.7337   -6.9152  -16.2326 C   0  0  0  0  0  0  0  0  0  0  0  0
   19.9277   -6.8275  -16.6052 O   0  0  0  0  0  0  0  0  0  0  0  0
   17.8524   -5.5573  -19.5758 C   0  0  0  0  0  0  0  0  0  0  0  0
   17.5158   -4.4725  -18.5749 C   0  0  1  0  0  0  0  0  0  0  0  0
   16.1548   -4.4907  -18.2962 O   0  0  0  0  0  0  0  0  0  0  0  0
   18.3500   -4.6918  -17.3385 C   0  0  2  0  0  0  0  0  0  0  0  0
   17.8822   -5.8134  -16.5529 N   0  0  0  0  0  0  0  0  0  0  0  0
   18.3858   -3.4813  -16.5017 C   0  0  0  0  0  0  0  0  0  0  0  0
   17.8487   -3.4865  -15.2358 O   0  0  0  0  0  0  0  0  0  0  0  0
   18.9034   -2.4029  -16.9050 O   0  0  0  0  0  0  0  0  0  0  0  0
  2  4  1  0
  2  1  1  0
  3  2  2  0
  5  4  1  0
  6  5  1  0
  6  7  1  1
  8  6  1  0
  8 15  1  0
  9  8  2  0
 10 11  1  0
 11 12  2  0
 13 11  1  0
 14 13  1  1
 14 15  1  0
 16 14  1  0
 17 16  2  0
 19 18  1  6
 19 21  1  0
 20 19  1  0
 21 22  1  1
 21 23  1  0
 22 16  1  0
 23 24  1  0
 25 23  2  0
M  END
$$$$
