QNT.pdb
     RDKit          3D

 25 24  0  0  1  0  0  0  0  0999 V2000
   14.1613   -7.3665  -17.3472 N   0  0  0  0  0  0  0  0  0  0  0  0
   13.5723   -8.6204  -17.0725 C   0  0  0  0  0  0  0  0  0  0  0  0
   12.6663   -9.0055  -17.8435 O   0  0  0  0  0  0  0  0  0  0  0  0
   13.9855   -9.4597  -15.9393 C   0  0  0  0  0  0  0  0  0  0  0  0
   15.0405   -8.8202  -15.0845 C   0  0  0  0  0  0  0  0  0  0  0  0
   16.3902   -9.2945  -15.5009 C   0  0  2  0  0  0  0  0  0  0  0  0
   16.5213  -10.6660  -14.9866 N   0  0  0  0  0  0  0  0  0  0  0  0
   17.4845   -8.4912  -14.8708 C   0  0  0  0  0  0  0  0  0  0  0  0
   17.3967   -8.2021  -13.6549 O   0  0  0  0  0  0  0  0  0  0  0  0
   21.8613   -6.0672  -13.7414 N   0  0  0  0  0  0  0  0  0  0  0  0
   22.0012   -7.4103  -14.1741 C   0  0  0  0  0  0  0  0  0  0  0  0
   23.1075   -7.9844  -14.0375 O   0  0  0  0  0  0  0  0  0  0  0  0
   20.8683   -8.1019  -14.7667 C   0  0  0  0  0  0  0  0  0  0  0  0
   19.6334   -7.2615  -14.9414 C   0  0  2  0  0  0  0  0  0  0  0  0
   18.6125   -8.0485  -15.6018 N   0  0  0  0  0  0  0  0  0  0  0  0
   19.9383   -6.0188  -15.6656 C   0  0  0  0  0  0  0  0  0  0  0  0
   20.4327   -6.0473  -16.8175 O   0  0  0  0  0  0  0  0  0  0  0  0
   17.6500   -3.1002  -16.5652 C   0  0  0  0  0  0  0  0  0  0  0  0
   18.8115   -2.5356  -15.7753 C   0  0  1  0  0  0  0  0  0  0  0  0
   18.4193   -2.2915  -14.4650 O   0  0  0  0  0  0  0  0  0  0  0  0
   19.9568   -3.5129  -15.8508 C   0  0  2  0  0  0  0  0  0  0  0  0
   19.6925   -4.7263  -15.1080 N   0  0  0  0  0  0  0  0  0  0  0  0
   21.2075   -2.9016  -15.3726 C   0  0  0  0  0  0  0  0  0  0  0  0
   21.7237   -1.7852  -15.9877 O   0  0  0  0  0  0  0  0  0  0  0  0
   21.8500   -3.3695  -14.3918 O   0  0  0  0  0  0  0  0  0  0  0  0
  2  4  1  0
  2  1  1  0
  3  2  2  0
  5  4  1  0
  6  5  1  0
  6  7  1  1
  8  6  1  0
  8 15  1  0
  9  8  2  0
 10 11  1  0
 11 12  2  0
 13 11  1  0
 14 13  1  6
 14 15  1  0
 16 14  1  0
 17 16  2  0
 19 18  1  6
 19 21  1  0
 20 19  1  0
 21 22  1  1
 21 23  1  0
 22 16  1  0
 23 24  1  0
 25 23  2  0
M  END
$$$$
