QNT.pdb
     RDKit          3D

 25 24  0  0  1  0  0  0  0  0999 V2000
   23.3934  -11.1939  -19.5759 N   0  0  0  0  0  0  0  0  0  0  0  0
   22.6614  -11.9098  -20.5487 C   0  0  0  0  0  0  0  0  0  0  0  0
   23.2933  -12.7342  -21.2447 O   0  0  0  0  0  0  0  0  0  0  0  0
   21.2193  -11.7180  -20.7565 C   0  0  0  0  0  0  0  0  0  0  0  0
   20.6304  -10.6602  -19.8694 C   0  0  0  0  0  0  0  0  0  0  0  0
   20.3130  -11.2355  -18.5321 C   0  0  2  0  0  0  0  0  0  0  0  0
   19.1515  -12.1161  -18.7281 N   0  0  0  0  0  0  0  0  0  0  0  0
   19.8953  -10.1820  -17.5547 C   0  0  0  0  0  0  0  0  0  0  0  0
   18.8007   -9.5979  -17.7289 O   0  0  0  0  0  0  0  0  0  0  0  0
   19.3287   -7.0501  -13.5440 N   0  0  0  0  0  0  0  0  0  0  0  0
   19.6714   -8.3715  -13.1604 C   0  0  0  0  0  0  0  0  0  0  0  0
   19.6192   -8.6891  -11.9486 O   0  0  0  0  0  0  0  0  0  0  0  0
   20.0762   -9.3365  -14.1693 C   0  0  0  0  0  0  0  0  0  0  0  0
   20.2560   -8.7709  -15.5513 C   0  0  2  0  0  0  0  0  0  0  0  0
   20.6944   -9.8249  -16.4426 N   0  0  0  0  0  0  0  0  0  0  0  0
   21.1807   -7.6279  -15.5380 C   0  0  0  0  0  0  0  0  0  0  0  0
   22.4223   -7.8014  -15.5594 O   0  0  0  0  0  0  0  0  0  0  0  0
   19.7499   -3.6171  -15.9282 C   0  0  0  0  0  0  0  0  0  0  0  0
   21.0586   -4.0745  -16.5366 C   0  0  1  0  0  0  0  0  0  0  0  0
   21.9235   -2.9951  -16.6668 O   0  0  0  0  0  0  0  0  0  0  0  0
   21.6347   -5.1597  -15.6629 C   0  0  2  0  0  0  0  0  0  0  0  0
   20.7257   -6.2739  -15.5009 N   0  0  0  0  0  0  0  0  0  0  0  0
   22.0121   -4.6319  -14.3417 C   0  0  0  0  0  0  0  0  0  0  0  0
   23.0009   -3.6838  -14.2204 O   0  0  0  0  0  0  0  0  0  0  0  0
   21.4523   -5.0215  -13.2795 O   0  0  0  0  0  0  0  0  0  0  0  0
  2  4  1  0
  2  1  1  0
  3  2  2  0
  5  4  1  0
  6  5  1  0
  6  7  1  6
  8  6  1  0
  8 15  1  0
  9  8  2  0
 10 11  1  0
 11 12  2  0
 13 11  1  0
 14 13  1  1
 14 15  1  0
 16 14  1  0
 17 16  2  0
 19 18  1  1
 19 21  1  0
 20 19  1  0
 21 22  1  1
 21 23  1  0
 22 16  1  0
 23 24  1  0
 25 23  2  0
M  END
$$$$
