QNT.pdb
     RDKit          3D

 25 24  0  0  1  0  0  0  0  0999 V2000
   19.7175  -11.1127  -21.0105 N   0  0  0  0  0  0  0  0  0  0  0  0
   20.1113  -11.6610  -19.7700 C   0  0  0  0  0  0  0  0  0  0  0  0
   21.3336  -11.8600  -19.5974 O   0  0  0  0  0  0  0  0  0  0  0  0
   19.1509  -11.9921  -18.7083 C   0  0  0  0  0  0  0  0  0  0  0  0
   18.8605  -10.8380  -17.7938 C   0  0  0  0  0  0  0  0  0  0  0  0
   19.7652  -10.8851  -16.6108 C   0  0  2  0  0  0  0  0  0  0  0  0
   19.2505  -11.9538  -15.7414 N   0  0  0  0  0  0  0  0  0  0  0  0
   19.7121   -9.6187  -15.8150 C   0  0  0  0  0  0  0  0  0  0  0  0
   18.6889   -9.3773  -15.1337 O   0  0  0  0  0  0  0  0  0  0  0  0
   20.7733   -5.0907  -13.5715 N   0  0  0  0  0  0  0  0  0  0  0  0
   21.9089   -5.9396  -13.5483 C   0  0  0  0  0  0  0  0  0  0  0  0
   22.9117   -5.6008  -12.8762 O   0  0  0  0  0  0  0  0  0  0  0  0
   21.8978   -7.1845  -14.2987 C   0  0  0  0  0  0  0  0  0  0  0  0
   20.6387   -7.4426  -15.0798 C   0  0  2  0  0  0  0  0  0  0  0  0
   20.7775   -8.6873  -15.8071 N   0  0  0  0  0  0  0  0  0  0  0  0
   20.3235   -6.3101  -15.9628 C   0  0  0  0  0  0  0  0  0  0  0  0
   21.0419   -6.0459  -16.9558 O   0  0  0  0  0  0  0  0  0  0  0  0
   17.1567   -3.0087  -17.7339 C   0  0  0  0  0  0  0  0  0  0  0  0
   17.3920   -4.1349  -16.7499 C   0  0  1  0  0  0  0  0  0  0  0  0
   16.7089   -5.2730  -17.1602 O   0  0  0  0  0  0  0  0  0  0  0  0
   18.8771   -4.3723  -16.6461 C   0  0  2  0  0  0  0  0  0  0  0  0
   19.1974   -5.4579  -15.7446 N   0  0  0  0  0  0  0  0  0  0  0  0
   19.5805   -3.1512  -16.2211 C   0  0  0  0  0  0  0  0  0  0  0  0
   20.2310   -2.3599  -17.1387 O   0  0  0  0  0  0  0  0  0  0  0  0
   19.6160   -2.7839  -15.0139 O   0  0  0  0  0  0  0  0  0  0  0  0
  2  4  1  0
  2  1  1  0
  3  2  2  0
  5  4  1  0
  6  5  1  0
  6  7  1  1
  8  6  1  0
  8 15  1  0
  9  8  2  0
 10 11  1  0
 11 12  2  0
 13 11  1  0
 14 13  1  6
 14 15  1  0
 16 14  1  0
 17 16  2  0
 19 18  1  6
 19 21  1  0
 20 19  1  0
 21 22  1  1
 21 23  1  0
 22 16  1  0
 23 24  1  0
 25 23  2  0
M  END
$$$$
