QNT.pdb
     RDKit          3D

 25 24  0  0  1  0  0  0  0  0999 V2000
   13.4362  -12.1279  -14.1231 N   0  0  0  0  0  0  0  0  0  0  0  0
   14.0119  -13.1701  -14.8827 C   0  0  0  0  0  0  0  0  0  0  0  0
   13.2423  -13.8417  -15.6039 O   0  0  0  0  0  0  0  0  0  0  0  0
   15.4489  -13.4754  -14.8497 C   0  0  0  0  0  0  0  0  0  0  0  0
   16.2214  -12.5817  -13.9238 C   0  0  0  0  0  0  0  0  0  0  0  0
   16.5367  -11.2940  -14.6038 C   0  0  2  0  0  0  0  0  0  0  0  0
   17.5097  -11.6134  -15.6593 N   0  0  0  0  0  0  0  0  0  0  0  0
   17.2044  -10.3230  -13.6813 C   0  0  0  0  0  0  0  0  0  0  0  0
   17.3746  -10.6487  -12.4836 O   0  0  0  0  0  0  0  0  0  0  0  0
   19.6942   -6.3179  -11.6105 N   0  0  0  0  0  0  0  0  0  0  0  0
   19.9061   -6.2919  -13.0123 C   0  0  0  0  0  0  0  0  0  0  0  0
   20.6822   -5.4348  -13.4973 O   0  0  0  0  0  0  0  0  0  0  0  0
   19.2262   -7.2526  -13.8654 C   0  0  0  0  0  0  0  0  0  0  0  0
   18.2232   -8.1257  -13.1628 C   0  0  2  0  0  0  0  0  0  0  0  0
   17.6489   -9.0519  -14.1167 N   0  0  0  0  0  0  0  0  0  0  0  0
   17.2013   -7.3153  -12.4840 C   0  0  0  0  0  0  0  0  0  0  0  0
   16.4021   -6.6039  -13.1376 O   0  0  0  0  0  0  0  0  0  0  0  0
   14.4418   -8.2645  -10.0350 C   0  0  0  0  0  0  0  0  0  0  0  0
   15.3048   -7.2264   -9.3500 C   0  0  1  0  0  0  0  0  0  0  0  0
   16.1519   -7.8422   -8.4369 O   0  0  0  0  0  0  0  0  0  0  0  0
   16.0667   -6.4693  -10.4078 C   0  0  2  0  0  0  0  0  0  0  0  0
   17.0611   -7.2919  -11.0622 N   0  0  0  0  0  0  0  0  0  0  0  0
   16.7084   -5.2709   -9.8432 C   0  0  0  0  0  0  0  0  0  0  0  0
   18.0762   -5.1303   -9.8653 O   0  0  0  0  0  0  0  0  0  0  0  0
   16.0401   -4.3352   -9.3223 O   0  0  0  0  0  0  0  0  0  0  0  0
  2  4  1  0
  2  1  1  0
  3  2  2  0
  5  4  1  0
  6  5  1  0
  6  7  1  6
  8  6  1  0
  8 15  1  0
  9  8  2  0
 10 11  1  0
 11 12  2  0
 13 11  1  0
 14 13  1  6
 14 15  1  0
 16 14  1  0
 17 16  2  0
 19 18  1  6
 19 21  1  0
 20 19  1  0
 21 22  1  1
 21 23  1  0
 22 16  1  0
 23 24  1  0
 25 23  2  0
M  END
$$$$
