QNT.pdb
     RDKit          3D

 25 24  0  0  1  0  0  0  0  0999 V2000
   24.5838  -20.0481  -19.5943 N   0  0  0  0  0  0  0  0  0  0  0  0
   25.2110  -20.9907  -20.4385 C   0  0  0  0  0  0  0  0  0  0  0  0
   25.9252  -20.5423  -21.3617 O   0  0  0  0  0  0  0  0  0  0  0  0
   25.0522  -22.4412  -20.2642 C   0  0  0  0  0  0  0  0  0  0  0  0
   24.1765  -22.8036  -19.1004 C   0  0  0  0  0  0  0  0  0  0  0  0
   22.9451  -23.4895  -19.5836 C   0  0  2  0  0  0  0  0  0  0  0  0
   22.7161  -23.0072  -20.9538 N   0  0  0  0  0  0  0  0  0  0  0  0
   21.7400  -23.1046  -18.7839 C   0  0  0  0  0  0  0  0  0  0  0  0
   21.6199  -23.5536  -17.6205 O   0  0  0  0  0  0  0  0  0  0  0  0
   20.4245  -21.2682  -15.8187 N   0  0  0  0  0  0  0  0  0  0  0  0
   20.2728  -20.1679  -16.7002 C   0  0  0  0  0  0  0  0  0  0  0  0
   20.5223  -19.0120  -16.2835 O   0  0  0  0  0  0  0  0  0  0  0  0
   19.8330  -20.3908  -18.0676 C   0  0  0  0  0  0  0  0  0  0  0  0
   19.6411  -21.8341  -18.4445 C   0  0  2  0  0  0  0  0  0  0  0  0
   20.7343  -22.2519  -19.2977 N   0  0  0  0  0  0  0  0  0  0  0  0
   18.3284  -22.0461  -19.0718 C   0  0  0  0  0  0  0  0  0  0  0  0
   18.1121  -21.6880  -20.2538 O   0  0  0  0  0  0  0  0  0  0  0  0
   16.1008  -25.2849  -19.2012 C   0  0  0  0  0  0  0  0  0  0  0  0
   15.2985  -24.1474  -18.6059 C   0  0  1  0  0  0  0  0  0  0  0  0
   15.2260  -24.2902  -17.2258 O   0  0  0  0  0  0  0  0  0  0  0  0
   15.9477  -22.8474  -19.0074 C   0  0  2  0  0  0  0  0  0  0  0  0
   17.2397  -22.6633  -18.3823 N   0  0  0  0  0  0  0  0  0  0  0  0
   15.0780  -21.7019  -18.6945 C   0  0  0  0  0  0  0  0  0  0  0  0
   13.8989  -21.5085  -19.3755 O   0  0  0  0  0  0  0  0  0  0  0  0
   15.3732  -20.8607  -17.8008 O   0  0  0  0  0  0  0  0  0  0  0  0
  2  4  1  0
  2  1  1  0
  3  2  2  0
  5  4  1  0
  6  5  1  0
  6  7  1  6
  8  6  1  0
  8 15  1  0
  9  8  2  0
 10 11  1  0
 11 12  2  0
 13 11  1  0
 14 13  1  6
 14 15  1  0
 16 14  1  0
 17 16  2  0
 19 18  1  1
 19 21  1  0
 20 19  1  0
 21 22  1  1
 21 23  1  0
 22 16  1  0
 23 24  1  0
 25 23  2  0
M  END
$$$$
