QNT.pdb
     RDKit          3D

 25 24  0  0  1  0  0  0  0  0999 V2000
   26.7986  -17.7715  -18.6987 N   0  0  0  0  0  0  0  0  0  0  0  0
   27.8516  -17.6426  -17.7663 C   0  0  0  0  0  0  0  0  0  0  0  0
   29.0181  -17.6989  -18.2129 O   0  0  0  0  0  0  0  0  0  0  0  0
   27.6187  -17.4482  -16.3285 C   0  0  0  0  0  0  0  0  0  0  0  0
   26.1743  -17.2210  -15.9896 C   0  0  0  0  0  0  0  0  0  0  0  0
   25.6694  -18.3347  -15.1382 C   0  0  2  0  0  0  0  0  0  0  0  0
   26.2606  -19.5675  -15.6800 N   0  0  0  0  0  0  0  0  0  0  0  0
   24.1842  -18.4877  -15.2400 C   0  0  0  0  0  0  0  0  0  0  0  0
   23.4552  -17.5189  -14.9246 O   0  0  0  0  0  0  0  0  0  0  0  0
   22.4438  -17.9171  -17.9423 N   0  0  0  0  0  0  0  0  0  0  0  0
   21.9957  -19.2189  -18.2817 C   0  0  0  0  0  0  0  0  0  0  0  0
   21.7508  -19.4876  -19.4817 O   0  0  0  0  0  0  0  0  0  0  0  0
   21.8267  -20.2206  -17.2419 C   0  0  0  0  0  0  0  0  0  0  0  0
   22.1405  -19.7476  -15.8491 C   0  0  2  0  0  0  0  0  0  0  0  0
   23.5777  -19.6883  -15.6800 N   0  0  0  0  0  0  0  0  0  0  0  0
   21.4929  -20.6017  -14.8428 C   0  0  0  0  0  0  0  0  0  0  0  0
   21.9129  -21.7605  -14.6125 O   0  0  0  0  0  0  0  0  0  0  0  0
   21.2717  -20.3005  -11.2644 C   0  0  0  0  0  0  0  0  0  0  0  0
   19.8224  -20.3727  -11.6959 C   0  0  1  0  0  0  0  0  0  0  0  0
   19.2608  -19.1020  -11.6844 O   0  0  0  0  0  0  0  0  0  0  0  0
   19.7651  -21.0048  -13.0634 C   0  0  2  0  0  0  0  0  0  0  0  0
   20.3651  -20.1680  -14.0801 N   0  0  0  0  0  0  0  0  0  0  0  0
   18.3792  -21.3267  -13.4408 C   0  0  0  0  0  0  0  0  0  0  0  0
   17.6449  -22.2322  -12.7113 O   0  0  0  0  0  0  0  0  0  0  0  0
   17.8143  -20.7929  -14.4355 O   0  0  0  0  0  0  0  0  0  0  0  0
  2  4  1  0
  2  1  1  0
  3  2  2  0
  5  4  1  0
  6  5  1  0
  6  7  1  6
  8  6  1  0
  8 15  1  0
  9  8  2  0
 10 11  1  0
 11 12  2  0
 13 11  1  0
 14 13  1  6
 14 15  1  0
 16 14  1  0
 17 16  2  0
 19 18  1  6
 19 21  1  0
 20 19  1  0
 21 22  1  6
 21 23  1  0
 22 16  1  0
 23 24  1  0
 25 23  2  0
M  END
$$$$
