KMW.pdb
     RDKit          3D

 32 33  0  0  1  0  0  0  0  0999 V2000
   30.0745  -23.2754  -17.3326 N   0  0  0  0  0  0  0  0  0  0  0  0
   28.8477  -22.4873  -17.4412 C   0  0  1  0  0  0  0  0  0  0  0  0
   27.6836  -23.3365  -17.8287 C   0  0  0  0  0  0  0  0  0  0  0  0
   28.0080  -24.3247  -18.9212 C   0  0  0  0  0  0  0  0  0  0  0  0
   28.0121  -25.7593  -18.5059 C   0  0  0  0  0  0  0  0  0  0  0  0
   28.3302  -26.7571  -19.5605 C   0  0  0  0  0  0  0  0  0  0  0  0
   28.5512  -28.0410  -18.9004 N   0  0  0  0  0  0  0  0  0  0  0  0
   28.6523  -21.8855  -16.0807 C   0  0  0  0  0  0  0  0  0  0  0  0
   29.0997  -22.4912  -15.0645 O   0  0  0  0  0  0  0  0  0  0  0  0
   28.5206  -15.9674  -16.7374 C   0  0  0  0  0  0  0  0  0  0  0  0
   26.9066  -16.2644  -15.9747 S   0  0  0  0  0  0  0  0  0  0  0  0
   26.7680  -18.0452  -15.6363 C   0  0  0  0  0  0  0  0  0  0  0  0
   27.8796  -18.5294  -14.7301 C   0  0  0  0  0  0  0  0  0  0  0  0
   27.8028  -20.0155  -14.5840 C   0  0  2  0  0  0  0  0  0  0  0  0
   27.9753  -20.6602  -15.8826 N   0  0  0  0  0  0  0  0  0  0  0  0
   26.6563  -20.5558  -13.8784 C   0  0  0  0  0  0  0  0  0  0  0  0
   25.5862  -20.8103  -14.5409 O   0  0  0  0  0  0  0  0  0  0  0  0
   26.6046  -20.8368  -12.5107 N   0  0  0  0  0  0  0  0  0  0  0  0
   25.4007  -21.4527  -11.9372 C   0  0  1  0  0  0  0  0  0  0  0  0
   25.7396  -22.0068  -10.5775 C   0  0  0  0  0  0  0  0  0  0  0  0
   26.0983  -20.9951   -9.5660 C   0  0  0  0  0  0  0  0  0  0  0  0
   25.4492  -19.9140   -9.0433 C   0  0  0  0  0  0  0  0  0  0  0  0
   26.2128  -19.3615   -8.0684 N   0  0  0  0  0  0  0  0  0  0  0  0
   27.3764  -20.0545   -7.9220 C   0  0  0  0  0  0  0  0  0  0  0  0
   28.4814  -19.8934   -7.1091 C   0  0  0  0  0  0  0  0  0  0  0  0
   29.5443  -20.7842   -7.2505 C   0  0  0  0  0  0  0  0  0  0  0  0
   29.5306  -21.8179   -8.1644 C   0  0  0  0  0  0  0  0  0  0  0  0
   28.3974  -21.9300   -8.9487 C   0  0  0  0  0  0  0  0  0  0  0  0
   27.3139  -21.0719   -8.8511 C   0  0  0  0  0  0  0  0  0  0  0  0
   24.4416  -20.3385  -11.7068 C   0  0  0  0  0  0  0  0  0  0  0  0
   24.8420  -19.0365  -11.7963 O   0  0  0  0  0  0  0  0  0  0  0  0
   23.2242  -20.5835  -11.4197 O   0  0  0  0  0  0  0  0  0  0  0  0
  2  1  1  1
  3  2  1  0
  4  3  1  0
  5  4  1  0
  5  6  1  0
  7  6  1  0
  8  2  1  0
  9  8  2  0
 10 11  1  0
 12 11  1  0
 12 13  1  0
 14 13  1  6
 14 15  1  0
 15  8  1  0
 16 17  2  0
 16 14  1  0
 18 16  1  0
 19 20  1  1
 19 18  1  0
 21 20  1  0
 21 22  2  0
 23 22  1  0
 24 23  1  0
 25 24  2  0
 26 25  1  0
 27 26  2  0
 27 28  1  0
 28 29  2  0
 29 24  1  0
 29 21  1  0
 30 19  1  0
 31 30  1  0
 32 30  2  0
M  END
$$$$
