KMW.pdb
     RDKit          3D

 32 33  0  0  1  0  0  0  0  0999 V2000
   27.3047  -17.5079  -13.8408 N   0  0  0  0  0  0  0  0  0  0  0  0
   26.3650  -18.5350  -14.2879 C   0  0  1  0  0  0  0  0  0  0  0  0
   26.1513  -18.4769  -15.7635 C   0  0  0  0  0  0  0  0  0  0  0  0
   25.2541  -17.3413  -16.1886 C   0  0  0  0  0  0  0  0  0  0  0  0
   23.7952  -17.5550  -15.9513 C   0  0  0  0  0  0  0  0  0  0  0  0
   22.8788  -16.4887  -16.4332 C   0  0  0  0  0  0  0  0  0  0  0  0
   21.5121  -16.9256  -16.1606 N   0  0  0  0  0  0  0  0  0  0  0  0
   26.9908  -19.8363  -13.8802 C   0  0  0  0  0  0  0  0  0  0  0  0
   26.5205  -20.9195  -14.3333 O   0  0  0  0  0  0  0  0  0  0  0  0
   31.7728  -21.7738   -8.7082 C   0  0  0  0  0  0  0  0  0  0  0  0
   32.0894  -22.0250  -10.4722 S   0  0  0  0  0  0  0  0  0  0  0  0
   30.4863  -22.2394  -11.3023 C   0  0  0  0  0  0  0  0  0  0  0  0
   29.8952  -20.9119  -11.7262 C   0  0  0  0  0  0  0  0  0  0  0  0
   28.5550  -21.1312  -12.3521 C   0  0  2  0  0  0  0  0  0  0  0  0
   28.0915  -19.9053  -12.9955 N   0  0  0  0  0  0  0  0  0  0  0  0
   27.5186  -21.7101  -11.5185 C   0  0  0  0  0  0  0  0  0  0  0  0
   27.4467  -22.9884  -11.4197 O   0  0  0  0  0  0  0  0  0  0  0  0
   26.5676  -20.9908  -10.7902 N   0  0  0  0  0  0  0  0  0  0  0  0
   25.7652  -21.6716   -9.7654 C   0  0  1  0  0  0  0  0  0  0  0  0
   26.5295  -21.6652   -8.4668 C   0  0  0  0  0  0  0  0  0  0  0  0
   26.8488  -20.3250   -7.9402 C   0  0  0  0  0  0  0  0  0  0  0  0
   26.6052  -19.0566   -8.3820 C   0  0  0  0  0  0  0  0  0  0  0  0
   27.0531  -18.1679   -7.4609 N   0  0  0  0  0  0  0  0  0  0  0  0
   27.6006  -18.8178   -6.3962 C   0  0  0  0  0  0  0  0  0  0  0  0
   28.2095  -18.3889   -5.2329 C   0  0  0  0  0  0  0  0  0  0  0  0
   28.7076  -19.3481   -4.3526 C   0  0  0  0  0  0  0  0  0  0  0  0
   28.6108  -20.7026   -4.5973 C   0  0  0  0  0  0  0  0  0  0  0  0
   27.9898  -21.0714   -5.7764 C   0  0  0  0  0  0  0  0  0  0  0  0
   27.4788  -20.1605   -6.6870 C   0  0  0  0  0  0  0  0  0  0  0  0
   24.5672  -20.8159   -9.5489 C   0  0  0  0  0  0  0  0  0  0  0  0
   24.3468  -19.7080  -10.3155 O   0  0  0  0  0  0  0  0  0  0  0  0
   23.7233  -21.1048   -8.6384 O   0  0  0  0  0  0  0  0  0  0  0  0
  2  1  1  6
  3  2  1  0
  4  3  1  0
  5  4  1  0
  5  6  1  0
  7  6  1  0
  8  2  1  0
  9  8  2  0
 10 11  1  0
 12 11  1  0
 12 13  1  0
 14 13  1  1
 14 15  1  0
 15  8  1  0
 16 17  2  0
 16 14  1  0
 18 16  1  0
 19 20  1  1
 19 18  1  0
 21 20  1  0
 21 22  2  0
 23 22  1  0
 24 23  1  0
 25 24  2  0
 26 25  1  0
 27 26  2  0
 27 28  1  0
 28 29  2  0
 29 24  1  0
 29 21  1  0
 30 19  1  0
 31 30  1  0
 32 30  2  0
M  END
$$$$
