KMW.pdb
     RDKit          3D

 32 33  0  0  1  0  0  0  0  0999 V2000
   27.9174  -19.6526  -13.7090 N   0  0  0  0  0  0  0  0  0  0  0  0
   26.9467  -20.7281  -13.9067 C   0  0  1  0  0  0  0  0  0  0  0  0
   27.4181  -21.7110  -14.9256 C   0  0  0  0  0  0  0  0  0  0  0  0
   28.6577  -21.2590  -15.6566 C   0  0  0  0  0  0  0  0  0  0  0  0
   28.4430  -20.8136  -17.0658 C   0  0  0  0  0  0  0  0  0  0  0  0
   29.6533  -20.4117  -17.8290 C   0  0  0  0  0  0  0  0  0  0  0  0
   29.2087  -19.8961  -19.1211 N   0  0  0  0  0  0  0  0  0  0  0  0
   26.8006  -21.3706  -12.5587 C   0  0  0  0  0  0  0  0  0  0  0  0
   26.2455  -22.5035  -12.4685 O   0  0  0  0  0  0  0  0  0  0  0  0
   27.4520  -20.7274   -4.7102 C   0  0  0  0  0  0  0  0  0  0  0  0
   28.2634  -20.4097   -6.2963 S   0  0  0  0  0  0  0  0  0  0  0  0
   27.0855  -20.8214   -7.6185 C   0  0  0  0  0  0  0  0  0  0  0  0
   27.7010  -20.6432   -8.9899 C   0  0  0  0  0  0  0  0  0  0  0  0
   26.7092  -21.0218  -10.0430 C   0  0  2  0  0  0  0  0  0  0  0  0
   27.2552  -20.7540  -11.3703 N   0  0  0  0  0  0  0  0  0  0  0  0
   25.3653  -20.4918   -9.9120 C   0  0  0  0  0  0  0  0  0  0  0  0
   25.2138  -19.2864   -9.4961 O   0  0  0  0  0  0  0  0  0  0  0  0
   24.1882  -21.1847  -10.2063 N   0  0  0  0  0  0  0  0  0  0  0  0
   23.0379  -20.4639  -10.7675 C   0  0  1  0  0  0  0  0  0  0  0  0
   23.4199  -19.9171  -12.1187 C   0  0  0  0  0  0  0  0  0  0  0  0
   22.3178  -19.2842  -12.8671 C   0  0  0  0  0  0  0  0  0  0  0  0
   21.1917  -18.6087  -12.4943 C   0  0  0  0  0  0  0  0  0  0  0  0
   20.5505  -18.1613  -13.6023 N   0  0  0  0  0  0  0  0  0  0  0  0
   21.2276  -18.5260  -14.7266 C   0  0  0  0  0  0  0  0  0  0  0  0
   20.9917  -18.3496  -16.0761 C   0  0  0  0  0  0  0  0  0  0  0  0
   21.8927  -18.9025  -16.9847 C   0  0  0  0  0  0  0  0  0  0  0  0
   23.0079  -19.6112  -16.5872 C   0  0  0  0  0  0  0  0  0  0  0  0
   23.1924  -19.7533  -15.2243 C   0  0  0  0  0  0  0  0  0  0  0  0
   22.3280  -19.2264  -14.2782 C   0  0  0  0  0  0  0  0  0  0  0  0
   21.9915  -21.4927  -11.0141 C   0  0  0  0  0  0  0  0  0  0  0  0
   22.3284  -22.7897  -11.2749 O   0  0  0  0  0  0  0  0  0  0  0  0
   20.7568  -21.1774  -10.9864 O   0  0  0  0  0  0  0  0  0  0  0  0
  2  1  1  1
  3  2  1  0
  4  3  1  0
  5  4  1  0
  5  6  1  0
  7  6  1  0
  8  2  1  0
  9  8  2  0
 10 11  1  0
 12 11  1  0
 12 13  1  0
 14 13  1  1
 14 15  1  0
 15  8  1  0
 16 17  2  0
 16 14  1  0
 18 16  1  0
 19 20  1  6
 19 18  1  0
 21 20  1  0
 21 22  2  0
 23 22  1  0
 24 23  1  0
 25 24  2  0
 26 25  1  0
 27 26  2  0
 27 28  1  0
 28 29  2  0
 29 24  1  0
 29 21  1  0
 30 19  1  0
 31 30  1  0
 32 30  2  0
M  END
$$$$
