KMW.pdb
     RDKit          3D

 32 33  0  0  1  0  0  0  0  0999 V2000
   25.5725  -17.2887  -16.6937 N   0  0  0  0  0  0  0  0  0  0  0  0
   26.4407  -17.9137  -15.6969 C   0  0  1  0  0  0  0  0  0  0  0  0
   27.3702  -16.9220  -15.0813 C   0  0  0  0  0  0  0  0  0  0  0  0
   28.5458  -16.5837  -15.9638 C   0  0  0  0  0  0  0  0  0  0  0  0
   28.2045  -16.2087  -17.3686 C   0  0  0  0  0  0  0  0  0  0  0  0
   29.3204  -15.7114  -18.2150 C   0  0  0  0  0  0  0  0  0  0  0  0
   29.8633  -16.8542  -18.9446 N   0  0  0  0  0  0  0  0  0  0  0  0
   25.5051  -18.4890  -14.6747 C   0  0  0  0  0  0  0  0  0  0  0  0
   24.7036  -17.7225  -14.0665 O   0  0  0  0  0  0  0  0  0  0  0  0
   20.7222  -20.6723  -11.4150 C   0  0  0  0  0  0  0  0  0  0  0  0
   21.1803  -21.6530  -12.8653 S   0  0  0  0  0  0  0  0  0  0  0  0
   22.9386  -22.0888  -12.7121 C   0  0  0  0  0  0  0  0  0  0  0  0
   23.7620  -21.4889  -13.8316 C   0  0  0  0  0  0  0  0  0  0  0  0
   24.6845  -20.4490  -13.2806 C   0  0  2  0  0  0  0  0  0  0  0  0
   25.4857  -19.8656  -14.3526 N   0  0  0  0  0  0  0  0  0  0  0  0
   25.5139  -20.8268  -12.1520 C   0  0  0  0  0  0  0  0  0  0  0  0
   26.6383  -21.4047  -12.3771 O   0  0  0  0  0  0  0  0  0  0  0  0
   25.1998  -20.6129  -10.8075 N   0  0  0  0  0  0  0  0  0  0  0  0
   26.0751  -21.1531   -9.7587 C   0  0  1  0  0  0  0  0  0  0  0  0
   27.2884  -20.2681   -9.6356 C   0  0  0  0  0  0  0  0  0  0  0  0
   28.2889  -20.7188   -8.6501 C   0  0  0  0  0  0  0  0  0  0  0  0
   29.3000  -21.6353   -8.6857 C   0  0  0  0  0  0  0  0  0  0  0  0
   29.9789  -21.5988   -7.5124 N   0  0  0  0  0  0  0  0  0  0  0  0
   29.4401  -20.6675   -6.6770 C   0  0  0  0  0  0  0  0  0  0  0  0
   29.7326  -20.2658   -5.3882 C   0  0  0  0  0  0  0  0  0  0  0  0
   28.9325  -19.2870   -4.8009 C   0  0  0  0  0  0  0  0  0  0  0  0
   27.8681  -18.7047   -5.4582 C   0  0  0  0  0  0  0  0  0  0  0  0
   27.6252  -19.1457   -6.7459 C   0  0  0  0  0  0  0  0  0  0  0  0
   28.3870  -20.1162   -7.3766 C   0  0  0  0  0  0  0  0  0  0  0  0
   25.3221  -21.0091   -8.4834 C   0  0  0  0  0  0  0  0  0  0  0  0
   25.6062  -21.7982   -7.4063 O   0  0  0  0  0  0  0  0  0  0  0  0
   24.3940  -20.1420   -8.3760 O   0  0  0  0  0  0  0  0  0  0  0  0
  2  1  1  6
  3  2  1  0
  4  3  1  0
  5  4  1  0
  5  6  1  0
  7  6  1  0
  8  2  1  0
  9  8  2  0
 10 11  1  0
 12 11  1  0
 12 13  1  0
 14 13  1  6
 14 15  1  0
 15  8  1  0
 16 17  2  0
 16 14  1  0
 18 16  1  0
 19 20  1  1
 19 18  1  0
 21 20  1  0
 21 22  2  0
 23 22  1  0
 24 23  1  0
 25 24  2  0
 26 25  1  0
 27 26  2  0
 27 28  1  0
 28 29  2  0
 29 24  1  0
 29 21  1  0
 30 19  1  0
 31 30  1  0
 32 30  2  0
M  END
$$$$
