KMW.pdb
     RDKit          3D

 32 33  0  0  1  0  0  0  0  0999 V2000
   26.1353  -19.4831  -21.5675 N   0  0  0  0  0  0  0  0  0  0  0  0
   26.1099  -19.8424  -20.1504 C   0  0  1  0  0  0  0  0  0  0  0  0
   26.5909  -18.7205  -19.2922 C   0  0  0  0  0  0  0  0  0  0  0  0
   28.0861  -18.7253  -19.0931 C   0  0  0  0  0  0  0  0  0  0  0  0
   28.8819  -19.2706  -20.2332 C   0  0  0  0  0  0  0  0  0  0  0  0
   30.3555  -19.3297  -20.0488 C   0  0  0  0  0  0  0  0  0  0  0  0
   30.9391  -19.7885  -21.3065 N   0  0  0  0  0  0  0  0  0  0  0  0
   24.6752  -20.1720  -19.8601 C   0  0  0  0  0  0  0  0  0  0  0  0
   23.7612  -19.4458  -20.3469 O   0  0  0  0  0  0  0  0  0  0  0  0
   18.9770  -25.2790  -19.1703 C   0  0  0  0  0  0  0  0  0  0  0  0
   20.7301  -25.0012  -19.5232 S   0  0  0  0  0  0  0  0  0  0  0  0
   21.1532  -23.3237  -18.9645 C   0  0  0  0  0  0  0  0  0  0  0  0
   22.6076  -22.9976  -19.2287 C   0  0  0  0  0  0  0  0  0  0  0  0
   22.9153  -21.6199  -18.7355 C   0  0  2  0  0  0  0  0  0  0  0  0
   24.2966  -21.2676  -19.0505 N   0  0  0  0  0  0  0  0  0  0  0  0
   22.6012  -21.3239  -17.3506 C   0  0  0  0  0  0  0  0  0  0  0  0
   23.3603  -21.7978  -16.4296 O   0  0  0  0  0  0  0  0  0  0  0  0
   21.5251  -20.5487  -16.9110 N   0  0  0  0  0  0  0  0  0  0  0  0
   21.3860  -20.2367  -15.4823 C   0  0  1  0  0  0  0  0  0  0  0  0
   21.7856  -18.8012  -15.2579 C   0  0  0  0  0  0  0  0  0  0  0  0
   21.1801  -17.8342  -16.1926 C   0  0  0  0  0  0  0  0  0  0  0  0
   19.9307  -17.2981  -16.3153 C   0  0  0  0  0  0  0  0  0  0  0  0
   19.9331  -16.3813  -17.3145 N   0  0  0  0  0  0  0  0  0  0  0  0
   21.1712  -16.2878  -17.8747 C   0  0  0  0  0  0  0  0  0  0  0  0
   21.6875  -15.5440  -18.9179 C   0  0  0  0  0  0  0  0  0  0  0  0
   23.0250  -15.7277  -19.2650 C   0  0  0  0  0  0  0  0  0  0  0  0
   23.8484  -16.6168  -18.6051 C   0  0  0  0  0  0  0  0  0  0  0  0
   23.2763  -17.3315  -17.5689 C   0  0  0  0  0  0  0  0  0  0  0  0
   21.9530  -17.1896  -17.1835 C   0  0  0  0  0  0  0  0  0  0  0  0
   19.9298  -20.3158  -15.1865 C   0  0  0  0  0  0  0  0  0  0  0  0
   19.4677  -20.2384  -13.9042 O   0  0  0  0  0  0  0  0  0  0  0  0
   19.0859  -20.4587  -16.1310 O   0  0  0  0  0  0  0  0  0  0  0  0
  2  1  1  6
  3  2  1  0
  4  3  1  0
  5  4  1  0
  5  6  1  0
  7  6  1  0
  8  2  1  0
  9  8  2  0
 10 11  1  0
 12 11  1  0
 12 13  1  0
 14 13  1  1
 14 15  1  0
 15  8  1  0
 16 17  2  0
 16 14  1  0
 18 16  1  0
 19 20  1  6
 19 18  1  0
 21 20  1  0
 21 22  2  0
 23 22  1  0
 24 23  1  0
 25 24  2  0
 26 25  1  0
 27 26  2  0
 27 28  1  0
 28 29  2  0
 29 24  1  0
 29 21  1  0
 30 19  1  0
 31 30  1  0
 32 30  2  0
M  END
$$$$
