KMW.pdb
     RDKit          3D

 32 33  0  0  1  0  0  0  0  0999 V2000
   26.0809  -18.5038  -15.8301 N   0  0  0  0  0  0  0  0  0  0  0  0
   25.2579  -19.7123  -15.8355 C   0  0  1  0  0  0  0  0  0  0  0  0
   24.9470  -20.1571  -17.2254 C   0  0  0  0  0  0  0  0  0  0  0  0
   24.4366  -19.0427  -18.1045 C   0  0  0  0  0  0  0  0  0  0  0  0
   24.0491  -19.4462  -19.4893 C   0  0  0  0  0  0  0  0  0  0  0  0
   23.6710  -18.3515  -20.4208 C   0  0  0  0  0  0  0  0  0  0  0  0
   22.6412  -17.5504  -19.7646 N   0  0  0  0  0  0  0  0  0  0  0  0
   26.0729  -20.7392  -15.1058 C   0  0  0  0  0  0  0  0  0  0  0  0
   26.3328  -21.8405  -15.6708 O   0  0  0  0  0  0  0  0  0  0  0  0
   30.5389  -19.7341  -15.6484 C   0  0  0  0  0  0  0  0  0  0  0  0
   30.6052  -19.3757  -13.8758 S   0  0  0  0  0  0  0  0  0  0  0  0
   28.9711  -19.7452  -13.1699 C   0  0  0  0  0  0  0  0  0  0  0  0
   28.7496  -21.2356  -13.0249 C   0  0  0  0  0  0  0  0  0  0  0  0
   27.2839  -21.5313  -13.0166 C   0  0  2  0  0  0  0  0  0  0  0  0
   26.5623  -20.5296  -13.7960 N   0  0  0  0  0  0  0  0  0  0  0  0
   26.6558  -21.7444  -11.7265 C   0  0  0  0  0  0  0  0  0  0  0  0
   27.2612  -22.4692  -10.8564 O   0  0  0  0  0  0  0  0  0  0  0  0
   25.4239  -21.2195  -11.3279 N   0  0  0  0  0  0  0  0  0  0  0  0
   25.0467  -21.2404   -9.9084 C   0  0  1  0  0  0  0  0  0  0  0  0
   26.0187  -20.3873   -9.1351 C   0  0  0  0  0  0  0  0  0  0  0  0
   26.1118  -20.6995   -7.6966 C   0  0  0  0  0  0  0  0  0  0  0  0
   25.4509  -21.5677   -6.8764 C   0  0  0  0  0  0  0  0  0  0  0  0
   25.9917  -21.5096   -5.6342 N   0  0  0  0  0  0  0  0  0  0  0  0
   27.0138  -20.6098   -5.5992 C   0  0  0  0  0  0  0  0  0  0  0  0
   27.8534  -20.1653   -4.5965 C   0  0  0  0  0  0  0  0  0  0  0  0
   28.7890  -19.1787   -4.9038 C   0  0  0  0  0  0  0  0  0  0  0  0
   28.9095  -18.6367   -6.1671 C   0  0  0  0  0  0  0  0  0  0  0  0
   28.0436  -19.1224   -7.1294 C   0  0  0  0  0  0  0  0  0  0  0  0
   27.0944  -20.1000   -6.8783 C   0  0  0  0  0  0  0  0  0  0  0  0
   23.7297  -20.5527   -9.8251 C   0  0  0  0  0  0  0  0  0  0  0  0
   23.1991  -19.9163  -10.9101 O   0  0  0  0  0  0  0  0  0  0  0  0
   23.0726  -20.5461   -8.7330 O   0  0  0  0  0  0  0  0  0  0  0  0
  2  1  1  6
  3  2  1  0
  4  3  1  0
  5  4  1  0
  5  6  1  0
  7  6  1  0
  8  2  1  0
  9  8  2  0
 10 11  1  0
 12 11  1  0
 12 13  1  0
 14 13  1  1
 14 15  1  0
 15  8  1  0
 16 17  2  0
 16 14  1  0
 18 16  1  0
 19 20  1  1
 19 18  1  0
 21 20  1  0
 21 22  2  0
 23 22  1  0
 24 23  1  0
 25 24  2  0
 26 25  1  0
 27 26  2  0
 27 28  1  0
 28 29  2  0
 29 24  1  0
 29 21  1  0
 30 19  1  0
 31 30  1  0
 32 30  2  0
M  END
$$$$
