KMW.pdb
     RDKit          3D

 32 33  0  0  1  0  0  0  0  0999 V2000
   26.1922  -19.1052   -9.6520 N   0  0  0  0  0  0  0  0  0  0  0  0
   26.1607  -20.5666   -9.6875 C   0  0  1  0  0  0  0  0  0  0  0  0
   25.9720  -21.1436   -8.3244 C   0  0  0  0  0  0  0  0  0  0  0  0
   26.1196  -20.1237   -7.2230 C   0  0  0  0  0  0  0  0  0  0  0  0
   27.3657  -20.2379   -6.4077 C   0  0  0  0  0  0  0  0  0  0  0  0
   27.5618  -19.2182   -5.3444 C   0  0  0  0  0  0  0  0  0  0  0  0
   28.8050  -19.5400   -4.6489 N   0  0  0  0  0  0  0  0  0  0  0  0
   25.0085  -20.9075  -10.5861 C   0  0  0  0  0  0  0  0  0  0  0  0
   24.7439  -22.1217  -10.8219 O   0  0  0  0  0  0  0  0  0  0  0  0
   18.6706  -22.3653  -10.2971 C   0  0  0  0  0  0  0  0  0  0  0  0
   19.4040  -20.7992  -10.8307 S   0  0  0  0  0  0  0  0  0  0  0  0
   21.1409  -21.1152  -11.2649 C   0  0  0  0  0  0  0  0  0  0  0  0
   21.8379  -19.8551  -11.7313 C   0  0  0  0  0  0  0  0  0  0  0  0
   23.2078  -20.1888  -12.2291 C   0  0  2  0  0  0  0  0  0  0  0  0
   24.2010  -19.9187  -11.1937 N   0  0  0  0  0  0  0  0  0  0  0  0
   23.6094  -19.6208  -13.5021 C   0  0  0  0  0  0  0  0  0  0  0  0
   23.3340  -18.3902  -13.7444 O   0  0  0  0  0  0  0  0  0  0  0  0
   24.2886  -20.3016  -14.5156 N   0  0  0  0  0  0  0  0  0  0  0  0
   24.6168  -19.6076  -15.7679 C   0  0  1  0  0  0  0  0  0  0  0  0
   26.1155  -19.5126  -15.8919 C   0  0  0  0  0  0  0  0  0  0  0  0
   26.8679  -20.5206  -15.1216 C   0  0  0  0  0  0  0  0  0  0  0  0
   26.8887  -21.8855  -15.1242 C   0  0  0  0  0  0  0  0  0  0  0  0
   27.8372  -22.3205  -14.2582 N   0  0  0  0  0  0  0  0  0  0  0  0
   28.4624  -21.2658  -13.6645 C   0  0  0  0  0  0  0  0  0  0  0  0
   29.4560  -21.1658  -12.7103 C   0  0  0  0  0  0  0  0  0  0  0  0
   29.8428  -19.8954  -12.2863 C   0  0  0  0  0  0  0  0  0  0  0  0
   29.2758  -18.7408  -12.7858 C   0  0  0  0  0  0  0  0  0  0  0  0
   28.2880  -18.9039  -13.7395 C   0  0  0  0  0  0  0  0  0  0  0  0
   27.8643  -20.1419  -14.1951 C   0  0  0  0  0  0  0  0  0  0  0  0
   24.1633  -20.5059  -16.8642 C   0  0  0  0  0  0  0  0  0  0  0  0
   24.3039  -20.1441  -18.1730 O   0  0  0  0  0  0  0  0  0  0  0  0
   23.6327  -21.6336  -16.5970 O   0  0  0  0  0  0  0  0  0  0  0  0
  2  1  1  1
  3  2  1  0
  4  3  1  0
  5  4  1  0
  5  6  1  0
  7  6  1  0
  8  2  1  0
  9  8  2  0
 10 11  1  0
 12 11  1  0
 12 13  1  0
 14 13  1  1
 14 15  1  0
 15  8  1  0
 16 17  2  0
 16 14  1  0
 18 16  1  0
 19 20  1  6
 19 18  1  0
 21 20  1  0
 21 22  2  0
 23 22  1  0
 24 23  1  0
 25 24  2  0
 26 25  1  0
 27 26  2  0
 27 28  1  0
 28 29  2  0
 29 24  1  0
 29 21  1  0
 30 19  1  0
 31 30  1  0
 32 30  2  0
M  END
$$$$
