KMW.pdb
     RDKit          3D

 32 33  0  0  1  0  0  0  0  0999 V2000
   27.9260  -21.7063  -15.4669 N   0  0  0  0  0  0  0  0  0  0  0  0
   27.8220  -20.5729  -14.5490 C   0  0  1  0  0  0  0  0  0  0  0  0
   27.2300  -19.3782  -15.2188 C   0  0  0  0  0  0  0  0  0  0  0  0
   28.2259  -18.6119  -16.0532 C   0  0  0  0  0  0  0  0  0  0  0  0
   28.3226  -19.0342  -17.4825 C   0  0  0  0  0  0  0  0  0  0  0  0
   29.3536  -18.3545  -18.3095 C   0  0  0  0  0  0  0  0  0  0  0  0
   29.3405  -18.9777  -19.6303 N   0  0  0  0  0  0  0  0  0  0  0  0
   26.9467  -21.0587  -13.4314 C   0  0  0  0  0  0  0  0  0  0  0  0
   26.0538  -21.9213  -13.6730 O   0  0  0  0  0  0  0  0  0  0  0  0
   28.1176  -20.4067   -7.0481 C   0  0  0  0  0  0  0  0  0  0  0  0
   26.3159  -20.2484   -6.9873 S   0  0  0  0  0  0  0  0  0  0  0  0
   25.6611  -20.6879   -8.6253 C   0  0  0  0  0  0  0  0  0  0  0  0
   26.6800  -20.4434   -9.7178 C   0  0  0  0  0  0  0  0  0  0  0  0
   26.1123  -20.8504  -11.0399 C   0  0  2  0  0  0  0  0  0  0  0  0
   27.0733  -20.5830  -12.1060 N   0  0  0  0  0  0  0  0  0  0  0  0
   24.7958  -20.3462  -11.3819 C   0  0  0  0  0  0  0  0  0  0  0  0
   24.6184  -19.0762  -11.4489 O   0  0  0  0  0  0  0  0  0  0  0  0
   23.6730  -21.1312  -11.6562 N   0  0  0  0  0  0  0  0  0  0  0  0
   22.5608  -20.5678  -12.4329 C   0  0  1  0  0  0  0  0  0  0  0  0
   23.0456  -20.2681  -13.8278 C   0  0  0  0  0  0  0  0  0  0  0  0
   22.0074  -19.7810  -14.7552 C   0  0  0  0  0  0  0  0  0  0  0  0
   21.1384  -18.7286  -14.7279 C   0  0  0  0  0  0  0  0  0  0  0  0
   20.4426  -18.6922  -15.8913 N   0  0  0  0  0  0  0  0  0  0  0  0
   20.8278  -19.7097  -16.7109 C   0  0  0  0  0  0  0  0  0  0  0  0
   20.4210  -20.1255  -17.9637 C   0  0  0  0  0  0  0  0  0  0  0  0
   21.0142  -21.2624  -18.5101 C   0  0  0  0  0  0  0  0  0  0  0  0
   21.9908  -21.9806  -17.8509 C   0  0  0  0  0  0  0  0  0  0  0  0
   22.3580  -21.5155  -16.6017 C   0  0  0  0  0  0  0  0  0  0  0  0
   21.8003  -20.3930  -16.0111 C   0  0  0  0  0  0  0  0  0  0  0  0
   21.5594  -21.6606  -12.5647 C   0  0  0  0  0  0  0  0  0  0  0  0
   21.9505  -22.9654  -12.6552 O   0  0  0  0  0  0  0  0  0  0  0  0
   20.3133  -21.3941  -12.5962 O   0  0  0  0  0  0  0  0  0  0  0  0
  2  1  1  6
  3  2  1  0
  4  3  1  0
  5  4  1  0
  5  6  1  0
  7  6  1  0
  8  2  1  0
  9  8  2  0
 10 11  1  0
 12 11  1  0
 12 13  1  0
 14 13  1  1
 14 15  1  0
 15  8  1  0
 16 17  2  0
 16 14  1  0
 18 16  1  0
 19 20  1  6
 19 18  1  0
 21 20  1  0
 21 22  2  0
 23 22  1  0
 24 23  1  0
 25 24  2  0
 26 25  1  0
 27 26  2  0
 27 28  1  0
 28 29  2  0
 29 24  1  0
 29 21  1  0
 30 19  1  0
 31 30  1  0
 32 30  2  0
M  END
$$$$
