KMW.pdb
     RDKit          3D

 32 33  0  0  1  0  0  0  0  0999 V2000
   24.2950  -36.6826   -5.2712 N   0  0  0  0  0  0  0  0  0  0  0  0
   25.2921  -35.7142   -4.8173 C   0  0  1  0  0  0  0  0  0  0  0  0
   25.2690  -34.4744   -5.6474 C   0  0  0  0  0  0  0  0  0  0  0  0
   25.8870  -34.6617   -7.0105 C   0  0  0  0  0  0  0  0  0  0  0  0
   25.8737  -33.4552   -7.8905 C   0  0  0  0  0  0  0  0  0  0  0  0
   26.3514  -33.6428   -9.2854 C   0  0  0  0  0  0  0  0  0  0  0  0
   26.0886  -32.4034  -10.0119 N   0  0  0  0  0  0  0  0  0  0  0  0
   24.9263  -35.4208   -3.3921 C   0  0  0  0  0  0  0  0  0  0  0  0
   23.7255  -35.1478   -3.1035 O   0  0  0  0  0  0  0  0  0  0  0  0
   27.0544  -35.2505    4.2087 C   0  0  0  0  0  0  0  0  0  0  0  0
   27.5310  -35.8025    2.5524 S   0  0  0  0  0  0  0  0  0  0  0  0
   26.3529  -35.0894    1.3656 C   0  0  0  0  0  0  0  0  0  0  0  0
   26.6508  -35.5320   -0.0510 C   0  0  0  0  0  0  0  0  0  0  0  0
   25.6004  -35.0071   -0.9769 C   0  0  2  0  0  0  0  0  0  0  0  0
   25.8783  -35.4289   -2.3467 N   0  0  0  0  0  0  0  0  0  0  0  0
   25.3079  -33.5877   -0.9143 C   0  0  0  0  0  0  0  0  0  0  0  0
   26.0568  -32.7728   -1.5655 O   0  0  0  0  0  0  0  0  0  0  0  0
   24.2590  -33.0069   -0.1969 N   0  0  0  0  0  0  0  0  0  0  0  0
   24.0281  -31.5589   -0.2855 C   0  0  1  0  0  0  0  0  0  0  0  0
   22.5431  -31.3051   -0.3162 C   0  0  0  0  0  0  0  0  0  0  0  0
   22.1576  -29.8932   -0.4984 C   0  0  0  0  0  0  0  0  0  0  0  0
   21.9961  -29.0944   -1.5935 C   0  0  0  0  0  0  0  0  0  0  0  0
   21.5463  -27.8779   -1.1979 N   0  0  0  0  0  0  0  0  0  0  0  0
   21.4006  -27.8390    0.1559 C   0  0  0  0  0  0  0  0  0  0  0  0
   21.0101  -26.8529    1.0408 C   0  0  0  0  0  0  0  0  0  0  0  0
   21.0118  -27.1461    2.4036 C   0  0  0  0  0  0  0  0  0  0  0  0
   21.3826  -28.3801    2.8975 C   0  0  0  0  0  0  0  0  0  0  0  0
   21.7618  -29.3271    1.9641 C   0  0  0  0  0  0  0  0  0  0  0  0
   21.7803  -29.0886    0.5993 C   0  0  0  0  0  0  0  0  0  0  0  0
   24.5230  -30.9868    0.9959 C   0  0  0  0  0  0  0  0  0  0  0  0
   25.0838  -29.7429    1.0404 O   0  0  0  0  0  0  0  0  0  0  0  0
   24.4313  -31.6532    2.0786 O   0  0  0  0  0  0  0  0  0  0  0  0
  2  1  1  6
  3  2  1  0
  4  3  1  0
  5  4  1  0
  5  6  1  0
  7  6  1  0
  8  2  1  0
  9  8  2  0
 10 11  1  0
 12 11  1  0
 12 13  1  0
 14 13  1  1
 14 15  1  0
 15  8  1  0
 16 17  2  0
 16 14  1  0
 18 16  1  0
 19 20  1  1
 19 18  1  0
 21 20  1  0
 21 22  2  0
 23 22  1  0
 24 23  1  0
 25 24  2  0
 26 25  1  0
 27 26  2  0
 27 28  1  0
 28 29  2  0
 29 24  1  0
 29 21  1  0
 30 19  1  0
 31 30  1  0
 32 30  2  0
M  END
$$$$
