KMW.pdb
     RDKit          3D

 32 33  0  0  1  0  0  0  0  0999 V2000
   27.6236  -21.5909  -15.8688 N   0  0  0  0  0  0  0  0  0  0  0  0
   26.9608  -20.5201  -15.1258 C   0  0  1  0  0  0  0  0  0  0  0  0
   26.1615  -19.6408  -16.0283 C   0  0  0  0  0  0  0  0  0  0  0  0
   27.0095  -18.8709  -17.0098 C   0  0  0  0  0  0  0  0  0  0  0  0
   27.8360  -17.7756  -16.4201 C   0  0  0  0  0  0  0  0  0  0  0  0
   28.5165  -16.8653  -17.3779 C   0  0  0  0  0  0  0  0  0  0  0  0
   29.6361  -17.5983  -17.9630 N   0  0  0  0  0  0  0  0  0  0  0  0
   26.0815  -21.2235  -14.1341 C   0  0  0  0  0  0  0  0  0  0  0  0
   25.2741  -22.1087  -14.5394 O   0  0  0  0  0  0  0  0  0  0  0  0
   26.6530  -18.9919   -7.5676 C   0  0  0  0  0  0  0  0  0  0  0  0
   25.7512  -20.3560   -8.3429 S   0  0  0  0  0  0  0  0  0  0  0  0
   26.6142  -20.7923   -9.8824 C   0  0  0  0  0  0  0  0  0  0  0  0
   25.9675  -21.9764  -10.5686 C   0  0  0  0  0  0  0  0  0  0  0  0
   25.2032  -21.5119  -11.7669 C   0  0  2  0  0  0  0  0  0  0  0  0
   26.1116  -20.9310  -12.7512 N   0  0  0  0  0  0  0  0  0  0  0  0
   24.0610  -20.6486  -11.5335 C   0  0  0  0  0  0  0  0  0  0  0  0
   24.2198  -19.3772  -11.6169 O   0  0  0  0  0  0  0  0  0  0  0  0
   22.7691  -21.0798  -11.2217 N   0  0  0  0  0  0  0  0  0  0  0  0
   21.6935  -20.0949  -11.0465 C   0  0  1  0  0  0  0  0  0  0  0  0
   21.4754  -19.3766  -12.3532 C   0  0  0  0  0  0  0  0  0  0  0  0
   21.1082  -20.2461  -13.4865 C   0  0  0  0  0  0  0  0  0  0  0  0
   20.1630  -21.2151  -13.6629 C   0  0  0  0  0  0  0  0  0  0  0  0
   20.2033  -21.6516  -14.9461 N   0  0  0  0  0  0  0  0  0  0  0  0
   21.1671  -20.9906  -15.6459 C   0  0  0  0  0  0  0  0  0  0  0  0
   21.6230  -21.0764  -16.9470 C   0  0  0  0  0  0  0  0  0  0  0  0
   22.6824  -20.2571  -17.3339 C   0  0  0  0  0  0  0  0  0  0  0  0
   23.2853  -19.3652  -16.4708 C   0  0  0  0  0  0  0  0  0  0  0  0
   22.7850  -19.3226  -15.1825 C   0  0  0  0  0  0  0  0  0  0  0  0
   21.7360  -20.1151  -14.7448 C   0  0  0  0  0  0  0  0  0  0  0  0
   20.4564  -20.8815  -10.7911 C   0  0  0  0  0  0  0  0  0  0  0  0
   19.2837  -20.2621  -10.4675 O   0  0  0  0  0  0  0  0  0  0  0  0
   20.4723  -22.1535  -10.8701 O   0  0  0  0  0  0  0  0  0  0  0  0
  2  1  1  6
  3  2  1  0
  4  3  1  0
  5  4  1  0
  5  6  1  0
  7  6  1  0
  8  2  1  0
  9  8  2  0
 10 11  1  0
 12 11  1  0
 12 13  1  0
 14 13  1  1
 14 15  1  0
 15  8  1  0
 16 17  2  0
 16 14  1  0
 18 16  1  0
 19 20  1  6
 19 18  1  0
 21 20  1  0
 21 22  2  0
 23 22  1  0
 24 23  1  0
 25 24  2  0
 26 25  1  0
 27 26  2  0
 27 28  1  0
 28 29  2  0
 29 24  1  0
 29 21  1  0
 30 19  1  0
 31 30  1  0
 32 30  2  0
M  END
$$$$
