KMW.pdb
     RDKit          3D

 32 33  0  0  1  0  0  0  0  0999 V2000
   28.0522  -21.9155  -17.8511 N   0  0  0  0  0  0  0  0  0  0  0  0
   29.0007  -22.5298  -16.9234 C   0  0  1  0  0  0  0  0  0  0  0  0
   30.4072  -22.3790  -17.3984 C   0  0  0  0  0  0  0  0  0  0  0  0
   30.6662  -23.0695  -18.7141 C   0  0  0  0  0  0  0  0  0  0  0  0
   30.2842  -24.5124  -18.7657 C   0  0  0  0  0  0  0  0  0  0  0  0
   30.5467  -25.2257  -20.0429 C   0  0  0  0  0  0  0  0  0  0  0  0
   31.9860  -25.4576  -20.1305 N   0  0  0  0  0  0  0  0  0  0  0  0
   28.7873  -21.8152  -15.6215 C   0  0  0  0  0  0  0  0  0  0  0  0
   29.5719  -22.0393  -14.6551 O   0  0  0  0  0  0  0  0  0  0  0  0
   28.8108  -15.4504  -16.5582 C   0  0  0  0  0  0  0  0  0  0  0  0
   27.4855  -16.2943  -15.6602 S   0  0  0  0  0  0  0  0  0  0  0  0
   28.0472  -17.9840  -15.2937 C   0  0  0  0  0  0  0  0  0  0  0  0
   27.0021  -18.7657  -14.5269 C   0  0  0  0  0  0  0  0  0  0  0  0
   27.5269  -20.1272  -14.2000 C   0  0  2  0  0  0  0  0  0  0  0  0
   27.7303  -20.8972  -15.4236 N   0  0  0  0  0  0  0  0  0  0  0  0
   26.8014  -20.8992  -13.2090 C   0  0  0  0  0  0  0  0  0  0  0  0
   26.0869  -21.8918  -13.6003 O   0  0  0  0  0  0  0  0  0  0  0  0
   26.8086  -20.6620  -11.8321 N   0  0  0  0  0  0  0  0  0  0  0  0
   26.1062  -21.5835  -10.9292 C   0  0  1  0  0  0  0  0  0  0  0  0
   26.9347  -21.7688   -9.6842 C   0  0  0  0  0  0  0  0  0  0  0  0
   26.8864  -20.6431   -8.7324 C   0  0  0  0  0  0  0  0  0  0  0  0
   26.0169  -19.6085   -8.5401 C   0  0  0  0  0  0  0  0  0  0  0  0
   26.4063  -18.8918   -7.4569 N   0  0  0  0  0  0  0  0  0  0  0  0
   27.5331  -19.4268   -6.9094 C   0  0  0  0  0  0  0  0  0  0  0  0
   28.3305  -19.0698   -5.8396 C   0  0  0  0  0  0  0  0  0  0  0  0
   29.4641  -19.8358   -5.5726 C   0  0  0  0  0  0  0  0  0  0  0  0
   29.8139  -20.9343   -6.3309 C   0  0  0  0  0  0  0  0  0  0  0  0
   28.9769  -21.2439   -7.3870 C   0  0  0  0  0  0  0  0  0  0  0  0
   27.8395  -20.5162   -7.6979 C   0  0  0  0  0  0  0  0  0  0  0  0
   24.8678  -20.8758  -10.5051 C   0  0  0  0  0  0  0  0  0  0  0  0
   23.8884  -21.5269   -9.8119 O   0  0  0  0  0  0  0  0  0  0  0  0
   24.7005  -19.6435  -10.7845 O   0  0  0  0  0  0  0  0  0  0  0  0
  2  1  1  6
  3  2  1  0
  4  3  1  0
  5  4  1  0
  5  6  1  0
  7  6  1  0
  8  2  1  0
  9  8  2  0
 10 11  1  0
 12 11  1  0
 12 13  1  0
 14 13  1  6
 14 15  1  0
 15  8  1  0
 16 17  2  0
 16 14  1  0
 18 16  1  0
 19 20  1  1
 19 18  1  0
 21 20  1  0
 21 22  2  0
 23 22  1  0
 24 23  1  0
 25 24  2  0
 26 25  1  0
 27 26  2  0
 27 28  1  0
 28 29  2  0
 29 24  1  0
 29 21  1  0
 30 19  1  0
 31 30  1  0
 32 30  2  0
M  END
$$$$
