KMW.pdb
     RDKit          3D

 32 33  0  0  1  0  0  0  0  0999 V2000
   28.0311  -18.3350  -16.5708 N   0  0  0  0  0  0  0  0  0  0  0  0
   27.6601  -18.1515  -15.1685 C   0  0  1  0  0  0  0  0  0  0  0  0
   26.3848  -17.3883  -15.0347 C   0  0  0  0  0  0  0  0  0  0  0  0
   25.5828  -17.3453  -16.3114 C   0  0  0  0  0  0  0  0  0  0  0  0
   24.2664  -18.0491  -16.2643 C   0  0  0  0  0  0  0  0  0  0  0  0
   23.4401  -17.9996  -17.4987 C   0  0  0  0  0  0  0  0  0  0  0  0
   22.4351  -16.9559  -17.3148 N   0  0  0  0  0  0  0  0  0  0  0  0
   27.5218  -19.5410  -14.6194 C   0  0  0  0  0  0  0  0  0  0  0  0
   27.2338  -20.4916  -15.4025 O   0  0  0  0  0  0  0  0  0  0  0  0
   30.7357  -21.7278   -9.4347 C   0  0  0  0  0  0  0  0  0  0  0  0
   31.4969  -21.1531  -10.9726 S   0  0  0  0  0  0  0  0  0  0  0  0
   30.1840  -20.9937  -12.2200 C   0  0  0  0  0  0  0  0  0  0  0  0
   28.8152  -21.2464  -11.6252 C   0  0  0  0  0  0  0  0  0  0  0  0
   27.7772  -21.1868  -12.6999 C   0  0  2  0  0  0  0  0  0  0  0  0
   27.6943  -19.8360  -13.2474 N   0  0  0  0  0  0  0  0  0  0  0  0
   26.4604  -21.7057  -12.3819 C   0  0  0  0  0  0  0  0  0  0  0  0
   26.3694  -22.7415  -11.6285 O   0  0  0  0  0  0  0  0  0  0  0  0
   25.2489  -21.1698  -12.8260 N   0  0  0  0  0  0  0  0  0  0  0  0
   24.1495  -20.9636  -11.8738 C   0  0  1  0  0  0  0  0  0  0  0  0
   24.5739  -19.9350  -10.8577 C   0  0  0  0  0  0  0  0  0  0  0  0
   24.4622  -20.3673   -9.4519 C   0  0  0  0  0  0  0  0  0  0  0  0
   23.5567  -21.1269   -8.7690 C   0  0  0  0  0  0  0  0  0  0  0  0
   23.9780  -21.2834   -7.4896 N   0  0  0  0  0  0  0  0  0  0  0  0
   25.1611  -20.6373   -7.2933 C   0  0  0  0  0  0  0  0  0  0  0  0
   25.9781  -20.4662   -6.1929 C   0  0  0  0  0  0  0  0  0  0  0  0
   27.1278  -19.6909   -6.3347 C   0  0  0  0  0  0  0  0  0  0  0  0
   27.4799  -19.0957   -7.5287 C   0  0  0  0  0  0  0  0  0  0  0  0
   26.6246  -19.3039   -8.5950 C   0  0  0  0  0  0  0  0  0  0  0  0
   25.4688  -20.0633   -8.5091 C   0  0  0  0  0  0  0  0  0  0  0  0
   23.0427  -20.3473  -12.6544 C   0  0  0  0  0  0  0  0  0  0  0  0
   23.2372  -19.9277  -13.9389 O   0  0  0  0  0  0  0  0  0  0  0  0
   21.8891  -20.1997  -12.1330 O   0  0  0  0  0  0  0  0  0  0  0  0
  2  1  1  6
  3  2  1  0
  4  3  1  0
  5  4  1  0
  5  6  1  0
  7  6  1  0
  8  2  1  0
  9  8  2  0
 10 11  1  0
 12 11  1  0
 12 13  1  0
 14 13  1  1
 14 15  1  0
 15  8  1  0
 16 17  2  0
 16 14  1  0
 18 16  1  0
 19 20  1  1
 19 18  1  0
 21 20  1  0
 21 22  2  0
 23 22  1  0
 24 23  1  0
 25 24  2  0
 26 25  1  0
 27 26  2  0
 27 28  1  0
 28 29  2  0
 29 24  1  0
 29 21  1  0
 30 19  1  0
 31 30  1  0
 32 30  2  0
M  END
$$$$
