FGQ.pdb
     RDKit          3D

 25 25  0  0  1  0  0  0  0  0999 V2000
   25.2365  -20.5608  -14.7467 N   0  0  0  0  0  0  0  0  0  0  0  0
   25.9749  -20.1757  -13.5595 C   0  0  1  0  0  0  0  0  0  0  0  0
   26.3113  -18.6922  -13.7340 C   0  0  0  0  0  0  0  0  0  0  0  0
   27.1450  -18.5665  -14.9616 C   0  0  0  0  0  0  0  0  0  0  0  0
   26.7618  -17.8538  -16.0695 C   0  0  0  0  0  0  0  0  0  0  0  0
   27.5484  -17.7531  -17.1889 C   0  0  0  0  0  0  0  0  0  0  0  0
   28.7740  -18.3882  -17.2144 C   0  0  0  0  0  0  0  0  0  0  0  0
   29.1884  -19.1052  -16.1329 C   0  0  0  0  0  0  0  0  0  0  0  0
   28.3806  -19.1969  -15.0087 C   0  0  0  0  0  0  0  0  0  0  0  0
   25.1760  -20.3436  -12.3297 C   0  0  0  0  0  0  0  0  0  0  0  0
   25.5906  -19.9000  -11.2382 O   0  0  0  0  0  0  0  0  0  0  0  0
   23.9287  -21.0132  -12.3863 N   0  0  0  0  0  0  0  0  0  0  0  0
   22.8854  -20.7971  -11.4506 C   0  0  0  0  0  0  0  0  0  0  0  0
   21.6787  -21.6720  -11.6527 C   0  0  0  0  0  0  0  0  0  0  0  0
   21.3561  -21.9591  -12.8486 O   0  0  0  0  0  0  0  0  0  0  0  0
   18.8122  -24.7199   -7.0343 N   0  0  0  0  0  0  0  0  0  0  0  0
   18.0768  -25.2867   -8.1032 C   0  0  0  0  0  0  0  0  0  0  0  0
   17.2320  -26.1683   -7.8483 O   0  0  0  0  0  0  0  0  0  0  0  0
   18.3517  -24.7957   -9.5000 C   0  0  0  0  0  0  0  0  0  0  0  0
   19.3582  -23.7112   -9.3810 C   0  0  0  0  0  0  0  0  0  0  0  0
   19.7734  -23.0769  -10.6943 C   0  0  2  0  0  0  0  0  0  0  0  0
   20.9014  -22.1841  -10.6012 N   0  0  0  0  0  0  0  0  0  0  0  0
   18.6349  -22.2929  -11.1888 C   0  0  0  0  0  0  0  0  0  0  0  0
   17.6473  -22.8278  -12.0100 O   0  0  0  0  0  0  0  0  0  0  0  0
   18.5253  -21.0883  -10.8718 O   0  0  0  0  0  0  0  0  0  0  0  0
  2  1  1  6
  2 10  1  0
  3  2  1  0
  4  9  2  0
  4  3  1  0
  5  4  1  0
  6  7  1  0
  6  5  2  0
  7  8  2  0
  8  9  1  0
 10 11  2  0
 12 10  1  0
 12 13  1  0
 14 13  1  0
 14 15  2  0
 16 17  1  0
 17 19  1  0
 18 17  2  0
 19 20  1  0
 21 20  1  1
 21 23  1  0
 22 21  1  0
 22 14  1  0
 23 25  2  0
 23 24  1  0
M  END
$$$$
