FGQ.pdb
     RDKit          3D

 25 25  0  0  1  0  0  0  0  0999 V2000
   23.1160  -17.5899  -17.6741 N   0  0  0  0  0  0  0  0  0  0  0  0
   23.6870  -18.8433  -17.2202 C   0  0  1  0  0  0  0  0  0  0  0  0
   25.1780  -18.5731  -17.0003 C   0  0  0  0  0  0  0  0  0  0  0  0
   25.7949  -18.3659  -18.3397 C   0  0  0  0  0  0  0  0  0  0  0  0
   25.6361  -19.2332  -19.3908 C   0  0  0  0  0  0  0  0  0  0  0  0
   26.2153  -19.0198  -20.6159 C   0  0  0  0  0  0  0  0  0  0  0  0
   26.9895  -17.8934  -20.8116 C   0  0  0  0  0  0  0  0  0  0  0  0
   27.1698  -17.0093  -19.7913 C   0  0  0  0  0  0  0  0  0  0  0  0
   26.5770  -17.2403  -18.5585 C   0  0  0  0  0  0  0  0  0  0  0  0
   23.0904  -19.2972  -15.9487 C   0  0  0  0  0  0  0  0  0  0  0  0
   23.5084  -20.3303  -15.3847 O   0  0  0  0  0  0  0  0  0  0  0  0
   22.0350  -18.5561  -15.3619 N   0  0  0  0  0  0  0  0  0  0  0  0
   21.3753  -18.9499  -14.1702 C   0  0  0  0  0  0  0  0  0  0  0  0
   20.2360  -19.9096  -14.3790 C   0  0  0  0  0  0  0  0  0  0  0  0
   19.6884  -19.9292  -15.5263 O   0  0  0  0  0  0  0  0  0  0  0  0
   18.7692  -24.4035  -10.3627 N   0  0  0  0  0  0  0  0  0  0  0  0
   19.5696  -24.8120  -11.4567 C   0  0  0  0  0  0  0  0  0  0  0  0
   20.2024  -25.8834  -11.3692 O   0  0  0  0  0  0  0  0  0  0  0  0
   19.6177  -23.9301  -12.6764 C   0  0  0  0  0  0  0  0  0  0  0  0
   18.6769  -22.8088  -12.4299 C   0  0  0  0  0  0  0  0  0  0  0  0
   18.6767  -21.7282  -13.4937 C   0  0  2  0  0  0  0  0  0  0  0  0
   19.7541  -20.7765  -13.3849 N   0  0  0  0  0  0  0  0  0  0  0  0
   17.4191  -20.9813  -13.3683 C   0  0  0  0  0  0  0  0  0  0  0  0
   17.2825  -19.8601  -12.5559 O   0  0  0  0  0  0  0  0  0  0  0  0
   16.4111  -21.3492  -14.0102 O   0  0  0  0  0  0  0  0  0  0  0  0
  2  1  1  1
  2 10  1  0
  3  2  1  0
  4  9  2  0
  4  3  1  0
  5  4  1  0
  6  7  1  0
  6  5  2  0
  7  8  2  0
  8  9  1  0
 10 11  2  0
 12 10  1  0
 12 13  1  0
 14 13  1  0
 14 15  2  0
 16 17  1  0
 17 19  1  0
 18 17  2  0
 19 20  1  0
 21 20  1  1
 21 23  1  0
 22 21  1  0
 22 14  1  0
 23 25  2  0
 23 24  1  0
M  END
$$$$
