FGQ.pdb
     RDKit          3D

 25 25  0  0  1  0  0  0  0  0999 V2000
   20.2283  -13.7093  -17.4963 N   0  0  0  0  0  0  0  0  0  0  0  0
   18.8498  -13.2958  -17.3185 C   0  0  1  0  0  0  0  0  0  0  0  0
   18.1697  -14.4200  -16.5324 C   0  0  0  0  0  0  0  0  0  0  0  0
   18.0989  -15.6085  -17.4268 C   0  0  0  0  0  0  0  0  0  0  0  0
   18.8697  -16.7311  -17.2597 C   0  0  0  0  0  0  0  0  0  0  0  0
   18.7857  -17.8137  -18.0980 C   0  0  0  0  0  0  0  0  0  0  0  0
   17.8960  -17.7853  -19.1534 C   0  0  0  0  0  0  0  0  0  0  0  0
   17.1139  -16.6877  -19.3511 C   0  0  0  0  0  0  0  0  0  0  0  0
   17.2114  -15.6012  -18.4940 C   0  0  0  0  0  0  0  0  0  0  0  0
   18.7414  -12.0407  -16.5493 C   0  0  0  0  0  0  0  0  0  0  0  0
   19.7028  -11.6303  -15.8657 O   0  0  0  0  0  0  0  0  0  0  0  0
   17.5376  -11.2944  -16.5856 N   0  0  0  0  0  0  0  0  0  0  0  0
   17.3430  -10.0941  -15.8563 C   0  0  0  0  0  0  0  0  0  0  0  0
   17.9606   -8.8765  -16.4876 C   0  0  0  0  0  0  0  0  0  0  0  0
   18.6297   -9.0451  -17.5555 O   0  0  0  0  0  0  0  0  0  0  0  0
   15.4174   -3.3069  -16.4708 N   0  0  0  0  0  0  0  0  0  0  0  0
   15.5760   -3.9617  -15.2256 C   0  0  0  0  0  0  0  0  0  0  0  0
   14.8681   -3.6005  -14.2642 O   0  0  0  0  0  0  0  0  0  0  0  0
   16.5948   -5.0658  -15.1227 C   0  0  0  0  0  0  0  0  0  0  0  0
   17.1861   -5.2284  -16.4743 C   0  0  0  0  0  0  0  0  0  0  0  0
   18.2135   -6.3374  -16.5940 C   0  0  2  0  0  0  0  0  0  0  0  0
   17.8350   -7.5786  -15.9661 N   0  0  0  0  0  0  0  0  0  0  0  0
   19.4447   -5.8749  -15.9416 C   0  0  0  0  0  0  0  0  0  0  0  0
   19.9520   -6.4563  -14.7838 O   0  0  0  0  0  0  0  0  0  0  0  0
   20.0842   -4.9172  -16.4288 O   0  0  0  0  0  0  0  0  0  0  0  0
  2  1  1  1
  2 10  1  0
  3  2  1  0
  4  9  2  0
  4  3  1  0
  5  4  1  0
  6  7  1  0
  6  5  2  0
  7  8  2  0
  8  9  1  0
 10 11  2  0
 12 10  1  0
 12 13  1  0
 14 13  1  0
 14 15  2  0
 16 17  1  0
 17 19  1  0
 18 17  2  0
 19 20  1  0
 21 20  1  1
 21 23  1  0
 22 21  1  0
 22 14  1  0
 23 25  2  0
 23 24  1  0
M  END
$$$$
