FGQ.pdb
     RDKit          3D

 25 25  0  0  1  0  0  0  0  0999 V2000
   25.2318  -17.9418  -17.4713 N   0  0  0  0  0  0  0  0  0  0  0  0
   24.0283  -17.1833  -17.7527 C   0  0  1  0  0  0  0  0  0  0  0  0
   23.3453  -17.8942  -18.9241 C   0  0  0  0  0  0  0  0  0  0  0  0
   24.1428  -17.6027  -20.1475 C   0  0  0  0  0  0  0  0  0  0  0  0
   23.9848  -16.4693  -20.9043 C   0  0  0  0  0  0  0  0  0  0  0  0
   24.7325  -16.2237  -22.0279 C   0  0  0  0  0  0  0  0  0  0  0  0
   25.6831  -17.1438  -22.4230 C   0  0  0  0  0  0  0  0  0  0  0  0
   25.8684  -18.2811  -21.6966 C   0  0  0  0  0  0  0  0  0  0  0  0
   25.1038  -18.5140  -20.5627 C   0  0  0  0  0  0  0  0  0  0  0  0
   23.1041  -17.1610  -16.6020 C   0  0  0  0  0  0  0  0  0  0  0  0
   23.4476  -17.6446  -15.5028 O   0  0  0  0  0  0  0  0  0  0  0  0
   21.8167  -16.5869  -16.7439 N   0  0  0  0  0  0  0  0  0  0  0  0
   20.8805  -16.5015  -15.6824 C   0  0  0  0  0  0  0  0  0  0  0  0
   20.4251  -17.8315  -15.1473 C   0  0  0  0  0  0  0  0  0  0  0  0
   19.6659  -18.5327  -15.8879 O   0  0  0  0  0  0  0  0  0  0  0  0
   21.3553  -19.6399   -9.2480 N   0  0  0  0  0  0  0  0  0  0  0  0
   20.6123  -20.7732   -9.6575 C   0  0  0  0  0  0  0  0  0  0  0  0
   20.4033  -21.6836   -8.8308 O   0  0  0  0  0  0  0  0  0  0  0  0
   20.1089  -20.8241  -11.0759 C   0  0  0  0  0  0  0  0  0  0  0  0
   20.6507  -19.6259  -11.7644 C   0  0  0  0  0  0  0  0  0  0  0  0
   20.3013  -19.5212  -13.2363 C   0  0  2  0  0  0  0  0  0  0  0  0
   20.7934  -18.3335  -13.8886 N   0  0  0  0  0  0  0  0  0  0  0  0
   18.8373  -19.5055  -13.3456 C   0  0  0  0  0  0  0  0  0  0  0  0
   18.1036  -20.5800  -13.8384 O   0  0  0  0  0  0  0  0  0  0  0  0
   18.1982  -18.4926  -12.9862 O   0  0  0  0  0  0  0  0  0  0  0  0
  2  1  1  1
  2 10  1  0
  3  2  1  0
  4  9  2  0
  4  3  1  0
  5  4  1  0
  6  7  1  0
  6  5  2  0
  7  8  2  0
  8  9  1  0
 10 11  2  0
 12 10  1  0
 12 13  1  0
 14 13  1  0
 14 15  2  0
 16 17  1  0
 17 19  1  0
 18 17  2  0
 19 20  1  0
 21 20  1  1
 21 23  1  0
 22 21  1  0
 22 14  1  0
 23 25  2  0
 23 24  1  0
M  END
$$$$
