FGQ.pdb
     RDKit          3D

 25 25  0  0  1  0  0  0  0  0999 V2000
   24.8118  -12.6760  -18.8361 N   0  0  0  0  0  0  0  0  0  0  0  0
   24.2992  -13.4100  -17.6952 C   0  0  1  0  0  0  0  0  0  0  0  0
   25.4717  -13.5479  -16.7202 C   0  0  0  0  0  0  0  0  0  0  0  0
   26.5044  -14.3919  -17.3828 C   0  0  0  0  0  0  0  0  0  0  0  0
   27.6384  -13.8857  -17.9658 C   0  0  0  0  0  0  0  0  0  0  0  0
   28.5754  -14.6848  -18.5704 C   0  0  0  0  0  0  0  0  0  0  0  0
   28.3818  -16.0515  -18.6001 C   0  0  0  0  0  0  0  0  0  0  0  0
   27.2676  -16.5906  -18.0315 C   0  0  0  0  0  0  0  0  0  0  0  0
   26.3298  -15.7683  -17.4242 C   0  0  0  0  0  0  0  0  0  0  0  0
   23.1990  -12.6924  -17.0219 C   0  0  0  0  0  0  0  0  0  0  0  0
   22.6533  -13.1756  -16.0076 O   0  0  0  0  0  0  0  0  0  0  0  0
   22.7574  -11.4454  -17.5290 N   0  0  0  0  0  0  0  0  0  0  0  0
   21.6479  -10.7382  -17.0002 C   0  0  0  0  0  0  0  0  0  0  0  0
   21.3484   -9.4401  -17.6987 C   0  0  0  0  0  0  0  0  0  0  0  0
   22.0999   -9.1097  -18.6696 O   0  0  0  0  0  0  0  0  0  0  0  0
   16.6597   -6.1247  -15.8528 N   0  0  0  0  0  0  0  0  0  0  0  0
   16.3565   -7.2335  -16.6791 C   0  0  0  0  0  0  0  0  0  0  0  0
   15.2439   -7.7844  -16.5584 O   0  0  0  0  0  0  0  0  0  0  0  0
   17.3955   -7.6949  -17.6666 C   0  0  0  0  0  0  0  0  0  0  0  0
   18.5671   -6.7983  -17.5040 C   0  0  0  0  0  0  0  0  0  0  0  0
   19.8831   -7.3696  -17.9952 C   0  0  2  0  0  0  0  0  0  0  0  0
   20.2926   -8.5866  -17.3399 N   0  0  0  0  0  0  0  0  0  0  0  0
   20.9247   -6.3659  -17.7441 C   0  0  0  0  0  0  0  0  0  0  0  0
   21.0077   -5.1689  -18.4485 O   0  0  0  0  0  0  0  0  0  0  0  0
   21.7874   -6.5726  -16.8630 O   0  0  0  0  0  0  0  0  0  0  0  0
  2  1  1  6
  2 10  1  0
  3  2  1  0
  4  9  2  0
  4  3  1  0
  5  4  1  0
  6  7  1  0
  6  5  2  0
  7  8  2  0
  8  9  1  0
 10 11  2  0
 12 10  1  0
 12 13  1  0
 14 13  1  0
 14 15  2  0
 16 17  1  0
 17 19  1  0
 18 17  2  0
 19 20  1  0
 21 20  1  1
 21 23  1  0
 22 21  1  0
 22 14  1  0
 23 25  2  0
 23 24  1  0
M  END
$$$$
