FGQ.pdb
     RDKit          3D

 25 25  0  0  1  0  0  0  0  0999 V2000
   25.1120   -8.2521  -15.1175 N   0  0  0  0  0  0  0  0  0  0  0  0
   23.8156   -8.7131  -15.5755 C   0  0  1  0  0  0  0  0  0  0  0  0
   23.7857  -10.2208  -15.3109 C   0  0  0  0  0  0  0  0  0  0  0  0
   25.0037  -10.8065  -15.9364 C   0  0  0  0  0  0  0  0  0  0  0  0
   26.1035  -11.2110  -15.2229 C   0  0  0  0  0  0  0  0  0  0  0  0
   27.2142  -11.7479  -15.8229 C   0  0  0  0  0  0  0  0  0  0  0  0
   27.2388  -11.8922  -17.1958 C   0  0  0  0  0  0  0  0  0  0  0  0
   26.1652  -11.5018  -17.9376 C   0  0  0  0  0  0  0  0  0  0  0  0
   25.0499  -10.9606  -17.3150 C   0  0  0  0  0  0  0  0  0  0  0  0
   22.7071   -8.0758  -14.8380 C   0  0  0  0  0  0  0  0  0  0  0  0
   22.8885   -7.6201  -13.6893 O   0  0  0  0  0  0  0  0  0  0  0  0
   21.4266   -7.9796  -15.4365 N   0  0  0  0  0  0  0  0  0  0  0  0
   20.3021   -7.4139  -14.7837 C   0  0  0  0  0  0  0  0  0  0  0  0
   19.0617   -7.3439  -15.6317 C   0  0  0  0  0  0  0  0  0  0  0  0
   19.1401   -7.7818  -16.8228 O   0  0  0  0  0  0  0  0  0  0  0  0
   13.2647  -10.2411  -17.6104 N   0  0  0  0  0  0  0  0  0  0  0  0
   14.3961   -9.8615  -16.8487 C   0  0  0  0  0  0  0  0  0  0  0  0
   15.0798  -10.7528  -16.3064 O   0  0  0  0  0  0  0  0  0  0  0  0
   14.7196   -8.3956  -16.7304 C   0  0  0  0  0  0  0  0  0  0  0  0
   15.9763   -8.2976  -15.9467 C   0  0  0  0  0  0  0  0  0  0  0  0
   16.5551   -6.9002  -15.8379 C   0  0  2  0  0  0  0  0  0  0  0  0
   17.8358   -6.8290  -15.1799 N   0  0  0  0  0  0  0  0  0  0  0  0
   15.6151   -6.0895  -15.0541 C   0  0  0  0  0  0  0  0  0  0  0  0
   15.8158   -5.7843  -13.7116 O   0  0  0  0  0  0  0  0  0  0  0  0
   14.5803   -5.6416  -15.5944 O   0  0  0  0  0  0  0  0  0  0  0  0
  2  1  1  1
  2 10  1  0
  3  2  1  0
  4  9  2  0
  4  3  1  0
  5  4  1  0
  6  7  1  0
  6  5  2  0
  7  8  2  0
  8  9  1  0
 10 11  2  0
 12 10  1  0
 12 13  1  0
 14 13  1  0
 14 15  2  0
 16 17  1  0
 17 19  1  0
 18 17  2  0
 19 20  1  0
 21 20  1  1
 21 23  1  0
 22 21  1  0
 22 14  1  0
 23 25  2  0
 23 24  1  0
M  END
$$$$
