FGQ.pdb
     RDKit          3D

 25 25  0  0  1  0  0  0  0  0999 V2000
   25.0243  -18.9686  -15.4753 N   0  0  0  0  0  0  0  0  0  0  0  0
   26.0164  -18.7958  -14.4318 C   0  0  1  0  0  0  0  0  0  0  0  0
   26.2634  -17.2883  -14.3292 C   0  0  0  0  0  0  0  0  0  0  0  0
   26.8544  -16.8453  -15.6224 C   0  0  0  0  0  0  0  0  0  0  0  0
   26.3005  -15.8732  -16.4164 C   0  0  0  0  0  0  0  0  0  0  0  0
   26.8646  -15.4825  -17.6043 C   0  0  0  0  0  0  0  0  0  0  0  0
   28.0338  -16.0823  -18.0281 C   0  0  0  0  0  0  0  0  0  0  0  0
   28.6130  -17.0515  -17.2662 C   0  0  0  0  0  0  0  0  0  0  0  0
   28.0294  -17.4349  -16.0675 C   0  0  0  0  0  0  0  0  0  0  0  0
   25.5410  -19.2927  -13.1257 C   0  0  0  0  0  0  0  0  0  0  0  0
   26.2194  -19.1116  -12.0927 O   0  0  0  0  0  0  0  0  0  0  0  0
   24.3053  -19.9807  -13.0414 N   0  0  0  0  0  0  0  0  0  0  0  0
   23.7406  -20.4206  -11.8175 C   0  0  0  0  0  0  0  0  0  0  0  0
   22.3440  -20.9661  -11.9383 C   0  0  0  0  0  0  0  0  0  0  0  0
   21.9394  -21.2903  -13.0993 O   0  0  0  0  0  0  0  0  0  0  0  0
   19.5759  -24.1482   -8.1697 N   0  0  0  0  0  0  0  0  0  0  0  0
   18.3181  -23.8168   -8.7286 C   0  0  0  0  0  0  0  0  0  0  0  0
   17.3676  -24.6105   -8.5781 O   0  0  0  0  0  0  0  0  0  0  0  0
   18.1890  -22.5181   -9.4797 C   0  0  0  0  0  0  0  0  0  0  0  0
   19.5343  -21.8909   -9.4826 C   0  0  0  0  0  0  0  0  0  0  0  0
   20.1593  -21.7236  -10.8540 C   0  0  2  0  0  0  0  0  0  0  0  0
   21.4759  -21.1364  -10.8477 N   0  0  0  0  0  0  0  0  0  0  0  0
   19.2883  -20.8358  -11.6341 C   0  0  0  0  0  0  0  0  0  0  0  0
   18.3209  -21.3079  -12.5156 O   0  0  0  0  0  0  0  0  0  0  0  0
   19.4013  -19.5959  -11.5188 O   0  0  0  0  0  0  0  0  0  0  0  0
  2  1  1  6
  2 10  1  0
  3  2  1  0
  4  9  2  0
  4  3  1  0
  5  4  1  0
  6  7  1  0
  6  5  2  0
  7  8  2  0
  8  9  1  0
 10 11  2  0
 12 10  1  0
 12 13  1  0
 14 13  1  0
 14 15  2  0
 16 17  1  0
 17 19  1  0
 18 17  2  0
 19 20  1  0
 21 20  1  1
 21 23  1  0
 22 21  1  0
 22 14  1  0
 23 25  2  0
 23 24  1  0
M  END
$$$$
