NHK.pdb
     RDKit          3D

 28 28  0  0  1  0  0  0  0  0999 V2000
   15.8201  -13.1279   16.4321 N   0  0  0  0  0  0  0  0  0  0  0  0
   15.7944  -13.4660   17.8117 C   0  0  0  0  0  0  0  0  0  0  0  0
   16.8764  -13.6740   18.3894 O   0  0  0  0  0  0  0  0  0  0  0  0
   14.5200  -13.5656   18.5318 C   0  0  0  0  0  0  0  0  0  0  0  0
   14.2862  -14.8990   19.1358 C   0  0  2  0  0  0  0  0  0  0  0  0
   14.3907  -15.9725   18.1527 N   0  0  0  0  0  0  0  0  0  0  0  0
   13.0557  -15.0395   19.9520 C   0  0  0  0  0  0  0  0  0  0  0  0
   12.5733  -14.1345   20.6745 O   0  0  0  0  0  0  0  0  0  0  0  0
   12.3182  -16.2710   19.9606 N   0  0  0  0  0  0  0  0  0  0  0  0
   11.0672  -16.3957   20.7959 C   0  0  1  0  0  0  0  0  0  0  0  0
   10.3711  -17.5842   20.2422 C   0  0  0  0  0  0  0  0  0  0  0  0
    9.1514  -18.0575   20.8637 C   0  0  0  0  0  0  0  0  0  0  0  0
    8.3953  -17.1905   21.6765 C   0  0  0  0  0  0  0  0  0  0  0  0
    7.3177  -17.8391   22.1358 N   0  0  0  0  0  0  0  0  0  0  0  0
    7.3581  -19.0851   21.6471 C   0  0  0  0  0  0  0  0  0  0  0  0
    8.4613  -19.1861   20.8933 N   0  0  0  0  0  0  0  0  0  0  0  0
   11.5178  -16.5200   22.2004 C   0  0  0  0  0  0  0  0  0  0  0  0
   12.6174  -17.1297   22.4577 O   0  0  0  0  0  0  0  0  0  0  0  0
   10.8317  -16.0084   23.3149 N   0  0  0  0  0  0  0  0  0  0  0  0
   11.3834  -16.2325   24.6684 C   0  0  1  0  0  0  0  0  0  0  0  0
   10.6991  -15.2585   25.5919 C   0  0  0  0  0  0  0  0  0  0  0  0
   11.0205  -15.4554   27.0357 C   0  0  0  0  0  0  0  0  0  0  0  0
   10.3307  -14.3999   27.8477 C   0  0  0  0  0  0  0  0  0  0  0  0
   10.5771  -14.5472   29.3360 C   0  0  0  0  0  0  0  0  0  0  0  0
    9.8269  -13.5609   30.0699 N   0  0  0  0  0  0  0  0  0  0  0  0
   11.2170  -17.6455   25.0594 C   0  0  0  0  0  0  0  0  0  0  0  0
   12.0181  -18.2847   25.7780 O   0  0  0  0  0  0  0  0  0  0  0  0
   10.0963  -18.3405   24.6095 O   0  0  0  0  0  0  0  0  0  0  0  0
  2  1  1  0
  2  3  2  0
  4  5  1  0
  4  2  1  0
  5  7  1  0
  5  6  1  6
  7  8  2  0
  9 10  1  0
  9  7  1  0
 11 12  1  0
 10 11  1  6
 12 16  1  0
 13 14  1  0
 13 12  2  0
 14 15  1  0
 15 16  2  0
 17 18  2  0
 17 10  1  0
 19 17  1  0
 20 19  1  0
 20 26  1  0
 20 21  1  1
 22 21  1  0
 23 22  1  0
 24 25  1  0
 24 23  1  0
 26 28  1  0
 27 26  2  0
M  END
$$$$
