NHK.pdb
     RDKit          3D

 28 28  0  0  1  0  0  0  0  0999 V2000
   16.1208  -15.5776   18.5099 N   0  0  0  0  0  0  0  0  0  0  0  0
   15.4158  -14.4576   17.9936 C   0  0  0  0  0  0  0  0  0  0  0  0
   16.0271  -13.6626   17.2574 O   0  0  0  0  0  0  0  0  0  0  0  0
   14.0015  -14.2494   18.3239 C   0  0  0  0  0  0  0  0  0  0  0  0
   13.4566  -15.2677   19.2530 C   0  0  2  0  0  0  0  0  0  0  0  0
   12.9631  -16.4460   18.5473 N   0  0  0  0  0  0  0  0  0  0  0  0
   12.4646  -14.7835   20.2437 C   0  0  0  0  0  0  0  0  0  0  0  0
   12.6529  -13.8237   21.0293 O   0  0  0  0  0  0  0  0  0  0  0  0
   11.1802  -15.4133   20.3633 N   0  0  0  0  0  0  0  0  0  0  0  0
   10.1566  -14.8632   21.3266 C   0  0  1  0  0  0  0  0  0  0  0  0
    8.8511  -15.1499   20.6808 C   0  0  0  0  0  0  0  0  0  0  0  0
    8.4045  -14.3359   19.5691 C   0  0  0  0  0  0  0  0  0  0  0  0
    9.1366  -13.1909   19.1987 C   0  0  0  0  0  0  0  0  0  0  0  0
    8.5430  -12.6035   18.1519 N   0  0  0  0  0  0  0  0  0  0  0  0
    7.4618  -13.3297   17.8415 C   0  0  0  0  0  0  0  0  0  0  0  0
    7.4049  -14.3549   18.7024 N   0  0  0  0  0  0  0  0  0  0  0  0
   10.3917  -15.5491   22.6170 C   0  0  0  0  0  0  0  0  0  0  0  0
   10.9791  -16.6901   22.6262 O   0  0  0  0  0  0  0  0  0  0  0  0
   10.0240  -15.0451   23.8760 N   0  0  0  0  0  0  0  0  0  0  0  0
   10.1482  -15.9135   25.0664 C   0  0  1  0  0  0  0  0  0  0  0  0
    9.8257  -15.0650   26.2688 C   0  0  0  0  0  0  0  0  0  0  0  0
   10.4559  -15.5359   27.5368 C   0  0  0  0  0  0  0  0  0  0  0  0
   10.1314  -14.5744   28.6410 C   0  0  0  0  0  0  0  0  0  0  0  0
   10.6894  -15.0077   29.9820 C   0  0  0  0  0  0  0  0  0  0  0  0
   10.3082  -14.0745   31.0106 N   0  0  0  0  0  0  0  0  0  0  0  0
    9.2846  -17.1013   24.9234 C   0  0  0  0  0  0  0  0  0  0  0  0
    9.4185  -18.1618   25.5745 O   0  0  0  0  0  0  0  0  0  0  0  0
    8.2378  -17.0652   24.0045 O   0  0  0  0  0  0  0  0  0  0  0  0
  2  1  1  0
  2  3  2  0
  4  5  1  0
  4  2  1  0
  5  7  1  0
  5  6  1  6
  7  8  2  0
  9 10  1  0
  9  7  1  0
 11 12  1  0
 10 11  1  6
 12 16  1  0
 13 14  1  0
 13 12  2  0
 14 15  1  0
 15 16  2  0
 17 18  2  0
 17 10  1  0
 19 17  1  0
 20 19  1  0
 20 26  1  0
 20 21  1  1
 22 21  1  0
 23 22  1  0
 24 25  1  0
 24 23  1  0
 26 28  1  0
 27 26  2  0
M  END
$$$$
