NHK.pdb
     RDKit          3D

 28 28  0  0  1  0  0  0  0  0999 V2000
    8.3840  -17.6392   14.7460 N   0  0  0  0  0  0  0  0  0  0  0  0
    9.4957  -18.1929   15.4357 C   0  0  0  0  0  0  0  0  0  0  0  0
    9.9538  -19.2803   15.0416 O   0  0  0  0  0  0  0  0  0  0  0  0
   10.0848  -17.4942   16.5835 C   0  0  0  0  0  0  0  0  0  0  0  0
   10.1675  -18.3308   17.8044 C   0  0  2  0  0  0  0  0  0  0  0  0
    9.0371  -19.2466   17.9194 N   0  0  0  0  0  0  0  0  0  0  0  0
   10.4004  -17.6066   19.0777 C   0  0  0  0  0  0  0  0  0  0  0  0
   11.3986  -16.8845   19.3139 O   0  0  0  0  0  0  0  0  0  0  0  0
    9.4565  -17.6963   20.1555 N   0  0  0  0  0  0  0  0  0  0  0  0
    9.6882  -16.9187   21.4283 C   0  0  1  0  0  0  0  0  0  0  0  0
    8.4248  -16.1676   21.6366 C   0  0  0  0  0  0  0  0  0  0  0  0
    8.1865  -14.9430   20.9006 C   0  0  0  0  0  0  0  0  0  0  0  0
    9.1813  -14.4346   20.0428 C   0  0  0  0  0  0  0  0  0  0  0  0
    8.7408  -13.3066   19.4712 N   0  0  0  0  0  0  0  0  0  0  0  0
    7.5047  -13.0771   19.9316 C   0  0  0  0  0  0  0  0  0  0  0  0
    7.2012  -14.0679   20.7811 N   0  0  0  0  0  0  0  0  0  0  0  0
   10.0129  -17.9179   22.4709 C   0  0  0  0  0  0  0  0  0  0  0  0
    9.3192  -18.9948   22.5493 O   0  0  0  0  0  0  0  0  0  0  0  0
   11.0505  -17.7941   23.4102 N   0  0  0  0  0  0  0  0  0  0  0  0
   11.3289  -18.9166   24.3316 C   0  0  1  0  0  0  0  0  0  0  0  0
   12.7968  -19.2339   24.2117 C   0  0  0  0  0  0  0  0  0  0  0  0
   13.2380  -20.4050   25.0246 C   0  0  0  0  0  0  0  0  0  0  0  0
   14.7097  -20.6190   24.8312 C   0  0  0  0  0  0  0  0  0  0  0  0
   15.2424  -21.7969   25.6225 C   0  0  0  0  0  0  0  0  0  0  0  0
   16.6785  -21.8557   25.5315 N   0  0  0  0  0  0  0  0  0  0  0  0
   10.9016  -18.5705   25.7008 C   0  0  0  0  0  0  0  0  0  0  0  0
   10.6778  -17.4071   26.1044 O   0  0  0  0  0  0  0  0  0  0  0  0
   10.7276  -19.5941   26.6301 O   0  0  0  0  0  0  0  0  0  0  0  0
  2  1  1  0
  2  3  2  0
  4  5  1  0
  4  2  1  0
  5  7  1  0
  5  6  1  1
  7  8  2  0
  9 10  1  0
  9  7  1  0
 11 12  1  0
 10 11  1  1
 12 16  1  0
 13 14  1  0
 13 12  2  0
 14 15  1  0
 15 16  2  0
 17 18  2  0
 17 10  1  0
 19 17  1  0
 20 19  1  0
 20 26  1  0
 20 21  1  1
 22 21  1  0
 23 22  1  0
 24 25  1  0
 24 23  1  0
 26 28  1  0
 27 26  2  0
M  END
$$$$
