NHK.pdb
     RDKit          3D

 28 28  0  0  1  0  0  0  0  0999 V2000
   16.4151  -15.2184   16.0977 N   0  0  0  0  0  0  0  0  0  0  0  0
   15.8968  -13.9243   16.3714 C   0  0  0  0  0  0  0  0  0  0  0  0
   16.4862  -12.9385   15.8935 O   0  0  0  0  0  0  0  0  0  0  0  0
   14.6955  -13.7613   17.1977 C   0  0  0  0  0  0  0  0  0  0  0  0
   14.2515  -15.0173   17.8477 C   0  0  2  0  0  0  0  0  0  0  0  0
   13.7746  -15.9980   16.8779 N   0  0  0  0  0  0  0  0  0  0  0  0
   13.2953  -14.8683   18.9718 C   0  0  0  0  0  0  0  0  0  0  0  0
   13.5306  -14.2325   20.0273 O   0  0  0  0  0  0  0  0  0  0  0  0
   11.9930  -15.4690   18.9111 N   0  0  0  0  0  0  0  0  0  0  0  0
   11.0370  -15.3171   20.0692 C   0  0  1  0  0  0  0  0  0  0  0  0
    9.7001  -15.5824   19.4810 C   0  0  0  0  0  0  0  0  0  0  0  0
    8.9257  -14.4880   18.9328 C   0  0  0  0  0  0  0  0  0  0  0  0
    9.4383  -13.1766   18.9714 C   0  0  0  0  0  0  0  0  0  0  0  0
    8.5583  -12.3389   18.4086 N   0  0  0  0  0  0  0  0  0  0  0  0
    7.5055  -13.0657   18.0133 C   0  0  0  0  0  0  0  0  0  0  0  0
    7.7525  -14.3418   18.3386 N   0  0  0  0  0  0  0  0  0  0  0  0
   11.4801  -16.2812   21.1013 C   0  0  0  0  0  0  0  0  0  0  0  0
   12.2136  -17.2773   20.7594 O   0  0  0  0  0  0  0  0  0  0  0  0
   11.1659  -16.1992   22.4683 N   0  0  0  0  0  0  0  0  0  0  0  0
   12.0196  -16.9027   23.4495 C   0  0  1  0  0  0  0  0  0  0  0  0
   13.4136  -16.3513   23.2989 C   0  0  0  0  0  0  0  0  0  0  0  0
   14.4107  -17.3388   22.7920 C   0  0  0  0  0  0  0  0  0  0  0  0
   15.7497  -16.6749   22.6672 C   0  0  0  0  0  0  0  0  0  0  0  0
   16.8337  -17.6207   22.1901 C   0  0  0  0  0  0  0  0  0  0  0  0
   18.0787  -16.9159   22.0240 N   0  0  0  0  0  0  0  0  0  0  0  0
   11.4621  -16.7568   24.8078 C   0  0  0  0  0  0  0  0  0  0  0  0
   11.9559  -17.2662   25.8389 O   0  0  0  0  0  0  0  0  0  0  0  0
   10.3033  -16.0029   24.9819 O   0  0  0  0  0  0  0  0  0  0  0  0
  2  1  1  0
  2  3  2  0
  4  5  1  0
  4  2  1  0
  5  7  1  0
  5  6  1  6
  7  8  2  0
  9 10  1  0
  9  7  1  0
 11 12  1  0
 10 11  1  6
 12 16  1  0
 13 14  1  0
 13 12  2  0
 14 15  1  0
 15 16  2  0
 17 18  2  0
 17 10  1  0
 19 17  1  0
 20 19  1  0
 20 26  1  0
 20 21  1  1
 22 21  1  0
 23 22  1  0
 24 25  1  0
 24 23  1  0
 26 28  1  0
 27 26  2  0
M  END
$$$$
