NHK.pdb
     RDKit          3D

 28 28  0  0  1  0  0  0  0  0999 V2000
   11.1207  -20.6224   15.7556 N   0  0  0  0  0  0  0  0  0  0  0  0
   10.2415  -20.4142   16.8519 C   0  0  0  0  0  0  0  0  0  0  0  0
    9.1367  -20.9859   16.8403 O   0  0  0  0  0  0  0  0  0  0  0  0
   10.6330  -19.5453   17.9674 C   0  0  0  0  0  0  0  0  0  0  0  0
    9.6957  -18.4198   18.1957 C   0  0  2  0  0  0  0  0  0  0  0  0
    9.4910  -17.6233   16.9900 N   0  0  0  0  0  0  0  0  0  0  0  0
    9.9865  -17.5547   19.3649 C   0  0  0  0  0  0  0  0  0  0  0  0
   11.1313  -17.1574   19.6896 O   0  0  0  0  0  0  0  0  0  0  0  0
    8.9292  -17.1057   20.2258 N   0  0  0  0  0  0  0  0  0  0  0  0
    9.2235  -16.1232   21.3332 C   0  0  1  0  0  0  0  0  0  0  0  0
    8.0506  -15.2133   21.3401 C   0  0  0  0  0  0  0  0  0  0  0  0
    7.8116  -14.3395   20.2099 C   0  0  0  0  0  0  0  0  0  0  0  0
    8.6518  -13.2305   19.9899 C   0  0  0  0  0  0  0  0  0  0  0  0
    8.2456  -12.5758   18.8948 N   0  0  0  0  0  0  0  0  0  0  0  0
    7.1798  -13.2245   18.4090 C   0  0  0  0  0  0  0  0  0  0  0  0
    6.9445  -14.2705   19.2128 N   0  0  0  0  0  0  0  0  0  0  0  0
    9.4113  -16.9275   22.5615 C   0  0  0  0  0  0  0  0  0  0  0  0
    8.5316  -17.8060   22.8800 O   0  0  0  0  0  0  0  0  0  0  0  0
   10.5049  -16.8180   23.4369 N   0  0  0  0  0  0  0  0  0  0  0  0
   10.6078  -17.7451   24.5842 C   0  0  1  0  0  0  0  0  0  0  0  0
   11.8824  -18.5285   24.4073 C   0  0  0  0  0  0  0  0  0  0  0  0
   12.2021  -19.4415   25.5435 C   0  0  0  0  0  0  0  0  0  0  0  0
   13.4605  -20.1972   25.2360 C   0  0  0  0  0  0  0  0  0  0  0  0
   13.8822  -21.1214   26.3608 C   0  0  0  0  0  0  0  0  0  0  0  0
   15.1602  -21.7180   26.0692 N   0  0  0  0  0  0  0  0  0  0  0  0
   10.5375  -16.9956   25.8534 C   0  0  0  0  0  0  0  0  0  0  0  0
   10.7917  -15.7762   25.9754 O   0  0  0  0  0  0  0  0  0  0  0  0
   10.1638  -17.6709   27.0134 O   0  0  0  0  0  0  0  0  0  0  0  0
  2  1  1  0
  2  3  2  0
  4  5  1  0
  4  2  1  0
  5  7  1  0
  5  6  1  6
  7  8  2  0
  9 10  1  0
  9  7  1  0
 11 12  1  0
 10 11  1  1
 12 16  1  0
 13 14  1  0
 13 12  2  0
 14 15  1  0
 15 16  2  0
 17 18  2  0
 17 10  1  0
 19 17  1  0
 20 19  1  0
 20 26  1  0
 20 21  1  6
 22 21  1  0
 23 22  1  0
 24 25  1  0
 24 23  1  0
 26 28  1  0
 27 26  2  0
M  END
$$$$
