NHK.pdb
     RDKit          3D

 28 28  0  0  1  0  0  0  0  0999 V2000
    7.1386  -16.8815   15.7879 N   0  0  0  0  0  0  0  0  0  0  0  0
    6.9716  -18.2890   15.8825 C   0  0  0  0  0  0  0  0  0  0  0  0
    5.9507  -18.7977   15.3857 O   0  0  0  0  0  0  0  0  0  0  0  0
    7.9819  -19.1169   16.5507 C   0  0  0  0  0  0  0  0  0  0  0  0
    9.1123  -18.3350   17.1057 C   0  0  2  0  0  0  0  0  0  0  0  0
    9.6038  -17.3359   16.1622 N   0  0  0  0  0  0  0  0  0  0  0  0
   10.2301  -19.1217   17.6816 C   0  0  0  0  0  0  0  0  0  0  0  0
   10.0908  -20.0672   18.4943 O   0  0  0  0  0  0  0  0  0  0  0  0
   11.5903  -18.8321   17.3258 N   0  0  0  0  0  0  0  0  0  0  0  0
   12.7106  -19.6852   17.8694 C   0  0  1  0  0  0  0  0  0  0  0  0
   13.8373  -19.4562   16.9304 C   0  0  0  0  0  0  0  0  0  0  0  0
   15.1070  -20.1156   17.1563 C   0  0  0  0  0  0  0  0  0  0  0  0
   15.2897  -20.9133   18.3027 C   0  0  0  0  0  0  0  0  0  0  0  0
   16.5291  -21.4201   18.2984 N   0  0  0  0  0  0  0  0  0  0  0  0
   17.1425  -20.9764   17.1940 C   0  0  0  0  0  0  0  0  0  0  0  0
   16.2713  -20.2017   16.5335 N   0  0  0  0  0  0  0  0  0  0  0  0
   12.9395  -19.2314   19.2597 C   0  0  0  0  0  0  0  0  0  0  0  0
   12.9860  -17.9740   19.5125 O   0  0  0  0  0  0  0  0  0  0  0  0
   13.1097  -20.0802   20.3665 N   0  0  0  0  0  0  0  0  0  0  0  0
   13.2972  -19.4886   21.7086 C   0  0  1  0  0  0  0  0  0  0  0  0
   12.5376  -20.3513   22.6826 C   0  0  0  0  0  0  0  0  0  0  0  0
   12.6994  -19.9500   24.1107 C   0  0  0  0  0  0  0  0  0  0  0  0
   11.8044  -20.7933   24.9691 C   0  0  0  0  0  0  0  0  0  0  0  0
   11.7684  -20.3327   26.4127 C   0  0  0  0  0  0  0  0  0  0  0  0
   10.7194  -21.0097   27.1306 N   0  0  0  0  0  0  0  0  0  0  0  0
   14.7353  -19.3644   22.0148 C   0  0  0  0  0  0  0  0  0  0  0  0
   15.6241  -20.1337   21.5847 O   0  0  0  0  0  0  0  0  0  0  0  0
   15.1601  -18.3248   22.8396 O   0  0  0  0  0  0  0  0  0  0  0  0
  2  1  1  0
  2  3  2  0
  4  5  1  0
  4  2  1  0
  5  7  1  0
  5  6  1  6
  7  8  2  0
  9 10  1  0
  9  7  1  0
 11 12  1  0
 10 11  1  6
 12 16  1  0
 13 14  1  0
 13 12  2  0
 14 15  1  0
 15 16  2  0
 17 18  2  0
 17 10  1  0
 19 17  1  0
 20 19  1  0
 20 26  1  0
 20 21  1  1
 22 21  1  0
 23 22  1  0
 24 25  1  0
 24 23  1  0
 26 28  1  0
 27 26  2  0
M  END
$$$$
