NHK.pdb
     RDKit          3D

 28 28  0  0  1  0  0  0  0  0999 V2000
    7.5956  -21.6988   17.9895 N   0  0  0  0  0  0  0  0  0  0  0  0
    6.9451  -20.4407   17.8796 C   0  0  0  0  0  0  0  0  0  0  0  0
    5.7183  -20.4257   17.6740 O   0  0  0  0  0  0  0  0  0  0  0  0
    7.7071  -19.1934   18.0068 C   0  0  0  0  0  0  0  0  0  0  0  0
    8.2723  -18.9827   19.3608 C   0  0  2  0  0  0  0  0  0  0  0  0
    7.2483  -19.0466   20.3987 N   0  0  0  0  0  0  0  0  0  0  0  0
    9.1317  -17.7857   19.5307 C   0  0  0  0  0  0  0  0  0  0  0  0
   10.2219  -17.6019   18.9380 O   0  0  0  0  0  0  0  0  0  0  0  0
    8.7468  -16.7271   20.4206 N   0  0  0  0  0  0  0  0  0  0  0  0
    9.6483  -15.5305   20.6045 C   0  0  1  0  0  0  0  0  0  0  0  0
    8.7480  -14.3618   20.4392 C   0  0  0  0  0  0  0  0  0  0  0  0
    8.3843  -13.9165   19.1098 C   0  0  0  0  0  0  0  0  0  0  0  0
    7.5329  -12.8059   18.9498 C   0  0  0  0  0  0  0  0  0  0  0  0
    7.3407  -12.5779   17.6444 N   0  0  0  0  0  0  0  0  0  0  0  0
    8.0365  -13.4998   16.9672 C   0  0  0  0  0  0  0  0  0  0  0  0
    8.6477  -14.2833   17.8661 N   0  0  0  0  0  0  0  0  0  0  0  0
   10.2617  -15.6760   21.9437 C   0  0  0  0  0  0  0  0  0  0  0  0
    9.5074  -15.7168   22.9812 O   0  0  0  0  0  0  0  0  0  0  0  0
   11.6408  -15.7839   22.1907 N   0  0  0  0  0  0  0  0  0  0  0  0
   12.1084  -16.0745   23.5631 C   0  0  1  0  0  0  0  0  0  0  0  0
   11.5260  -17.4072   23.9562 C   0  0  0  0  0  0  0  0  0  0  0  0
   12.0115  -17.9237   25.2693 C   0  0  0  0  0  0  0  0  0  0  0  0
   11.4102  -19.2733   25.5264 C   0  0  0  0  0  0  0  0  0  0  0  0
   11.9419  -19.9241   26.7878 C   0  0  0  0  0  0  0  0  0  0  0  0
   11.3384  -21.2178   26.9789 N   0  0  0  0  0  0  0  0  0  0  0  0
   13.5820  -16.0252   23.6208 C   0  0  0  0  0  0  0  0  0  0  0  0
   14.2615  -16.2270   24.6524 O   0  0  0  0  0  0  0  0  0  0  0  0
   14.2914  -15.7351   22.4572 O   0  0  0  0  0  0  0  0  0  0  0  0
  2  1  1  0
  2  3  2  0
  4  5  1  0
  4  2  1  0
  5  7  1  0
  5  6  1  1
  7  8  2  0
  9 10  1  0
  9  7  1  0
 11 12  1  0
 10 11  1  1
 12 16  1  0
 13 14  1  0
 13 12  2  0
 14 15  1  0
 15 16  2  0
 17 18  2  0
 17 10  1  0
 19 17  1  0
 20 19  1  0
 20 26  1  0
 20 21  1  6
 22 21  1  0
 23 22  1  0
 24 25  1  0
 24 23  1  0
 26 28  1  0
 27 26  2  0
M  END
$$$$
