NHK.pdb
     RDKit          3D

 28 28  0  0  1  0  0  0  0  0999 V2000
   15.6341  -13.0548   18.2735 N   0  0  0  0  0  0  0  0  0  0  0  0
   15.0225  -14.0400   19.0941 C   0  0  0  0  0  0  0  0  0  0  0  0
   15.7511  -14.8803   19.6514 O   0  0  0  0  0  0  0  0  0  0  0  0
   13.5667  -14.0604   19.2759 C   0  0  0  0  0  0  0  0  0  0  0  0
   12.9714  -15.4088   19.1189 C   0  0  2  0  0  0  0  0  0  0  0  0
   12.9909  -15.8587   17.7307 N   0  0  0  0  0  0  0  0  0  0  0  0
   11.6326  -15.6063   19.7261 C   0  0  0  0  0  0  0  0  0  0  0  0
   10.5599  -15.1723   19.2416 O   0  0  0  0  0  0  0  0  0  0  0  0
   11.4845  -16.3355   20.9537 N   0  0  0  0  0  0  0  0  0  0  0  0
   10.1099  -16.5690   21.5317 C   0  0  1  0  0  0  0  0  0  0  0  0
    9.8124  -17.9881   21.2135 C   0  0  0  0  0  0  0  0  0  0  0  0
    8.6517  -18.6280   21.7976 C   0  0  0  0  0  0  0  0  0  0  0  0
    7.3684  -18.0910   21.5766 C   0  0  0  0  0  0  0  0  0  0  0  0
    6.4572  -18.8445   22.2052 N   0  0  0  0  0  0  0  0  0  0  0  0
    7.1103  -19.8400   22.8177 C   0  0  0  0  0  0  0  0  0  0  0  0
    8.4155  -19.6852   22.5574 N   0  0  0  0  0  0  0  0  0  0  0  0
   10.2068  -16.2476   22.9733 C   0  0  0  0  0  0  0  0  0  0  0  0
   11.2964  -16.4989   23.6031 O   0  0  0  0  0  0  0  0  0  0  0  0
    9.1824  -15.6668   23.7399 N   0  0  0  0  0  0  0  0  0  0  0  0
    9.3347  -15.5885   25.2086 C   0  0  1  0  0  0  0  0  0  0  0  0
    8.1265  -14.8626   25.7407 C   0  0  0  0  0  0  0  0  0  0  0  0
    8.1785  -13.3811   25.5700 C   0  0  0  0  0  0  0  0  0  0  0  0
    6.9129  -12.7744   26.0984 C   0  0  0  0  0  0  0  0  0  0  0  0
    6.9000  -11.2618   26.0019 C   0  0  0  0  0  0  0  0  0  0  0  0
    5.6292  -10.7410   26.4358 N   0  0  0  0  0  0  0  0  0  0  0  0
    9.5189  -16.9385   25.7749 C   0  0  0  0  0  0  0  0  0  0  0  0
    9.1439  -17.9987   25.2253 O   0  0  0  0  0  0  0  0  0  0  0  0
   10.1528  -17.0696   27.0088 O   0  0  0  0  0  0  0  0  0  0  0  0
  2  1  1  0
  2  3  2  0
  4  5  1  0
  4  2  1  0
  5  7  1  0
  5  6  1  6
  7  8  2  0
  9 10  1  0
  9  7  1  0
 11 12  1  0
 10 11  1  1
 12 16  1  0
 13 14  1  0
 13 12  2  0
 14 15  1  0
 15 16  2  0
 17 18  2  0
 17 10  1  0
 19 17  1  0
 20 19  1  0
 20 26  1  0
 20 21  1  1
 22 21  1  0
 23 22  1  0
 24 25  1  0
 24 23  1  0
 26 28  1  0
 27 26  2  0
M  END
$$$$
