NHK.pdb
     RDKit          3D

 28 28  0  0  1  0  0  0  0  0999 V2000
    7.6648  -12.2161   17.7364 N   0  0  0  0  0  0  0  0  0  0  0  0
    8.4620  -13.3134   18.1588 C   0  0  0  0  0  0  0  0  0  0  0  0
    9.3671  -13.7115   17.4039 O   0  0  0  0  0  0  0  0  0  0  0  0
    8.2190  -13.9568   19.4548 C   0  0  0  0  0  0  0  0  0  0  0  0
    8.6310  -15.3801   19.4935 C   0  0  2  0  0  0  0  0  0  0  0  0
    7.9662  -16.1718   18.4634 N   0  0  0  0  0  0  0  0  0  0  0  0
    8.5508  -16.0476   20.8157 C   0  0  0  0  0  0  0  0  0  0  0  0
    7.4869  -16.2436   21.4509 O   0  0  0  0  0  0  0  0  0  0  0  0
    9.7362  -16.5258   21.4688 N   0  0  0  0  0  0  0  0  0  0  0  0
    9.6231  -17.3664   22.7173 C   0  0  1  0  0  0  0  0  0  0  0  0
   10.6496  -18.4247   22.5435 C   0  0  0  0  0  0  0  0  0  0  0  0
   10.3232  -19.6293   21.8084 C   0  0  0  0  0  0  0  0  0  0  0  0
    9.0004  -19.8533   21.3795 C   0  0  0  0  0  0  0  0  0  0  0  0
    8.9378  -21.0184   20.7225 N   0  0  0  0  0  0  0  0  0  0  0  0
   10.1689  -21.5448   20.7164 C   0  0  0  0  0  0  0  0  0  0  0  0
   10.9729  -20.6955   21.3705 N   0  0  0  0  0  0  0  0  0  0  0  0
    9.8440  -16.4476   23.8566 C   0  0  0  0  0  0  0  0  0  0  0  0
   10.8607  -15.6645   23.8466 O   0  0  0  0  0  0  0  0  0  0  0  0
    9.0104  -16.3463   24.9832 N   0  0  0  0  0  0  0  0  0  0  0  0
    9.4346  -15.5048   26.1227 C   0  0  1  0  0  0  0  0  0  0  0  0
    8.2244  -14.7300   26.5754 C   0  0  0  0  0  0  0  0  0  0  0  0
    7.9819  -13.4721   25.8102 C   0  0  0  0  0  0  0  0  0  0  0  0
    6.7640  -12.7860   26.3534 C   0  0  0  0  0  0  0  0  0  0  0  0
    6.4931  -11.4520   25.6868 C   0  0  0  0  0  0  0  0  0  0  0  0
    5.2826  -10.8679   26.2041 N   0  0  0  0  0  0  0  0  0  0  0  0
   10.0383  -16.3415   27.1776 C   0  0  0  0  0  0  0  0  0  0  0  0
    9.9589  -17.5895   27.2294 O   0  0  0  0  0  0  0  0  0  0  0  0
   10.7530  -15.7220   28.2008 O   0  0  0  0  0  0  0  0  0  0  0  0
  2  1  1  0
  2  3  2  0
  4  5  1  0
  4  2  1  0
  5  7  1  0
  5  6  1  6
  7  8  2  0
  9 10  1  0
  9  7  1  0
 11 12  1  0
 10 11  1  6
 12 16  1  0
 13 14  1  0
 13 12  2  0
 14 15  1  0
 15 16  2  0
 17 18  2  0
 17 10  1  0
 19 17  1  0
 20 19  1  0
 20 26  1  0
 20 21  1  1
 22 21  1  0
 23 22  1  0
 24 25  1  0
 24 23  1  0
 26 28  1  0
 27 26  2  0
M  END
$$$$
