NHK.pdb
     RDKit          3D

 28 28  0  0  1  0  0  0  0  0999 V2000
   10.8339  -18.8696   15.1394 N   0  0  0  0  0  0  0  0  0  0  0  0
    9.9239  -17.7855   15.2611 C   0  0  0  0  0  0  0  0  0  0  0  0
    9.5145  -17.2381   14.2217 O   0  0  0  0  0  0  0  0  0  0  0  0
    9.4813  -17.3278   16.5829 C   0  0  0  0  0  0  0  0  0  0  0  0
   10.1477  -18.0315   17.7045 C   0  0  2  0  0  0  0  0  0  0  0  0
    9.4594  -19.2674   18.0631 N   0  0  0  0  0  0  0  0  0  0  0  0
   10.4395  -17.2138   18.9072 C   0  0  0  0  0  0  0  0  0  0  0  0
   11.4975  -16.5640   19.0869 O   0  0  0  0  0  0  0  0  0  0  0  0
    9.4872  -17.1172   19.9769 N   0  0  0  0  0  0  0  0  0  0  0  0
    9.7938  -16.2672   21.1859 C   0  0  1  0  0  0  0  0  0  0  0  0
    8.5703  -15.4496   21.3817 C   0  0  0  0  0  0  0  0  0  0  0  0
    8.3174  -14.3153   20.5171 C   0  0  0  0  0  0  0  0  0  0  0  0
    9.2501  -13.9714   19.5192 C   0  0  0  0  0  0  0  0  0  0  0  0
    8.8071  -12.9017   18.8467 N   0  0  0  0  0  0  0  0  0  0  0  0
    7.6289  -12.5511   19.3775 C   0  0  0  0  0  0  0  0  0  0  0  0
    7.3630  -13.4108   20.3703 N   0  0  0  0  0  0  0  0  0  0  0  0
   10.1122  -17.2078   22.2836 C   0  0  0  0  0  0  0  0  0  0  0  0
    9.2271  -18.0562   22.6629 O   0  0  0  0  0  0  0  0  0  0  0  0
   11.3387  -17.2630   22.9670 N   0  0  0  0  0  0  0  0  0  0  0  0
   11.5345  -18.2837   24.0188 C   0  0  1  0  0  0  0  0  0  0  0  0
   12.8008  -19.0277   23.6833 C   0  0  0  0  0  0  0  0  0  0  0  0
   12.7320  -19.8119   22.4156 C   0  0  0  0  0  0  0  0  0  0  0  0
   14.0826  -20.3900   22.1140 C   0  0  0  0  0  0  0  0  0  0  0  0
   14.1306  -21.1099   20.7810 C   0  0  0  0  0  0  0  0  0  0  0  0
   15.4581  -21.6067   20.5254 N   0  0  0  0  0  0  0  0  0  0  0  0
   11.5492  -17.6476   25.3502 C   0  0  0  0  0  0  0  0  0  0  0  0
   11.5523  -18.2693   26.4365 O   0  0  0  0  0  0  0  0  0  0  0  0
   11.5608  -16.2567   25.4310 O   0  0  0  0  0  0  0  0  0  0  0  0
  2  1  1  0
  2  3  2  0
  4  5  1  0
  4  2  1  0
  5  7  1  0
  5  6  1  1
  7  8  2  0
  9 10  1  0
  9  7  1  0
 11 12  1  0
 10 11  1  1
 12 16  1  0
 13 14  1  0
 13 12  2  0
 14 15  1  0
 15 16  2  0
 17 18  2  0
 17 10  1  0
 19 17  1  0
 20 19  1  0
 20 26  1  0
 20 21  1  6
 22 21  1  0
 23 22  1  0
 24 25  1  0
 24 23  1  0
 26 28  1  0
 27 26  2  0
M  END
$$$$
