QPR.pdb
     RDKit          3D

 28 28  0  0  1  0  0  0  0  0999 V2000
   11.1866  -16.2053   29.9408 N   0  0  0  0  0  0  0  0  0  0  0  0
   10.5879  -15.0443   29.4053 C   0  0  0  0  0  0  0  0  0  0  0  0
   11.2381  -13.9769   29.3097 O   0  0  0  0  0  0  0  0  0  0  0  0
    9.1524  -15.1516   28.9627 C   0  0  0  0  0  0  0  0  0  0  0  0
    8.7051  -16.5752   28.9517 C   0  0  0  0  0  0  0  0  0  0  0  0
    7.2617  -16.6786   28.4910 C   0  0  2  0  0  0  0  0  0  0  0  0
    6.8289  -18.0469   28.6465 N   0  0  0  0  0  0  0  0  0  0  0  0
    7.1059  -16.2058   27.1031 C   0  0  0  0  0  0  0  0  0  0  0  0
    7.0037  -17.1178   26.2031 O   0  0  0  0  0  0  0  0  0  0  0  0
    7.0637  -14.8666   26.7100 N   0  0  0  0  0  0  0  0  0  0  0  0
    7.1703  -13.7320   27.6349 C   0  0  0  0  0  0  0  0  0  0  0  0
    6.1309  -12.7944   27.0842 C   0  0  0  0  0  0  0  0  0  0  0  0
    6.4127  -12.8758   25.6038 C   0  0  0  0  0  0  0  0  0  0  0  0
    6.9100  -14.3021   25.4207 C   0  0  1  0  0  0  0  0  0  0  0  0
    8.2001  -14.2112   24.6832 C   0  0  0  0  0  0  0  0  0  0  0  0
    9.3178  -14.2949   25.2329 O   0  0  0  0  0  0  0  0  0  0  0  0
    7.2338  -12.5436   17.9516 N   0  0  0  0  0  0  0  0  0  0  0  0
    8.0598  -13.5784   17.4326 C   0  0  0  0  0  0  0  0  0  0  0  0
    9.0216  -13.2949   16.6237 N   0  0  0  0  0  0  0  0  0  0  0  0
    7.8710  -14.9419   17.7710 N   0  0  0  0  0  0  0  0  0  0  0  0
    8.4581  -15.4879   18.9374 C   0  0  0  0  0  0  0  0  0  0  0  0
    7.5392  -15.8838   20.0421 C   0  0  0  0  0  0  0  0  0  0  0  0
    7.4679  -14.8010   21.0828 C   0  0  0  0  0  0  0  0  0  0  0  0
    8.2351  -15.1165   22.3293 C   0  0  2  0  0  0  0  0  0  0  0  0
    8.1960  -14.0181   23.2735 N   0  0  0  0  0  0  0  0  0  0  0  0
    9.6168  -15.5775   22.0701 C   0  0  0  0  0  0  0  0  0  0  0  0
    9.8951  -16.6586   21.4795 O   0  0  0  0  0  0  0  0  0  0  0  0
   10.7006  -14.8134   22.4802 O   0  0  0  0  0  0  0  0  0  0  0  0
  2  1  1  0
  3  2  2  0
  4  2  1  0
  5  4  1  0
  6  8  1  0
  6  5  1  0
  6  7  1  6
  8  9  2  0
 10 11  1  0
 10  8  1  0
 12 11  1  0
 13 14  1  0
 13 12  1  0
 14 10  1  0
 15 25  1  0
 14 15  1  1
 16 15  2  0
 18 17  1  0
 19 18  2  0
 20 18  1  0
 21 20  1  0
 22 21  1  0
 23 22  1  0
 24 23  1  6
 24 25  1  0
 26 24  1  0
 26 28  1  0
 27 26  2  0
M  END
$$$$
