QPR.pdb
     RDKit          3D

 28 28  0  0  1  0  0  0  0  0999 V2000
    7.0343  -18.7866   16.9301 N   0  0  0  0  0  0  0  0  0  0  0  0
    8.4380  -18.6585   16.8504 C   0  0  0  0  0  0  0  0  0  0  0  0
    9.1857  -19.6065   17.1874 O   0  0  0  0  0  0  0  0  0  0  0  0
    8.9822  -17.3469   16.3486 C   0  0  0  0  0  0  0  0  0  0  0  0
    7.8746  -16.3952   16.0414 C   0  0  0  0  0  0  0  0  0  0  0  0
    8.4069  -14.9786   15.9137 C   0  0  2  0  0  0  0  0  0  0  0  0
    9.2712  -14.9173   14.7592 N   0  0  0  0  0  0  0  0  0  0  0  0
    9.0993  -14.5523   17.1437 C   0  0  0  0  0  0  0  0  0  0  0  0
   10.3803  -14.4726   17.0728 O   0  0  0  0  0  0  0  0  0  0  0  0
    8.4727  -14.2378   18.3512 N   0  0  0  0  0  0  0  0  0  0  0  0
    7.0198  -14.2646   18.5577 C   0  0  0  0  0  0  0  0  0  0  0  0
    6.8083  -13.0229   19.3798 C   0  0  0  0  0  0  0  0  0  0  0  0
    7.9372  -13.1309   20.3757 C   0  0  0  0  0  0  0  0  0  0  0  0
    9.0322  -13.8346   19.5876 C   0  0  1  0  0  0  0  0  0  0  0  0
    9.4749  -14.9908   20.4145 C   0  0  0  0  0  0  0  0  0  0  0  0
    8.8234  -16.0497   20.5270 O   0  0  0  0  0  0  0  0  0  0  0  0
   17.3873  -14.8072   20.1173 N   0  0  0  0  0  0  0  0  0  0  0  0
   16.5629  -14.4299   19.0216 C   0  0  0  0  0  0  0  0  0  0  0  0
   17.0497  -13.7297   18.0560 N   0  0  0  0  0  0  0  0  0  0  0  0
   15.1962  -14.7965   18.9387 N   0  0  0  0  0  0  0  0  0  0  0  0
   14.6132  -15.6473   19.9080 C   0  0  0  0  0  0  0  0  0  0  0  0
   13.2861  -15.2477   20.4563 C   0  0  0  0  0  0  0  0  0  0  0  0
   12.6335  -16.4073   21.1561 C   0  0  0  0  0  0  0  0  0  0  0  0
   11.3094  -16.0695   21.7682 C   0  0  2  0  0  0  0  0  0  0  0  0
   10.7031  -14.9191   21.1293 N   0  0  0  0  0  0  0  0  0  0  0  0
   11.3600  -15.9255   23.2398 C   0  0  0  0  0  0  0  0  0  0  0  0
   11.8507  -16.7960   24.0121 O   0  0  0  0  0  0  0  0  0  0  0  0
   10.8521  -14.7880   23.8519 O   0  0  0  0  0  0  0  0  0  0  0  0
  2  1  1  0
  3  2  2  0
  4  2  1  0
  5  4  1  0
  6  8  1  0
  6  5  1  0
  6  7  1  6
  8  9  2  0
 10 11  1  0
 10  8  1  0
 12 11  1  0
 13 14  1  0
 13 12  1  0
 14 10  1  0
 15 25  1  0
 14 15  1  1
 16 15  2  0
 18 17  1  0
 19 18  2  0
 20 18  1  0
 21 20  1  0
 22 21  1  0
 23 22  1  0
 24 23  1  6
 24 25  1  0
 26 24  1  0
 26 28  1  0
 27 26  2  0
M  END
$$$$
