QPR.pdb
     RDKit          3D

 28 28  0  0  1  0  0  0  0  0999 V2000
   13.7787  -16.0384   16.1115 N   0  0  0  0  0  0  0  0  0  0  0  0
   12.8285  -16.9099   15.5363 C   0  0  0  0  0  0  0  0  0  0  0  0
   13.0001  -17.3699   14.3830 O   0  0  0  0  0  0  0  0  0  0  0  0
   11.6185  -17.2527   16.3649 C   0  0  0  0  0  0  0  0  0  0  0  0
   10.4029  -16.5648   15.8394 C   0  0  0  0  0  0  0  0  0  0  0  0
    9.2901  -16.5821   16.8727 C   0  0  2  0  0  0  0  0  0  0  0  0
    8.0985  -16.0334   16.2707 N   0  0  0  0  0  0  0  0  0  0  0  0
    9.6785  -15.8501   18.0924 C   0  0  0  0  0  0  0  0  0  0  0  0
   10.8242  -16.1505   18.5916 O   0  0  0  0  0  0  0  0  0  0  0  0
    8.9041  -14.8765   18.7265 N   0  0  0  0  0  0  0  0  0  0  0  0
    7.6093  -14.3986   18.2272 C   0  0  0  0  0  0  0  0  0  0  0  0
    7.7163  -12.9192   18.4772 C   0  0  0  0  0  0  0  0  0  0  0  0
    8.2931  -12.8951   19.8716 C   0  0  0  0  0  0  0  0  0  0  0  0
    9.1526  -14.1499   19.9159 C   0  0  1  0  0  0  0  0  0  0  0  0
    8.7460  -14.9008   21.1355 C   0  0  0  0  0  0  0  0  0  0  0  0
    7.7675  -15.6749   21.1764 O   0  0  0  0  0  0  0  0  0  0  0  0
   14.7725  -19.9322   23.7511 N   0  0  0  0  0  0  0  0  0  0  0  0
   13.6705  -20.3973   24.5204 C   0  0  0  0  0  0  0  0  0  0  0  0
   13.7289  -21.5416   25.1094 N   0  0  0  0  0  0  0  0  0  0  0  0
   12.4803  -19.6431   24.6743 N   0  0  0  0  0  0  0  0  0  0  0  0
   12.2581  -18.4739   23.9082 C   0  0  0  0  0  0  0  0  0  0  0  0
   10.9183  -17.8303   24.0192 C   0  0  0  0  0  0  0  0  0  0  0  0
   10.8244  -16.6452   23.0987 C   0  0  0  0  0  0  0  0  0  0  0  0
    9.6072  -15.8038   23.3274 C   0  0  2  0  0  0  0  0  0  0  0  0
    9.4912  -14.7513   22.3384 N   0  0  0  0  0  0  0  0  0  0  0  0
    9.5018  -15.2829   24.7082 C   0  0  0  0  0  0  0  0  0  0  0  0
    9.4627  -16.0195   25.7333 O   0  0  0  0  0  0  0  0  0  0  0  0
    9.4393  -13.9159   24.9401 O   0  0  0  0  0  0  0  0  0  0  0  0
  2  1  1  0
  3  2  2  0
  4  2  1  0
  5  4  1  0
  6  8  1  0
  6  5  1  0
  6  7  1  6
  8  9  2  0
 10 11  1  0
 10  8  1  0
 12 11  1  0
 13 14  1  0
 13 12  1  0
 14 10  1  0
 15 25  1  0
 14 15  1  1
 16 15  2  0
 18 17  1  0
 19 18  2  0
 20 18  1  0
 21 20  1  0
 22 21  1  0
 23 22  1  0
 24 23  1  1
 24 25  1  0
 26 24  1  0
 26 28  1  0
 27 26  2  0
M  END
$$$$
