QPR.pdb
     RDKit          3D

 28 28  0  0  1  0  0  0  0  0999 V2000
    4.7963  -17.6141   22.4590 N   0  0  0  0  0  0  0  0  0  0  0  0
    6.1530  -17.8448   22.7741 C   0  0  0  0  0  0  0  0  0  0  0  0
    6.5233  -18.9525   23.2292 O   0  0  0  0  0  0  0  0  0  0  0  0
    7.1165  -16.7111   22.5401 C   0  0  0  0  0  0  0  0  0  0  0  0
    6.3889  -15.4676   22.1513 C   0  0  0  0  0  0  0  0  0  0  0  0
    7.3481  -14.2938   22.0586 C   0  0  2  0  0  0  0  0  0  0  0  0
    8.2086  -14.4955   20.9174 N   0  0  0  0  0  0  0  0  0  0  0  0
    8.1168  -14.1288   23.3061 C   0  0  0  0  0  0  0  0  0  0  0  0
    9.3397  -14.5231   23.2730 O   0  0  0  0  0  0  0  0  0  0  0  0
    7.6178  -13.5869   24.4922 N   0  0  0  0  0  0  0  0  0  0  0  0
    6.2497  -13.0811   24.6562 C   0  0  0  0  0  0  0  0  0  0  0  0
    6.4835  -11.8328   25.4623 C   0  0  0  0  0  0  0  0  0  0  0  0
    7.4713  -12.3253   26.4916 C   0  0  0  0  0  0  0  0  0  0  0  0
    8.2549  -13.3922   25.7414 C   0  0  1  0  0  0  0  0  0  0  0  0
    8.2271  -14.6154   26.5897 C   0  0  0  0  0  0  0  0  0  0  0  0
    7.2379  -15.3716   26.6799 O   0  0  0  0  0  0  0  0  0  0  0  0
    6.9842  -20.5208   26.4532 N   0  0  0  0  0  0  0  0  0  0  0  0
    8.2085  -21.2354   26.3406 C   0  0  0  0  0  0  0  0  0  0  0  0
    8.2897  -22.4511   26.7595 N   0  0  0  0  0  0  0  0  0  0  0  0
    9.3739  -20.6599   25.7752 N   0  0  0  0  0  0  0  0  0  0  0  0
   10.0476  -19.5985   26.4255 C   0  0  0  0  0  0  0  0  0  0  0  0
    9.3281  -18.2974   26.5315 C   0  0  0  0  0  0  0  0  0  0  0  0
   10.2308  -17.2404   27.1045 C   0  0  0  0  0  0  0  0  0  0  0  0
    9.5225  -16.2641   27.9917 C   0  0  2  0  0  0  0  0  0  0  0  0
    9.3737  -14.9720   27.3531 N   0  0  0  0  0  0  0  0  0  0  0  0
   10.1203  -16.1520   29.3403 C   0  0  0  0  0  0  0  0  0  0  0  0
   10.1120  -17.0864   30.1899 O   0  0  0  0  0  0  0  0  0  0  0  0
   10.7358  -14.9738   29.7398 O   0  0  0  0  0  0  0  0  0  0  0  0
  2  1  1  0
  3  2  2  0
  4  2  1  0
  5  4  1  0
  6  8  1  0
  6  5  1  0
  6  7  1  6
  8  9  2  0
 10 11  1  0
 10  8  1  0
 12 11  1  0
 13 14  1  0
 13 12  1  0
 14 10  1  0
 15 25  1  0
 14 15  1  1
 16 15  2  0
 18 17  1  0
 19 18  2  0
 20 18  1  0
 21 20  1  0
 22 21  1  0
 23 22  1  0
 24 23  1  6
 24 25  1  0
 26 24  1  0
 26 28  1  0
 27 26  2  0
M  END
$$$$
