LNP.pdb
     RDKit          3D

 24 24  0  0  1  0  0  0  0  0999 V2000
    9.7625  -13.9481   19.3399 C   0  0  0  0  0  0  0  0  0  0  0  0
    8.3214  -13.5716   19.2642 C   0  0  2  0  0  0  0  0  0  0  0  0
    8.1852  -12.1470   18.7749 C   0  0  0  0  0  0  0  0  0  0  0  0
    7.5710  -13.7872   20.5678 C   0  0  0  0  0  0  0  0  0  0  0  0
    7.8231  -15.2019   21.0082 C   0  0  2  0  0  0  0  0  0  0  0  0
    7.0852  -16.0991   20.1404 N   0  0  0  0  0  0  0  0  0  0  0  0
    7.4581  -15.4154   22.4346 C   0  0  0  0  0  0  0  0  0  0  0  0
    6.3210  -15.0206   22.7832 O   0  0  0  0  0  0  0  0  0  0  0  0
    6.1302  -18.5083   23.1070 N   0  0  0  0  0  0  0  0  0  0  0  0
    6.3036  -17.8332   24.3463 C   0  0  0  0  0  0  0  0  0  0  0  0
    5.3181  -17.3736   24.9624 O   0  0  0  0  0  0  0  0  0  0  0  0
    7.6612  -17.6363   24.9738 C   0  0  0  0  0  0  0  0  0  0  0  0
    8.0258  -16.1706   24.7774 C   0  0  2  0  0  0  0  0  0  0  0  0
    8.3182  -16.0201   23.3626 N   0  0  0  0  0  0  0  0  0  0  0  0
    9.1583  -15.7200   25.5769 C   0  0  0  0  0  0  0  0  0  0  0  0
   10.2389  -16.4039   25.4559 O   0  0  0  0  0  0  0  0  0  0  0  0
    9.2107  -14.6258   26.4630 N   0  0  0  0  0  0  0  0  0  0  0  0
    8.2928  -13.5185   26.5825 C   0  0  0  0  0  0  0  0  0  0  0  0
    8.2158  -13.4211   28.1152 C   0  0  0  0  0  0  0  0  0  0  0  0
    9.7214  -13.3251   28.3971 C   0  0  0  0  0  0  0  0  0  0  0  0
   10.2542  -14.4181   27.4638 C   0  0  1  0  0  0  0  0  0  0  0  0
   10.4272  -15.6132   28.3346 C   0  0  0  0  0  0  0  0  0  0  0  0
   11.5497  -15.6170   29.1540 O   0  0  0  0  0  0  0  0  0  0  0  0
    9.6378  -16.5867   28.3661 O   0  0  0  0  0  0  0  0  0  0  0  0
  2  1  1  1
  2  3  1  0
  4  5  1  0
  4  2  1  0
  5  6  1  6
  5  7  1  0
  7  8  2  0
  9 10  1  0
 10 12  1  0
 11 10  2  0
 13 12  1  6
 14  7  1  0
 14 13  1  0
 15 13  1  0
 15 16  2  0
 17 15  1  0
 18 17  1  0
 19 18  1  0
 20 21  1  0
 20 19  1  0
 21 17  1  0
 21 22  1  1
 23 22  1  0
 24 22  2  0
M  END
$$$$
