LNP.pdb
     RDKit          3D

 24 24  0  0  1  0  0  0  0  0999 V2000
    9.5953  -13.5860   20.2222 C   0  0  0  0  0  0  0  0  0  0  0  0
    8.4520  -13.4245   19.2784 C   0  0  2  0  0  0  0  0  0  0  0  0
    7.8323  -12.0552   19.4480 C   0  0  0  0  0  0  0  0  0  0  0  0
    7.4113  -14.5255   19.3953 C   0  0  0  0  0  0  0  0  0  0  0  0
    8.0135  -15.6345   20.2117 C   0  0  2  0  0  0  0  0  0  0  0  0
    7.8024  -16.8909   19.5194 N   0  0  0  0  0  0  0  0  0  0  0  0
    7.4530  -15.6808   21.5891 C   0  0  0  0  0  0  0  0  0  0  0  0
    6.2075  -15.5822   21.6866 O   0  0  0  0  0  0  0  0  0  0  0  0
    5.9505  -17.7371   26.0908 N   0  0  0  0  0  0  0  0  0  0  0  0
    7.3394  -17.6794   25.7923 C   0  0  0  0  0  0  0  0  0  0  0  0
    8.1895  -17.7909   26.7017 O   0  0  0  0  0  0  0  0  0  0  0  0
    7.8547  -17.4824   24.3883 C   0  0  0  0  0  0  0  0  0  0  0  0
    7.7287  -15.9961   24.0802 C   0  0  2  0  0  0  0  0  0  0  0  0
    8.2487  -15.8238   22.7349 N   0  0  0  0  0  0  0  0  0  0  0  0
    8.4384  -15.1266   25.0102 C   0  0  0  0  0  0  0  0  0  0  0  0
    9.6682  -15.4247   25.2310 O   0  0  0  0  0  0  0  0  0  0  0  0
    7.9394  -13.9997   25.6930 N   0  0  0  0  0  0  0  0  0  0  0  0
    6.6934  -13.3009   25.4882 C   0  0  0  0  0  0  0  0  0  0  0  0
    6.2908  -13.0715   26.9545 C   0  0  0  0  0  0  0  0  0  0  0  0
    7.5869  -12.3990   27.4271 C   0  0  0  0  0  0  0  0  0  0  0  0
    8.6326  -13.3151   26.7814 C   0  0  1  0  0  0  0  0  0  0  0  0
    9.0313  -14.2601   27.8605 C   0  0  0  0  0  0  0  0  0  0  0  0
    9.8950  -13.7580   28.8265 O   0  0  0  0  0  0  0  0  0  0  0  0
    8.6409  -15.4489   27.9407 O   0  0  0  0  0  0  0  0  0  0  0  0
  2  1  1  1
  2  3  1  0
  4  5  1  0
  4  2  1  0
  5  6  1  6
  5  7  1  0
  7  8  2  0
  9 10  1  0
 10 12  1  0
 11 10  2  0
 13 12  1  1
 14  7  1  0
 14 13  1  0
 15 13  1  0
 15 16  2  0
 17 15  1  0
 18 17  1  0
 19 18  1  0
 20 21  1  0
 20 19  1  0
 21 17  1  0
 21 22  1  1
 23 22  1  0
 24 22  2  0
M  END
$$$$
