LNP.pdb
     RDKit          3D

 24 24  0  0  1  0  0  0  0  0999 V2000
    9.2680  -12.9276   20.4164 C   0  0  0  0  0  0  0  0  0  0  0  0
    8.3379  -13.4685   19.3837 C   0  0  2  0  0  0  0  0  0  0  0  0
    7.9279  -12.3675   18.4311 C   0  0  0  0  0  0  0  0  0  0  0  0
    7.1283  -14.1763   19.9709 C   0  0  0  0  0  0  0  0  0  0  0  0
    7.5920  -15.5047   20.4995 C   0  0  2  0  0  0  0  0  0  0  0  0
    7.1512  -16.5471   19.5931 N   0  0  0  0  0  0  0  0  0  0  0  0
    7.1043  -15.7556   21.8825 C   0  0  0  0  0  0  0  0  0  0  0  0
    5.9134  -16.1298   21.9932 O   0  0  0  0  0  0  0  0  0  0  0  0
    6.6546  -16.8663   26.7799 N   0  0  0  0  0  0  0  0  0  0  0  0
    7.1767  -17.8216   25.8653 C   0  0  0  0  0  0  0  0  0  0  0  0
    7.2625  -19.0266   26.1858 O   0  0  0  0  0  0  0  0  0  0  0  0
    7.6490  -17.4409   24.4842 C   0  0  0  0  0  0  0  0  0  0  0  0
    7.4994  -15.9294   24.3714 C   0  0  2  0  0  0  0  0  0  0  0  0
    7.9080  -15.5895   23.0196 N   0  0  0  0  0  0  0  0  0  0  0  0
    8.2835  -15.1734   25.3401 C   0  0  0  0  0  0  0  0  0  0  0  0
    9.4541  -15.6350   25.5984 O   0  0  0  0  0  0  0  0  0  0  0  0
    7.9134  -13.9984   26.0242 N   0  0  0  0  0  0  0  0  0  0  0  0
    6.7043  -13.2218   25.8919 C   0  0  0  0  0  0  0  0  0  0  0  0
    6.4307  -12.9292   27.3765 C   0  0  0  0  0  0  0  0  0  0  0  0
    7.8006  -12.3349   27.7310 C   0  0  0  0  0  0  0  0  0  0  0  0
    8.7313  -13.3358   27.0370 C   0  0  1  0  0  0  0  0  0  0  0  0
    9.1478  -14.2787   28.1112 C   0  0  0  0  0  0  0  0  0  0  0  0
    8.5674  -15.5409   28.0777 O   0  0  0  0  0  0  0  0  0  0  0  0
    9.9693  -14.0018   29.0171 O   0  0  0  0  0  0  0  0  0  0  0  0
  2  1  1  1
  2  3  1  0
  4  5  1  0
  4  2  1  0
  5  6  1  6
  5  7  1  0
  7  8  2  0
  9 10  1  0
 10 12  1  0
 11 10  2  0
 13 12  1  1
 14  7  1  0
 14 13  1  0
 15 13  1  0
 15 16  2  0
 17 15  1  0
 18 17  1  0
 19 18  1  0
 20 21  1  0
 20 19  1  0
 21 17  1  0
 21 22  1  1
 23 22  1  0
 24 22  2  0
M  END
$$$$
