LNP.pdb
     RDKit          3D

 24 24  0  0  1  0  0  0  0  0999 V2000
    9.7197  -14.0175   19.3645 C   0  0  0  0  0  0  0  0  0  0  0  0
    8.3158  -13.5296   19.4873 C   0  0  2  0  0  0  0  0  0  0  0  0
    8.2310  -12.0852   19.0466 C   0  0  0  0  0  0  0  0  0  0  0  0
    7.7274  -13.7243   20.8747 C   0  0  0  0  0  0  0  0  0  0  0  0
    7.6778  -15.2022   21.1435 C   0  0  2  0  0  0  0  0  0  0  0  0
    6.6973  -15.8043   20.2611 N   0  0  0  0  0  0  0  0  0  0  0  0
    7.3706  -15.5000   22.5685 C   0  0  0  0  0  0  0  0  0  0  0  0
    6.2269  -15.1813   22.9694 O   0  0  0  0  0  0  0  0  0  0  0  0
    5.7942  -18.6760   23.6278 N   0  0  0  0  0  0  0  0  0  0  0  0
    6.3199  -18.0453   24.7885 C   0  0  0  0  0  0  0  0  0  0  0  0
    5.5569  -17.6400   25.6917 O   0  0  0  0  0  0  0  0  0  0  0  0
    7.7996  -17.8325   24.9901 C   0  0  0  0  0  0  0  0  0  0  0  0
    8.0495  -16.3363   24.8534 C   0  0  2  0  0  0  0  0  0  0  0  0
    8.2898  -16.1012   23.4403 N   0  0  0  0  0  0  0  0  0  0  0  0
    9.1679  -15.8383   25.6446 C   0  0  0  0  0  0  0  0  0  0  0  0
   10.2674  -16.4938   25.5380 O   0  0  0  0  0  0  0  0  0  0  0  0
    9.1883  -14.7256   26.5088 N   0  0  0  0  0  0  0  0  0  0  0  0
    8.2556  -13.6269   26.5852 C   0  0  0  0  0  0  0  0  0  0  0  0
    8.1437  -13.4991   28.1135 C   0  0  0  0  0  0  0  0  0  0  0  0
    9.6416  -13.3797   28.4262 C   0  0  0  0  0  0  0  0  0  0  0  0
   10.2071  -14.4853   27.5276 C   0  0  1  0  0  0  0  0  0  0  0  0
   10.3743  -15.6602   28.4266 C   0  0  0  0  0  0  0  0  0  0  0  0
   11.4737  -15.6302   29.2762 O   0  0  0  0  0  0  0  0  0  0  0  0
    9.5993  -16.6453   28.4560 O   0  0  0  0  0  0  0  0  0  0  0  0
  2  1  1  1
  2  3  1  0
  4  5  1  0
  4  2  1  0
  5  6  1  6
  5  7  1  0
  7  8  2  0
  9 10  1  0
 10 12  1  0
 11 10  2  0
 13 12  1  6
 14  7  1  0
 14 13  1  0
 15 13  1  0
 15 16  2  0
 17 15  1  0
 18 17  1  0
 19 18  1  0
 20 21  1  0
 20 19  1  0
 21 17  1  0
 21 22  1  1
 23 22  1  0
 24 22  2  0
M  END
$$$$
