LNP.pdb
     RDKit          3D

 24 24  0  0  1  0  0  0  0  0999 V2000
    9.5186  -13.7398   20.3584 C   0  0  0  0  0  0  0  0  0  0  0  0
    8.5408  -13.8946   19.2430 C   0  0  2  0  0  0  0  0  0  0  0  0
    8.1644  -12.5363   18.6944 C   0  0  0  0  0  0  0  0  0  0  0  0
    7.3112  -14.7017   19.6246 C   0  0  0  0  0  0  0  0  0  0  0  0
    7.7680  -15.8444   20.4875 C   0  0  2  0  0  0  0  0  0  0  0  0
    7.4143  -17.0909   19.8365 N   0  0  0  0  0  0  0  0  0  0  0  0
    7.1927  -15.7734   21.8577 C   0  0  0  0  0  0  0  0  0  0  0  0
    5.9579  -15.5731   21.9331 O   0  0  0  0  0  0  0  0  0  0  0  0
    6.5896  -18.9119   23.0064 N   0  0  0  0  0  0  0  0  0  0  0  0
    6.2951  -17.9912   24.0490 C   0  0  0  0  0  0  0  0  0  0  0  0
    5.1106  -17.7140   24.3356 O   0  0  0  0  0  0  0  0  0  0  0  0
    7.3754  -17.3094   24.8512 C   0  0  0  0  0  0  0  0  0  0  0  0
    7.4320  -15.8652   24.3707 C   0  0  2  0  0  0  0  0  0  0  0  0
    7.9640  -15.9165   23.0201 N   0  0  0  0  0  0  0  0  0  0  0  0
    8.2470  -14.9866   25.2005 C   0  0  0  0  0  0  0  0  0  0  0  0
    9.4868  -15.3052   25.3071 O   0  0  0  0  0  0  0  0  0  0  0  0
    7.8397  -13.8312   25.8966 N   0  0  0  0  0  0  0  0  0  0  0  0
    6.6182  -13.0763   25.7525 C   0  0  0  0  0  0  0  0  0  0  0  0
    6.3088  -12.8148   27.2359 C   0  0  0  0  0  0  0  0  0  0  0  0
    7.6591  -12.1999   27.6286 C   0  0  0  0  0  0  0  0  0  0  0  0
    8.6235  -13.1702   26.9370 C   0  0  1  0  0  0  0  0  0  0  0  0
    9.0370  -14.1231   28.0035 C   0  0  0  0  0  0  0  0  0  0  0  0
   10.0075  -13.6688   28.8884 O   0  0  0  0  0  0  0  0  0  0  0  0
    8.5702  -15.2786   28.1407 O   0  0  0  0  0  0  0  0  0  0  0  0
  2  1  1  1
  2  3  1  0
  4  5  1  0
  4  2  1  0
  5  6  1  6
  5  7  1  0
  7  8  2  0
  9 10  1  0
 10 12  1  0
 11 10  2  0
 13 12  1  1
 14  7  1  0
 14 13  1  0
 15 13  1  0
 15 16  2  0
 17 15  1  0
 18 17  1  0
 19 18  1  0
 20 21  1  0
 20 19  1  0
 21 17  1  0
 21 22  1  1
 23 22  1  0
 24 22  2  0
M  END
$$$$
