LNP.pdb
     RDKit          3D

 24 24  0  0  1  0  0  0  0  0999 V2000
    9.1465  -13.7329   20.5147 C   0  0  0  0  0  0  0  0  0  0  0  0
    8.2429  -13.9587   19.3499 C   0  0  2  0  0  0  0  0  0  0  0  0
    7.7588  -12.6324   18.8077 C   0  0  0  0  0  0  0  0  0  0  0  0
    7.0836  -14.8920   19.6562 C   0  0  0  0  0  0  0  0  0  0  0  0
    7.5894  -15.9513   20.5949 C   0  0  2  0  0  0  0  0  0  0  0  0
    7.4390  -17.2468   19.9611 N   0  0  0  0  0  0  0  0  0  0  0  0
    6.8907  -15.9128   21.9079 C   0  0  0  0  0  0  0  0  0  0  0  0
    5.6399  -15.9824   21.8748 O   0  0  0  0  0  0  0  0  0  0  0  0
    8.3340  -17.6842   23.9612 N   0  0  0  0  0  0  0  0  0  0  0  0
    7.1286  -17.7768   24.7095 C   0  0  0  0  0  0  0  0  0  0  0  0
    6.7824  -18.8618   25.2242 O   0  0  0  0  0  0  0  0  0  0  0  0
    6.2168  -16.5934   24.9186 C   0  0  0  0  0  0  0  0  0  0  0  0
    6.9501  -15.3742   24.3751 C   0  0  2  0  0  0  0  0  0  0  0  0
    7.5665  -15.8029   23.1317 N   0  0  0  0  0  0  0  0  0  0  0  0
    7.9581  -14.8277   25.2752 C   0  0  0  0  0  0  0  0  0  0  0  0
    9.0300  -15.5233   25.4070 O   0  0  0  0  0  0  0  0  0  0  0  0
    7.8991  -13.6298   26.0148 N   0  0  0  0  0  0  0  0  0  0  0  0
    6.9293  -12.5645   25.9284 C   0  0  0  0  0  0  0  0  0  0  0  0
    6.7355  -12.2800   27.4271 C   0  0  0  0  0  0  0  0  0  0  0  0
    8.2108  -12.0728   27.7958 C   0  0  0  0  0  0  0  0  0  0  0  0
    8.8564  -13.2456   27.0490 C   0  0  1  0  0  0  0  0  0  0  0  0
    9.0146  -14.3119   28.0760 C   0  0  0  0  0  0  0  0  0  0  0  0
   10.0634  -14.1479   28.9730 O   0  0  0  0  0  0  0  0  0  0  0  0
    8.2743  -15.3193   28.1707 O   0  0  0  0  0  0  0  0  0  0  0  0
  2  1  1  1
  2  3  1  0
  4  5  1  0
  4  2  1  0
  5  6  1  6
  5  7  1  0
  7  8  2  0
  9 10  1  0
 10 12  1  0
 11 10  2  0
 13 12  1  1
 14  7  1  0
 14 13  1  0
 15 13  1  0
 15 16  2  0
 17 15  1  0
 18 17  1  0
 19 18  1  0
 20 21  1  0
 20 19  1  0
 21 17  1  0
 21 22  1  1
 23 22  1  0
 24 22  2  0
M  END
$$$$
