LNP.pdb
     RDKit          3D

 24 24  0  0  1  0  0  0  0  0999 V2000
    7.6205  -12.1367   19.4288 C   0  0  0  0  0  0  0  0  0  0  0  0
    8.3162  -13.3113   20.0292 C   0  0  2  0  0  0  0  0  0  0  0  0
    9.8025  -13.0436   20.1125 C   0  0  0  0  0  0  0  0  0  0  0  0
    8.0248  -14.6184   19.3113 C   0  0  0  0  0  0  0  0  0  0  0  0
    8.4668  -15.7386   20.2106 C   0  0  2  0  0  0  0  0  0  0  0  0
    8.3061  -16.9949   19.5044 N   0  0  0  0  0  0  0  0  0  0  0  0
    7.7206  -15.7482   21.4977 C   0  0  0  0  0  0  0  0  0  0  0  0
    6.4849  -15.9426   21.4230 O   0  0  0  0  0  0  0  0  0  0  0  0
    5.6767  -17.4180   25.8097 N   0  0  0  0  0  0  0  0  0  0  0  0
    7.0666  -17.5738   25.5540 C   0  0  0  0  0  0  0  0  0  0  0  0
    7.8418  -17.9438   26.4619 O   0  0  0  0  0  0  0  0  0  0  0  0
    7.6720  -17.3047   24.1988 C   0  0  0  0  0  0  0  0  0  0  0  0
    7.6976  -15.7920   24.0233 C   0  0  2  0  0  0  0  0  0  0  0  0
    8.3374  -15.5515   22.7416 N   0  0  0  0  0  0  0  0  0  0  0  0
    8.4009  -15.0755   25.0800 C   0  0  0  0  0  0  0  0  0  0  0  0
    9.5823  -15.4982   25.3553 O   0  0  0  0  0  0  0  0  0  0  0  0
    7.9425  -13.9762   25.8329 N   0  0  0  0  0  0  0  0  0  0  0  0
    6.7066  -13.2437   25.6968 C   0  0  0  0  0  0  0  0  0  0  0  0
    6.3455  -13.0832   27.1829 C   0  0  0  0  0  0  0  0  0  0  0  0
    7.6667  -12.4616   27.6558 C   0  0  0  0  0  0  0  0  0  0  0  0
    8.6767  -13.3629   26.9367 C   0  0  1  0  0  0  0  0  0  0  0  0
    9.0825  -14.3704   27.9550 C   0  0  0  0  0  0  0  0  0  0  0  0
    9.9643  -13.9305   28.9348 O   0  0  0  0  0  0  0  0  0  0  0  0
    8.6828  -15.5587   27.9738 O   0  0  0  0  0  0  0  0  0  0  0  0
  2  1  1  6
  2  3  1  0
  4  5  1  0
  4  2  1  0
  5  6  1  6
  5  7  1  0
  7  8  2  0
  9 10  1  0
 10 12  1  0
 11 10  2  0
 13 12  1  1
 14  7  1  0
 14 13  1  0
 15 13  1  0
 15 16  2  0
 17 15  1  0
 18 17  1  0
 19 18  1  0
 20 21  1  0
 20 19  1  0
 21 17  1  0
 21 22  1  1
 23 22  1  0
 24 22  2  0
M  END
$$$$
