LNP.pdb
     RDKit          3D

 24 24  0  0  1  0  0  0  0  0999 V2000
    8.0384  -13.1209   21.1695 C   0  0  0  0  0  0  0  0  0  0  0  0
    8.5379  -13.4056   19.7934 C   0  0  2  0  0  0  0  0  0  0  0  0
    8.2084  -12.2496   18.8755 C   0  0  0  0  0  0  0  0  0  0  0  0
    8.0376  -14.7249   19.2296 C   0  0  0  0  0  0  0  0  0  0  0  0
    8.4415  -15.8103   20.1875 C   0  0  2  0  0  0  0  0  0  0  0  0
    8.2450  -17.0957   19.5459 N   0  0  0  0  0  0  0  0  0  0  0  0
    7.6904  -15.7310   21.4694 C   0  0  0  0  0  0  0  0  0  0  0  0
    6.4546  -15.9279   21.4033 O   0  0  0  0  0  0  0  0  0  0  0  0
    5.6788  -17.4596   25.7656 N   0  0  0  0  0  0  0  0  0  0  0  0
    7.0751  -17.5117   25.5032 C   0  0  0  0  0  0  0  0  0  0  0  0
    7.8818  -17.8016   26.4127 O   0  0  0  0  0  0  0  0  0  0  0  0
    7.6502  -17.2236   24.1387 C   0  0  0  0  0  0  0  0  0  0  0  0
    7.6993  -15.7080   23.9953 C   0  0  2  0  0  0  0  0  0  0  0  0
    8.3029  -15.4509   22.6994 N   0  0  0  0  0  0  0  0  0  0  0  0
    8.4492  -15.0285   25.0444 C   0  0  0  0  0  0  0  0  0  0  0  0
    9.6012  -15.5240   25.3226 O   0  0  0  0  0  0  0  0  0  0  0  0
    8.0641  -13.8946   25.7870 N   0  0  0  0  0  0  0  0  0  0  0  0
    6.8692  -13.0957   25.6570 C   0  0  0  0  0  0  0  0  0  0  0  0
    6.5393  -12.8943   27.1453 C   0  0  0  0  0  0  0  0  0  0  0  0
    7.8999  -12.3414   27.5909 C   0  0  0  0  0  0  0  0  0  0  0  0
    8.8473  -13.3082   26.8716 C   0  0  1  0  0  0  0  0  0  0  0  0
    9.2106  -14.3226   27.8990 C   0  0  0  0  0  0  0  0  0  0  0  0
   10.1523  -13.9292   28.8423 O   0  0  0  0  0  0  0  0  0  0  0  0
    8.7265  -15.4777   27.9558 O   0  0  0  0  0  0  0  0  0  0  0  0
  2  1  1  1
  2  3  1  0
  4  5  1  0
  4  2  1  0
  5  6  1  6
  5  7  1  0
  7  8  2  0
  9 10  1  0
 10 12  1  0
 11 10  2  0
 13 12  1  1
 14  7  1  0
 14 13  1  0
 15 13  1  0
 15 16  2  0
 17 15  1  0
 18 17  1  0
 19 18  1  0
 20 21  1  0
 20 19  1  0
 21 17  1  0
 21 22  1  1
 23 22  1  0
 24 22  2  0
M  END
$$$$
