AKG.pdb
     RDKit          3D

 19 18  0  0  1  0  0  0  0  0999 V2000
    7.7111  -18.5560   18.6858 C   0  0  0  0  0  0  0  0  0  0  0  0
    6.5749  -19.4907   19.0375 C   0  0  2  0  0  0  0  0  0  0  0  0
    5.7424  -19.6282   17.8815 N   0  0  0  0  0  0  0  0  0  0  0  0
    5.7761  -18.8551   20.1333 C   0  0  0  0  0  0  0  0  0  0  0  0
    5.5380  -17.5994   20.0716 O   0  0  0  0  0  0  0  0  0  0  0  0
    5.2965  -19.6454   21.2179 N   0  0  0  0  0  0  0  0  0  0  0  0
    4.4594  -19.1533   22.2629 C   0  0  1  0  0  0  0  0  0  0  0  0
    3.2142  -19.9287   22.4536 C   0  0  0  0  0  0  0  0  0  0  0  0
    1.9353  -19.1857   22.4658 C   0  0  0  0  0  0  0  0  0  0  0  0
    0.8068  -20.0379   21.9387 C   0  0  0  0  0  0  0  0  0  0  0  0
   -0.4819  -19.3020   21.8044 C   0  0  0  0  0  0  0  0  0  0  0  0
   -1.5721  -20.1601   21.3681 N   0  0  0  0  0  0  0  0  0  0  0  0
    5.1775  -18.7692   23.5028 C   0  0  0  0  0  0  0  0  0  0  0  0
    4.5881  -18.0012   24.3022 O   0  0  0  0  0  0  0  0  0  0  0  0
    6.4751  -19.2066   23.8362 N   0  0  0  0  0  0  0  0  0  0  0  0
    7.1392  -18.8238   25.0792 C   0  0  0  0  0  0  0  0  0  0  0  0
    8.4916  -19.3911   25.1762 C   0  0  0  0  0  0  0  0  0  0  0  0
    9.3099  -19.2395   26.2848 O   0  0  0  0  0  0  0  0  0  0  0  0
    8.9447  -20.0527   24.2083 O   0  0  0  0  0  0  0  0  0  0  0  0
  2  3  1  0
  2  1  1  6
  4  5  2  0
  4  2  1  0
  6  4  1  0
  7  6  1  0
  7 13  1  0
  7  8  1  1
  9  8  1  0
 10  9  1  0
 11 10  1  0
 12 11  1  0
 13 15  1  0
 13 14  2  0
 15 16  1  0
 16 17  1  0
 17 18  1  0
 19 17  2  0
M  END
$$$$
