AKG.pdb
     RDKit          3D

 19 18  0  0  1  0  0  0  0  0999 V2000
    7.6738  -15.1633   18.4158 C   0  0  0  0  0  0  0  0  0  0  0  0
    7.5486  -13.7489   18.9375 C   0  0  2  0  0  0  0  0  0  0  0  0
    8.2535  -12.8838   18.0413 N   0  0  0  0  0  0  0  0  0  0  0  0
    8.2084  -13.6917   20.2807 C   0  0  0  0  0  0  0  0  0  0  0  0
    9.4792  -13.5528   20.3359 O   0  0  0  0  0  0  0  0  0  0  0  0
    7.4240  -13.7913   21.4663 N   0  0  0  0  0  0  0  0  0  0  0  0
    7.9633  -13.8307   22.7863 C   0  0  1  0  0  0  0  0  0  0  0  0
    7.0916  -13.2177   23.8122 C   0  0  0  0  0  0  0  0  0  0  0  0
    7.5656  -13.2270   25.2133 C   0  0  0  0  0  0  0  0  0  0  0  0
    6.5734  -12.5499   26.1270 C   0  0  0  0  0  0  0  0  0  0  0  0
    6.9934  -12.5376   27.5566 C   0  0  0  0  0  0  0  0  0  0  0  0
    6.0105  -11.9048   28.4219 N   0  0  0  0  0  0  0  0  0  0  0  0
    8.5921  -15.1212   23.1602 C   0  0  0  0  0  0  0  0  0  0  0  0
    7.8966  -16.1607   23.0501 O   0  0  0  0  0  0  0  0  0  0  0  0
    9.9132  -15.2527   23.6330 N   0  0  0  0  0  0  0  0  0  0  0  0
   10.5075  -16.5466   23.9575 C   0  0  0  0  0  0  0  0  0  0  0  0
   10.5517  -16.7823   25.4075 C   0  0  0  0  0  0  0  0  0  0  0  0
   11.6818  -17.2210   26.0798 O   0  0  0  0  0  0  0  0  0  0  0  0
    9.5151  -16.5790   26.0888 O   0  0  0  0  0  0  0  0  0  0  0  0
  2  3  1  0
  2  1  1  6
  4  5  2  0
  4  2  1  0
  6  4  1  0
  7  6  1  0
  7 13  1  0
  7  8  1  1
  9  8  1  0
 10  9  1  0
 11 10  1  0
 12 11  1  0
 13 15  1  0
 13 14  2  0
 15 16  1  0
 16 17  1  0
 17 18  1  0
 19 17  2  0
M  END
$$$$
