AKG.pdb
     RDKit          3D

 19 18  0  0  1  0  0  0  0  0999 V2000
    7.8940  -24.8581   19.2951 C   0  0  0  0  0  0  0  0  0  0  0  0
    6.4526  -24.4540   19.5132 C   0  0  2  0  0  0  0  0  0  0  0  0
    5.8562  -24.2364   18.2306 N   0  0  0  0  0  0  0  0  0  0  0  0
    6.4445  -23.1636   20.2733 C   0  0  0  0  0  0  0  0  0  0  0  0
    7.1235  -22.1786   19.8195 O   0  0  0  0  0  0  0  0  0  0  0  0
    5.6906  -23.0488   21.4772 N   0  0  0  0  0  0  0  0  0  0  0  0
    5.5542  -21.8441   22.2288 C   0  0  1  0  0  0  0  0  0  0  0  0
    4.1648  -21.3450   22.3208 C   0  0  0  0  0  0  0  0  0  0  0  0
    3.4270  -21.1253   21.0577 C   0  0  0  0  0  0  0  0  0  0  0  0
    2.0079  -20.6876   21.3265 C   0  0  0  0  0  0  0  0  0  0  0  0
    1.1914  -20.5246   20.0907 C   0  0  0  0  0  0  0  0  0  0  0  0
   -0.1664  -20.0862   20.3724 N   0  0  0  0  0  0  0  0  0  0  0  0
    6.3386  -21.8071   23.4874 C   0  0  0  0  0  0  0  0  0  0  0  0
    6.2142  -22.7737   24.2789 O   0  0  0  0  0  0  0  0  0  0  0  0
    7.2071  -20.7583   23.8506 N   0  0  0  0  0  0  0  0  0  0  0  0
    7.9940  -20.7788   25.0806 C   0  0  0  0  0  0  0  0  0  0  0  0
    7.5934  -19.7101   26.0065 C   0  0  0  0  0  0  0  0  0  0  0  0
    8.1938  -19.4958   27.2375 O   0  0  0  0  0  0  0  0  0  0  0  0
    6.6561  -18.9399   25.6776 O   0  0  0  0  0  0  0  0  0  0  0  0
  2  3  1  0
  2  1  1  6
  4  5  2  0
  4  2  1  0
  6  4  1  0
  7  6  1  0
  7 13  1  0
  7  8  1  1
  9  8  1  0
 10  9  1  0
 11 10  1  0
 12 11  1  0
 13 15  1  0
 13 14  2  0
 15 16  1  0
 16 17  1  0
 17 18  1  0
 19 17  2  0
M  END
$$$$
