AKG.pdb
     RDKit          3D

 19 18  0  0  1  0  0  0  0  0999 V2000
   10.2844  -20.4544   20.8787 C   0  0  0  0  0  0  0  0  0  0  0  0
    9.8329  -19.2966   20.0161 C   0  0  2  0  0  0  0  0  0  0  0  0
   10.5480  -19.3631   18.7782 N   0  0  0  0  0  0  0  0  0  0  0  0
   10.2021  -18.0261   20.7178 C   0  0  0  0  0  0  0  0  0  0  0  0
   11.4412  -17.7451   20.8691 O   0  0  0  0  0  0  0  0  0  0  0  0
    9.1828  -17.1561   21.2027 N   0  0  0  0  0  0  0  0  0  0  0  0
    9.4310  -15.9172   21.8648 C   0  0  1  0  0  0  0  0  0  0  0  0
    8.6101  -14.7922   21.3662 C   0  0  0  0  0  0  0  0  0  0  0  0
    8.6954  -14.4626   19.9268 C   0  0  0  0  0  0  0  0  0  0  0  0
    7.5379  -13.5938   19.4989 C   0  0  0  0  0  0  0  0  0  0  0  0
    7.5345  -13.2825   18.0417 C   0  0  0  0  0  0  0  0  0  0  0  0
    6.3337  -12.5759   17.6244 N   0  0  0  0  0  0  0  0  0  0  0  0
    9.5614  -16.0181   23.3391 C   0  0  0  0  0  0  0  0  0  0  0  0
    8.5042  -16.0729   24.0142 O   0  0  0  0  0  0  0  0  0  0  0  0
   10.7912  -16.0518   24.0265 N   0  0  0  0  0  0  0  0  0  0  0  0
   10.8789  -16.2225   25.4742 C   0  0  0  0  0  0  0  0  0  0  0  0
   12.2724  -16.3071   25.9336 C   0  0  0  0  0  0  0  0  0  0  0  0
   12.6334  -16.5262   27.2539 O   0  0  0  0  0  0  0  0  0  0  0  0
   13.1987  -16.1754   25.0943 O   0  0  0  0  0  0  0  0  0  0  0  0
  2  3  1  0
  2  1  1  1
  4  5  2  0
  4  2  1  0
  6  4  1  0
  7  6  1  0
  7 13  1  0
  7  8  1  1
  9  8  1  0
 10  9  1  0
 11 10  1  0
 12 11  1  0
 13 15  1  0
 13 14  2  0
 15 16  1  0
 16 17  1  0
 17 18  1  0
 19 17  2  0
M  END
$$$$
