AKG.pdb
     RDKit          3D

 19 18  0  0  1  0  0  0  0  0999 V2000
    6.1713  -24.0183   24.3839 C   0  0  0  0  0  0  0  0  0  0  0  0
    5.4133  -23.9348   23.0775 C   0  0  2  0  0  0  0  0  0  0  0  0
    6.1735  -24.6257   22.0810 N   0  0  0  0  0  0  0  0  0  0  0  0
    5.3141  -22.4909   22.6924 C   0  0  0  0  0  0  0  0  0  0  0  0
    6.3629  -21.8952   22.2652 O   0  0  0  0  0  0  0  0  0  0  0  0
    4.0695  -21.8059   22.8044 N   0  0  0  0  0  0  0  0  0  0  0  0
    3.8816  -20.4248   22.5012 C   0  0  1  0  0  0  0  0  0  0  0  0
    2.4704  -20.0439   22.2741 C   0  0  0  0  0  0  0  0  0  0  0  0
    2.1856  -19.0623   21.2049 C   0  0  0  0  0  0  0  0  0  0  0  0
    1.6224  -19.7411   19.9802 C   0  0  0  0  0  0  0  0  0  0  0  0
    1.3660  -18.8075   18.8475 C   0  0  0  0  0  0  0  0  0  0  0  0
    0.9254  -19.4965   17.6448 N   0  0  0  0  0  0  0  0  0  0  0  0
    4.6753  -19.4931   23.3393 C   0  0  0  0  0  0  0  0  0  0  0  0
    4.6676  -19.6775   24.5812 O   0  0  0  0  0  0  0  0  0  0  0  0
    5.4304  -18.4166   22.8321 N   0  0  0  0  0  0  0  0  0  0  0  0
    6.1100  -17.4558   23.6969 C   0  0  0  0  0  0  0  0  0  0  0  0
    7.5495  -17.7332   23.8008 C   0  0  0  0  0  0  0  0  0  0  0  0
    8.4434  -16.9109   24.4689 O   0  0  0  0  0  0  0  0  0  0  0  0
    8.0101  -18.7696   23.2590 O   0  0  0  0  0  0  0  0  0  0  0  0
  2  3  1  0
  2  1  1  1
  4  5  2  0
  4  2  1  0
  6  4  1  0
  7  6  1  0
  7 13  1  0
  7  8  1  1
  9  8  1  0
 10  9  1  0
 11 10  1  0
 12 11  1  0
 13 15  1  0
 13 14  2  0
 15 16  1  0
 16 17  1  0
 17 18  1  0
 19 17  2  0
M  END
$$$$
