AKG.pdb
     RDKit          3D

 19 18  0  0  1  0  0  0  0  0999 V2000
    9.8680  -21.5232   18.4778 C   0  0  0  0  0  0  0  0  0  0  0  0
    8.6563  -20.6178   18.4610 C   0  0  2  0  0  0  0  0  0  0  0  0
    9.0687  -19.3374   17.9721 N   0  0  0  0  0  0  0  0  0  0  0  0
    8.1757  -20.4629   19.8709 C   0  0  0  0  0  0  0  0  0  0  0  0
    8.5675  -19.4492   20.5461 O   0  0  0  0  0  0  0  0  0  0  0  0
    7.2990  -21.4335   20.4371 N   0  0  0  0  0  0  0  0  0  0  0  0
    6.7026  -21.3224   21.7280 C   0  0  1  0  0  0  0  0  0  0  0  0
    5.3574  -21.9301   21.8249 C   0  0  0  0  0  0  0  0  0  0  0  0
    4.6456  -21.8244   23.1173 C   0  0  0  0  0  0  0  0  0  0  0  0
    3.2916  -22.4872   23.0475 C   0  0  0  0  0  0  0  0  0  0  0  0
    2.4974  -22.3514   24.3009 C   0  0  0  0  0  0  0  0  0  0  0  0
    1.2696  -23.1306   24.2712 N   0  0  0  0  0  0  0  0  0  0  0  0
    7.6200  -21.6001   22.8602 C   0  0  0  0  0  0  0  0  0  0  0  0
    8.0902  -22.7602   22.9568 O   0  0  0  0  0  0  0  0  0  0  0  0
    7.9919  -20.6494   23.8318 N   0  0  0  0  0  0  0  0  0  0  0  0
    8.7800  -20.9967   25.0112 C   0  0  0  0  0  0  0  0  0  0  0  0
   10.1973  -20.6437   24.8478 C   0  0  0  0  0  0  0  0  0  0  0  0
   10.7427  -20.1886   23.6574 O   0  0  0  0  0  0  0  0  0  0  0  0
   10.9697  -20.7555   25.8331 O   0  0  0  0  0  0  0  0  0  0  0  0
  2  3  1  0
  2  1  1  1
  4  5  2  0
  4  2  1  0
  6  4  1  0
  7  6  1  0
  7 13  1  0
  7  8  1  6
  9  8  1  0
 10  9  1  0
 11 10  1  0
 12 11  1  0
 13 15  1  0
 13 14  2  0
 15 16  1  0
 16 17  1  0
 17 18  1  0
 19 17  2  0
M  END
$$$$
