RQA.pdb
     RDKit          3D

 26 25  0  0  1  0  0  0  0  0999 V2000
    7.3172  -17.3076   14.0363 N   0  0  0  0  0  0  0  0  0  0  0  0
    8.2400  -16.3490   13.5840 C   0  0  0  0  0  0  0  0  0  0  0  0
    8.0509  -15.8377   12.4108 N   0  0  0  0  0  0  0  0  0  0  0  0
    9.3207  -15.9858   14.4124 N   0  0  0  0  0  0  0  0  0  0  0  0
    9.3446  -16.4963   15.7849 C   0  0  0  0  0  0  0  0  0  0  0  0
    8.3958  -15.7047   16.6322 C   0  0  0  0  0  0  0  0  0  0  0  0
    9.0059  -15.1534   17.8668 C   0  0  0  0  0  0  0  0  0  0  0  0
    8.1142  -14.4245   18.7984 C   0  0  2  0  0  0  0  0  0  0  0  0
    7.7987  -13.1152   18.3424 N   0  0  0  0  0  0  0  0  0  0  0  0
    8.7412  -14.4076   20.1687 C   0  0  0  0  0  0  0  0  0  0  0  0
    9.4868  -13.4464   20.4852 O   0  0  0  0  0  0  0  0  0  0  0  0
    8.6661  -15.1132   11.9862 N   0  0  0  0  0  0  0  0  0  0  0  0
    7.1418  -17.4194   25.7400 C   0  0  0  0  0  0  0  0  0  0  0  0
    7.9297  -16.2544   25.9236 O   0  0  0  0  0  0  0  0  0  0  0  0
    7.7873  -15.6267   26.9921 C   0  0  0  0  0  0  0  0  0  0  0  0
    8.8585  -15.8603   24.8510 C   0  0  0  0  0  0  0  0  0  0  0  0
    8.2696  -15.7672   23.4938 C   0  0  1  0  0  0  0  0  0  0  0  0
    9.2481  -15.3747   22.4253 N   0  0  0  0  0  0  0  0  0  0  0  0
    8.5250  -15.4282   21.1120 C   0  0  0  0  0  0  0  0  0  0  0  0
   10.4306  -16.2681   22.3192 O   0  0  0  0  0  0  0  0  0  0  0  0
   10.2615  -17.4962   21.9648 C   0  0  0  0  0  0  0  0  0  0  0  0
   14.0747  -15.9858   21.9888 C   0  0  2  0  0  0  0  0  0  0  0  0
   12.8780  -16.8416   22.4208 N   0  0  0  0  0  0  0  0  0  0  0  0
   11.7631  -15.9173   22.5657 C   0  0  0  0  0  0  0  0  0  0  0  0
   13.1571  -17.5887   23.6421 O   0  0  0  0  0  0  0  0  0  0  0  0
   12.3957  -17.4255   24.7843 O   0  0  0  0  0  0  0  0  0  0  0  0
  2  3  2  0
  2  1  1  0
  4  2  1  0
  5  6  1  0
  5  4  1  0
  6  7  1  0
  7  8  1  0
  8  9  1  6
 10  8  1  0
 10 18  1  0
 11 10  2  0
 13 15  1  0
 13 12  1  0
 14 13  2  0
 17 16  1  1
 16 15  1  0
 17 18  1  0
 19 17  1  0
 20 19  2  0
 22 21  1  6
 22 24  1  0
 22 23  1  0
 23 19  1  0
 24 25  1  0
 26 24  2  0
M  END
$$$$
