RQA.pdb
     RDKit          3D

 26 25  0  0  1  0  0  0  0  0999 V2000
    8.2790  -21.6601   13.8069 N   0  0  0  0  0  0  0  0  0  0  0  0
    9.1156  -22.3746   12.9324 C   0  0  0  0  0  0  0  0  0  0  0  0
    8.8397  -22.3358   11.6691 N   0  0  0  0  0  0  0  0  0  0  0  0
   10.2073  -23.0957   13.4561 N   0  0  0  0  0  0  0  0  0  0  0  0
   10.4352  -23.0559   14.9021 C   0  0  0  0  0  0  0  0  0  0  0  0
   10.9543  -21.7057   15.2922 C   0  0  0  0  0  0  0  0  0  0  0  0
   11.2664  -21.5735   16.7364 C   0  0  0  0  0  0  0  0  0  0  0  0
   12.0704  -20.4015   17.1534 C   0  0  2  0  0  0  0  0  0  0  0  0
   13.4411  -20.5225   16.7952 N   0  0  0  0  0  0  0  0  0  0  0  0
   11.8925  -20.1836   18.6340 C   0  0  0  0  0  0  0  0  0  0  0  0
   10.7625  -19.8446   19.0680 O   0  0  0  0  0  0  0  0  0  0  0  0
    9.3590  -22.8724   10.9438 N   0  0  0  0  0  0  0  0  0  0  0  0
   15.1120  -22.9187   23.2496 C   0  0  0  0  0  0  0  0  0  0  0  0
   15.7511  -22.0894   22.2927 O   0  0  0  0  0  0  0  0  0  0  0  0
   16.9874  -22.2008   22.1699 C   0  0  0  0  0  0  0  0  0  0  0  0
   14.9237  -21.1557   21.5104 C   0  0  0  0  0  0  0  0  0  0  0  0
   13.4618  -21.2482   21.7378 C   0  0  1  0  0  0  0  0  0  0  0  0
   12.6611  -20.2008   21.0201 N   0  0  0  0  0  0  0  0  0  0  0  0
   12.9441  -20.3449   19.5539 C   0  0  0  0  0  0  0  0  0  0  0  0
   12.9954  -18.8046   21.4029 O   0  0  0  0  0  0  0  0  0  0  0  0
   13.9887  -18.2157   20.8293 C   0  0  0  0  0  0  0  0  0  0  0  0
   11.5542  -16.0951   23.5246 C   0  0  2  0  0  0  0  0  0  0  0  0
   12.6892  -16.6416   22.6505 N   0  0  0  0  0  0  0  0  0  0  0  0
   12.3283  -18.0193   22.3503 C   0  0  0  0  0  0  0  0  0  0  0  0
   13.9857  -16.5259   23.3086 O   0  0  0  0  0  0  0  0  0  0  0  0
   14.6669  -15.3243   23.3672 O   0  0  0  0  0  0  0  0  0  0  0  0
  2  3  2  0
  2  1  1  0
  4  2  1  0
  5  6  1  0
  5  4  1  0
  6  7  1  0
  7  8  1  0
  8  9  1  1
 10  8  1  0
 10 18  1  0
 11 10  2  0
 13 15  1  0
 13 12  1  0
 14 13  2  0
 17 16  1  6
 16 15  1  0
 17 18  1  0
 19 17  1  0
 20 19  2  0
 22 21  1  6
 22 24  1  0
 22 23  1  0
 23 19  1  0
 24 25  1  0
 26 24  2  0
M  END
$$$$
