RQA.pdb
     RDKit          3D

 26 25  0  0  1  0  0  0  0  0999 V2000
    8.1380  -12.6749   18.7896 N   0  0  0  0  0  0  0  0  0  0  0  0
    8.3830  -13.7194   17.8818 C   0  0  0  0  0  0  0  0  0  0  0  0
    8.3695  -13.4358   16.6197 N   0  0  0  0  0  0  0  0  0  0  0  0
    8.6306  -15.0171   18.3726 N   0  0  0  0  0  0  0  0  0  0  0  0
    8.2668  -15.3152   19.7595 C   0  0  0  0  0  0  0  0  0  0  0  0
    6.7894  -15.5461   19.8531 C   0  0  0  0  0  0  0  0  0  0  0  0
    6.3064  -15.8115   21.2303 C   0  0  0  0  0  0  0  0  0  0  0  0
    6.5541  -17.1607   21.7891 C   0  0  2  0  0  0  0  0  0  0  0  0
    5.6220  -18.1269   21.3205 N   0  0  0  0  0  0  0  0  0  0  0  0
    6.5685  -17.0758   23.2937 C   0  0  0  0  0  0  0  0  0  0  0  0
    5.4776  -16.9599   23.9074 O   0  0  0  0  0  0  0  0  0  0  0  0
    8.5621  -14.1278   15.8663 N   0  0  0  0  0  0  0  0  0  0  0  0
   10.7169  -19.0016   27.5908 C   0  0  0  0  0  0  0  0  0  0  0  0
    9.9936  -18.0245   28.3215 O   0  0  0  0  0  0  0  0  0  0  0  0
   10.2807  -17.8788   29.5266 C   0  0  0  0  0  0  0  0  0  0  0  0
    8.9571  -17.2492   27.6192 C   0  0  0  0  0  0  0  0  0  0  0  0
    8.7288  -17.6188   26.2019 C   0  0  1  0  0  0  0  0  0  0  0  0
    7.7202  -16.7586   25.4977 N   0  0  0  0  0  0  0  0  0  0  0  0
    7.7583  -17.1211   24.0425 C   0  0  0  0  0  0  0  0  0  0  0  0
    7.9812  -15.2995   25.6001 O   0  0  0  0  0  0  0  0  0  0  0  0
    9.0243  -14.8052   25.0255 C   0  0  0  0  0  0  0  0  0  0  0  0
    6.2349  -12.2149   26.6835 C   0  0  2  0  0  0  0  0  0  0  0  0
    7.5479  -12.9523   26.3951 N   0  0  0  0  0  0  0  0  0  0  0  0
    7.1925  -14.3584   26.2720 C   0  0  0  0  0  0  0  0  0  0  0  0
    8.5464  -12.7087   27.4300 O   0  0  0  0  0  0  0  0  0  0  0  0
    9.2208  -11.5053   27.5208 O   0  0  0  0  0  0  0  0  0  0  0  0
  2  3  2  0
  2  1  1  0
  4  2  1  0
  5  6  1  0
  5  4  1  0
  6  7  1  0
  7  8  1  0
  8  9  1  1
 10  8  1  0
 10 18  1  0
 11 10  2  0
 13 15  1  0
 13 12  1  0
 14 13  2  0
 17 16  1  1
 16 15  1  0
 17 18  1  0
 19 17  1  0
 20 19  2  0
 22 21  1  6
 22 24  1  0
 22 23  1  0
 23 19  1  0
 24 25  1  0
 26 24  2  0
M  END
$$$$
