RQA.pdb
     RDKit          3D

 26 25  0  0  1  0  0  0  0  0999 V2000
    8.8751  -12.7860   18.8303 N   0  0  0  0  0  0  0  0  0  0  0  0
    7.9888  -13.2927   17.8645 C   0  0  0  0  0  0  0  0  0  0  0  0
    6.9782  -12.5576   17.5301 N   0  0  0  0  0  0  0  0  0  0  0  0
    8.2300  -14.5634   17.3048 N   0  0  0  0  0  0  0  0  0  0  0  0
    9.4022  -15.3121   17.7633 C   0  0  0  0  0  0  0  0  0  0  0  0
    9.0711  -16.0366   19.0321 C   0  0  0  0  0  0  0  0  0  0  0  0
    8.7340  -17.4683   18.8390 C   0  0  0  0  0  0  0  0  0  0  0  0
    8.3664  -18.2483   20.0433 C   0  0  2  0  0  0  0  0  0  0  0  0
    7.1885  -17.7605   20.6730 N   0  0  0  0  0  0  0  0  0  0  0  0
    9.5396  -18.2770   20.9888 C   0  0  0  0  0  0  0  0  0  0  0  0
   10.2896  -19.2858   20.9979 O   0  0  0  0  0  0  0  0  0  0  0  0
    6.3092  -12.7999   16.7703 N   0  0  0  0  0  0  0  0  0  0  0  0
   13.8703  -14.7312   21.0072 C   0  0  0  0  0  0  0  0  0  0  0  0
   12.4987  -14.4293   20.8096 O   0  0  0  0  0  0  0  0  0  0  0  0
   12.2229  -13.4801   20.0487 C   0  0  0  0  0  0  0  0  0  0  0  0
   11.4932  -15.2470   21.5088 C   0  0  0  0  0  0  0  0  0  0  0  0
   12.0300  -16.3368   22.3583 C   0  0  1  0  0  0  0  0  0  0  0  0
   11.0007  -17.3378   22.7964 N   0  0  0  0  0  0  0  0  0  0  0  0
    9.8308  -17.2162   21.8653 C   0  0  0  0  0  0  0  0  0  0  0  0
   10.4938  -17.1310   24.1777 O   0  0  0  0  0  0  0  0  0  0  0  0
    9.6589  -16.1750   24.4048 C   0  0  0  0  0  0  0  0  0  0  0  0
    8.9801  -18.2548   26.7685 C   0  0  2  0  0  0  0  0  0  0  0  0
   10.3515  -17.5797   26.6490 N   0  0  0  0  0  0  0  0  0  0  0  0
   10.8272  -17.8862   25.3080 C   0  0  0  0  0  0  0  0  0  0  0  0
   11.2692  -18.0254   27.6914 O   0  0  0  0  0  0  0  0  0  0  0  0
   11.0764  -17.6950   29.0199 O   0  0  0  0  0  0  0  0  0  0  0  0
  2  3  2  0
  2  1  1  0
  4  2  1  0
  5  6  1  0
  5  4  1  0
  6  7  1  0
  7  8  1  0
  8  9  1  1
 10  8  1  0
 10 18  1  0
 11 10  2  0
 13 15  1  0
 13 12  1  0
 14 13  2  0
 17 16  1  6
 16 15  1  0
 17 18  1  0
 19 17  1  0
 20 19  2  0
 22 21  1  6
 22 24  1  0
 22 23  1  0
 23 19  1  0
 24 25  1  0
 26 24  2  0
M  END
$$$$
