RQA.pdb
     RDKit          3D

 26 25  0  0  1  0  0  0  0  0999 V2000
    8.1761  -12.8314   19.6918 N   0  0  0  0  0  0  0  0  0  0  0  0
    8.3047  -13.5622   18.4983 C   0  0  0  0  0  0  0  0  0  0  0  0
    7.8585  -13.0224   17.4106 N   0  0  0  0  0  0  0  0  0  0  0  0
    8.9057  -14.8365   18.5302 N   0  0  0  0  0  0  0  0  0  0  0  0
    8.4571  -15.7897   19.5475 C   0  0  0  0  0  0  0  0  0  0  0  0
    6.9597  -15.8131   19.5890 C   0  0  0  0  0  0  0  0  0  0  0  0
    6.3965  -15.9874   20.9502 C   0  0  0  0  0  0  0  0  0  0  0  0
    6.5383  -17.3213   21.5785 C   0  0  2  0  0  0  0  0  0  0  0  0
    5.6006  -18.2652   21.0768 N   0  0  0  0  0  0  0  0  0  0  0  0
    6.4424  -17.1735   23.0753 C   0  0  0  0  0  0  0  0  0  0  0  0
    5.3181  -16.9595   23.5951 O   0  0  0  0  0  0  0  0  0  0  0  0
    7.9772  -13.4386   16.4639 N   0  0  0  0  0  0  0  0  0  0  0  0
   10.1860  -19.2408   27.6631 C   0  0  0  0  0  0  0  0  0  0  0  0
    9.4623  -18.2249   28.3383 O   0  0  0  0  0  0  0  0  0  0  0  0
    9.6901  -18.0686   29.5547 C   0  0  0  0  0  0  0  0  0  0  0  0
    8.4944  -17.4247   27.5692 C   0  0  0  0  0  0  0  0  0  0  0  0
    8.3269  -17.8117   26.1481 C   0  0  1  0  0  0  0  0  0  0  0  0
    7.4228  -16.9034   25.3666 N   0  0  0  0  0  0  0  0  0  0  0  0
    7.5648  -17.2657   23.9178 C   0  0  0  0  0  0  0  0  0  0  0  0
    7.7436  -15.4585   25.4978 O   0  0  0  0  0  0  0  0  0  0  0  0
    8.8210  -15.0017   24.9567 C   0  0  0  0  0  0  0  0  0  0  0  0
    6.1615  -12.3017   26.6187 C   0  0  2  0  0  0  0  0  0  0  0  0
    7.4325  -13.1309   26.4003 N   0  0  0  0  0  0  0  0  0  0  0  0
    6.9794  -14.4939   26.1647 C   0  0  0  0  0  0  0  0  0  0  0  0
    8.3503  -13.0260   27.5292 O   0  0  0  0  0  0  0  0  0  0  0  0
    9.1050  -11.8889   27.7494 O   0  0  0  0  0  0  0  0  0  0  0  0
  2  3  2  0
  2  1  1  0
  4  2  1  0
  5  6  1  0
  5  4  1  0
  6  7  1  0
  7  8  1  0
  8  9  1  6
 10  8  1  0
 10 18  1  0
 11 10  2  0
 13 15  1  0
 13 12  1  0
 14 13  2  0
 17 16  1  1
 16 15  1  0
 17 18  1  0
 19 17  1  0
 20 19  2  0
 22 21  1  6
 22 24  1  0
 22 23  1  0
 23 19  1  0
 24 25  1  0
 26 24  2  0
M  END
$$$$
