RQA.pdb
     RDKit          3D

 26 25  0  0  1  0  0  0  0  0999 V2000
    7.7915  -13.0989   21.3679 N   0  0  0  0  0  0  0  0  0  0  0  0
    7.8880  -12.3143   20.2059 C   0  0  0  0  0  0  0  0  0  0  0  0
    8.4442  -11.1509   20.3094 N   0  0  0  0  0  0  0  0  0  0  0  0
    7.3831  -12.8163   18.9897 N   0  0  0  0  0  0  0  0  0  0  0  0
    7.6308  -14.2223   18.6635 C   0  0  0  0  0  0  0  0  0  0  0  0
    8.7811  -14.3218   17.7088 C   0  0  0  0  0  0  0  0  0  0  0  0
    9.0063  -15.6877   17.1758 C   0  0  0  0  0  0  0  0  0  0  0  0
   10.1815  -15.8891   16.2970 C   0  0  2  0  0  0  0  0  0  0  0  0
    9.9689  -16.9021   15.3220 N   0  0  0  0  0  0  0  0  0  0  0  0
   11.3913  -16.1733   17.1496 C   0  0  0  0  0  0  0  0  0  0  0  0
   11.5842  -17.3452   17.5614 O   0  0  0  0  0  0  0  0  0  0  0  0
    8.4963  -10.4602   19.5324 N   0  0  0  0  0  0  0  0  0  0  0  0
   16.7587  -12.8806   17.5148 C   0  0  0  0  0  0  0  0  0  0  0  0
   16.9193  -13.8088   18.5752 O   0  0  0  0  0  0  0  0  0  0  0  0
   17.9986  -13.7863   19.2003 C   0  0  0  0  0  0  0  0  0  0  0  0
   15.8126  -14.7343   18.8702 C   0  0  0  0  0  0  0  0  0  0  0  0
   14.5996  -14.5718   18.0338 C   0  0  1  0  0  0  0  0  0  0  0  0
   13.5014  -15.5455   18.3487 N   0  0  0  0  0  0  0  0  0  0  0  0
   12.3175  -15.1761   17.5047 C   0  0  0  0  0  0  0  0  0  0  0  0
   13.0587  -15.5322   19.7670 O   0  0  0  0  0  0  0  0  0  0  0  0
   12.4986  -14.4720   20.2412 C   0  0  0  0  0  0  0  0  0  0  0  0
   12.2852  -17.9378   22.4294 C   0  0  2  0  0  0  0  0  0  0  0  0
   12.6963  -16.5084   22.0571 N   0  0  0  0  0  0  0  0  0  0  0  0
   13.1799  -16.5808   20.6862 C   0  0  0  0  0  0  0  0  0  0  0  0
   13.6890  -15.9706   22.9806 O   0  0  0  0  0  0  0  0  0  0  0  0
   13.3568  -15.5996   24.2702 O   0  0  0  0  0  0  0  0  0  0  0  0
  2  3  2  0
  2  1  1  0
  4  2  1  0
  5  6  1  0
  5  4  1  0
  6  7  1  0
  7  8  1  0
  8  9  1  6
 10  8  1  0
 10 18  1  0
 11 10  2  0
 13 15  1  0
 13 12  1  0
 14 13  2  0
 17 16  1  6
 16 15  1  0
 17 18  1  0
 19 17  1  0
 20 19  2  0
 22 21  1  6
 22 24  1  0
 22 23  1  0
 23 19  1  0
 24 25  1  0
 26 24  2  0
M  END
$$$$
