RQA.pdb
     RDKit          3D

 26 25  0  0  1  0  0  0  0  0999 V2000
    7.9269  -23.5338   13.4951 N   0  0  0  0  0  0  0  0  0  0  0  0
    7.5866  -22.2432   13.0552 C   0  0  0  0  0  0  0  0  0  0  0  0
    7.0191  -22.1315   11.8981 N   0  0  0  0  0  0  0  0  0  0  0  0
    7.8718  -21.1354   13.8784 N   0  0  0  0  0  0  0  0  0  0  0  0
    8.9546  -21.2588   14.8567 C   0  0  0  0  0  0  0  0  0  0  0  0
    8.5303  -22.1754   15.9632 C   0  0  0  0  0  0  0  0  0  0  0  0
    9.5885  -22.4365   16.9695 C   0  0  0  0  0  0  0  0  0  0  0  0
    9.6473  -21.5351   18.1433 C   0  0  2  0  0  0  0  0  0  0  0  0
    9.6093  -20.1607   17.7805 N   0  0  0  0  0  0  0  0  0  0  0  0
   10.8695  -21.8683   18.9597 C   0  0  0  0  0  0  0  0  0  0  0  0
   11.0280  -23.0477   19.3647 O   0  0  0  0  0  0  0  0  0  0  0  0
    6.7281  -21.2244   11.4784 N   0  0  0  0  0  0  0  0  0  0  0  0
   16.9503  -19.1570   19.5079 C   0  0  0  0  0  0  0  0  0  0  0  0
   16.7410  -20.5588   19.5612 O   0  0  0  0  0  0  0  0  0  0  0  0
   17.6196  -21.2905   19.0626 C   0  0  0  0  0  0  0  0  0  0  0  0
   15.5101  -21.0601   20.1955 C   0  0  0  0  0  0  0  0  0  0  0  0
   14.2443  -20.7026   19.5119 C   0  0  2  0  0  0  0  0  0  0  0  0
   13.0203  -21.3190   20.1244 N   0  0  0  0  0  0  0  0  0  0  0  0
   11.8442  -20.9091   19.2881 C   0  0  0  0  0  0  0  0  0  0  0  0
   12.7479  -20.8848   21.5190 O   0  0  0  0  0  0  0  0  0  0  0  0
   12.8251  -19.6321   21.8142 C   0  0  0  0  0  0  0  0  0  0  0  0
   11.1713  -22.2108   24.5749 C   0  0  2  0  0  0  0  0  0  0  0  0
   12.1497  -21.2154   23.9401 N   0  0  0  0  0  0  0  0  0  0  0  0
   12.3990  -21.7103   22.5942 C   0  0  0  0  0  0  0  0  0  0  0  0
   13.3695  -21.0755   24.7275 O   0  0  0  0  0  0  0  0  0  0  0  0
   14.5970  -21.4918   24.2467 O   0  0  0  0  0  0  0  0  0  0  0  0
  2  3  2  0
  2  1  1  0
  4  2  1  0
  5  6  1  0
  5  4  1  0
  6  7  1  0
  7  8  1  0
  8  9  1  6
 10  8  1  0
 10 18  1  0
 11 10  2  0
 13 15  1  0
 13 12  1  0
 14 13  2  0
 17 16  1  6
 16 15  1  0
 17 18  1  0
 19 17  1  0
 20 19  2  0
 22 21  1  6
 22 24  1  0
 22 23  1  0
 23 19  1  0
 24 25  1  0
 26 24  2  0
M  END
$$$$
