RQA.pdb
     RDKit          3D

 26 25  0  0  1  0  0  0  0  0999 V2000
    6.6613  -12.8090   16.5148 N   0  0  0  0  0  0  0  0  0  0  0  0
    7.8920  -13.4154   16.2105 C   0  0  0  0  0  0  0  0  0  0  0  0
    8.0740  -13.8342   15.0001 N   0  0  0  0  0  0  0  0  0  0  0  0
    8.8674  -13.5430   17.2197 N   0  0  0  0  0  0  0  0  0  0  0  0
    8.6453  -14.5306   18.2780 C   0  0  0  0  0  0  0  0  0  0  0  0
    7.7931  -13.9308   19.3545 C   0  0  0  0  0  0  0  0  0  0  0  0
    8.3940  -14.0009   20.7089 C   0  0  0  0  0  0  0  0  0  0  0  0
    8.7382  -15.3437   21.2309 C   0  0  2  0  0  0  0  0  0  0  0  0
    7.6954  -16.2906   21.0360 N   0  0  0  0  0  0  0  0  0  0  0  0
    9.1256  -15.2236   22.6824 C   0  0  0  0  0  0  0  0  0  0  0  0
    9.9618  -14.3475   23.0188 O   0  0  0  0  0  0  0  0  0  0  0  0
    8.9207  -14.3512   14.6848 N   0  0  0  0  0  0  0  0  0  0  0  0
    5.9417  -13.7998   27.3154 C   0  0  0  0  0  0  0  0  0  0  0  0
    6.7672  -13.0243   26.4617 O   0  0  0  0  0  0  0  0  0  0  0  0
    6.5603  -11.7948   26.4236 C   0  0  0  0  0  0  0  0  0  0  0  0
    7.8079  -13.7119   25.6790 C   0  0  0  0  0  0  0  0  0  0  0  0
    7.8410  -15.1879   25.8118 C   0  0  2  0  0  0  0  0  0  0  0  0
    8.9943  -15.8421   25.1082 N   0  0  0  0  0  0  0  0  0  0  0  0
    8.5870  -16.0557   23.6803 C   0  0  0  0  0  0  0  0  0  0  0  0
    9.3803  -17.1650   25.6637 O   0  0  0  0  0  0  0  0  0  0  0  0
    8.5481  -18.1468   25.5865 C   0  0  0  0  0  0  0  0  0  0  0  0
   12.4283  -18.8922   26.8627 C   0  0  2  0  0  0  0  0  0  0  0  0
   10.8982  -18.8018   26.8239 N   0  0  0  0  0  0  0  0  0  0  0  0
   10.5938  -17.4850   26.2837 C   0  0  0  0  0  0  0  0  0  0  0  0
   10.3072  -19.0255   28.1385 O   0  0  0  0  0  0  0  0  0  0  0  0
   10.1995  -20.2924   28.6813 O   0  0  0  0  0  0  0  0  0  0  0  0
  2  3  2  0
  2  1  1  0
  4  2  1  0
  5  6  1  0
  5  4  1  0
  6  7  1  0
  7  8  1  0
  8  9  1  1
 10  8  1  0
 10 18  1  0
 11 10  2  0
 13 15  1  0
 13 12  1  0
 14 13  2  0
 17 16  1  6
 16 15  1  0
 17 18  1  0
 19 17  1  0
 20 19  2  0
 22 21  1  6
 22 24  1  0
 22 23  1  0
 23 19  1  0
 24 25  1  0
 26 24  2  0
M  END
$$$$
