RQA.pdb
     RDKit          3D

 26 25  0  0  1  0  0  0  0  0999 V2000
    9.6192  -14.2119   16.1525 N   0  0  0  0  0  0  0  0  0  0  0  0
    8.2313  -14.2293   15.9324 C   0  0  0  0  0  0  0  0  0  0  0  0
    7.8095  -14.6374   14.7796 N   0  0  0  0  0  0  0  0  0  0  0  0
    7.3637  -13.8079   16.9600 N   0  0  0  0  0  0  0  0  0  0  0  0
    7.9492  -13.4070   18.2411 C   0  0  0  0  0  0  0  0  0  0  0  0
    8.7066  -14.5578   18.8297 C   0  0  0  0  0  0  0  0  0  0  0  0
    9.1876  -14.3193   20.2126 C   0  0  0  0  0  0  0  0  0  0  0  0
    9.1428  -15.4618   21.1542 C   0  0  2  0  0  0  0  0  0  0  0  0
    7.8859  -16.1268   21.1486 N   0  0  0  0  0  0  0  0  0  0  0  0
    9.5187  -14.9799   22.5318 C   0  0  0  0  0  0  0  0  0  0  0  0
   10.5995  -14.3566   22.6848 O   0  0  0  0  0  0  0  0  0  0  0  0
    6.8223  -14.5564   14.4597 N   0  0  0  0  0  0  0  0  0  0  0  0
    5.0198  -13.2788   26.4341 C   0  0  0  0  0  0  0  0  0  0  0  0
    6.1597  -12.6806   27.0294 O   0  0  0  0  0  0  0  0  0  0  0  0
    5.9652  -11.8763   27.9629 C   0  0  0  0  0  0  0  0  0  0  0  0
    7.4908  -13.0417   26.5134 C   0  0  0  0  0  0  0  0  0  0  0  0
    7.4998  -13.9188   25.3184 C   0  0  1  0  0  0  0  0  0  0  0  0
    8.8721  -14.3217   24.8627 N   0  0  0  0  0  0  0  0  0  0  0  0
    8.7057  -15.2003   23.6581 C   0  0  0  0  0  0  0  0  0  0  0  0
    9.6515  -15.0885   25.8688 O   0  0  0  0  0  0  0  0  0  0  0  0
    9.7367  -16.3700   25.7552 C   0  0  0  0  0  0  0  0  0  0  0  0
   11.2204  -14.4410   29.1797 C   0  0  1  0  0  0  0  0  0  0  0  0
   10.9632  -15.3804   27.9956 N   0  0  0  0  0  0  0  0  0  0  0  0
   10.3359  -14.5604   26.9697 C   0  0  0  0  0  0  0  0  0  0  0  0
   10.1494  -16.5284   28.3796 O   0  0  0  0  0  0  0  0  0  0  0  0
    8.7961  -16.5854   28.1029 O   0  0  0  0  0  0  0  0  0  0  0  0
  2  3  2  0
  2  1  1  0
  4  2  1  0
  5  6  1  0
  5  4  1  0
  6  7  1  0
  7  8  1  0
  8  9  1  1
 10  8  1  0
 10 18  1  0
 11 10  2  0
 13 15  1  0
 13 12  1  0
 14 13  2  0
 17 16  1  6
 16 15  1  0
 17 18  1  0
 19 17  1  0
 20 19  2  0
 22 21  1  6
 22 24  1  0
 22 23  1  0
 23 19  1  0
 24 25  1  0
 26 24  2  0
M  END
$$$$
