MTM.pdb
     RDKit          3D

 24 23  0  0  1  0  0  0  0  0999 V2000
   22.7443  -19.8429   -8.5288 C   0  0  0  0  0  0  0  0  0  0  0  0
   23.5710  -21.0928   -7.5691 S   0  0  0  0  0  0  0  0  0  0  0  0
   25.2105  -21.5422   -8.0380 C   0  0  0  0  0  0  0  0  0  0  0  0
   25.8403  -20.7954   -9.1405 C   0  0  0  0  0  0  0  0  0  0  0  0
   25.1756  -20.6915  -10.4487 C   0  0  2  0  0  0  0  0  0  0  0  0
   24.7909  -21.9102  -11.0914 N   0  0  0  0  0  0  0  0  0  0  0  0
   25.9936  -19.9153  -11.4482 C   0  0  0  0  0  0  0  0  0  0  0  0
   26.5804  -18.8419  -11.1396 O   0  0  0  0  0  0  0  0  0  0  0  0
   28.6084  -21.2240  -13.9721 C   0  0  0  0  0  0  0  0  0  0  0  0
   27.5952  -20.3825  -14.7325 C   0  0  1  0  0  0  0  0  0  0  0  0
   26.7266  -21.1701  -15.4785 O   0  0  0  0  0  0  0  0  0  0  0  0
   26.7898  -19.5293  -13.7451 C   0  0  2  0  0  0  0  0  0  0  0  0
   26.1386  -20.3641  -12.7896 N   0  0  0  0  0  0  0  0  0  0  0  0
   25.8582  -18.7111  -14.5495 C   0  0  0  0  0  0  0  0  0  0  0  0
   24.6625  -19.0024  -14.7842 O   0  0  0  0  0  0  0  0  0  0  0  0
   26.9165  -12.3297  -15.3087 C   0  0  0  0  0  0  0  0  0  0  0  0
   26.4437  -12.7861  -17.0164 S   0  0  0  0  0  0  0  0  0  0  0  0
   25.5942  -14.4009  -17.0118 C   0  0  0  0  0  0  0  0  0  0  0  0
   26.3361  -15.3449  -16.1092 C   0  0  0  0  0  0  0  0  0  0  0  0
   25.5774  -16.6480  -15.9703 C   0  0  2  0  0  0  0  0  0  0  0  0
   26.3595  -17.4998  -15.0987 N   0  0  0  0  0  0  0  0  0  0  0  0
   25.2853  -17.2592  -17.2613 C   0  0  0  0  0  0  0  0  0  0  0  0
   26.1561  -17.9095  -17.8790 O   0  0  0  0  0  0  0  0  0  0  0  0
   24.0324  -17.1283  -17.8261 O   0  0  0  0  0  0  0  0  0  0  0  0
  1  2  1  0
  2  3  1  0
  4  3  1  0
  5  4  1  0
  5  6  1  6
  7  5  1  0
  7  8  2  0
 10  9  1  1
 10 12  1  0
 11 10  1  0
 12 13  1  1
 13  7  1  0
 14 12  1  0
 15 14  2  0
 16 17  1  0
 17 18  1  0
 18 19  1  0
 20 19  1  6
 20 21  1  0
 20 22  1  0
 21 14  1  0
 22 24  1  0
 23 22  2  0
M  END
$$$$
