MTM.pdb
     RDKit          3D

 24 23  0  0  1  0  0  0  0  0999 V2000
   27.0431  -18.9913   -6.2911 C   0  0  0  0  0  0  0  0  0  0  0  0
   28.2688  -20.1255   -6.9060 S   0  0  0  0  0  0  0  0  0  0  0  0
   27.8671  -21.0789   -8.3341 C   0  0  0  0  0  0  0  0  0  0  0  0
   26.8456  -20.5466   -9.2522 C   0  0  0  0  0  0  0  0  0  0  0  0
   26.4832  -21.2809  -10.4743 C   0  0  2  0  0  0  0  0  0  0  0  0
   27.5337  -21.9521  -11.1759 N   0  0  0  0  0  0  0  0  0  0  0  0
   25.7798  -20.4079  -11.4812 C   0  0  0  0  0  0  0  0  0  0  0  0
   24.7823  -19.7012  -11.1695 O   0  0  0  0  0  0  0  0  0  0  0  0
   27.5408  -18.5122  -14.5575 C   0  0  0  0  0  0  0  0  0  0  0  0
   26.3009  -19.2685  -15.0086 C   0  0  1  0  0  0  0  0  0  0  0  0
   26.6274  -20.4309  -15.6966 O   0  0  0  0  0  0  0  0  0  0  0  0
   25.4410  -19.6219  -13.7890 C   0  0  2  0  0  0  0  0  0  0  0  0
   26.2146  -20.3447  -12.8335 N   0  0  0  0  0  0  0  0  0  0  0  0
   24.2720  -20.3720  -14.2942 C   0  0  0  0  0  0  0  0  0  0  0  0
   24.1439  -21.6177  -14.2552 O   0  0  0  0  0  0  0  0  0  0  0  0
   20.9964  -20.7832  -10.5599 C   0  0  0  0  0  0  0  0  0  0  0  0
   19.5090  -20.9058  -11.6186 S   0  0  0  0  0  0  0  0  0  0  0  0
   19.9752  -20.6785  -13.3680 C   0  0  0  0  0  0  0  0  0  0  0  0
   21.4124  -20.2482  -13.4426 C   0  0  0  0  0  0  0  0  0  0  0  0
   21.8390  -20.0814  -14.8859 C   0  0  2  0  0  0  0  0  0  0  0  0
   23.2115  -19.6199  -14.8686 N   0  0  0  0  0  0  0  0  0  0  0  0
   20.9455  -19.2015  -15.6295 C   0  0  0  0  0  0  0  0  0  0  0  0
   21.1135  -17.9628  -15.6304 O   0  0  0  0  0  0  0  0  0  0  0  0
   19.8916  -19.7269  -16.3499 O   0  0  0  0  0  0  0  0  0  0  0  0
  1  2  1  0
  2  3  1  0
  4  3  1  0
  5  4  1  0
  5  6  1  6
  7  5  1  0
  7  8  2  0
 10  9  1  1
 10 12  1  0
 11 10  1  0
 12 13  1  1
 13  7  1  0
 14 12  1  0
 15 14  2  0
 16 17  1  0
 17 18  1  0
 18 19  1  0
 20 19  1  1
 20 21  1  0
 20 22  1  0
 21 14  1  0
 22 24  1  0
 23 22  2  0
M  END
$$$$
