MTM.pdb
     RDKit          3D

 24 23  0  0  1  0  0  0  0  0999 V2000
   19.0993  -16.7637  -11.6678 C   0  0  0  0  0  0  0  0  0  0  0  0
   18.6676  -17.2445  -13.3258 S   0  0  0  0  0  0  0  0  0  0  0  0
   19.7453  -18.3572  -14.1685 C   0  0  0  0  0  0  0  0  0  0  0  0
   20.6464  -19.1916  -13.3550 C   0  0  0  0  0  0  0  0  0  0  0  0
   21.5986  -20.1102  -13.9981 C   0  0  2  0  0  0  0  0  0  0  0  0
   21.0622  -21.1200  -14.8576 N   0  0  0  0  0  0  0  0  0  0  0  0
   22.4793  -20.8157  -12.9994 C   0  0  0  0  0  0  0  0  0  0  0  0
   22.0549  -21.7726  -12.2951 O   0  0  0  0  0  0  0  0  0  0  0  0
   24.9248  -23.0778  -13.3257 C   0  0  0  0  0  0  0  0  0  0  0  0
   25.6507  -22.0139  -12.5169 C   0  0  1  0  0  0  0  0  0  0  0  0
   26.4950  -21.2481  -13.3118 O   0  0  0  0  0  0  0  0  0  0  0  0
   24.6272  -21.1003  -11.8317 C   0  0  2  0  0  0  0  0  0  0  0  0
   23.8342  -20.4291  -12.8086 N   0  0  0  0  0  0  0  0  0  0  0  0
   25.3905  -20.1850  -10.9575 C   0  0  0  0  0  0  0  0  0  0  0  0
   25.6271  -18.9804  -11.2077 O   0  0  0  0  0  0  0  0  0  0  0  0
   28.9519  -19.7605   -3.9238 C   0  0  0  0  0  0  0  0  0  0  0  0
   27.8406  -20.6957   -5.0367 S   0  0  0  0  0  0  0  0  0  0  0  0
   28.0078  -20.0725   -6.7434 C   0  0  0  0  0  0  0  0  0  0  0  0
   26.9381  -20.6882   -7.5995 C   0  0  0  0  0  0  0  0  0  0  0  0
   26.9600  -20.0837   -8.9876 C   0  0  2  0  0  0  0  0  0  0  0  0
   25.8944  -20.7144   -9.7384 N   0  0  0  0  0  0  0  0  0  0  0  0
   28.2650  -20.2082   -9.6256 C   0  0  0  0  0  0  0  0  0  0  0  0
   28.5598  -21.2189  -10.2994 O   0  0  0  0  0  0  0  0  0  0  0  0
   29.2029  -19.2038   -9.4942 O   0  0  0  0  0  0  0  0  0  0  0  0
  1  2  1  0
  2  3  1  0
  4  3  1  0
  5  4  1  0
  5  6  1  1
  7  5  1  0
  7  8  2  0
 10  9  1  6
 10 12  1  0
 11 10  1  0
 12 13  1  6
 13  7  1  0
 14 12  1  0
 15 14  2  0
 16 17  1  0
 17 18  1  0
 18 19  1  0
 20 19  1  1
 20 21  1  0
 20 22  1  0
 21 14  1  0
 22 24  1  0
 23 22  2  0
M  END
$$$$
