MTM.pdb
     RDKit          3D

 24 23  0  0  1  0  0  0  0  0999 V2000
   17.8268  -18.8921  -14.4665 C   0  0  0  0  0  0  0  0  0  0  0  0
   18.7776  -20.0805  -15.3888 S   0  0  0  0  0  0  0  0  0  0  0  0
   19.1017  -21.6412  -14.6344 C   0  0  0  0  0  0  0  0  0  0  0  0
   19.0357  -21.7225  -13.1651 C   0  0  0  0  0  0  0  0  0  0  0  0
   19.2743  -22.9998  -12.4755 C   0  0  2  0  0  0  0  0  0  0  0  0
   18.7616  -24.1860  -13.0890 N   0  0  0  0  0  0  0  0  0  0  0  0
   18.7635  -22.9910  -11.0578 C   0  0  0  0  0  0  0  0  0  0  0  0
   19.0857  -22.0873  -10.2386 O   0  0  0  0  0  0  0  0  0  0  0  0
   15.6595  -22.2365   -9.5644 C   0  0  0  0  0  0  0  0  0  0  0  0
   15.9210  -23.6894   -9.1989 C   0  0  1  0  0  0  0  0  0  0  0  0
   15.2708  -24.5635  -10.0617 O   0  0  0  0  0  0  0  0  0  0  0  0
   17.4290  -23.9657   -9.2337 C   0  0  2  0  0  0  0  0  0  0  0  0
   17.8912  -24.0082  -10.5821 N   0  0  0  0  0  0  0  0  0  0  0  0
   17.6491  -25.2250   -8.4919 C   0  0  0  0  0  0  0  0  0  0  0  0
   17.8638  -26.3421   -9.0171 O   0  0  0  0  0  0  0  0  0  0  0  0
   17.0629  -24.9308   -1.8194 C   0  0  0  0  0  0  0  0  0  0  0  0
   18.0727  -26.4180   -2.1608 S   0  0  0  0  0  0  0  0  0  0  0  0
   17.7363  -27.0189   -3.8505 C   0  0  0  0  0  0  0  0  0  0  0  0
   17.7539  -25.8548   -4.7996 C   0  0  0  0  0  0  0  0  0  0  0  0
   17.6602  -26.3396   -6.2311 C   0  0  2  0  0  0  0  0  0  0  0  0
   17.6143  -25.1619   -7.0724 N   0  0  0  0  0  0  0  0  0  0  0  0
   16.5319  -27.2393   -6.4385 C   0  0  0  0  0  0  0  0  0  0  0  0
   16.7015  -28.4735   -6.5419 O   0  0  0  0  0  0  0  0  0  0  0  0
   15.2485  -26.7381   -6.5248 O   0  0  0  0  0  0  0  0  0  0  0  0
  1  2  1  0
  2  3  1  0
  4  3  1  0
  5  4  1  0
  5  6  1  6
  7  5  1  0
  7  8  2  0
 10  9  1  6
 10 12  1  0
 11 10  1  0
 12 13  1  6
 13  7  1  0
 14 12  1  0
 15 14  2  0
 16 17  1  0
 17 18  1  0
 18 19  1  0
 20 19  1  1
 20 21  1  0
 20 22  1  0
 21 14  1  0
 22 24  1  0
 23 22  2  0
M  END
$$$$
