MTM.pdb
     RDKit          3D

 24 23  0  0  1  0  0  0  0  0999 V2000
   26.5059  -17.4167  -19.5864 C   0  0  0  0  0  0  0  0  0  0  0  0
   27.3557  -15.9354  -19.0862 S   0  0  0  0  0  0  0  0  0  0  0  0
   27.2770  -15.4740  -17.3859 C   0  0  0  0  0  0  0  0  0  0  0  0
   26.5496  -16.3636  -16.4643 C   0  0  0  0  0  0  0  0  0  0  0  0
   27.2400  -16.9829  -15.3223 C   0  0  2  0  0  0  0  0  0  0  0  0
   28.5054  -17.6010  -15.5733 N   0  0  0  0  0  0  0  0  0  0  0  0
   26.3873  -18.0113  -14.6251 C   0  0  0  0  0  0  0  0  0  0  0  0
   25.1741  -17.7976  -14.3526 O   0  0  0  0  0  0  0  0  0  0  0  0
   25.5207  -21.3588  -15.7698 C   0  0  0  0  0  0  0  0  0  0  0  0
   26.1084  -21.5582  -14.3814 C   0  0  1  0  0  0  0  0  0  0  0  0
   27.4159  -22.0257  -14.4368 O   0  0  0  0  0  0  0  0  0  0  0  0
   26.0728  -20.2322  -13.6118 C   0  0  2  0  0  0  0  0  0  0  0  0
   26.9190  -19.2734  -14.2429 N   0  0  0  0  0  0  0  0  0  0  0  0
   26.4592  -20.5374  -12.2182 C   0  0  0  0  0  0  0  0  0  0  0  0
   27.6095  -20.8650  -11.8452 O   0  0  0  0  0  0  0  0  0  0  0  0
   29.6460  -19.9115   -7.2929 C   0  0  0  0  0  0  0  0  0  0  0  0
   28.0013  -19.1592   -7.0146 S   0  0  0  0  0  0  0  0  0  0  0  0
   26.7056  -20.2218   -7.7365 C   0  0  0  0  0  0  0  0  0  0  0  0
   26.5978  -19.9366   -9.2073 C   0  0  0  0  0  0  0  0  0  0  0  0
   25.6377  -20.9062   -9.8639 C   0  0  2  0  0  0  0  0  0  0  0  0
   25.4457  -20.4518  -11.2254 N   0  0  0  0  0  0  0  0  0  0  0  0
   24.3906  -21.0398   -9.1207 C   0  0  0  0  0  0  0  0  0  0  0  0
   23.3123  -20.6137   -9.5881 O   0  0  0  0  0  0  0  0  0  0  0  0
   24.3810  -21.6436   -7.8793 O   0  0  0  0  0  0  0  0  0  0  0  0
  1  2  1  0
  2  3  1  0
  4  3  1  0
  5  4  1  0
  5  6  1  6
  7  5  1  0
  7  8  2  0
 10  9  1  6
 10 12  1  0
 11 10  1  0
 12 13  1  6
 13  7  1  0
 14 12  1  0
 15 14  2  0
 16 17  1  0
 17 18  1  0
 18 19  1  0
 20 19  1  1
 20 21  1  0
 20 22  1  0
 21 14  1  0
 22 24  1  0
 23 22  2  0
M  END
$$$$
