MTM.pdb
     RDKit          3D

 24 23  0  0  1  0  0  0  0  0999 V2000
   33.0773  -22.8333  -11.9183 C   0  0  0  0  0  0  0  0  0  0  0  0
   33.0358  -23.5090  -13.5640 S   0  0  0  0  0  0  0  0  0  0  0  0
   31.5836  -23.2423  -14.5283 C   0  0  0  0  0  0  0  0  0  0  0  0
   30.5969  -22.2678  -14.0317 C   0  0  0  0  0  0  0  0  0  0  0  0
   29.3621  -22.0035  -14.7864 C   0  0  2  0  0  0  0  0  0  0  0  0
   29.4982  -21.4819  -16.1114 N   0  0  0  0  0  0  0  0  0  0  0  0
   28.4272  -21.0779  -14.0514 C   0  0  0  0  0  0  0  0  0  0  0  0
   28.2983  -19.8654  -14.3753 O   0  0  0  0  0  0  0  0  0  0  0  0
   26.1730  -19.2966  -14.1522 C   0  0  0  0  0  0  0  0  0  0  0  0
   25.7099  -20.0719  -12.9285 C   0  0  1  0  0  0  0  0  0  0  0  0
   24.8879  -21.1379  -13.2737 O   0  0  0  0  0  0  0  0  0  0  0  0
   26.9287  -20.5958  -12.1592 C   0  0  2  0  0  0  0  0  0  0  0  0
   27.6466  -21.5366  -12.9550 N   0  0  0  0  0  0  0  0  0  0  0  0
   26.4223  -21.1580  -10.8896 C   0  0  0  0  0  0  0  0  0  0  0  0
   26.1908  -22.3714  -10.6809 O   0  0  0  0  0  0  0  0  0  0  0  0
   27.3782  -19.3583   -3.3410 C   0  0  0  0  0  0  0  0  0  0  0  0
   27.4091  -18.8298   -5.0925 S   0  0  0  0  0  0  0  0  0  0  0  0
   26.5460  -20.0619   -6.1251 C   0  0  0  0  0  0  0  0  0  0  0  0
   26.7413  -19.7142   -7.5733 C   0  0  0  0  0  0  0  0  0  0  0  0
   25.9766  -20.6787   -8.4553 C   0  0  2  0  0  0  0  0  0  0  0  0
   26.1798  -20.2498   -9.8234 N   0  0  0  0  0  0  0  0  0  0  0  0
   24.5697  -20.7720   -8.0846 C   0  0  0  0  0  0  0  0  0  0  0  0
   23.6840  -20.2154   -8.7690 O   0  0  0  0  0  0  0  0  0  0  0  0
   24.1908  -21.4822   -6.9631 O   0  0  0  0  0  0  0  0  0  0  0  0
  1  2  1  0
  2  3  1  0
  4  3  1  0
  5  4  1  0
  5  6  1  6
  7  5  1  0
  7  8  2  0
 10  9  1  6
 10 12  1  0
 11 10  1  0
 12 13  1  6
 13  7  1  0
 14 12  1  0
 15 14  2  0
 16 17  1  0
 17 18  1  0
 18 19  1  0
 20 19  1  1
 20 21  1  0
 20 22  1  0
 21 14  1  0
 22 24  1  0
 23 22  2  0
M  END
$$$$
