HTQ.pdb
     RDKit          3D

 27 27  0  0  1  0  0  0  0  0999 V2000
   12.0444  -16.1325   18.6794 N   0  0  0  0  0  0  0  0  0  0  0  0
   12.6303  -15.2513   19.6465 C   0  0  1  0  0  0  0  0  0  0  0  0
   13.1358  -14.0027   18.9505 C   0  0  0  0  0  0  0  0  0  0  0  0
   14.1739  -14.4325   17.9775 C   0  0  0  0  0  0  0  0  0  0  0  0
   15.4087  -14.9563   18.2717 C   0  0  0  0  0  0  0  0  0  0  0  0
   16.0941  -15.2358   17.1362 N   0  0  0  0  0  0  0  0  0  0  0  0
   15.2765  -14.8820   16.1344 C   0  0  0  0  0  0  0  0  0  0  0  0
   14.1186  -14.3974   16.6171 N   0  0  0  0  0  0  0  0  0  0  0  0
   11.7067  -14.9242   20.7604 C   0  0  0  0  0  0  0  0  0  0  0  0
   12.1813  -14.2280   21.7023 O   0  0  0  0  0  0  0  0  0  0  0  0
    7.6520  -14.1356   20.6124 C   0  0  0  0  0  0  0  0  0  0  0  0
    8.0857  -15.0648   21.7015 C   0  0  1  0  0  0  0  0  0  0  0  0
    7.8083  -16.3711   21.2838 O   0  0  0  0  0  0  0  0  0  0  0  0
    9.5685  -15.0003   21.9766 C   0  0  2  0  0  0  0  0  0  0  0  0
   10.3703  -15.3274   20.8361 N   0  0  0  0  0  0  0  0  0  0  0  0
    9.8259  -15.9009   23.1422 C   0  0  0  0  0  0  0  0  0  0  0  0
   10.3591  -17.0119   22.8532 O   0  0  0  0  0  0  0  0  0  0  0  0
   11.2188  -14.4169   28.9005 N   0  0  0  0  0  0  0  0  0  0  0  0
    9.8630  -14.1426   28.5902 C   0  0  0  0  0  0  0  0  0  0  0  0
    9.1877  -13.3167   29.2606 O   0  0  0  0  0  0  0  0  0  0  0  0
    9.2530  -14.8821   27.4178 C   0  0  0  0  0  0  0  0  0  0  0  0
   10.3541  -15.6553   26.7463 C   0  0  0  0  0  0  0  0  0  0  0  0
    9.9164  -16.4529   25.5451 C   0  0  2  0  0  0  0  0  0  0  0  0
    9.5110  -15.5651   24.4611 N   0  0  0  0  0  0  0  0  0  0  0  0
    8.8188  -17.3675   25.8683 C   0  0  0  0  0  0  0  0  0  0  0  0
    7.6734  -17.1817   25.4077 O   0  0  0  0  0  0  0  0  0  0  0  0
    8.9718  -18.4925   26.6998 O   0  0  0  0  0  0  0  0  0  0  0  0
  2  3  1  0
  2  1  1  6
  3  4  1  0
  4  5  2  0
  4  8  1  0
  5  6  1  0
  6  7  1  0
  8  7  2  0
  9 10  2  0
  9  2  1  0
 12 11  1  6
 12 14  1  0
 13 12  1  0
 14 16  1  0
 14 15  1  6
 15  9  1  0
 16 24  1  0
 17 16  2  0
 19 21  1  0
 19 18  1  0
 20 19  2  0
 23 22  1  1
 22 21  1  0
 24 23  1  0
 25 27  1  0
 25 23  1  0
 26 25  2  0
M  END
$$$$
