HTQ.pdb
     RDKit          3D

 27 27  0  0  1  0  0  0  0  0999 V2000
    9.1248  -16.8147   15.8061 N   0  0  0  0  0  0  0  0  0  0  0  0
    8.5985  -17.2256   17.0746 C   0  0  1  0  0  0  0  0  0  0  0  0
    8.9331  -18.6854   17.3108 C   0  0  0  0  0  0  0  0  0  0  0  0
    8.1175  -19.4823   16.3574 C   0  0  0  0  0  0  0  0  0  0  0  0
    6.7738  -19.3435   16.1105 C   0  0  0  0  0  0  0  0  0  0  0  0
    6.3622  -20.2387   15.1797 N   0  0  0  0  0  0  0  0  0  0  0  0
    7.4595  -20.9348   14.8501 C   0  0  0  0  0  0  0  0  0  0  0  0
    8.5243  -20.4971   15.5453 N   0  0  0  0  0  0  0  0  0  0  0  0
    9.0597  -16.3678   18.1936 C   0  0  0  0  0  0  0  0  0  0  0  0
   10.3080  -16.2037   18.3028 O   0  0  0  0  0  0  0  0  0  0  0  0
    7.1339  -13.0811   19.9345 C   0  0  0  0  0  0  0  0  0  0  0  0
    7.7426  -14.0804   20.8666 C   0  0  1  0  0  0  0  0  0  0  0  0
    6.7182  -14.9164   21.3244 O   0  0  0  0  0  0  0  0  0  0  0  0
    8.7629  -14.9679   20.1959 C   0  0  2  0  0  0  0  0  0  0  0  0
    8.2205  -15.7401   19.1189 N   0  0  0  0  0  0  0  0  0  0  0  0
    9.3631  -15.8163   21.2711 C   0  0  0  0  0  0  0  0  0  0  0  0
    9.0745  -17.0470   21.2060 O   0  0  0  0  0  0  0  0  0  0  0  0
   14.8848  -15.7066   23.1537 N   0  0  0  0  0  0  0  0  0  0  0  0
   14.4857  -16.6871   24.0966 C   0  0  0  0  0  0  0  0  0  0  0  0
   15.3297  -17.3283   24.7777 O   0  0  0  0  0  0  0  0  0  0  0  0
   13.0005  -16.9368   24.2559 C   0  0  0  0  0  0  0  0  0  0  0  0
   12.2820  -16.0272   23.2982 C   0  0  0  0  0  0  0  0  0  0  0  0
   10.7902  -16.2318   23.2403 C   0  0  2  0  0  0  0  0  0  0  0  0
   10.1842  -15.3131   22.2830 N   0  0  0  0  0  0  0  0  0  0  0  0
   10.1645  -16.0574   24.5533 C   0  0  0  0  0  0  0  0  0  0  0  0
   10.1539  -16.9871   25.3863 O   0  0  0  0  0  0  0  0  0  0  0  0
    9.5462  -14.8605   24.9602 O   0  0  0  0  0  0  0  0  0  0  0  0
  2  3  1  0
  2  1  1  6
  3  4  1  0
  4  5  2  0
  4  8  1  0
  5  6  1  0
  6  7  1  0
  8  7  2  0
  9 10  2  0
  9  2  1  0
 12 11  1  6
 12 14  1  0
 13 12  1  0
 14 16  1  0
 14 15  1  6
 15  9  1  0
 16 24  1  0
 17 16  2  0
 19 21  1  0
 19 18  1  0
 20 19  2  0
 23 22  1  1
 22 21  1  0
 24 23  1  0
 25 27  1  0
 25 23  1  0
 26 25  2  0
M  END
$$$$
