HTQ.pdb
     RDKit          3D

 27 27  0  0  1  0  0  0  0  0999 V2000
   14.3245  -13.7676   17.6793 N   0  0  0  0  0  0  0  0  0  0  0  0
   13.1133  -14.5312   17.6091 C   0  0  1  0  0  0  0  0  0  0  0  0
   13.4422  -15.9674   17.2515 C   0  0  0  0  0  0  0  0  0  0  0  0
   13.9268  -15.9698   15.8464 C   0  0  0  0  0  0  0  0  0  0  0  0
   13.1836  -15.7113   14.7209 C   0  0  0  0  0  0  0  0  0  0  0  0
   13.9517  -15.8016   13.6077 N   0  0  0  0  0  0  0  0  0  0  0  0
   15.1773  -16.1179   14.0494 C   0  0  0  0  0  0  0  0  0  0  0  0
   15.1846  -16.2237   15.3900 N   0  0  0  0  0  0  0  0  0  0  0  0
   12.3064  -14.4448   18.8510 C   0  0  0  0  0  0  0  0  0  0  0  0
   12.9471  -14.3433   19.9355 O   0  0  0  0  0  0  0  0  0  0  0  0
    8.6614  -12.5190   19.4904 C   0  0  0  0  0  0  0  0  0  0  0  0
    8.7846  -13.9181   20.0051 C   0  0  1  0  0  0  0  0  0  0  0  0
    8.1848  -14.7707   19.0716 O   0  0  0  0  0  0  0  0  0  0  0  0
   10.2177  -14.3694   20.1504 C   0  0  2  0  0  0  0  0  0  0  0  0
   10.9094  -14.4678   18.9005 N   0  0  0  0  0  0  0  0  0  0  0  0
   10.1836  -15.6651   20.8963 C   0  0  0  0  0  0  0  0  0  0  0  0
   10.3583  -16.6973   20.1850 O   0  0  0  0  0  0  0  0  0  0  0  0
    9.6015  -16.5981   26.9998 N   0  0  0  0  0  0  0  0  0  0  0  0
   10.8967  -16.2868   26.5147 C   0  0  0  0  0  0  0  0  0  0  0  0
   11.8256  -15.9400   27.2921 O   0  0  0  0  0  0  0  0  0  0  0  0
   11.1240  -16.3868   25.0208 C   0  0  0  0  0  0  0  0  0  0  0  0
    9.8658  -16.9344   24.4058 C   0  0  0  0  0  0  0  0  0  0  0  0
    9.9098  -17.0700   22.9057 C   0  0  2  0  0  0  0  0  0  0  0  0
    9.9762  -15.7566   22.2747 N   0  0  0  0  0  0  0  0  0  0  0  0
    8.7524  -17.8053   22.3905 C   0  0  0  0  0  0  0  0  0  0  0  0
    7.8249  -17.2104   21.8038 O   0  0  0  0  0  0  0  0  0  0  0  0
    8.6059  -19.1992   22.5163 O   0  0  0  0  0  0  0  0  0  0  0  0
  2  3  1  0
  2  1  1  1
  3  4  1  0
  4  5  2  0
  4  8  1  0
  5  6  1  0
  6  7  1  0
  8  7  2  0
  9 10  2  0
  9  2  1  0
 12 11  1  6
 12 14  1  0
 13 12  1  0
 14 16  1  0
 14 15  1  6
 15  9  1  0
 16 24  1  0
 17 16  2  0
 19 21  1  0
 19 18  1  0
 20 19  2  0
 23 22  1  1
 22 21  1  0
 24 23  1  0
 25 27  1  0
 25 23  1  0
 26 25  2  0
M  END
$$$$
