HTQ.pdb
     RDKit          3D

 27 27  0  0  1  0  0  0  0  0999 V2000
    8.8561  -15.7485   18.2651 N   0  0  0  0  0  0  0  0  0  0  0  0
    8.4109  -14.5675   18.9450 C   0  0  1  0  0  0  0  0  0  0  0  0
    7.1967  -14.0032   18.2335 C   0  0  0  0  0  0  0  0  0  0  0  0
    7.5249  -13.9443   16.7851 C   0  0  0  0  0  0  0  0  0  0  0  0
    8.6986  -14.3401   16.1922 C   0  0  0  0  0  0  0  0  0  0  0  0
    8.6493  -14.1431   14.8521 N   0  0  0  0  0  0  0  0  0  0  0  0
    7.4368  -13.6220   14.6164 C   0  0  0  0  0  0  0  0  0  0  0  0
    6.7455  -13.4943   15.7629 N   0  0  0  0  0  0  0  0  0  0  0  0
    8.1453  -14.7993   20.3860 C   0  0  0  0  0  0  0  0  0  0  0  0
    7.7186  -13.8112   21.0483 O   0  0  0  0  0  0  0  0  0  0  0  0
    5.8184  -17.3109   22.0189 C   0  0  0  0  0  0  0  0  0  0  0  0
    7.1365  -17.3566   22.7247 C   0  0  1  0  0  0  0  0  0  0  0  0
    7.8314  -18.4783   22.2590 O   0  0  0  0  0  0  0  0  0  0  0  0
    8.0032  -16.1552   22.4350 C   0  0  2  0  0  0  0  0  0  0  0  0
    8.3324  -16.0162   21.0483 N   0  0  0  0  0  0  0  0  0  0  0  0
    9.2117  -16.2804   23.3067 C   0  0  0  0  0  0  0  0  0  0  0  0
   10.3085  -16.4033   22.6872 O   0  0  0  0  0  0  0  0  0  0  0  0
   10.3705  -13.2881   28.4299 N   0  0  0  0  0  0  0  0  0  0  0  0
    9.8576  -14.5312   28.8788 C   0  0  0  0  0  0  0  0  0  0  0  0
    9.4815  -14.6974   30.0697 O   0  0  0  0  0  0  0  0  0  0  0  0
    9.7779  -15.6575   27.8695 C   0  0  0  0  0  0  0  0  0  0  0  0
   10.2625  -15.1207   26.5511 C   0  0  0  0  0  0  0  0  0  0  0  0
   10.3994  -16.1568   25.4656 C   0  0  2  0  0  0  0  0  0  0  0  0
    9.1610  -16.2657   24.7027 N   0  0  0  0  0  0  0  0  0  0  0  0
   10.7607  -17.4692   26.0069 C   0  0  0  0  0  0  0  0  0  0  0  0
    9.9152  -18.3842   26.0862 O   0  0  0  0  0  0  0  0  0  0  0  0
   12.0532  -17.7854   26.4647 O   0  0  0  0  0  0  0  0  0  0  0  0
  2  3  1  0
  2  1  1  6
  3  4  1  0
  4  5  2  0
  4  8  1  0
  5  6  1  0
  6  7  1  0
  8  7  2  0
  9 10  2  0
  9  2  1  0
 12 11  1  6
 12 14  1  0
 13 12  1  0
 14 16  1  0
 14 15  1  6
 15  9  1  0
 16 24  1  0
 17 16  2  0
 19 21  1  0
 19 18  1  0
 20 19  2  0
 23 22  1  1
 22 21  1  0
 24 23  1  0
 25 27  1  0
 25 23  1  0
 26 25  2  0
M  END
$$$$
