HTQ.pdb
     RDKit          3D

 27 27  0  0  1  0  0  0  0  0999 V2000
    8.0531  -17.2052   18.5013 N   0  0  0  0  0  0  0  0  0  0  0  0
    8.7524  -16.2940   19.3591 C   0  0  1  0  0  0  0  0  0  0  0  0
    7.9183  -15.0428   19.5534 C   0  0  0  0  0  0  0  0  0  0  0  0
    7.8213  -14.3704   18.2314 C   0  0  0  0  0  0  0  0  0  0  0  0
    8.3383  -14.8203   17.0414 C   0  0  0  0  0  0  0  0  0  0  0  0
    8.0596  -13.9520   16.0386 N   0  0  0  0  0  0  0  0  0  0  0  0
    7.3659  -12.9595   16.6139 C   0  0  0  0  0  0  0  0  0  0  0  0
    7.2115  -13.1907   17.9296 N   0  0  0  0  0  0  0  0  0  0  0  0
    9.1374  -16.9049   20.6551 C   0  0  0  0  0  0  0  0  0  0  0  0
    8.1954  -17.1880   21.4486 O   0  0  0  0  0  0  0  0  0  0  0  0
   11.2009  -20.0875   21.3444 C   0  0  0  0  0  0  0  0  0  0  0  0
   11.7028  -18.9614   22.1916 C   0  0  1  0  0  0  0  0  0  0  0  0
   12.8508  -18.4458   21.5800 O   0  0  0  0  0  0  0  0  0  0  0  0
   10.7187  -17.8223   22.3027 C   0  0  2  0  0  0  0  0  0  0  0  0
   10.4493  -17.1832   21.0499 N   0  0  0  0  0  0  0  0  0  0  0  0
   11.2691  -16.8808   23.3258 C   0  0  0  0  0  0  0  0  0  0  0  0
   11.8600  -15.8649   22.8559 O   0  0  0  0  0  0  0  0  0  0  0  0
    8.9609  -15.0139   28.4335 N   0  0  0  0  0  0  0  0  0  0  0  0
   10.2169  -14.3923   28.6475 C   0  0  0  0  0  0  0  0  0  0  0  0
   10.4056  -13.6027   29.6109 O   0  0  0  0  0  0  0  0  0  0  0  0
   11.3289  -14.7139   27.6709 C   0  0  0  0  0  0  0  0  0  0  0  0
   10.7710  -15.6588   26.6428 C   0  0  0  0  0  0  0  0  0  0  0  0
   11.7725  -16.1375   25.6237 C   0  0  2  0  0  0  0  0  0  0  0  0
   11.1534  -17.0842   24.7030 N   0  0  0  0  0  0  0  0  0  0  0  0
   12.9396  -16.7574   26.2556 C   0  0  0  0  0  0  0  0  0  0  0  0
   13.0223  -17.9977   26.3709 O   0  0  0  0  0  0  0  0  0  0  0  0
   14.0239  -16.0192   26.7652 O   0  0  0  0  0  0  0  0  0  0  0  0
  2  3  1  0
  2  1  1  6
  3  4  1  0
  4  5  2  0
  4  8  1  0
  5  6  1  0
  6  7  1  0
  8  7  2  0
  9 10  2  0
  9  2  1  0
 12 11  1  6
 12 14  1  0
 13 12  1  0
 14 16  1  0
 14 15  1  6
 15  9  1  0
 16 24  1  0
 17 16  2  0
 19 21  1  0
 19 18  1  0
 20 19  2  0
 23 22  1  1
 22 21  1  0
 24 23  1  0
 25 27  1  0
 25 23  1  0
 26 25  2  0
M  END
$$$$
