HTQ.pdb
     RDKit          3D

 27 27  0  0  1  0  0  0  0  0999 V2000
   10.3081  -18.5798   19.2029 N   0  0  0  0  0  0  0  0  0  0  0  0
   11.0461  -17.3623   19.3707 C   0  0  1  0  0  0  0  0  0  0  0  0
   11.1547  -16.6501   18.0365 C   0  0  0  0  0  0  0  0  0  0  0  0
   11.7914  -17.5971   17.0842 C   0  0  0  0  0  0  0  0  0  0  0  0
   13.0087  -18.2155   17.2313 C   0  0  0  0  0  0  0  0  0  0  0  0
   13.2730  -19.0133   16.1678 N   0  0  0  0  0  0  0  0  0  0  0  0
   12.2114  -18.8863   15.3590 C   0  0  0  0  0  0  0  0  0  0  0  0
   11.3103  -18.0410   15.8899 N   0  0  0  0  0  0  0  0  0  0  0  0
   10.4731  -16.4823   20.4186 C   0  0  0  0  0  0  0  0  0  0  0  0
   11.1255  -15.4366   20.6974 O   0  0  0  0  0  0  0  0  0  0  0  0
    6.6138  -15.2534   21.2415 C   0  0  0  0  0  0  0  0  0  0  0  0
    7.3626  -15.8712   22.3797 C   0  0  1  0  0  0  0  0  0  0  0  0
    6.9676  -17.2102   22.4738 O   0  0  0  0  0  0  0  0  0  0  0  0
    8.8577  -15.8710   22.1718 C   0  0  2  0  0  0  0  0  0  0  0  0
    9.2808  -16.7285   21.1059 N   0  0  0  0  0  0  0  0  0  0  0  0
    9.4714  -16.2355   23.4858 C   0  0  0  0  0  0  0  0  0  0  0  0
    9.9280  -17.4140   23.5551 O   0  0  0  0  0  0  0  0  0  0  0  0
   10.5148  -13.0409   28.8383 N   0  0  0  0  0  0  0  0  0  0  0  0
    9.3078  -12.8768   28.1130 C   0  0  0  0  0  0  0  0  0  0  0  0
    8.4726  -11.9839   28.4170 O   0  0  0  0  0  0  0  0  0  0  0  0
    9.0580  -13.8188   26.9537 C   0  0  0  0  0  0  0  0  0  0  0  0
   10.2841  -14.6739   26.7913 C   0  0  0  0  0  0  0  0  0  0  0  0
   10.1235  -15.8223   25.8290 C   0  0  2  0  0  0  0  0  0  0  0  0
    9.5476  -15.3596   24.5713 N   0  0  0  0  0  0  0  0  0  0  0  0
    9.2905  -16.8897   26.3881 C   0  0  0  0  0  0  0  0  0  0  0  0
    9.6709  -17.5463   27.3794 O   0  0  0  0  0  0  0  0  0  0  0  0
    8.0340  -17.2432   25.8622 O   0  0  0  0  0  0  0  0  0  0  0  0
  2  3  1  0
  2  1  1  6
  3  4  1  0
  4  5  2  0
  4  8  1  0
  5  6  1  0
  6  7  1  0
  8  7  2  0
  9 10  2  0
  9  2  1  0
 12 11  1  6
 12 14  1  0
 13 12  1  0
 14 16  1  0
 14 15  1  6
 15  9  1  0
 16 24  1  0
 17 16  2  0
 19 21  1  0
 19 18  1  0
 20 19  2  0
 23 22  1  1
 22 21  1  0
 24 23  1  0
 25 27  1  0
 25 23  1  0
 26 25  2  0
M  END
$$$$
