HTQ.pdb
     RDKit          3D

 27 27  0  0  1  0  0  0  0  0999 V2000
    8.2781  -17.2921   17.1413 N   0  0  0  0  0  0  0  0  0  0  0  0
    8.5587  -16.2604   18.0962 C   0  0  1  0  0  0  0  0  0  0  0  0
    7.7817  -15.0105   17.7316 C   0  0  0  0  0  0  0  0  0  0  0  0
    8.1469  -13.9627   18.7205 C   0  0  0  0  0  0  0  0  0  0  0  0
    8.7646  -12.7648   18.4574 C   0  0  0  0  0  0  0  0  0  0  0  0
    8.9435  -12.0565   19.5992 N   0  0  0  0  0  0  0  0  0  0  0  0
    8.4326  -12.8227   20.5734 C   0  0  0  0  0  0  0  0  0  0  0  0
    7.9492  -13.9713   20.0679 N   0  0  0  0  0  0  0  0  0  0  0  0
    8.2955  -16.6832   19.4936 C   0  0  0  0  0  0  0  0  0  0  0  0
    7.0959  -16.9518   19.7866 O   0  0  0  0  0  0  0  0  0  0  0  0
    9.1645  -19.7119   21.2568 C   0  0  0  0  0  0  0  0  0  0  0  0
    9.5869  -18.5874   22.1482 C   0  0  1  0  0  0  0  0  0  0  0  0
   10.9640  -18.4042   21.9809 O   0  0  0  0  0  0  0  0  0  0  0  0
    8.9266  -17.2761   21.7973 C   0  0  2  0  0  0  0  0  0  0  0  0
    9.2688  -16.8023   20.4901 N   0  0  0  0  0  0  0  0  0  0  0  0
    9.2951  -16.3101   22.8777 C   0  0  0  0  0  0  0  0  0  0  0  0
   10.3103  -15.5948   22.6331 O   0  0  0  0  0  0  0  0  0  0  0  0
    5.9888  -11.8910   26.4215 N   0  0  0  0  0  0  0  0  0  0  0  0
    6.0268  -13.2620   26.0628 C   0  0  0  0  0  0  0  0  0  0  0  0
    5.1607  -14.0764   26.4801 O   0  0  0  0  0  0  0  0  0  0  0  0
    7.1519  -13.7139   25.1554 C   0  0  0  0  0  0  0  0  0  0  0  0
    7.9774  -14.7123   25.9187 C   0  0  0  0  0  0  0  0  0  0  0  0
    9.1076  -15.3230   25.1309 C   0  0  2  0  0  0  0  0  0  0  0  0
    8.5884  -16.1866   24.0763 N   0  0  0  0  0  0  0  0  0  0  0  0
   10.0193  -16.0856   25.9870 C   0  0  0  0  0  0  0  0  0  0  0  0
    9.9976  -17.3338   25.9941 O   0  0  0  0  0  0  0  0  0  0  0  0
   10.9611  -15.4824   26.8411 O   0  0  0  0  0  0  0  0  0  0  0  0
  2  3  1  0
  2  1  1  6
  3  4  1  0
  4  5  2  0
  4  8  1  0
  5  6  1  0
  6  7  1  0
  8  7  2  0
  9 10  2  0
  9  2  1  0
 12 11  1  6
 12 14  1  0
 13 12  1  0
 14 16  1  0
 14 15  1  6
 15  9  1  0
 16 24  1  0
 17 16  2  0
 19 21  1  0
 19 18  1  0
 20 19  2  0
 23 22  1  1
 22 21  1  0
 24 23  1  0
 25 27  1  0
 25 23  1  0
 26 25  2  0
M  END
$$$$
