HTQ.pdb
     RDKit          3D

 27 27  0  0  1  0  0  0  0  0999 V2000
    8.5490  -16.7424   15.7738 N   0  0  0  0  0  0  0  0  0  0  0  0
    7.8704  -16.9184   17.0243 C   0  0  1  0  0  0  0  0  0  0  0  0
    7.7048  -18.3993   17.3045 C   0  0  0  0  0  0  0  0  0  0  0  0
    6.7536  -18.9333   16.2948 C   0  0  0  0  0  0  0  0  0  0  0  0
    7.0730  -19.5159   15.0930 C   0  0  0  0  0  0  0  0  0  0  0  0
    5.9523  -19.8863   14.4266 N   0  0  0  0  0  0  0  0  0  0  0  0
    4.9344  -19.5296   15.2227 C   0  0  0  0  0  0  0  0  0  0  0  0
    5.3930  -18.9559   16.3492 N   0  0  0  0  0  0  0  0  0  0  0  0
    8.5419  -16.2183   18.1465 C   0  0  0  0  0  0  0  0  0  0  0  0
    9.8009  -16.1279   18.0840 O   0  0  0  0  0  0  0  0  0  0  0  0
    7.3220  -12.9133   20.2724 C   0  0  0  0  0  0  0  0  0  0  0  0
    7.8206  -14.0523   21.1042 C   0  0  1  0  0  0  0  0  0  0  0  0
    6.7065  -14.7358   21.6037 O   0  0  0  0  0  0  0  0  0  0  0  0
    8.6272  -15.0526   20.3124 C   0  0  2  0  0  0  0  0  0  0  0  0
    7.8866  -15.6618   19.2490 N   0  0  0  0  0  0  0  0  0  0  0  0
    9.1547  -16.0490   21.2948 C   0  0  0  0  0  0  0  0  0  0  0  0
    8.8120  -17.2480   21.0779 O   0  0  0  0  0  0  0  0  0  0  0  0
   10.3063  -20.0133   21.8297 N   0  0  0  0  0  0  0  0  0  0  0  0
   11.3790  -20.0845   22.7538 C   0  0  0  0  0  0  0  0  0  0  0  0
   11.7466  -21.1812   23.2533 O   0  0  0  0  0  0  0  0  0  0  0  0
   12.0702  -18.7878   23.1203 C   0  0  0  0  0  0  0  0  0  0  0  0
   11.3960  -17.6822   22.3560 C   0  0  0  0  0  0  0  0  0  0  0  0
   10.5505  -16.7634   23.1995 C   0  0  2  0  0  0  0  0  0  0  0  0
    9.9666  -15.7081   22.3792 N   0  0  0  0  0  0  0  0  0  0  0  0
   11.3193  -16.1668   24.2944 C   0  0  0  0  0  0  0  0  0  0  0  0
   11.8270  -15.0324   24.1767 O   0  0  0  0  0  0  0  0  0  0  0  0
   11.5356  -16.8122   25.5261 O   0  0  0  0  0  0  0  0  0  0  0  0
  2  3  1  0
  2  1  1  6
  3  4  1  0
  4  5  2  0
  4  8  1  0
  5  6  1  0
  6  7  1  0
  8  7  2  0
  9 10  2  0
  9  2  1  0
 12 11  1  6
 12 14  1  0
 13 12  1  0
 14 16  1  0
 14 15  1  6
 15  9  1  0
 16 24  1  0
 17 16  2  0
 19 21  1  0
 19 18  1  0
 20 19  2  0
 23 22  1  6
 22 21  1  0
 24 23  1  0
 25 27  1  0
 25 23  1  0
 26 25  2  0
M  END
$$$$
