HTQ.pdb
     RDKit          3D

 27 27  0  0  1  0  0  0  0  0999 V2000
   10.5219  -19.7257   15.9752 N   0  0  0  0  0  0  0  0  0  0  0  0
   11.2666  -20.7610   16.6299 C   0  0  1  0  0  0  0  0  0  0  0  0
   12.7180  -20.6895   16.1969 C   0  0  0  0  0  0  0  0  0  0  0  0
   12.7485  -20.9063   14.7268 C   0  0  0  0  0  0  0  0  0  0  0  0
   12.4596  -22.0730   14.0626 C   0  0  0  0  0  0  0  0  0  0  0  0
   12.5902  -21.9076   12.7236 N   0  0  0  0  0  0  0  0  0  0  0  0
   12.9623  -20.6300   12.5606 C   0  0  0  0  0  0  0  0  0  0  0  0
   13.0632  -20.0109   13.7501 N   0  0  0  0  0  0  0  0  0  0  0  0
   11.1308  -20.7212   18.1066 C   0  0  0  0  0  0  0  0  0  0  0  0
   11.4729  -19.6466   18.6770 O   0  0  0  0  0  0  0  0  0  0  0  0
    8.0382  -21.1011   20.2500 C   0  0  0  0  0  0  0  0  0  0  0  0
    9.1111  -21.9917   20.7917 C   0  0  1  0  0  0  0  0  0  0  0  0
    8.8615  -23.2893   20.3315 O   0  0  0  0  0  0  0  0  0  0  0  0
   10.4906  -21.6152   20.3084 C   0  0  2  0  0  0  0  0  0  0  0  0
   10.6579  -21.7743   18.8951 N   0  0  0  0  0  0  0  0  0  0  0  0
   11.4589  -22.4336   21.1013 C   0  0  0  0  0  0  0  0  0  0  0  0
   11.8036  -23.5260   20.5629 O   0  0  0  0  0  0  0  0  0  0  0  0
   14.8239  -20.6285   25.9026 N   0  0  0  0  0  0  0  0  0  0  0  0
   15.6359  -20.8583   24.7634 C   0  0  0  0  0  0  0  0  0  0  0  0
   16.7988  -20.3815   24.6762 O   0  0  0  0  0  0  0  0  0  0  0  0
   15.0514  -21.7020   23.6498 C   0  0  0  0  0  0  0  0  0  0  0  0
   13.6738  -22.1268   24.0774 C   0  0  0  0  0  0  0  0  0  0  0  0
   12.9093  -22.9077   23.0399 C   0  0  2  0  0  0  0  0  0  0  0  0
   11.9606  -22.0443   22.3455 N   0  0  0  0  0  0  0  0  0  0  0  0
   12.1992  -24.0460   23.6280 C   0  0  0  0  0  0  0  0  0  0  0  0
   12.7355  -25.1715   23.6926 O   0  0  0  0  0  0  0  0  0  0  0  0
   10.8951  -23.9558   24.1491 O   0  0  0  0  0  0  0  0  0  0  0  0
  2  3  1  0
  2  1  1  6
  3  4  1  0
  4  5  2  0
  4  8  1  0
  5  6  1  0
  6  7  1  0
  8  7  2  0
  9 10  2  0
  9  2  1  0
 12 11  1  6
 12 14  1  0
 13 12  1  0
 14 16  1  0
 14 15  1  6
 15  9  1  0
 16 24  1  0
 17 16  2  0
 19 21  1  0
 19 18  1  0
 20 19  2  0
 23 22  1  1
 22 21  1  0
 24 23  1  0
 25 27  1  0
 25 23  1  0
 26 25  2  0
M  END
$$$$
