HTQ.pdb
     RDKit          3D

 27 27  0  0  1  0  0  0  0  0999 V2000
   12.6057  -19.4657   15.7802 N   0  0  0  0  0  0  0  0  0  0  0  0
   12.6610  -20.8006   16.2999 C   0  0  1  0  0  0  0  0  0  0  0  0
   14.0889  -21.3070   16.2391 C   0  0  0  0  0  0  0  0  0  0  0  0
   14.4606  -21.4001   14.8030 C   0  0  0  0  0  0  0  0  0  0  0  0
   13.6012  -21.5124   13.7378 C   0  0  0  0  0  0  0  0  0  0  0  0
   14.2887  -21.5734   12.5712 N   0  0  0  0  0  0  0  0  0  0  0  0
   15.5812  -21.4982   12.9190 C   0  0  0  0  0  0  0  0  0  0  0  0
   15.7069  -21.3937   14.2539 N   0  0  0  0  0  0  0  0  0  0  0  0
   12.0970  -20.9089   17.6677 C   0  0  0  0  0  0  0  0  0  0  0  0
   12.5037  -20.0645   18.5154 O   0  0  0  0  0  0  0  0  0  0  0  0
    8.3329  -21.0221   18.6275 C   0  0  0  0  0  0  0  0  0  0  0  0
    9.0956  -22.0596   19.3887 C   0  0  1  0  0  0  0  0  0  0  0  0
    8.8833  -23.2919   18.7608 O   0  0  0  0  0  0  0  0  0  0  0  0
   10.5857  -21.8185   19.3839 C   0  0  2  0  0  0  0  0  0  0  0  0
   11.1623  -21.8659   18.0740 N   0  0  0  0  0  0  0  0  0  0  0  0
   11.1837  -22.8235   20.3159 C   0  0  0  0  0  0  0  0  0  0  0  0
   11.7155  -23.8252   19.7538 O   0  0  0  0  0  0  0  0  0  0  0  0
   13.7418  -21.7637   25.6776 N   0  0  0  0  0  0  0  0  0  0  0  0
   12.3512  -21.9303   25.8971 C   0  0  0  0  0  0  0  0  0  0  0  0
   11.7969  -21.5206   26.9518 O   0  0  0  0  0  0  0  0  0  0  0  0
   11.5525  -22.6221   24.8123 C   0  0  0  0  0  0  0  0  0  0  0  0
   12.5099  -23.0050   23.7178 C   0  0  0  0  0  0  0  0  0  0  0  0
   11.8675  -23.6721   22.5292 C   0  0  2  0  0  0  0  0  0  0  0  0
   11.1697  -22.6905   21.7064 N   0  0  0  0  0  0  0  0  0  0  0  0
   10.9349  -24.7268   22.9338 C   0  0  0  0  0  0  0  0  0  0  0  0
    9.7035  -24.5842   22.7863 O   0  0  0  0  0  0  0  0  0  0  0  0
   11.3486  -25.9453   23.5034 O   0  0  0  0  0  0  0  0  0  0  0  0
  2  3  1  0
  2  1  1  1
  3  4  1  0
  4  5  2  0
  4  8  1  0
  5  6  1  0
  6  7  1  0
  8  7  2  0
  9 10  2  0
  9  2  1  0
 12 11  1  6
 12 14  1  0
 13 12  1  0
 14 16  1  0
 14 15  1  6
 15  9  1  0
 16 24  1  0
 17 16  2  0
 19 21  1  0
 19 18  1  0
 20 19  2  0
 23 22  1  1
 22 21  1  0
 24 23  1  0
 25 27  1  0
 25 23  1  0
 26 25  2  0
M  END
$$$$
