HTQ.pdb
     RDKit          3D

 27 27  0  0  1  0  0  0  0  0999 V2000
    9.3975  -15.7478   19.4750 N   0  0  0  0  0  0  0  0  0  0  0  0
    8.5524  -15.0638   20.4094 C   0  0  1  0  0  0  0  0  0  0  0  0
    7.1708  -14.8926   19.8086 C   0  0  0  0  0  0  0  0  0  0  0  0
    7.3458  -14.2404   18.4845 C   0  0  0  0  0  0  0  0  0  0  0  0
    7.5887  -12.9093   18.2504 C   0  0  0  0  0  0  0  0  0  0  0  0
    7.6925  -12.6673   16.9207 N   0  0  0  0  0  0  0  0  0  0  0  0
    7.5124  -13.8573   16.3304 C   0  0  0  0  0  0  0  0  0  0  0  0
    7.3027  -14.8153   17.2507 N   0  0  0  0  0  0  0  0  0  0  0  0
    8.4976  -15.7332   21.7321 C   0  0  0  0  0  0  0  0  0  0  0  0
    7.7047  -15.2394   22.5832 O   0  0  0  0  0  0  0  0  0  0  0  0
    8.4771  -19.7210   22.5867 C   0  0  0  0  0  0  0  0  0  0  0  0
    9.4249  -18.9159   23.4181 C   0  0  1  0  0  0  0  0  0  0  0  0
   10.7063  -19.0742   22.8788 O   0  0  0  0  0  0  0  0  0  0  0  0
    9.1212  -17.4374   23.3945 C   0  0  2  0  0  0  0  0  0  0  0  0
    9.2513  -16.8539   22.0933 N   0  0  0  0  0  0  0  0  0  0  0  0
   10.0196  -16.8010   24.4064 C   0  0  0  0  0  0  0  0  0  0  0  0
   11.1804  -16.5175   23.9891 O   0  0  0  0  0  0  0  0  0  0  0  0
    9.1040  -12.6979   28.8330 N   0  0  0  0  0  0  0  0  0  0  0  0
    8.5749  -12.7871   27.5208 C   0  0  0  0  0  0  0  0  0  0  0  0
    7.6156  -12.0613   27.1465 O   0  0  0  0  0  0  0  0  0  0  0  0
    9.2082  -13.7917   26.5810 C   0  0  0  0  0  0  0  0  0  0  0  0
    9.9279  -14.8093   27.4221 C   0  0  0  0  0  0  0  0  0  0  0  0
   10.5843  -15.9171   26.6395 C   0  0  2  0  0  0  0  0  0  0  0  0
    9.6311  -16.5289   25.7204 N   0  0  0  0  0  0  0  0  0  0  0  0
   11.1495  -16.9443   27.5177 C   0  0  0  0  0  0  0  0  0  0  0  0
   10.6644  -18.0940   27.5536 O   0  0  0  0  0  0  0  0  0  0  0  0
   12.2516  -16.7156   28.3623 O   0  0  0  0  0  0  0  0  0  0  0  0
  2  3  1  0
  2  1  1  6
  3  4  1  0
  4  5  2  0
  4  8  1  0
  5  6  1  0
  6  7  1  0
  8  7  2  0
  9 10  2  0
  9  2  1  0
 12 11  1  6
 12 14  1  0
 13 12  1  0
 14 16  1  0
 14 15  1  6
 15  9  1  0
 16 24  1  0
 17 16  2  0
 19 21  1  0
 19 18  1  0
 20 19  2  0
 23 22  1  1
 22 21  1  0
 24 23  1  0
 25 27  1  0
 25 23  1  0
 26 25  2  0
M  END
$$$$
