HTQ.pdb
     RDKit          3D

 27 27  0  0  1  0  0  0  0  0999 V2000
   14.0502  -14.0068   16.4839 N   0  0  0  0  0  0  0  0  0  0  0  0
   13.9464  -14.9741   17.5368 C   0  0  1  0  0  0  0  0  0  0  0  0
   15.3344  -15.3361   18.0281 C   0  0  0  0  0  0  0  0  0  0  0  0
   16.0190  -16.0527   16.9204 C   0  0  0  0  0  0  0  0  0  0  0  0
   15.5018  -17.0706   16.1574 C   0  0  0  0  0  0  0  0  0  0  0  0
   16.4060  -17.4876   15.2377 N   0  0  0  0  0  0  0  0  0  0  0  0
   17.4884  -16.7217   15.4346 C   0  0  0  0  0  0  0  0  0  0  0  0
   17.2776  -15.8537   16.4399 N   0  0  0  0  0  0  0  0  0  0  0  0
   13.0703  -14.5247   18.6463 C   0  0  0  0  0  0  0  0  0  0  0  0
   13.4215  -13.4736   19.2537 O   0  0  0  0  0  0  0  0  0  0  0  0
    9.2540  -13.7549   18.7679 C   0  0  0  0  0  0  0  0  0  0  0  0
    9.6449  -14.6702   19.8847 C   0  0  1  0  0  0  0  0  0  0  0  0
    9.2998  -15.9732   19.5093 O   0  0  0  0  0  0  0  0  0  0  0  0
   11.1303  -14.6724   20.1534 C   0  0  2  0  0  0  0  0  0  0  0  0
   11.9028  -15.1747   19.0573 N   0  0  0  0  0  0  0  0  0  0  0  0
   11.3351  -15.4540   21.4117 C   0  0  0  0  0  0  0  0  0  0  0  0
   11.9449  -16.5535   21.2659 O   0  0  0  0  0  0  0  0  0  0  0  0
    9.4296  -14.0345   27.1338 N   0  0  0  0  0  0  0  0  0  0  0  0
   10.0734  -15.2550   27.4587 C   0  0  0  0  0  0  0  0  0  0  0  0
   10.1606  -15.6573   28.6495 O   0  0  0  0  0  0  0  0  0  0  0  0
   10.6552  -16.0616   26.3165 C   0  0  0  0  0  0  0  0  0  0  0  0
   10.5508  -15.2255   25.0711 C   0  0  0  0  0  0  0  0  0  0  0  0
   11.1116  -15.8749   23.8323 C   0  0  2  0  0  0  0  0  0  0  0  0
   10.8962  -15.0251   22.6666 N   0  0  0  0  0  0  0  0  0  0  0  0
   10.5228  -17.1949   23.5944 C   0  0  0  0  0  0  0  0  0  0  0  0
   11.0167  -18.2189   24.1101 O   0  0  0  0  0  0  0  0  0  0  0  0
    9.3875  -17.3990   22.7884 O   0  0  0  0  0  0  0  0  0  0  0  0
  2  3  1  0
  2  1  1  6
  3  4  1  0
  4  5  2  0
  4  8  1  0
  5  6  1  0
  6  7  1  0
  8  7  2  0
  9 10  2  0
  9  2  1  0
 12 11  1  6
 12 14  1  0
 13 12  1  0
 14 16  1  0
 14 15  1  6
 15  9  1  0
 16 24  1  0
 17 16  2  0
 19 21  1  0
 19 18  1  0
 20 19  2  0
 23 22  1  1
 22 21  1  0
 24 23  1  0
 25 27  1  0
 25 23  1  0
 26 25  2  0
M  END
$$$$
