HTQ.pdb
     RDKit          3D

 27 27  0  0  1  0  0  0  0  0999 V2000
   11.7074  -14.4839   15.0419 N   0  0  0  0  0  0  0  0  0  0  0  0
   10.7846  -15.2098   15.8645 C   0  0  1  0  0  0  0  0  0  0  0  0
   11.1261  -16.6865   15.8239 C   0  0  0  0  0  0  0  0  0  0  0  0
   10.8520  -17.1625   14.4428 C   0  0  0  0  0  0  0  0  0  0  0  0
   10.3272  -16.4261   13.4093 C   0  0  0  0  0  0  0  0  0  0  0  0
   10.2137  -17.1827   12.2905 N   0  0  0  0  0  0  0  0  0  0  0  0
   10.6716  -18.3944   12.6360 C   0  0  0  0  0  0  0  0  0  0  0  0
   11.0598  -18.4042   13.9235 N   0  0  0  0  0  0  0  0  0  0  0  0
   10.7274  -14.6967   17.2552 C   0  0  0  0  0  0  0  0  0  0  0  0
   11.8299  -14.3862   17.7890 O   0  0  0  0  0  0  0  0  0  0  0  0
    7.5680  -12.5986   19.0941 C   0  0  0  0  0  0  0  0  0  0  0  0
    8.2457  -13.6687   19.8899 C   0  0  1  0  0  0  0  0  0  0  0  0
    7.4527  -14.8194   19.8203 O   0  0  0  0  0  0  0  0  0  0  0  0
    9.6029  -14.0404   19.3437 C   0  0  2  0  0  0  0  0  0  0  0  0
    9.5559  -14.5367   18.0013 N   0  0  0  0  0  0  0  0  0  0  0  0
   10.1949  -15.0226   20.3033 C   0  0  0  0  0  0  0  0  0  0  0  0
   10.3310  -16.1971   19.8517 O   0  0  0  0  0  0  0  0  0  0  0  0
   15.3686  -14.6328   21.8890 N   0  0  0  0  0  0  0  0  0  0  0  0
   15.1898  -15.7349   22.7627 C   0  0  0  0  0  0  0  0  0  0  0  0
   16.1684  -16.2979   23.3219 O   0  0  0  0  0  0  0  0  0  0  0  0
   13.7725  -16.2130   23.0003 C   0  0  0  0  0  0  0  0  0  0  0  0
   12.8519  -15.3005   22.2382 C   0  0  0  0  0  0  0  0  0  0  0  0
   11.3882  -15.6315   22.3750 C   0  0  2  0  0  0  0  0  0  0  0  0
   10.5773  -14.6940   21.6061 N   0  0  0  0  0  0  0  0  0  0  0  0
   10.9557  -15.6231   23.7745 C   0  0  0  0  0  0  0  0  0  0  0  0
   10.1848  -14.7388   24.2014 O   0  0  0  0  0  0  0  0  0  0  0  0
   11.3671  -16.5859   24.7147 O   0  0  0  0  0  0  0  0  0  0  0  0
  2  3  1  0
  2  1  1  6
  3  4  1  0
  4  5  2  0
  4  8  1  0
  5  6  1  0
  6  7  1  0
  8  7  2  0
  9 10  2  0
  9  2  1  0
 12 11  1  6
 12 14  1  0
 13 12  1  0
 14 16  1  0
 14 15  1  6
 15  9  1  0
 16 24  1  0
 17 16  2  0
 19 21  1  0
 19 18  1  0
 20 19  2  0
 23 22  1  1
 22 21  1  0
 24 23  1  0
 25 27  1  0
 25 23  1  0
 26 25  2  0
M  END
$$$$
