YYD.pdb
     RDKit          3D

 33 34  0  0  1  0  0  0  0  0999 V2000
   29.4987  -18.7684  -21.7131 O   0  0  0  0  0  0  0  0  0  0  0  0
   28.5027  -19.3180  -20.9054 C   0  0  0  0  0  0  0  0  0  0  0  0
   27.8961  -18.5723  -19.9101 C   0  0  0  0  0  0  0  0  0  0  0  0
   26.9020  -19.1615  -19.1228 C   0  0  0  0  0  0  0  0  0  0  0  0
   26.5142  -20.4510  -19.3093 C   0  0  0  0  0  0  0  0  0  0  0  0
   25.4565  -21.0362  -18.4522 C   0  0  0  0  0  0  0  0  0  0  0  0
   26.0916  -21.4829  -17.1561 C   0  0  2  0  0  0  0  0  0  0  0  0
   26.9170  -22.6392  -17.3960 N   0  0  0  0  0  0  0  0  0  0  0  0
   25.0862  -21.8096  -16.1253 C   0  0  0  0  0  0  0  0  0  0  0  0
   24.5862  -22.9690  -16.0159 O   0  0  0  0  0  0  0  0  0  0  0  0
   27.1051  -21.2074  -20.2928 C   0  0  0  0  0  0  0  0  0  0  0  0
   28.0957  -20.6202  -21.0773 C   0  0  0  0  0  0  0  0  0  0  0  0
   20.8382  -19.8937   -8.3629 O   0  0  0  0  0  0  0  0  0  0  0  0
   21.6109  -19.9579   -9.5253 C   0  0  0  0  0  0  0  0  0  0  0  0
   22.7902  -20.6719   -9.5629 C   0  0  0  0  0  0  0  0  0  0  0  0
   23.5301  -20.7182  -10.7184 C   0  0  0  0  0  0  0  0  0  0  0  0
   23.1553  -20.0723  -11.8877 C   0  0  0  0  0  0  0  0  0  0  0  0
   24.0143  -20.1925  -13.0420 C   0  0  0  0  0  0  0  0  0  0  0  0
   23.6872  -21.1328  -14.1203 C   0  0  2  0  0  0  0  0  0  0  0  0
   24.6441  -20.8224  -15.2146 N   0  0  0  0  0  0  0  0  0  0  0  0
   22.3390  -21.0332  -14.7113 C   0  0  0  0  0  0  0  0  0  0  0  0
   22.0719  -20.1030  -15.5555 O   0  0  0  0  0  0  0  0  0  0  0  0
   21.9739  -19.3587  -11.8455 C   0  0  0  0  0  0  0  0  0  0  0  0
   21.2345  -19.3145  -10.6849 C   0  0  0  0  0  0  0  0  0  0  0  0
   21.2480  -21.9004  -14.4374 N   0  0  0  0  0  0  0  0  0  0  0  0
   19.9311  -21.6215  -14.9360 C   0  0  1  0  0  0  0  0  0  0  0  0
   19.3294  -22.7879  -15.6831 C   0  0  0  0  0  0  0  0  0  0  0  0
   18.0163  -22.4689  -16.2691 C   0  0  0  0  0  0  0  0  0  0  0  0
   17.4305  -21.3612  -16.1633 O   0  0  0  0  0  0  0  0  0  0  0  0
   18.9962  -21.2907  -13.8397 C   0  0  0  0  0  0  0  0  0  0  0  0
   18.9483  -21.8591  -12.7266 O   0  0  0  0  0  0  0  0  0  0  0  0
   17.3730  -23.4626  -16.9938 O   0  0  0  0  0  0  0  0  0  0  0  0
   18.0680  -20.2529  -14.0323 O   0  0  0  0  0  0  0  0  0  0  0  0
  2  3  2  0
  2  1  1  0
  4  3  1  0
  5  4  2  0
  6  7  1  0
  6  5  1  0
  7  9  1  0
  7  8  1  6
  9 10  2  0
 11  5  1  0
 11 12  2  0
 12  2  1  0
 13 14  1  0
 14 24  2  0
 15 14  1  0
 15 16  2  0
 16 17  1  0
 17 23  2  0
 17 18  1  0
 19 18  1  1
 20 19  1  0
 20  9  1  0
 21 19  1  0
 22 21  2  0
 24 23  1  0
 25 21  1  0
 26 25  1  0
 26 27  1  1
 28 32  1  0
 28 27  1  0
 29 28  2  0
 30 26  1  0
 30 33  1  0
 31 30  2  0
M  END
$$$$
