YYD.pdb
     RDKit          3D

 33 34  0  0  1  0  0  0  0  0999 V2000
   27.5847  -13.7781  -17.2695 O   0  0  0  0  0  0  0  0  0  0  0  0
   26.9729  -12.6642  -16.6938 C   0  0  0  0  0  0  0  0  0  0  0  0
   27.5969  -11.9436  -15.6909 C   0  0  0  0  0  0  0  0  0  0  0  0
   26.9488  -10.8333  -15.1408 C   0  0  0  0  0  0  0  0  0  0  0  0
   25.7185  -10.4417  -15.5660 C   0  0  0  0  0  0  0  0  0  0  0  0
   25.0674   -9.2587  -14.9555 C   0  0  0  0  0  0  0  0  0  0  0  0
   24.6342   -8.3315  -16.0669 C   0  0  2  0  0  0  0  0  0  0  0  0
   25.7960   -7.7667  -16.7051 N   0  0  0  0  0  0  0  0  0  0  0  0
   23.7700   -7.2389  -15.5775 C   0  0  0  0  0  0  0  0  0  0  0  0
   24.2068   -6.3243  -14.8164 O   0  0  0  0  0  0  0  0  0  0  0  0
   25.0828  -11.1447  -16.5610 C   0  0  0  0  0  0  0  0  0  0  0  0
   25.7288  -12.2511  -17.1091 C   0  0  0  0  0  0  0  0  0  0  0  0
   24.3908   -0.5638  -17.3804 O   0  0  0  0  0  0  0  0  0  0  0  0
   23.6328   -1.7254  -17.2123 C   0  0  0  0  0  0  0  0  0  0  0  0
   22.6100   -1.7861  -16.2892 C   0  0  0  0  0  0  0  0  0  0  0  0
   21.8809   -2.9403  -16.1446 C   0  0  0  0  0  0  0  0  0  0  0  0
   22.1147   -4.0859  -16.8915 C   0  0  0  0  0  0  0  0  0  0  0  0
   21.2827   -5.2414  -16.6518 C   0  0  0  0  0  0  0  0  0  0  0  0
   21.5091   -6.0927  -15.4780 C   0  0  2  0  0  0  0  0  0  0  0  0
   22.4071   -7.1794  -15.9493 N   0  0  0  0  0  0  0  0  0  0  0  0
   20.3287   -6.7578  -14.8939 C   0  0  0  0  0  0  0  0  0  0  0  0
   19.6580   -7.6064  -15.5864 O   0  0  0  0  0  0  0  0  0  0  0  0
   23.1396   -4.0208  -17.8145 C   0  0  0  0  0  0  0  0  0  0  0  0
   23.8687   -2.8615  -17.9568 C   0  0  0  0  0  0  0  0  0  0  0  0
   19.8284   -6.5547  -13.5802 N   0  0  0  0  0  0  0  0  0  0  0  0
   18.6677   -7.2552  -13.1083 C   0  0  1  0  0  0  0  0  0  0  0  0
   18.4246   -7.0558  -11.6312 C   0  0  0  0  0  0  0  0  0  0  0  0
   17.2447   -7.7923  -11.1467 C   0  0  0  0  0  0  0  0  0  0  0  0
   16.5633   -8.5939  -11.8355 O   0  0  0  0  0  0  0  0  0  0  0  0
   17.4440   -6.8058  -13.8053 C   0  0  0  0  0  0  0  0  0  0  0  0
   16.5346   -7.5500  -14.2338 O   0  0  0  0  0  0  0  0  0  0  0  0
   16.8514   -7.5897   -9.8312 O   0  0  0  0  0  0  0  0  0  0  0  0
   17.2551   -5.4298  -14.0212 O   0  0  0  0  0  0  0  0  0  0  0  0
  2  3  2  0
  2  1  1  0
  4  3  1  0
  5  4  2  0
  6  7  1  0
  6  5  1  0
  7  9  1  0
  7  8  1  1
  9 10  2  0
 11  5  1  0
 11 12  2  0
 12  2  1  0
 13 14  1  0
 14 24  2  0
 15 14  1  0
 15 16  2  0
 16 17  1  0
 17 23  2  0
 17 18  1  0
 19 18  1  6
 20 19  1  0
 20  9  1  0
 21 19  1  0
 22 21  2  0
 24 23  1  0
 25 21  1  0
 26 25  1  0
 26 27  1  1
 28 32  1  0
 28 27  1  0
 29 28  2  0
 30 26  1  0
 30 33  1  0
 31 30  2  0
M  END
$$$$
