YYD.pdb
     RDKit          3D

 33 34  0  0  1  0  0  0  0  0999 V2000
   18.6030  -12.6478  -22.9001 O   0  0  0  0  0  0  0  0  0  0  0  0
   18.6228  -13.7881  -22.0965 C   0  0  0  0  0  0  0  0  0  0  0  0
   18.7064  -15.0530  -22.6512 C   0  0  0  0  0  0  0  0  0  0  0  0
   18.7235  -16.1697  -21.8099 C   0  0  0  0  0  0  0  0  0  0  0  0
   18.6601  -16.0459  -20.4576 C   0  0  0  0  0  0  0  0  0  0  0  0
   18.6812  -17.2561  -19.6027 C   0  0  0  0  0  0  0  0  0  0  0  0
   20.0495  -17.3652  -18.9714 C   0  0  2  0  0  0  0  0  0  0  0  0
   21.0089  -17.7739  -19.9656 N   0  0  0  0  0  0  0  0  0  0  0  0
   20.0723  -18.3264  -17.8509 C   0  0  0  0  0  0  0  0  0  0  0  0
   20.3326  -19.5549  -18.0227 O   0  0  0  0  0  0  0  0  0  0  0  0
   18.5768  -14.7980  -19.8882 C   0  0  0  0  0  0  0  0  0  0  0  0
   18.5597  -13.6852  -20.7267 C   0  0  0  0  0  0  0  0  0  0  0  0
   21.3027  -20.2074   -9.1475 O   0  0  0  0  0  0  0  0  0  0  0  0
   21.1263  -19.6672  -10.4240 C   0  0  0  0  0  0  0  0  0  0  0  0
   21.9277  -20.0477  -11.4799 C   0  0  0  0  0  0  0  0  0  0  0  0
   21.7324  -19.5009  -12.7239 C   0  0  0  0  0  0  0  0  0  0  0  0
   20.7494  -18.5602  -12.9953 C   0  0  0  0  0  0  0  0  0  0  0  0
   20.6382  -18.0553  -14.3434 C   0  0  0  0  0  0  0  0  0  0  0  0
   19.9111  -18.8153  -15.3668 C   0  0  2  0  0  0  0  0  0  0  0  0
   19.8000  -17.8980  -16.5312 N   0  0  0  0  0  0  0  0  0  0  0  0
   18.5349  -19.2347  -15.0398 C   0  0  0  0  0  0  0  0  0  0  0  0
   17.5831  -18.3724  -15.0295 O   0  0  0  0  0  0  0  0  0  0  0  0
   19.9494  -18.1822  -11.9353 C   0  0  0  0  0  0  0  0  0  0  0  0
   20.1480  -18.7327  -10.6890 C   0  0  0  0  0  0  0  0  0  0  0  0
   18.1248  -20.5568  -14.7218 N   0  0  0  0  0  0  0  0  0  0  0  0
   16.7907  -20.8351  -14.2710 C   0  0  1  0  0  0  0  0  0  0  0  0
   16.4053  -22.2850  -14.4443 C   0  0  0  0  0  0  0  0  0  0  0  0
   16.1713  -22.6445  -15.8533 C   0  0  0  0  0  0  0  0  0  0  0  0
   16.0847  -23.8199  -16.2918 O   0  0  0  0  0  0  0  0  0  0  0  0
   16.6277  -20.5203  -12.8359 C   0  0  0  0  0  0  0  0  0  0  0  0
   15.6401  -19.9495  -12.3228 O   0  0  0  0  0  0  0  0  0  0  0  0
   16.0354  -21.6114  -16.7702 O   0  0  0  0  0  0  0  0  0  0  0  0
   17.6527  -20.8799  -11.9438 O   0  0  0  0  0  0  0  0  0  0  0  0
  2  3  2  0
  2  1  1  0
  4  3  1  0
  5  4  2  0
  6  7  1  0
  6  5  1  0
  7  9  1  0
  7  8  1  6
  9 10  2  0
 11  5  1  0
 11 12  2  0
 12  2  1  0
 13 14  1  0
 14 24  2  0
 15 14  1  0
 15 16  2  0
 16 17  1  0
 17 23  2  0
 17 18  1  0
 19 18  1  1
 20 19  1  0
 20  9  1  0
 21 19  1  0
 22 21  2  0
 24 23  1  0
 25 21  1  0
 26 25  1  0
 26 27  1  1
 28 32  1  0
 28 27  1  0
 29 28  2  0
 30 26  1  0
 30 33  1  0
 31 30  2  0
M  END
$$$$
