YYD.pdb
     RDKit          3D

 33 34  0  0  1  0  0  0  0  0999 V2000
   33.3879  -15.1284  -24.1539 O   0  0  0  0  0  0  0  0  0  0  0  0
   33.0748  -14.3183  -23.0621 C   0  0  0  0  0  0  0  0  0  0  0  0
   32.2295  -14.7623  -22.0606 C   0  0  0  0  0  0  0  0  0  0  0  0
   31.9417  -13.9184  -20.9835 C   0  0  0  0  0  0  0  0  0  0  0  0
   32.4714  -12.6698  -20.8933 C   0  0  0  0  0  0  0  0  0  0  0  0
   32.1399  -11.8080  -19.7342 C   0  0  0  0  0  0  0  0  0  0  0  0
   33.3325  -11.7837  -18.8070 C   0  0  2  0  0  0  0  0  0  0  0  0
   33.5226  -13.0901  -18.2300 N   0  0  0  0  0  0  0  0  0  0  0  0
   33.1771  -10.7926  -17.7236 C   0  0  0  0  0  0  0  0  0  0  0  0
   32.5331  -11.0500  -16.6627 O   0  0  0  0  0  0  0  0  0  0  0  0
   33.3130  -12.2111  -21.8781 C   0  0  0  0  0  0  0  0  0  0  0  0
   33.5998  -13.0521  -22.9515 C   0  0  0  0  0  0  0  0  0  0  0  0
   38.0387  -11.2525  -12.8846 O   0  0  0  0  0  0  0  0  0  0  0  0
   37.2763  -10.4802  -13.7645 C   0  0  0  0  0  0  0  0  0  0  0  0
   36.7079   -9.2892  -13.3641 C   0  0  0  0  0  0  0  0  0  0  0  0
   35.9633   -8.5499  -14.2494 C   0  0  0  0  0  0  0  0  0  0  0  0
   35.7389   -8.9367  -15.5628 C   0  0  0  0  0  0  0  0  0  0  0  0
   34.9386   -8.0772  -16.4026 C   0  0  0  0  0  0  0  0  0  0  0  0
   33.5779   -8.4686  -16.7886 C   0  0  2  0  0  0  0  0  0  0  0  0
   33.7515   -9.5057  -17.8393 N   0  0  0  0  0  0  0  0  0  0  0  0
   32.7210   -7.4229  -17.3794 C   0  0  0  0  0  0  0  0  0  0  0  0
   32.3026   -7.5386  -18.5881 O   0  0  0  0  0  0  0  0  0  0  0  0
   36.3098  -10.1297  -15.9595 C   0  0  0  0  0  0  0  0  0  0  0  0
   37.0560  -10.8685  -15.0688 C   0  0  0  0  0  0  0  0  0  0  0  0
   32.2823   -6.2422  -16.7230 N   0  0  0  0  0  0  0  0  0  0  0  0
   31.4945   -5.2573  -17.4086 C   0  0  1  0  0  0  0  0  0  0  0  0
   30.1154   -5.7574  -17.7671 C   0  0  0  0  0  0  0  0  0  0  0  0
   29.3017   -4.7362  -18.4484 C   0  0  0  0  0  0  0  0  0  0  0  0
   28.7848   -3.7358  -17.8884 O   0  0  0  0  0  0  0  0  0  0  0  0
   31.3063   -4.0451  -16.5839 C   0  0  0  0  0  0  0  0  0  0  0  0
   31.2928   -2.8690  -17.0095 O   0  0  0  0  0  0  0  0  0  0  0  0
   29.0863   -4.8847  -19.8114 O   0  0  0  0  0  0  0  0  0  0  0  0
   31.1242   -4.1915  -15.1978 O   0  0  0  0  0  0  0  0  0  0  0  0
  2  3  2  0
  2  1  1  0
  4  3  1  0
  5  4  2  0
  6  7  1  0
  6  5  1  0
  7  9  1  0
  7  8  1  1
  9 10  2  0
 11  5  1  0
 11 12  2  0
 12  2  1  0
 13 14  1  0
 14 24  2  0
 15 14  1  0
 15 16  2  0
 16 17  1  0
 17 23  2  0
 17 18  1  0
 19 18  1  6
 20 19  1  0
 20  9  1  0
 21 19  1  0
 22 21  2  0
 24 23  1  0
 25 21  1  0
 26 25  1  0
 26 27  1  1
 28 32  1  0
 28 27  1  0
 29 28  2  0
 30 26  1  0
 30 33  1  0
 31 30  2  0
M  END
$$$$
