YYD.pdb
     RDKit          3D

 33 34  0  0  1  0  0  0  0  0999 V2000
   28.1652  -20.1892   -5.0733 O   0  0  0  0  0  0  0  0  0  0  0  0
   27.5485  -20.1170   -6.3226 C   0  0  0  0  0  0  0  0  0  0  0  0
   28.0384  -19.2871   -7.3155 C   0  0  0  0  0  0  0  0  0  0  0  0
   27.3903  -19.2445   -8.5538 C   0  0  0  0  0  0  0  0  0  0  0  0
   26.2886  -19.9987   -8.8093 C   0  0  0  0  0  0  0  0  0  0  0  0
   25.6323  -19.9231  -10.1358 C   0  0  0  0  0  0  0  0  0  0  0  0
   25.8086  -21.2550  -10.8269 C   0  0  2  0  0  0  0  0  0  0  0  0
   27.2114  -21.5086  -11.0363 N   0  0  0  0  0  0  0  0  0  0  0  0
   25.1069  -21.3076  -12.1250 C   0  0  0  0  0  0  0  0  0  0  0  0
   25.6895  -21.0348  -13.2170 O   0  0  0  0  0  0  0  0  0  0  0  0
   25.7872  -20.8290   -7.8358 C   0  0  0  0  0  0  0  0  0  0  0  0
   26.4332  -20.8713   -6.6018 C   0  0  0  0  0  0  0  0  0  0  0  0
   25.8648  -26.0179  -17.6895 O   0  0  0  0  0  0  0  0  0  0  0  0
   25.1599  -25.3749  -16.6688 C   0  0  0  0  0  0  0  0  0  0  0  0
   24.1118  -24.5233  -16.9485 C   0  0  0  0  0  0  0  0  0  0  0  0
   23.4363  -23.9044  -15.9261 C   0  0  0  0  0  0  0  0  0  0  0  0
   23.7504  -24.0867  -14.5871 C   0  0  0  0  0  0  0  0  0  0  0  0
   22.9691  -23.3821  -13.5983 C   0  0  0  0  0  0  0  0  0  0  0  0
   23.0540  -21.9215  -13.4830 C   0  0  2  0  0  0  0  0  0  0  0  0
   23.7415  -21.6698  -12.1894 N   0  0  0  0  0  0  0  0  0  0  0  0
   21.7809  -21.1780  -13.4245 C   0  0  0  0  0  0  0  0  0  0  0  0
   21.1330  -21.0944  -12.3188 O   0  0  0  0  0  0  0  0  0  0  0  0
   24.8004  -24.9401  -14.3116 C   0  0  0  0  0  0  0  0  0  0  0  0
   25.4757  -25.5591  -15.3396 C   0  0  0  0  0  0  0  0  0  0  0  0
   21.1625  -20.5067  -14.5127 N   0  0  0  0  0  0  0  0  0  0  0  0
   19.9477  -19.7627  -14.3360 C   0  0  1  0  0  0  0  0  0  0  0  0
   19.7236  -18.7412  -15.4255 C   0  0  0  0  0  0  0  0  0  0  0  0
   18.4734  -17.9841  -15.2439 C   0  0  0  0  0  0  0  0  0  0  0  0
   18.0294  -17.5815  -14.1384 O   0  0  0  0  0  0  0  0  0  0  0  0
   18.7652  -20.6498  -14.3349 C   0  0  0  0  0  0  0  0  0  0  0  0
   18.6051  -21.6516  -15.0666 O   0  0  0  0  0  0  0  0  0  0  0  0
   17.7252  -17.6903  -16.3754 O   0  0  0  0  0  0  0  0  0  0  0  0
   17.7116  -20.3716  -13.4470 O   0  0  0  0  0  0  0  0  0  0  0  0
  2  3  2  0
  2  1  1  0
  4  3  1  0
  5  4  2  0
  6  7  1  0
  6  5  1  0
  7  9  1  0
  7  8  1  6
  9 10  2  0
 11  5  1  0
 11 12  2  0
 12  2  1  0
 13 14  1  0
 14 24  2  0
 15 14  1  0
 15 16  2  0
 16 17  1  0
 17 23  2  0
 17 18  1  0
 19 18  1  1
 20 19  1  0
 20  9  1  0
 21 19  1  0
 22 21  2  0
 24 23  1  0
 25 21  1  0
 26 25  1  0
 26 27  1  6
 28 32  1  0
 28 27  1  0
 29 28  2  0
 30 26  1  0
 30 33  1  0
 31 30  2  0
M  END
$$$$
