YYD.pdb
     RDKit          3D

 33 34  0  0  1  0  0  0  0  0999 V2000
   19.2429  -15.0781  -22.3826 O   0  0  0  0  0  0  0  0  0  0  0  0
   19.4002  -14.1779  -21.3284 C   0  0  0  0  0  0  0  0  0  0  0  0
   19.8956  -12.9039  -21.5433 C   0  0  0  0  0  0  0  0  0  0  0  0
   20.0376  -12.0326  -20.4589 C   0  0  0  0  0  0  0  0  0  0  0  0
   19.7012  -12.4045  -19.1954 C   0  0  0  0  0  0  0  0  0  0  0  0
   19.8677  -11.4494  -18.0746 C   0  0  0  0  0  0  0  0  0  0  0  0
   21.3432  -11.3263  -17.7739 C   0  0  2  0  0  0  0  0  0  0  0  0
   21.8486  -12.5927  -17.3085 N   0  0  0  0  0  0  0  0  0  0  0  0
   21.6215  -10.2901  -16.7594 C   0  0  0  0  0  0  0  0  0  0  0  0
   21.4585  -10.5001  -15.5201 O   0  0  0  0  0  0  0  0  0  0  0  0
   19.2075  -13.6656  -18.9622 C   0  0  0  0  0  0  0  0  0  0  0  0
   19.0660  -14.5338  -20.0429 C   0  0  0  0  0  0  0  0  0  0  0  0
   27.8790  -11.3966  -15.4373 O   0  0  0  0  0  0  0  0  0  0  0  0
   26.8596  -10.4623  -15.6384 C   0  0  0  0  0  0  0  0  0  0  0  0
   26.7043   -9.8211  -16.8495 C   0  0  0  0  0  0  0  0  0  0  0  0
   25.6940   -8.9074  -17.0199 C   0  0  0  0  0  0  0  0  0  0  0  0
   24.7906   -8.5774  -16.0199 C   0  0  0  0  0  0  0  0  0  0  0  0
   23.7687   -7.6011  -16.3151 C   0  0  0  0  0  0  0  0  0  0  0  0
   22.3488   -7.9361  -16.1551 C   0  0  2  0  0  0  0  0  0  0  0  0
   22.0858   -9.0119  -17.1466 N   0  0  0  0  0  0  0  0  0  0  0  0
   21.3714   -6.8676  -16.4374 C   0  0  0  0  0  0  0  0  0  0  0  0
   21.2105   -6.4414  -17.6381 O   0  0  0  0  0  0  0  0  0  0  0  0
   24.9498   -9.2217  -14.8090 C   0  0  0  0  0  0  0  0  0  0  0  0
   25.9643  -10.1375  -14.6418 C   0  0  0  0  0  0  0  0  0  0  0  0
   20.5431   -6.2274  -15.4775 N   0  0  0  0  0  0  0  0  0  0  0  0
   19.6947   -5.1277  -15.8403 C   0  0  1  0  0  0  0  0  0  0  0  0
   18.4209   -5.0797  -15.0305 C   0  0  0  0  0  0  0  0  0  0  0  0
   17.5225   -3.9912  -15.4517 C   0  0  0  0  0  0  0  0  0  0  0  0
   17.7069   -3.2515  -16.4518 O   0  0  0  0  0  0  0  0  0  0  0  0
   20.3750   -3.8306  -15.6404 C   0  0  0  0  0  0  0  0  0  0  0  0
   21.4090   -3.6472  -14.9609 O   0  0  0  0  0  0  0  0  0  0  0  0
   16.3851   -3.7606  -14.6904 O   0  0  0  0  0  0  0  0  0  0  0  0
   19.8396   -2.6845  -16.2531 O   0  0  0  0  0  0  0  0  0  0  0  0
  2  3  2  0
  2  1  1  0
  4  3  1  0
  5  4  2  0
  6  7  1  0
  6  5  1  0
  7  9  1  0
  7  8  1  1
  9 10  2  0
 11  5  1  0
 11 12  2  0
 12  2  1  0
 13 14  1  0
 14 24  2  0
 15 14  1  0
 15 16  2  0
 16 17  1  0
 17 23  2  0
 17 18  1  0
 19 18  1  6
 20 19  1  0
 20  9  1  0
 21 19  1  0
 22 21  2  0
 24 23  1  0
 25 21  1  0
 26 25  1  0
 26 27  1  1
 28 32  1  0
 28 27  1  0
 29 28  2  0
 30 26  1  0
 30 33  1  0
 31 30  2  0
M  END
$$$$
