YKG.pdb
     RDKit          3D

 26 26  0  0  1  0  0  0  0  0999 V2000
   22.8433  -21.5402   -6.2202 O   0  0  0  0  0  0  0  0  0  0  0  0
   23.4467  -21.1097   -7.3912 C   0  0  0  0  0  0  0  0  0  0  0  0
   24.7486  -20.6556   -7.4271 C   0  0  0  0  0  0  0  0  0  0  0  0
   25.3511  -20.2257   -8.5966 C   0  0  0  0  0  0  0  0  0  0  0  0
   24.6443  -20.2408   -9.7908 C   0  0  0  0  0  0  0  0  0  0  0  0
   25.2186  -19.7981  -11.0779 C   0  0  0  0  0  0  0  0  0  0  0  0
   25.5683  -20.9687  -11.9730 C   0  0  2  0  0  0  0  0  0  0  0  0
   26.9312  -21.4236  -11.7353 N   0  0  0  0  0  0  0  0  0  0  0  0
   25.3815  -20.6636  -13.3969 C   0  0  0  0  0  0  0  0  0  0  0  0
   26.2055  -19.9003  -13.9726 O   0  0  0  0  0  0  0  0  0  0  0  0
   23.3455  -20.6949   -9.7486 C   0  0  0  0  0  0  0  0  0  0  0  0
   22.7416  -21.1252   -8.5802 C   0  0  0  0  0  0  0  0  0  0  0  0
   24.3199  -21.1727  -14.1973 N   0  0  0  0  0  0  0  0  0  0  0  0
   24.2043  -20.8812  -15.6124 C   0  0  1  0  0  0  0  0  0  0  0  0
   24.2647  -22.1537  -16.3979 C   0  0  0  0  0  0  0  0  0  0  0  0
   25.5347  -22.9203  -16.2293 C   0  0  0  0  0  0  0  0  0  0  0  0
   25.3984  -24.2157  -17.0150 C   0  0  0  0  0  0  0  0  0  0  0  0
   26.6204  -25.0980  -16.8423 C   0  0  0  0  0  0  0  0  0  0  0  0
   26.4260  -26.3317  -17.5616 N   0  0  0  0  0  0  0  0  0  0  0  0
   23.0000  -20.0713  -15.9111 C   0  0  0  0  0  0  0  0  0  0  0  0
   21.9329  -20.1613  -15.2562 O   0  0  0  0  0  0  0  0  0  0  0  0
   23.0304  -19.1406  -16.9865 N   0  0  0  0  0  0  0  0  0  0  0  0
   21.8710  -18.3163  -17.2731 C   0  0  0  0  0  0  0  0  0  0  0  0
   20.8622  -19.0752  -18.0057 C   0  0  0  0  0  0  0  0  0  0  0  0
   19.6929  -18.4573  -18.4072 O   0  0  0  0  0  0  0  0  0  0  0  0
   21.0396  -20.2838  -18.2780 O   0  0  0  0  0  0  0  0  0  0  0  0
  2  3  2  0
  2  1  1  0
  4  3  1  0
  5  4  2  0
  6  5  1  0
  7  6  1  0
  7  9  1  0
  7  8  1  6
  9 10  2  0
 11  5  1  0
 11 12  2  0
 12  2  1  0
 13  9  1  0
 13 14  1  0
 14 15  1  6
 15 16  1  0
 17 16  1  0
 18 19  1  0
 18 17  1  0
 20 21  2  0
 20 14  1  0
 22 20  1  0
 23 24  1  0
 23 22  1  0
 24 25  1  0
 26 24  2  0
M  END
$$$$
