YKG.pdb
     RDKit          3D

 26 26  0  0  1  0  0  0  0  0999 V2000
   19.1836  -14.8609  -18.2451 O   0  0  0  0  0  0  0  0  0  0  0  0
   19.9056  -15.7085  -17.4200 C   0  0  0  0  0  0  0  0  0  0  0  0
   21.2846  -15.7368  -17.4160 C   0  0  0  0  0  0  0  0  0  0  0  0
   22.0056  -16.5833  -16.5919 C   0  0  0  0  0  0  0  0  0  0  0  0
   21.3442  -17.4453  -15.7286 C   0  0  0  0  0  0  0  0  0  0  0  0
   22.0438  -18.3768  -14.8201 C   0  0  0  0  0  0  0  0  0  0  0  0
   22.6297  -19.5587  -15.5644 C   0  0  2  0  0  0  0  0  0  0  0  0
   21.5864  -20.4801  -15.9926 N   0  0  0  0  0  0  0  0  0  0  0  0
   23.6403  -20.2749  -14.7763 C   0  0  0  0  0  0  0  0  0  0  0  0
   23.2884  -21.2791  -14.0973 O   0  0  0  0  0  0  0  0  0  0  0  0
   19.9681  -17.4124  -15.7371 C   0  0  0  0  0  0  0  0  0  0  0  0
   19.2456  -16.5667  -16.5604 C   0  0  0  0  0  0  0  0  0  0  0  0
   25.0171  -19.9177  -14.7164 N   0  0  0  0  0  0  0  0  0  0  0  0
   25.9758  -20.6486  -13.9116 C   0  0  1  0  0  0  0  0  0  0  0  0
   27.2239  -20.8861  -14.7024 C   0  0  0  0  0  0  0  0  0  0  0  0
   27.1703  -22.0853  -15.5901 C   0  0  0  0  0  0  0  0  0  0  0  0
   28.4807  -22.1473  -16.3600 C   0  0  0  0  0  0  0  0  0  0  0  0
   28.5053  -23.3258  -17.3152 C   0  0  0  0  0  0  0  0  0  0  0  0
   29.8092  -23.4242  -17.9212 N   0  0  0  0  0  0  0  0  0  0  0  0
   26.2291  -19.9793  -12.6142 C   0  0  0  0  0  0  0  0  0  0  0  0
   26.8860  -18.9150  -12.5079 O   0  0  0  0  0  0  0  0  0  0  0  0
   25.7133  -20.5512  -11.4181 N   0  0  0  0  0  0  0  0  0  0  0  0
   25.9827  -19.9294  -10.1349 C   0  0  0  0  0  0  0  0  0  0  0  0
   25.3430  -20.6716   -9.0532 C   0  0  0  0  0  0  0  0  0  0  0  0
   25.5715  -20.3078   -7.7396 O   0  0  0  0  0  0  0  0  0  0  0  0
   24.5860  -21.6380   -9.2972 O   0  0  0  0  0  0  0  0  0  0  0  0
  2  3  2  0
  2  1  1  0
  4  3  1  0
  5  4  2  0
  6  5  1  0
  7  6  1  0
  7  9  1  0
  7  8  1  1
  9 10  2  0
 11  5  1  0
 11 12  2  0
 12  2  1  0
 13  9  1  0
 13 14  1  0
 14 15  1  6
 15 16  1  0
 17 16  1  0
 18 19  1  0
 18 17  1  0
 20 21  2  0
 20 14  1  0
 22 20  1  0
 23 24  1  0
 23 22  1  0
 24 25  1  0
 26 24  2  0
M  END
$$$$
