YKG.pdb
     RDKit          3D

 26 26  0  0  1  0  0  0  0  0999 V2000
   29.1718  -27.0160  -17.5442 O   0  0  0  0  0  0  0  0  0  0  0  0
   28.2335  -26.0857  -17.1261 C   0  0  0  0  0  0  0  0  0  0  0  0
   28.0458  -24.8835  -17.7756 C   0  0  0  0  0  0  0  0  0  0  0  0
   27.1087  -23.9545  -17.3580 C   0  0  0  0  0  0  0  0  0  0  0  0
   26.3157  -24.2149  -16.2493 C   0  0  0  0  0  0  0  0  0  0  0  0
   25.2954  -23.2736  -15.7438 C   0  0  0  0  0  0  0  0  0  0  0  0
   25.8514  -21.8750  -15.5744 C   0  0  2  0  0  0  0  0  0  0  0  0
   27.0310  -21.8780  -14.7203 N   0  0  0  0  0  0  0  0  0  0  0  0
   24.8545  -20.9328  -15.0512 C   0  0  0  0  0  0  0  0  0  0  0  0
   24.6509  -20.8856  -13.8064 O   0  0  0  0  0  0  0  0  0  0  0  0
   26.5077  -25.4162  -15.6053 C   0  0  0  0  0  0  0  0  0  0  0  0
   27.4441  -26.3462  -16.0215 C   0  0  0  0  0  0  0  0  0  0  0  0
   24.0819  -20.0482  -15.8558 N   0  0  0  0  0  0  0  0  0  0  0  0
   23.1584  -19.0864  -15.2875 C   0  0  1  0  0  0  0  0  0  0  0  0
   23.1308  -17.8511  -16.1319 C   0  0  0  0  0  0  0  0  0  0  0  0
   24.4064  -17.0752  -16.1280 C   0  0  0  0  0  0  0  0  0  0  0  0
   24.7113  -16.6833  -17.5658 C   0  0  0  0  0  0  0  0  0  0  0  0
   26.0106  -15.9060  -17.6630 C   0  0  0  0  0  0  0  0  0  0  0  0
   26.3615  -15.7311  -19.0498 N   0  0  0  0  0  0  0  0  0  0  0  0
   21.8149  -19.6734  -15.0734 C   0  0  0  0  0  0  0  0  0  0  0  0
   21.3169  -20.5417  -15.8307 O   0  0  0  0  0  0  0  0  0  0  0  0
   21.0332  -19.2484  -13.9634 N   0  0  0  0  0  0  0  0  0  0  0  0
   19.7289  -19.8360  -13.7198 C   0  0  0  0  0  0  0  0  0  0  0  0
   18.7071  -19.1906  -14.5379 C   0  0  0  0  0  0  0  0  0  0  0  0
   19.0753  -18.2630  -15.4941 O   0  0  0  0  0  0  0  0  0  0  0  0
   17.4953  -19.4649  -14.3870 O   0  0  0  0  0  0  0  0  0  0  0  0
  2  3  2  0
  2  1  1  0
  4  3  1  0
  5  4  2  0
  6  5  1  0
  7  6  1  0
  7  9  1  0
  7  8  1  1
  9 10  2  0
 11  5  1  0
 11 12  2  0
 12  2  1  0
 13  9  1  0
 13 14  1  0
 14 15  1  6
 15 16  1  0
 17 16  1  0
 18 19  1  0
 18 17  1  0
 20 21  2  0
 20 14  1  0
 22 20  1  0
 23 24  1  0
 23 22  1  0
 24 25  1  0
 26 24  2  0
M  END
$$$$
