YKG.pdb
     RDKit          3D

 26 26  0  0  1  0  0  0  0  0999 V2000
   29.8429  -21.6597  -17.0623 O   0  0  0  0  0  0  0  0  0  0  0  0
   28.5490  -21.1698  -16.9837 C   0  0  0  0  0  0  0  0  0  0  0  0
   27.7365  -21.0498  -18.0918 C   0  0  0  0  0  0  0  0  0  0  0  0
   26.4441  -20.5606  -18.0131 C   0  0  0  0  0  0  0  0  0  0  0  0
   25.9206  -20.1692  -16.7889 C   0  0  0  0  0  0  0  0  0  0  0  0
   24.5518  -19.6380  -16.6255 C   0  0  0  0  0  0  0  0  0  0  0  0
   23.5865  -20.7017  -16.1452 C   0  0  2  0  0  0  0  0  0  0  0  0
   23.5845  -21.8519  -17.0385 N   0  0  0  0  0  0  0  0  0  0  0  0
   22.2203  -20.1894  -15.9825 C   0  0  0  0  0  0  0  0  0  0  0  0
   21.4531  -20.1627  -16.9844 O   0  0  0  0  0  0  0  0  0  0  0  0
   26.7362  -20.2914  -15.6868 C   0  0  0  0  0  0  0  0  0  0  0  0
   28.0285  -20.7803  -15.7636 C   0  0  0  0  0  0  0  0  0  0  0  0
   21.6808  -19.7096  -14.7555 N   0  0  0  0  0  0  0  0  0  0  0  0
   20.2945  -19.3087  -14.6197 C   0  0  1  0  0  0  0  0  0  0  0  0
   19.7054  -19.9313  -13.3928 C   0  0  0  0  0  0  0  0  0  0  0  0
   19.3196  -21.3643  -13.5556 C   0  0  0  0  0  0  0  0  0  0  0  0
   18.6911  -21.8233  -12.2486 C   0  0  0  0  0  0  0  0  0  0  0  0
   18.2057  -23.2577  -12.3425 C   0  0  0  0  0  0  0  0  0  0  0  0
   17.7400  -23.6914  -11.0494 N   0  0  0  0  0  0  0  0  0  0  0  0
   20.1418  -17.8352  -14.6534 C   0  0  0  0  0  0  0  0  0  0  0  0
   20.8655  -17.0550  -13.9879 O   0  0  0  0  0  0  0  0  0  0  0  0
   19.1337  -17.2538  -15.4716 N   0  0  0  0  0  0  0  0  0  0  0  0
   19.0385  -15.8115  -15.6007 C   0  0  0  0  0  0  0  0  0  0  0  0
   18.1029  -15.2630  -14.6240 C   0  0  0  0  0  0  0  0  0  0  0  0
   17.8420  -13.9058  -14.6073 O   0  0  0  0  0  0  0  0  0  0  0  0
   17.5295  -16.0060  -13.7960 O   0  0  0  0  0  0  0  0  0  0  0  0
  2  3  2  0
  2  1  1  0
  4  3  1  0
  5  4  2  0
  6  5  1  0
  7  6  1  0
  7  9  1  0
  7  8  1  6
  9 10  2  0
 11  5  1  0
 11 12  2  0
 12  2  1  0
 13  9  1  0
 13 14  1  0
 14 15  1  1
 15 16  1  0
 17 16  1  0
 18 19  1  0
 18 17  1  0
 20 21  2  0
 20 14  1  0
 22 20  1  0
 23 24  1  0
 23 22  1  0
 24 25  1  0
 26 24  2  0
M  END
$$$$
