YKG.pdb
     RDKit          3D

 26 26  0  0  1  0  0  0  0  0999 V2000
   19.7810  -20.6555  -14.3878 O   0  0  0  0  0  0  0  0  0  0  0  0
   20.1472  -19.3533  -14.6892 C   0  0  0  0  0  0  0  0  0  0  0  0
   19.3763  -18.2677  -14.3295 C   0  0  0  0  0  0  0  0  0  0  0  0
   19.7421  -16.9672  -14.6305 C   0  0  0  0  0  0  0  0  0  0  0  0
   20.9214  -16.7166  -15.3178 C   0  0  0  0  0  0  0  0  0  0  0  0
   21.3782  -15.3577  -15.6746 C   0  0  0  0  0  0  0  0  0  0  0  0
   20.6095  -14.7941  -16.8517 C   0  0  2  0  0  0  0  0  0  0  0  0
   20.9328  -15.5060  -18.0803 N   0  0  0  0  0  0  0  0  0  0  0  0
   20.8325  -13.3542  -17.0317 C   0  0  0  0  0  0  0  0  0  0  0  0
   21.8398  -12.9679  -17.6871 O   0  0  0  0  0  0  0  0  0  0  0  0
   21.6865  -17.8040  -15.6740 C   0  0  0  0  0  0  0  0  0  0  0  0
   21.3222  -19.1049  -15.3739 C   0  0  0  0  0  0  0  0  0  0  0  0
   19.9826  -12.3364  -16.5134 N   0  0  0  0  0  0  0  0  0  0  0  0
   20.1838  -10.9313  -16.8069 C   0  0  1  0  0  0  0  0  0  0  0  0
   18.9550  -10.3673  -17.4487 C   0  0  0  0  0  0  0  0  0  0  0  0
   18.5008  -11.1077  -18.6630 C   0  0  0  0  0  0  0  0  0  0  0  0
   17.2057  -10.4654  -19.1363 C   0  0  0  0  0  0  0  0  0  0  0  0
   16.6877  -11.1305  -20.3976 C   0  0  0  0  0  0  0  0  0  0  0  0
   15.5075  -10.4401  -20.8532 N   0  0  0  0  0  0  0  0  0  0  0  0
   20.6119  -10.1741  -15.6074 C   0  0  0  0  0  0  0  0  0  0  0  0
   20.1755  -10.4111  -14.4545 O   0  0  0  0  0  0  0  0  0  0  0  0
   21.5618   -9.1240  -15.7436 N   0  0  0  0  0  0  0  0  0  0  0  0
   21.9459   -8.3313  -14.5903 C   0  0  0  0  0  0  0  0  0  0  0  0
   21.0150   -7.2259  -14.3861 C   0  0  0  0  0  0  0  0  0  0  0  0
   21.2136   -6.3426  -13.3418 O   0  0  0  0  0  0  0  0  0  0  0  0
   20.0338   -7.0637  -15.1458 O   0  0  0  0  0  0  0  0  0  0  0  0
  2  3  2  0
  2  1  1  0
  4  3  1  0
  5  4  2  0
  6  5  1  0
  7  6  1  0
  7  9  1  0
  7  8  1  6
  9 10  2  0
 11  5  1  0
 11 12  2  0
 12  2  1  0
 13  9  1  0
 13 14  1  0
 14 15  1  1
 15 16  1  0
 17 16  1  0
 18 19  1  0
 18 17  1  0
 20 21  2  0
 20 14  1  0
 22 20  1  0
 23 24  1  0
 23 22  1  0
 24 25  1  0
 26 24  2  0
M  END
$$$$
