YKG.pdb
     RDKit          3D

 26 26  0  0  1  0  0  0  0  0999 V2000
   20.4279  -20.6844  -14.6770 O   0  0  0  0  0  0  0  0  0  0  0  0
   20.8544  -19.3975  -14.9642 C   0  0  0  0  0  0  0  0  0  0  0  0
   22.0498  -19.1413  -15.6027 C   0  0  0  0  0  0  0  0  0  0  0  0
   22.4757  -17.8559  -15.8895 C   0  0  0  0  0  0  0  0  0  0  0  0
   21.6926  -16.7669  -15.5337 C   0  0  0  0  0  0  0  0  0  0  0  0
   22.0795  -15.3673  -15.8058 C   0  0  0  0  0  0  0  0  0  0  0  0
   21.4022  -14.8249  -17.0471 C   0  0  2  0  0  0  0  0  0  0  0  0
   21.9333  -15.4489  -18.2510 N   0  0  0  0  0  0  0  0  0  0  0  0
   21.5046  -13.3641  -17.1511 C   0  0  0  0  0  0  0  0  0  0  0  0
   22.5717  -12.8552  -17.5933 O   0  0  0  0  0  0  0  0  0  0  0  0
   20.5008  -17.0290  -14.8968 C   0  0  0  0  0  0  0  0  0  0  0  0
   20.0734  -18.3134  -14.6093 C   0  0  0  0  0  0  0  0  0  0  0  0
   20.4715  -12.4559  -16.7841 N   0  0  0  0  0  0  0  0  0  0  0  0
   20.5910  -11.0240  -16.9746 C   0  0  1  0  0  0  0  0  0  0  0  0
   19.3639  -10.4992  -17.6517 C   0  0  0  0  0  0  0  0  0  0  0  0
   19.1982  -10.9556  -19.0635 C   0  0  0  0  0  0  0  0  0  0  0  0
   17.8843  -10.3889  -19.5795 C   0  0  0  0  0  0  0  0  0  0  0  0
   17.6414  -10.7837  -21.0241 C   0  0  0  0  0  0  0  0  0  0  0  0
   16.2934  -10.4347  -21.3960 N   0  0  0  0  0  0  0  0  0  0  0  0
   20.8982  -10.3236  -15.7055 C   0  0  0  0  0  0  0  0  0  0  0  0
   20.4207  -10.6701  -14.5975 O   0  0  0  0  0  0  0  0  0  0  0  0
   21.7735   -9.2023  -15.7180 N   0  0  0  0  0  0  0  0  0  0  0  0
   22.0305   -8.4616  -14.4968 C   0  0  0  0  0  0  0  0  0  0  0  0
   21.0240   -7.4238  -14.2969 C   0  0  0  0  0  0  0  0  0  0  0  0
   21.0515   -6.6495  -13.1524 O   0  0  0  0  0  0  0  0  0  0  0  0
   20.1307   -7.2223  -15.1501 O   0  0  0  0  0  0  0  0  0  0  0  0
  2  3  2  0
  2  1  1  0
  4  3  1  0
  5  4  2  0
  6  5  1  0
  7  6  1  0
  7  9  1  0
  7  8  1  6
  9 10  2  0
 11  5  1  0
 11 12  2  0
 12  2  1  0
 13  9  1  0
 13 14  1  0
 14 15  1  1
 15 16  1  0
 17 16  1  0
 18 19  1  0
 18 17  1  0
 20 21  2  0
 20 14  1  0
 22 20  1  0
 23 24  1  0
 23 22  1  0
 24 25  1  0
 26 24  2  0
M  END
$$$$
