YKG.pdb
     RDKit          3D

 26 26  0  0  1  0  0  0  0  0999 V2000
   17.1458  -16.7122  -17.9306 O   0  0  0  0  0  0  0  0  0  0  0  0
   18.1748  -17.2702  -17.1888 C   0  0  0  0  0  0  0  0  0  0  0  0
   19.5017  -17.1083  -17.5286 C   0  0  0  0  0  0  0  0  0  0  0  0
   20.5293  -17.6657  -16.7877 C   0  0  0  0  0  0  0  0  0  0  0  0
   20.2443  -18.4191  -15.6576 C   0  0  0  0  0  0  0  0  0  0  0  0
   21.2856  -19.0449  -14.8171 C   0  0  0  0  0  0  0  0  0  0  0  0
   21.9832  -20.1818  -15.5346 C   0  0  2  0  0  0  0  0  0  0  0  0
   21.0636  -21.2796  -15.7990 N   0  0  0  0  0  0  0  0  0  0  0  0
   23.1561  -20.6741  -14.8017 C   0  0  0  0  0  0  0  0  0  0  0  0
   22.9894  -21.5073  -13.8683 O   0  0  0  0  0  0  0  0  0  0  0  0
   18.9183  -18.5771  -15.3236 C   0  0  0  0  0  0  0  0  0  0  0  0
   17.8896  -18.0206  -16.0633 C   0  0  0  0  0  0  0  0  0  0  0  0
   24.4971  -20.2765  -15.0671 N   0  0  0  0  0  0  0  0  0  0  0  0
   25.6247  -20.7959  -14.3189 C   0  0  1  0  0  0  0  0  0  0  0  0
   26.8561  -20.7593  -15.1686 C   0  0  0  0  0  0  0  0  0  0  0  0
   26.9422  -21.8600  -16.1737 C   0  0  0  0  0  0  0  0  0  0  0  0
   28.2553  -21.6968  -16.9240 C   0  0  0  0  0  0  0  0  0  0  0  0
   28.3697  -22.6944  -18.0613 C   0  0  0  0  0  0  0  0  0  0  0  0
   29.6698  -22.5773  -18.6722 N   0  0  0  0  0  0  0  0  0  0  0  0
   25.7932  -20.0987  -13.0224 C   0  0  0  0  0  0  0  0  0  0  0  0
   26.0891  -18.8823  -12.9308 O   0  0  0  0  0  0  0  0  0  0  0  0
   25.6162  -20.8214  -11.8099 N   0  0  0  0  0  0  0  0  0  0  0  0
   25.8350  -20.1699  -10.5317 C   0  0  0  0  0  0  0  0  0  0  0  0
   25.6222  -21.1029   -9.4297 C   0  0  0  0  0  0  0  0  0  0  0  0
   25.8138  -20.6843   -8.1266 O   0  0  0  0  0  0  0  0  0  0  0  0
   25.2668  -22.2832   -9.6468 O   0  0  0  0  0  0  0  0  0  0  0  0
  2  3  2  0
  2  1  1  0
  4  3  1  0
  5  4  2  0
  6  5  1  0
  7  6  1  0
  7  9  1  0
  7  8  1  1
  9 10  2  0
 11  5  1  0
 11 12  2  0
 12  2  1  0
 13  9  1  0
 13 14  1  0
 14 15  1  6
 15 16  1  0
 17 16  1  0
 18 19  1  0
 18 17  1  0
 20 21  2  0
 20 14  1  0
 22 20  1  0
 23 24  1  0
 23 22  1  0
 24 25  1  0
 26 24  2  0
M  END
$$$$
