YKG.pdb
     RDKit          3D

 26 26  0  0  1  0  0  0  0  0999 V2000
   29.6892  -17.3087  -19.2651 O   0  0  0  0  0  0  0  0  0  0  0  0
   28.8780  -17.8190  -18.2641 C   0  0  0  0  0  0  0  0  0  0  0  0
   29.3771  -18.2222  -17.0432 C   0  0  0  0  0  0  0  0  0  0  0  0
   28.5669  -18.7318  -16.0435 C   0  0  0  0  0  0  0  0  0  0  0  0
   27.1997  -18.8529  -16.2487 C   0  0  0  0  0  0  0  0  0  0  0  0
   26.2717  -19.3870  -15.2309 C   0  0  0  0  0  0  0  0  0  0  0  0
   26.7048  -20.7494  -14.7307 C   0  0  2  0  0  0  0  0  0  0  0  0
   26.7021  -21.7300  -15.8074 N   0  0  0  0  0  0  0  0  0  0  0  0
   25.8802  -21.2270  -13.6139 C   0  0  0  0  0  0  0  0  0  0  0  0
   24.9018  -21.9867  -13.8565 O   0  0  0  0  0  0  0  0  0  0  0  0
   26.7075  -18.4488  -17.4691 C   0  0  0  0  0  0  0  0  0  0  0  0
   27.5162  -17.9391  -18.4697 C   0  0  0  0  0  0  0  0  0  0  0  0
   26.1024  -20.8928  -12.2480 N   0  0  0  0  0  0  0  0  0  0  0  0
   25.0422  -20.9145  -11.2598 C   0  0  1  0  0  0  0  0  0  0  0  0
   25.5444  -20.3539   -9.9662 C   0  0  0  0  0  0  0  0  0  0  0  0
   24.4911  -20.1764   -8.9231 C   0  0  0  0  0  0  0  0  0  0  0  0
   24.0231  -21.5608   -8.5010 C   0  0  0  0  0  0  0  0  0  0  0  0
   22.9148  -21.4785   -7.4683 C   0  0  0  0  0  0  0  0  0  0  0  0
   22.4414  -22.8059   -7.1667 N   0  0  0  0  0  0  0  0  0  0  0  0
   23.8189  -20.2373  -11.7499 C   0  0  0  0  0  0  0  0  0  0  0  0
   23.7788  -19.0159  -12.0366 O   0  0  0  0  0  0  0  0  0  0  0  0
   22.6202  -20.9862  -11.9114 N   0  0  0  0  0  0  0  0  0  0  0  0
   21.3683  -20.3100  -12.1964 C   0  0  0  0  0  0  0  0  0  0  0  0
   20.9841  -20.4943  -13.5923 C   0  0  0  0  0  0  0  0  0  0  0  0
   19.6486  -20.4729  -13.9473 O   0  0  0  0  0  0  0  0  0  0  0  0
   21.8496  -20.6725  -14.4787 O   0  0  0  0  0  0  0  0  0  0  0  0
  2  3  2  0
  2  1  1  0
  4  3  1  0
  5  4  2  0
  6  5  1  0
  7  6  1  0
  7  9  1  0
  7  8  1  6
  9 10  2  0
 11  5  1  0
 11 12  2  0
 12  2  1  0
 13  9  1  0
 13 14  1  0
 14 15  1  1
 15 16  1  0
 17 16  1  0
 18 19  1  0
 18 17  1  0
 20 21  2  0
 20 14  1  0
 22 20  1  0
 23 24  1  0
 23 22  1  0
 24 25  1  0
 26 24  2  0
M  END
$$$$
