NNN.pdb
     RDKit          3D

 25 24  0  0  1  0  0  0  0  0999 V2000
    1.9289  -20.4605   14.0640 N   0  0  0  0  0  0  0  0  0  0  0  0
    0.6651  -20.5031   14.6969 C   0  0  0  0  0  0  0  0  0  0  0  0
   -0.3646  -20.4094   13.9642 O   0  0  0  0  0  0  0  0  0  0  0  0
    0.4878  -20.6497   16.1526 C   0  0  0  0  0  0  0  0  0  0  0  0
    1.8804  -20.6165   16.7794 C   0  0  2  0  0  0  0  0  0  0  0  0
    2.6392  -21.6560   16.1434 N   0  0  0  0  0  0  0  0  0  0  0  0
    1.7431  -20.8553   18.2522 C   0  0  0  0  0  0  0  0  0  0  0  0
    1.0628  -20.0998   18.9823 O   0  0  0  0  0  0  0  0  0  0  0  0
    0.2036  -24.5784   22.2561 N   0  0  0  0  0  0  0  0  0  0  0  0
    1.4993  -24.1285   21.7994 C   0  0  0  0  0  0  0  0  0  0  0  0
    2.4234  -24.3033   22.5909 O   0  0  0  0  0  0  0  0  0  0  0  0
    1.6109  -23.5301   20.4988 C   0  0  0  0  0  0  0  0  0  0  0  0
    2.2375  -22.1791   20.3359 C   0  0  2  0  0  0  0  0  0  0  0  0
    2.3866  -21.9553   18.8653 N   0  0  0  0  0  0  0  0  0  0  0  0
    3.5578  -21.9992   20.9339 C   0  0  0  0  0  0  0  0  0  0  0  0
    4.6021  -22.4366   20.3046 O   0  0  0  0  0  0  0  0  0  0  0  0
    7.0401  -20.3675   20.7851 N   0  0  0  0  0  0  0  0  0  0  0  0
    6.5977  -19.4626   21.8339 C   0  0  0  0  0  0  0  0  0  0  0  0
    7.0953  -18.3204   21.7478 O   0  0  0  0  0  0  0  0  0  0  0  0
    5.6491  -19.9307   22.8632 C   0  0  0  0  0  0  0  0  0  0  0  0
    5.1647  -21.3209   22.6993 C   0  0  2  0  0  0  0  0  0  0  0  0
    3.8009  -21.3684   22.1632 N   0  0  0  0  0  0  0  0  0  0  0  0
    5.1506  -22.0965   23.9389 C   0  0  0  0  0  0  0  0  0  0  0  0
    3.9682  -22.5819   24.5218 O   0  0  0  0  0  0  0  0  0  0  0  0
    6.1944  -22.3709   24.5495 O   0  0  0  0  0  0  0  0  0  0  0  0
  1  2  1  0
  2  3  2  0
  4  2  1  0
  5  6  1  6
  5  4  1  0
  7  5  1  0
  8  7  2  0
  9 10  1  0
 10 12  1  0
 11 10  2  0
 13 12  1  6
 13 15  1  0
 13 14  1  0
 14  7  1  0
 15 16  2  0
 17 18  1  0
 18 19  2  0
 21 20  1  1
 20 18  1  0
 21 23  1  0
 22 15  1  0
 22 21  1  0
 23 25  2  0
 23 24  1  0
M  END
$$$$
