NNN.pdb
     RDKit          3D

 25 24  0  0  1  0  0  0  0  0999 V2000
    7.5128  -14.6459   17.4540 N   0  0  0  0  0  0  0  0  0  0  0  0
    7.7924  -13.7436   18.5062 C   0  0  0  0  0  0  0  0  0  0  0  0
    8.6199  -12.8111   18.2790 O   0  0  0  0  0  0  0  0  0  0  0  0
    7.1751  -13.8330   19.8414 C   0  0  0  0  0  0  0  0  0  0  0  0
    8.3123  -13.9599   20.8534 C   0  0  2  0  0  0  0  0  0  0  0  0
    9.2824  -14.8419   20.2688 N   0  0  0  0  0  0  0  0  0  0  0  0
    7.7538  -14.5192   22.1263 C   0  0  0  0  0  0  0  0  0  0  0  0
    6.7736  -13.9959   22.7025 O   0  0  0  0  0  0  0  0  0  0  0  0
    6.4165  -19.3805   25.0112 N   0  0  0  0  0  0  0  0  0  0  0  0
    6.3920  -17.9351   25.0141 C   0  0  0  0  0  0  0  0  0  0  0  0
    5.9005  -17.4217   26.0170 O   0  0  0  0  0  0  0  0  0  0  0  0
    6.9250  -17.2265   23.8846 C   0  0  0  0  0  0  0  0  0  0  0  0
    7.8900  -16.0980   24.0828 C   0  0  2  0  0  0  0  0  0  0  0  0
    8.3264  -15.6685   22.7188 N   0  0  0  0  0  0  0  0  0  0  0  0
    9.0985  -16.4030   24.8442 C   0  0  0  0  0  0  0  0  0  0  0  0
    9.5860  -17.6024   24.8034 O   0  0  0  0  0  0  0  0  0  0  0  0
   10.1092  -13.0112   27.5212 N   0  0  0  0  0  0  0  0  0  0  0  0
    9.1087  -13.8394   28.1752 C   0  0  0  0  0  0  0  0  0  0  0  0
    8.3097  -13.1895   28.8816 O   0  0  0  0  0  0  0  0  0  0  0  0
    9.1091  -15.3009   27.9697 C   0  0  0  0  0  0  0  0  0  0  0  0
   10.1279  -15.8118   27.0236 C   0  0  2  0  0  0  0  0  0  0  0  0
    9.8021  -15.4805   25.6330 N   0  0  0  0  0  0  0  0  0  0  0  0
   10.3120  -17.2617   27.0725 C   0  0  0  0  0  0  0  0  0  0  0  0
   11.5567  -17.8650   27.3180 O   0  0  0  0  0  0  0  0  0  0  0  0
    9.3676  -18.0461   26.8979 O   0  0  0  0  0  0  0  0  0  0  0  0
  1  2  1  0
  2  3  2  0
  4  2  1  0
  5  6  1  6
  5  4  1  0
  7  5  1  0
  8  7  2  0
  9 10  1  0
 10 12  1  0
 11 10  2  0
 13 12  1  6
 13 15  1  0
 13 14  1  0
 14  7  1  0
 15 16  2  0
 17 18  1  0
 18 19  2  0
 21 20  1  1
 20 18  1  0
 21 23  1  0
 22 15  1  0
 22 21  1  0
 23 25  2  0
 23 24  1  0
M  END
$$$$
