NNN.pdb
     RDKit          3D

 25 24  0  0  1  0  0  0  0  0999 V2000
    7.5680  -13.4337   16.0031 N   0  0  0  0  0  0  0  0  0  0  0  0
    8.6610  -13.7648   16.8369 C   0  0  0  0  0  0  0  0  0  0  0  0
    9.6590  -14.3340   16.3024 O   0  0  0  0  0  0  0  0  0  0  0  0
    8.6967  -13.4832   18.2831 C   0  0  0  0  0  0  0  0  0  0  0  0
    9.3098  -14.7062   18.9628 C   0  0  2  0  0  0  0  0  0  0  0  0
    8.5273  -15.8371   18.5511 N   0  0  0  0  0  0  0  0  0  0  0  0
    9.2498  -14.5038   20.4462 C   0  0  0  0  0  0  0  0  0  0  0  0
    9.7494  -13.4960   20.9951 O   0  0  0  0  0  0  0  0  0  0  0  0
    6.1802  -14.7340   21.4848 N   0  0  0  0  0  0  0  0  0  0  0  0
    6.1867  -15.6093   22.6354 C   0  0  0  0  0  0  0  0  0  0  0  0
    5.0944  -16.0851   22.9376 O   0  0  0  0  0  0  0  0  0  0  0  0
    7.4257  -15.8522   23.3195 C   0  0  0  0  0  0  0  0  0  0  0  0
    8.7150  -15.3301   22.7635 C   0  0  2  0  0  0  0  0  0  0  0  0
    8.6186  -15.4583   21.2771 N   0  0  0  0  0  0  0  0  0  0  0  0
    9.9301  -16.0272   23.1768 C   0  0  0  0  0  0  0  0  0  0  0  0
   10.1715  -16.1828   24.4399 O   0  0  0  0  0  0  0  0  0  0  0  0
   14.3592  -18.6360   23.7780 N   0  0  0  0  0  0  0  0  0  0  0  0
   13.4190  -19.3142   22.9002 C   0  0  0  0  0  0  0  0  0  0  0  0
   13.7612  -20.4798   22.6103 O   0  0  0  0  0  0  0  0  0  0  0  0
   12.2008  -18.6183   22.4419 C   0  0  0  0  0  0  0  0  0  0  0  0
   12.0935  -17.1942   22.8352 C   0  0  2  0  0  0  0  0  0  0  0  0
   10.8827  -16.5652   22.2986 N   0  0  0  0  0  0  0  0  0  0  0  0
   13.2186  -16.3692   22.3972 C   0  0  0  0  0  0  0  0  0  0  0  0
   14.3182  -16.0785   23.2218 O   0  0  0  0  0  0  0  0  0  0  0  0
   13.2631  -15.8760   21.2603 O   0  0  0  0  0  0  0  0  0  0  0  0
  1  2  1  0
  2  3  2  0
  4  2  1  0
  5  6  1  1
  5  4  1  0
  7  5  1  0
  8  7  2  0
  9 10  1  0
 10 12  1  0
 11 10  2  0
 13 12  1  1
 13 15  1  0
 13 14  1  0
 14  7  1  0
 15 16  2  0
 17 18  1  0
 18 19  2  0
 21 20  1  6
 20 18  1  0
 21 23  1  0
 22 15  1  0
 22 21  1  0
 23 25  2  0
 23 24  1  0
M  END
$$$$
