NNN.pdb
     RDKit          3D

 25 24  0  0  1  0  0  0  0  0999 V2000
   10.4256  -18.6703   14.8252 N   0  0  0  0  0  0  0  0  0  0  0  0
    9.3871  -17.7108   14.8473 C   0  0  0  0  0  0  0  0  0  0  0  0
    8.7536  -17.5027   13.7697 O   0  0  0  0  0  0  0  0  0  0  0  0
    9.0084  -16.9481   16.0502 C   0  0  0  0  0  0  0  0  0  0  0  0
   10.0263  -17.2900   17.1366 C   0  0  2  0  0  0  0  0  0  0  0  0
    9.3021  -17.9634   18.1772 N   0  0  0  0  0  0  0  0  0  0  0  0
   10.6413  -16.0150   17.6280 C   0  0  0  0  0  0  0  0  0  0  0  0
   11.8283  -15.7130   17.3701 O   0  0  0  0  0  0  0  0  0  0  0  0
    6.9868  -12.5966   18.9130 N   0  0  0  0  0  0  0  0  0  0  0  0
    8.2702  -12.8990   18.3201 C   0  0  0  0  0  0  0  0  0  0  0  0
    8.2432  -13.1644   17.1201 O   0  0  0  0  0  0  0  0  0  0  0  0
    9.4443  -12.8690   19.1463 C   0  0  0  0  0  0  0  0  0  0  0  0
   10.5373  -13.8741   18.9488 C   0  0  2  0  0  0  0  0  0  0  0  0
    9.8874  -15.1065   18.4065 N   0  0  0  0  0  0  0  0  0  0  0  0
   11.2792  -14.2699   20.1431 C   0  0  0  0  0  0  0  0  0  0  0  0
   12.0147  -13.3934   20.7503 O   0  0  0  0  0  0  0  0  0  0  0  0
   13.3222  -17.7574   23.9396 N   0  0  0  0  0  0  0  0  0  0  0  0
   12.1157  -16.9656   24.1180 C   0  0  0  0  0  0  0  0  0  0  0  0
   11.8593  -16.7124   25.3138 O   0  0  0  0  0  0  0  0  0  0  0  0
   11.3277  -16.5433   22.9437 C   0  0  0  0  0  0  0  0  0  0  0  0
   12.0888  -15.8436   21.8830 C   0  0  2  0  0  0  0  0  0  0  0  0
   11.2577  -15.5528   20.7106 N   0  0  0  0  0  0  0  0  0  0  0  0
   13.2499  -16.5865   21.3945 C   0  0  0  0  0  0  0  0  0  0  0  0
   13.2334  -17.9751   21.1829 O   0  0  0  0  0  0  0  0  0  0  0  0
   14.3245  -16.0235   21.1377 O   0  0  0  0  0  0  0  0  0  0  0  0
  1  2  1  0
  2  3  2  0
  4  2  1  0
  5  6  1  1
  5  4  1  0
  7  5  1  0
  8  7  2  0
  9 10  1  0
 10 12  1  0
 11 10  2  0
 13 12  1  1
 13 15  1  0
 13 14  1  0
 14  7  1  0
 15 16  2  0
 17 18  1  0
 18 19  2  0
 21 20  1  1
 20 18  1  0
 21 23  1  0
 22 15  1  0
 22 21  1  0
 23 25  2  0
 23 24  1  0
M  END
$$$$
