NNN.pdb
     RDKit          3D

 25 24  0  0  1  0  0  0  0  0999 V2000
   16.5401  -13.8841   15.8773 N   0  0  0  0  0  0  0  0  0  0  0  0
   16.0810  -14.0588   17.2033 C   0  0  0  0  0  0  0  0  0  0  0  0
   16.9233  -14.4288   18.0749 O   0  0  0  0  0  0  0  0  0  0  0  0
   14.6848  -13.8339   17.6182 C   0  0  0  0  0  0  0  0  0  0  0  0
   14.3550  -14.8890   18.6724 C   0  0  2  0  0  0  0  0  0  0  0  0
   14.2245  -16.1366   17.9744 N   0  0  0  0  0  0  0  0  0  0  0  0
   13.0767  -14.4989   19.3497 C   0  0  0  0  0  0  0  0  0  0  0  0
   12.9349  -13.3829   19.8983 O   0  0  0  0  0  0  0  0  0  0  0  0
    9.4430  -13.9377   17.7861 N   0  0  0  0  0  0  0  0  0  0  0  0
    9.0378  -15.2399   18.2658 C   0  0  0  0  0  0  0  0  0  0  0  0
    8.2098  -15.8209   17.5674 O   0  0  0  0  0  0  0  0  0  0  0  0
    9.6113  -15.7444   19.4818 C   0  0  0  0  0  0  0  0  0  0  0  0
   10.7453  -15.0225   20.1429 C   0  0  2  0  0  0  0  0  0  0  0  0
   11.9814  -15.3926   19.3876 N   0  0  0  0  0  0  0  0  0  0  0  0
   10.9881  -15.3423   21.5472 C   0  0  0  0  0  0  0  0  0  0  0  0
   10.2136  -14.8367   22.4541 O   0  0  0  0  0  0  0  0  0  0  0  0
   11.9560  -17.4313   26.1320 N   0  0  0  0  0  0  0  0  0  0  0  0
   10.8798  -17.8192   25.2343 C   0  0  0  0  0  0  0  0  0  0  0  0
   10.0079  -18.5275   25.7801 O   0  0  0  0  0  0  0  0  0  0  0  0
   10.8940  -17.3749   23.8269 C   0  0  0  0  0  0  0  0  0  0  0  0
   12.0607  -16.5534   23.4292 C   0  0  2  0  0  0  0  0  0  0  0  0
   12.0129  -16.1801   22.0121 N   0  0  0  0  0  0  0  0  0  0  0  0
   13.3506  -17.2085   23.6424 C   0  0  0  0  0  0  0  0  0  0  0  0
   13.8668  -17.4794   24.9205 O   0  0  0  0  0  0  0  0  0  0  0  0
   14.0668  -17.5645   22.6947 O   0  0  0  0  0  0  0  0  0  0  0  0
  1  2  1  0
  2  3  2  0
  4  2  1  0
  5  6  1  6
  5  4  1  0
  7  5  1  0
  8  7  2  0
  9 10  1  0
 10 12  1  0
 11 10  2  0
 13 12  1  6
 13 15  1  0
 13 14  1  0
 14  7  1  0
 15 16  2  0
 17 18  1  0
 18 19  2  0
 21 20  1  6
 20 18  1  0
 21 23  1  0
 22 15  1  0
 22 21  1  0
 23 25  2  0
 23 24  1  0
M  END
$$$$
