NNN.pdb
     RDKit          3D

 25 24  0  0  1  0  0  0  0  0999 V2000
   16.0734  -18.1336   13.1417 N   0  0  0  0  0  0  0  0  0  0  0  0
   14.7396  -18.0651   13.6063 C   0  0  0  0  0  0  0  0  0  0  0  0
   13.8121  -18.2771   12.7692 O   0  0  0  0  0  0  0  0  0  0  0  0
   14.3781  -17.7622   15.0025 C   0  0  0  0  0  0  0  0  0  0  0  0
   13.9729  -19.0817   15.6569 C   0  0  2  0  0  0  0  0  0  0  0  0
   12.7633  -19.5040   15.0093 N   0  0  0  0  0  0  0  0  0  0  0  0
   13.7601  -18.8393   17.1202 C   0  0  0  0  0  0  0  0  0  0  0  0
   14.2221  -17.8282   17.6953 O   0  0  0  0  0  0  0  0  0  0  0  0
    9.7991  -21.3548   20.2280 N   0  0  0  0  0  0  0  0  0  0  0  0
   10.5644  -20.6532   19.2220 C   0  0  0  0  0  0  0  0  0  0  0  0
   10.4648  -21.1008   18.0815 O   0  0  0  0  0  0  0  0  0  0  0  0
   11.3590  -19.5228   19.6129 C   0  0  0  0  0  0  0  0  0  0  0  0
   12.8362  -19.5106   19.3639 C   0  0  2  0  0  0  0  0  0  0  0  0
   13.0217  -19.7583   17.9012 N   0  0  0  0  0  0  0  0  0  0  0  0
   13.6227  -20.5165   20.0731 C   0  0  0  0  0  0  0  0  0  0  0  0
   13.1251  -21.0805   21.1277 O   0  0  0  0  0  0  0  0  0  0  0  0
   15.0948  -23.8521   19.2824 N   0  0  0  0  0  0  0  0  0  0  0  0
   16.4990  -23.4792   19.3428 C   0  0  0  0  0  0  0  0  0  0  0  0
   17.2482  -24.2597   18.7189 O   0  0  0  0  0  0  0  0  0  0  0  0
   16.9136  -22.2772   20.0923 C   0  0  0  0  0  0  0  0  0  0  0  0
   15.8137  -21.4962   20.7043 C   0  0  2  0  0  0  0  0  0  0  0  0
   14.9049  -20.9427   19.6956 N   0  0  0  0  0  0  0  0  0  0  0  0
   16.2655  -20.3690   21.5190 C   0  0  0  0  0  0  0  0  0  0  0  0
   16.1605  -20.3494   22.9197 O   0  0  0  0  0  0  0  0  0  0  0  0
   16.7719  -19.3576   21.0108 O   0  0  0  0  0  0  0  0  0  0  0  0
  1  2  1  0
  2  3  2  0
  4  2  1  0
  5  6  1  6
  5  4  1  0
  7  5  1  0
  8  7  2  0
  9 10  1  0
 10 12  1  0
 11 10  2  0
 13 12  1  1
 13 15  1  0
 13 14  1  0
 14  7  1  0
 15 16  2  0
 17 18  1  0
 18 19  2  0
 21 20  1  6
 20 18  1  0
 21 23  1  0
 22 15  1  0
 22 21  1  0
 23 25  2  0
 23 24  1  0
M  END
$$$$
