NNN.pdb
     RDKit          3D

 25 24  0  0  1  0  0  0  0  0999 V2000
    7.4092  -13.1602   14.9567 N   0  0  0  0  0  0  0  0  0  0  0  0
    8.4365  -14.0390   15.3711 C   0  0  0  0  0  0  0  0  0  0  0  0
    9.0221  -14.7235   14.4798 O   0  0  0  0  0  0  0  0  0  0  0  0
    8.8561  -14.1969   16.7750 C   0  0  0  0  0  0  0  0  0  0  0  0
    9.5123  -15.5711   16.8949 C   0  0  2  0  0  0  0  0  0  0  0  0
    8.5062  -16.5353   16.5499 N   0  0  0  0  0  0  0  0  0  0  0  0
    9.9865  -15.7485   18.3051 C   0  0  0  0  0  0  0  0  0  0  0  0
   10.7892  -14.9485   18.8365 O   0  0  0  0  0  0  0  0  0  0  0  0
    7.2144  -17.2743   20.1187 N   0  0  0  0  0  0  0  0  0  0  0  0
    7.9038  -18.3041   20.8631 C   0  0  0  0  0  0  0  0  0  0  0  0
    7.1902  -19.2106   21.2871 O   0  0  0  0  0  0  0  0  0  0  0  0
    9.3240  -18.1983   21.0480 C   0  0  0  0  0  0  0  0  0  0  0  0
   10.0827  -17.0488   20.4589 C   0  0  2  0  0  0  0  0  0  0  0  0
    9.5341  -16.8386   19.0840 N   0  0  0  0  0  0  0  0  0  0  0  0
   11.5262  -17.2247   20.3232 C   0  0  0  0  0  0  0  0  0  0  0  0
   11.9847  -17.9894   19.3835 O   0  0  0  0  0  0  0  0  0  0  0  0
   13.5151  -13.7325   19.7935 N   0  0  0  0  0  0  0  0  0  0  0  0
   14.5505  -14.6036   20.3261 C   0  0  0  0  0  0  0  0  0  0  0  0
   15.3685  -14.0120   21.0614 O   0  0  0  0  0  0  0  0  0  0  0  0
   14.5600  -16.0385   19.9804 C   0  0  0  0  0  0  0  0  0  0  0  0
   13.9069  -16.9354   20.9617 C   0  0  2  0  0  0  0  0  0  0  0  0
   12.4878  -16.6134   21.1416 N   0  0  0  0  0  0  0  0  0  0  0  0
   14.5117  -16.9029   22.2928 C   0  0  0  0  0  0  0  0  0  0  0  0
   13.8141  -16.4838   23.4378 O   0  0  0  0  0  0  0  0  0  0  0  0
   15.6872  -17.2478   22.4845 O   0  0  0  0  0  0  0  0  0  0  0  0
  1  2  1  0
  2  3  2  0
  4  2  1  0
  5  6  1  1
  5  4  1  0
  7  5  1  0
  8  7  2  0
  9 10  1  0
 10 12  1  0
 11 10  2  0
 13 12  1  6
 13 15  1  0
 13 14  1  0
 14  7  1  0
 15 16  2  0
 17 18  1  0
 18 19  2  0
 21 20  1  6
 20 18  1  0
 21 23  1  0
 22 15  1  0
 22 21  1  0
 23 25  2  0
 23 24  1  0
M  END
$$$$
