NNN.pdb
     RDKit          3D

 25 24  0  0  1  0  0  0  0  0999 V2000
   13.1576  -21.9915   12.9342 N   0  0  0  0  0  0  0  0  0  0  0  0
   12.0592  -21.5164   13.6873 C   0  0  0  0  0  0  0  0  0  0  0  0
   11.8641  -22.0259   14.8311 O   0  0  0  0  0  0  0  0  0  0  0  0
   11.1386  -20.4681   13.2125 C   0  0  0  0  0  0  0  0  0  0  0  0
   11.6301  -19.1434   13.7930 C   0  0  2  0  0  0  0  0  0  0  0  0
   13.0596  -19.1454   13.6614 N   0  0  0  0  0  0  0  0  0  0  0  0
   11.2079  -19.0695   15.2288 C   0  0  0  0  0  0  0  0  0  0  0  0
   11.8822  -18.4519   16.0835 O   0  0  0  0  0  0  0  0  0  0  0  0
    7.8892  -17.7711   18.5376 N   0  0  0  0  0  0  0  0  0  0  0  0
    7.2790  -18.8464   17.7884 C   0  0  0  0  0  0  0  0  0  0  0  0
    6.0498  -18.8502   17.7842 O   0  0  0  0  0  0  0  0  0  0  0  0
    8.1229  -19.8005   17.1253 C   0  0  0  0  0  0  0  0  0  0  0  0
    9.6084  -19.6092   17.0967 C   0  0  2  0  0  0  0  0  0  0  0  0
   10.0206  -19.7034   15.6627 N   0  0  0  0  0  0  0  0  0  0  0  0
   10.4034  -20.5855   17.8371 C   0  0  0  0  0  0  0  0  0  0  0  0
   11.1016  -21.4590   17.1835 O   0  0  0  0  0  0  0  0  0  0  0  0
   15.0440  -21.9449   19.2435 N   0  0  0  0  0  0  0  0  0  0  0  0
   14.2642  -20.7404   19.4793 C   0  0  0  0  0  0  0  0  0  0  0  0
   14.8592  -19.8911   20.1752 O   0  0  0  0  0  0  0  0  0  0  0  0
   12.9068  -20.6154   18.9135 C   0  0  0  0  0  0  0  0  0  0  0  0
   11.7962  -20.7474   19.8847 C   0  0  2  0  0  0  0  0  0  0  0  0
   10.4845  -20.6564   19.2359 N   0  0  0  0  0  0  0  0  0  0  0  0
   11.8069  -19.7374   20.9423 C   0  0  0  0  0  0  0  0  0  0  0  0
   12.2727  -19.9982   22.2417 O   0  0  0  0  0  0  0  0  0  0  0  0
   11.4005  -18.5824   20.7463 O   0  0  0  0  0  0  0  0  0  0  0  0
  1  2  1  0
  2  3  2  0
  4  2  1  0
  5  6  1  1
  5  4  1  0
  7  5  1  0
  8  7  2  0
  9 10  1  0
 10 12  1  0
 11 10  2  0
 13 12  1  6
 13 15  1  0
 13 14  1  0
 14  7  1  0
 15 16  2  0
 17 18  1  0
 18 19  2  0
 21 20  1  6
 20 18  1  0
 21 23  1  0
 22 15  1  0
 22 21  1  0
 23 25  2  0
 23 24  1  0
M  END
$$$$
