NNN.pdb
     RDKit          3D

 25 24  0  0  1  0  0  0  0  0999 V2000
    9.0902  -14.6329   17.1123 N   0  0  0  0  0  0  0  0  0  0  0  0
    8.0852  -13.7251   17.5187 C   0  0  0  0  0  0  0  0  0  0  0  0
    7.4470  -13.1083   16.6141 O   0  0  0  0  0  0  0  0  0  0  0  0
    7.7462  -13.4630   18.9288 C   0  0  0  0  0  0  0  0  0  0  0  0
    8.6657  -14.3362   19.7806 C   0  0  2  0  0  0  0  0  0  0  0  0
    8.3627  -15.6983   19.4434 N   0  0  0  0  0  0  0  0  0  0  0  0
    8.3872  -14.0499   21.2248 C   0  0  0  0  0  0  0  0  0  0  0  0
    8.5881  -12.9197   21.7237 O   0  0  0  0  0  0  0  0  0  0  0  0
    6.2953  -14.2450   26.1865 N   0  0  0  0  0  0  0  0  0  0  0  0
    6.1944  -15.4609   25.4111 C   0  0  0  0  0  0  0  0  0  0  0  0
    5.8269  -16.4526   26.0376 O   0  0  0  0  0  0  0  0  0  0  0  0
    6.5194  -15.4251   24.0129 C   0  0  0  0  0  0  0  0  0  0  0  0
    7.8129  -14.8283   23.5492 C   0  0  2  0  0  0  0  0  0  0  0  0
    7.8831  -15.0619   22.0742 N   0  0  0  0  0  0  0  0  0  0  0  0
    9.0310  -15.3860   24.1309 C   0  0  0  0  0  0  0  0  0  0  0  0
    9.0802  -15.6043   25.4068 O   0  0  0  0  0  0  0  0  0  0  0  0
   12.2240  -19.0336   25.5860 N   0  0  0  0  0  0  0  0  0  0  0  0
   11.5171  -19.1469   24.3204 C   0  0  0  0  0  0  0  0  0  0  0  0
   11.7870  -20.1917   23.6917 O   0  0  0  0  0  0  0  0  0  0  0  0
   10.5869  -18.0829   23.8949 C   0  0  0  0  0  0  0  0  0  0  0  0
   11.1259  -16.7044   23.9511 C   0  0  2  0  0  0  0  0  0  0  0  0
   10.1834  -15.7228   23.4052 N   0  0  0  0  0  0  0  0  0  0  0  0
   12.3805  -16.5254   23.2215 C   0  0  0  0  0  0  0  0  0  0  0  0
   12.4317  -16.2963   21.8364 O   0  0  0  0  0  0  0  0  0  0  0  0
   13.4800  -16.5665   23.7933 O   0  0  0  0  0  0  0  0  0  0  0  0
  1  2  1  0
  2  3  2  0
  4  2  1  0
  5  6  1  1
  5  4  1  0
  7  5  1  0
  8  7  2  0
  9 10  1  0
 10 12  1  0
 11 10  2  0
 13 12  1  1
 13 15  1  0
 13 14  1  0
 14  7  1  0
 15 16  2  0
 17 18  1  0
 18 19  2  0
 21 20  1  6
 20 18  1  0
 21 23  1  0
 22 15  1  0
 22 21  1  0
 23 25  2  0
 23 24  1  0
M  END
$$$$
