NNN.pdb
     RDKit          3D

 25 24  0  0  1  0  0  0  0  0999 V2000
    6.9290  -13.1673   14.8996 N   0  0  0  0  0  0  0  0  0  0  0  0
    8.0277  -13.8717   15.4436 C   0  0  0  0  0  0  0  0  0  0  0  0
    8.4700  -14.8664   14.7948 O   0  0  0  0  0  0  0  0  0  0  0  0
    8.6780  -13.5100   16.7158 C   0  0  0  0  0  0  0  0  0  0  0  0
    9.2733  -14.7919   17.2953 C   0  0  2  0  0  0  0  0  0  0  0  0
    8.1851  -15.7163   17.4441 N   0  0  0  0  0  0  0  0  0  0  0  0
    9.9058  -14.4667   18.6141 C   0  0  0  0  0  0  0  0  0  0  0  0
   10.8552  -13.6566   18.7083 O   0  0  0  0  0  0  0  0  0  0  0  0
    7.5801  -13.5892   21.5080 N   0  0  0  0  0  0  0  0  0  0  0  0
    7.9615  -14.6892   22.3649 C   0  0  0  0  0  0  0  0  0  0  0  0
    7.1232  -15.0156   23.2026 O   0  0  0  0  0  0  0  0  0  0  0  0
    9.2478  -15.3011   22.1829 C   0  0  0  0  0  0  0  0  0  0  0  0
   10.1622  -14.8358   21.0913 C   0  0  2  0  0  0  0  0  0  0  0  0
    9.4410  -15.0741   19.8036 N   0  0  0  0  0  0  0  0  0  0  0  0
   11.4527  -15.5128   20.9925 C   0  0  0  0  0  0  0  0  0  0  0  0
   11.5173  -16.6700   20.4141 O   0  0  0  0  0  0  0  0  0  0  0  0
   14.4504  -13.4003   18.5435 N   0  0  0  0  0  0  0  0  0  0  0  0
   14.4928  -14.7587   19.0605 C   0  0  0  0  0  0  0  0  0  0  0  0
   14.1724  -15.6222   18.2170 O   0  0  0  0  0  0  0  0  0  0  0  0
   14.8878  -15.0052   20.4611 C   0  0  0  0  0  0  0  0  0  0  0  0
   13.9060  -15.7551   21.2782 C   0  0  2  0  0  0  0  0  0  0  0  0
   12.6651  -14.9998   21.4773 N   0  0  0  0  0  0  0  0  0  0  0  0
   14.3909  -16.1149   22.6101 C   0  0  0  0  0  0  0  0  0  0  0  0
   14.5755  -15.1723   23.6353 O   0  0  0  0  0  0  0  0  0  0  0  0
   14.6685  -17.2857   22.9097 O   0  0  0  0  0  0  0  0  0  0  0  0
  1  2  1  0
  2  3  2  0
  4  2  1  0
  5  6  1  1
  5  4  1  0
  7  5  1  0
  8  7  2  0
  9 10  1  0
 10 12  1  0
 11 10  2  0
 13 12  1  1
 13 15  1  0
 13 14  1  0
 14  7  1  0
 15 16  2  0
 17 18  1  0
 18 19  2  0
 21 20  1  1
 20 18  1  0
 21 23  1  0
 22 15  1  0
 22 21  1  0
 23 25  2  0
 23 24  1  0
M  END
$$$$
