NNN.pdb
     RDKit          3D

 25 24  0  0  1  0  0  0  0  0999 V2000
   13.2154  -23.3905   18.1229 N   0  0  0  0  0  0  0  0  0  0  0  0
   12.8732  -22.1620   18.7339 C   0  0  0  0  0  0  0  0  0  0  0  0
   12.0880  -22.1966   19.7280 O   0  0  0  0  0  0  0  0  0  0  0  0
   13.3796  -20.8558   18.2763 C   0  0  0  0  0  0  0  0  0  0  0  0
   14.1541  -20.2423   19.4413 C   0  0  2  0  0  0  0  0  0  0  0  0
   13.3199  -20.3766   20.6019 N   0  0  0  0  0  0  0  0  0  0  0  0
   14.4292  -18.8043   19.1226 C   0  0  0  0  0  0  0  0  0  0  0  0
   15.5717  -18.4069   18.8009 O   0  0  0  0  0  0  0  0  0  0  0  0
   13.4591  -16.5739   15.9769 N   0  0  0  0  0  0  0  0  0  0  0  0
   12.3522  -16.0274   16.7292 C   0  0  0  0  0  0  0  0  0  0  0  0
   11.3630  -15.7290   16.0634 O   0  0  0  0  0  0  0  0  0  0  0  0
   12.4825  -15.8771   18.1514 C   0  0  0  0  0  0  0  0  0  0  0  0
   13.6863  -16.4126   18.8642 C   0  0  2  0  0  0  0  0  0  0  0  0
   13.3919  -17.8446   19.1770 N   0  0  0  0  0  0  0  0  0  0  0  0
   14.0386  -15.7615   20.1233 C   0  0  0  0  0  0  0  0  0  0  0  0
   14.2961  -14.4920   20.1285 O   0  0  0  0  0  0  0  0  0  0  0  0
   11.5788  -14.6633   23.7825 N   0  0  0  0  0  0  0  0  0  0  0  0
   12.2394  -15.9460   23.6014 C   0  0  0  0  0  0  0  0  0  0  0  0
   11.4527  -16.8761   23.3261 O   0  0  0  0  0  0  0  0  0  0  0  0
   13.7043  -16.0507   23.7471 C   0  0  0  0  0  0  0  0  0  0  0  0
   14.4938  -15.6480   22.5602 C   0  0  2  0  0  0  0  0  0  0  0  0
   14.1173  -16.4094   21.3651 N   0  0  0  0  0  0  0  0  0  0  0  0
   15.9377  -15.8152   22.7208 C   0  0  0  0  0  0  0  0  0  0  0  0
   16.5946  -17.0358   22.4925 O   0  0  0  0  0  0  0  0  0  0  0  0
   16.6687  -14.8769   23.0714 O   0  0  0  0  0  0  0  0  0  0  0  0
  1  2  1  0
  2  3  2  0
  4  2  1  0
  5  6  1  1
  5  4  1  0
  7  5  1  0
  8  7  2  0
  9 10  1  0
 10 12  1  0
 11 10  2  0
 13 12  1  1
 13 15  1  0
 13 14  1  0
 14  7  1  0
 15 16  2  0
 17 18  1  0
 18 19  2  0
 21 20  1  1
 20 18  1  0
 21 23  1  0
 22 15  1  0
 22 21  1  0
 23 25  2  0
 23 24  1  0
M  END
$$$$
