NNN.pdb
     RDKit          3D

 25 24  0  0  1  0  0  0  0  0999 V2000
    7.2918  -15.9568   14.3446 N   0  0  0  0  0  0  0  0  0  0  0  0
    8.6968  -16.1006   14.4133 C   0  0  0  0  0  0  0  0  0  0  0  0
    9.3804  -15.6898   13.4285 O   0  0  0  0  0  0  0  0  0  0  0  0
    9.3990  -16.6989   15.5626 C   0  0  0  0  0  0  0  0  0  0  0  0
    9.7017  -15.5664   16.5420 C   0  0  2  0  0  0  0  0  0  0  0  0
   10.3206  -14.5205   15.7778 N   0  0  0  0  0  0  0  0  0  0  0  0
   10.6191  -16.0909   17.6043 C   0  0  0  0  0  0  0  0  0  0  0  0
   10.3521  -17.1272   18.2534 O   0  0  0  0  0  0  0  0  0  0  0  0
   14.5878  -14.0331   16.7009 N   0  0  0  0  0  0  0  0  0  0  0  0
   14.7069  -14.5900   18.0297 C   0  0  0  0  0  0  0  0  0  0  0  0
   15.2966  -13.8821   18.8433 O   0  0  0  0  0  0  0  0  0  0  0  0
   14.1472  -15.8855   18.2953 C   0  0  0  0  0  0  0  0  0  0  0  0
   12.7800  -16.0136   18.8939 C   0  0  2  0  0  0  0  0  0  0  0  0
   11.8272  -15.4207   17.9060 N   0  0  0  0  0  0  0  0  0  0  0  0
   12.5611  -15.3294   20.1657 C   0  0  0  0  0  0  0  0  0  0  0  0
   12.0238  -14.1508   20.1656 O   0  0  0  0  0  0  0  0  0  0  0  0
    9.8889  -15.7953   24.5174 N   0  0  0  0  0  0  0  0  0  0  0  0
    9.5145  -16.0779   23.1410 C   0  0  0  0  0  0  0  0  0  0  0  0
    8.2895  -16.2664   22.9875 O   0  0  0  0  0  0  0  0  0  0  0  0
   10.5471  -16.1192   22.0872 C   0  0  0  0  0  0  0  0  0  0  0  0
   11.9176  -15.7643   22.5228 C   0  0  2  0  0  0  0  0  0  0  0  0
   12.8849  -15.8568   21.4247 N   0  0  0  0  0  0  0  0  0  0  0  0
   12.4349  -16.6029   23.6032 C   0  0  0  0  0  0  0  0  0  0  0  0
   12.7458  -17.9622   23.4321 O   0  0  0  0  0  0  0  0  0  0  0  0
   12.6295  -16.1537   24.7425 O   0  0  0  0  0  0  0  0  0  0  0  0
  1  2  1  0
  2  3  2  0
  4  2  1  0
  5  6  1  6
  5  4  1  0
  7  5  1  0
  8  7  2  0
  9 10  1  0
 10 12  1  0
 11 10  2  0
 13 12  1  6
 13 15  1  0
 13 14  1  0
 14  7  1  0
 15 16  2  0
 17 18  1  0
 18 19  2  0
 21 20  1  6
 20 18  1  0
 21 23  1  0
 22 15  1  0
 22 21  1  0
 23 25  2  0
 23 24  1  0
M  END
$$$$
