NNN.pdb
     RDKit          3D

 25 24  0  0  1  0  0  0  0  0999 V2000
    6.4580  -20.1117   17.7499 N   0  0  0  0  0  0  0  0  0  0  0  0
    6.5152  -18.9332   16.9705 C   0  0  0  0  0  0  0  0  0  0  0  0
    5.8878  -18.9235   15.8694 O   0  0  0  0  0  0  0  0  0  0  0  0
    7.2612  -17.7270   17.3713 C   0  0  0  0  0  0  0  0  0  0  0  0
    8.0666  -18.0915   18.6171 C   0  0  2  0  0  0  0  0  0  0  0  0
    7.1198  -18.2419   19.6856 N   0  0  0  0  0  0  0  0  0  0  0  0
    9.0393  -16.9857   18.8928 C   0  0  0  0  0  0  0  0  0  0  0  0
   10.2412  -17.0644   18.5523 O   0  0  0  0  0  0  0  0  0  0  0  0
    6.5016  -12.8497   19.1247 N   0  0  0  0  0  0  0  0  0  0  0  0
    7.8242  -13.2637   18.7133 C   0  0  0  0  0  0  0  0  0  0  0  0
    7.9636  -13.4473   17.5059 O   0  0  0  0  0  0  0  0  0  0  0  0
    8.8455  -13.4255   19.7097 C   0  0  0  0  0  0  0  0  0  0  0  0
    9.6038  -14.7130   19.8173 C   0  0  2  0  0  0  0  0  0  0  0  0
    8.6204  -15.8078   19.5538 N   0  0  0  0  0  0  0  0  0  0  0  0
   10.2247  -14.9950   21.1090 C   0  0  0  0  0  0  0  0  0  0  0  0
   11.0794  -14.1530   21.5973 O   0  0  0  0  0  0  0  0  0  0  0  0
   10.3891  -16.3231   26.6911 N   0  0  0  0  0  0  0  0  0  0  0  0
   10.4887  -17.1490   25.4984 C   0  0  0  0  0  0  0  0  0  0  0  0
   11.1785  -18.1772   25.6617 O   0  0  0  0  0  0  0  0  0  0  0  0
    9.8084  -16.7377   24.2549 C   0  0  0  0  0  0  0  0  0  0  0  0
   10.7003  -16.3349   23.1430 C   0  0  2  0  0  0  0  0  0  0  0  0
    9.9622  -16.1283   21.8931 N   0  0  0  0  0  0  0  0  0  0  0  0
   11.7561  -17.3023   22.8463 C   0  0  0  0  0  0  0  0  0  0  0  0
   13.0287  -17.2486   23.4389 O   0  0  0  0  0  0  0  0  0  0  0  0
   11.5825  -18.2334   22.0460 O   0  0  0  0  0  0  0  0  0  0  0  0
  1  2  1  0
  2  3  2  0
  4  2  1  0
  5  6  1  1
  5  4  1  0
  7  5  1  0
  8  7  2  0
  9 10  1  0
 10 12  1  0
 11 10  2  0
 13 12  1  1
 13 15  1  0
 13 14  1  0
 14  7  1  0
 15 16  2  0
 17 18  1  0
 18 19  2  0
 21 20  1  1
 20 18  1  0
 21 23  1  0
 22 15  1  0
 22 21  1  0
 23 25  2  0
 23 24  1  0
M  END
$$$$
