NNN.pdb
     RDKit          3D

 25 24  0  0  1  0  0  0  0  0999 V2000
   13.3044  -17.0641   15.4597 N   0  0  0  0  0  0  0  0  0  0  0  0
   13.2910  -15.6868   15.1397 C   0  0  0  0  0  0  0  0  0  0  0  0
   13.8583  -15.3256   14.0657 O   0  0  0  0  0  0  0  0  0  0  0  0
   12.6559  -14.6604   15.9853 C   0  0  0  0  0  0  0  0  0  0  0  0
   12.1478  -15.3659   17.2413 C   0  0  2  0  0  0  0  0  0  0  0  0
   10.8964  -15.9749   16.8894 N   0  0  0  0  0  0  0  0  0  0  0  0
   11.9792  -14.3437   18.3237 C   0  0  0  0  0  0  0  0  0  0  0  0
   12.6071  -14.4173   19.4040 O   0  0  0  0  0  0  0  0  0  0  0  0
    6.9328  -13.0499   19.6228 N   0  0  0  0  0  0  0  0  0  0  0  0
    7.4516  -14.0201   18.6851 C   0  0  0  0  0  0  0  0  0  0  0  0
    6.6956  -14.9540   18.4257 O   0  0  0  0  0  0  0  0  0  0  0  0
    8.7675  -13.8306   18.1422 C   0  0  0  0  0  0  0  0  0  0  0  0
    9.8398  -13.1793   18.9608 C   0  0  2  0  0  0  0  0  0  0  0  0
   11.0949  -13.2536   18.1519 N   0  0  0  0  0  0  0  0  0  0  0  0
   10.1275  -13.7879   20.2570 C   0  0  0  0  0  0  0  0  0  0  0  0
    9.1833  -13.8722   21.1397 O   0  0  0  0  0  0  0  0  0  0  0  0
   11.4874  -16.6911   24.2258 N   0  0  0  0  0  0  0  0  0  0  0  0
   10.2453  -16.5386   23.4854 C   0  0  0  0  0  0  0  0  0  0  0  0
    9.2988  -17.2008   23.9601 O   0  0  0  0  0  0  0  0  0  0  0  0
   10.1949  -15.6646   22.2971 C   0  0  0  0  0  0  0  0  0  0  0  0
   11.4898  -15.0775   21.8818 C   0  0  2  0  0  0  0  0  0  0  0  0
   11.3723  -14.3114   20.6371 N   0  0  0  0  0  0  0  0  0  0  0  0
   12.5480  -16.0630   21.6641 C   0  0  0  0  0  0  0  0  0  0  0  0
   12.4878  -17.0365   20.6530 O   0  0  0  0  0  0  0  0  0  0  0  0
   13.5679  -16.0926   22.3688 O   0  0  0  0  0  0  0  0  0  0  0  0
  1  2  1  0
  2  3  2  0
  4  2  1  0
  5  6  1  6
  5  4  1  0
  7  5  1  0
  8  7  2  0
  9 10  1  0
 10 12  1  0
 11 10  2  0
 13 12  1  6
 13 15  1  0
 13 14  1  0
 14  7  1  0
 15 16  2  0
 17 18  1  0
 18 19  2  0
 21 20  1  6
 20 18  1  0
 21 23  1  0
 22 15  1  0
 22 21  1  0
 23 25  2  0
 23 24  1  0
M  END
$$$$
