ANA.pdb
     RDKit          3D

 19 18  0  0  1  0  0  0  0  0999 V2000
    7.4166  -13.8161   15.9438 C   0  0  0  0  0  0  0  0  0  0  0  0
    8.4226  -13.5309   17.0250 C   0  0  2  0  0  0  0  0  0  0  0  0
    9.7487  -13.8402   16.4796 N   0  0  0  0  0  0  0  0  0  0  0  0
    8.1902  -14.4417   18.1766 C   0  0  0  0  0  0  0  0  0  0  0  0
    7.0701  -14.4336   18.7366 O   0  0  0  0  0  0  0  0  0  0  0  0
    8.0576  -19.3250   18.9569 N   0  0  0  0  0  0  0  0  0  0  0  0
    9.0245  -18.3583   18.5952 C   0  0  0  0  0  0  0  0  0  0  0  0
    9.3269  -18.2279   17.3814 O   0  0  0  0  0  0  0  0  0  0  0  0
    9.6975  -17.4947   19.5612 C   0  0  0  0  0  0  0  0  0  0  0  0
    9.0719  -16.1577   19.7910 C   0  0  2  0  0  0  0  0  0  0  0  0
    9.2112  -15.3220   18.6569 N   0  0  0  0  0  0  0  0  0  0  0  0
    9.5041  -15.5507   21.0663 C   0  0  0  0  0  0  0  0  0  0  0  0
   10.6877  -15.1112   21.0987 O   0  0  0  0  0  0  0  0  0  0  0  0
    7.9981  -14.3241   24.2891 C   0  0  0  0  0  0  0  0  0  0  0  0
    9.1213  -14.8187   23.4513 C   0  0  2  0  0  0  0  0  0  0  0  0
    8.6912  -15.4389   22.2153 N   0  0  0  0  0  0  0  0  0  0  0  0
    9.9860  -15.7311   24.2476 C   0  0  0  0  0  0  0  0  0  0  0  0
   10.0164  -16.9395   23.9194 O   0  0  0  0  0  0  0  0  0  0  0  0
   10.7351  -15.3014   25.3068 O   0  0  0  0  0  0  0  0  0  0  0  0
  2  1  1  6
  2  3  1  0
  2  4  1  0
  4  5  2  0
  7  6  1  0
  7  9  1  0
  8  7  2  0
 10  9  1  6
 11  4  1  0
 11 10  1  0
 12 10  1  0
 12 16  1  0
 13 12  2  0
 15 16  1  0
 15 14  1  1
 17 15  1  0
 17 19  1  0
 18 17  2  0
M  END
$$$$
