ANA.pdb
     RDKit          3D

 19 18  0  0  1  0  0  0  0  0999 V2000
    8.3439  -12.1504   19.3602 C   0  0  0  0  0  0  0  0  0  0  0  0
    8.5927  -13.6149   19.1239 C   0  0  2  0  0  0  0  0  0  0  0  0
    7.7777  -14.0155   17.9720 N   0  0  0  0  0  0  0  0  0  0  0  0
    8.1222  -14.3972   20.2971 C   0  0  0  0  0  0  0  0  0  0  0  0
    6.9174  -14.7339   20.3548 O   0  0  0  0  0  0  0  0  0  0  0  0
    7.6733  -18.5984   21.8324 N   0  0  0  0  0  0  0  0  0  0  0  0
    8.8130  -17.7779   21.6651 C   0  0  0  0  0  0  0  0  0  0  0  0
    9.5011  -17.9017   20.6196 O   0  0  0  0  0  0  0  0  0  0  0  0
    9.2396  -16.7853   22.6472 C   0  0  0  0  0  0  0  0  0  0  0  0
    8.6023  -15.4387   22.5361 C   0  0  2  0  0  0  0  0  0  0  0  0
    9.0095  -14.7719   21.3557 N   0  0  0  0  0  0  0  0  0  0  0  0
    8.7455  -14.6491   23.7761 C   0  0  0  0  0  0  0  0  0  0  0  0
    9.9244  -14.3299   24.0977 O   0  0  0  0  0  0  0  0  0  0  0  0
    6.5628  -12.7860   26.2305 C   0  0  0  0  0  0  0  0  0  0  0  0
    7.8225  -13.4397   25.7901 C   0  0  2  0  0  0  0  0  0  0  0  0
    7.6695  -14.2445   24.5960 N   0  0  0  0  0  0  0  0  0  0  0  0
    8.4038  -14.2292   26.9095 C   0  0  0  0  0  0  0  0  0  0  0  0
    8.4838  -15.4710   26.7671 O   0  0  0  0  0  0  0  0  0  0  0  0
    8.8456  -13.6539   28.0678 O   0  0  0  0  0  0  0  0  0  0  0  0
  2  1  1  1
  2  3  1  0
  2  4  1  0
  4  5  2  0
  7  6  1  0
  7  9  1  0
  8  7  2  0
 10  9  1  1
 11  4  1  0
 11 10  1  0
 12 10  1  0
 12 16  1  0
 13 12  2  0
 15 16  1  0
 15 14  1  1
 17 15  1  0
 17 19  1  0
 18 17  2  0
M  END
$$$$
