ANA.pdb
     RDKit          3D

 19 18  0  0  1  0  0  0  0  0999 V2000
   15.6947  -25.5141   26.8125 C   0  0  0  0  0  0  0  0  0  0  0  0
   15.9263  -25.5735   28.2976 C   0  0  2  0  0  0  0  0  0  0  0  0
   14.8741  -26.4204   28.8696 N   0  0  0  0  0  0  0  0  0  0  0  0
   15.7728  -24.2153   28.8820 C   0  0  0  0  0  0  0  0  0  0  0  0
   16.6095  -23.3320   28.5852 O   0  0  0  0  0  0  0  0  0  0  0  0
   12.3106  -20.4966   31.9004 N   0  0  0  0  0  0  0  0  0  0  0  0
   12.8762  -20.7540   30.6299 C   0  0  0  0  0  0  0  0  0  0  0  0
   13.1681  -19.7814   29.8879 O   0  0  0  0  0  0  0  0  0  0  0  0
   13.1432  -22.0984   30.1268 C   0  0  0  0  0  0  0  0  0  0  0  0
   14.5164  -22.6305   30.3779 C   0  0  2  0  0  0  0  0  0  0  0  0
   14.6974  -23.8963   29.7706 N   0  0  0  0  0  0  0  0  0  0  0  0
   14.8866  -22.5686   31.8065 C   0  0  0  0  0  0  0  0  0  0  0  0
   14.9789  -21.4124   32.3063 O   0  0  0  0  0  0  0  0  0  0  0  0
   15.1156  -24.7812   34.8199 C   0  0  0  0  0  0  0  0  0  0  0  0
   15.5518  -23.6190   34.0030 C   0  0  2  0  0  0  0  0  0  0  0  0
   15.1355  -23.6968   32.6182 N   0  0  0  0  0  0  0  0  0  0  0  0
   17.0241  -23.4387   34.1209 C   0  0  0  0  0  0  0  0  0  0  0  0
   17.7391  -23.8497   33.1782 O   0  0  0  0  0  0  0  0  0  0  0  0
   17.6117  -22.8497   35.2051 O   0  0  0  0  0  0  0  0  0  0  0  0
  2  1  1  6
  2  3  1  0
  2  4  1  0
  4  5  2  0
  7  6  1  0
  7  9  1  0
  8  7  2  0
 10  9  1  1
 11  4  1  0
 11 10  1  0
 12 10  1  0
 12 16  1  0
 13 12  2  0
 15 16  1  0
 15 14  1  1
 17 15  1  0
 17 19  1  0
 18 17  2  0
M  END
$$$$
