ANA.pdb
     RDKit          3D

 19 18  0  0  1  0  0  0  0  0999 V2000
    8.5166  -12.8543   17.1488 C   0  0  0  0  0  0  0  0  0  0  0  0
    8.6535  -14.3137   16.8113 C   0  0  2  0  0  0  0  0  0  0  0  0
    7.6622  -14.6162   15.7733 N   0  0  0  0  0  0  0  0  0  0  0  0
    8.3168  -15.1359   18.0031 C   0  0  0  0  0  0  0  0  0  0  0  0
    7.1136  -15.3850   18.2447 O   0  0  0  0  0  0  0  0  0  0  0  0
    9.9388  -18.9189   17.6857 N   0  0  0  0  0  0  0  0  0  0  0  0
    9.2141  -18.6417   18.8682 C   0  0  0  0  0  0  0  0  0  0  0  0
    8.0822  -19.1677   19.0230 O   0  0  0  0  0  0  0  0  0  0  0  0
    9.7113  -17.7714   19.9298 C   0  0  0  0  0  0  0  0  0  0  0  0
    9.0694  -16.4259   20.0274 C   0  0  2  0  0  0  0  0  0  0  0  0
    9.3304  -15.6459   18.8752 N   0  0  0  0  0  0  0  0  0  0  0  0
    9.3666  -15.7570   21.3104 C   0  0  0  0  0  0  0  0  0  0  0  0
   10.5465  -15.3297   21.4531 O   0  0  0  0  0  0  0  0  0  0  0  0
    7.4890  -14.2972   24.2242 C   0  0  0  0  0  0  0  0  0  0  0  0
    8.7088  -14.8307   23.5642 C   0  0  2  0  0  0  0  0  0  0  0  0
    8.4324  -15.5754   22.3533 N   0  0  0  0  0  0  0  0  0  0  0  0
    9.4991  -15.6378   24.5328 C   0  0  0  0  0  0  0  0  0  0  0  0
    9.5132  -16.8810   24.3810 O   0  0  0  0  0  0  0  0  0  0  0  0
   10.1979  -15.0770   25.5647 O   0  0  0  0  0  0  0  0  0  0  0  0
  2  1  1  1
  2  3  1  0
  2  4  1  0
  4  5  2  0
  7  6  1  0
  7  9  1  0
  8  7  2  0
 10  9  1  6
 11  4  1  0
 11 10  1  0
 12 10  1  0
 12 16  1  0
 13 12  2  0
 15 16  1  0
 15 14  1  1
 17 15  1  0
 17 19  1  0
 18 17  2  0
M  END
$$$$
