ANA.pdb
     RDKit          3D

 19 18  0  0  1  0  0  0  0  0999 V2000
    7.7288  -17.8599   12.9191 C   0  0  0  0  0  0  0  0  0  0  0  0
    8.6269  -17.0381   13.8026 C   0  0  2  0  0  0  0  0  0  0  0  0
    9.7363  -17.9018   14.2208 N   0  0  0  0  0  0  0  0  0  0  0  0
    7.8890  -16.6346   15.0283 C   0  0  0  0  0  0  0  0  0  0  0  0
    6.9138  -15.8568   14.9176 O   0  0  0  0  0  0  0  0  0  0  0  0
    7.0970  -20.2757   17.5894 N   0  0  0  0  0  0  0  0  0  0  0  0
    6.5911  -18.9845   17.8674 C   0  0  0  0  0  0  0  0  0  0  0  0
    5.3801  -18.7434   17.6285 O   0  0  0  0  0  0  0  0  0  0  0  0
    7.4036  -17.9056   18.4220 C   0  0  0  0  0  0  0  0  0  0  0  0
    7.6278  -16.7295   17.5285 C   0  0  2  0  0  0  0  0  0  0  0  0
    8.2654  -17.1120   16.3239 N   0  0  0  0  0  0  0  0  0  0  0  0
    8.2665  -15.6026   18.2384 C   0  0  0  0  0  0  0  0  0  0  0  0
    9.5290  -15.6116   18.2713 O   0  0  0  0  0  0  0  0  0  0  0  0
    7.2736  -12.4589   20.1163 C   0  0  0  0  0  0  0  0  0  0  0  0
    8.1825  -13.5701   19.7325 C   0  0  2  0  0  0  0  0  0  0  0  0
    7.5640  -14.5490   18.8628 N   0  0  0  0  0  0  0  0  0  0  0  0
    8.7514  -14.2056   20.9518 C   0  0  0  0  0  0  0  0  0  0  0  0
    8.3450  -15.3507   21.2561 O   0  0  0  0  0  0  0  0  0  0  0  0
    9.6865  -13.5917   21.7370 O   0  0  0  0  0  0  0  0  0  0  0  0
  2  1  1  6
  2  3  1  0
  2  4  1  0
  4  5  2  0
  7  6  1  0
  7  9  1  0
  8  7  2  0
 10  9  1  1
 11  4  1  0
 11 10  1  0
 12 10  1  0
 12 16  1  0
 13 12  2  0
 15 16  1  0
 15 14  1  1
 17 15  1  0
 17 19  1  0
 18 17  2  0
M  END
$$$$
