ANA.pdb
     RDKit          3D

 19 18  0  0  1  0  0  0  0  0999 V2000
    9.2672  -20.0441   17.6280 C   0  0  0  0  0  0  0  0  0  0  0  0
    9.2716  -19.1756   18.8562 C   0  0  2  0  0  0  0  0  0  0  0  0
    7.9244  -19.2303   19.4338 N   0  0  0  0  0  0  0  0  0  0  0  0
    9.5344  -17.7646   18.4694 C   0  0  0  0  0  0  0  0  0  0  0  0
   10.6679  -17.4589   18.0335 O   0  0  0  0  0  0  0  0  0  0  0  0
    9.0442  -12.6050   17.5616 N   0  0  0  0  0  0  0  0  0  0  0  0
    8.2069  -13.4760   16.8263 C   0  0  0  0  0  0  0  0  0  0  0  0
    7.6095  -13.0308   15.8130 O   0  0  0  0  0  0  0  0  0  0  0  0
    7.9956  -14.8765   17.1806 C   0  0  0  0  0  0  0  0  0  0  0  0
    8.7577  -15.3742   18.3652 C   0  0  2  0  0  0  0  0  0  0  0  0
    8.5277  -16.7539   18.5832 N   0  0  0  0  0  0  0  0  0  0  0  0
    8.5657  -14.5174   19.5529 C   0  0  0  0  0  0  0  0  0  0  0  0
    8.9255  -13.3128   19.4323 O   0  0  0  0  0  0  0  0  0  0  0  0
    7.0716  -14.1789   22.9035 C   0  0  0  0  0  0  0  0  0  0  0  0
    8.2817  -14.3257   22.0536 C   0  0  2  0  0  0  0  0  0  0  0  0
    8.0189  -14.9584   20.7777 N   0  0  0  0  0  0  0  0  0  0  0  0
    9.3485  -15.0387   22.8069 C   0  0  0  0  0  0  0  0  0  0  0  0
    9.7196  -14.5476   23.8977 O   0  0  0  0  0  0  0  0  0  0  0  0
    9.9268  -16.1918   22.3555 O   0  0  0  0  0  0  0  0  0  0  0  0
  2  1  1  6
  2  3  1  0
  2  4  1  0
  4  5  2  0
  7  6  1  0
  7  9  1  0
  8  7  2  0
 10  9  1  6
 11  4  1  0
 11 10  1  0
 12 10  1  0
 12 16  1  0
 13 12  2  0
 15 16  1  0
 15 14  1  1
 17 15  1  0
 17 19  1  0
 18 17  2  0
M  END
$$$$
