ANA.pdb
     RDKit          3D

 19 18  0  0  1  0  0  0  0  0999 V2000
    7.3963  -12.7540   19.9311 C   0  0  0  0  0  0  0  0  0  0  0  0
    8.5783  -13.3476   20.6474 C   0  0  2  0  0  0  0  0  0  0  0  0
    9.0154  -14.5152   19.8744 N   0  0  0  0  0  0  0  0  0  0  0  0
    8.1582  -13.8321   21.9885 C   0  0  0  0  0  0  0  0  0  0  0  0
    7.6600  -13.0157   22.7969 O   0  0  0  0  0  0  0  0  0  0  0  0
    6.1833  -18.5164   25.0905 N   0  0  0  0  0  0  0  0  0  0  0  0
    7.3983  -17.8279   24.8665 C   0  0  0  0  0  0  0  0  0  0  0  0
    8.2360  -17.7565   25.8019 O   0  0  0  0  0  0  0  0  0  0  0  0
    7.7379  -17.1895   23.5982 C   0  0  0  0  0  0  0  0  0  0  0  0
    7.9593  -15.7129   23.6472 C   0  0  2  0  0  0  0  0  0  0  0  0
    8.3095  -15.2019   22.3743 N   0  0  0  0  0  0  0  0  0  0  0  0
    8.8665  -15.3204   24.7448 C   0  0  0  0  0  0  0  0  0  0  0  0
   10.1025  -15.4258   24.5077 O   0  0  0  0  0  0  0  0  0  0  0  0
    8.7714  -13.2715   27.8566 C   0  0  0  0  0  0  0  0  0  0  0  0
    9.3394  -14.3722   27.0356 C   0  0  2  0  0  0  0  0  0  0  0  0
    8.4401  -14.8487   26.0054 N   0  0  0  0  0  0  0  0  0  0  0  0
    9.7954  -15.4808   27.9173 C   0  0  0  0  0  0  0  0  0  0  0  0
    9.3094  -16.6186   27.7219 O   0  0  0  0  0  0  0  0  0  0  0  0
   10.7109  -15.3015   28.9160 O   0  0  0  0  0  0  0  0  0  0  0  0
  2  1  1  6
  2  3  1  0
  2  4  1  0
  4  5  2  0
  7  6  1  0
  7  9  1  0
  8  7  2  0
 10  9  1  6
 11  4  1  0
 11 10  1  0
 12 10  1  0
 12 16  1  0
 13 12  2  0
 15 16  1  0
 15 14  1  1
 17 15  1  0
 17 19  1  0
 18 17  2  0
M  END
$$$$
