YGC.pdb
     RDKit          3D

 23 23  0  0  1  0  0  0  0  0999 V2000
   11.2369  -14.7036   30.6737 O   0  0  0  0  0  0  0  0  0  0  0  0
   10.3976  -14.8763   29.5690 C   0  0  0  0  0  0  0  0  0  0  0  0
    9.7869  -16.1019   29.3594 C   0  0  0  0  0  0  0  0  0  0  0  0
    8.9599  -16.2865   28.2786 C   0  0  0  0  0  0  0  0  0  0  0  0
    8.6948  -15.2905   27.3620 C   0  0  0  0  0  0  0  0  0  0  0  0
    7.8114  -15.4704   26.1979 C   0  0  0  0  0  0  0  0  0  0  0  0
    7.4998  -16.9263   26.0229 C   0  0  2  0  0  0  0  0  0  0  0  0
    8.7176  -17.6831   26.0710 N   0  0  0  0  0  0  0  0  0  0  0  0
    6.7145  -17.1841   24.7916 C   0  0  0  0  0  0  0  0  0  0  0  0
    5.7431  -16.4264   24.5462 O   0  0  0  0  0  0  0  0  0  0  0  0
    9.3099  -14.0583   27.5741 C   0  0  0  0  0  0  0  0  0  0  0  0
   10.1408  -13.8761   28.6618 C   0  0  0  0  0  0  0  0  0  0  0  0
    6.9985  -18.2294   23.8859 N   0  0  0  0  0  0  0  0  0  0  0  0
    6.4490  -18.3827   22.5812 C   0  0  0  0  0  0  0  0  0  0  0  0
    6.8825  -17.4132   21.5710 C   0  0  0  0  0  0  0  0  0  0  0  0
    6.3474  -17.4663   20.4070 O   0  0  0  0  0  0  0  0  0  0  0  0
    7.8556  -16.4078   21.7640 N   0  0  0  0  0  0  0  0  0  0  0  0
    8.4110  -15.5659   20.7218 C   0  0  1  0  0  0  0  0  0  0  0  0
    8.2957  -14.1356   21.1733 C   0  0  0  0  0  0  0  0  0  0  0  0
    6.6784  -13.7879   21.9131 S   0  0  0  0  0  0  0  0  0  0  0  0
    9.8589  -15.8580   20.4784 C   0  0  0  0  0  0  0  0  0  0  0  0
   10.6010  -15.2683   19.4714 O   0  0  0  0  0  0  0  0  0  0  0  0
   10.4871  -16.6800   21.2050 O   0  0  0  0  0  0  0  0  0  0  0  0
  2  1  1  0
  2  3  2  0
  4  3  1  0
  5  4  2  0
  6  5  1  0
  7  6  1  0
  7  9  1  0
  7  8  1  6
  9 10  2  0
  9 13  1  0
 11 12  2  0
 11  5  1  0
 12  2  1  0
 13 14  1  0
 14 15  1  0
 15 17  1  0
 16 15  2  0
 17 18  1  0
 18 21  1  0
 18 19  1  1
 19 20  1  0
 21 22  1  0
 23 21  2  0
M  END
$$$$
