YGC.pdb
     RDKit          3D

 23 23  0  0  1  0  0  0  0  0999 V2000
    5.5919  -10.8760   28.1999 O   0  0  0  0  0  0  0  0  0  0  0  0
    6.1937  -11.8197   27.3621 C   0  0  0  0  0  0  0  0  0  0  0  0
    5.5493  -12.2119   26.2003 C   0  0  0  0  0  0  0  0  0  0  0  0
    6.1281  -13.1380   25.3674 C   0  0  0  0  0  0  0  0  0  0  0  0
    7.3520  -13.7174   25.6303 C   0  0  0  0  0  0  0  0  0  0  0  0
    7.9874  -14.7113   24.7494 C   0  0  0  0  0  0  0  0  0  0  0  0
    6.9841  -15.7563   24.3636 C   0  0  2  0  0  0  0  0  0  0  0  0
    6.8695  -16.7197   25.4204 N   0  0  0  0  0  0  0  0  0  0  0  0
    7.3017  -16.3779   23.0552 C   0  0  0  0  0  0  0  0  0  0  0  0
    7.5838  -17.6019   23.0406 O   0  0  0  0  0  0  0  0  0  0  0  0
    7.9989  -13.3218   26.7993 C   0  0  0  0  0  0  0  0  0  0  0  0
    7.4141  -12.3905   27.6343 C   0  0  0  0  0  0  0  0  0  0  0  0
    7.3038  -15.6719   21.8325 N   0  0  0  0  0  0  0  0  0  0  0  0
    7.6456  -16.2034   20.5563 C   0  0  0  0  0  0  0  0  0  0  0  0
    9.0335  -16.6404   20.3804 C   0  0  0  0  0  0  0  0  0  0  0  0
    9.4129  -17.0067   19.2117 O   0  0  0  0  0  0  0  0  0  0  0  0
   10.0100  -16.6987   21.3992 N   0  0  0  0  0  0  0  0  0  0  0  0
   11.3727  -17.1656   21.2301 C   0  0  1  0  0  0  0  0  0  0  0  0
   12.2774  -16.2343   21.9898 C   0  0  0  0  0  0  0  0  0  0  0  0
   11.8795  -16.1966   23.7573 S   0  0  0  0  0  0  0  0  0  0  0  0
   11.5640  -18.5451   21.7791 C   0  0  0  0  0  0  0  0  0  0  0  0
   12.7235  -19.2810   21.6161 O   0  0  0  0  0  0  0  0  0  0  0  0
   10.6475  -19.1155   22.4372 O   0  0  0  0  0  0  0  0  0  0  0  0
  2  1  1  0
  2  3  2  0
  4  3  1  0
  5  4  2  0
  6  5  1  0
  7  6  1  0
  7  9  1  0
  7  8  1  1
  9 10  2  0
  9 13  1  0
 11 12  2  0
 11  5  1  0
 12  2  1  0
 13 14  1  0
 14 15  1  0
 15 17  1  0
 16 15  2  0
 17 18  1  0
 18 21  1  0
 18 19  1  1
 19 20  1  0
 21 22  1  0
 23 21  2  0
M  END
$$$$
