YGC.pdb
     RDKit          3D

 23 23  0  0  1  0  0  0  0  0999 V2000
   11.0897  -14.3208   31.1828 O   0  0  0  0  0  0  0  0  0  0  0  0
   10.7100  -14.8817   29.9597 C   0  0  0  0  0  0  0  0  0  0  0  0
   11.4591  -15.9139   29.4191 C   0  0  0  0  0  0  0  0  0  0  0  0
   11.0984  -16.4748   28.2185 C   0  0  0  0  0  0  0  0  0  0  0  0
    9.9991  -16.0558   27.4984 C   0  0  0  0  0  0  0  0  0  0  0  0
    9.5976  -16.6451   26.2103 C   0  0  0  0  0  0  0  0  0  0  0  0
    8.6976  -17.8193   26.4527 C   0  0  2  0  0  0  0  0  0  0  0  0
    9.4560  -18.8884   27.0358 N   0  0  0  0  0  0  0  0  0  0  0  0
    7.9776  -18.2328   25.2240 C   0  0  0  0  0  0  0  0  0  0  0  0
    8.6478  -18.7581   24.3004 O   0  0  0  0  0  0  0  0  0  0  0  0
    9.2466  -15.0174   28.0435 C   0  0  0  0  0  0  0  0  0  0  0  0
    9.6121  -14.4558   29.2508 C   0  0  0  0  0  0  0  0  0  0  0  0
    6.5877  -18.0687   25.0378 N   0  0  0  0  0  0  0  0  0  0  0  0
    5.9264  -17.8532   23.7951 C   0  0  0  0  0  0  0  0  0  0  0  0
    6.1495  -16.5551   23.1522 C   0  0  0  0  0  0  0  0  0  0  0  0
    5.5828  -16.3289   22.0245 O   0  0  0  0  0  0  0  0  0  0  0  0
    6.9481  -15.5109   23.6687 N   0  0  0  0  0  0  0  0  0  0  0  0
    7.2245  -14.2551   22.9979 C   0  0  1  0  0  0  0  0  0  0  0  0
    7.3623  -13.1897   24.0510 C   0  0  0  0  0  0  0  0  0  0  0  0
    6.1463  -13.3903   25.3795 S   0  0  0  0  0  0  0  0  0  0  0  0
    8.5033  -14.3048   22.2213 C   0  0  0  0  0  0  0  0  0  0  0  0
    8.9408  -13.2828   21.3987 O   0  0  0  0  0  0  0  0  0  0  0  0
    9.2641  -15.3125   22.2859 O   0  0  0  0  0  0  0  0  0  0  0  0
  2  1  1  0
  2  3  2  0
  4  3  1  0
  5  4  2  0
  6  5  1  0
  7  6  1  0
  7  9  1  0
  7  8  1  6
  9 10  2  0
  9 13  1  0
 11 12  2  0
 11  5  1  0
 12  2  1  0
 13 14  1  0
 14 15  1  0
 15 17  1  0
 16 15  2  0
 17 18  1  0
 18 21  1  0
 18 19  1  1
 19 20  1  0
 21 22  1  0
 23 21  2  0
M  END
$$$$
