YGC.pdb
     RDKit          3D

 23 23  0  0  1  0  0  0  0  0999 V2000
    8.4063  -22.2632   29.3239 O   0  0  0  0  0  0  0  0  0  0  0  0
    8.1606  -21.1385   28.5306 C   0  0  0  0  0  0  0  0  0  0  0  0
    7.0488  -21.1142   27.7047 C   0  0  0  0  0  0  0  0  0  0  0  0
    6.7944  -20.0162   26.9197 C   0  0  0  0  0  0  0  0  0  0  0  0
    7.6081  -18.9025   26.9068 C   0  0  0  0  0  0  0  0  0  0  0  0
    7.3511  -17.7171   26.0721 C   0  0  0  0  0  0  0  0  0  0  0  0
    7.3592  -18.1091   24.6252 C   0  0  2  0  0  0  0  0  0  0  0  0
    8.2759  -19.1954   24.4311 N   0  0  0  0  0  0  0  0  0  0  0  0
    7.6428  -16.9559   23.7369 C   0  0  0  0  0  0  0  0  0  0  0  0
    8.8428  -16.7145   23.4545 O   0  0  0  0  0  0  0  0  0  0  0  0
    8.7260  -18.9285   27.7381 C   0  0  0  0  0  0  0  0  0  0  0  0
    8.9787  -20.0339   28.5260 C   0  0  0  0  0  0  0  0  0  0  0  0
    6.6423  -16.1201   23.1948 N   0  0  0  0  0  0  0  0  0  0  0  0
    6.8396  -14.8206   22.6468 C   0  0  0  0  0  0  0  0  0  0  0  0
    7.2823  -13.7787   23.5778 C   0  0  0  0  0  0  0  0  0  0  0  0
    7.9164  -12.7694   23.1052 O   0  0  0  0  0  0  0  0  0  0  0  0
    7.0730  -13.7846   24.9745 N   0  0  0  0  0  0  0  0  0  0  0  0
    7.7146  -12.8948   25.9233 C   0  0  1  0  0  0  0  0  0  0  0  0
    6.6691  -12.4297   26.8999 C   0  0  0  0  0  0  0  0  0  0  0  0
    5.0894  -12.0795   26.0842 S   0  0  0  0  0  0  0  0  0  0  0  0
    8.7944  -13.5854   26.6967 C   0  0  0  0  0  0  0  0  0  0  0  0
    9.6479  -12.9353   27.5692 O   0  0  0  0  0  0  0  0  0  0  0  0
    8.9787  -14.8311   26.5848 O   0  0  0  0  0  0  0  0  0  0  0  0
  2  1  1  0
  2  3  2  0
  4  3  1  0
  5  4  2  0
  6  5  1  0
  7  6  1  0
  7  9  1  0
  7  8  1  1
  9 10  2  0
  9 13  1  0
 11 12  2  0
 11  5  1  0
 12  2  1  0
 13 14  1  0
 14 15  1  0
 15 17  1  0
 16 15  2  0
 17 18  1  0
 18 21  1  0
 18 19  1  1
 19 20  1  0
 21 22  1  0
 23 21  2  0
M  END
$$$$
