YGC.pdb
     RDKit          3D

 23 23  0  0  1  0  0  0  0  0999 V2000
   11.6716  -14.8773   30.4749 O   0  0  0  0  0  0  0  0  0  0  0  0
   10.7036  -15.0374   29.4788 C   0  0  0  0  0  0  0  0  0  0  0  0
   10.0040  -16.2296   29.3908 C   0  0  0  0  0  0  0  0  0  0  0  0
    9.0501  -16.4014   28.4176 C   0  0  0  0  0  0  0  0  0  0  0  0
    8.7400  -15.4243   27.4948 C   0  0  0  0  0  0  0  0  0  0  0  0
    7.7211  -15.5908   26.4451 C   0  0  0  0  0  0  0  0  0  0  0  0
    7.6608  -17.0289   26.0259 C   0  0  2  0  0  0  0  0  0  0  0  0
    8.9708  -17.4676   25.6391 N   0  0  0  0  0  0  0  0  0  0  0  0
    6.6455  -17.2595   24.9698 C   0  0  0  0  0  0  0  0  0  0  0  0
    5.5326  -16.6900   25.0919 O   0  0  0  0  0  0  0  0  0  0  0  0
    9.4447  -14.2256   27.5846 C   0  0  0  0  0  0  0  0  0  0  0  0
   10.4029  -14.0562   28.5643 C   0  0  0  0  0  0  0  0  0  0  0  0
    6.8617  -18.0800   23.8413 N   0  0  0  0  0  0  0  0  0  0  0  0
    6.1449  -18.0235   22.6121 C   0  0  0  0  0  0  0  0  0  0  0  0
    6.5318  -16.9625   21.6778 C   0  0  0  0  0  0  0  0  0  0  0  0
    5.8793  -16.8504   20.5798 O   0  0  0  0  0  0  0  0  0  0  0  0
    7.5786  -16.0356   21.8778 N   0  0  0  0  0  0  0  0  0  0  0  0
    8.0735  -15.1011   20.8852 C   0  0  1  0  0  0  0  0  0  0  0  0
    8.1909  -13.7516   21.5396 C   0  0  0  0  0  0  0  0  0  0  0  0
    6.8486  -13.4528   22.7197 S   0  0  0  0  0  0  0  0  0  0  0  0
    9.4278  -15.4879   20.3782 C   0  0  0  0  0  0  0  0  0  0  0  0
   10.0628  -14.8527   19.3266 O   0  0  0  0  0  0  0  0  0  0  0  0
   10.0716  -16.4396   20.9054 O   0  0  0  0  0  0  0  0  0  0  0  0
  2  1  1  0
  2  3  2  0
  4  3  1  0
  5  4  2  0
  6  5  1  0
  7  6  1  0
  7  9  1  0
  7  8  1  6
  9 10  2  0
  9 13  1  0
 11 12  2  0
 11  5  1  0
 12  2  1  0
 13 14  1  0
 14 15  1  0
 15 17  1  0
 16 15  2  0
 17 18  1  0
 18 21  1  0
 18 19  1  1
 19 20  1  0
 21 22  1  0
 23 21  2  0
M  END
$$$$
