YGC.pdb
     RDKit          3D

 23 23  0  0  1  0  0  0  0  0999 V2000
    5.2971  -10.6722   27.5528 O   0  0  0  0  0  0  0  0  0  0  0  0
    6.0832  -11.6855   26.9962 C   0  0  0  0  0  0  0  0  0  0  0  0
    6.0677  -11.8881   25.6260 C   0  0  0  0  0  0  0  0  0  0  0  0
    6.8346  -12.8797   25.0648 C   0  0  0  0  0  0  0  0  0  0  0  0
    7.6441  -13.7106   25.8110 C   0  0  0  0  0  0  0  0  0  0  0  0
    8.4727  -14.7783   25.2268 C   0  0  0  0  0  0  0  0  0  0  0  0
    7.5899  -15.8068   24.5863 C   0  0  2  0  0  0  0  0  0  0  0  0
    7.1549  -16.7462   25.5796 N   0  0  0  0  0  0  0  0  0  0  0  0
    8.2460  -16.4615   23.4286 C   0  0  0  0  0  0  0  0  0  0  0  0
    8.6464  -17.6434   23.5727 O   0  0  0  0  0  0  0  0  0  0  0  0
    7.6587  -13.5056   27.1892 C   0  0  0  0  0  0  0  0  0  0  0  0
    6.8864  -12.5078   27.7500 C   0  0  0  0  0  0  0  0  0  0  0  0
    8.4434  -15.8312   22.1807 N   0  0  0  0  0  0  0  0  0  0  0  0
    9.1286  -16.3823   21.0605 C   0  0  0  0  0  0  0  0  0  0  0  0
   10.5328  -16.7476   21.2679 C   0  0  0  0  0  0  0  0  0  0  0  0
   11.3246  -16.7186   20.2599 O   0  0  0  0  0  0  0  0  0  0  0  0
   11.1050  -17.1384   22.4986 N   0  0  0  0  0  0  0  0  0  0  0  0
   12.5264  -17.2344   22.7706 C   0  0  1  0  0  0  0  0  0  0  0  0
   13.0852  -15.8381   22.8051 C   0  0  0  0  0  0  0  0  0  0  0  0
   14.8268  -15.8184   23.3053 S   0  0  0  0  0  0  0  0  0  0  0  0
   12.8008  -17.8744   24.0957 C   0  0  0  0  0  0  0  0  0  0  0  0
   14.0147  -18.4433   24.4355 O   0  0  0  0  0  0  0  0  0  0  0  0
   11.9093  -17.9236   24.9908 O   0  0  0  0  0  0  0  0  0  0  0  0
  2  1  1  0
  2  3  2  0
  4  3  1  0
  5  4  2  0
  6  5  1  0
  7  6  1  0
  7  9  1  0
  7  8  1  1
  9 10  2  0
  9 13  1  0
 11 12  2  0
 11  5  1  0
 12  2  1  0
 13 14  1  0
 14 15  1  0
 15 17  1  0
 16 15  2  0
 17 18  1  0
 18 21  1  0
 18 19  1  1
 19 20  1  0
 21 22  1  0
 23 21  2  0
M  END
$$$$
