YGC.pdb
     RDKit          3D

 23 23  0  0  1  0  0  0  0  0999 V2000
    4.8257  -26.0959   25.1958 O   0  0  0  0  0  0  0  0  0  0  0  0
    4.7158  -24.8049   24.6707 C   0  0  0  0  0  0  0  0  0  0  0  0
    4.7111  -23.7165   25.5276 C   0  0  0  0  0  0  0  0  0  0  0  0
    4.6038  -22.4423   25.0264 C   0  0  0  0  0  0  0  0  0  0  0  0
    4.4972  -22.1768   23.6771 C   0  0  0  0  0  0  0  0  0  0  0  0
    4.3814  -20.8180   23.1221 C   0  0  0  0  0  0  0  0  0  0  0  0
    5.7243  -20.3530   22.6451 C   0  0  2  0  0  0  0  0  0  0  0  0
    6.6417  -20.3356   23.7479 N   0  0  0  0  0  0  0  0  0  0  0  0
    5.6462  -19.0477   21.9457 C   0  0  0  0  0  0  0  0  0  0  0  0
    5.0218  -19.0024   20.8566 O   0  0  0  0  0  0  0  0  0  0  0  0
    4.5021  -23.2726   22.8164 C   0  0  0  0  0  0  0  0  0  0  0  0
    4.6101  -24.5523   23.3237 C   0  0  0  0  0  0  0  0  0  0  0  0
    6.2325  -17.8603   22.4354 N   0  0  0  0  0  0  0  0  0  0  0  0
    6.2128  -16.5880   21.7958 C   0  0  0  0  0  0  0  0  0  0  0  0
    6.8755  -15.4896   22.5047 C   0  0  0  0  0  0  0  0  0  0  0  0
    6.9401  -14.3453   21.9297 O   0  0  0  0  0  0  0  0  0  0  0  0
    7.4629  -15.5770   23.7861 N   0  0  0  0  0  0  0  0  0  0  0  0
    8.4647  -14.6708   24.3140 C   0  0  1  0  0  0  0  0  0  0  0  0
    7.8895  -14.0077   25.5357 C   0  0  0  0  0  0  0  0  0  0  0  0
    6.1648  -13.5106   25.2871 S   0  0  0  0  0  0  0  0  0  0  0  0
    9.7113  -15.3914   24.7234 C   0  0  0  0  0  0  0  0  0  0  0  0
   10.8882  -14.7521   25.0679 O   0  0  0  0  0  0  0  0  0  0  0  0
    9.7446  -16.6541   24.7757 O   0  0  0  0  0  0  0  0  0  0  0  0
  2  1  1  0
  2  3  2  0
  4  3  1  0
  5  4  2  0
  6  5  1  0
  7  6  1  0
  7  9  1  0
  7  8  1  1
  9 10  2  0
  9 13  1  0
 11 12  2  0
 11  5  1  0
 12  2  1  0
 13 14  1  0
 14 15  1  0
 15 17  1  0
 16 15  2  0
 17 18  1  0
 18 21  1  0
 18 19  1  1
 19 20  1  0
 21 22  1  0
 23 21  2  0
M  END
$$$$
