YGC.pdb
     RDKit          3D

 23 23  0  0  1  0  0  0  0  0999 V2000
   10.8575  -14.5473   30.4391 O   0  0  0  0  0  0  0  0  0  0  0  0
   10.2822  -14.7255   29.1773 C   0  0  0  0  0  0  0  0  0  0  0  0
    9.2273  -13.9172   28.7867 C   0  0  0  0  0  0  0  0  0  0  0  0
    8.6521  -14.0804   27.5503 C   0  0  0  0  0  0  0  0  0  0  0  0
    9.0782  -15.0327   26.6479 C   0  0  0  0  0  0  0  0  0  0  0  0
    8.4737  -15.2219   25.3188 C   0  0  0  0  0  0  0  0  0  0  0  0
    7.4179  -16.2836   25.3927 C   0  0  2  0  0  0  0  0  0  0  0  0
    8.0158  -17.5225   25.7999 N   0  0  0  0  0  0  0  0  0  0  0  0
    6.6593  -16.4045   24.1241 C   0  0  0  0  0  0  0  0  0  0  0  0
    5.9861  -15.4134   23.7467 O   0  0  0  0  0  0  0  0  0  0  0  0
   10.1394  -15.8450   27.0423 C   0  0  0  0  0  0  0  0  0  0  0  0
   10.7154  -15.6781   28.2861 C   0  0  0  0  0  0  0  0  0  0  0  0
    6.6533  -17.5670   23.3228 N   0  0  0  0  0  0  0  0  0  0  0  0
    6.1898  -17.6587   21.9794 C   0  0  0  0  0  0  0  0  0  0  0  0
    7.1202  -17.2200   20.9353 C   0  0  0  0  0  0  0  0  0  0  0  0
    7.5956  -18.1011   20.1343 O   0  0  0  0  0  0  0  0  0  0  0  0
    7.5517  -15.8914   20.7273 N   0  0  0  0  0  0  0  0  0  0  0  0
    8.5760  -15.4789   19.7870 C   0  0  1  0  0  0  0  0  0  0  0  0
    8.2954  -14.0542   19.3941 C   0  0  0  0  0  0  0  0  0  0  0  0
    7.4454  -13.1441   20.7106 S   0  0  0  0  0  0  0  0  0  0  0  0
    9.9444  -15.5302   20.3917 C   0  0  0  0  0  0  0  0  0  0  0  0
   11.1105  -15.3809   19.6632 O   0  0  0  0  0  0  0  0  0  0  0  0
   10.1001  -15.7161   21.6325 O   0  0  0  0  0  0  0  0  0  0  0  0
  2  1  1  0
  2  3  2  0
  4  3  1  0
  5  4  2  0
  6  5  1  0
  7  6  1  0
  7  9  1  0
  7  8  1  6
  9 10  2  0
  9 13  1  0
 11 12  2  0
 11  5  1  0
 12  2  1  0
 13 14  1  0
 14 15  1  0
 15 17  1  0
 16 15  2  0
 17 18  1  0
 18 21  1  0
 18 19  1  1
 19 20  1  0
 21 22  1  0
 23 21  2  0
M  END
$$$$
