YGC.pdb
     RDKit          3D

 23 23  0  0  1  0  0  0  0  0999 V2000
    6.5356  -10.9910   27.6566 O   0  0  0  0  0  0  0  0  0  0  0  0
    6.6693  -11.9166   26.6173 C   0  0  0  0  0  0  0  0  0  0  0  0
    7.5510  -11.6580   25.5808 C   0  0  0  0  0  0  0  0  0  0  0  0
    7.6930  -12.5579   24.5529 C   0  0  0  0  0  0  0  0  0  0  0  0
    6.9858  -13.7406   24.4925 C   0  0  0  0  0  0  0  0  0  0  0  0
    7.1251  -14.7166   23.3990 C   0  0  0  0  0  0  0  0  0  0  0  0
    8.3154  -15.5915   23.6538 C   0  0  2  0  0  0  0  0  0  0  0  0
    9.5100  -14.7992   23.5959 N   0  0  0  0  0  0  0  0  0  0  0  0
    8.3572  -16.7567   22.7375 C   0  0  0  0  0  0  0  0  0  0  0  0
    7.4631  -17.6307   22.8591 O   0  0  0  0  0  0  0  0  0  0  0  0
    6.0993  -13.9993   25.5359 C   0  0  0  0  0  0  0  0  0  0  0  0
    5.9590  -13.0924   26.5676 C   0  0  0  0  0  0  0  0  0  0  0  0
    9.3421  -16.9353   21.7418 N   0  0  0  0  0  0  0  0  0  0  0  0
    9.9492  -18.1695   21.3727 C   0  0  0  0  0  0  0  0  0  0  0  0
   11.0777  -18.6147   22.1952 C   0  0  0  0  0  0  0  0  0  0  0  0
   11.7596  -19.6251   21.7975 O   0  0  0  0  0  0  0  0  0  0  0  0
   11.4902  -18.0240   23.4100 N   0  0  0  0  0  0  0  0  0  0  0  0
   12.6241  -18.4494   24.2080 C   0  0  1  0  0  0  0  0  0  0  0  0
   13.5878  -17.2974   24.2919 C   0  0  0  0  0  0  0  0  0  0  0  0
   13.7842  -16.4618   22.6960 S   0  0  0  0  0  0  0  0  0  0  0  0
   12.2212  -18.8170   25.6020 C   0  0  0  0  0  0  0  0  0  0  0  0
   13.1078  -19.2698   26.5620 O   0  0  0  0  0  0  0  0  0  0  0  0
   11.0169  -18.7257   25.9759 O   0  0  0  0  0  0  0  0  0  0  0  0
  2  1  1  0
  2  3  2  0
  4  3  1  0
  5  4  2  0
  6  5  1  0
  7  6  1  0
  7  9  1  0
  7  8  1  6
  9 10  2  0
  9 13  1  0
 11 12  2  0
 11  5  1  0
 12  2  1  0
 13 14  1  0
 14 15  1  0
 15 17  1  0
 16 15  2  0
 17 18  1  0
 18 21  1  0
 18 19  1  1
 19 20  1  0
 21 22  1  0
 23 21  2  0
M  END
$$$$
