GCG.pdb
     RDKit          3D

 15 14  0  0  1  0  0  0  0  0999 V2000
   15.7422  -10.5523  -13.0451 N   0  0  0  0  0  0  0  0  0  0  0  0
   17.0478  -10.0939  -13.4451 C   0  0  0  0  0  0  0  0  0  0  0  0
   17.2491   -8.7264  -12.9098 C   0  0  0  0  0  0  0  0  0  0  0  0
   16.5084   -7.7676  -13.2996 O   0  0  0  0  0  0  0  0  0  0  0  0
   18.2637   -8.4448  -11.9550 N   0  0  0  0  0  0  0  0  0  0  0  0
   18.5830   -7.1381  -11.4910 C   0  0  1  0  0  0  0  0  0  0  0  0
   18.5740   -7.0620   -9.9670 C   0  0  0  0  0  0  0  0  0  0  0  0
   16.9703   -7.6820   -9.3740 S   0  0  0  0  0  0  0  0  0  0  0  0
   19.8456   -6.6019  -12.0268 C   0  0  0  0  0  0  0  0  0  0  0  0
   20.9095   -7.2085  -11.7172 O   0  0  0  0  0  0  0  0  0  0  0  0
   19.9145   -5.4577  -12.8577 N   0  0  0  0  0  0  0  0  0  0  0  0
   21.1907   -5.0101  -13.3700 C   0  0  0  0  0  0  0  0  0  0  0  0
   21.0259   -3.7652  -14.1952 C   0  0  0  0  0  0  0  0  0  0  0  0
   21.0972   -2.6384  -13.6450 O   0  0  0  0  0  0  0  0  0  0  0  0
   20.7986   -3.9119  -15.5489 O   0  0  0  0  0  0  0  0  0  0  0  0
  1  2  1  0
  3  4  2  0
  3  2  1  0
  5  3  1  0
  6  9  1  0
  6  5  1  0
  7  8  1  0
  6  7  1  1
  9 11  1  0
 10  9  2  0
 11 12  1  0
 12 13  1  0
 13 14  2  0
 13 15  1  0
M  END
$$$$
