GCG.pdb
     RDKit          3D

 15 14  0  0  1  0  0  0  0  0999 V2000
   22.2338  -11.3576  -18.5932 N   0  0  0  0  0  0  0  0  0  0  0  0
   22.2124  -10.9980  -17.1986 C   0  0  0  0  0  0  0  0  0  0  0  0
   21.6147   -9.6476  -17.0716 C   0  0  0  0  0  0  0  0  0  0  0  0
   21.5215   -8.8872  -18.0881 O   0  0  0  0  0  0  0  0  0  0  0  0
   21.1319   -9.1636  -15.8254 N   0  0  0  0  0  0  0  0  0  0  0  0
   20.5824   -7.8654  -15.6317 C   0  0  1  0  0  0  0  0  0  0  0  0
   19.0795   -7.9209  -15.3733 C   0  0  0  0  0  0  0  0  0  0  0  0
   18.4277   -6.2240  -15.4286 S   0  0  0  0  0  0  0  0  0  0  0  0
   21.2568   -7.0772  -14.5863 C   0  0  0  0  0  0  0  0  0  0  0  0
   21.6100   -7.6880  -13.5385 O   0  0  0  0  0  0  0  0  0  0  0  0
   21.5202   -5.6912  -14.7052 N   0  0  0  0  0  0  0  0  0  0  0  0
   22.2313   -4.9962  -13.6551 C   0  0  0  0  0  0  0  0  0  0  0  0
   22.3331   -3.5289  -13.9624 C   0  0  0  0  0  0  0  0  0  0  0  0
   21.6093   -2.7104  -13.3428 O   0  0  0  0  0  0  0  0  0  0  0  0
   23.2338   -3.1316  -14.9302 O   0  0  0  0  0  0  0  0  0  0  0  0
  1  2  1  0
  3  4  2  0
  3  2  1  0
  5  3  1  0
  6  9  1  0
  6  5  1  0
  7  8  1  0
  6  7  1  1
  9 11  1  0
 10  9  2  0
 11 12  1  0
 12 13  1  0
 13 14  2  0
 13 15  1  0
M  END
$$$$
