GCG.pdb
     RDKit          3D

 15 14  0  0  1  0  0  0  0  0999 V2000
   20.9943  -21.4345  -12.2002 N   0  0  0  0  0  0  0  0  0  0  0  0
   21.9981  -21.7726  -13.1764 C   0  0  0  0  0  0  0  0  0  0  0  0
   23.1773  -20.9016  -12.9574 C   0  0  0  0  0  0  0  0  0  0  0  0
   23.2730  -19.7848  -13.5604 O   0  0  0  0  0  0  0  0  0  0  0  0
   24.2271  -21.2808  -12.0774 N   0  0  0  0  0  0  0  0  0  0  0  0
   25.4357  -20.5479  -11.9135 C   0  0  1  0  0  0  0  0  0  0  0  0
   26.1074  -20.8573  -10.5788 C   0  0  0  0  0  0  0  0  0  0  0  0
   24.8692  -20.6704   -9.2598 S   0  0  0  0  0  0  0  0  0  0  0  0
   26.3918  -20.7097  -13.0219 C   0  0  0  0  0  0  0  0  0  0  0  0
   27.1637  -21.7087  -12.9790 O   0  0  0  0  0  0  0  0  0  0  0  0
   26.4795  -19.8099  -14.1114 N   0  0  0  0  0  0  0  0  0  0  0  0
   27.4070  -20.0671  -15.1907 C   0  0  0  0  0  0  0  0  0  0  0  0
   27.3804  -18.9482  -16.1933 C   0  0  0  0  0  0  0  0  0  0  0  0
   26.4154  -18.8486  -16.9911 O   0  0  0  0  0  0  0  0  0  0  0  0
   28.4360  -18.0585  -16.1979 O   0  0  0  0  0  0  0  0  0  0  0  0
  1  2  1  0
  3  4  2  0
  3  2  1  0
  5  3  1  0
  6  9  1  0
  6  5  1  0
  7  8  1  0
  6  7  1  1
  9 11  1  0
 10  9  2  0
 11 12  1  0
 12 13  1  0
 13 14  2  0
 13 15  1  0
M  END
$$$$
