GCG.pdb
     RDKit          3D

 15 14  0  0  1  0  0  0  0  0999 V2000
   24.5475  -13.2546  -19.0436 N   0  0  0  0  0  0  0  0  0  0  0  0
   24.1142  -11.9003  -19.2740 C   0  0  0  0  0  0  0  0  0  0  0  0
   24.1510  -11.1704  -17.9844 C   0  0  0  0  0  0  0  0  0  0  0  0
   23.2537  -11.3730  -17.1048 O   0  0  0  0  0  0  0  0  0  0  0  0
   25.1774  -10.2317  -17.6917 N   0  0  0  0  0  0  0  0  0  0  0  0
   25.2257   -9.4447  -16.5072 C   0  0  1  0  0  0  0  0  0  0  0  0
   26.6347   -9.3875  -15.9241 C   0  0  0  0  0  0  0  0  0  0  0  0
   27.1066  -11.0658  -15.4062 S   0  0  0  0  0  0  0  0  0  0  0  0
   24.6771   -8.0871  -16.6648 C   0  0  0  0  0  0  0  0  0  0  0  0
   25.1602   -7.3713  -17.5868 O   0  0  0  0  0  0  0  0  0  0  0  0
   23.6515   -7.5620  -15.8422 N   0  0  0  0  0  0  0  0  0  0  0  0
   23.1084   -6.2489  -16.1106 C   0  0  0  0  0  0  0  0  0  0  0  0
   21.9984   -5.9257  -15.1507 C   0  0  0  0  0  0  0  0  0  0  0  0
   21.5894   -6.8043  -14.3517 O   0  0  0  0  0  0  0  0  0  0  0  0
   21.4629   -4.6538  -15.1856 O   0  0  0  0  0  0  0  0  0  0  0  0
  1  2  1  0
  3  4  2  0
  3  2  1  0
  5  3  1  0
  6  9  1  0
  6  5  1  0
  7  8  1  0
  6  7  1  6
  9 11  1  0
 10  9  2  0
 11 12  1  0
 12 13  1  0
 13 14  2  0
 13 15  1  0
M  END
$$$$
