GCG.pdb
     RDKit          3D

 15 14  0  0  1  0  0  0  0  0999 V2000
   20.8848  -21.2107  -12.6054 N   0  0  0  0  0  0  0  0  0  0  0  0
   22.1235  -21.7415  -13.1141 C   0  0  0  0  0  0  0  0  0  0  0  0
   23.2271  -20.8498  -12.6852 C   0  0  0  0  0  0  0  0  0  0  0  0
   23.1432  -19.5920  -12.8610 O   0  0  0  0  0  0  0  0  0  0  0  0
   24.4010  -21.3643  -12.0708 N   0  0  0  0  0  0  0  0  0  0  0  0
   25.5091  -20.5657  -11.6719 C   0  0  1  0  0  0  0  0  0  0  0  0
   26.1166  -21.0570  -10.3611 C   0  0  0  0  0  0  0  0  0  0  0  0
   24.8458  -20.9434   -9.0650 S   0  0  0  0  0  0  0  0  0  0  0  0
   26.5513  -20.4257  -12.7030 C   0  0  0  0  0  0  0  0  0  0  0  0
   27.0233  -21.4884  -13.1965 O   0  0  0  0  0  0  0  0  0  0  0  0
   27.0359  -19.1745  -13.1546 N   0  0  0  0  0  0  0  0  0  0  0  0
   27.9892  -19.1158  -14.2404 C   0  0  0  0  0  0  0  0  0  0  0  0
   27.2860  -19.1417  -15.5680 C   0  0  0  0  0  0  0  0  0  0  0  0
   27.0151  -20.2425  -16.1088 O   0  0  0  0  0  0  0  0  0  0  0  0
   26.9598  -17.9336  -16.1509 O   0  0  0  0  0  0  0  0  0  0  0  0
  1  2  1  0
  3  4  2  0
  3  2  1  0
  5  3  1  0
  6  9  1  0
  6  5  1  0
  7  8  1  0
  6  7  1  1
  9 11  1  0
 10  9  2  0
 11 12  1  0
 12 13  1  0
 13 14  2  0
 13 15  1  0
M  END
$$$$
