GCG.pdb
     RDKit          3D

 15 14  0  0  1  0  0  0  0  0999 V2000
   13.5414  -11.5894  -10.7895 N   0  0  0  0  0  0  0  0  0  0  0  0
   14.8482  -11.0761  -10.4677 C   0  0  0  0  0  0  0  0  0  0  0  0
   14.7884   -9.5952  -10.4880 C   0  0  0  0  0  0  0  0  0  0  0  0
   13.9521   -8.9954  -11.2370 O   0  0  0  0  0  0  0  0  0  0  0  0
   15.6527   -8.8061   -9.6814 N   0  0  0  0  0  0  0  0  0  0  0  0
   15.6229   -7.3843   -9.6331 C   0  0  1  0  0  0  0  0  0  0  0  0
   15.4705   -6.8708   -8.2042 C   0  0  0  0  0  0  0  0  0  0  0  0
   13.8482   -7.4019   -7.5767 S   0  0  0  0  0  0  0  0  0  0  0  0
   16.7678   -6.7363  -10.2948 C   0  0  0  0  0  0  0  0  0  0  0  0
   17.9236   -7.0700   -9.9095 O   0  0  0  0  0  0  0  0  0  0  0  0
   16.6291   -5.7743  -11.3242 N   0  0  0  0  0  0  0  0  0  0  0  0
   17.8014   -5.2536  -11.9921 C   0  0  0  0  0  0  0  0  0  0  0  0
   17.4199   -4.1985  -12.9915 C   0  0  0  0  0  0  0  0  0  0  0  0
   16.2090   -4.0076  -13.2652 O   0  0  0  0  0  0  0  0  0  0  0  0
   18.4330   -3.4680  -13.5795 O   0  0  0  0  0  0  0  0  0  0  0  0
  1  2  1  0
  3  4  2  0
  3  2  1  0
  5  3  1  0
  6  9  1  0
  6  5  1  0
  7  8  1  0
  6  7  1  1
  9 11  1  0
 10  9  2  0
 11 12  1  0
 12 13  1  0
 13 14  2  0
 13 15  1  0
M  END
$$$$
