GCG.pdb
     RDKit          3D

 15 14  0  0  1  0  0  0  0  0999 V2000
   22.1779  -12.4667  -18.1310 N   0  0  0  0  0  0  0  0  0  0  0  0
   21.2802  -11.8701  -19.0865 C   0  0  0  0  0  0  0  0  0  0  0  0
   20.8985  -10.5249  -18.5949 C   0  0  0  0  0  0  0  0  0  0  0  0
   20.8086   -9.5461  -19.4035 O   0  0  0  0  0  0  0  0  0  0  0  0
   20.6238  -10.2870  -17.2208 N   0  0  0  0  0  0  0  0  0  0  0  0
   20.1850   -9.0382  -16.6986 C   0  0  1  0  0  0  0  0  0  0  0  0
   18.7270   -9.0938  -16.2516 C   0  0  0  0  0  0  0  0  0  0  0  0
   18.5980  -10.2698  -14.8702 S   0  0  0  0  0  0  0  0  0  0  0  0
   21.0351   -8.5053  -15.6207 C   0  0  0  0  0  0  0  0  0  0  0  0
   21.6443   -9.3424  -14.8969 O   0  0  0  0  0  0  0  0  0  0  0  0
   21.1944   -7.1216  -15.3674 N   0  0  0  0  0  0  0  0  0  0  0  0
   22.0218   -6.6768  -14.2679 C   0  0  0  0  0  0  0  0  0  0  0  0
   22.0451   -5.1762  -14.1925 C   0  0  0  0  0  0  0  0  0  0  0  0
   21.4443   -4.4987  -15.0630 O   0  0  0  0  0  0  0  0  0  0  0  0
   22.7380   -4.5915  -13.1515 O   0  0  0  0  0  0  0  0  0  0  0  0
  1  2  1  0
  3  4  2  0
  3  2  1  0
  5  3  1  0
  6  9  1  0
  6  5  1  0
  7  8  1  0
  6  7  1  1
  9 11  1  0
 10  9  2  0
 11 12  1  0
 12 13  1  0
 13 14  2  0
 13 15  1  0
M  END
$$$$
