NDF.pdb
     RDKit          3D

 28 28  0  0  1  0  0  0  0  0999 V2000
    8.4335  -12.8790   16.6770 N   0  0  0  0  0  0  0  0  0  0  0  0
    7.7443  -14.1056   16.5878 C   0  0  0  0  0  0  0  0  0  0  0  0
    7.4793  -14.5485   15.4448 O   0  0  0  0  0  0  0  0  0  0  0  0
    7.3753  -14.7964   17.8482 C   0  0  0  0  0  0  0  0  0  0  0  0
    7.8711  -14.0289   19.0584 C   0  0  2  0  0  0  0  0  0  0  0  0
    8.8765  -13.0577   18.6876 N   0  0  0  0  0  0  0  0  0  0  0  0
    8.4915  -15.0144   19.9722 C   0  0  0  0  0  0  0  0  0  0  0  0
    7.8137  -16.0022   20.3419 O   0  0  0  0  0  0  0  0  0  0  0  0
    9.8180  -14.8960   20.4513 N   0  0  0  0  0  0  0  0  0  0  0  0
   10.2974  -15.8296   21.4250 C   0  0  1  0  0  0  0  0  0  0  0  0
   11.7662  -16.0739   21.1960 C   0  0  0  0  0  0  0  0  0  0  0  0
   11.9624  -16.7094   19.8807 C   0  0  0  0  0  0  0  0  0  0  0  0
   11.3997  -17.7965   19.6304 O   0  0  0  0  0  0  0  0  0  0  0  0
   10.1361  -15.2329   22.8037 C   0  0  0  0  0  0  0  0  0  0  0  0
   10.2960  -14.0005   22.9385 O   0  0  0  0  0  0  0  0  0  0  0  0
   12.7522  -16.1614   18.8800 O   0  0  0  0  0  0  0  0  0  0  0  0
    9.8138  -16.0305   23.9204 N   0  0  0  0  0  0  0  0  0  0  0  0
    9.0192  -15.4864   25.0242 C   0  0  1  0  0  0  0  0  0  0  0  0
    7.8958  -14.6438   24.5325 C   0  0  0  0  0  0  0  0  0  0  0  0
    7.4793  -13.5799   25.4658 C   0  0  0  0  0  0  0  0  0  0  0  0
    8.2275  -12.4313   25.6393 C   0  0  0  0  0  0  0  0  0  0  0  0
    7.8311  -11.4181   26.5096 C   0  0  0  0  0  0  0  0  0  0  0  0
    6.6527  -11.5863   27.2100 C   0  0  0  0  0  0  0  0  0  0  0  0
    5.8812  -12.7176   27.0626 C   0  0  0  0  0  0  0  0  0  0  0  0
    6.3214  -13.6791   26.1931 C   0  0  0  0  0  0  0  0  0  0  0  0
    8.6381  -16.5319   25.9857 C   0  0  0  0  0  0  0  0  0  0  0  0
    8.2120  -16.2251   27.1110 O   0  0  0  0  0  0  0  0  0  0  0  0
    8.7548  -17.8565   25.6389 O   0  0  0  0  0  0  0  0  0  0  0  0
  1  2  1  0
  2  3  2  0
  2  4  1  0
  4  5  1  0
  5  7  1  0
  5  6  1  6
  7  8  2  0
  9 10  1  0
  9  7  1  0
 10 11  1  6
 12 11  1  0
 13 12  2  0
 14 15  2  0
 14 10  1  0
 16 12  1  0
 17 14  1  0
 18 17  1  0
 18 26  1  0
 18 19  1  6
 20 19  1  0
 21 20  2  0
 22 21  1  0
 23 22  2  0
 23 24  1  0
 24 25  2  0
 25 20  1  0
 26 28  1  0
 27 26  2  0
M  END
$$$$
