NDF.pdb
     RDKit          3D

 28 28  0  0  1  0  0  0  0  0999 V2000
    6.5265  -21.1810   19.3190 N   0  0  0  0  0  0  0  0  0  0  0  0
    7.1987  -21.2722   20.5549 C   0  0  0  0  0  0  0  0  0  0  0  0
    6.8338  -22.1640   21.3575 O   0  0  0  0  0  0  0  0  0  0  0  0
    8.2943  -20.3100   20.8303 C   0  0  0  0  0  0  0  0  0  0  0  0
    8.1978  -19.7594   22.2399 C   0  0  2  0  0  0  0  0  0  0  0  0
    6.9114  -19.1417   22.4746 N   0  0  0  0  0  0  0  0  0  0  0  0
    9.2436  -18.7201   22.3717 C   0  0  0  0  0  0  0  0  0  0  0  0
   10.4467  -19.0640   22.2954 O   0  0  0  0  0  0  0  0  0  0  0  0
    8.9508  -17.3512   22.5806 N   0  0  0  0  0  0  0  0  0  0  0  0
   10.0248  -16.4305   22.8004 C   0  0  1  0  0  0  0  0  0  0  0  0
    9.7802  -15.1823   21.9932 C   0  0  0  0  0  0  0  0  0  0  0  0
    9.8846  -15.4944   20.5565 C   0  0  0  0  0  0  0  0  0  0  0  0
   11.0016  -15.4639   19.9978 O   0  0  0  0  0  0  0  0  0  0  0  0
   10.0513  -16.0409   24.2600 C   0  0  0  0  0  0  0  0  0  0  0  0
   10.8865  -15.1878   24.6306 O   0  0  0  0  0  0  0  0  0  0  0  0
    8.7925  -15.8279   19.7680 O   0  0  0  0  0  0  0  0  0  0  0  0
    9.1645  -16.6145   25.1936 N   0  0  0  0  0  0  0  0  0  0  0  0
    9.3047  -16.3394   26.6255 C   0  0  1  0  0  0  0  0  0  0  0  0
    8.0408  -15.8194   27.2138 C   0  0  0  0  0  0  0  0  0  0  0  0
    7.6280  -14.4997   26.6998 C   0  0  0  0  0  0  0  0  0  0  0  0
    8.2057  -13.3296   27.1541 C   0  0  0  0  0  0  0  0  0  0  0  0
    7.8284  -12.0820   26.6618 C   0  0  0  0  0  0  0  0  0  0  0  0
    6.8464  -12.0353   25.6917 C   0  0  0  0  0  0  0  0  0  0  0  0
    6.2484  -13.1808   25.2150 C   0  0  0  0  0  0  0  0  0  0  0  0
    6.6603  -14.3778   25.7364 C   0  0  0  0  0  0  0  0  0  0  0  0
    9.9021  -17.4768   27.3409 C   0  0  0  0  0  0  0  0  0  0  0  0
   10.1827  -17.3829   28.5470 O   0  0  0  0  0  0  0  0  0  0  0  0
   10.1531  -18.6508   26.6722 O   0  0  0  0  0  0  0  0  0  0  0  0
  1  2  1  0
  2  3  2  0
  2  4  1  0
  4  5  1  0
  5  7  1  0
  5  6  1  6
  7  8  2  0
  9 10  1  0
  9  7  1  0
 10 11  1  6
 12 11  1  0
 13 12  2  0
 14 15  2  0
 14 10  1  0
 16 12  1  0
 17 14  1  0
 18 17  1  0
 18 26  1  0
 18 19  1  1
 20 19  1  0
 21 20  2  0
 22 21  1  0
 23 22  2  0
 23 24  1  0
 24 25  2  0
 25 20  1  0
 26 28  1  0
 27 26  2  0
M  END
$$$$
