NDF.pdb
     RDKit          3D

 28 28  0  0  1  0  0  0  0  0999 V2000
    7.0104  -12.2149   18.8044 N   0  0  0  0  0  0  0  0  0  0  0  0
    8.1784  -12.8672   19.2493 C   0  0  0  0  0  0  0  0  0  0  0  0
    9.2320  -12.6996   18.5901 O   0  0  0  0  0  0  0  0  0  0  0  0
    8.0905  -13.7103   20.4672 C   0  0  0  0  0  0  0  0  0  0  0  0
    8.4242  -15.1567   20.1571 C   0  0  2  0  0  0  0  0  0  0  0  0
    7.3683  -15.7867   19.3957 N   0  0  0  0  0  0  0  0  0  0  0  0
    8.5463  -15.8608   21.4534 C   0  0  0  0  0  0  0  0  0  0  0  0
    7.5101  -16.3218   21.9877 O   0  0  0  0  0  0  0  0  0  0  0  0
    9.7807  -16.0401   22.1222 N   0  0  0  0  0  0  0  0  0  0  0  0
    9.8838  -17.0328   23.1486 C   0  0  1  0  0  0  0  0  0  0  0  0
   11.1371  -17.8403   22.9326 C   0  0  0  0  0  0  0  0  0  0  0  0
   11.1966  -18.9340   23.9189 C   0  0  0  0  0  0  0  0  0  0  0  0
   10.1428  -19.5050   24.2717 O   0  0  0  0  0  0  0  0  0  0  0  0
    9.9996  -16.3471   24.4900 C   0  0  0  0  0  0  0  0  0  0  0  0
   10.7995  -15.3929   24.6007 O   0  0  0  0  0  0  0  0  0  0  0  0
   12.3790  -19.3786   24.4931 O   0  0  0  0  0  0  0  0  0  0  0  0
    9.2330  -16.7596   25.5987 N   0  0  0  0  0  0  0  0  0  0  0  0
    9.4229  -16.1393   26.9121 C   0  0  1  0  0  0  0  0  0  0  0  0
    8.1452  -15.6133   27.4640 C   0  0  0  0  0  0  0  0  0  0  0  0
    7.6754  -14.3672   26.8293 C   0  0  0  0  0  0  0  0  0  0  0  0
    6.6165  -14.3581   25.9417 C   0  0  0  0  0  0  0  0  0  0  0  0
    6.1608  -13.1818   25.3503 C   0  0  0  0  0  0  0  0  0  0  0  0
    6.8000  -12.0010   25.6740 C   0  0  0  0  0  0  0  0  0  0  0  0
    7.8586  -11.9718   26.5546 C   0  0  0  0  0  0  0  0  0  0  0  0
    8.2619  -13.1590   27.1042 C   0  0  0  0  0  0  0  0  0  0  0  0
   10.1801  -17.0131   27.8208 C   0  0  0  0  0  0  0  0  0  0  0  0
   10.4826  -18.1670   27.4756 O   0  0  0  0  0  0  0  0  0  0  0  0
   10.5548  -16.5521   29.0599 O   0  0  0  0  0  0  0  0  0  0  0  0
  1  2  1  0
  2  3  2  0
  2  4  1  0
  4  5  1  0
  5  7  1  0
  5  6  1  6
  7  8  2  0
  9 10  1  0
  9  7  1  0
 10 11  1  6
 12 11  1  0
 13 12  2  0
 14 15  2  0
 14 10  1  0
 16 12  1  0
 17 14  1  0
 18 17  1  0
 18 26  1  0
 18 19  1  1
 20 19  1  0
 21 20  2  0
 22 21  1  0
 23 22  2  0
 23 24  1  0
 24 25  2  0
 25 20  1  0
 26 28  1  0
 27 26  2  0
M  END
$$$$
