NDF.pdb
     RDKit          3D

 28 28  0  0  1  0  0  0  0  0999 V2000
    9.0570  -13.2932   16.9790 N   0  0  0  0  0  0  0  0  0  0  0  0
    7.8598  -14.0338   17.0561 C   0  0  0  0  0  0  0  0  0  0  0  0
    7.2443  -14.2678   15.9889 O   0  0  0  0  0  0  0  0  0  0  0  0
    7.4020  -14.4903   18.3918 C   0  0  0  0  0  0  0  0  0  0  0  0
    8.2794  -13.9274   19.4931 C   0  0  2  0  0  0  0  0  0  0  0  0
    9.5437  -13.4602   18.9689 N   0  0  0  0  0  0  0  0  0  0  0  0
    8.5487  -15.0327   20.4402 C   0  0  0  0  0  0  0  0  0  0  0  0
    7.5948  -15.5010   21.1054 O   0  0  0  0  0  0  0  0  0  0  0  0
    9.8357  -15.5894   20.6326 N   0  0  0  0  0  0  0  0  0  0  0  0
   10.0285  -16.5715   21.6561 C   0  0  1  0  0  0  0  0  0  0  0  0
   11.2417  -17.4008   21.3246 C   0  0  0  0  0  0  0  0  0  0  0  0
   12.0248  -16.7316   20.2704 C   0  0  0  0  0  0  0  0  0  0  0  0
   11.5578  -16.6462   19.1147 O   0  0  0  0  0  0  0  0  0  0  0  0
   10.2898  -15.8722   22.9697 C   0  0  0  0  0  0  0  0  0  0  0  0
   10.9737  -14.8259   22.9583 O   0  0  0  0  0  0  0  0  0  0  0  0
   13.2783  -16.1776   20.4880 O   0  0  0  0  0  0  0  0  0  0  0  0
    9.7832  -16.3727   24.1863 N   0  0  0  0  0  0  0  0  0  0  0  0
    9.2631  -15.4638   25.2105 C   0  0  1  0  0  0  0  0  0  0  0  0
    8.3452  -14.4463   24.6308 C   0  0  0  0  0  0  0  0  0  0  0  0
    7.8377  -13.4601   25.6035 C   0  0  0  0  0  0  0  0  0  0  0  0
    8.6781  -12.5633   26.2350 C   0  0  0  0  0  0  0  0  0  0  0  0
    8.2013  -11.6214   27.1441 C   0  0  0  0  0  0  0  0  0  0  0  0
    6.8458  -11.6000   27.4081 C   0  0  0  0  0  0  0  0  0  0  0  0
    5.9782  -12.4785   26.7976 C   0  0  0  0  0  0  0  0  0  0  0  0
    6.5046  -13.3814   25.9134 C   0  0  0  0  0  0  0  0  0  0  0  0
    8.7272  -16.1983   26.3664 C   0  0  0  0  0  0  0  0  0  0  0  0
    7.8823  -17.0938   26.2048 O   0  0  0  0  0  0  0  0  0  0  0  0
    9.1620  -15.8921   27.6336 O   0  0  0  0  0  0  0  0  0  0  0  0
  1  2  1  0
  2  3  2  0
  2  4  1  0
  4  5  1  0
  5  7  1  0
  5  6  1  6
  7  8  2  0
  9 10  1  0
  9  7  1  0
 10 11  1  6
 12 11  1  0
 13 12  2  0
 14 15  2  0
 14 10  1  0
 16 12  1  0
 17 14  1  0
 18 17  1  0
 18 26  1  0
 18 19  1  6
 20 19  1  0
 21 20  2  0
 22 21  1  0
 23 22  2  0
 23 24  1  0
 24 25  2  0
 25 20  1  0
 26 28  1  0
 27 26  2  0
M  END
$$$$
