NDF.pdb
     RDKit          3D

 28 28  0  0  1  0  0  0  0  0999 V2000
    6.8782  -17.7202   14.7300 N   0  0  0  0  0  0  0  0  0  0  0  0
    7.6290  -17.7915   15.9211 C   0  0  0  0  0  0  0  0  0  0  0  0
    7.0279  -18.1035   16.9765 O   0  0  0  0  0  0  0  0  0  0  0  0
    9.0812  -17.4939   15.8538 C   0  0  0  0  0  0  0  0  0  0  0  0
    9.4865  -16.5000   16.9250 C   0  0  2  0  0  0  0  0  0  0  0  0
   10.8891  -16.1623   16.8232 N   0  0  0  0  0  0  0  0  0  0  0  0
    9.2598  -17.1555   18.2326 C   0  0  0  0  0  0  0  0  0  0  0  0
    8.1397  -17.6698   18.4617 O   0  0  0  0  0  0  0  0  0  0  0  0
   10.2496  -17.2307   19.2414 N   0  0  0  0  0  0  0  0  0  0  0  0
    9.9391  -17.8757   20.4812 C   0  0  1  0  0  0  0  0  0  0  0  0
   11.0157  -18.8800   20.8003 C   0  0  0  0  0  0  0  0  0  0  0  0
   12.3341  -18.3164   20.4592 C   0  0  0  0  0  0  0  0  0  0  0  0
   12.7238  -18.3320   19.2723 O   0  0  0  0  0  0  0  0  0  0  0  0
    9.9251  -16.8445   21.5854 C   0  0  0  0  0  0  0  0  0  0  0  0
   10.8737  -16.0330   21.6504 O   0  0  0  0  0  0  0  0  0  0  0  0
   13.1892  -17.7564   21.3977 O   0  0  0  0  0  0  0  0  0  0  0  0
    8.8774  -16.7845   22.5265 N   0  0  0  0  0  0  0  0  0  0  0  0
    8.8989  -15.7970   23.6082 C   0  0  1  0  0  0  0  0  0  0  0  0
    7.7515  -14.8541   23.5177 C   0  0  0  0  0  0  0  0  0  0  0  0
    7.7119  -14.0615   22.2741 C   0  0  0  0  0  0  0  0  0  0  0  0
    6.8912  -14.4073   21.2176 C   0  0  0  0  0  0  0  0  0  0  0  0
    6.8407  -13.6541   20.0466 C   0  0  0  0  0  0  0  0  0  0  0  0
    7.6422  -12.5328   19.9593 C   0  0  0  0  0  0  0  0  0  0  0  0
    8.4726  -12.1576   20.9920 C   0  0  0  0  0  0  0  0  0  0  0  0
    8.4797  -12.9365   22.1178 C   0  0  0  0  0  0  0  0  0  0  0  0
    9.0783  -16.4342   24.9214 C   0  0  0  0  0  0  0  0  0  0  0  0
    9.0896  -17.6718   25.0229 O   0  0  0  0  0  0  0  0  0  0  0  0
    9.2333  -15.6570   26.0441 O   0  0  0  0  0  0  0  0  0  0  0  0
  1  2  1  0
  2  3  2  0
  2  4  1  0
  4  5  1  0
  5  7  1  0
  5  6  1  6
  7  8  2  0
  9 10  1  0
  9  7  1  0
 10 11  1  1
 12 11  1  0
 13 12  2  0
 14 15  2  0
 14 10  1  0
 16 12  1  0
 17 14  1  0
 18 17  1  0
 18 26  1  0
 18 19  1  1
 20 19  1  0
 21 20  2  0
 22 21  1  0
 23 22  2  0
 23 24  1  0
 24 25  2  0
 25 20  1  0
 26 28  1  0
 27 26  2  0
M  END
$$$$
