NDF.pdb
     RDKit          3D

 28 28  0  0  1  0  0  0  0  0999 V2000
    9.3306  -14.3399   17.9425 N   0  0  0  0  0  0  0  0  0  0  0  0
    7.9600  -14.0918   17.7247 C   0  0  0  0  0  0  0  0  0  0  0  0
    7.4770  -14.4020   16.6097 O   0  0  0  0  0  0  0  0  0  0  0  0
    7.1742  -13.4804   18.8249 C   0  0  0  0  0  0  0  0  0  0  0  0
    8.0385  -13.2413   20.0478 C   0  0  2  0  0  0  0  0  0  0  0  0
    9.3212  -12.6824   19.6820 N   0  0  0  0  0  0  0  0  0  0  0  0
    8.2690  -14.5597   20.6800 C   0  0  0  0  0  0  0  0  0  0  0  0
    7.2769  -15.2655   20.9788 O   0  0  0  0  0  0  0  0  0  0  0  0
    9.5600  -15.0650   20.9651 N   0  0  0  0  0  0  0  0  0  0  0  0
    9.6894  -16.2480   21.7609 C   0  0  1  0  0  0  0  0  0  0  0  0
   10.8160  -17.0887   21.2190 C   0  0  0  0  0  0  0  0  0  0  0  0
   10.4831  -17.5422   19.8567 C   0  0  0  0  0  0  0  0  0  0  0  0
    9.5087  -18.3041   19.6806 O   0  0  0  0  0  0  0  0  0  0  0  0
   10.0432  -15.8556   23.1764 C   0  0  0  0  0  0  0  0  0  0  0  0
   10.9169  -14.9780   23.3474 O   0  0  0  0  0  0  0  0  0  0  0  0
   11.2027  -17.1661   18.7313 O   0  0  0  0  0  0  0  0  0  0  0  0
    9.4144  -16.4533   24.2875 N   0  0  0  0  0  0  0  0  0  0  0  0
    9.8605  -16.1541   25.6502 C   0  0  1  0  0  0  0  0  0  0  0  0
    9.9428  -14.6888   25.8948 C   0  0  0  0  0  0  0  0  0  0  0  0
    8.6382  -14.0002   25.9100 C   0  0  0  0  0  0  0  0  0  0  0  0
    8.2431  -13.1687   24.8796 C   0  0  0  0  0  0  0  0  0  0  0  0
    7.0065  -12.5270   24.8835 C   0  0  0  0  0  0  0  0  0  0  0  0
    6.1657  -12.7415   25.9579 C   0  0  0  0  0  0  0  0  0  0  0  0
    6.5257  -13.5635   27.0027 C   0  0  0  0  0  0  0  0  0  0  0  0
    7.7532  -14.1669   26.9437 C   0  0  0  0  0  0  0  0  0  0  0  0
    9.0924  -16.9097   26.6511 C   0  0  0  0  0  0  0  0  0  0  0  0
    9.4289  -16.8910   27.8463 O   0  0  0  0  0  0  0  0  0  0  0  0
    7.9965  -17.6423   26.2630 O   0  0  0  0  0  0  0  0  0  0  0  0
  1  2  1  0
  2  3  2  0
  2  4  1  0
  4  5  1  0
  5  7  1  0
  5  6  1  6
  7  8  2  0
  9 10  1  0
  9  7  1  0
 10 11  1  6
 12 11  1  0
 13 12  2  0
 14 15  2  0
 14 10  1  0
 16 12  1  0
 17 14  1  0
 18 17  1  0
 18 26  1  0
 18 19  1  1
 20 19  1  0
 21 20  2  0
 22 21  1  0
 23 22  2  0
 23 24  1  0
 24 25  2  0
 25 20  1  0
 26 28  1  0
 27 26  2  0
M  END
$$$$
