NDF.pdb
     RDKit          3D

 28 28  0  0  1  0  0  0  0  0999 V2000
   15.2246  -20.3508   18.7190 N   0  0  0  0  0  0  0  0  0  0  0  0
   14.8728  -21.0060   19.9167 C   0  0  0  0  0  0  0  0  0  0  0  0
   14.8408  -22.2596   19.9128 O   0  0  0  0  0  0  0  0  0  0  0  0
   14.5627  -20.1747   21.1061 C   0  0  0  0  0  0  0  0  0  0  0  0
   13.1146  -20.3380   21.5256 C   0  0  2  0  0  0  0  0  0  0  0  0
   12.2601  -20.5677   20.3817 N   0  0  0  0  0  0  0  0  0  0  0  0
   12.7031  -19.0684   22.1658 C   0  0  0  0  0  0  0  0  0  0  0  0
   13.3012  -18.6958   23.2027 O   0  0  0  0  0  0  0  0  0  0  0  0
   11.6630  -18.2508   21.6629 N   0  0  0  0  0  0  0  0  0  0  0  0
   11.2420  -17.1093   22.4173 C   0  0  1  0  0  0  0  0  0  0  0  0
   10.6766  -16.0760   21.4781 C   0  0  0  0  0  0  0  0  0  0  0  0
   11.7370  -15.5978   20.5730 C   0  0  0  0  0  0  0  0  0  0  0  0
   12.6978  -14.9478   21.0369 O   0  0  0  0  0  0  0  0  0  0  0  0
   10.1428  -17.5226   23.3679 C   0  0  0  0  0  0  0  0  0  0  0  0
    9.3832  -18.4547   23.0261 O   0  0  0  0  0  0  0  0  0  0  0  0
   11.7334  -15.8310   19.2050 O   0  0  0  0  0  0  0  0  0  0  0  0
    9.9639  -16.8846   24.6121 N   0  0  0  0  0  0  0  0  0  0  0  0
    8.8549  -17.2595   25.4926 C   0  0  1  0  0  0  0  0  0  0  0  0
    9.0218  -16.6978   26.8602 C   0  0  0  0  0  0  0  0  0  0  0  0
    8.8416  -15.2360   26.9438 C   0  0  0  0  0  0  0  0  0  0  0  0
    9.9171  -14.3688   26.9238 C   0  0  0  0  0  0  0  0  0  0  0  0
    9.7509  -12.9871   26.9891 C   0  0  0  0  0  0  0  0  0  0  0  0
    8.4652  -12.4899   27.0760 C   0  0  0  0  0  0  0  0  0  0  0  0
    7.3694  -13.3240   27.0984 C   0  0  0  0  0  0  0  0  0  0  0  0
    7.5949  -14.6726   27.0314 C   0  0  0  0  0  0  0  0  0  0  0  0
    7.5510  -16.9947   24.8662 C   0  0  0  0  0  0  0  0  0  0  0  0
    7.4733  -16.2734   23.8583 O   0  0  0  0  0  0  0  0  0  0  0  0
    6.4108  -17.5468   25.3987 O   0  0  0  0  0  0  0  0  0  0  0  0
  1  2  1  0
  2  3  2  0
  2  4  1  0
  4  5  1  0
  5  7  1  0
  5  6  1  6
  7  8  2  0
  9 10  1  0
  9  7  1  0
 10 11  1  6
 12 11  1  0
 13 12  2  0
 14 15  2  0
 14 10  1  0
 16 12  1  0
 17 14  1  0
 18 17  1  0
 18 26  1  0
 18 19  1  1
 20 19  1  0
 21 20  2  0
 22 21  1  0
 23 22  2  0
 23 24  1  0
 24 25  2  0
 25 20  1  0
 26 28  1  0
 27 26  2  0
M  END
$$$$
