PTM.pdb
     RDKit          3D

 23 23  0  0  1  0  0  0  0  0999 V2000
   20.0895  -13.4160  -17.6077 N   0  0  0  0  0  0  0  0  0  0  0  0
   19.4230  -14.2892  -18.5551 C   0  0  0  0  0  0  0  0  0  0  0  0
   17.9812  -13.8220  -18.4037 C   0  0  0  0  0  0  0  0  0  0  0  0
   18.1437  -12.3256  -18.3059 C   0  0  0  0  0  0  0  0  0  0  0  0
   19.6148  -12.1079  -18.0461 C   0  0  1  0  0  0  0  0  0  0  0  0
   19.8699  -11.0633  -17.0497 C   0  0  0  0  0  0  0  0  0  0  0  0
   19.2747  -11.1193  -15.9441 O   0  0  0  0  0  0  0  0  0  0  0  0
   22.9150  -10.2080  -15.3707 C   0  0  0  0  0  0  0  0  0  0  0  0
   22.5030   -8.8851  -15.9828 C   0  0  1  0  0  0  0  0  0  0  0  0
   23.3347   -8.6783  -17.0754 O   0  0  0  0  0  0  0  0  0  0  0  0
   21.0452   -8.9401  -16.3799 C   0  0  2  0  0  0  0  0  0  0  0  0
   20.7520  -10.0114  -17.2927 N   0  0  0  0  0  0  0  0  0  0  0  0
   20.5826   -7.6279  -16.8674 C   0  0  0  0  0  0  0  0  0  0  0  0
   20.1631   -7.4432  -18.0469 O   0  0  0  0  0  0  0  0  0  0  0  0
   15.7441   -2.8492  -18.8237 C   0  0  0  0  0  0  0  0  0  0  0  0
   16.4844   -4.3943  -18.2410 S   0  0  0  0  0  0  0  0  0  0  0  0
   18.1194   -4.0565  -17.4807 C   0  0  0  0  0  0  0  0  0  0  0  0
   18.7487   -5.3654  -17.0691 C   0  0  0  0  0  0  0  0  0  0  0  0
   20.1036   -5.1743  -16.4660 C   0  0  2  0  0  0  0  0  0  0  0  0
   20.5818   -6.4738  -16.0216 N   0  0  0  0  0  0  0  0  0  0  0  0
   20.1908   -4.1843  -15.3978 C   0  0  0  0  0  0  0  0  0  0  0  0
   20.2800   -4.4318  -14.1676 O   0  0  0  0  0  0  0  0  0  0  0  0
   20.1755   -2.8225  -15.7543 O   0  0  0  0  0  0  0  0  0  0  0  0
  1  5  1  0
  1  2  1  0
  2  3  1  0
  4  3  1  0
  5  4  1  0
  5  6  1  1
  7  6  2  0
  9  8  1  6
  9 11  1  0
 10  9  1  0
 11 12  1  6
 11 13  1  0
 12  6  1  0
 13 20  1  0
 14 13  2  0
 15 16  1  0
 17 16  1  0
 18 17  1  0
 19 18  1  1
 19 21  1  0
 20 19  1  0
 21 23  1  0
 22 21  2  0
M  END
$$$$
