PTM.pdb
     RDKit          3D

 23 23  0  0  1  0  0  0  0  0999 V2000
   27.6023  -22.7551  -15.6901 N   0  0  0  0  0  0  0  0  0  0  0  0
   28.0005  -23.1934  -17.0143 C   0  0  0  0  0  0  0  0  0  0  0  0
   27.4085  -22.0810  -17.8699 C   0  0  0  0  0  0  0  0  0  0  0  0
   27.7121  -20.8546  -17.0460 C   0  0  0  0  0  0  0  0  0  0  0  0
   28.0976  -21.3828  -15.6854 C   0  0  1  0  0  0  0  0  0  0  0  0
   27.5335  -20.5939  -14.5861 C   0  0  0  0  0  0  0  0  0  0  0  0
   27.8497  -19.3819  -14.4829 O   0  0  0  0  0  0  0  0  0  0  0  0
   23.7791  -21.6368  -13.3267 C   0  0  0  0  0  0  0  0  0  0  0  0
   24.4088  -20.2657  -13.1924 C   0  0  1  0  0  0  0  0  0  0  0  0
   23.6333  -19.5615  -12.2809 O   0  0  0  0  0  0  0  0  0  0  0  0
   25.8417  -20.4067  -12.7312 C   0  0  2  0  0  0  0  0  0  0  0  0
   26.6580  -21.1482  -13.6534 N   0  0  0  0  0  0  0  0  0  0  0  0
   25.9026  -20.9365  -11.3567 C   0  0  0  0  0  0  0  0  0  0  0  0
   25.7879  -22.1683  -11.0905 O   0  0  0  0  0  0  0  0  0  0  0  0
   29.7662  -19.3366   -6.2292 C   0  0  0  0  0  0  0  0  0  0  0  0
   28.0778  -19.0616   -5.6391 S   0  0  0  0  0  0  0  0  0  0  0  0
   26.9085  -20.1230   -6.5728 C   0  0  0  0  0  0  0  0  0  0  0  0
   26.9056  -19.6942   -8.0201 C   0  0  0  0  0  0  0  0  0  0  0  0
   26.0032  -20.5430   -8.8576 C   0  0  2  0  0  0  0  0  0  0  0  0
   26.0979  -20.0749  -10.2312 N   0  0  0  0  0  0  0  0  0  0  0  0
   24.6138  -20.6197   -8.4190 C   0  0  0  0  0  0  0  0  0  0  0  0
   23.6351  -20.0471   -8.9637 O   0  0  0  0  0  0  0  0  0  0  0  0
   24.3196  -21.4003   -7.2849 O   0  0  0  0  0  0  0  0  0  0  0  0
  1  5  1  0
  1  2  1  0
  2  3  1  0
  4  3  1  0
  5  4  1  0
  5  6  1  1
  7  6  2  0
  9  8  1  1
  9 11  1  0
 10  9  1  0
 11 12  1  6
 11 13  1  0
 12  6  1  0
 13 20  1  0
 14 13  2  0
 15 16  1  0
 17 16  1  0
 18 17  1  0
 19 18  1  1
 19 21  1  0
 20 19  1  0
 21 23  1  0
 22 21  2  0
M  END
$$$$
