PTM.pdb
     RDKit          3D

 23 23  0  0  1  0  0  0  0  0999 V2000
   27.5107  -17.0658  -17.5956 N   0  0  0  0  0  0  0  0  0  0  0  0
   28.0358  -16.2690  -18.6881 C   0  0  0  0  0  0  0  0  0  0  0  0
   28.6279  -17.3582  -19.5729 C   0  0  0  0  0  0  0  0  0  0  0  0
   27.5799  -18.4394  -19.4851 C   0  0  0  0  0  0  0  0  0  0  0  0
   26.7058  -18.0435  -18.3198 C   0  0  1  0  0  0  0  0  0  0  0  0
   26.3271  -19.1822  -17.4778 C   0  0  0  0  0  0  0  0  0  0  0  0
   25.5958  -20.0813  -17.9640 O   0  0  0  0  0  0  0  0  0  0  0  0
   28.2633  -21.7319  -16.2839 C   0  0  0  0  0  0  0  0  0  0  0  0
   27.6462  -21.2652  -14.9816 C   0  0  1  0  0  0  0  0  0  0  0  0
   28.6408  -20.5815  -14.2948 O   0  0  0  0  0  0  0  0  0  0  0  0
   26.4491  -20.3882  -15.2712 C   0  0  2  0  0  0  0  0  0  0  0  0
   26.7538  -19.2963  -16.1554 N   0  0  0  0  0  0  0  0  0  0  0  0
   25.8023  -19.9507  -14.0207 C   0  0  0  0  0  0  0  0  0  0  0  0
   26.1962  -18.9463  -13.3594 O   0  0  0  0  0  0  0  0  0  0  0  0
   20.1152  -22.4673  -11.9374 C   0  0  0  0  0  0  0  0  0  0  0  0
   20.1650  -20.8604  -11.1068 S   0  0  0  0  0  0  0  0  0  0  0  0
   21.8979  -20.2694  -10.9917 C   0  0  0  0  0  0  0  0  0  0  0  0
   22.6197  -20.6142  -12.2719 C   0  0  0  0  0  0  0  0  0  0  0  0
   24.0796  -20.2991  -12.1982 C   0  0  2  0  0  0  0  0  0  0  0  0
   24.6765  -20.6473  -13.4778 N   0  0  0  0  0  0  0  0  0  0  0  0
   24.8073  -20.9095  -11.0907 C   0  0  0  0  0  0  0  0  0  0  0  0
   25.4554  -21.9867  -11.1380 O   0  0  0  0  0  0  0  0  0  0  0  0
   24.7961  -20.2495   -9.8473 O   0  0  0  0  0  0  0  0  0  0  0  0
  1  5  1  0
  1  2  1  0
  2  3  1  0
  4  3  1  0
  5  4  1  0
  5  6  1  1
  7  6  2  0
  9  8  1  6
  9 11  1  0
 10  9  1  0
 11 12  1  1
 11 13  1  0
 12  6  1  0
 13 20  1  0
 14 13  2  0
 15 16  1  0
 17 16  1  0
 18 17  1  0
 19 18  1  6
 19 21  1  0
 20 19  1  0
 21 23  1  0
 22 21  2  0
M  END
$$$$
