PTM.pdb
     RDKit          3D

 23 23  0  0  1  0  0  0  0  0999 V2000
   20.5434  -12.6832  -18.6301 N   0  0  0  0  0  0  0  0  0  0  0  0
   20.2593  -14.0379  -19.0644 C   0  0  0  0  0  0  0  0  0  0  0  0
   20.4451  -14.7982  -17.7578 C   0  0  0  0  0  0  0  0  0  0  0  0
   19.8000  -13.8701  -16.7590 C   0  0  0  0  0  0  0  0  0  0  0  0
   19.6440  -12.5576  -17.4883 C   0  0  1  0  0  0  0  0  0  0  0  0
   19.9684  -11.3980  -16.6522 C   0  0  0  0  0  0  0  0  0  0  0  0
   19.3027  -11.1981  -15.6051 O   0  0  0  0  0  0  0  0  0  0  0  0
   23.1320  -10.6246  -14.9789 C   0  0  0  0  0  0  0  0  0  0  0  0
   22.8526   -9.3983  -15.8229 C   0  0  1  0  0  0  0  0  0  0  0  0
   23.6848   -9.4825  -16.9313 O   0  0  0  0  0  0  0  0  0  0  0  0
   21.3912   -9.3687  -16.2096 C   0  0  2  0  0  0  0  0  0  0  0  0
   20.9923  -10.5120  -16.9846 N   0  0  0  0  0  0  0  0  0  0  0  0
   21.0428   -8.0890  -16.8535 C   0  0  0  0  0  0  0  0  0  0  0  0
   21.3137   -7.8334  -18.0628 O   0  0  0  0  0  0  0  0  0  0  0  0
   15.1819   -5.5350  -17.1552 C   0  0  0  0  0  0  0  0  0  0  0  0
   16.2923   -6.9272  -17.4770 S   0  0  0  0  0  0  0  0  0  0  0  0
   17.9534   -6.3065  -17.9469 C   0  0  0  0  0  0  0  0  0  0  0  0
   18.5717   -5.6116  -16.7580 C   0  0  0  0  0  0  0  0  0  0  0  0
   20.0595   -5.7592  -16.7299 C   0  0  2  0  0  0  0  0  0  0  0  0
   20.3689   -7.0503  -16.1365 N   0  0  0  0  0  0  0  0  0  0  0  0
   20.7933   -4.6840  -16.0708 C   0  0  0  0  0  0  0  0  0  0  0  0
   21.5453   -4.8091  -15.0702 O   0  0  0  0  0  0  0  0  0  0  0  0
   20.6619   -3.3803  -16.5856 O   0  0  0  0  0  0  0  0  0  0  0  0
  1  5  1  0
  1  2  1  0
  2  3  1  0
  4  3  1  0
  5  4  1  0
  5  6  1  1
  7  6  2  0
  9  8  1  1
  9 11  1  0
 10  9  1  0
 11 12  1  6
 11 13  1  0
 12  6  1  0
 13 20  1  0
 14 13  2  0
 15 16  1  0
 17 16  1  0
 18 17  1  0
 19 18  1  1
 19 21  1  0
 20 19  1  0
 21 23  1  0
 22 21  2  0
M  END
$$$$
