PTM.pdb
     RDKit          3D

 23 23  0  0  1  0  0  0  0  0999 V2000
   19.0261  -13.1845  -16.0592 N   0  0  0  0  0  0  0  0  0  0  0  0
   18.3829  -14.4786  -16.1856 C   0  0  0  0  0  0  0  0  0  0  0  0
   17.7757  -14.3574  -17.5772 C   0  0  0  0  0  0  0  0  0  0  0  0
   18.8760  -13.6645  -18.3416 C   0  0  0  0  0  0  0  0  0  0  0  0
   19.8175  -13.1409  -17.2840 C   0  0  1  0  0  0  0  0  0  0  0  0
   20.3115  -11.7921  -17.5769 C   0  0  0  0  0  0  0  0  0  0  0  0
   21.0755  -11.6247  -18.5606 O   0  0  0  0  0  0  0  0  0  0  0  0
   18.4762   -8.9338  -18.6774 C   0  0  0  0  0  0  0  0  0  0  0  0
   19.1218   -8.4568  -17.3929 C   0  0  1  0  0  0  0  0  0  0  0  0
   18.1442   -8.5256  -16.4091 O   0  0  0  0  0  0  0  0  0  0  0  0
   20.3160   -9.3261  -17.0701 C   0  0  2  0  0  0  0  0  0  0  0  0
   19.9589  -10.6916  -16.7969 N   0  0  0  0  0  0  0  0  0  0  0  0
   21.1335   -8.7221  -16.0022 C   0  0  0  0  0  0  0  0  0  0  0  0
   20.9493   -8.9682  -14.7747 O   0  0  0  0  0  0  0  0  0  0  0  0
   26.8933  -10.9572  -15.0789 C   0  0  0  0  0  0  0  0  0  0  0  0
   26.4922   -9.2411  -15.4898 S   0  0  0  0  0  0  0  0  0  0  0  0
   24.7345   -8.8974  -15.0925 C   0  0  0  0  0  0  0  0  0  0  0  0
   24.4121   -7.4757  -15.4841 C   0  0  0  0  0  0  0  0  0  0  0  0
   22.9707   -7.1437  -15.2646 C   0  0  2  0  0  0  0  0  0  0  0  0
   22.1964   -7.8112  -16.2988 N   0  0  0  0  0  0  0  0  0  0  0  0
   22.6483   -5.7224  -15.1959 C   0  0  0  0  0  0  0  0  0  0  0  0
   22.9738   -4.9357  -14.2698 O   0  0  0  0  0  0  0  0  0  0  0  0
   21.9062   -5.1600  -16.2517 O   0  0  0  0  0  0  0  0  0  0  0  0
  1  5  1  0
  1  2  1  0
  2  3  1  0
  4  3  1  0
  5  4  1  0
  5  6  1  6
  7  6  2  0
  9  8  1  6
  9 11  1  0
 10  9  1  0
 11 12  1  1
 11 13  1  0
 12  6  1  0
 13 20  1  0
 14 13  2  0
 15 16  1  0
 17 16  1  0
 18 17  1  0
 19 18  1  6
 19 21  1  0
 20 19  1  0
 21 23  1  0
 22 21  2  0
M  END
$$$$
