PTM.pdb
     RDKit          3D

 23 23  0  0  1  0  0  0  0  0999 V2000
   16.6748  -12.0309  -14.8802 N   0  0  0  0  0  0  0  0  0  0  0  0
   15.7629  -13.1557  -14.7929 C   0  0  0  0  0  0  0  0  0  0  0  0
   15.0583  -13.0531  -16.1394 C   0  0  0  0  0  0  0  0  0  0  0  0
   16.1977  -12.7082  -17.0656 C   0  0  0  0  0  0  0  0  0  0  0  0
   17.3302  -12.2962  -16.1563 C   0  0  1  0  0  0  0  0  0  0  0  0
   18.0664  -11.1304  -16.6541 C   0  0  0  0  0  0  0  0  0  0  0  0
   18.7021  -11.2283  -17.7339 O   0  0  0  0  0  0  0  0  0  0  0  0
   16.9263   -7.7532  -17.6519 C   0  0  0  0  0  0  0  0  0  0  0  0
   17.9048   -7.5279  -16.5177 C   0  0  1  0  0  0  0  0  0  0  0  0
   17.1445   -7.2957  -15.3792 O   0  0  0  0  0  0  0  0  0  0  0  0
   18.7981   -8.7385  -16.3682 C   0  0  2  0  0  0  0  0  0  0  0  0
   18.0820   -9.9183  -15.9655 N   0  0  0  0  0  0  0  0  0  0  0  0
   19.9482   -8.4395  -15.4956 C   0  0  0  0  0  0  0  0  0  0  0  0
   19.9469   -8.6779  -14.2529 O   0  0  0  0  0  0  0  0  0  0  0  0
   26.3798  -10.4990  -14.4973 C   0  0  0  0  0  0  0  0  0  0  0  0
   26.0836   -9.0663  -15.5623 S   0  0  0  0  0  0  0  0  0  0  0  0
   24.7143   -8.0531  -14.8811 C   0  0  0  0  0  0  0  0  0  0  0  0
   23.4684   -8.3009  -15.6965 C   0  0  0  0  0  0  0  0  0  0  0  0
   22.2925   -7.5385  -15.1747 C   0  0  2  0  0  0  0  0  0  0  0  0
   21.1474   -7.8551  -16.0132 N   0  0  0  0  0  0  0  0  0  0  0  0
   22.4741   -6.0963  -15.0489 C   0  0  0  0  0  0  0  0  0  0  0  0
   23.1257   -5.5103  -14.1463 O   0  0  0  0  0  0  0  0  0  0  0  0
   21.8740   -5.2666  -16.0150 O   0  0  0  0  0  0  0  0  0  0  0  0
  1  5  1  0
  1  2  1  0
  2  3  1  0
  4  3  1  0
  5  4  1  0
  5  6  1  6
  7  6  2  0
  9  8  1  6
  9 11  1  0
 10  9  1  0
 11 12  1  1
 11 13  1  0
 12  6  1  0
 13 20  1  0
 14 13  2  0
 15 16  1  0
 17 16  1  0
 18 17  1  0
 19 18  1  6
 19 21  1  0
 20 19  1  0
 21 23  1  0
 22 21  2  0
M  END
$$$$
