AWG.pdb
     RDKit          3D

 24 25  0  0  1  0  0  0  0  0999 V2000
   21.2114  -31.6233  -14.0389 C   0  0  0  0  0  0  0  0  0  0  0  0
   22.1789  -30.8063  -14.8617 C   0  0  2  0  0  0  0  0  0  0  0  0
   23.4940  -31.4011  -14.8139 N   0  0  0  0  0  0  0  0  0  0  0  0
   22.1630  -29.4299  -14.3182 C   0  0  0  0  0  0  0  0  0  0  0  0
   22.9022  -29.2152  -13.3139 O   0  0  0  0  0  0  0  0  0  0  0  0
   21.4021  -28.3758  -14.8304 N   0  0  0  0  0  0  0  0  0  0  0  0
   21.5708  -27.0412  -14.2888 C   0  0  1  0  0  0  0  0  0  0  0  0
   21.7061  -25.9662  -15.2941 C   0  0  0  0  0  0  0  0  0  0  0  0
   22.9144  -26.0568  -16.1163 C   0  0  0  0  0  0  0  0  0  0  0  0
   23.2524  -26.8734  -17.1612 C   0  0  0  0  0  0  0  0  0  0  0  0
   24.5061  -26.5298  -17.5501 N   0  0  0  0  0  0  0  0  0  0  0  0
   24.9743  -25.5363  -16.7997 C   0  0  0  0  0  0  0  0  0  0  0  0
   26.1939  -24.8528  -16.8132 C   0  0  0  0  0  0  0  0  0  0  0  0
   26.3748  -23.8588  -15.8886 C   0  0  0  0  0  0  0  0  0  0  0  0
   25.4213  -23.5072  -14.9588 C   0  0  0  0  0  0  0  0  0  0  0  0
   24.2182  -24.1961  -14.9612 C   0  0  0  0  0  0  0  0  0  0  0  0
   24.0109  -25.2091  -15.8896 C   0  0  0  0  0  0  0  0  0  0  0  0
   20.4187  -26.7523  -13.3499 C   0  0  0  0  0  0  0  0  0  0  0  0
   19.2344  -26.9821  -13.6625 O   0  0  0  0  0  0  0  0  0  0  0  0
   20.7283  -26.2032  -12.0817 N   0  0  0  0  0  0  0  0  0  0  0  0
   19.6789  -25.7176  -11.1855 C   0  0  0  0  0  0  0  0  0  0  0  0
   19.1730  -26.8539  -10.4109 C   0  0  0  0  0  0  0  0  0  0  0  0
   19.6127  -27.9990  -10.6139 O   0  0  0  0  0  0  0  0  0  0  0  0
   18.2078  -26.6497   -9.4557 O   0  0  0  0  0  0  0  0  0  0  0  0
  2  1  1  1
  2  3  1  0
  4  2  1  0
  5  4  2  0
  6  4  1  0
  7  6  1  0
  8  9  1  0
  7  8  1  6
  9 17  1  0
 10 11  1  0
 10  9  2  0
 11 12  1  0
 12 17  2  0
 12 13  1  0
 13 14  2  0
 14 15  1  0
 16 15  2  0
 17 16  1  0
 18 20  1  0
 18  7  1  0
 19 18  2  0
 21 20  1  0
 22 24  1  0
 22 21  1  0
 23 22  2  0
M  END
$$$$
