AWG.pdb
     RDKit          3D

 24 25  0  0  1  0  0  0  0  0999 V2000
   28.4011  -19.6831  -13.1446 C   0  0  0  0  0  0  0  0  0  0  0  0
   29.0001  -20.1998  -11.8582 C   0  0  2  0  0  0  0  0  0  0  0  0
   29.9683  -21.2328  -12.1431 N   0  0  0  0  0  0  0  0  0  0  0  0
   27.8832  -20.6900  -11.0203 C   0  0  0  0  0  0  0  0  0  0  0  0
   27.7653  -21.9461  -10.9222 O   0  0  0  0  0  0  0  0  0  0  0  0
   26.9710  -19.8746  -10.3454 N   0  0  0  0  0  0  0  0  0  0  0  0
   25.9137  -20.4804   -9.5592 C   0  0  1  0  0  0  0  0  0  0  0  0
   25.6755  -19.8590   -8.2395 C   0  0  0  0  0  0  0  0  0  0  0  0
   26.8921  -19.4355   -7.5430 C   0  0  0  0  0  0  0  0  0  0  0  0
   27.7530  -18.3928   -7.7544 C   0  0  0  0  0  0  0  0  0  0  0  0
   28.7249  -18.4771   -6.8115 N   0  0  0  0  0  0  0  0  0  0  0  0
   28.5179  -19.5233   -6.0165 C   0  0  0  0  0  0  0  0  0  0  0  0
   29.2328  -20.0179   -4.9215 C   0  0  0  0  0  0  0  0  0  0  0  0
   28.7503  -21.1406   -4.3030 C   0  0  0  0  0  0  0  0  0  0  0  0
   27.6073  -21.7949   -4.7064 C   0  0  0  0  0  0  0  0  0  0  0  0
   26.9118  -21.2893   -5.7940 C   0  0  0  0  0  0  0  0  0  0  0  0
   27.3816  -20.1513   -6.4383 C   0  0  0  0  0  0  0  0  0  0  0  0
   24.6434  -20.4878  -10.3829 C   0  0  0  0  0  0  0  0  0  0  0  0
   24.2117  -19.4632  -10.9459 O   0  0  0  0  0  0  0  0  0  0  0  0
   23.9447  -21.7141  -10.4995 N   0  0  0  0  0  0  0  0  0  0  0  0
   22.6426  -21.7885  -11.1621 C   0  0  0  0  0  0  0  0  0  0  0  0
   22.8668  -21.9616  -12.5998 C   0  0  0  0  0  0  0  0  0  0  0  0
   23.9888  -22.2857  -13.0267 O   0  0  0  0  0  0  0  0  0  0  0  0
   21.8300  -21.7643  -13.4782 O   0  0  0  0  0  0  0  0  0  0  0  0
  2  1  1  6
  2  3  1  0
  4  2  1  0
  5  4  2  0
  6  4  1  0
  7  6  1  0
  8  9  1  0
  7  8  1  1
  9 17  1  0
 10 11  1  0
 10  9  2  0
 11 12  1  0
 12 17  2  0
 12 13  1  0
 13 14  2  0
 14 15  1  0
 16 15  2  0
 17 16  1  0
 18 20  1  0
 18  7  1  0
 19 18  2  0
 21 20  1  0
 22 24  1  0
 22 21  1  0
 23 22  2  0
M  END
$$$$
