AWG.pdb
     RDKit          3D

 24 25  0  0  1  0  0  0  0  0999 V2000
   29.0072  -21.5606  -15.2810 C   0  0  0  0  0  0  0  0  0  0  0  0
   27.6542  -20.8960  -15.3726 C   0  0  2  0  0  0  0  0  0  0  0  0
   27.8085  -19.4602  -15.3891 N   0  0  0  0  0  0  0  0  0  0  0  0
   26.8570  -21.3638  -14.2170 C   0  0  0  0  0  0  0  0  0  0  0  0
   26.5791  -22.5980  -14.1905 O   0  0  0  0  0  0  0  0  0  0  0  0
   26.4014  -20.5498  -13.1766 N   0  0  0  0  0  0  0  0  0  0  0  0
   25.5601  -21.1157  -12.1399 C   0  0  1  0  0  0  0  0  0  0  0  0
   25.7960  -20.5879  -10.7796 C   0  0  0  0  0  0  0  0  0  0  0  0
   27.1160  -20.9039  -10.2298 C   0  0  0  0  0  0  0  0  0  0  0  0
   28.2105  -21.5210  -10.7720 C   0  0  0  0  0  0  0  0  0  0  0  0
   29.1671  -21.5595   -9.8106 N   0  0  0  0  0  0  0  0  0  0  0  0
   28.7274  -20.9967   -8.6884 C   0  0  0  0  0  0  0  0  0  0  0  0
   29.3335  -20.8020   -7.4436 C   0  0  0  0  0  0  0  0  0  0  0  0
   28.5989  -20.1782   -6.4705 C   0  0  0  0  0  0  0  0  0  0  0  0
   27.3071  -19.7399   -6.6614 C   0  0  0  0  0  0  0  0  0  0  0  0
   26.7231  -19.9417   -7.9025 C   0  0  0  0  0  0  0  0  0  0  0  0
   27.4483  -20.5726   -8.9061 C   0  0  0  0  0  0  0  0  0  0  0  0
   24.1116  -20.9321  -12.5400 C   0  0  0  0  0  0  0  0  0  0  0  0
   23.6822  -19.8577  -13.0031 O   0  0  0  0  0  0  0  0  0  0  0  0
   23.2398  -22.0353  -12.3712 N   0  0  0  0  0  0  0  0  0  0  0  0
   21.8822  -22.0233  -12.9160 C   0  0  0  0  0  0  0  0  0  0  0  0
   21.1006  -21.0241  -12.1827 C   0  0  0  0  0  0  0  0  0  0  0  0
   20.7819  -19.9522  -12.7263 O   0  0  0  0  0  0  0  0  0  0  0  0
   20.7191  -21.2759  -10.8878 O   0  0  0  0  0  0  0  0  0  0  0  0
  2  1  1  1
  2  3  1  0
  4  2  1  0
  5  4  2  0
  6  4  1  0
  7  6  1  0
  8  9  1  0
  7  8  1  1
  9 17  1  0
 10 11  1  0
 10  9  2  0
 11 12  1  0
 12 17  2  0
 12 13  1  0
 13 14  2  0
 14 15  1  0
 16 15  2  0
 17 16  1  0
 18 20  1  0
 18  7  1  0
 19 18  2  0
 21 20  1  0
 22 24  1  0
 22 21  1  0
 23 22  2  0
M  END
$$$$
