AWG.pdb
     RDKit          3D

 24 25  0  0  1  0  0  0  0  0999 V2000
   26.9180  -21.7355  -16.7473 C   0  0  0  0  0  0  0  0  0  0  0  0
   27.5260  -21.0625  -15.5398 C   0  0  2  0  0  0  0  0  0  0  0  0
   28.8949  -21.4909  -15.3718 N   0  0  0  0  0  0  0  0  0  0  0  0
   26.6811  -21.4061  -14.3746 C   0  0  0  0  0  0  0  0  0  0  0  0
   26.2536  -22.5961  -14.3234 O   0  0  0  0  0  0  0  0  0  0  0  0
   26.3324  -20.5221  -13.3501 N   0  0  0  0  0  0  0  0  0  0  0  0
   25.5727  -21.0063  -12.2137 C   0  0  1  0  0  0  0  0  0  0  0  0
   25.9032  -20.3732  -10.9196 C   0  0  0  0  0  0  0  0  0  0  0  0
   27.2013  -20.7677  -10.3685 C   0  0  0  0  0  0  0  0  0  0  0  0
   28.2643  -21.4341  -10.9151 C   0  0  0  0  0  0  0  0  0  0  0  0
   29.2122  -21.5383   -9.9498 N   0  0  0  0  0  0  0  0  0  0  0  0
   28.7969  -20.9699   -8.8211 C   0  0  0  0  0  0  0  0  0  0  0  0
   29.4056  -20.8268   -7.5706 C   0  0  0  0  0  0  0  0  0  0  0  0
   28.7000  -20.1795   -6.5915 C   0  0  0  0  0  0  0  0  0  0  0  0
   27.4344  -19.6699   -6.7817 C   0  0  0  0  0  0  0  0  0  0  0  0
   26.8475  -19.8213   -8.0285 C   0  0  0  0  0  0  0  0  0  0  0  0
   27.5434  -20.4747   -9.0383 C   0  0  0  0  0  0  0  0  0  0  0  0
   24.0976  -20.8563  -12.5201 C   0  0  0  0  0  0  0  0  0  0  0  0
   23.6231  -19.8096  -13.0022 O   0  0  0  0  0  0  0  0  0  0  0  0
   23.2543  -21.9588  -12.2392 N   0  0  0  0  0  0  0  0  0  0  0  0
   21.8534  -21.9725  -12.6604 C   0  0  0  0  0  0  0  0  0  0  0  0
   21.0824  -21.1528  -11.7219 C   0  0  0  0  0  0  0  0  0  0  0  0
   21.6575  -20.5270  -10.8143 O   0  0  0  0  0  0  0  0  0  0  0  0
   19.7171  -21.0770  -11.8481 O   0  0  0  0  0  0  0  0  0  0  0  0
  2  1  1  6
  2  3  1  0
  4  2  1  0
  5  4  2  0
  6  4  1  0
  7  6  1  0
  8  9  1  0
  7  8  1  1
  9 17  1  0
 10 11  1  0
 10  9  2  0
 11 12  1  0
 12 17  2  0
 12 13  1  0
 13 14  2  0
 14 15  1  0
 16 15  2  0
 17 16  1  0
 18 20  1  0
 18  7  1  0
 19 18  2  0
 21 20  1  0
 22 24  1  0
 22 21  1  0
 23 22  2  0
M  END
$$$$
