AWG.pdb
     RDKit          3D

 24 25  0  0  1  0  0  0  0  0999 V2000
   13.5843  -22.6525    2.8478 C   0  0  0  0  0  0  0  0  0  0  0  0
   14.4626  -21.4483    3.0909 C   0  0  2  0  0  0  0  0  0  0  0  0
   14.4574  -20.5897    1.9297 N   0  0  0  0  0  0  0  0  0  0  0  0
   15.8164  -21.9512    3.4136 C   0  0  0  0  0  0  0  0  0  0  0  0
   16.6518  -21.9620    2.4632 O   0  0  0  0  0  0  0  0  0  0  0  0
   16.2233  -22.4045    4.6712 N   0  0  0  0  0  0  0  0  0  0  0  0
   17.5817  -22.8767    4.8576 C   0  0  1  0  0  0  0  0  0  0  0  0
   18.3236  -22.2387    5.9653 C   0  0  0  0  0  0  0  0  0  0  0  0
   18.4889  -20.7904    5.8262 C   0  0  0  0  0  0  0  0  0  0  0  0
   17.6797  -19.8227    5.2954 C   0  0  0  0  0  0  0  0  0  0  0  0
   18.3335  -18.6402    5.4192 N   0  0  0  0  0  0  0  0  0  0  0  0
   19.5161  -18.8167    6.0020 C   0  0  0  0  0  0  0  0  0  0  0  0
   20.5331  -17.9181    6.3380 C   0  0  0  0  0  0  0  0  0  0  0  0
   21.6539  -18.4243    6.9407 C   0  0  0  0  0  0  0  0  0  0  0  0
   21.8212  -19.7613    7.2268 C   0  0  0  0  0  0  0  0  0  0  0  0
   20.8017  -20.6369    6.8863 C   0  0  0  0  0  0  0  0  0  0  0  0
   19.6545  -20.1474    6.2737 C   0  0  0  0  0  0  0  0  0  0  0  0
   17.5503  -24.3803    5.0322 C   0  0  0  0  0  0  0  0  0  0  0  0
   16.6252  -24.9591    5.6342 O   0  0  0  0  0  0  0  0  0  0  0  0
   18.6208  -25.1267    4.4824 N   0  0  0  0  0  0  0  0  0  0  0  0
   18.6607  -26.5858    4.5797 C   0  0  0  0  0  0  0  0  0  0  0  0
   19.2712  -26.9452    5.8623 C   0  0  0  0  0  0  0  0  0  0  0  0
   19.6144  -26.0601    6.6653 O   0  0  0  0  0  0  0  0  0  0  0  0
   19.4639  -28.2680    6.1767 O   0  0  0  0  0  0  0  0  0  0  0  0
  2  1  1  6
  2  3  1  0
  4  2  1  0
  5  4  2  0
  6  4  1  0
  7  6  1  0
  8  9  1  0
  7  8  1  1
  9 17  1  0
 10 11  1  0
 10  9  2  0
 11 12  1  0
 12 17  2  0
 12 13  1  0
 13 14  2  0
 14 15  1  0
 16 15  2  0
 17 16  1  0
 18 20  1  0
 18  7  1  0
 19 18  2  0
 21 20  1  0
 22 24  1  0
 22 21  1  0
 23 22  2  0
M  END
$$$$
