AWG.pdb
     RDKit          3D

 24 25  0  0  1  0  0  0  0  0999 V2000
   14.6713  -11.2909   10.0872 C   0  0  0  0  0  0  0  0  0  0  0  0
   15.3538  -11.1093    8.7523 C   0  0  2  0  0  0  0  0  0  0  0  0
   14.3816  -10.7594    7.7433 N   0  0  0  0  0  0  0  0  0  0  0  0
   16.0561  -12.3746    8.4432 C   0  0  0  0  0  0  0  0  0  0  0  0
   15.3405  -13.3190    7.9989 O   0  0  0  0  0  0  0  0  0  0  0  0
   17.4271  -12.5897    8.6062 N   0  0  0  0  0  0  0  0  0  0  0  0
   18.0073  -13.8546    8.1985 C   0  0  1  0  0  0  0  0  0  0  0  0
   19.2251  -13.7499    7.3673 C   0  0  0  0  0  0  0  0  0  0  0  0
   18.9875  -13.2635    6.0067 C   0  0  0  0  0  0  0  0  0  0  0  0
   19.2088  -12.0489    5.4162 C   0  0  0  0  0  0  0  0  0  0  0  0
   18.7941  -12.1471    4.1281 N   0  0  0  0  0  0  0  0  0  0  0  0
   18.3215  -13.3653    3.8789 C   0  0  0  0  0  0  0  0  0  0  0  0
   17.7876  -13.9394    2.7212 C   0  0  0  0  0  0  0  0  0  0  0  0
   17.3790  -15.2447    2.7903 C   0  0  0  0  0  0  0  0  0  0  0  0
   17.4697  -16.0068    3.9341 C   0  0  0  0  0  0  0  0  0  0  0  0
   18.0022  -15.4202    5.0719 C   0  0  0  0  0  0  0  0  0  0  0  0
   18.4237  -14.0969    5.0269 C   0  0  0  0  0  0  0  0  0  0  0  0
   18.2756  -14.6839    9.4364 C   0  0  0  0  0  0  0  0  0  0  0  0
   18.8487  -14.2141   10.4384 O   0  0  0  0  0  0  0  0  0  0  0  0
   17.8494  -16.0344    9.4259 N   0  0  0  0  0  0  0  0  0  0  0  0
   18.1298  -16.9301   10.5481 C   0  0  0  0  0  0  0  0  0  0  0  0
   17.5702  -18.2479   10.2362 C   0  0  0  0  0  0  0  0  0  0  0  0
   16.9205  -18.4238    9.1907 O   0  0  0  0  0  0  0  0  0  0  0  0
   17.7664  -19.2929   11.1053 O   0  0  0  0  0  0  0  0  0  0  0  0
  2  1  1  1
  2  3  1  0
  4  2  1  0
  5  4  2  0
  6  4  1  0
  7  6  1  0
  8  9  1  0
  7  8  1  1
  9 17  1  0
 10 11  1  0
 10  9  2  0
 11 12  1  0
 12 17  2  0
 12 13  1  0
 13 14  2  0
 14 15  1  0
 16 15  2  0
 17 16  1  0
 18 20  1  0
 18  7  1  0
 19 18  2  0
 21 20  1  0
 22 24  1  0
 22 21  1  0
 23 22  2  0
M  END
$$$$
