AWG.pdb
     RDKit          3D

 24 25  0  0  1  0  0  0  0  0999 V2000
   24.9286  -22.1899  -15.8091 C   0  0  0  0  0  0  0  0  0  0  0  0
   25.8069  -22.8550  -14.7762 C   0  0  2  0  0  0  0  0  0  0  0  0
   25.7826  -24.2879  -14.9548 N   0  0  0  0  0  0  0  0  0  0  0  0
   25.3065  -22.4446  -13.4454 C   0  0  0  0  0  0  0  0  0  0  0  0
   24.5090  -23.2446  -12.8751 O   0  0  0  0  0  0  0  0  0  0  0  0
   25.6497  -21.2580  -12.7921 N   0  0  0  0  0  0  0  0  0  0  0  0
   25.0760  -20.9635  -11.4932 C   0  0  1  0  0  0  0  0  0  0  0  0
   25.8610  -20.0333  -10.6546 C   0  0  0  0  0  0  0  0  0  0  0  0
   27.1518  -20.5634  -10.2105 C   0  0  0  0  0  0  0  0  0  0  0  0
   28.0934  -21.3301  -10.8417 C   0  0  0  0  0  0  0  0  0  0  0  0
   29.1001  -21.5394   -9.9564 N   0  0  0  0  0  0  0  0  0  0  0  0
   28.8374  -20.9418   -8.7974 C   0  0  0  0  0  0  0  0  0  0  0  0
   29.5561  -20.8729   -7.6001 C   0  0  0  0  0  0  0  0  0  0  0  0
   29.0016  -20.1657   -6.5667 C   0  0  0  0  0  0  0  0  0  0  0  0
   27.7839  -19.5277   -6.6535 C   0  0  0  0  0  0  0  0  0  0  0  0
   27.0862  -19.6071   -7.8489 C   0  0  0  0  0  0  0  0  0  0  0  0
   27.6280  -20.3190   -8.9121 C   0  0  0  0  0  0  0  0  0  0  0  0
   23.6686  -20.4431  -11.6940 C   0  0  0  0  0  0  0  0  0  0  0  0
   23.4055  -19.5394  -12.5109 O   0  0  0  0  0  0  0  0  0  0  0  0
   22.6380  -21.0218  -10.9138 N   0  0  0  0  0  0  0  0  0  0  0  0
   21.2689  -20.5086  -10.9595 C   0  0  0  0  0  0  0  0  0  0  0  0
   20.5940  -21.0997  -12.1180 C   0  0  0  0  0  0  0  0  0  0  0  0
   20.7785  -22.2938  -12.4115 O   0  0  0  0  0  0  0  0  0  0  0  0
   19.7533  -20.3282  -12.8820 O   0  0  0  0  0  0  0  0  0  0  0  0
  2  1  1  6
  2  3  1  0
  4  2  1  0
  5  4  2  0
  6  4  1  0
  7  6  1  0
  8  9  1  0
  7  8  1  6
  9 17  1  0
 10 11  1  0
 10  9  2  0
 11 12  1  0
 12 17  2  0
 12 13  1  0
 13 14  2  0
 14 15  1  0
 16 15  2  0
 17 16  1  0
 18 20  1  0
 18  7  1  0
 19 18  2  0
 21 20  1  0
 22 24  1  0
 22 21  1  0
 23 22  2  0
M  END
$$$$
