AWG.pdb
     RDKit          3D

 24 25  0  0  1  0  0  0  0  0999 V2000
   29.3246  -18.6244  -14.4107 C   0  0  0  0  0  0  0  0  0  0  0  0
   27.8787  -18.6277  -13.9751 C   0  0  2  0  0  0  0  0  0  0  0  0
   27.5562  -17.3812  -13.3211 N   0  0  0  0  0  0  0  0  0  0  0  0
   27.6914  -19.7955  -13.0857 C   0  0  0  0  0  0  0  0  0  0  0  0
   27.8912  -20.9326  -13.6038 O   0  0  0  0  0  0  0  0  0  0  0  0
   27.3170  -19.7260  -11.7413 N   0  0  0  0  0  0  0  0  0  0  0  0
   27.0407  -20.9476  -11.0104 C   0  0  1  0  0  0  0  0  0  0  0  0
   27.8144  -21.1238   -9.7634 C   0  0  0  0  0  0  0  0  0  0  0  0
   27.2074  -20.5044   -8.5834 C   0  0  0  0  0  0  0  0  0  0  0  0
   26.0150  -19.8585   -8.3990 C   0  0  0  0  0  0  0  0  0  0  0  0
   25.9632  -19.4749   -7.0985 N   0  0  0  0  0  0  0  0  0  0  0  0
   27.0661  -19.8476   -6.4551 C   0  0  0  0  0  0  0  0  0  0  0  0
   27.4718  -19.6820   -5.1274 C   0  0  0  0  0  0  0  0  0  0  0  0
   28.6922  -20.1894   -4.7685 C   0  0  0  0  0  0  0  0  0  0  0  0
   29.5262  -20.8469   -5.6457 C   0  0  0  0  0  0  0  0  0  0  0  0
   29.1066  -21.0015   -6.9580 C   0  0  0  0  0  0  0  0  0  0  0  0
   27.8722  -20.4952   -7.3464 C   0  0  0  0  0  0  0  0  0  0  0  0
   25.5544  -21.0172  -10.7308 C   0  0  0  0  0  0  0  0  0  0  0  0
   24.9304  -20.0676  -10.2188 O   0  0  0  0  0  0  0  0  0  0  0  0
   24.8782  -22.2134  -11.0734 N   0  0  0  0  0  0  0  0  0  0  0  0
   24.2665  -22.3918  -12.3903 C   0  0  0  0  0  0  0  0  0  0  0  0
   22.9912  -21.6704  -12.4071 C   0  0  0  0  0  0  0  0  0  0  0  0
   22.9453  -20.4671  -12.0973 O   0  0  0  0  0  0  0  0  0  0  0  0
   21.8418  -22.3295  -12.7679 O   0  0  0  0  0  0  0  0  0  0  0  0
  2  1  1  1
  2  3  1  0
  4  2  1  0
  5  4  2  0
  6  4  1  0
  7  6  1  0
  8  9  1  0
  7  8  1  1
  9 17  1  0
 10 11  1  0
 10  9  2  0
 11 12  1  0
 12 17  2  0
 12 13  1  0
 13 14  2  0
 14 15  1  0
 16 15  2  0
 17 16  1  0
 18 20  1  0
 18  7  1  0
 19 18  2  0
 21 20  1  0
 22 24  1  0
 22 21  1  0
 23 22  2  0
M  END
$$$$
