GPF.pdb
     RDKit          3D

 23 24  0  0  1  0  0  0  0  0999 V2000
    6.9708  -13.7564   19.7364 N   0  0  0  0  0  0  0  0  0  0  0  0
    6.5613  -14.3116   20.9809 C   0  0  0  0  0  0  0  0  0  0  0  0
    7.5875  -14.2161   22.0394 C   0  0  0  0  0  0  0  0  0  0  0  0
    8.7958  -14.2491   21.7214 O   0  0  0  0  0  0  0  0  0  0  0  0
    7.2342  -14.0883   23.4018 N   0  0  0  0  0  0  0  0  0  0  0  0
    5.8745  -14.1328   23.9556 C   0  0  0  0  0  0  0  0  0  0  0  0
    5.9803  -13.0017   24.9877 C   0  0  0  0  0  0  0  0  0  0  0  0
    7.2832  -13.3759   25.6609 C   0  0  0  0  0  0  0  0  0  0  0  0
    8.1139  -13.8887   24.5359 C   0  0  1  0  0  0  0  0  0  0  0  0
    8.7351  -15.1861   24.9252 C   0  0  0  0  0  0  0  0  0  0  0  0
    8.2642  -16.2855   24.4797 O   0  0  0  0  0  0  0  0  0  0  0  0
    9.8526  -15.2129   25.7921 N   0  0  0  0  0  0  0  0  0  0  0  0
   10.6611  -16.4240   25.9998 C   0  0  1  0  0  0  0  0  0  0  0  0
   11.8504  -16.0005   26.8080 C   0  0  0  0  0  0  0  0  0  0  0  0
   11.5194  -15.4734   28.1393 C   0  0  0  0  0  0  0  0  0  0  0  0
   11.6220  -16.2471   29.2775 C   0  0  0  0  0  0  0  0  0  0  0  0
   11.3125  -15.7559   30.5316 C   0  0  0  0  0  0  0  0  0  0  0  0
   10.8832  -14.4563   30.6980 C   0  0  0  0  0  0  0  0  0  0  0  0
   10.7755  -13.6705   29.5700 C   0  0  0  0  0  0  0  0  0  0  0  0
   11.0865  -14.1685   28.3214 C   0  0  0  0  0  0  0  0  0  0  0  0
    9.8431  -17.4664   26.6049 C   0  0  0  0  0  0  0  0  0  0  0  0
    8.5956  -17.1695   27.1145 O   0  0  0  0  0  0  0  0  0  0  0  0
   10.2558  -18.6439   26.6728 O   0  0  0  0  0  0  0  0  0  0  0  0
  1  2  1  0
  3  2  1  0
  3  4  2  0
  5  3  1  0
  6  5  1  0
  7  6  1  0
  8  7  1  0
  8  9  1  0
  9  5  1  0
  9 10  1  1
 10 11  2  0
 12 10  1  0
 12 13  1  0
 13 14  1  1
 14 15  1  0
 15 20  1  0
 16 15  2  0
 16 17  1  0
 17 18  2  0
 18 19  1  0
 20 19  2  0
 21 22  1  0
 21 13  1  0
 23 21  2  0
M  END
$$$$
