GPF.pdb
     RDKit          3D

 23 24  0  0  1  0  0  0  0  0999 V2000
   11.1495  -17.5517   18.6393 N   0  0  0  0  0  0  0  0  0  0  0  0
    9.8139  -17.4054   19.1081 C   0  0  0  0  0  0  0  0  0  0  0  0
    9.6742  -16.4247   20.2041 C   0  0  0  0  0  0  0  0  0  0  0  0
   10.6969  -16.0378   20.8097 O   0  0  0  0  0  0  0  0  0  0  0  0
    8.4117  -15.9147   20.5829 N   0  0  0  0  0  0  0  0  0  0  0  0
    7.1310  -16.1777   19.9135 C   0  0  0  0  0  0  0  0  0  0  0  0
    6.5175  -14.7720   19.9713 C   0  0  0  0  0  0  0  0  0  0  0  0
    6.7670  -14.4316   21.4248 C   0  0  0  0  0  0  0  0  0  0  0  0
    8.1017  -15.0362   21.6928 C   0  0  1  0  0  0  0  0  0  0  0  0
    8.0483  -15.8228   22.9574 C   0  0  0  0  0  0  0  0  0  0  0  0
    7.8852  -17.0882   22.9229 O   0  0  0  0  0  0  0  0  0  0  0  0
    8.1779  -15.1759   24.2086 N   0  0  0  0  0  0  0  0  0  0  0  0
    8.2482  -15.9177   25.4768 C   0  0  1  0  0  0  0  0  0  0  0  0
    8.6350  -14.9190   26.5257 C   0  0  0  0  0  0  0  0  0  0  0  0
    7.8453  -13.6798   26.5004 C   0  0  0  0  0  0  0  0  0  0  0  0
    8.3905  -12.4741   26.1086 C   0  0  0  0  0  0  0  0  0  0  0  0
    7.6520  -11.3063   26.0826 C   0  0  0  0  0  0  0  0  0  0  0  0
    6.3236  -11.2991   26.4518 C   0  0  0  0  0  0  0  0  0  0  0  0
    5.7643  -12.4963   26.8458 C   0  0  0  0  0  0  0  0  0  0  0  0
    6.5085  -13.6579   26.8690 C   0  0  0  0  0  0  0  0  0  0  0  0
    6.9878  -16.6076   25.7163 C   0  0  0  0  0  0  0  0  0  0  0  0
    6.9248  -17.6618   26.6044 O   0  0  0  0  0  0  0  0  0  0  0  0
    5.9450  -16.2577   25.1233 O   0  0  0  0  0  0  0  0  0  0  0  0
  1  2  1  0
  3  2  1  0
  3  4  2  0
  5  3  1  0
  6  5  1  0
  7  6  1  0
  8  7  1  0
  8  9  1  0
  9  5  1  0
  9 10  1  1
 10 11  2  0
 12 10  1  0
 12 13  1  0
 13 14  1  1
 14 15  1  0
 15 20  1  0
 16 15  2  0
 16 17  1  0
 17 18  2  0
 18 19  1  0
 20 19  2  0
 21 22  1  0
 21 13  1  0
 23 21  2  0
M  END
$$$$
