GPF.pdb
     RDKit          3D

 23 24  0  0  1  0  0  0  0  0999 V2000
   11.0585  -17.5352   18.5976 N   0  0  0  0  0  0  0  0  0  0  0  0
    9.7378  -17.4421   19.1191 C   0  0  0  0  0  0  0  0  0  0  0  0
    9.6126  -16.5024   20.2522 C   0  0  0  0  0  0  0  0  0  0  0  0
   10.6379  -16.1722   20.8863 O   0  0  0  0  0  0  0  0  0  0  0  0
    8.3611  -15.9690   20.6350 N   0  0  0  0  0  0  0  0  0  0  0  0
    7.0708  -16.2215   19.9798 C   0  0  0  0  0  0  0  0  0  0  0  0
    6.4786  -14.8062   20.0247 C   0  0  0  0  0  0  0  0  0  0  0  0
    6.7456  -14.4511   21.4715 C   0  0  0  0  0  0  0  0  0  0  0  0
    8.0735  -15.0719   21.7361 C   0  0  1  0  0  0  0  0  0  0  0  0
    8.0194  -15.8415   23.0111 C   0  0  0  0  0  0  0  0  0  0  0  0
    7.8518  -17.1066   22.9936 O   0  0  0  0  0  0  0  0  0  0  0  0
    8.1534  -15.1785   24.2534 N   0  0  0  0  0  0  0  0  0  0  0  0
    8.2432  -15.9045   25.5295 C   0  0  1  0  0  0  0  0  0  0  0  0
    8.5917  -14.8827   26.5695 C   0  0  0  0  0  0  0  0  0  0  0  0
    7.7072  -13.7091   26.5835 C   0  0  0  0  0  0  0  0  0  0  0  0
    6.4264  -13.7657   27.0943 C   0  0  0  0  0  0  0  0  0  0  0  0
    5.5912  -12.6648   27.1102 C   0  0  0  0  0  0  0  0  0  0  0  0
    6.0096  -11.4500   26.6099 C   0  0  0  0  0  0  0  0  0  0  0  0
    7.2870  -11.3774   26.0959 C   0  0  0  0  0  0  0  0  0  0  0  0
    8.1148  -12.4813   26.0837 C   0  0  0  0  0  0  0  0  0  0  0  0
    7.0056  -16.6339   25.7711 C   0  0  0  0  0  0  0  0  0  0  0  0
    6.9719  -17.6741   26.6772 O   0  0  0  0  0  0  0  0  0  0  0  0
    5.9563  -16.3312   25.1638 O   0  0  0  0  0  0  0  0  0  0  0  0
  1  2  1  0
  3  2  1  0
  3  4  2  0
  5  3  1  0
  6  5  1  0
  7  6  1  0
  8  7  1  0
  8  9  1  0
  9  5  1  0
  9 10  1  1
 10 11  2  0
 12 10  1  0
 12 13  1  0
 13 14  1  1
 14 15  1  0
 15 20  1  0
 16 15  2  0
 16 17  1  0
 17 18  2  0
 18 19  1  0
 20 19  2  0
 21 22  1  0
 21 13  1  0
 23 21  2  0
M  END
$$$$
