GPF.pdb
     RDKit          3D

 23 24  0  0  1  0  0  0  0  0999 V2000
    5.4711  -19.2499   21.8582 N   0  0  0  0  0  0  0  0  0  0  0  0
    5.6595  -17.8636   22.1182 C   0  0  0  0  0  0  0  0  0  0  0  0
    7.0580  -17.4151   21.9585 C   0  0  0  0  0  0  0  0  0  0  0  0
    7.9714  -18.2677   21.9252 O   0  0  0  0  0  0  0  0  0  0  0  0
    7.3861  -16.0453   21.8429 N   0  0  0  0  0  0  0  0  0  0  0  0
    6.4538  -14.9154   21.9514 C   0  0  0  0  0  0  0  0  0  0  0  0
    6.9846  -14.0340   20.8126 C   0  0  0  0  0  0  0  0  0  0  0  0
    8.4662  -14.0642   21.1203 C   0  0  0  0  0  0  0  0  0  0  0  0
    8.6878  -15.4581   21.5963 C   0  0  1  0  0  0  0  0  0  0  0  0
    9.4766  -15.4343   22.8604 C   0  0  0  0  0  0  0  0  0  0  0  0
   10.7292  -15.1913   22.8340 O   0  0  0  0  0  0  0  0  0  0  0  0
    8.8457  -15.6807   24.1023 N   0  0  0  0  0  0  0  0  0  0  0  0
    9.5994  -15.8025   25.3596 C   0  0  1  0  0  0  0  0  0  0  0  0
    9.7084  -14.4159   25.9189 C   0  0  0  0  0  0  0  0  0  0  0  0
    8.4199  -13.8046   26.2736 C   0  0  0  0  0  0  0  0  0  0  0  0
    8.3413  -12.5767   26.8985 C   0  0  0  0  0  0  0  0  0  0  0  0
    7.1322  -11.9974   27.2335 C   0  0  0  0  0  0  0  0  0  0  0  0
    5.9403  -12.6314   26.9530 C   0  0  0  0  0  0  0  0  0  0  0  0
    6.0022  -13.8593   26.3287 C   0  0  0  0  0  0  0  0  0  0  0  0
    7.2136  -14.4308   25.9975 C   0  0  0  0  0  0  0  0  0  0  0  0
    8.9504  -16.7711   26.2329 C   0  0  0  0  0  0  0  0  0  0  0  0
    7.8169  -17.4390   25.8169 O   0  0  0  0  0  0  0  0  0  0  0  0
    9.4075  -17.0129   27.3704 O   0  0  0  0  0  0  0  0  0  0  0  0
  1  2  1  0
  3  2  1  0
  3  4  2  0
  5  3  1  0
  6  5  1  0
  7  6  1  0
  8  7  1  0
  8  9  1  0
  9  5  1  0
  9 10  1  1
 10 11  2  0
 12 10  1  0
 12 13  1  0
 13 14  1  1
 14 15  1  0
 15 20  1  0
 16 15  2  0
 16 17  1  0
 17 18  2  0
 18 19  1  0
 20 19  2  0
 21 22  1  0
 21 13  1  0
 23 21  2  0
M  END
$$$$
