WKD.pdb
     RDKit          3D

 32 33  0  0  1  0  0  0  0  0999 V2000
    6.5975  -17.1741   25.4738 N   0  0  0  0  0  0  0  0  0  0  0  0
    6.6989  -16.0577   24.5761 C   0  0  1  0  0  0  0  0  0  0  0  0
    7.8341  -15.1363   24.8637 C   0  0  0  0  0  0  0  0  0  0  0  0
    7.7678  -14.3936   26.1188 C   0  0  0  0  0  0  0  0  0  0  0  0
    8.3661  -14.7859   27.3225 C   0  0  0  0  0  0  0  0  0  0  0  0
    8.1042  -13.8404   28.2341 N   0  0  0  0  0  0  0  0  0  0  0  0
    7.3677  -12.8697   27.6598 C   0  0  0  0  0  0  0  0  0  0  0  0
    6.8561  -11.7049   28.1895 C   0  0  0  0  0  0  0  0  0  0  0  0
    6.1215  -10.8660   27.3963 C   0  0  0  0  0  0  0  0  0  0  0  0
    5.8765  -11.1527   26.0774 C   0  0  0  0  0  0  0  0  0  0  0  0
    6.3854  -12.3151   25.5428 C   0  0  0  0  0  0  0  0  0  0  0  0
    7.1343  -13.1863   26.3188 C   0  0  0  0  0  0  0  0  0  0  0  0
    6.8857  -16.5749   23.1818 C   0  0  0  0  0  0  0  0  0  0  0  0
    5.8963  -16.9975   22.5185 O   0  0  0  0  0  0  0  0  0  0  0  0
    8.1630  -16.5903   22.6135 N   0  0  0  0  0  0  0  0  0  0  0  0
    8.6945  -15.6674   21.6737 C   0  0  1  0  0  0  0  0  0  0  0  0
    8.0553  -14.2972   21.6406 C   0  0  0  0  0  0  0  0  0  0  0  0
    7.2509  -14.1508   20.4023 C   0  0  0  0  0  0  0  0  0  0  0  0
    8.1663  -13.8389   19.2211 C   0  0  0  0  0  0  0  0  0  0  0  0
    7.3737  -13.6335   17.9560 C   0  0  0  0  0  0  0  0  0  0  0  0
    8.3395  -13.5316   16.8736 N   0  0  0  0  0  0  0  0  0  0  0  0
   10.1411  -15.6997   21.6074 C   0  0  0  0  0  0  0  0  0  0  0  0
   10.7191  -14.9297   20.7803 O   0  0  0  0  0  0  0  0  0  0  0  0
   10.9823  -16.5179   22.3867 N   0  0  0  0  0  0  0  0  0  0  0  0
   12.4525  -16.5027   22.2997 C   0  0  1  0  0  0  0  0  0  0  0  0
   13.0496  -16.7700   23.6413 C   0  0  0  0  0  0  0  0  0  0  0  0
   14.5112  -16.8424   23.5823 C   0  0  0  0  0  0  0  0  0  0  0  0
   15.1757  -16.5408   22.5824 O   0  0  0  0  0  0  0  0  0  0  0  0
   12.8040  -17.6104   21.3789 C   0  0  0  0  0  0  0  0  0  0  0  0
   14.0137  -17.5812   20.6911 O   0  0  0  0  0  0  0  0  0  0  0  0
   15.2754  -17.2725   24.6941 O   0  0  0  0  0  0  0  0  0  0  0  0
   12.0680  -18.5760   21.1854 O   0  0  0  0  0  0  0  0  0  0  0  0
  2  1  1  1
  2 13  1  0
  2  3  1  0
  4  5  2  0
  4  3  1  0
  6  5  1  0
  7 12  2  0
  7  6  1  0
  8  7  1  0
  9 10  1  0
  9  8  2  0
 10 11  2  0
 11 12  1  0
 12  4  1  0
 13 14  2  0
 15 16  1  0
 15 13  1  0
 16 22  1  0
 16 17  1  1
 18 17  1  0
 19 18  1  0
 20 19  1  0
 21 20  1  0
 22 23  2  0
 22 24  1  0
 24 25  1  0
 25 29  1  0
 25 26  1  1
 27 26  1  0
 28 27  2  0
 29 32  2  0
 29 30  1  0
 31 27  1  0
M  END
$$$$
