WKD.pdb
     RDKit          3D

 32 33  0  0  1  0  0  0  0  0999 V2000
    6.5392  -17.3117   25.4246 N   0  0  0  0  0  0  0  0  0  0  0  0
    7.0021  -16.1048   24.7991 C   0  0  1  0  0  0  0  0  0  0  0  0
    8.1977  -15.4944   25.4459 C   0  0  0  0  0  0  0  0  0  0  0  0
    7.9435  -14.5999   26.5713 C   0  0  0  0  0  0  0  0  0  0  0  0
    8.2017  -14.8981   27.9148 C   0  0  0  0  0  0  0  0  0  0  0  0
    7.8611  -13.8263   28.6422 N   0  0  0  0  0  0  0  0  0  0  0  0
    7.3996  -12.8659   27.8182 C   0  0  0  0  0  0  0  0  0  0  0  0
    6.9310  -11.6000   28.0958 C   0  0  0  0  0  0  0  0  0  0  0  0
    6.5042  -10.7969   27.0734 C   0  0  0  0  0  0  0  0  0  0  0  0
    6.5288  -11.2182   25.7681 C   0  0  0  0  0  0  0  0  0  0  0  0
    6.9961  -12.4820   25.4849 C   0  0  0  0  0  0  0  0  0  0  0  0
    7.4366  -13.3206   26.4973 C   0  0  0  0  0  0  0  0  0  0  0  0
    7.3690  -16.4077   23.3778 C   0  0  0  0  0  0  0  0  0  0  0  0
    7.6536  -17.5886   23.0284 O   0  0  0  0  0  0  0  0  0  0  0  0
    7.3975  -15.3763   22.4344 N   0  0  0  0  0  0  0  0  0  0  0  0
    7.9970  -15.4080   21.1472 C   0  0  1  0  0  0  0  0  0  0  0  0
    7.5610  -14.3347   20.1751 C   0  0  0  0  0  0  0  0  0  0  0  0
    8.1249  -14.6178   18.8320 C   0  0  0  0  0  0  0  0  0  0  0  0
    7.5547  -13.6365   17.8110 C   0  0  0  0  0  0  0  0  0  0  0  0
    7.9364  -14.0274   16.4065 C   0  0  0  0  0  0  0  0  0  0  0  0
    7.5798  -12.9057   15.5526 N   0  0  0  0  0  0  0  0  0  0  0  0
    9.4170  -15.6903   21.1929 C   0  0  0  0  0  0  0  0  0  0  0  0
   10.0689  -15.3142   22.2150 O   0  0  0  0  0  0  0  0  0  0  0  0
   10.1564  -16.3540   20.1942 N   0  0  0  0  0  0  0  0  0  0  0  0
   11.5898  -16.6724   20.3091 C   0  0  1  0  0  0  0  0  0  0  0  0
   11.8331  -17.5197   21.5135 C   0  0  0  0  0  0  0  0  0  0  0  0
   13.2105  -18.0154   21.5615 C   0  0  0  0  0  0  0  0  0  0  0  0
   14.0385  -17.8362   20.6589 O   0  0  0  0  0  0  0  0  0  0  0  0
   11.9196  -17.4496   19.0902 C   0  0  0  0  0  0  0  0  0  0  0  0
   13.2399  -17.8072   18.8336 O   0  0  0  0  0  0  0  0  0  0  0  0
   13.6938  -18.7489   22.6721 O   0  0  0  0  0  0  0  0  0  0  0  0
   11.0703  -17.8036   18.2747 O   0  0  0  0  0  0  0  0  0  0  0  0
  2  1  1  1
  2 13  1  0
  2  3  1  0
  4  5  2  0
  4  3  1  0
  6  5  1  0
  7 12  2  0
  7  6  1  0
  8  7  1  0
  9 10  1  0
  9  8  2  0
 10 11  2  0
 11 12  1  0
 12  4  1  0
 13 14  2  0
 15 16  1  0
 15 13  1  0
 16 22  1  0
 16 17  1  1
 18 17  1  0
 19 18  1  0
 20 19  1  0
 21 20  1  0
 22 23  2  0
 22 24  1  0
 24 25  1  0
 25 29  1  0
 25 26  1  1
 27 26  1  0
 28 27  2  0
 29 32  2  0
 29 30  1  0
 31 27  1  0
M  END
$$$$
