WKD.pdb
     RDKit          3D

 32 33  0  0  1  0  0  0  0  0999 V2000
    6.5792  -18.1552   24.6944 N   0  0  0  0  0  0  0  0  0  0  0  0
    6.6856  -16.7702   24.3300 C   0  0  1  0  0  0  0  0  0  0  0  0
    7.4837  -15.9427   25.2780 C   0  0  0  0  0  0  0  0  0  0  0  0
    6.7599  -14.9017   26.0017 C   0  0  0  0  0  0  0  0  0  0  0  0
    5.5145  -15.0646   26.6207 C   0  0  0  0  0  0  0  0  0  0  0  0
    5.1913  -13.8998   27.1973 N   0  0  0  0  0  0  0  0  0  0  0  0
    6.1763  -13.0097   26.9697 C   0  0  0  0  0  0  0  0  0  0  0  0
    6.2955  -11.6916   27.3539 C   0  0  0  0  0  0  0  0  0  0  0  0
    7.4059  -10.9787   26.9913 C   0  0  0  0  0  0  0  0  0  0  0  0
    8.4130  -11.5419   26.2496 C   0  0  0  0  0  0  0  0  0  0  0  0
    8.2992  -12.8585   25.8631 C   0  0  0  0  0  0  0  0  0  0  0  0
    7.1878  -13.6091   26.2144 C   0  0  0  0  0  0  0  0  0  0  0  0
    7.3458  -16.6735   22.9879 C   0  0  0  0  0  0  0  0  0  0  0  0
    8.1220  -17.5880   22.5895 O   0  0  0  0  0  0  0  0  0  0  0  0
    7.1015  -15.5635   22.1737 N   0  0  0  0  0  0  0  0  0  0  0  0
    7.8895  -15.1108   21.0822 C   0  0  1  0  0  0  0  0  0  0  0  0
    7.4872  -13.7907   20.4636 C   0  0  0  0  0  0  0  0  0  0  0  0
    8.4040  -13.4636   19.3435 C   0  0  0  0  0  0  0  0  0  0  0  0
    7.8006  -13.9349   18.0228 C   0  0  0  0  0  0  0  0  0  0  0  0
    8.7608  -13.7283   16.8798 C   0  0  0  0  0  0  0  0  0  0  0  0
    8.0532  -14.1137   15.6692 N   0  0  0  0  0  0  0  0  0  0  0  0
    9.3088  -15.3139   21.2882 C   0  0  0  0  0  0  0  0  0  0  0  0
    9.7911  -15.0481   22.4318 O   0  0  0  0  0  0  0  0  0  0  0  0
   10.2207  -15.7868   20.3242 N   0  0  0  0  0  0  0  0  0  0  0  0
   11.6434  -16.0503   20.5996 C   0  0  1  0  0  0  0  0  0  0  0  0
   11.7772  -17.0822   21.6697 C   0  0  0  0  0  0  0  0  0  0  0  0
   13.1676  -17.5076   21.8453 C   0  0  0  0  0  0  0  0  0  0  0  0
   14.1226  -17.0076   21.2368 O   0  0  0  0  0  0  0  0  0  0  0  0
   12.1973  -16.5855   19.3326 C   0  0  0  0  0  0  0  0  0  0  0  0
   13.5723  -16.5719   19.1181 O   0  0  0  0  0  0  0  0  0  0  0  0
   13.5154  -18.5437   22.7456 O   0  0  0  0  0  0  0  0  0  0  0  0
   11.4914  -17.0517   18.4404 O   0  0  0  0  0  0  0  0  0  0  0  0
  2  1  1  1
  2 13  1  0
  2  3  1  0
  4  5  2  0
  4  3  1  0
  6  5  1  0
  7 12  2  0
  7  6  1  0
  8  7  1  0
  9 10  1  0
  9  8  2  0
 10 11  2  0
 11 12  1  0
 12  4  1  0
 13 14  2  0
 15 16  1  0
 15 13  1  0
 16 22  1  0
 16 17  1  1
 18 17  1  0
 19 18  1  0
 20 19  1  0
 21 20  1  0
 22 23  2  0
 22 24  1  0
 24 25  1  0
 25 29  1  0
 25 26  1  1
 27 26  1  0
 28 27  2  0
 29 32  2  0
 29 30  1  0
 31 27  1  0
M  END
$$$$
