WKD.pdb
     RDKit          3D

 32 33  0  0  1  0  0  0  0  0999 V2000
    6.6443  -17.0715   25.3014 N   0  0  0  0  0  0  0  0  0  0  0  0
    7.1240  -15.8858   24.6485 C   0  0  1  0  0  0  0  0  0  0  0  0
    8.3205  -15.2704   25.2889 C   0  0  0  0  0  0  0  0  0  0  0  0
    8.0726  -14.4185   26.4483 C   0  0  0  0  0  0  0  0  0  0  0  0
    8.4809  -14.6977   27.7582 C   0  0  0  0  0  0  0  0  0  0  0  0
    8.0926  -13.6758   28.5319 N   0  0  0  0  0  0  0  0  0  0  0  0
    7.4576  -12.7650   27.7692 C   0  0  0  0  0  0  0  0  0  0  0  0
    6.8812  -11.5605   28.1098 C   0  0  0  0  0  0  0  0  0  0  0  0
    6.2800  -10.8006   27.1436 C   0  0  0  0  0  0  0  0  0  0  0  0
    6.2331  -11.2059   25.8339 C   0  0  0  0  0  0  0  0  0  0  0  0
    6.8075  -12.4084   25.4879 C   0  0  0  0  0  0  0  0  0  0  0  0
    7.4253  -13.2020   26.4422 C   0  0  0  0  0  0  0  0  0  0  0  0
    7.4990  -16.2291   23.2385 C   0  0  0  0  0  0  0  0  0  0  0  0
    7.8409  -17.4079   22.9366 O   0  0  0  0  0  0  0  0  0  0  0  0
    7.4711  -15.2378   22.2530 N   0  0  0  0  0  0  0  0  0  0  0  0
    8.1832  -15.2304   21.0241 C   0  0  1  0  0  0  0  0  0  0  0  0
    7.9497  -14.0421   20.1182 C   0  0  0  0  0  0  0  0  0  0  0  0
    7.9644  -14.4832   18.7015 C   0  0  0  0  0  0  0  0  0  0  0  0
    7.7065  -13.2916   17.7829 C   0  0  0  0  0  0  0  0  0  0  0  0
    7.6904  -13.7117   16.3357 C   0  0  0  0  0  0  0  0  0  0  0  0
    8.9832  -14.3208   16.0664 N   0  0  0  0  0  0  0  0  0  0  0  0
    9.5574  -15.6660   21.1655 C   0  0  0  0  0  0  0  0  0  0  0  0
   10.1056  -15.5552   22.3050 O   0  0  0  0  0  0  0  0  0  0  0  0
   10.3574  -16.2104   20.1417 N   0  0  0  0  0  0  0  0  0  0  0  0
   11.7295  -16.7047   20.3472 C   0  0  1  0  0  0  0  0  0  0  0  0
   11.7149  -17.9116   21.2253 C   0  0  0  0  0  0  0  0  0  0  0  0
   13.0398  -18.5275   21.3266 C   0  0  0  0  0  0  0  0  0  0  0  0
   14.0594  -18.0571   20.8055 O   0  0  0  0  0  0  0  0  0  0  0  0
   12.2164  -17.0867   18.9998 C   0  0  0  0  0  0  0  0  0  0  0  0
   13.4711  -16.6631   18.5716 O   0  0  0  0  0  0  0  0  0  0  0  0
   13.2428  -19.7300   22.0461 O   0  0  0  0  0  0  0  0  0  0  0  0
   11.5567  -17.7733   18.2220 O   0  0  0  0  0  0  0  0  0  0  0  0
  2  1  1  1
  2 13  1  0
  2  3  1  0
  4  5  2  0
  4  3  1  0
  6  5  1  0
  7 12  2  0
  7  6  1  0
  8  7  1  0
  9 10  1  0
  9  8  2  0
 10 11  2  0
 11 12  1  0
 12  4  1  0
 13 14  2  0
 15 16  1  0
 15 13  1  0
 16 22  1  0
 16 17  1  1
 18 17  1  0
 19 18  1  0
 20 19  1  0
 21 20  1  0
 22 23  2  0
 22 24  1  0
 24 25  1  0
 25 29  1  0
 25 26  1  1
 27 26  1  0
 28 27  2  0
 29 32  2  0
 29 30  1  0
 31 27  1  0
M  END
$$$$
