WKD.pdb
     RDKit          3D

 32 33  0  0  1  0  0  0  0  0999 V2000
    7.0904  -18.1036   25.8801 N   0  0  0  0  0  0  0  0  0  0  0  0
    6.6984  -17.2969   24.7586 C   0  0  1  0  0  0  0  0  0  0  0  0
    6.2349  -15.9267   25.1166 C   0  0  0  0  0  0  0  0  0  0  0  0
    7.1051  -15.1550   25.9990 C   0  0  0  0  0  0  0  0  0  0  0  0
    8.2957  -15.6212   26.5695 C   0  0  0  0  0  0  0  0  0  0  0  0
    8.8188  -14.6225   27.2926 N   0  0  0  0  0  0  0  0  0  0  0  0
    8.0117  -13.5478   27.2040 C   0  0  0  0  0  0  0  0  0  0  0  0
    8.1240  -12.2970   27.7717 C   0  0  0  0  0  0  0  0  0  0  0  0
    7.1578  -11.3573   27.5356 C   0  0  0  0  0  0  0  0  0  0  0  0
    6.0702  -11.6255   26.7438 C   0  0  0  0  0  0  0  0  0  0  0  0
    5.9529  -12.8735   26.1739 C   0  0  0  0  0  0  0  0  0  0  0  0
    6.9145  -13.8481   26.3922 C   0  0  0  0  0  0  0  0  0  0  0  0
    7.8723  -17.1452   23.8392 C   0  0  0  0  0  0  0  0  0  0  0  0
    8.6748  -18.1056   23.6627 O   0  0  0  0  0  0  0  0  0  0  0  0
    8.0800  -15.9329   23.1746 N   0  0  0  0  0  0  0  0  0  0  0  0
    9.0868  -15.6422   22.2157 C   0  0  1  0  0  0  0  0  0  0  0  0
    8.8884  -14.3911   21.3897 C   0  0  0  0  0  0  0  0  0  0  0  0
    8.2455  -14.7412   20.0989 C   0  0  0  0  0  0  0  0  0  0  0  0
    8.4616  -13.6176   19.0884 C   0  0  0  0  0  0  0  0  0  0  0  0
    7.6832  -13.8655   17.8221 C   0  0  0  0  0  0  0  0  0  0  0  0
    7.8407  -12.6769   16.9992 N   0  0  0  0  0  0  0  0  0  0  0  0
   10.4264  -15.8715   22.7169 C   0  0  0  0  0  0  0  0  0  0  0  0
   10.8719  -15.0895   23.6121 O   0  0  0  0  0  0  0  0  0  0  0  0
   11.2969  -16.8971   22.2989 N   0  0  0  0  0  0  0  0  0  0  0  0
   12.6909  -17.0278   22.7560 C   0  0  1  0  0  0  0  0  0  0  0  0
   13.2088  -18.3921   22.4426 C   0  0  0  0  0  0  0  0  0  0  0  0
   12.8770  -19.3556   23.4946 C   0  0  0  0  0  0  0  0  0  0  0  0
   12.3361  -19.0475   24.5646 O   0  0  0  0  0  0  0  0  0  0  0  0
   13.4563  -16.0240   21.9781 C   0  0  0  0  0  0  0  0  0  0  0  0
   14.5261  -15.3588   22.5698 O   0  0  0  0  0  0  0  0  0  0  0  0
   13.1607  -20.7352   23.3495 O   0  0  0  0  0  0  0  0  0  0  0  0
   13.1911  -15.7406   20.8115 O   0  0  0  0  0  0  0  0  0  0  0  0
  2  1  1  1
  2 13  1  0
  2  3  1  0
  4  5  2  0
  4  3  1  0
  6  5  1  0
  7 12  2  0
  7  6  1  0
  8  7  1  0
  9 10  1  0
  9  8  2  0
 10 11  2  0
 11 12  1  0
 12  4  1  0
 13 14  2  0
 15 16  1  0
 15 13  1  0
 16 22  1  0
 16 17  1  1
 18 17  1  0
 19 18  1  0
 20 19  1  0
 21 20  1  0
 22 23  2  0
 22 24  1  0
 24 25  1  0
 25 29  1  0
 25 26  1  6
 27 26  1  0
 28 27  2  0
 29 32  2  0
 29 30  1  0
 31 27  1  0
M  END
$$$$
