QEI.pdb
     RDKit          3D

 27 26  0  0  1  0  0  0  0  0999 V2000
    7.9097  -14.2687   16.7286 N   0  0  0  0  0  0  0  0  0  0  0  0
    7.4052  -13.2170   17.5380 C   0  0  0  0  0  0  0  0  0  0  0  0
    6.1938  -12.9117   17.4066 O   0  0  0  0  0  0  0  0  0  0  0  0
    8.3216  -12.5172   18.5074 C   0  0  0  0  0  0  0  0  0  0  0  0
    9.6810  -13.1686   18.5137 C   0  0  0  0  0  0  0  0  0  0  0  0
   10.2390  -13.4643   19.8475 C   0  0  2  0  0  0  0  0  0  0  0  0
   11.5927  -14.0388   19.6815 N   0  0  0  0  0  0  0  0  0  0  0  0
    9.4407  -14.3206   20.7375 C   0  0  0  0  0  0  0  0  0  0  0  0
    8.2518  -13.9600   21.0552 O   0  0  0  0  0  0  0  0  0  0  0  0
    9.8512  -15.5495   21.3142 N   0  0  0  0  0  0  0  0  0  0  0  0
    9.0178  -16.2477   22.3005 C   0  0  1  0  0  0  0  0  0  0  0  0
    9.3424  -17.6862   22.4606 C   0  0  0  0  0  0  0  0  0  0  0  0
    8.5670  -18.4160   23.5189 C   0  0  0  0  0  0  0  0  0  0  0  0
    8.8728  -19.8530   23.5703 C   0  0  0  0  0  0  0  0  0  0  0  0
    9.7020  -20.3786   22.7967 O   0  0  0  0  0  0  0  0  0  0  0  0
    9.2756  -15.5615   23.6036 C   0  0  0  0  0  0  0  0  0  0  0  0
   10.4027  -15.0433   23.7742 O   0  0  0  0  0  0  0  0  0  0  0  0
    8.2575  -20.7205   24.4850 O   0  0  0  0  0  0  0  0  0  0  0  0
    5.9078  -11.9880   25.4099 C   0  0  0  0  0  0  0  0  0  0  0  0
    7.1417  -12.8002   25.1199 C   0  0  0  0  0  0  0  0  0  0  0  0
    7.4764  -13.7707   26.2043 C   0  0  2  0  0  0  0  0  0  0  0  0
    7.8721  -13.0119   27.4404 C   0  0  0  0  0  0  0  0  0  0  0  0
    8.6221  -14.6874   25.8307 C   0  0  2  0  0  0  0  0  0  0  0  0
    8.3269  -15.4640   24.6488 N   0  0  0  0  0  0  0  0  0  0  0  0
    8.9085  -15.6204   26.9418 C   0  0  0  0  0  0  0  0  0  0  0  0
    8.3533  -16.7465   26.9822 O   0  0  0  0  0  0  0  0  0  0  0  0
    9.7860  -15.3098   27.9761 O   0  0  0  0  0  0  0  0  0  0  0  0
  2  1  1  0
  2  4  1  0
  3  2  2  0
  4  5  1  0
  5  6  1  0
  6  7  1  6
  6  8  1  0
  8  9  2  0
 10  8  1  0
 10 11  1  0
 11 12  1  1
 12 13  1  0
 13 14  1  0
 14 18  1  0
 14 15  2  0
 16 11  1  0
 16 17  2  0
 19 20  1  0
 20 21  1  0
 21 23  1  0
 21 22  1  1
 23 24  1  6
 24 16  1  0
 25 27  1  0
 25 23  1  0
 26 25  2  0
M  END
$$$$
