QEI.pdb
     RDKit          3D

 27 26  0  0  1  0  0  0  0  0999 V2000
    7.5119  -13.0017   18.5608 N   0  0  0  0  0  0  0  0  0  0  0  0
    8.5768  -13.5805   19.3001 C   0  0  0  0  0  0  0  0  0  0  0  0
    9.6932  -13.0062   19.2587 O   0  0  0  0  0  0  0  0  0  0  0  0
    8.3362  -14.8385   20.0932 C   0  0  0  0  0  0  0  0  0  0  0  0
    7.1879  -15.6205   19.5081 C   0  0  0  0  0  0  0  0  0  0  0  0
    6.8584  -16.8815   20.2002 C   0  0  2  0  0  0  0  0  0  0  0  0
    5.6726  -17.4854   19.5526 N   0  0  0  0  0  0  0  0  0  0  0  0
    6.6527  -16.8182   21.6550 C   0  0  0  0  0  0  0  0  0  0  0  0
    5.6490  -16.1693   22.1195 O   0  0  0  0  0  0  0  0  0  0  0  0
    7.4727  -17.4130   22.6477 N   0  0  0  0  0  0  0  0  0  0  0  0
    7.0748  -17.4272   24.0605 C   0  0  1  0  0  0  0  0  0  0  0  0
    7.4407  -18.6704   24.7822 C   0  0  0  0  0  0  0  0  0  0  0  0
    7.1173  -18.6929   26.2481 C   0  0  0  0  0  0  0  0  0  0  0  0
    7.5705  -19.9194   26.9200 C   0  0  0  0  0  0  0  0  0  0  0  0
    8.7833  -20.1639   27.0978 O   0  0  0  0  0  0  0  0  0  0  0  0
    7.8024  -16.2856   24.6954 C   0  0  0  0  0  0  0  0  0  0  0  0
    8.9494  -16.0192   24.2698 O   0  0  0  0  0  0  0  0  0  0  0  0
    6.6765  -20.8873   27.4013 O   0  0  0  0  0  0  0  0  0  0  0  0
    5.3297  -11.7697   26.7170 C   0  0  0  0  0  0  0  0  0  0  0  0
    6.3186  -12.6844   26.0450 C   0  0  0  0  0  0  0  0  0  0  0  0
    7.2123  -13.3948   27.0075 C   0  0  2  0  0  0  0  0  0  0  0  0
    8.1257  -12.3959   27.6619 C   0  0  0  0  0  0  0  0  0  0  0  0
    8.0714  -14.4455   26.3363 C   0  0  2  0  0  0  0  0  0  0  0  0
    7.2742  -15.4938   25.7423 N   0  0  0  0  0  0  0  0  0  0  0  0
    8.9868  -15.0585   27.3228 C   0  0  0  0  0  0  0  0  0  0  0  0
    8.6641  -16.1199   27.9120 O   0  0  0  0  0  0  0  0  0  0  0  0
   10.2235  -14.5073   27.6438 O   0  0  0  0  0  0  0  0  0  0  0  0
  2  1  1  0
  2  4  1  0
  3  2  2  0
  4  5  1  0
  5  6  1  0
  6  7  1  6
  6  8  1  0
  8  9  2  0
 10  8  1  0
 10 11  1  0
 11 12  1  1
 12 13  1  0
 13 14  1  0
 14 18  1  0
 14 15  2  0
 16 11  1  0
 16 17  2  0
 19 20  1  0
 20 21  1  0
 21 23  1  0
 21 22  1  6
 23 24  1  1
 24 16  1  0
 25 27  1  0
 25 23  1  0
 26 25  2  0
M  END
$$$$
