QEI.pdb
     RDKit          3D

 27 26  0  0  1  0  0  0  0  0999 V2000
    7.4072  -15.7409   17.2392 N   0  0  0  0  0  0  0  0  0  0  0  0
    7.4810  -14.3831   16.8310 C   0  0  0  0  0  0  0  0  0  0  0  0
    7.5255  -14.1479   15.5979 O   0  0  0  0  0  0  0  0  0  0  0  0
    7.5029  -13.2926   17.8701 C   0  0  0  0  0  0  0  0  0  0  0  0
    7.3412  -13.8752   19.2510 C   0  0  0  0  0  0  0  0  0  0  0  0
    8.4999  -13.7122   20.1503 C   0  0  2  0  0  0  0  0  0  0  0  0
    9.7409  -13.9247   19.3727 N   0  0  0  0  0  0  0  0  0  0  0  0
    8.5288  -14.5355   21.3686 C   0  0  0  0  0  0  0  0  0  0  0  0
    7.5365  -14.4916   22.1796 O   0  0  0  0  0  0  0  0  0  0  0  0
    9.5729  -15.4068   21.7710 N   0  0  0  0  0  0  0  0  0  0  0  0
    9.4236  -16.2953   22.9299 C   0  0  1  0  0  0  0  0  0  0  0  0
   10.4391  -17.3741   23.0031 C   0  0  0  0  0  0  0  0  0  0  0  0
   10.2836  -18.4849   22.0052 C   0  0  0  0  0  0  0  0  0  0  0  0
   11.3938  -19.4481   22.0367 C   0  0  0  0  0  0  0  0  0  0  0  0
   11.6790  -20.0917   23.0695 O   0  0  0  0  0  0  0  0  0  0  0  0
    9.5827  -15.4201   24.1317 C   0  0  0  0  0  0  0  0  0  0  0  0
   10.5243  -14.5947   24.1287 O   0  0  0  0  0  0  0  0  0  0  0  0
   12.1987  -19.7047   20.9168 O   0  0  0  0  0  0  0  0  0  0  0  0
    5.8174  -12.3876   25.7565 C   0  0  0  0  0  0  0  0  0  0  0  0
    7.1743  -12.9954   25.5204 C   0  0  0  0  0  0  0  0  0  0  0  0
    7.6817  -13.7752   26.6884 C   0  0  2  0  0  0  0  0  0  0  0  0
    7.9977  -12.8292   27.8133 C   0  0  0  0  0  0  0  0  0  0  0  0
    8.9387  -14.5549   26.3650 C   0  0  2  0  0  0  0  0  0  0  0  0
    8.7371  -15.4695   25.2650 N   0  0  0  0  0  0  0  0  0  0  0  0
    9.3705  -15.3339   27.5455 C   0  0  0  0  0  0  0  0  0  0  0  0
    9.8202  -14.7475   28.5613 O   0  0  0  0  0  0  0  0  0  0  0  0
    9.3039  -16.7229   27.5942 O   0  0  0  0  0  0  0  0  0  0  0  0
  2  1  1  0
  2  4  1  0
  3  2  2  0
  4  5  1  0
  5  6  1  0
  6  7  1  6
  6  8  1  0
  8  9  2  0
 10  8  1  0
 10 11  1  0
 11 12  1  6
 12 13  1  0
 13 14  1  0
 14 18  1  0
 14 15  2  0
 16 11  1  0
 16 17  2  0
 19 20  1  0
 20 21  1  0
 21 23  1  0
 21 22  1  1
 23 24  1  6
 24 16  1  0
 25 27  1  0
 25 23  1  0
 26 25  2  0
M  END
$$$$
