QEI.pdb
     RDKit          3D

 27 26  0  0  1  0  0  0  0  0999 V2000
    8.5285  -12.0495   19.4130 N   0  0  0  0  0  0  0  0  0  0  0  0
    8.4116  -12.9068   18.2874 C   0  0  0  0  0  0  0  0  0  0  0  0
    8.3930  -12.3742   17.1499 O   0  0  0  0  0  0  0  0  0  0  0  0
    8.3158  -14.3962   18.4916 C   0  0  0  0  0  0  0  0  0  0  0  0
    8.2667  -14.7259   19.9618 C   0  0  0  0  0  0  0  0  0  0  0  0
    8.1218  -16.1577   20.2886 C   0  0  2  0  0  0  0  0  0  0  0  0
    6.8379  -16.6453   19.7373 N   0  0  0  0  0  0  0  0  0  0  0  0
    8.2333  -16.5408   21.7041 C   0  0  0  0  0  0  0  0  0  0  0  0
    7.1722  -16.6114   22.4207 O   0  0  0  0  0  0  0  0  0  0  0  0
    9.4292  -16.8503   22.4006 N   0  0  0  0  0  0  0  0  0  0  0  0
    9.4119  -17.2323   23.8178 C   0  0  1  0  0  0  0  0  0  0  0  0
   10.5112  -18.1458   24.2143 C   0  0  0  0  0  0  0  0  0  0  0  0
   10.5106  -18.5823   25.6507 C   0  0  0  0  0  0  0  0  0  0  0  0
   11.6025  -19.5131   25.9712 C   0  0  0  0  0  0  0  0  0  0  0  0
   12.4189  -19.8948   25.1052 O   0  0  0  0  0  0  0  0  0  0  0  0
    9.5655  -15.9557   24.5810 C   0  0  0  0  0  0  0  0  0  0  0  0
   10.4119  -15.1305   24.1682 O   0  0  0  0  0  0  0  0  0  0  0  0
   11.7965  -20.0289   27.2613 O   0  0  0  0  0  0  0  0  0  0  0  0
    5.7673  -12.5938   25.6776 C   0  0  0  0  0  0  0  0  0  0  0  0
    7.0983  -13.2560   25.4405 C   0  0  0  0  0  0  0  0  0  0  0  0
    7.8130  -13.6105   26.7027 C   0  0  2  0  0  0  0  0  0  0  0  0
    8.1890  -12.3482   27.4278 C   0  0  0  0  0  0  0  0  0  0  0  0
    9.0796  -14.4011   26.4513 C   0  0  2  0  0  0  0  0  0  0  0  0
    8.8155  -15.6276   25.7350 N   0  0  0  0  0  0  0  0  0  0  0  0
    9.7284  -14.7421   27.7356 C   0  0  0  0  0  0  0  0  0  0  0  0
   10.2388  -13.8407   28.4463 O   0  0  0  0  0  0  0  0  0  0  0  0
    9.8070  -16.0462   28.2146 O   0  0  0  0  0  0  0  0  0  0  0  0
  2  1  1  0
  2  4  1  0
  3  2  2  0
  4  5  1  0
  5  6  1  0
  6  7  1  1
  6  8  1  0
  8  9  2  0
 10  8  1  0
 10 11  1  0
 11 12  1  6
 12 13  1  0
 13 14  1  0
 14 18  1  0
 14 15  2  0
 16 11  1  0
 16 17  2  0
 19 20  1  0
 20 21  1  0
 21 23  1  0
 21 22  1  6
 23 24  1  1
 24 16  1  0
 25 27  1  0
 25 23  1  0
 26 25  2  0
M  END
$$$$
