DIV.pdb
     RDKit          3D

 24 23  0  0  1  0  0  0  0  0999 V2000
    8.0616  -14.7940   20.1014 N   0  0  0  0  0  0  0  0  0  0  0  0
    7.4839  -15.3750   21.2754 C   0  0  1  0  0  0  0  0  0  0  0  0
    7.5226  -16.8944   21.1430 C   0  0  0  0  0  0  0  0  0  0  0  0
    6.6778  -17.3062   19.9870 C   0  0  0  0  0  0  0  0  0  0  0  0
    5.8563  -16.5111   19.4553 O   0  0  0  0  0  0  0  0  0  0  0  0
    8.2565  -15.0421   22.5090 C   0  0  0  0  0  0  0  0  0  0  0  0
    9.5051  -14.9303   22.4166 O   0  0  0  0  0  0  0  0  0  0  0  0
    6.8164  -18.5989   19.5029 O   0  0  0  0  0  0  0  0  0  0  0  0
    6.1355  -11.6062   25.9481 C   0  0  0  0  0  0  0  0  0  0  0  0
    7.1504  -12.4040   25.1643 C   0  0  0  0  0  0  0  0  0  0  0  0
    7.3942  -13.7601   25.8318 C   0  0  2  0  0  0  0  0  0  0  0  0
    8.0488  -13.5782   27.1572 C   0  0  0  0  0  0  0  0  0  0  0  0
    8.3740  -14.5136   24.9121 C   0  0  2  0  0  0  0  0  0  0  0  0
    7.5834  -14.8647   23.7215 N   0  0  0  0  0  0  0  0  0  0  0  0
    8.7746  -15.7847   25.5568 C   0  0  0  0  0  0  0  0  0  0  0  0
    7.8250  -16.5858   25.8937 O   0  0  0  0  0  0  0  0  0  0  0  0
   12.7457  -17.2552   25.5186 C   0  0  0  0  0  0  0  0  0  0  0  0
   11.5211  -18.1308   25.3551 C   0  0  1  0  0  0  0  0  0  0  0  0
   11.8683  -19.5041   25.8860 C   0  0  0  0  0  0  0  0  0  0  0  0
   10.3710  -17.5586   26.1559 C   0  0  2  0  0  0  0  0  0  0  0  0
   10.1162  -16.1796   25.8237 N   0  0  0  0  0  0  0  0  0  0  0  0
   10.6845  -17.6665   27.6134 C   0  0  0  0  0  0  0  0  0  0  0  0
   10.9024  -16.6677   28.3442 O   0  0  0  0  0  0  0  0  0  0  0  0
   10.7455  -18.9076   28.2185 O   0  0  0  0  0  0  0  0  0  0  0  0
  2  1  1  6
  2  3  1  0
  4  3  1  0
  4  8  1  0
  5  4  2  0
  6  2  1  0
  7  6  2  0
  9 10  1  0
 10 11  1  0
 11 13  1  0
 11 12  1  1
 13 14  1  6
 14  6  1  0
 15 13  1  0
 15 21  1  0
 16 15  2  0
 18 17  1  1
 18 20  1  0
 19 18  1  0
 20 21  1  6
 20 22  1  0
 22 23  2  0
 22 24  1  0
M  END
$$$$
