DIV.pdb
     RDKit          3D

 24 23  0  0  1  0  0  0  0  0999 V2000
    8.1730  -15.1958   20.1127 N   0  0  0  0  0  0  0  0  0  0  0  0
    7.5715  -15.6250   21.3390 C   0  0  1  0  0  0  0  0  0  0  0  0
    7.6634  -17.1453   21.4269 C   0  0  0  0  0  0  0  0  0  0  0  0
    6.9501  -17.7462   20.2651 C   0  0  0  0  0  0  0  0  0  0  0  0
    7.1359  -18.9465   19.9272 O   0  0  0  0  0  0  0  0  0  0  0  0
    8.2877  -15.0921   22.5359 C   0  0  0  0  0  0  0  0  0  0  0  0
    9.5444  -15.1165   22.5367 O   0  0  0  0  0  0  0  0  0  0  0  0
    6.0665  -16.9464   19.5550 O   0  0  0  0  0  0  0  0  0  0  0  0
    7.1685  -11.5131   27.3915 C   0  0  0  0  0  0  0  0  0  0  0  0
    8.0665  -12.4472   26.6157 C   0  0  0  0  0  0  0  0  0  0  0  0
    7.2958  -13.0919   25.4605 C   0  0  2  0  0  0  0  0  0  0  0  0
    6.1685  -13.9142   25.9811 C   0  0  0  0  0  0  0  0  0  0  0  0
    8.2938  -14.0340   24.7605 C   0  0  2  0  0  0  0  0  0  0  0  0
    7.5548  -14.5851   23.6132 N   0  0  0  0  0  0  0  0  0  0  0  0
    8.6107  -15.1684   25.6573 C   0  0  0  0  0  0  0  0  0  0  0  0
    7.6333  -15.9427   25.9769 O   0  0  0  0  0  0  0  0  0  0  0  0
   10.7830  -17.9710   24.9843 C   0  0  0  0  0  0  0  0  0  0  0  0
   11.1463  -17.5604   26.3958 C   0  0  1  0  0  0  0  0  0  0  0  0
   12.4510  -16.7979   26.3274 C   0  0  0  0  0  0  0  0  0  0  0  0
   10.0681  -16.6613   26.9619 C   0  0  2  0  0  0  0  0  0  0  0  0
    9.9019  -15.4614   26.1811 N   0  0  0  0  0  0  0  0  0  0  0  0
   10.4221  -16.2924   28.3664 C   0  0  0  0  0  0  0  0  0  0  0  0
   10.6978  -15.1181   28.7187 O   0  0  0  0  0  0  0  0  0  0  0  0
   10.4575  -17.2633   29.3494 O   0  0  0  0  0  0  0  0  0  0  0  0
  2  1  1  6
  2  3  1  0
  4  3  1  0
  4  8  1  0
  5  4  2  0
  6  2  1  0
  7  6  2  0
  9 10  1  0
 10 11  1  0
 11 13  1  0
 11 12  1  1
 13 14  1  6
 14  6  1  0
 15 13  1  0
 15 21  1  0
 16 15  2  0
 18 17  1  6
 18 20  1  0
 19 18  1  0
 20 21  1  6
 20 22  1  0
 22 23  2  0
 22 24  1  0
M  END
$$$$
