DIV.pdb
     RDKit          3D

 24 23  0  0  1  0  0  0  0  0999 V2000
    9.4532  -17.8230   15.9932 N   0  0  0  0  0  0  0  0  0  0  0  0
    8.5002  -17.5737   17.0322 C   0  0  1  0  0  0  0  0  0  0  0  0
    7.9571  -18.9086   17.5328 C   0  0  0  0  0  0  0  0  0  0  0  0
    7.0191  -19.4662   16.5184 C   0  0  0  0  0  0  0  0  0  0  0  0
    7.2410  -19.3512   15.2827 O   0  0  0  0  0  0  0  0  0  0  0  0
    9.1169  -16.9023   18.2146 C   0  0  0  0  0  0  0  0  0  0  0  0
   10.3646  -16.9680   18.3522 O   0  0  0  0  0  0  0  0  0  0  0  0
    5.8828  -20.1224   16.9688 O   0  0  0  0  0  0  0  0  0  0  0  0
    6.6903  -12.3659   19.8916 C   0  0  0  0  0  0  0  0  0  0  0  0
    7.7824  -13.3562   19.5633 C   0  0  0  0  0  0  0  0  0  0  0  0
    7.8707  -14.4328   20.6483 C   0  0  2  0  0  0  0  0  0  0  0  0
    8.3166  -13.8369   21.9384 C   0  0  0  0  0  0  0  0  0  0  0  0
    8.9544  -15.4207   20.1760 C   0  0  2  0  0  0  0  0  0  0  0  0
    8.3044  -16.2254   19.1292 N   0  0  0  0  0  0  0  0  0  0  0  0
    9.2948  -16.3430   21.2829 C   0  0  0  0  0  0  0  0  0  0  0  0
    8.3671  -17.1463   21.6714 O   0  0  0  0  0  0  0  0  0  0  0  0
   13.1919  -16.8969   22.9849 C   0  0  0  0  0  0  0  0  0  0  0  0
   12.1838  -18.0140   22.8150 C   0  0  1  0  0  0  0  0  0  0  0  0
   12.4006  -18.9992   23.9422 C   0  0  0  0  0  0  0  0  0  0  0  0
   10.7797  -17.4547   22.8996 C   0  0  2  0  0  0  0  0  0  0  0  0
   10.5582  -16.4058   21.9364 N   0  0  0  0  0  0  0  0  0  0  0  0
   10.5449  -16.9204   24.2756 C   0  0  0  0  0  0  0  0  0  0  0  0
   10.5577  -15.6934   24.5467 O   0  0  0  0  0  0  0  0  0  0  0  0
   10.2991  -17.7882   25.3229 O   0  0  0  0  0  0  0  0  0  0  0  0
  2  1  1  6
  2  3  1  0
  4  3  1  0
  4  8  1  0
  5  4  2  0
  6  2  1  0
  7  6  2  0
  9 10  1  0
 10 11  1  0
 11 13  1  0
 11 12  1  1
 13 14  1  6
 14  6  1  0
 15 13  1  0
 15 21  1  0
 16 15  2  0
 18 17  1  1
 18 20  1  0
 19 18  1  0
 20 21  1  6
 20 22  1  0
 22 23  2  0
 22 24  1  0
M  END
$$$$
