DIV.pdb
     RDKit          3D

 24 23  0  0  1  0  0  0  0  0999 V2000
   11.4816  -17.8015   19.9310 N   0  0  0  0  0  0  0  0  0  0  0  0
   11.0007  -18.0829   21.2498 C   0  0  1  0  0  0  0  0  0  0  0  0
   12.0441  -18.9171   21.9868 C   0  0  0  0  0  0  0  0  0  0  0  0
   12.0899  -20.2814   21.3900 C   0  0  0  0  0  0  0  0  0  0  0  0
   12.9114  -20.5748   20.4797 O   0  0  0  0  0  0  0  0  0  0  0  0
   10.8093  -16.8420   22.0578 C   0  0  0  0  0  0  0  0  0  0  0  0
   11.6910  -15.9485   21.9933 O   0  0  0  0  0  0  0  0  0  0  0  0
   11.1982  -21.2329   21.8634 O   0  0  0  0  0  0  0  0  0  0  0  0
    6.6344  -14.0302   21.4414 C   0  0  0  0  0  0  0  0  0  0  0  0
    8.0168  -14.4961   21.8323 C   0  0  0  0  0  0  0  0  0  0  0  0
    8.0141  -15.0308   23.2669 C   0  0  2  0  0  0  0  0  0  0  0  0
    7.6201  -13.9581   24.2220 C   0  0  0  0  0  0  0  0  0  0  0  0
    9.4701  -15.4327   23.5707 C   0  0  2  0  0  0  0  0  0  0  0  0
    9.6700  -16.7039   22.8564 N   0  0  0  0  0  0  0  0  0  0  0  0
    9.6090  -15.7212   25.0160 C   0  0  0  0  0  0  0  0  0  0  0  0
    8.5953  -16.2609   25.5974 O   0  0  0  0  0  0  0  0  0  0  0  0
    9.7367  -14.4206   29.2694 C   0  0  0  0  0  0  0  0  0  0  0  0
    9.7092  -14.4307   27.7554 C   0  0  1  0  0  0  0  0  0  0  0  0
   10.1721  -13.0706   27.2819 C   0  0  0  0  0  0  0  0  0  0  0  0
   10.6528  -15.4926   27.2325 C   0  0  2  0  0  0  0  0  0  0  0  0
   10.7687  -15.4511   25.7966 N   0  0  0  0  0  0  0  0  0  0  0  0
   10.1577  -16.8397   27.6501 C   0  0  0  0  0  0  0  0  0  0  0  0
    9.0073  -17.2637   27.3743 O   0  0  0  0  0  0  0  0  0  0  0  0
   10.9770  -17.6847   28.3746 O   0  0  0  0  0  0  0  0  0  0  0  0
  2  1  1  6
  2  3  1  0
  4  3  1  0
  4  8  1  0
  5  4  2  0
  6  2  1  0
  7  6  2  0
  9 10  1  0
 10 11  1  0
 11 13  1  0
 11 12  1  1
 13 14  1  6
 14  6  1  0
 15 13  1  0
 15 21  1  0
 16 15  2  0
 18 17  1  1
 18 20  1  0
 19 18  1  0
 20 21  1  6
 20 22  1  0
 22 23  2  0
 22 24  1  0
M  END
$$$$
