DIV.pdb
     RDKit          3D

 24 23  0  0  1  0  0  0  0  0999 V2000
    7.4828  -14.7290   20.2084 N   0  0  0  0  0  0  0  0  0  0  0  0
    7.1037  -15.4335   21.3957 C   0  0  1  0  0  0  0  0  0  0  0  0
    7.2585  -16.9313   21.1502 C   0  0  0  0  0  0  0  0  0  0  0  0
    6.3783  -17.3347   20.0179 C   0  0  0  0  0  0  0  0  0  0  0  0
    5.1480  -17.0593   20.0097 O   0  0  0  0  0  0  0  0  0  0  0  0
    7.9876  -15.1052   22.5534 C   0  0  0  0  0  0  0  0  0  0  0  0
    9.2205  -14.9794   22.3435 O   0  0  0  0  0  0  0  0  0  0  0  0
    6.9488  -18.0281   18.9604 O   0  0  0  0  0  0  0  0  0  0  0  0
    6.1790  -11.7230   26.1121 C   0  0  0  0  0  0  0  0  0  0  0  0
    7.1126  -12.5399   25.2508 C   0  0  0  0  0  0  0  0  0  0  0  0
    7.4725  -13.8533   25.9506 C   0  0  2  0  0  0  0  0  0  0  0  0
    8.2956  -13.5888   27.1634 C   0  0  0  0  0  0  0  0  0  0  0  0
    8.3352  -14.6435   24.9481 C   0  0  2  0  0  0  0  0  0  0  0  0
    7.4319  -14.9472   23.8266 N   0  0  0  0  0  0  0  0  0  0  0  0
    8.7282  -15.9373   25.5508 C   0  0  0  0  0  0  0  0  0  0  0  0
    7.7830  -16.6495   26.0571 O   0  0  0  0  0  0  0  0  0  0  0  0
   11.0200  -18.6285   23.9519 C   0  0  0  0  0  0  0  0  0  0  0  0
   11.3667  -18.5061   25.4209 C   0  0  1  0  0  0  0  0  0  0  0  0
   12.6544  -17.7188   25.5215 C   0  0  0  0  0  0  0  0  0  0  0  0
   10.2657  -17.7634   26.1474 C   0  0  2  0  0  0  0  0  0  0  0  0
   10.0576  -16.4439   25.6064 N   0  0  0  0  0  0  0  0  0  0  0  0
   10.6184  -17.6543   27.5957 C   0  0  0  0  0  0  0  0  0  0  0  0
   10.8888  -16.5622   28.1557 O   0  0  0  0  0  0  0  0  0  0  0  0
   10.6586  -18.7875   28.3860 O   0  0  0  0  0  0  0  0  0  0  0  0
  2  1  1  6
  2  3  1  0
  4  3  1  0
  4  8  1  0
  5  4  2  0
  6  2  1  0
  7  6  2  0
  9 10  1  0
 10 11  1  0
 11 13  1  0
 11 12  1  1
 13 14  1  6
 14  6  1  0
 15 13  1  0
 15 21  1  0
 16 15  2  0
 18 17  1  6
 18 20  1  0
 19 18  1  0
 20 21  1  6
 20 22  1  0
 22 23  2  0
 22 24  1  0
M  END
$$$$
