DIV.pdb
     RDKit          3D

 24 23  0  0  1  0  0  0  0  0999 V2000
    7.8738  -15.0588   20.2565 N   0  0  0  0  0  0  0  0  0  0  0  0
    7.2941  -15.5551   21.4678 C   0  0  1  0  0  0  0  0  0  0  0  0
    7.2487  -17.0787   21.4038 C   0  0  0  0  0  0  0  0  0  0  0  0
    6.3246  -17.4949   20.3118 C   0  0  0  0  0  0  0  0  0  0  0  0
    6.7581  -17.9704   19.2276 O   0  0  0  0  0  0  0  0  0  0  0  0
    8.1126  -15.2104   22.6681 C   0  0  0  0  0  0  0  0  0  0  0  0
    9.3641  -15.1979   22.5509 O   0  0  0  0  0  0  0  0  0  0  0  0
    4.9606  -17.3459   20.5167 O   0  0  0  0  0  0  0  0  0  0  0  0
    5.9409  -11.6584   25.9227 C   0  0  0  0  0  0  0  0  0  0  0  0
    6.9433  -12.4739   25.1410 C   0  0  0  0  0  0  0  0  0  0  0  0
    7.3639  -13.7108   25.9394 C   0  0  2  0  0  0  0  0  0  0  0  0
    8.1248  -13.3117   27.1559 C   0  0  0  0  0  0  0  0  0  0  0  0
    8.3113  -14.5050   25.0200 C   0  0  2  0  0  0  0  0  0  0  0  0
    7.4778  -14.9136   23.8779 N   0  0  0  0  0  0  0  0  0  0  0  0
    8.7404  -15.7434   25.7083 C   0  0  0  0  0  0  0  0  0  0  0  0
    7.8130  -16.5749   26.0330 O   0  0  0  0  0  0  0  0  0  0  0  0
   11.9534  -19.3222   26.4512 C   0  0  0  0  0  0  0  0  0  0  0  0
   11.6369  -17.9658   25.8570 C   0  0  1  0  0  0  0  0  0  0  0  0
   11.4217  -18.1576   24.3719 C   0  0  0  0  0  0  0  0  0  0  0  0
   10.3723  -17.4152   26.4808 C   0  0  2  0  0  0  0  0  0  0  0  0
   10.0870  -16.0767   26.0291 N   0  0  0  0  0  0  0  0  0  0  0  0
   10.5172  -17.4148   27.9684 C   0  0  0  0  0  0  0  0  0  0  0  0
   10.7236  -16.3713   28.6375 O   0  0  0  0  0  0  0  0  0  0  0  0
   10.4255  -18.6001   28.6734 O   0  0  0  0  0  0  0  0  0  0  0  0
  2  1  1  6
  2  3  1  0
  4  3  1  0
  4  8  1  0
  5  4  2  0
  6  2  1  0
  7  6  2  0
  9 10  1  0
 10 11  1  0
 11 13  1  0
 11 12  1  1
 13 14  1  6
 14  6  1  0
 15 13  1  0
 15 21  1  0
 16 15  2  0
 18 17  1  1
 18 20  1  0
 19 18  1  0
 20 21  1  6
 20 22  1  0
 22 23  2  0
 22 24  1  0
M  END
$$$$
