DIV.pdb
     RDKit          3D

 24 23  0  0  1  0  0  0  0  0999 V2000
    7.6430  -14.9182   20.1598 N   0  0  0  0  0  0  0  0  0  0  0  0
    7.1394  -15.4170   21.4037 C   0  0  1  0  0  0  0  0  0  0  0  0
    7.1996  -16.9413   21.3835 C   0  0  0  0  0  0  0  0  0  0  0  0
    6.1734  -17.4587   20.4355 C   0  0  0  0  0  0  0  0  0  0  0  0
    5.9475  -16.8887   19.3339 O   0  0  0  0  0  0  0  0  0  0  0  0
    7.9699  -14.9801   22.5650 C   0  0  0  0  0  0  0  0  0  0  0  0
    9.2033  -14.8165   22.3860 O   0  0  0  0  0  0  0  0  0  0  0  0
    5.4634  -18.5948   20.7959 O   0  0  0  0  0  0  0  0  0  0  0  0
    5.8908  -11.4852   25.8579 C   0  0  0  0  0  0  0  0  0  0  0  0
    6.8840  -12.3079   25.0721 C   0  0  0  0  0  0  0  0  0  0  0  0
    7.2917  -13.5527   25.8647 C   0  0  2  0  0  0  0  0  0  0  0  0
    8.0688  -13.1680   27.0756 C   0  0  0  0  0  0  0  0  0  0  0  0
    8.2188  -14.3600   24.9360 C   0  0  2  0  0  0  0  0  0  0  0  0
    7.3658  -14.7660   23.8075 N   0  0  0  0  0  0  0  0  0  0  0  0
    8.6459  -15.5992   25.6242 C   0  0  0  0  0  0  0  0  0  0  0  0
    7.7116  -16.3576   26.0812 O   0  0  0  0  0  0  0  0  0  0  0  0
   12.6641  -17.0837   25.6795 C   0  0  0  0  0  0  0  0  0  0  0  0
   11.4448  -17.9467   25.4314 C   0  0  1  0  0  0  0  0  0  0  0  0
   11.7509  -19.3311   25.9587 C   0  0  0  0  0  0  0  0  0  0  0  0
   10.2546  -17.3781   26.1740 C   0  0  2  0  0  0  0  0  0  0  0  0
    9.9971  -16.0074   25.8109 N   0  0  0  0  0  0  0  0  0  0  0  0
   10.5068  -17.4611   27.6449 C   0  0  0  0  0  0  0  0  0  0  0  0
   10.7082  -16.4509   28.3647 O   0  0  0  0  0  0  0  0  0  0  0  0
   10.5265  -18.6907   28.2759 O   0  0  0  0  0  0  0  0  0  0  0  0
  2  1  1  6
  2  3  1  0
  4  3  1  0
  4  8  1  0
  5  4  2  0
  6  2  1  0
  7  6  2  0
  9 10  1  0
 10 11  1  0
 11 13  1  0
 11 12  1  1
 13 14  1  6
 14  6  1  0
 15 13  1  0
 15 21  1  0
 16 15  2  0
 18 17  1  1
 18 20  1  0
 19 18  1  0
 20 21  1  6
 20 22  1  0
 22 23  2  0
 22 24  1  0
M  END
$$$$
