DIV.pdb
     RDKit          3D

 24 23  0  0  1  0  0  0  0  0999 V2000
   12.2938  -17.3961   19.7136 N   0  0  0  0  0  0  0  0  0  0  0  0
   11.2635  -17.6925   20.6623 C   0  0  1  0  0  0  0  0  0  0  0  0
   11.7236  -18.8499   21.5434 C   0  0  0  0  0  0  0  0  0  0  0  0
   11.9713  -20.0457   20.6899 C   0  0  0  0  0  0  0  0  0  0  0  0
   12.4502  -21.1091   21.1689 O   0  0  0  0  0  0  0  0  0  0  0  0
   10.9958  -16.5469   21.5816 C   0  0  0  0  0  0  0  0  0  0  0  0
   11.9139  -15.7095   21.7713 O   0  0  0  0  0  0  0  0  0  0  0  0
   11.6597  -19.9623   19.3405 O   0  0  0  0  0  0  0  0  0  0  0  0
    6.5380  -13.9278   21.0227 C   0  0  0  0  0  0  0  0  0  0  0  0
    7.9584  -14.2921   21.3840 C   0  0  0  0  0  0  0  0  0  0  0  0
    8.0133  -14.8981   22.7889 C   0  0  2  0  0  0  0  0  0  0  0  0
    7.5968  -13.8933   23.8063 C   0  0  0  0  0  0  0  0  0  0  0  0
    9.4920  -15.2503   23.0397 C   0  0  2  0  0  0  0  0  0  0  0  0
    9.7480  -16.4329   22.2018 N   0  0  0  0  0  0  0  0  0  0  0  0
    9.6649  -15.6715   24.4483 C   0  0  0  0  0  0  0  0  0  0  0  0
    9.5254  -16.9267   24.6972 O   0  0  0  0  0  0  0  0  0  0  0  0
    9.4374  -13.4122   28.0046 C   0  0  0  0  0  0  0  0  0  0  0  0
   10.6319  -14.3288   27.8430 C   0  0  1  0  0  0  0  0  0  0  0  0
   10.8767  -14.9984   29.1772 C   0  0  0  0  0  0  0  0  0  0  0  0
   10.3316  -15.3832   26.7993 C   0  0  2  0  0  0  0  0  0  0  0  0
    9.9734  -14.7999   25.5311 N   0  0  0  0  0  0  0  0  0  0  0  0
    9.2108  -16.2470   27.2807 C   0  0  0  0  0  0  0  0  0  0  0  0
    8.0064  -16.0310   26.9946 O   0  0  0  0  0  0  0  0  0  0  0  0
    9.4754  -17.3432   28.0799 O   0  0  0  0  0  0  0  0  0  0  0  0
  2  1  1  6
  2  3  1  0
  4  3  1  0
  4  8  1  0
  5  4  2  0
  6  2  1  0
  7  6  2  0
  9 10  1  0
 10 11  1  0
 11 13  1  0
 11 12  1  1
 13 14  1  6
 14  6  1  0
 15 13  1  0
 15 21  1  0
 16 15  2  0
 18 17  1  1
 18 20  1  0
 19 18  1  0
 20 21  1  6
 20 22  1  0
 22 23  2  0
 22 24  1  0
M  END
$$$$
