DIV.pdb
     RDKit          3D

 24 23  0  0  1  0  0  0  0  0999 V2000
    9.3906  -17.6737   17.5309 N   0  0  0  0  0  0  0  0  0  0  0  0
   10.6562  -17.6088   18.1970 C   0  0  1  0  0  0  0  0  0  0  0  0
   11.7143  -17.1465   17.1998 C   0  0  0  0  0  0  0  0  0  0  0  0
   11.7342  -18.0811   16.0397 C   0  0  0  0  0  0  0  0  0  0  0  0
   11.9535  -19.3135   16.1904 O   0  0  0  0  0  0  0  0  0  0  0  0
   10.6601  -16.6088   19.3057 C   0  0  0  0  0  0  0  0  0  0  0  0
   11.7662  -16.2713   19.7983 O   0  0  0  0  0  0  0  0  0  0  0  0
   11.5035  -17.5593   14.7751 O   0  0  0  0  0  0  0  0  0  0  0  0
    7.1368  -12.5803   19.5159 C   0  0  0  0  0  0  0  0  0  0  0  0
    8.3932  -13.3853   19.7492 C   0  0  0  0  0  0  0  0  0  0  0  0
    8.1794  -14.3919   20.8828 C   0  0  2  0  0  0  0  0  0  0  0  0
    8.0025  -13.6843   22.1813 C   0  0  0  0  0  0  0  0  0  0  0  0
    9.4753  -15.2216   20.9611 C   0  0  2  0  0  0  0  0  0  0  0  0
    9.4508  -16.0778   19.7643 N   0  0  0  0  0  0  0  0  0  0  0  0
    9.4143  -16.1186   22.1372 C   0  0  0  0  0  0  0  0  0  0  0  0
    8.3525  -16.8353   22.2626 O   0  0  0  0  0  0  0  0  0  0  0  0
   10.9355  -19.1299   22.8845 C   0  0  0  0  0  0  0  0  0  0  0  0
   11.1728  -18.3407   24.1548 C   0  0  1  0  0  0  0  0  0  0  0  0
   12.5972  -17.8330   24.1169 C   0  0  0  0  0  0  0  0  0  0  0  0
   10.2216  -17.1645   24.2130 C   0  0  2  0  0  0  0  0  0  0  0  0
   10.4335  -16.2454   23.1233 N   0  0  0  0  0  0  0  0  0  0  0  0
   10.4073  -16.4451   25.5100 C   0  0  0  0  0  0  0  0  0  0  0  0
   10.2243  -16.9884   26.6283 O   0  0  0  0  0  0  0  0  0  0  0  0
   10.7982  -15.1194   25.5168 O   0  0  0  0  0  0  0  0  0  0  0  0
  2  1  1  6
  2  3  1  0
  4  3  1  0
  4  8  1  0
  5  4  2  0
  6  2  1  0
  7  6  2  0
  9 10  1  0
 10 11  1  0
 11 13  1  0
 11 12  1  1
 13 14  1  6
 14  6  1  0
 15 13  1  0
 15 21  1  0
 16 15  2  0
 18 17  1  6
 18 20  1  0
 19 18  1  0
 20 21  1  6
 20 22  1  0
 22 23  2  0
 22 24  1  0
M  END
$$$$
