DIV.pdb
     RDKit          3D

 24 23  0  0  1  0  0  0  0  0999 V2000
    8.3520  -15.3152   20.5096 N   0  0  0  0  0  0  0  0  0  0  0  0
    7.7649  -15.8534   21.6993 C   0  0  1  0  0  0  0  0  0  0  0  0
    7.8288  -17.3763   21.6344 C   0  0  0  0  0  0  0  0  0  0  0  0
    7.0027  -17.8520   20.4894 C   0  0  0  0  0  0  0  0  0  0  0  0
    6.4798  -17.0448   19.6743 O   0  0  0  0  0  0  0  0  0  0  0  0
    8.5129  -15.4546   22.9284 C   0  0  0  0  0  0  0  0  0  0  0  0
    9.7661  -15.3803   22.8640 O   0  0  0  0  0  0  0  0  0  0  0  0
    6.8194  -19.2189   20.3382 O   0  0  0  0  0  0  0  0  0  0  0  0
    6.3005  -11.8403   25.9719 C   0  0  0  0  0  0  0  0  0  0  0  0
    7.3263  -12.7144   25.2903 C   0  0  0  0  0  0  0  0  0  0  0  0
    7.6313  -13.9464   26.1465 C   0  0  2  0  0  0  0  0  0  0  0  0
    8.3421  -13.5509   27.3941 C   0  0  0  0  0  0  0  0  0  0  0  0
    8.5844  -14.8188   25.3072 C   0  0  2  0  0  0  0  0  0  0  0  0
    7.8128  -15.1768   24.1062 N   0  0  0  0  0  0  0  0  0  0  0  0
    8.8656  -16.0780   26.0331 C   0  0  0  0  0  0  0  0  0  0  0  0
    7.8464  -16.7745   26.3979 O   0  0  0  0  0  0  0  0  0  0  0  0
   10.9596  -18.9189   24.8380 C   0  0  0  0  0  0  0  0  0  0  0  0
   11.3179  -18.7284   26.2969 C   0  0  1  0  0  0  0  0  0  0  0  0
   12.6598  -18.0321   26.3498 C   0  0  0  0  0  0  0  0  0  0  0  0
   10.2757  -17.8626   26.9719 C   0  0  2  0  0  0  0  0  0  0  0  0
   10.1647  -16.5678   26.3489 N   0  0  0  0  0  0  0  0  0  0  0  0
   10.6375  -17.6893   28.4118 C   0  0  0  0  0  0  0  0  0  0  0  0
   10.9898  -16.5876   28.9030 O   0  0  0  0  0  0  0  0  0  0  0  0
   10.5936  -18.7704   29.2718 O   0  0  0  0  0  0  0  0  0  0  0  0
  2  1  1  6
  2  3  1  0
  4  3  1  0
  4  8  1  0
  5  4  2  0
  6  2  1  0
  7  6  2  0
  9 10  1  0
 10 11  1  0
 11 13  1  0
 11 12  1  1
 13 14  1  6
 14  6  1  0
 15 13  1  0
 15 21  1  0
 16 15  2  0
 18 17  1  6
 18 20  1  0
 19 18  1  0
 20 21  1  6
 20 22  1  0
 22 23  2  0
 22 24  1  0
M  END
$$$$
