EDV.pdb
     RDKit          3D

 25 24  0  0  1  0  0  0  0  0999 V2000
   21.7328  -29.2364  -15.6948 N   0  0  0  0  0  0  0  0  0  0  0  0
   22.5369  -29.8101  -16.7800 C   0  0  1  0  0  0  0  0  0  0  0  0
   21.9490  -29.2990  -18.0764 C   0  0  0  0  0  0  0  0  0  0  0  0
   20.7295  -30.0298  -18.5351 C   0  0  0  0  0  0  0  0  0  0  0  0
   21.0046  -31.2978  -19.2101 C   0  0  0  0  0  0  0  0  0  0  0  0
   20.1773  -32.2304  -19.1075 O   0  0  0  0  0  0  0  0  0  0  0  0
   23.9296  -29.2857  -16.7258 C   0  0  0  0  0  0  0  0  0  0  0  0
   24.1637  -28.1462  -16.2479 O   0  0  0  0  0  0  0  0  0  0  0  0
   22.1442  -31.4881  -19.9495 O   0  0  0  0  0  0  0  0  0  0  0  0
   25.0516  -30.0207  -17.1980 N   0  0  0  0  0  0  0  0  0  0  0  0
   26.4209  -29.6110  -17.0221 C   0  0  1  0  0  0  0  0  0  0  0  0
   27.2920  -30.8491  -17.1672 C   0  0  0  0  0  0  0  0  0  0  0  0
   28.6968  -30.4627  -16.9002 C   0  0  0  0  0  0  0  0  0  0  0  0
   28.9224  -29.3304  -16.4216 O   0  0  0  0  0  0  0  0  0  0  0  0
   26.8228  -28.5648  -18.0048 C   0  0  0  0  0  0  0  0  0  0  0  0
   26.6388  -28.7466  -19.2352 O   0  0  0  0  0  0  0  0  0  0  0  0
   29.7127  -31.3377  -17.1812 O   0  0  0  0  0  0  0  0  0  0  0  0
   28.9684  -25.1058  -16.8022 C   0  0  0  0  0  0  0  0  0  0  0  0
   27.9618  -24.9545  -17.9602 C   0  0  2  0  0  0  0  0  0  0  0  0
   26.6437  -24.5767  -17.2985 C   0  0  0  0  0  0  0  0  0  0  0  0
   27.7999  -26.3040  -18.5746 C   0  0  2  0  0  0  0  0  0  0  0  0
   27.4198  -27.3344  -17.6362 N   0  0  0  0  0  0  0  0  0  0  0  0
   29.0624  -26.6956  -19.2829 C   0  0  0  0  0  0  0  0  0  0  0  0
   29.5370  -26.0560  -20.4100 O   0  0  0  0  0  0  0  0  0  0  0  0
   29.7237  -27.6587  -18.8270 O   0  0  0  0  0  0  0  0  0  0  0  0
  2  1  1  1
  3  2  1  0
  4  3  1  0
  5  4  1  0
  5  6  2  0
  7  2  1  0
  7  8  2  0
  9  5  1  0
 10  7  1  0
 11 10  1  0
 11 12  1  6
 12 13  1  0
 13 17  1  0
 14 13  2  0
 15 11  1  0
 16 15  2  0
 19 18  1  1
 19 20  1  0
 19 21  1  0
 21 23  1  0
 21 22  1  1
 22 15  1  0
 23 24  1  0
 25 23  2  0
M  END
$$$$
