EDV.pdb
     RDKit          3D

 25 24  0  0  1  0  0  0  0  0999 V2000
   15.2007  -13.9784  -13.4243 N   0  0  0  0  0  0  0  0  0  0  0  0
   14.4866  -12.7156  -13.2032 C   0  0  1  0  0  0  0  0  0  0  0  0
   13.4605  -12.9774  -12.1234 C   0  0  0  0  0  0  0  0  0  0  0  0
   12.3487  -13.8878  -12.5319 C   0  0  0  0  0  0  0  0  0  0  0  0
   11.3003  -14.0488  -11.5250 C   0  0  0  0  0  0  0  0  0  0  0  0
   10.3133  -13.2807  -11.5502 O   0  0  0  0  0  0  0  0  0  0  0  0
   15.4113  -11.6875  -12.6504 C   0  0  0  0  0  0  0  0  0  0  0  0
   16.3383  -12.0186  -11.8678 O   0  0  0  0  0  0  0  0  0  0  0  0
   11.3738  -15.0178  -10.5568 O   0  0  0  0  0  0  0  0  0  0  0  0
   15.3067  -10.3045  -12.9645 N   0  0  0  0  0  0  0  0  0  0  0  0
   16.2165   -9.2947  -12.4890 C   0  0  1  0  0  0  0  0  0  0  0  0
   17.0728   -8.8577  -13.6673 C   0  0  0  0  0  0  0  0  0  0  0  0
   18.0236   -7.8255  -13.1933 C   0  0  0  0  0  0  0  0  0  0  0  0
   18.5878   -7.9966  -12.0912 O   0  0  0  0  0  0  0  0  0  0  0  0
   15.4998   -8.1296  -11.8967 C   0  0  0  0  0  0  0  0  0  0  0  0
   14.6395   -7.5061  -12.5688 O   0  0  0  0  0  0  0  0  0  0  0  0
   18.2638   -6.7138  -13.9567 O   0  0  0  0  0  0  0  0  0  0  0  0
   16.0470   -6.9369   -7.8160 C   0  0  0  0  0  0  0  0  0  0  0  0
   14.7339   -6.6445   -8.5693 C   0  0  2  0  0  0  0  0  0  0  0  0
   13.8938   -7.9048   -8.4142 C   0  0  0  0  0  0  0  0  0  0  0  0
   15.0837   -6.4973  -10.0118 C   0  0  2  0  0  0  0  0  0  0  0  0
   15.7284   -7.6580  -10.5808 N   0  0  0  0  0  0  0  0  0  0  0  0
   15.9454   -5.2853  -10.2054 C   0  0  0  0  0  0  0  0  0  0  0  0
   15.5053   -3.9932  -10.0006 O   0  0  0  0  0  0  0  0  0  0  0  0
   17.1316   -5.4542  -10.5753 O   0  0  0  0  0  0  0  0  0  0  0  0
  2  1  1  1
  3  2  1  0
  4  3  1  0
  5  4  1  0
  5  6  2  0
  7  2  1  0
  7  8  2  0
  9  5  1  0
 10  7  1  0
 11 10  1  0
 11 12  1  6
 12 13  1  0
 13 17  1  0
 14 13  2  0
 15 11  1  0
 16 15  2  0
 19 18  1  1
 19 20  1  0
 19 21  1  0
 21 23  1  0
 21 22  1  1
 22 15  1  0
 23 24  1  0
 25 23  2  0
M  END
$$$$
