EDV.pdb
     RDKit          3D

 25 24  0  0  1  0  0  0  0  0999 V2000
   15.8147  -11.3822  -17.1081 N   0  0  0  0  0  0  0  0  0  0  0  0
   17.1536  -11.1714  -16.5457 C   0  0  1  0  0  0  0  0  0  0  0  0
   18.1243  -11.9101  -17.4401 C   0  0  0  0  0  0  0  0  0  0  0  0
   18.2050  -13.3802  -17.1873 C   0  0  0  0  0  0  0  0  0  0  0  0
   19.3687  -13.7944  -16.4041 C   0  0  0  0  0  0  0  0  0  0  0  0
   20.1089  -14.6982  -16.8510 O   0  0  0  0  0  0  0  0  0  0  0  0
   17.5305   -9.7332  -16.6301 C   0  0  0  0  0  0  0  0  0  0  0  0
   17.7727   -9.2019  -17.7439 O   0  0  0  0  0  0  0  0  0  0  0  0
   19.6659  -13.2180  -15.1953 O   0  0  0  0  0  0  0  0  0  0  0  0
   17.6370   -8.8934  -15.4875 N   0  0  0  0  0  0  0  0  0  0  0  0
   18.0722   -7.5214  -15.5282 C   0  0  1  0  0  0  0  0  0  0  0  0
   16.9175   -6.6597  -15.0414 C   0  0  0  0  0  0  0  0  0  0  0  0
   17.3463   -5.2424  -15.0816 C   0  0  0  0  0  0  0  0  0  0  0  0
   17.9486   -4.8308  -16.0966 O   0  0  0  0  0  0  0  0  0  0  0  0
   19.2876   -7.2946  -14.6956 C   0  0  0  0  0  0  0  0  0  0  0  0
   19.3088   -7.6589  -13.4924 O   0  0  0  0  0  0  0  0  0  0  0  0
   17.0835   -4.4173  -14.0202 O   0  0  0  0  0  0  0  0  0  0  0  0
   22.8956   -5.9511  -16.4355 C   0  0  0  0  0  0  0  0  0  0  0  0
   22.9234   -6.7852  -15.1391 C   0  0  2  0  0  0  0  0  0  0  0  0
   22.8657   -8.2366  -15.5952 C   0  0  0  0  0  0  0  0  0  0  0  0
   21.6633   -6.4828  -14.4005 C   0  0  2  0  0  0  0  0  0  0  0  0
   20.4641   -6.6743  -15.1827 N   0  0  0  0  0  0  0  0  0  0  0  0
   21.7096   -5.0819  -13.8671 C   0  0  0  0  0  0  0  0  0  0  0  0
   22.6092   -4.6570  -12.9105 O   0  0  0  0  0  0  0  0  0  0  0  0
   20.8845   -4.2499  -14.3137 O   0  0  0  0  0  0  0  0  0  0  0  0
  2  1  1  6
  3  2  1  0
  4  3  1  0
  5  4  1  0
  5  6  2  0
  7  2  1  0
  7  8  2  0
  9  5  1  0
 10  7  1  0
 11 10  1  0
 11 12  1  1
 12 13  1  0
 13 17  1  0
 14 13  2  0
 15 11  1  0
 16 15  2  0
 19 18  1  6
 19 20  1  0
 19 21  1  0
 21 23  1  0
 21 22  1  6
 22 15  1  0
 23 24  1  0
 25 23  2  0
M  END
$$$$
