EDV.pdb
     RDKit          3D

 25 24  0  0  1  0  0  0  0  0999 V2000
   16.0012  -12.7851  -18.4936 N   0  0  0  0  0  0  0  0  0  0  0  0
   16.3742  -12.3505  -17.1425 C   0  0  1  0  0  0  0  0  0  0  0  0
   16.5332  -13.6027  -16.3092 C   0  0  0  0  0  0  0  0  0  0  0  0
   15.2498  -14.2845  -15.9631 C   0  0  0  0  0  0  0  0  0  0  0  0
   14.3988  -13.5350  -15.0394 C   0  0  0  0  0  0  0  0  0  0  0  0
   13.2700  -13.9902  -14.7511 O   0  0  0  0  0  0  0  0  0  0  0  0
   17.7117  -11.6960  -17.1595 C   0  0  0  0  0  0  0  0  0  0  0  0
   18.7034  -12.2584  -16.6286 O   0  0  0  0  0  0  0  0  0  0  0  0
   14.8073  -12.3489  -14.4846 O   0  0  0  0  0  0  0  0  0  0  0  0
   17.9449  -10.4288  -17.7610 N   0  0  0  0  0  0  0  0  0  0  0  0
   19.2281   -9.7768  -17.8052 C   0  0  1  0  0  0  0  0  0  0  0  0
   19.1867   -8.7595  -18.9348 C   0  0  0  0  0  0  0  0  0  0  0  0
   20.5121   -8.1034  -19.0181 C   0  0  0  0  0  0  0  0  0  0  0  0
   20.5578   -6.8547  -19.0484 O   0  0  0  0  0  0  0  0  0  0  0  0
   19.5653   -9.1164  -16.5122 C   0  0  0  0  0  0  0  0  0  0  0  0
   18.6891   -8.4711  -15.8825 O   0  0  0  0  0  0  0  0  0  0  0  0
   21.6507   -8.8637  -19.0635 O   0  0  0  0  0  0  0  0  0  0  0  0
   23.3640   -9.6506  -14.6908 C   0  0  0  0  0  0  0  0  0  0  0  0
   22.1240   -9.3591  -13.8219 C   0  0  2  0  0  0  0  0  0  0  0  0
   21.4822  -10.7168  -13.5715 C   0  0  0  0  0  0  0  0  0  0  0  0
   21.1877   -8.5527  -14.6573 C   0  0  2  0  0  0  0  0  0  0  0  0
   20.8515   -9.1665  -15.9210 N   0  0  0  0  0  0  0  0  0  0  0  0
   21.7593   -7.1855  -14.8870 C   0  0  0  0  0  0  0  0  0  0  0  0
   21.9018   -6.2389  -13.8927 O   0  0  0  0  0  0  0  0  0  0  0  0
   22.1276   -6.8841  -16.0473 O   0  0  0  0  0  0  0  0  0  0  0  0
  2  1  1  6
  3  2  1  0
  4  3  1  0
  5  4  1  0
  5  6  2  0
  7  2  1  0
  7  8  2  0
  9  5  1  0
 10  7  1  0
 11 10  1  0
 11 12  1  6
 12 13  1  0
 13 17  1  0
 14 13  2  0
 15 11  1  0
 16 15  2  0
 19 18  1  6
 19 20  1  0
 19 21  1  0
 21 23  1  0
 21 22  1  6
 22 15  1  0
 23 24  1  0
 25 23  2  0
M  END
$$$$
