EDV.pdb
     RDKit          3D

 25 24  0  0  1  0  0  0  0  0999 V2000
   36.1991  -36.7420   -2.5792 N   0  0  0  0  0  0  0  0  0  0  0  0
   35.3079  -36.2336   -1.5300 C   0  0  1  0  0  0  0  0  0  0  0  0
   35.5110  -34.7359   -1.4724 C   0  0  0  0  0  0  0  0  0  0  0  0
   34.6225  -34.0263   -0.5035 C   0  0  0  0  0  0  0  0  0  0  0  0
   34.7677  -32.5710   -0.5063 C   0  0  0  0  0  0  0  0  0  0  0  0
   35.5698  -32.0440   -1.3085 O   0  0  0  0  0  0  0  0  0  0  0  0
   33.8842  -36.4404   -1.9145 C   0  0  0  0  0  0  0  0  0  0  0  0
   33.5519  -36.4901   -3.1264 O   0  0  0  0  0  0  0  0  0  0  0  0
   34.0486  -31.7734    0.3472 O   0  0  0  0  0  0  0  0  0  0  0  0
   32.8398  -36.5906   -0.9613 N   0  0  0  0  0  0  0  0  0  0  0  0
   31.4807  -36.9298   -1.2952 C   0  0  1  0  0  0  0  0  0  0  0  0
   30.9878  -37.9243   -0.2556 C   0  0  0  0  0  0  0  0  0  0  0  0
   29.6225  -38.3553   -0.6355 C   0  0  0  0  0  0  0  0  0  0  0  0
   29.4633  -38.9299   -1.7340 O   0  0  0  0  0  0  0  0  0  0  0  0
   30.5982  -35.7293   -1.3373 C   0  0  0  0  0  0  0  0  0  0  0  0
   30.7125  -34.8278   -0.4685 O   0  0  0  0  0  0  0  0  0  0  0  0
   28.5700  -38.1180    0.2086 O   0  0  0  0  0  0  0  0  0  0  0  0
   27.2884  -35.4650   -3.9853 C   0  0  0  0  0  0  0  0  0  0  0  0
   28.0904  -34.1749   -3.7212 C   0  0  2  0  0  0  0  0  0  0  0  0
   29.1607  -34.1399   -4.8034 C   0  0  0  0  0  0  0  0  0  0  0  0
   28.7703  -34.3474   -2.4048 C   0  0  2  0  0  0  0  0  0  0  0  0
   29.6028  -35.5252   -2.3240 N   0  0  0  0  0  0  0  0  0  0  0  0
   27.7519  -34.3624   -1.3041 C   0  0  0  0  0  0  0  0  0  0  0  0
   26.9321  -33.2930   -1.0058 O   0  0  0  0  0  0  0  0  0  0  0  0
   27.6392  -35.4040   -0.6149 O   0  0  0  0  0  0  0  0  0  0  0  0
  2  1  1  6
  3  2  1  0
  4  3  1  0
  5  4  1  0
  5  6  2  0
  7  2  1  0
  7  8  2  0
  9  5  1  0
 10  7  1  0
 11 10  1  0
 11 12  1  1
 12 13  1  0
 13 17  1  0
 14 13  2  0
 15 11  1  0
 16 15  2  0
 19 18  1  6
 19 20  1  0
 19 21  1  0
 21 23  1  0
 21 22  1  6
 22 15  1  0
 23 24  1  0
 25 23  2  0
M  END
$$$$
