EDV.pdb
     RDKit          3D

 25 24  0  0  1  0  0  0  0  0999 V2000
   18.0280  -10.4581  -17.8292 N   0  0  0  0  0  0  0  0  0  0  0  0
   17.6684  -10.1422  -16.4420 C   0  0  1  0  0  0  0  0  0  0  0  0
   17.3683  -11.4575  -15.7582 C   0  0  0  0  0  0  0  0  0  0  0  0
   16.3276  -12.2864  -16.4376 C   0  0  0  0  0  0  0  0  0  0  0  0
   15.9760  -13.5149  -15.7261 C   0  0  0  0  0  0  0  0  0  0  0  0
   14.9832  -13.5111  -14.9652 O   0  0  0  0  0  0  0  0  0  0  0  0
   18.8368   -9.5629  -15.7230 C   0  0  0  0  0  0  0  0  0  0  0  0
   18.7846   -9.3571  -14.4835 O   0  0  0  0  0  0  0  0  0  0  0  0
   16.7068  -14.6665  -15.8722 O   0  0  0  0  0  0  0  0  0  0  0  0
   20.0517   -9.2156  -16.3754 N   0  0  0  0  0  0  0  0  0  0  0  0
   21.1676   -8.5793  -15.7247 C   0  0  1  0  0  0  0  0  0  0  0  0
   22.4384   -9.2067  -16.2761 C   0  0  0  0  0  0  0  0  0  0  0  0
   22.5101  -10.6071  -15.7987 C   0  0  0  0  0  0  0  0  0  0  0  0
   22.7261  -10.8123  -14.5848 O   0  0  0  0  0  0  0  0  0  0  0  0
   21.1724   -7.1039  -15.9369 C   0  0  0  0  0  0  0  0  0  0  0  0
   21.3555   -6.6294  -17.0866 O   0  0  0  0  0  0  0  0  0  0  0  0
   22.3449  -11.6409  -16.6822 O   0  0  0  0  0  0  0  0  0  0  0  0
   19.9419   -2.5441  -14.9850 C   0  0  0  0  0  0  0  0  0  0  0  0
   19.6940   -4.0629  -14.8901 C   0  0  2  0  0  0  0  0  0  0  0  0
   19.2428   -4.3064  -13.4566 C   0  0  0  0  0  0  0  0  0  0  0  0
   21.0141   -4.7314  -15.0785 C   0  0  2  0  0  0  0  0  0  0  0  0
   20.9780   -6.1639  -14.8953 N   0  0  0  0  0  0  0  0  0  0  0  0
   22.0292   -4.1219  -14.1583 C   0  0  0  0  0  0  0  0  0  0  0  0
   22.4141   -4.6894  -12.9604 O   0  0  0  0  0  0  0  0  0  0  0  0
   22.5575   -3.0355  -14.4945 O   0  0  0  0  0  0  0  0  0  0  0  0
  2  1  1  6
  3  2  1  0
  4  3  1  0
  5  4  1  0
  5  6  2  0
  7  2  1  0
  7  8  2  0
  9  5  1  0
 10  7  1  0
 11 10  1  0
 11 12  1  6
 12 13  1  0
 13 17  1  0
 14 13  2  0
 15 11  1  0
 16 15  2  0
 19 18  1  1
 19 20  1  0
 19 21  1  0
 21 23  1  0
 21 22  1  1
 22 15  1  0
 23 24  1  0
 25 23  2  0
M  END
$$$$
