EDV.pdb
     RDKit          3D

 25 24  0  0  1  0  0  0  0  0999 V2000
   20.4458  -16.3948  -17.5978 N   0  0  0  0  0  0  0  0  0  0  0  0
   19.8042  -15.4392  -16.6875 C   0  0  1  0  0  0  0  0  0  0  0  0
   20.2344  -15.8141  -15.2868 C   0  0  0  0  0  0  0  0  0  0  0  0
   21.0821  -17.0416  -15.2059 C   0  0  0  0  0  0  0  0  0  0  0  0
   20.3435  -18.2652  -14.8956 C   0  0  0  0  0  0  0  0  0  0  0  0
   19.5967  -18.7596  -15.7687 O   0  0  0  0  0  0  0  0  0  0  0  0
   20.3287  -14.0658  -16.9243 C   0  0  0  0  0  0  0  0  0  0  0  0
   21.5252  -13.8911  -17.2700 O   0  0  0  0  0  0  0  0  0  0  0  0
   20.4492  -18.8805  -13.6742 O   0  0  0  0  0  0  0  0  0  0  0  0
   19.5311  -12.8976  -16.7786 N   0  0  0  0  0  0  0  0  0  0  0  0
   20.0203  -11.5551  -16.9571 C   0  0  1  0  0  0  0  0  0  0  0  0
   18.8124  -10.6364  -17.0560 C   0  0  0  0  0  0  0  0  0  0  0  0
   18.0980  -10.9423  -18.3170 C   0  0  0  0  0  0  0  0  0  0  0  0
   18.5732  -10.5124  -19.3901 O   0  0  0  0  0  0  0  0  0  0  0  0
   20.9149  -11.1324  -15.8422 C   0  0  0  0  0  0  0  0  0  0  0  0
   20.5693  -11.3163  -14.6475 O   0  0  0  0  0  0  0  0  0  0  0  0
   16.9426  -11.6777  -18.2883 O   0  0  0  0  0  0  0  0  0  0  0  0
   25.2138  -10.0011  -13.8745 C   0  0  0  0  0  0  0  0  0  0  0  0
   24.4387  -10.5754  -15.0772 C   0  0  2  0  0  0  0  0  0  0  0  0
   25.0771   -9.9411  -16.3052 C   0  0  0  0  0  0  0  0  0  0  0  0
   23.0385  -10.0720  -14.9726 C   0  0  2  0  0  0  0  0  0  0  0  0
   22.1740  -10.5150  -16.0417 N   0  0  0  0  0  0  0  0  0  0  0  0
   23.0402   -8.5740  -14.9015 C   0  0  0  0  0  0  0  0  0  0  0  0
   23.1658   -7.8642  -13.7245 O   0  0  0  0  0  0  0  0  0  0  0  0
   22.9195   -7.9296  -15.9705 O   0  0  0  0  0  0  0  0  0  0  0  0
  2  1  1  6
  3  2  1  0
  4  3  1  0
  5  4  1  0
  5  6  2  0
  7  2  1  0
  7  8  2  0
  9  5  1  0
 10  7  1  0
 11 10  1  0
 11 12  1  1
 12 13  1  0
 13 17  1  0
 14 13  2  0
 15 11  1  0
 16 15  2  0
 19 18  1  1
 19 20  1  0
 19 21  1  0
 21 23  1  0
 21 22  1  6
 22 15  1  0
 23 24  1  0
 25 23  2  0
M  END
$$$$
