EDV.pdb
     RDKit          3D

 25 24  0  0  1  0  0  0  0  0999 V2000
   15.1110  -12.4881  -16.2688 N   0  0  0  0  0  0  0  0  0  0  0  0
   15.1732  -11.0592  -15.9406 C   0  0  1  0  0  0  0  0  0  0  0  0
   15.0127  -10.9482  -14.4407 C   0  0  0  0  0  0  0  0  0  0  0  0
   13.6233  -11.1863  -13.9463 C   0  0  0  0  0  0  0  0  0  0  0  0
   13.2282  -12.5941  -13.9126 C   0  0  0  0  0  0  0  0  0  0  0  0
   13.9761  -13.4195  -13.3435 O   0  0  0  0  0  0  0  0  0  0  0  0
   16.5242  -10.5148  -16.2504 C   0  0  0  0  0  0  0  0  0  0  0  0
   17.5282  -11.2720  -16.2671 O   0  0  0  0  0  0  0  0  0  0  0  0
   12.0619  -13.0292  -14.4889 O   0  0  0  0  0  0  0  0  0  0  0  0
   16.7573   -9.1420  -16.5389 N   0  0  0  0  0  0  0  0  0  0  0  0
   18.0304   -8.6037  -16.9426 C   0  0  1  0  0  0  0  0  0  0  0  0
   17.7644   -7.5336  -17.9899 C   0  0  0  0  0  0  0  0  0  0  0  0
   17.4394   -8.2060  -19.2691 C   0  0  0  0  0  0  0  0  0  0  0  0
   16.2834   -8.0852  -19.7286 O   0  0  0  0  0  0  0  0  0  0  0  0
   18.7896   -8.0382  -15.7912 C   0  0  0  0  0  0  0  0  0  0  0  0
   18.2061   -7.3246  -14.9363 O   0  0  0  0  0  0  0  0  0  0  0  0
   18.3954   -8.9421  -19.9178 O   0  0  0  0  0  0  0  0  0  0  0  0
   22.8677   -9.0548  -15.1075 C   0  0  0  0  0  0  0  0  0  0  0  0
   21.9404   -8.6995  -13.9280 C   0  0  2  0  0  0  0  0  0  0  0  0
   21.2384  -10.0005  -13.5642 C   0  0  0  0  0  0  0  0  0  0  0  0
   20.9143   -7.7520  -14.4518 C   0  0  2  0  0  0  0  0  0  0  0  0
   20.1738   -8.2564  -15.5850 N   0  0  0  0  0  0  0  0  0  0  0  0
   21.5603   -6.4447  -14.8019 C   0  0  0  0  0  0  0  0  0  0  0  0
   22.0161   -5.5411  -13.8633 O   0  0  0  0  0  0  0  0  0  0  0  0
   21.6929   -6.1548  -16.0147 O   0  0  0  0  0  0  0  0  0  0  0  0
  2  1  1  1
  3  2  1  0
  4  3  1  0
  5  4  1  0
  5  6  2  0
  7  2  1  0
  7  8  2  0
  9  5  1  0
 10  7  1  0
 11 10  1  0
 11 12  1  6
 12 13  1  0
 13 17  1  0
 14 13  2  0
 15 11  1  0
 16 15  2  0
 19 18  1  6
 19 20  1  0
 19 21  1  0
 21 23  1  0
 21 22  1  6
 22 15  1  0
 23 24  1  0
 25 23  2  0
M  END
$$$$
