EDV.pdb
     RDKit          3D

 25 24  0  0  1  0  0  0  0  0999 V2000
   15.9933  -13.2321  -14.7252 N   0  0  0  0  0  0  0  0  0  0  0  0
   15.2321  -12.0351  -14.3494 C   0  0  1  0  0  0  0  0  0  0  0  0
   14.1205  -12.4944  -13.4325 C   0  0  0  0  0  0  0  0  0  0  0  0
   13.0578  -13.3027  -14.1026 C   0  0  0  0  0  0  0  0  0  0  0  0
   11.9580  -13.6996  -13.2241 C   0  0  0  0  0  0  0  0  0  0  0  0
   11.2170  -12.8139  -12.7435 O   0  0  0  0  0  0  0  0  0  0  0  0
   16.0788  -11.1157  -13.5398 C   0  0  0  0  0  0  0  0  0  0  0  0
   17.0882  -11.5508  -12.9287 O   0  0  0  0  0  0  0  0  0  0  0  0
   11.7212  -15.0150  -12.9152 O   0  0  0  0  0  0  0  0  0  0  0  0
   15.8063   -9.7260  -13.4106 N   0  0  0  0  0  0  0  0  0  0  0  0
   16.6598   -8.7938  -12.7205 C   0  0  1  0  0  0  0  0  0  0  0  0
   17.5798   -8.1630  -13.7542 C   0  0  0  0  0  0  0  0  0  0  0  0
   18.4207   -7.1520  -13.0723 C   0  0  0  0  0  0  0  0  0  0  0  0
   18.2768   -5.9500  -13.3833 O   0  0  0  0  0  0  0  0  0  0  0  0
   15.8795   -7.7478  -12.0003 C   0  0  0  0  0  0  0  0  0  0  0  0
   15.1128   -6.9795  -12.6347 O   0  0  0  0  0  0  0  0  0  0  0  0
   19.3323   -7.5439  -12.1280 O   0  0  0  0  0  0  0  0  0  0  0  0
   15.0544   -7.6505   -7.7564 C   0  0  0  0  0  0  0  0  0  0  0  0
   14.2560   -6.9877   -8.8968 C   0  0  2  0  0  0  0  0  0  0  0  0
   13.4610   -8.1167   -9.5381 C   0  0  0  0  0  0  0  0  0  0  0  0
   15.2497   -6.4975   -9.8954 C   0  0  2  0  0  0  0  0  0  0  0  0
   15.9435   -7.5513  -10.5990 N   0  0  0  0  0  0  0  0  0  0  0  0
   16.2385   -5.5901   -9.2262 C   0  0  0  0  0  0  0  0  0  0  0  0
   15.9255   -4.3298   -8.7585 O   0  0  0  0  0  0  0  0  0  0  0  0
   17.4159   -5.9977   -9.0845 O   0  0  0  0  0  0  0  0  0  0  0  0
  2  1  1  1
  3  2  1  0
  4  3  1  0
  5  4  1  0
  5  6  2  0
  7  2  1  0
  7  8  2  0
  9  5  1  0
 10  7  1  0
 11 10  1  0
 11 12  1  6
 12 13  1  0
 13 17  1  0
 14 13  2  0
 15 11  1  0
 16 15  2  0
 19 18  1  1
 19 20  1  0
 19 21  1  0
 21 23  1  0
 21 22  1  1
 22 15  1  0
 23 24  1  0
 25 23  2  0
M  END
$$$$
