EDV.pdb
     RDKit          3D

 25 24  0  0  1  0  0  0  0  0999 V2000
   18.2595  -13.0054  -16.7245 N   0  0  0  0  0  0  0  0  0  0  0  0
   19.4774  -12.1928  -16.6247 C   0  0  1  0  0  0  0  0  0  0  0  0
   20.3542  -12.5745  -17.7965 C   0  0  0  0  0  0  0  0  0  0  0  0
   20.8850  -13.9699  -17.7455 C   0  0  0  0  0  0  0  0  0  0  0  0
   21.7062  -14.3453  -18.8961 C   0  0  0  0  0  0  0  0  0  0  0  0
   21.1547  -14.5049  -20.0073 O   0  0  0  0  0  0  0  0  0  0  0  0
   19.1543  -10.7505  -16.8062 C   0  0  0  0  0  0  0  0  0  0  0  0
   18.2534  -10.3951  -17.6085 O   0  0  0  0  0  0  0  0  0  0  0  0
   23.0614  -14.5265  -18.7857 O   0  0  0  0  0  0  0  0  0  0  0  0
   19.8258   -9.7132  -16.1027 N   0  0  0  0  0  0  0  0  0  0  0  0
   19.4785   -8.3184  -16.1902 C   0  0  1  0  0  0  0  0  0  0  0  0
   17.9926   -8.1964  -15.8903 C   0  0  0  0  0  0  0  0  0  0  0  0
   17.6337   -6.7593  -15.8974 C   0  0  0  0  0  0  0  0  0  0  0  0
   18.1686   -6.0159  -16.7480 O   0  0  0  0  0  0  0  0  0  0  0  0
   20.2772   -7.4825  -15.2494 C   0  0  0  0  0  0  0  0  0  0  0  0
   20.2319   -7.7012  -14.0122 O   0  0  0  0  0  0  0  0  0  0  0  0
   16.7370   -6.2731  -14.9830 O   0  0  0  0  0  0  0  0  0  0  0  0
   23.1785   -4.8196  -16.7900 C   0  0  0  0  0  0  0  0  0  0  0  0
   23.4328   -5.6079  -15.4895 C   0  0  2  0  0  0  0  0  0  0  0  0
   23.9292   -6.9748  -15.9402 C   0  0  0  0  0  0  0  0  0  0  0  0
   22.1092   -5.7925  -14.8271 C   0  0  2  0  0  0  0  0  0  0  0  0
   21.1150   -6.4194  -15.6669 N   0  0  0  0  0  0  0  0  0  0  0  0
   21.6011   -4.4727  -14.3283 C   0  0  0  0  0  0  0  0  0  0  0  0
   22.1966   -3.7603  -13.3071 O   0  0  0  0  0  0  0  0  0  0  0  0
   20.5775   -3.9893  -14.8677 O   0  0  0  0  0  0  0  0  0  0  0  0
  2  1  1  6
  3  2  1  0
  4  3  1  0
  5  4  1  0
  5  6  2  0
  7  2  1  0
  7  8  2  0
  9  5  1  0
 10  7  1  0
 11 10  1  0
 11 12  1  1
 12 13  1  0
 13 17  1  0
 14 13  2  0
 15 11  1  0
 16 15  2  0
 19 18  1  6
 19 20  1  0
 19 21  1  0
 21 23  1  0
 21 22  1  6
 22 15  1  0
 23 24  1  0
 25 23  2  0
M  END
$$$$
