EDV.pdb
     RDKit          3D

 25 24  0  0  1  0  0  0  0  0999 V2000
   15.5115  -14.1621  -17.2108 N   0  0  0  0  0  0  0  0  0  0  0  0
   16.3374  -13.6490  -16.1117 C   0  0  1  0  0  0  0  0  0  0  0  0
   17.4590  -14.6431  -15.9074 C   0  0  0  0  0  0  0  0  0  0  0  0
   17.2214  -15.6294  -14.8109 C   0  0  0  0  0  0  0  0  0  0  0  0
   18.2540  -16.6583  -14.6912 C   0  0  0  0  0  0  0  0  0  0  0  0
   18.1351  -17.5356  -13.8076 O   0  0  0  0  0  0  0  0  0  0  0  0
   16.9894  -12.3699  -16.5070 C   0  0  0  0  0  0  0  0  0  0  0  0
   17.2526  -12.1349  -17.7141 O   0  0  0  0  0  0  0  0  0  0  0  0
   19.3458  -16.6835  -15.5212 O   0  0  0  0  0  0  0  0  0  0  0  0
   17.3453  -11.3614  -15.5698 N   0  0  0  0  0  0  0  0  0  0  0  0
   17.9078  -10.0850  -15.9277 C   0  0  1  0  0  0  0  0  0  0  0  0
   16.7843   -9.0609  -15.8850 C   0  0  0  0  0  0  0  0  0  0  0  0
   17.3595   -7.7277  -16.1779 C   0  0  0  0  0  0  0  0  0  0  0  0
   18.1200   -7.6104  -17.1628 O   0  0  0  0  0  0  0  0  0  0  0  0
   19.0189   -9.6877  -15.0169 C   0  0  0  0  0  0  0  0  0  0  0  0
   18.8612   -9.7263  -13.7702 O   0  0  0  0  0  0  0  0  0  0  0  0
   17.0567   -6.6600  -15.3749 O   0  0  0  0  0  0  0  0  0  0  0  0
   22.8746   -8.9363  -16.5390 C   0  0  0  0  0  0  0  0  0  0  0  0
   22.7126   -9.4127  -15.0815 C   0  0  2  0  0  0  0  0  0  0  0  0
   22.6423  -10.9314  -15.1619 C   0  0  0  0  0  0  0  0  0  0  0  0
   21.3900   -8.9137  -14.6056 C   0  0  2  0  0  0  0  0  0  0  0  0
   20.2871   -9.2536  -15.4744 N   0  0  0  0  0  0  0  0  0  0  0  0
   21.4478   -7.4283  -14.4070 C   0  0  0  0  0  0  0  0  0  0  0  0
   22.2281   -6.8145  -13.4482 O   0  0  0  0  0  0  0  0  0  0  0  0
   20.7474   -6.7029  -15.1525 O   0  0  0  0  0  0  0  0  0  0  0  0
  2  1  1  6
  3  2  1  0
  4  3  1  0
  5  4  1  0
  5  6  2  0
  7  2  1  0
  7  8  2  0
  9  5  1  0
 10  7  1  0
 11 10  1  0
 11 12  1  1
 12 13  1  0
 13 17  1  0
 14 13  2  0
 15 11  1  0
 16 15  2  0
 19 18  1  6
 19 20  1  0
 19 21  1  0
 21 23  1  0
 21 22  1  6
 22 15  1  0
 23 24  1  0
 25 23  2  0
M  END
$$$$
