CQK.pdb
     RDKit          3D

 25 24  0  0  1  0  0  0  0  0999 V2000
   18.3386  -12.9879  -17.0395 N   0  0  0  0  0  0  0  0  0  0  0  0
   19.3301  -12.0093  -17.4140 C   0  0  1  0  0  0  0  0  0  0  0  0
   19.1050  -11.6073  -18.8469 C   0  0  0  0  0  0  0  0  0  0  0  0
   19.6261  -12.9619  -19.9171 S   0  0  0  0  0  0  0  0  0  0  0  0
   19.3401  -10.8221  -16.5059 C   0  0  0  0  0  0  0  0  0  0  0  0
   18.2728  -10.4504  -15.9647 O   0  0  0  0  0  0  0  0  0  0  0  0
   19.7955   -8.8268  -12.1649 N   0  0  0  0  0  0  0  0  0  0  0  0
   20.5981   -7.7025  -12.4575 C   0  0  0  0  0  0  0  0  0  0  0  0
   20.4933   -6.6839  -11.7353 O   0  0  0  0  0  0  0  0  0  0  0  0
   21.5631   -7.6684  -13.5824 C   0  0  0  0  0  0  0  0  0  0  0  0
   21.5798   -8.9937  -14.3178 C   0  0  0  0  0  0  0  0  0  0  0  0
   20.6679   -8.8951  -15.4854 C   0  0  2  0  0  0  0  0  0  0  0  0
   20.5249  -10.0960  -16.2335 N   0  0  0  0  0  0  0  0  0  0  0  0
   20.8458   -7.6564  -16.3132 C   0  0  0  0  0  0  0  0  0  0  0  0
   21.9225   -7.3764  -16.8999 O   0  0  0  0  0  0  0  0  0  0  0  0
   19.7661   -6.7276  -16.4676 N   0  0  0  0  0  0  0  0  0  0  0  0
   19.9406   -5.5155  -17.2786 C   0  0  1  0  0  0  0  0  0  0  0  0
   18.8282   -5.4502  -18.3022 C   0  0  0  0  0  0  0  0  0  0  0  0
   18.8999   -6.5902  -19.2900 C   0  0  0  0  0  0  0  0  0  0  0  0
   17.7478   -6.3993  -20.2548 C   0  0  0  0  0  0  0  0  0  0  0  0
   17.6496   -7.5229  -21.2566 C   0  0  0  0  0  0  0  0  0  0  0  0
   16.6580   -7.1287  -22.2428 N   0  0  0  0  0  0  0  0  0  0  0  0
   19.9581   -4.3106  -16.4134 C   0  0  0  0  0  0  0  0  0  0  0  0
   19.3612   -3.1242  -16.8009 O   0  0  0  0  0  0  0  0  0  0  0  0
   20.5252   -4.3481  -15.2949 O   0  0  0  0  0  0  0  0  0  0  0  0
  2  1  1  1
  2  5  1  0
  3  2  1  0
  4  3  1  0
  5  6  2  0
  7  8  1  0
  8  9  2  0
  8 10  1  0
 10 11  1  0
 12 11  1  1
 13  5  1  0
 13 12  1  0
 14 12  1  0
 14 15  2  0
 16 14  1  0
 17 16  1  0
 17 23  1  0
 17 18  1  6
 19 18  1  0
 20 19  1  0
 21 20  1  0
 21 22  1  0
 23 24  1  0
 25 23  2  0
M  END
$$$$
