CQK.pdb
     RDKit          3D

 25 24  0  0  1  0  0  0  0  0999 V2000
   23.6136  -11.2547  -18.4418 N   0  0  0  0  0  0  0  0  0  0  0  0
   22.4148  -10.7626  -19.0755 C   0  0  1  0  0  0  0  0  0  0  0  0
   21.6429  -11.9272  -19.6352 C   0  0  0  0  0  0  0  0  0  0  0  0
   22.8085  -13.1109  -20.3367 S   0  0  0  0  0  0  0  0  0  0  0  0
   21.5734   -9.9377  -18.1557 C   0  0  0  0  0  0  0  0  0  0  0  0
   20.4992   -9.4477  -18.5753 O   0  0  0  0  0  0  0  0  0  0  0  0
   20.3907  -10.4514  -11.9861 N   0  0  0  0  0  0  0  0  0  0  0  0
   19.9125   -9.1816  -12.3767 C   0  0  0  0  0  0  0  0  0  0  0  0
   19.1990   -8.5344  -11.5753 O   0  0  0  0  0  0  0  0  0  0  0  0
   20.2149   -8.5740  -13.6948 C   0  0  0  0  0  0  0  0  0  0  0  0
   21.0247   -9.5252  -14.5531 C   0  0  0  0  0  0  0  0  0  0  0  0
   21.2995   -8.8659  -15.8548 C   0  0  2  0  0  0  0  0  0  0  0  0
   21.9518   -9.6885  -16.8141 N   0  0  0  0  0  0  0  0  0  0  0  0
   21.8467   -7.4731  -15.7456 C   0  0  0  0  0  0  0  0  0  0  0  0
   23.0192   -7.2286  -15.3615 O   0  0  0  0  0  0  0  0  0  0  0  0
   21.0305   -6.3458  -16.0852 N   0  0  0  0  0  0  0  0  0  0  0  0
   21.5515   -4.9808  -15.9356 C   0  0  1  0  0  0  0  0  0  0  0  0
   20.5715   -4.0140  -16.5637 C   0  0  0  0  0  0  0  0  0  0  0  0
   21.0909   -2.5959  -16.5557 C   0  0  0  0  0  0  0  0  0  0  0  0
   20.0793   -1.7609  -17.3133 C   0  0  0  0  0  0  0  0  0  0  0  0
   20.5328   -0.3326  -17.4866 C   0  0  0  0  0  0  0  0  0  0  0  0
   19.5606    0.3217  -18.3456 N   0  0  0  0  0  0  0  0  0  0  0  0
   21.7853   -4.6687  -14.5044 C   0  0  0  0  0  0  0  0  0  0  0  0
   22.8670   -3.9129  -14.0886 O   0  0  0  0  0  0  0  0  0  0  0  0
   20.9911   -5.0929  -13.6306 O   0  0  0  0  0  0  0  0  0  0  0  0
  2  1  1  1
  2  5  1  0
  3  2  1  0
  4  3  1  0
  5  6  2  0
  7  8  1  0
  8  9  2  0
  8 10  1  0
 10 11  1  0
 12 11  1  1
 13  5  1  0
 13 12  1  0
 14 12  1  0
 14 15  2  0
 16 14  1  0
 17 16  1  0
 17 23  1  0
 17 18  1  1
 19 18  1  0
 20 19  1  0
 21 20  1  0
 21 22  1  0
 23 24  1  0
 25 23  2  0
M  END
$$$$
