CQK.pdb
     RDKit          3D

 25 24  0  0  1  0  0  0  0  0999 V2000
   18.0151  -11.7029  -15.4127 N   0  0  0  0  0  0  0  0  0  0  0  0
   17.2047  -10.6833  -14.7925 C   0  0  1  0  0  0  0  0  0  0  0  0
   15.9308  -11.3081  -14.2901 C   0  0  0  0  0  0  0  0  0  0  0  0
   14.9193  -11.7798  -15.7065 S   0  0  0  0  0  0  0  0  0  0  0  0
   17.9262   -9.9566  -13.7037 C   0  0  0  0  0  0  0  0  0  0  0  0
   19.1178  -10.2498  -13.4506 O   0  0  0  0  0  0  0  0  0  0  0  0
   22.1814   -6.0659  -12.2184 N   0  0  0  0  0  0  0  0  0  0  0  0
   20.8736   -5.6009  -12.4776 C   0  0  0  0  0  0  0  0  0  0  0  0
   20.7249   -4.6125  -13.2333 O   0  0  0  0  0  0  0  0  0  0  0  0
   19.6623   -6.2279  -11.8966 C   0  0  0  0  0  0  0  0  0  0  0  0
   19.0751   -7.2497  -12.8498 C   0  0  0  0  0  0  0  0  0  0  0  0
   17.9212   -7.9052  -12.1839 C   0  0  2  0  0  0  0  0  0  0  0  0
   17.3038   -8.9386  -12.9411 N   0  0  0  0  0  0  0  0  0  0  0  0
   16.9667   -6.9597  -11.5160 C   0  0  0  0  0  0  0  0  0  0  0  0
   16.2692   -6.1300  -12.1539 O   0  0  0  0  0  0  0  0  0  0  0  0
   16.8135   -6.9717  -10.0916 N   0  0  0  0  0  0  0  0  0  0  0  0
   15.5907   -6.4436   -9.4726 C   0  0  1  0  0  0  0  0  0  0  0  0
   15.3297   -7.1994   -8.1881 C   0  0  0  0  0  0  0  0  0  0  0  0
   14.1012   -6.6913   -7.4715 C   0  0  0  0  0  0  0  0  0  0  0  0
   13.0714   -7.7999   -7.5398 C   0  0  0  0  0  0  0  0  0  0  0  0
   11.7732   -7.4153   -6.8745 C   0  0  0  0  0  0  0  0  0  0  0  0
   10.8141   -8.4651   -7.1734 N   0  0  0  0  0  0  0  0  0  0  0  0
   15.7193   -4.9855   -9.2318 C   0  0  0  0  0  0  0  0  0  0  0  0
   14.6174   -4.1493   -9.2056 O   0  0  0  0  0  0  0  0  0  0  0  0
   16.8507   -4.4767   -9.0442 O   0  0  0  0  0  0  0  0  0  0  0  0
  2  1  1  1
  2  5  1  0
  3  2  1  0
  4  3  1  0
  5  6  2  0
  7  8  1  0
  8  9  2  0
  8 10  1  0
 10 11  1  0
 12 11  1  6
 13  5  1  0
 13 12  1  0
 14 12  1  0
 14 15  2  0
 16 14  1  0
 17 16  1  0
 17 23  1  0
 17 18  1  1
 19 18  1  0
 20 19  1  0
 21 20  1  0
 21 22  1  0
 23 24  1  0
 25 23  2  0
M  END
$$$$
