CQK.pdb
     RDKit          3D

 25 24  0  0  1  0  0  0  0  0999 V2000
   27.7361  -21.9296  -12.7163 N   0  0  0  0  0  0  0  0  0  0  0  0
   27.1450  -20.9755  -11.8101 C   0  0  1  0  0  0  0  0  0  0  0  0
   28.1826  -19.9539  -11.4289 C   0  0  0  0  0  0  0  0  0  0  0  0
   29.5860  -20.8048  -10.6817 S   0  0  0  0  0  0  0  0  0  0  0  0
   25.9194  -20.3299  -12.3715 C   0  0  0  0  0  0  0  0  0  0  0  0
   25.2710  -19.5207  -11.6680 O   0  0  0  0  0  0  0  0  0  0  0  0
   24.8885  -17.7480  -17.9094 N   0  0  0  0  0  0  0  0  0  0  0  0
   23.6317  -17.7936  -17.2675 C   0  0  0  0  0  0  0  0  0  0  0  0
   22.6860  -17.1264  -17.7477 O   0  0  0  0  0  0  0  0  0  0  0  0
   23.3753  -18.5961  -16.0475 C   0  0  0  0  0  0  0  0  0  0  0  0
   24.6478  -19.2631  -15.5646 C   0  0  0  0  0  0  0  0  0  0  0  0
   24.3307  -20.0582  -14.3514 C   0  0  2  0  0  0  0  0  0  0  0  0
   25.4614  -20.6035  -13.6833 N   0  0  0  0  0  0  0  0  0  0  0  0
   23.1774  -21.0048  -14.5097 C   0  0  0  0  0  0  0  0  0  0  0  0
   23.2928  -22.1382  -15.0428 O   0  0  0  0  0  0  0  0  0  0  0  0
   21.8721  -20.6398  -14.0456 N   0  0  0  0  0  0  0  0  0  0  0  0
   20.7625  -21.5990  -14.1220 C   0  0  1  0  0  0  0  0  0  0  0  0
   20.3066  -21.9291  -12.7175 C   0  0  0  0  0  0  0  0  0  0  0  0
   19.1578  -22.9095  -12.7105 C   0  0  0  0  0  0  0  0  0  0  0  0
   18.8570  -23.2125  -11.2572 C   0  0  0  0  0  0  0  0  0  0  0  0
   17.7043  -24.1730  -11.1008 C   0  0  0  0  0  0  0  0  0  0  0  0
   17.4833  -24.3446   -9.6750 N   0  0  0  0  0  0  0  0  0  0  0  0
   19.6550  -21.0470  -14.9401 C   0  0  0  0  0  0  0  0  0  0  0  0
   18.7117  -21.8631  -15.5386 O   0  0  0  0  0  0  0  0  0  0  0  0
   19.5534  -19.8075  -15.1060 O   0  0  0  0  0  0  0  0  0  0  0  0
  2  1  1  6
  2  5  1  0
  3  2  1  0
  4  3  1  0
  5  6  2  0
  7  8  1  0
  8  9  2  0
  8 10  1  0
 10 11  1  0
 12 11  1  6
 13  5  1  0
 13 12  1  0
 14 12  1  0
 14 15  2  0
 16 14  1  0
 17 16  1  0
 17 23  1  0
 17 18  1  1
 19 18  1  0
 20 19  1  0
 21 20  1  0
 21 22  1  0
 23 24  1  0
 25 23  2  0
M  END
$$$$
