CQK.pdb
     RDKit          3D

 25 24  0  0  1  0  0  0  0  0999 V2000
   18.6300  -24.9951  -10.1208 N   0  0  0  0  0  0  0  0  0  0  0  0
   18.9302  -24.6043   -8.7650 C   0  0  1  0  0  0  0  0  0  0  0  0
   18.9136  -23.1020   -8.6730 C   0  0  0  0  0  0  0  0  0  0  0  0
   20.3319  -22.4508   -9.5765 S   0  0  0  0  0  0  0  0  0  0  0  0
   18.0060  -25.2255   -7.7680 C   0  0  0  0  0  0  0  0  0  0  0  0
   16.7761  -24.9966   -7.8405 O   0  0  0  0  0  0  0  0  0  0  0  0
   17.7895  -30.9776   -5.9632 N   0  0  0  0  0  0  0  0  0  0  0  0
   17.2532  -30.1999   -7.0127 C   0  0  0  0  0  0  0  0  0  0  0  0
   16.7928  -30.7847   -8.0207 O   0  0  0  0  0  0  0  0  0  0  0  0
   17.2081  -28.7184   -6.9799 C   0  0  0  0  0  0  0  0  0  0  0  0
   17.8169  -28.1895   -5.6965 C   0  0  0  0  0  0  0  0  0  0  0  0
   17.7250  -26.7076   -5.7083 C   0  0  2  0  0  0  0  0  0  0  0  0
   18.4764  -26.0716   -6.7345 N   0  0  0  0  0  0  0  0  0  0  0  0
   17.8370  -26.0648   -4.3572 C   0  0  0  0  0  0  0  0  0  0  0  0
   18.9222  -25.6243   -3.8986 O   0  0  0  0  0  0  0  0  0  0  0  0
   16.6805  -25.9269   -3.5230 N   0  0  0  0  0  0  0  0  0  0  0  0
   16.7952  -25.3202   -2.1903 C   0  0  1  0  0  0  0  0  0  0  0  0
   15.5094  -24.5868   -1.8768 C   0  0  0  0  0  0  0  0  0  0  0  0
   15.5272  -23.9775   -0.4950 C   0  0  0  0  0  0  0  0  0  0  0  0
   14.1960  -23.2778   -0.3140 C   0  0  0  0  0  0  0  0  0  0  0  0
   14.0766  -22.6182    1.0375 C   0  0  0  0  0  0  0  0  0  0  0  0
   12.8596  -21.8247    1.0181 N   0  0  0  0  0  0  0  0  0  0  0  0
   17.0946  -26.3570   -1.1724 C   0  0  0  0  0  0  0  0  0  0  0  0
   16.8027  -27.6929   -1.3824 O   0  0  0  0  0  0  0  0  0  0  0  0
   17.6276  -26.0335   -0.0836 O   0  0  0  0  0  0  0  0  0  0  0  0
  2  1  1  6
  2  5  1  0
  3  2  1  0
  4  3  1  0
  5  6  2  0
  7  8  1  0
  8  9  2  0
  8 10  1  0
 10 11  1  0
 12 11  1  1
 13  5  1  0
 13 12  1  0
 14 12  1  0
 14 15  2  0
 16 14  1  0
 17 16  1  0
 17 23  1  0
 17 18  1  1
 19 18  1  0
 20 19  1  0
 21 20  1  0
 21 22  1  0
 23 24  1  0
 25 23  2  0
M  END
$$$$
