CQK.pdb
     RDKit          3D

 25 24  0  0  1  0  0  0  0  0999 V2000
   21.6940  -19.1632  -16.9344 N   0  0  0  0  0  0  0  0  0  0  0  0
   22.1973  -20.4773  -17.2517 C   0  0  1  0  0  0  0  0  0  0  0  0
   23.4522  -20.3367  -18.0709 C   0  0  0  0  0  0  0  0  0  0  0  0
   24.6562  -19.3824  -17.1267 S   0  0  0  0  0  0  0  0  0  0  0  0
   22.4267  -21.3160  -16.0359 C   0  0  0  0  0  0  0  0  0  0  0  0
   22.7312  -22.5242  -16.1683 O   0  0  0  0  0  0  0  0  0  0  0  0
   25.5400  -22.4324  -11.7694 N   0  0  0  0  0  0  0  0  0  0  0  0
   25.7650  -21.5090  -12.8136 C   0  0  0  0  0  0  0  0  0  0  0  0
   26.8723  -21.5216  -13.4001 O   0  0  0  0  0  0  0  0  0  0  0  0
   24.7505  -20.5208  -13.2520 C   0  0  0  0  0  0  0  0  0  0  0  0
   23.4289  -20.7579  -12.5486 C   0  0  0  0  0  0  0  0  0  0  0  0
   22.5146  -21.4548  -13.4882 C   0  0  2  0  0  0  0  0  0  0  0  0
   22.3107  -20.7874  -14.7273 N   0  0  0  0  0  0  0  0  0  0  0  0
   21.2682  -22.0009  -12.8561 C   0  0  0  0  0  0  0  0  0  0  0  0
   21.2687  -22.5932  -11.7466 O   0  0  0  0  0  0  0  0  0  0  0  0
   20.0025  -21.8610  -13.5125 N   0  0  0  0  0  0  0  0  0  0  0  0
   18.7852  -22.4108  -12.9015 C   0  0  1  0  0  0  0  0  0  0  0  0
   17.6289  -21.4810  -13.1981 C   0  0  0  0  0  0  0  0  0  0  0  0
   16.3131  -22.0407  -12.7121 C   0  0  0  0  0  0  0  0  0  0  0  0
   15.2305  -21.1261  -13.2468 C   0  0  0  0  0  0  0  0  0  0  0  0
   13.8557  -21.5333  -12.7779 C   0  0  0  0  0  0  0  0  0  0  0  0
   12.9471  -20.4581  -13.1377 N   0  0  0  0  0  0  0  0  0  0  0  0
   18.5262  -23.7821  -13.4045 C   0  0  0  0  0  0  0  0  0  0  0  0
   18.0453  -24.7839  -12.5804 O   0  0  0  0  0  0  0  0  0  0  0  0
   18.7431  -24.0615  -14.6082 O   0  0  0  0  0  0  0  0  0  0  0  0
  2  1  1  1
  2  5  1  0
  3  2  1  0
  4  3  1  0
  5  6  2  0
  7  8  1  0
  8  9  2  0
  8 10  1  0
 10 11  1  0
 12 11  1  1
 13  5  1  0
 13 12  1  0
 14 12  1  0
 14 15  2  0
 16 14  1  0
 17 16  1  0
 17 23  1  0
 17 18  1  6
 19 18  1  0
 20 19  1  0
 21 20  1  0
 21 22  1  0
 23 24  1  0
 25 23  2  0
M  END
$$$$
