CQK.pdb
     RDKit          3D

 25 24  0  0  1  0  0  0  0  0999 V2000
   24.4317  -13.5011  -17.5988 N   0  0  0  0  0  0  0  0  0  0  0  0
   24.1890  -12.8419  -16.3389 C   0  0  1  0  0  0  0  0  0  0  0  0
   25.5078  -12.4456  -15.7311 C   0  0  0  0  0  0  0  0  0  0  0  0
   26.4967  -13.9315  -15.4739 S   0  0  0  0  0  0  0  0  0  0  0  0
   23.2705  -11.6699  -16.4690 C   0  0  0  0  0  0  0  0  0  0  0  0
   23.3847  -10.9028  -17.4531 O   0  0  0  0  0  0  0  0  0  0  0  0
   17.4809  -11.4524  -14.1023 N   0  0  0  0  0  0  0  0  0  0  0  0
   18.0622  -12.0663  -15.2332 C   0  0  0  0  0  0  0  0  0  0  0  0
   17.4369  -12.9895  -15.8050 O   0  0  0  0  0  0  0  0  0  0  0  0
   19.3822  -11.6701  -15.7795 C   0  0  0  0  0  0  0  0  0  0  0  0
   20.0254  -10.6050  -14.9140 C   0  0  0  0  0  0  0  0  0  0  0  0
   21.3663  -10.2934  -15.4704 C   0  0  2  0  0  0  0  0  0  0  0  0
   22.2661  -11.3939  -15.5096 N   0  0  0  0  0  0  0  0  0  0  0  0
   21.9646   -9.0099  -14.9746 C   0  0  0  0  0  0  0  0  0  0  0  0
   23.1904   -8.8801  -14.7241 O   0  0  0  0  0  0  0  0  0  0  0  0
   21.1377   -7.8589  -14.7655 N   0  0  0  0  0  0  0  0  0  0  0  0
   21.7353   -6.5191  -14.6950 C   0  0  1  0  0  0  0  0  0  0  0  0
   22.5152   -6.2662  -15.9667 C   0  0  0  0  0  0  0  0  0  0  0  0
   23.1752   -4.9078  -15.9658 C   0  0  0  0  0  0  0  0  0  0  0  0
   23.9960   -4.8252  -17.2362 C   0  0  0  0  0  0  0  0  0  0  0  0
   24.6991   -3.4979  -17.3767 C   0  0  0  0  0  0  0  0  0  0  0  0
   25.4538   -3.5449  -18.6174 N   0  0  0  0  0  0  0  0  0  0  0  0
   20.6849   -5.4929  -14.4853 C   0  0  0  0  0  0  0  0  0  0  0  0
   20.9115   -4.3603  -13.7237 O   0  0  0  0  0  0  0  0  0  0  0  0
   19.5521   -5.6376  -15.0049 O   0  0  0  0  0  0  0  0  0  0  0  0
  2  1  1  6
  2  5  1  0
  3  2  1  0
  4  3  1  0
  5  6  2  0
  7  8  1  0
  8  9  2  0
  8 10  1  0
 10 11  1  0
 12 11  1  1
 13  5  1  0
 13 12  1  0
 14 12  1  0
 14 15  2  0
 16 14  1  0
 17 16  1  0
 17 23  1  0
 17 18  1  6
 19 18  1  0
 20 19  1  0
 21 20  1  0
 21 22  1  0
 23 24  1  0
 25 23  2  0
M  END
$$$$
