CQK.pdb
     RDKit          3D

 25 24  0  0  1  0  0  0  0  0999 V2000
   15.0387  -12.2244  -15.1477 N   0  0  0  0  0  0  0  0  0  0  0  0
   16.3015  -11.6171  -14.8054 C   0  0  1  0  0  0  0  0  0  0  0  0
   17.0978  -11.3994  -16.0640 C   0  0  0  0  0  0  0  0  0  0  0  0
   17.8044  -12.9756  -16.5820 S   0  0  0  0  0  0  0  0  0  0  0  0
   16.1401  -10.3484  -14.0317 C   0  0  0  0  0  0  0  0  0  0  0  0
   14.9945   -9.8690  -13.8649 O   0  0  0  0  0  0  0  0  0  0  0  0
   14.3954   -8.5096   -9.3706 N   0  0  0  0  0  0  0  0  0  0  0  0
   15.3896   -7.5120   -9.4705 C   0  0  0  0  0  0  0  0  0  0  0  0
   15.4321   -6.6148   -8.5967 O   0  0  0  0  0  0  0  0  0  0  0  0
   16.3903   -7.4741  -10.5637 C   0  0  0  0  0  0  0  0  0  0  0  0
   16.2613   -8.6940  -11.4541 C   0  0  0  0  0  0  0  0  0  0  0  0
   17.2385   -8.5706  -12.5652 C   0  0  2  0  0  0  0  0  0  0  0  0
   17.2475   -9.6629  -13.4756 N   0  0  0  0  0  0  0  0  0  0  0  0
   18.5970   -8.0871  -12.1504 C   0  0  0  0  0  0  0  0  0  0  0  0
   19.2582   -8.6216  -11.2236 O   0  0  0  0  0  0  0  0  0  0  0  0
   19.2024   -6.9715  -12.8148 N   0  0  0  0  0  0  0  0  0  0  0  0
   20.6556   -6.7685  -12.7494 C   0  0  1  0  0  0  0  0  0  0  0  0
   21.3432   -7.9719  -13.3565 C   0  0  0  0  0  0  0  0  0  0  0  0
   21.3099   -7.9415  -14.8661 C   0  0  0  0  0  0  0  0  0  0  0  0
   22.0983   -9.1449  -15.3401 C   0  0  0  0  0  0  0  0  0  0  0  0
   22.2388   -9.1802  -16.8417 C   0  0  0  0  0  0  0  0  0  0  0  0
   22.9756  -10.3882  -17.1722 N   0  0  0  0  0  0  0  0  0  0  0  0
   21.0359   -5.5141  -13.4438 C   0  0  0  0  0  0  0  0  0  0  0  0
   22.2759   -4.9271  -13.2651 O   0  0  0  0  0  0  0  0  0  0  0  0
   20.2242   -4.9540  -14.2193 O   0  0  0  0  0  0  0  0  0  0  0  0
  2  1  1  6
  2  5  1  0
  3  2  1  0
  4  3  1  0
  5  6  2  0
  7  8  1  0
  8  9  2  0
  8 10  1  0
 10 11  1  0
 12 11  1  1
 13  5  1  0
 13 12  1  0
 14 12  1  0
 14 15  2  0
 16 14  1  0
 17 16  1  0
 17 23  1  0
 17 18  1  6
 19 18  1  0
 20 19  1  0
 21 20  1  0
 21 22  1  0
 23 24  1  0
 25 23  2  0
M  END
$$$$
