CQK.pdb
     RDKit          3D

 25 24  0  0  1  0  0  0  0  0999 V2000
   29.3328  -22.6101  -17.1369 N   0  0  0  0  0  0  0  0  0  0  0  0
   28.3565  -22.1385  -18.0884 C   0  0  1  0  0  0  0  0  0  0  0  0
   27.7997  -23.3156  -18.8434 C   0  0  0  0  0  0  0  0  0  0  0  0
   29.1672  -24.2269  -19.5858 S   0  0  0  0  0  0  0  0  0  0  0  0
   27.2714  -21.3330  -17.4499 C   0  0  0  0  0  0  0  0  0  0  0  0
   26.6502  -21.8030  -16.4684 O   0  0  0  0  0  0  0  0  0  0  0  0
   27.7127  -16.4555  -19.6673 N   0  0  0  0  0  0  0  0  0  0  0  0
   28.2509  -16.6341  -18.3742 C   0  0  0  0  0  0  0  0  0  0  0  0
   29.3917  -16.1776  -18.1286 O   0  0  0  0  0  0  0  0  0  0  0  0
   27.5288  -17.3387  -17.2879 C   0  0  0  0  0  0  0  0  0  0  0  0
   26.1348  -17.7317  -17.7347 C   0  0  0  0  0  0  0  0  0  0  0  0
   25.9236  -19.1651  -17.4102 C   0  0  2  0  0  0  0  0  0  0  0  0
   26.9178  -20.0448  -17.9200 N   0  0  0  0  0  0  0  0  0  0  0  0
   24.5121  -19.6430  -17.5852 C   0  0  0  0  0  0  0  0  0  0  0  0
   24.0988  -20.1764  -18.6467 O   0  0  0  0  0  0  0  0  0  0  0  0
   23.5637  -19.5049  -16.5205 N   0  0  0  0  0  0  0  0  0  0  0  0
   22.1651  -19.9088  -16.7158 C   0  0  1  0  0  0  0  0  0  0  0  0
   21.7510  -20.8013  -15.5663 C   0  0  0  0  0  0  0  0  0  0  0  0
   20.3065  -21.2291  -15.6731 C   0  0  0  0  0  0  0  0  0  0  0  0
   20.0177  -22.0838  -14.4564 C   0  0  0  0  0  0  0  0  0  0  0  0
   18.6070  -22.6184  -14.4558 C   0  0  0  0  0  0  0  0  0  0  0  0
   18.4274  -23.3447  -13.2103 N   0  0  0  0  0  0  0  0  0  0  0  0
   21.2906  -18.7154  -16.8230 C   0  0  0  0  0  0  0  0  0  0  0  0
   20.0780  -18.7555  -17.4879 O   0  0  0  0  0  0  0  0  0  0  0  0
   21.6427  -17.6293  -16.3028 O   0  0  0  0  0  0  0  0  0  0  0  0
  2  1  1  1
  2  5  1  0
  3  2  1  0
  4  3  1  0
  5  6  2  0
  7  8  1  0
  8  9  2  0
  8 10  1  0
 10 11  1  0
 12 11  1  6
 13  5  1  0
 13 12  1  0
 14 12  1  0
 14 15  2  0
 16 14  1  0
 17 16  1  0
 17 23  1  0
 17 18  1  1
 19 18  1  0
 20 19  1  0
 21 20  1  0
 21 22  1  0
 23 24  1  0
 25 23  2  0
M  END
$$$$
