CQK.pdb
     RDKit          3D

 25 24  0  0  1  0  0  0  0  0999 V2000
   16.8332  -26.0822    2.4198 N   0  0  0  0  0  0  0  0  0  0  0  0
   16.3577  -25.3672    3.5789 C   0  0  1  0  0  0  0  0  0  0  0  0
   16.5466  -26.2294    4.7982 C   0  0  0  0  0  0  0  0  0  0  0  0
   15.9775  -27.8984    4.4209 S   0  0  0  0  0  0  0  0  0  0  0  0
   17.0132  -24.0339    3.7428 C   0  0  0  0  0  0  0  0  0  0  0  0
   17.8356  -23.6409    2.8830 O   0  0  0  0  0  0  0  0  0  0  0  0
   15.9729  -19.1300    1.8054 N   0  0  0  0  0  0  0  0  0  0  0  0
   16.7137  -18.6759    2.9184 C   0  0  0  0  0  0  0  0  0  0  0  0
   17.0645  -17.4736    2.9580 O   0  0  0  0  0  0  0  0  0  0  0  0
   17.0985  -19.5562    4.0475 C   0  0  0  0  0  0  0  0  0  0  0  0
   16.6173  -20.9742    3.8128 C   0  0  0  0  0  0  0  0  0  0  0  0
   17.0054  -21.8022    4.9826 C   0  0  2  0  0  0  0  0  0  0  0  0
   16.7343  -23.1915    4.8464 N   0  0  0  0  0  0  0  0  0  0  0  0
   16.6322  -21.2166    6.3128 C   0  0  0  0  0  0  0  0  0  0  0  0
   15.4638  -21.2642    6.7758 O   0  0  0  0  0  0  0  0  0  0  0  0
   17.6210  -20.5678    7.1212 N   0  0  0  0  0  0  0  0  0  0  0  0
   17.2579  -20.0059    8.4288 C   0  0  1  0  0  0  0  0  0  0  0  0
   18.4886  -19.9860    9.3089 C   0  0  0  0  0  0  0  0  0  0  0  0
   18.1726  -19.5324   10.7143 C   0  0  0  0  0  0  0  0  0  0  0  0
   19.4481  -19.6890   11.5161 C   0  0  0  0  0  0  0  0  0  0  0  0
   19.2671  -19.2926   12.9604 C   0  0  0  0  0  0  0  0  0  0  0  0
   20.5185  -19.5795   13.6408 N   0  0  0  0  0  0  0  0  0  0  0  0
   16.6794  -18.6494    8.2680 C   0  0  0  0  0  0  0  0  0  0  0  0
   16.0749  -17.9836    9.3193 O   0  0  0  0  0  0  0  0  0  0  0  0
   16.7297  -18.0725    7.1550 O   0  0  0  0  0  0  0  0  0  0  0  0
  2  1  1  6
  2  5  1  0
  3  2  1  0
  4  3  1  0
  5  6  2  0
  7  8  1  0
  8  9  2  0
  8 10  1  0
 10 11  1  0
 12 11  1  6
 13  5  1  0
 13 12  1  0
 14 12  1  0
 14 15  2  0
 16 14  1  0
 17 16  1  0
 17 23  1  0
 17 18  1  1
 19 18  1  0
 20 19  1  0
 21 20  1  0
 21 22  1  0
 23 24  1  0
 25 23  2  0
M  END
$$$$
