LQI.pdb
     RDKit          3D

 26 25  0  0  1  0  0  0  0  0999 V2000
    9.5243  -13.4381   19.3444 C   0  0  0  0  0  0  0  0  0  0  0  0
    8.1008  -13.3878   18.7802 C   0  0  2  0  0  0  0  0  0  0  0  0
    7.6064  -11.9453   18.8213 C   0  0  0  0  0  0  0  0  0  0  0  0
    7.1955  -14.3170   19.5443 C   0  0  0  0  0  0  0  0  0  0  0  0
    7.9341  -15.5509   19.9268 C   0  0  2  0  0  0  0  0  0  0  0  0
    7.7771  -16.5970   18.9522 N   0  0  0  0  0  0  0  0  0  0  0  0
    7.4828  -16.0200   21.2813 C   0  0  0  0  0  0  0  0  0  0  0  0
    6.4075  -15.6091   21.7516 O   0  0  0  0  0  0  0  0  0  0  0  0
    6.5296  -20.5408   24.2413 N   0  0  0  0  0  0  0  0  0  0  0  0
    7.0445  -19.7281   25.2913 C   0  0  0  0  0  0  0  0  0  0  0  0
    6.3840  -19.6104   26.3451 O   0  0  0  0  0  0  0  0  0  0  0  0
    8.3625  -19.0450   25.0877 C   0  0  0  0  0  0  0  0  0  0  0  0
    8.5386  -18.7130   23.6209 C   0  0  0  0  0  0  0  0  0  0  0  0
    7.9788  -17.3316   23.3556 C   0  0  2  0  0  0  0  0  0  0  0  0
    8.2947  -16.9303   22.0084 N   0  0  0  0  0  0  0  0  0  0  0  0
    8.5676  -16.3785   24.3552 C   0  0  0  0  0  0  0  0  0  0  0  0
    9.8146  -16.2580   24.4506 O   0  0  0  0  0  0  0  0  0  0  0  0
    6.7704  -11.1278   27.0390 C   0  0  0  0  0  0  0  0  0  0  0  0
    7.7384  -12.2879   27.0364 C   0  0  0  0  0  0  0  0  0  0  0  0
    7.2507  -13.4655   26.2597 C   0  0  2  0  0  0  0  0  0  0  0  0
    5.9242  -13.9025   26.8374 C   0  0  0  0  0  0  0  0  0  0  0  0
    8.2263  -14.5777   26.1110 C   0  0  2  0  0  0  0  0  0  0  0  0
    7.7208  -15.6102   25.1961 N   0  0  0  0  0  0  0  0  0  0  0  0
    8.7192  -15.1919   27.3353 C   0  0  0  0  0  0  0  0  0  0  0  0
    8.3013  -16.3035   27.7244 O   0  0  0  0  0  0  0  0  0  0  0  0
    9.6739  -14.5462   28.1021 O   0  0  0  0  0  0  0  0  0  0  0  0
  2  1  1  1
  2  4  1  0
  2  3  1  0
  5  7  1  0
  5  6  1  6
  5  4  1  0
  7  8  2  0
  9 10  1  0
 10 11  2  0
 10 12  1  0
 12 13  1  0
 14 13  1  1
 14 16  1  0
 15 14  1  0
 15  7  1  0
 16 17  2  0
 18 19  1  0
 19 20  1  0
 20 22  1  0
 20 21  1  1
 22 24  1  0
 23 16  1  0
 22 23  1  6
 24 25  2  0
 24 26  1  0
M  END
$$$$
