LQI.pdb
     RDKit          3D

 26 25  0  0  1  0  0  0  0  0999 V2000
    9.4423  -14.6898   18.6194 C   0  0  0  0  0  0  0  0  0  0  0  0
    8.0190  -14.1232   18.6086 C   0  0  2  0  0  0  0  0  0  0  0  0
    8.0876  -12.6275   18.3169 C   0  0  0  0  0  0  0  0  0  0  0  0
    7.3240  -14.4130   19.9123 C   0  0  0  0  0  0  0  0  0  0  0  0
    7.2585  -15.8817   20.1417 C   0  0  2  0  0  0  0  0  0  0  0  0
    6.3563  -16.5302   19.2283 N   0  0  0  0  0  0  0  0  0  0  0  0
    6.8609  -16.1618   21.5637 C   0  0  0  0  0  0  0  0  0  0  0  0
    5.7175  -15.8692   21.9553 O   0  0  0  0  0  0  0  0  0  0  0  0
    6.6710  -20.7136   24.8400 N   0  0  0  0  0  0  0  0  0  0  0  0
    6.8517  -19.8324   25.9440 C   0  0  0  0  0  0  0  0  0  0  0  0
    6.3890  -20.1556   27.0585 O   0  0  0  0  0  0  0  0  0  0  0  0
    7.5923  -18.5489   25.7222 C   0  0  0  0  0  0  0  0  0  0  0  0
    7.8639  -18.3710   24.2432 C   0  0  0  0  0  0  0  0  0  0  0  0
    7.5256  -16.9500   23.8454 C   0  0  2  0  0  0  0  0  0  0  0  0
    7.8012  -16.7596   22.4441 N   0  0  0  0  0  0  0  0  0  0  0  0
    8.3401  -16.0121   24.6885 C   0  0  0  0  0  0  0  0  0  0  0  0
    9.5826  -15.9325   24.5198 O   0  0  0  0  0  0  0  0  0  0  0  0
    5.6716  -11.8960   27.8989 C   0  0  0  0  0  0  0  0  0  0  0  0
    6.4044  -13.1742   27.5641 C   0  0  0  0  0  0  0  0  0  0  0  0
    7.5538  -12.9724   26.6334 C   0  0  2  0  0  0  0  0  0  0  0  0
    7.0279  -12.3791   25.3467 C   0  0  0  0  0  0  0  0  0  0  0  0
    8.4202  -14.1629   26.4252 C   0  0  2  0  0  0  0  0  0  0  0  0
    7.7125  -15.2119   25.6787 N   0  0  0  0  0  0  0  0  0  0  0  0
    9.0566  -14.7308   27.6048 C   0  0  0  0  0  0  0  0  0  0  0  0
    9.8333  -14.0592   28.3171 O   0  0  0  0  0  0  0  0  0  0  0  0
    8.8092  -16.0446   27.9643 O   0  0  0  0  0  0  0  0  0  0  0  0
  2  1  1  1
  2  4  1  0
  2  3  1  0
  5  7  1  0
  5  6  1  6
  5  4  1  0
  7  8  2  0
  9 10  1  0
 10 11  2  0
 10 12  1  0
 12 13  1  0
 14 13  1  1
 14 16  1  0
 15 14  1  0
 15  7  1  0
 16 17  2  0
 18 19  1  0
 19 20  1  0
 20 22  1  0
 20 21  1  6
 22 24  1  0
 23 16  1  0
 22 23  1  1
 24 25  2  0
 24 26  1  0
M  END
$$$$
