LQI.pdb
     RDKit          3D

 26 25  0  0  1  0  0  0  0  0999 V2000
    9.5301  -13.2344   19.3161 C   0  0  0  0  0  0  0  0  0  0  0  0
    8.0013  -13.2326   19.4146 C   0  0  2  0  0  0  0  0  0  0  0  0
    7.5152  -11.7887   19.4896 C   0  0  0  0  0  0  0  0  0  0  0  0
    7.5463  -14.0438   20.5985 C   0  0  0  0  0  0  0  0  0  0  0  0
    8.1312  -15.4107   20.5374 C   0  0  2  0  0  0  0  0  0  0  0  0
    7.4180  -16.2618   19.6232 N   0  0  0  0  0  0  0  0  0  0  0  0
    8.1593  -16.0188   21.9114 C   0  0  0  0  0  0  0  0  0  0  0  0
    7.1020  -16.1450   22.5536 O   0  0  0  0  0  0  0  0  0  0  0  0
   12.3782  -20.0425   24.0421 N   0  0  0  0  0  0  0  0  0  0  0  0
   11.6870  -19.7248   25.2460 C   0  0  0  0  0  0  0  0  0  0  0  0
   11.9748  -20.3457   26.2911 O   0  0  0  0  0  0  0  0  0  0  0  0
   10.6389  -18.6546   25.2091 C   0  0  0  0  0  0  0  0  0  0  0  0
   10.5561  -18.0762   23.8122 C   0  0  0  0  0  0  0  0  0  0  0  0
    9.5025  -16.9892   23.7884 C   0  0  2  0  0  0  0  0  0  0  0  0
    9.3989  -16.4427   22.4594 N   0  0  0  0  0  0  0  0  0  0  0  0
    9.8881  -15.9297   24.7797 C   0  0  0  0  0  0  0  0  0  0  0  0
   10.9129  -15.2293   24.5852 O   0  0  0  0  0  0  0  0  0  0  0  0
    6.1584  -12.6573   26.4369 C   0  0  0  0  0  0  0  0  0  0  0  0
    7.4726  -13.3100   26.0767 C   0  0  0  0  0  0  0  0  0  0  0  0
    8.2015  -13.8654   27.2549 C   0  0  2  0  0  0  0  0  0  0  0  0
    8.4771  -12.7367   28.2215 C   0  0  0  0  0  0  0  0  0  0  0  0
    9.4058  -14.6762   26.9334 C   0  0  2  0  0  0  0  0  0  0  0  0
    9.0989  -15.7138   25.9395 N   0  0  0  0  0  0  0  0  0  0  0  0
   10.1300  -15.2563   28.0550 C   0  0  0  0  0  0  0  0  0  0  0  0
    9.8616  -16.3975   28.4878 O   0  0  0  0  0  0  0  0  0  0  0  0
   11.1442  -14.5439   28.6717 O   0  0  0  0  0  0  0  0  0  0  0  0
  2  1  1  1
  2  4  1  0
  2  3  1  0
  5  7  1  0
  5  6  1  6
  5  4  1  0
  7  8  2  0
  9 10  1  0
 10 11  2  0
 10 12  1  0
 12 13  1  0
 14 13  1  6
 14 16  1  0
 15 14  1  0
 15  7  1  0
 16 17  2  0
 18 19  1  0
 19 20  1  0
 20 22  1  0
 20 21  1  1
 22 24  1  0
 23 16  1  0
 22 23  1  6
 24 25  2  0
 24 26  1  0
M  END
$$$$
