LQI.pdb
     RDKit          3D

 26 25  0  0  1  0  0  0  0  0999 V2000
    8.8595  -12.4469   18.8191 C   0  0  0  0  0  0  0  0  0  0  0  0
    7.7726  -13.5265   18.8319 C   0  0  2  0  0  0  0  0  0  0  0  0
    6.4495  -12.8971   18.4074 C   0  0  0  0  0  0  0  0  0  0  0  0
    7.6818  -14.1699   20.1900 C   0  0  0  0  0  0  0  0  0  0  0  0
    9.0386  -14.5510   20.6674 C   0  0  2  0  0  0  0  0  0  0  0  0
    9.7212  -15.4008   19.7289 N   0  0  0  0  0  0  0  0  0  0  0  0
    8.9414  -15.2192   22.0100 C   0  0  0  0  0  0  0  0  0  0  0  0
    8.0651  -14.8621   22.8166 O   0  0  0  0  0  0  0  0  0  0  0  0
   11.1981  -21.0329   23.8638 N   0  0  0  0  0  0  0  0  0  0  0  0
   10.3992  -20.2448   24.7405 C   0  0  0  0  0  0  0  0  0  0  0  0
    9.4325  -20.7795   25.3237 O   0  0  0  0  0  0  0  0  0  0  0  0
   10.7527  -18.8007   24.9279 C   0  0  0  0  0  0  0  0  0  0  0  0
   10.7817  -18.1086   23.5814 C   0  0  0  0  0  0  0  0  0  0  0  0
    9.7931  -16.9621   23.5930 C   0  0  2  0  0  0  0  0  0  0  0  0
    9.8563  -16.2541   22.3399 N   0  0  0  0  0  0  0  0  0  0  0  0
   10.1268  -16.0563   24.7428 C   0  0  0  0  0  0  0  0  0  0  0  0
   11.2607  -15.5195   24.8121 O   0  0  0  0  0  0  0  0  0  0  0  0
    6.7622  -12.2639   25.9565 C   0  0  0  0  0  0  0  0  0  0  0  0
    7.9487  -13.1834   25.7846 C   0  0  0  0  0  0  0  0  0  0  0  0
    8.3289  -13.9016   27.0366 C   0  0  2  0  0  0  0  0  0  0  0  0
    8.5965  -12.8753   28.1133 C   0  0  0  0  0  0  0  0  0  0  0  0
    9.4185  -14.9028   26.8898 C   0  0  2  0  0  0  0  0  0  0  0  0
    9.1656  -15.8018   25.7556 N   0  0  0  0  0  0  0  0  0  0  0  0
    9.7687  -15.6757   28.0726 C   0  0  0  0  0  0  0  0  0  0  0  0
    9.3234  -16.8287   28.2568 O   0  0  0  0  0  0  0  0  0  0  0  0
   10.6141  -15.1397   29.0289 O   0  0  0  0  0  0  0  0  0  0  0  0
  2  1  1  1
  2  4  1  0
  2  3  1  0
  5  7  1  0
  5  6  1  6
  5  4  1  0
  7  8  2  0
  9 10  1  0
 10 11  2  0
 10 12  1  0
 12 13  1  0
 14 13  1  6
 14 16  1  0
 15 14  1  0
 15  7  1  0
 16 17  2  0
 18 19  1  0
 19 20  1  0
 20 22  1  0
 20 21  1  1
 22 24  1  0
 23 16  1  0
 22 23  1  6
 24 25  2  0
 24 26  1  0
M  END
$$$$
