LQI.pdb
     RDKit          3D

 26 25  0  0  1  0  0  0  0  0999 V2000
    9.2604  -13.6741   18.3303 C   0  0  0  0  0  0  0  0  0  0  0  0
    7.7632  -13.9957   18.3780 C   0  0  2  0  0  0  0  0  0  0  0  0
    6.9998  -12.8900   17.6557 C   0  0  0  0  0  0  0  0  0  0  0  0
    7.3029  -14.1626   19.8017 C   0  0  0  0  0  0  0  0  0  0  0  0
    8.0535  -15.2685   20.4557 C   0  0  2  0  0  0  0  0  0  0  0  0
    7.9716  -16.4930   19.7056 N   0  0  0  0  0  0  0  0  0  0  0  0
    7.5488  -15.4733   21.8563 C   0  0  0  0  0  0  0  0  0  0  0  0
    7.1651  -14.4972   22.5244 O   0  0  0  0  0  0  0  0  0  0  0  0
    6.9729  -21.1520   24.6326 N   0  0  0  0  0  0  0  0  0  0  0  0
    6.6538  -20.2670   25.7016 C   0  0  0  0  0  0  0  0  0  0  0  0
    6.3902  -20.7451   26.8252 O   0  0  0  0  0  0  0  0  0  0  0  0
    6.6475  -18.7928   25.4334 C   0  0  0  0  0  0  0  0  0  0  0  0
    7.1040  -18.5355   24.0127 C   0  0  0  0  0  0  0  0  0  0  0  0
    7.0950  -17.0441   23.7525 C   0  0  2  0  0  0  0  0  0  0  0  0
    7.5171  -16.7850   22.3996 N   0  0  0  0  0  0  0  0  0  0  0  0
    8.0114  -16.3822   24.7405 C   0  0  0  0  0  0  0  0  0  0  0  0
    9.2509  -16.5776   24.6776 O   0  0  0  0  0  0  0  0  0  0  0  0
    6.1309  -11.5227   26.3678 C   0  0  0  0  0  0  0  0  0  0  0  0
    6.9718  -12.6854   25.8943 C   0  0  0  0  0  0  0  0  0  0  0  0
    7.6097  -13.4480   27.0076 C   0  0  2  0  0  0  0  0  0  0  0  0
    8.4631  -12.4947   27.8120 C   0  0  0  0  0  0  0  0  0  0  0  0
    8.3273  -14.6855   26.6015 C   0  0  2  0  0  0  0  0  0  0  0  0
    7.4838  -15.5341   25.7489 N   0  0  0  0  0  0  0  0  0  0  0  0
    8.9252  -15.4809   27.6639 C   0  0  0  0  0  0  0  0  0  0  0  0
    8.3407  -16.4747   28.1459 O   0  0  0  0  0  0  0  0  0  0  0  0
   10.1706  -15.1460   28.1671 O   0  0  0  0  0  0  0  0  0  0  0  0
  2  1  1  1
  2  4  1  0
  2  3  1  0
  5  7  1  0
  5  6  1  6
  5  4  1  0
  7  8  2  0
  9 10  1  0
 10 11  2  0
 10 12  1  0
 12 13  1  0
 14 13  1  1
 14 16  1  0
 15 14  1  0
 15  7  1  0
 16 17  2  0
 18 19  1  0
 19 20  1  0
 20 22  1  0
 20 21  1  6
 22 24  1  0
 23 16  1  0
 22 23  1  1
 24 25  2  0
 24 26  1  0
M  END
$$$$
