LQI.pdb
     RDKit          3D

 26 25  0  0  1  0  0  0  0  0999 V2000
    9.6315  -13.4756   18.7682 C   0  0  0  0  0  0  0  0  0  0  0  0
    8.1099  -13.5229   18.5965 C   0  0  2  0  0  0  0  0  0  0  0  0
    7.5923  -12.1006   18.4058 C   0  0  0  0  0  0  0  0  0  0  0  0
    7.4654  -14.2052   19.7738 C   0  0  0  0  0  0  0  0  0  0  0  0
    8.1018  -15.5295   20.0088 C   0  0  2  0  0  0  0  0  0  0  0  0
    7.6041  -16.5342   19.1078 N   0  0  0  0  0  0  0  0  0  0  0  0
    7.8951  -15.9522   21.4361 C   0  0  0  0  0  0  0  0  0  0  0  0
    6.7585  -15.9014   21.9378 O   0  0  0  0  0  0  0  0  0  0  0  0
   11.1674  -20.3415   23.9871 N   0  0  0  0  0  0  0  0  0  0  0  0
   10.2771  -20.3030   22.8762 C   0  0  0  0  0  0  0  0  0  0  0  0
   10.2245  -21.2869   22.1083 O   0  0  0  0  0  0  0  0  0  0  0  0
    9.4369  -19.0790   22.6737 C   0  0  0  0  0  0  0  0  0  0  0  0
    9.7175  -18.0845   23.7806 C   0  0  0  0  0  0  0  0  0  0  0  0
    8.8731  -16.8474   23.5601 C   0  0  2  0  0  0  0  0  0  0  0  0
    9.0063  -16.4057   22.1952 N   0  0  0  0  0  0  0  0  0  0  0  0
    9.3255  -15.7841   24.5186 C   0  0  0  0  0  0  0  0  0  0  0  0
   10.4421  -15.2297   24.3618 O   0  0  0  0  0  0  0  0  0  0  0  0
    5.8810  -12.0704   26.9996 C   0  0  0  0  0  0  0  0  0  0  0  0
    6.6386  -13.3723   26.8818 C   0  0  0  0  0  0  0  0  0  0  0  0
    8.0829  -13.1902   26.5518 C   0  0  2  0  0  0  0  0  0  0  0  0
    8.1829  -12.4717   25.2259 C   0  0  0  0  0  0  0  0  0  0  0  0
    8.9114  -14.4231   26.6205 C   0  0  2  0  0  0  0  0  0  0  0  0
    8.4965  -15.4001   25.6047 N   0  0  0  0  0  0  0  0  0  0  0  0
    9.0263  -15.0699   27.9195 C   0  0  0  0  0  0  0  0  0  0  0  0
    9.4922  -14.4690   28.9112 O   0  0  0  0  0  0  0  0  0  0  0  0
    8.6154  -16.3818   28.0823 O   0  0  0  0  0  0  0  0  0  0  0  0
  2  1  1  1
  2  4  1  0
  2  3  1  0
  5  7  1  0
  5  6  1  6
  5  4  1  0
  7  8  2  0
  9 10  1  0
 10 11  2  0
 10 12  1  0
 12 13  1  0
 14 13  1  6
 14 16  1  0
 15 14  1  0
 15  7  1  0
 16 17  2  0
 18 19  1  0
 19 20  1  0
 20 22  1  0
 20 21  1  6
 22 24  1  0
 23 16  1  0
 22 23  1  6
 24 25  2  0
 24 26  1  0
M  END
$$$$
