LQI.pdb
     RDKit          3D

 26 25  0  0  1  0  0  0  0  0999 V2000
    9.4050  -13.7208   19.9452 C   0  0  0  0  0  0  0  0  0  0  0  0
    8.1213  -14.0431   19.1736 C   0  0  2  0  0  0  0  0  0  0  0  0
    7.6069  -12.7648   18.5193 C   0  0  0  0  0  0  0  0  0  0  0  0
    7.0965  -14.6621   20.0864 C   0  0  0  0  0  0  0  0  0  0  0  0
    7.6470  -15.8947   20.7124 C   0  0  2  0  0  0  0  0  0  0  0  0
    8.3854  -16.6935   19.7715 N   0  0  0  0  0  0  0  0  0  0  0  0
    6.5359  -16.6977   21.3283 C   0  0  0  0  0  0  0  0  0  0  0  0
    6.1422  -17.7375   20.7715 O   0  0  0  0  0  0  0  0  0  0  0  0
    7.1981  -20.9073   23.5196 N   0  0  0  0  0  0  0  0  0  0  0  0
    5.9896  -20.4793   22.8998 C   0  0  0  0  0  0  0  0  0  0  0  0
    5.2428  -21.3327   22.3757 O   0  0  0  0  0  0  0  0  0  0  0  0
    5.6623  -19.0170   22.9019 C   0  0  0  0  0  0  0  0  0  0  0  0
    6.7483  -18.2571   23.6341 C   0  0  0  0  0  0  0  0  0  0  0  0
    6.3083  -16.8204   23.8187 C   0  0  2  0  0  0  0  0  0  0  0  0
    5.9486  -16.2552   22.5432 N   0  0  0  0  0  0  0  0  0  0  0  0
    7.4344  -16.0543   24.4507 C   0  0  0  0  0  0  0  0  0  0  0  0
    8.5287  -15.9311   23.8458 O   0  0  0  0  0  0  0  0  0  0  0  0
    6.3384  -11.7112   27.9480 C   0  0  0  0  0  0  0  0  0  0  0  0
    6.6906  -13.1390   27.6016 C   0  0  0  0  0  0  0  0  0  0  0  0
    7.7992  -13.2522   26.6086 C   0  0  2  0  0  0  0  0  0  0  0  0
    7.3843  -12.5333   25.3456 C   0  0  0  0  0  0  0  0  0  0  0  0
    8.2983  -14.6320   26.3670 C   0  0  2  0  0  0  0  0  0  0  0  0
    7.2693  -15.4664   25.7319 N   0  0  0  0  0  0  0  0  0  0  0  0
    8.8795  -15.3323   27.5032 C   0  0  0  0  0  0  0  0  0  0  0  0
    8.3843  -16.3924   27.9419 O   0  0  0  0  0  0  0  0  0  0  0  0
   10.0081  -14.8292   28.1274 O   0  0  0  0  0  0  0  0  0  0  0  0
  2  1  1  1
  2  4  1  0
  2  3  1  0
  5  7  1  0
  5  6  1  6
  5  4  1  0
  7  8  2  0
  9 10  1  0
 10 11  2  0
 10 12  1  0
 12 13  1  0
 14 13  1  6
 14 16  1  0
 15 14  1  0
 15  7  1  0
 16 17  2  0
 18 19  1  0
 19 20  1  0
 20 22  1  0
 20 21  1  6
 22 24  1  0
 23 16  1  0
 22 23  1  1
 24 25  2  0
 24 26  1  0
M  END
$$$$
