LQI.pdb
     RDKit          3D

 26 25  0  0  1  0  0  0  0  0999 V2000
    9.3031  -13.5534   19.1034 C   0  0  0  0  0  0  0  0  0  0  0  0
    7.8984  -13.9001   18.5997 C   0  0  2  0  0  0  0  0  0  0  0  0
    7.2692  -12.6479   17.9971 C   0  0  0  0  0  0  0  0  0  0  0  0
    7.0627  -14.4716   19.7141 C   0  0  0  0  0  0  0  0  0  0  0  0
    7.8150  -15.5443   20.4193 C   0  0  2  0  0  0  0  0  0  0  0  0
    7.6175  -16.8317   19.8090 N   0  0  0  0  0  0  0  0  0  0  0  0
    7.4188  -15.5814   21.8685 C   0  0  0  0  0  0  0  0  0  0  0  0
    7.1221  -14.5262   22.4558 O   0  0  0  0  0  0  0  0  0  0  0  0
    7.2191  -20.8860   25.3513 N   0  0  0  0  0  0  0  0  0  0  0  0
    6.8086  -19.8985   26.2917 C   0  0  0  0  0  0  0  0  0  0  0  0
    6.4946  -20.2561   27.4467 O   0  0  0  0  0  0  0  0  0  0  0  0
    6.7701  -18.4657   25.8549 C   0  0  0  0  0  0  0  0  0  0  0  0
    7.1231  -18.3756   24.3852 C   0  0  0  0  0  0  0  0  0  0  0  0
    7.0492  -16.9286   23.9464 C   0  0  2  0  0  0  0  0  0  0  0  0
    7.3887  -16.8270   22.5499 N   0  0  0  0  0  0  0  0  0  0  0  0
    7.9944  -16.1250   24.7919 C   0  0  0  0  0  0  0  0  0  0  0  0
    9.2327  -16.1960   24.5920 O   0  0  0  0  0  0  0  0  0  0  0  0
    5.8276  -11.8060   28.0714 C   0  0  0  0  0  0  0  0  0  0  0  0
    6.4241  -13.1419   27.6940 C   0  0  0  0  0  0  0  0  0  0  0  0
    7.5799  -13.0315   26.7560 C   0  0  2  0  0  0  0  0  0  0  0  0
    7.1021  -12.3667   25.4856 C   0  0  0  0  0  0  0  0  0  0  0  0
    8.3284  -14.2940   26.5176 C   0  0  2  0  0  0  0  0  0  0  0  0
    7.4954  -15.2826   25.8195 N   0  0  0  0  0  0  0  0  0  0  0  0
    8.9730  -14.9071   27.6698 C   0  0  0  0  0  0  0  0  0  0  0  0
    9.8113  -14.2866   28.3582 O   0  0  0  0  0  0  0  0  0  0  0  0
    8.6645  -16.2079   28.0293 O   0  0  0  0  0  0  0  0  0  0  0  0
  2  1  1  1
  2  4  1  0
  2  3  1  0
  5  7  1  0
  5  6  1  6
  5  4  1  0
  7  8  2  0
  9 10  1  0
 10 11  2  0
 10 12  1  0
 12 13  1  0
 14 13  1  1
 14 16  1  0
 15 14  1  0
 15  7  1  0
 16 17  2  0
 18 19  1  0
 19 20  1  0
 20 22  1  0
 20 21  1  6
 22 24  1  0
 23 16  1  0
 22 23  1  1
 24 25  2  0
 24 26  1  0
M  END
$$$$
