LQI.pdb
     RDKit          3D

 26 25  0  0  1  0  0  0  0  0999 V2000
    8.7557  -12.9087   17.6760 C   0  0  0  0  0  0  0  0  0  0  0  0
    7.6812  -13.8353   18.2541 C   0  0  2  0  0  0  0  0  0  0  0  0
    6.3804  -13.6180   17.4875 C   0  0  0  0  0  0  0  0  0  0  0  0
    7.5134  -13.5943   19.7307 C   0  0  0  0  0  0  0  0  0  0  0  0
    8.8150  -13.7729   20.4294 C   0  0  2  0  0  0  0  0  0  0  0  0
    9.8267  -14.3051   19.5565 N   0  0  0  0  0  0  0  0  0  0  0  0
    8.6356  -14.6585   21.6303 C   0  0  0  0  0  0  0  0  0  0  0  0
    7.6627  -14.4869   22.3855 O   0  0  0  0  0  0  0  0  0  0  0  0
    9.7141  -20.1872   22.5004 N   0  0  0  0  0  0  0  0  0  0  0  0
   10.0241  -19.8822   23.8565 C   0  0  0  0  0  0  0  0  0  0  0  0
    9.9186  -20.7804   24.7183 O   0  0  0  0  0  0  0  0  0  0  0  0
   10.4658  -18.4909   24.1948 C   0  0  0  0  0  0  0  0  0  0  0  0
   10.5107  -17.6541   22.9336 C   0  0  0  0  0  0  0  0  0  0  0  0
    9.5006  -16.5323   23.0479 C   0  0  2  0  0  0  0  0  0  0  0  0
    9.5844  -15.6835   21.8868 N   0  0  0  0  0  0  0  0  0  0  0  0
    9.7858  -15.7599   24.3034 C   0  0  0  0  0  0  0  0  0  0  0  0
   10.9206  -15.2522   24.4855 O   0  0  0  0  0  0  0  0  0  0  0  0
    6.1945  -12.2236   25.8350 C   0  0  0  0  0  0  0  0  0  0  0  0
    7.4410  -13.0415   25.5896 C   0  0  0  0  0  0  0  0  0  0  0  0
    7.8305  -13.8923   26.7525 C   0  0  2  0  0  0  0  0  0  0  0  0
    8.0187  -12.9983   27.9565 C   0  0  0  0  0  0  0  0  0  0  0  0
    8.9748  -14.8112   26.5134 C   0  0  2  0  0  0  0  0  0  0  0  0
    8.7775  -15.5993   25.2893 N   0  0  0  0  0  0  0  0  0  0  0  0
    9.3625  -15.6830   27.6128 C   0  0  0  0  0  0  0  0  0  0  0  0
    9.9636  -15.2434   28.6163 O   0  0  0  0  0  0  0  0  0  0  0  0
    9.0679  -17.0348   27.5660 O   0  0  0  0  0  0  0  0  0  0  0  0
  2  1  1  6
  2  4  1  0
  2  3  1  0
  5  7  1  0
  5  6  1  6
  5  4  1  0
  7  8  2  0
  9 10  1  0
 10 11  2  0
 10 12  1  0
 12 13  1  0
 14 13  1  6
 14 16  1  0
 15 14  1  0
 15  7  1  0
 16 17  2  0
 18 19  1  0
 19 20  1  0
 20 22  1  0
 20 21  1  1
 22 24  1  0
 23 16  1  0
 22 23  1  6
 24 25  2  0
 24 26  1  0
M  END
$$$$
