GGH.pdb
     RDKit          3D

 19 19  0  0  1  0  0  0  0  0999 V2000
   28.6617  -22.8274  -17.1384 N   0  0  0  0  0  0  0  0  0  0  0  0
   27.5079  -22.7563  -16.2775 C   0  0  0  0  0  0  0  0  0  0  0  0
   27.3057  -21.3528  -15.8192 C   0  0  0  0  0  0  0  0  0  0  0  0
   26.4230  -20.6476  -16.3481 O   0  0  0  0  0  0  0  0  0  0  0  0
   28.1371  -20.8685  -14.7848 N   0  0  0  0  0  0  0  0  0  0  0  0
   28.0127  -19.4900  -14.3521 C   0  0  0  0  0  0  0  0  0  0  0  0
   27.0031  -19.4243  -13.2609 C   0  0  0  0  0  0  0  0  0  0  0  0
   26.7355  -18.3357  -12.6790 O   0  0  0  0  0  0  0  0  0  0  0  0
   26.3051  -20.5846  -12.8357 N   0  0  0  0  0  0  0  0  0  0  0  0
   25.2687  -20.5762  -11.8403 C   0  0  1  0  0  0  0  0  0  0  0  0
   24.0013  -21.2378  -12.2971 C   0  0  0  0  0  0  0  0  0  0  0  0
   23.2903  -20.5213  -13.3505 C   0  0  0  0  0  0  0  0  0  0  0  0
   23.6092  -19.3106  -13.8863 C   0  0  0  0  0  0  0  0  0  0  0  0
   22.7005  -19.0201  -14.8207 N   0  0  0  0  0  0  0  0  0  0  0  0
   21.7994  -20.0188  -14.9006 C   0  0  0  0  0  0  0  0  0  0  0  0
   22.1848  -20.9350  -13.9825 N   0  0  0  0  0  0  0  0  0  0  0  0
   25.7394  -21.0740  -10.5209 C   0  0  0  0  0  0  0  0  0  0  0  0
   26.9006  -21.8277  -10.4033 O   0  0  0  0  0  0  0  0  0  0  0  0
   25.1271  -20.8486   -9.4453 O   0  0  0  0  0  0  0  0  0  0  0  0
  2  1  1  0
  3  2  1  0
  4  3  2  0
  5  3  1  0
  6  5  1  0
  7  6  1  0
  7  8  2  0
  9 10  1  0
  9  7  1  0
 11 12  1  0
 10 11  1  6
 12 16  1  0
 13 14  1  0
 13 12  2  0
 14 15  1  0
 15 16  2  0
 17 10  1  0
 17 18  1  0
 19 17  2  0
M  END
$$$$
