GGH.pdb
     RDKit          3D

 19 19  0  0  1  0  0  0  0  0999 V2000
   21.3928  -20.4860  -17.3120 N   0  0  0  0  0  0  0  0  0  0  0  0
   21.0830  -19.1240  -17.6675 C   0  0  0  0  0  0  0  0  0  0  0  0
   20.8814  -18.3134  -16.4334 C   0  0  0  0  0  0  0  0  0  0  0  0
   20.2794  -18.8058  -15.4581 O   0  0  0  0  0  0  0  0  0  0  0  0
   21.3896  -16.9952  -16.4175 N   0  0  0  0  0  0  0  0  0  0  0  0
   21.2122  -16.1736  -15.2359 C   0  0  0  0  0  0  0  0  0  0  0  0
   21.9057  -14.8750  -15.4523 C   0  0  0  0  0  0  0  0  0  0  0  0
   21.9915  -14.0152  -14.5311 O   0  0  0  0  0  0  0  0  0  0  0  0
   22.4955  -14.5572  -16.7036 N   0  0  0  0  0  0  0  0  0  0  0  0
   23.2543  -13.3622  -16.9511 C   0  0  1  0  0  0  0  0  0  0  0  0
   24.6532  -13.6339  -17.4219 C   0  0  0  0  0  0  0  0  0  0  0  0
   25.3859  -14.6035  -16.6145 C   0  0  0  0  0  0  0  0  0  0  0  0
   26.1832  -14.3492  -15.5403 C   0  0  0  0  0  0  0  0  0  0  0  0
   26.6602  -15.5143  -15.0950 N   0  0  0  0  0  0  0  0  0  0  0  0
   26.1874  -16.5180  -15.8596 C   0  0  0  0  0  0  0  0  0  0  0  0
   25.4023  -15.9304  -16.7919 N   0  0  0  0  0  0  0  0  0  0  0  0
   22.5296  -12.3938  -17.8156 C   0  0  0  0  0  0  0  0  0  0  0  0
   22.7043  -11.0230  -17.6722 O   0  0  0  0  0  0  0  0  0  0  0  0
   21.7259  -12.7474  -18.7165 O   0  0  0  0  0  0  0  0  0  0  0  0
  2  1  1  0
  3  2  1  0
  4  3  2  0
  5  3  1  0
  6  5  1  0
  7  6  1  0
  7  8  2  0
  9 10  1  0
  9  7  1  0
 11 12  1  0
 10 11  1  6
 12 16  1  0
 13 14  1  0
 13 12  2  0
 14 15  1  0
 15 16  2  0
 17 10  1  0
 17 18  1  0
 19 17  2  0
M  END
$$$$
