GGH.pdb
     RDKit          3D

 19 19  0  0  1  0  0  0  0  0999 V2000
   27.0356  -33.9207   -7.7571 N   0  0  0  0  0  0  0  0  0  0  0  0
   27.9113  -33.6851   -6.6368 C   0  0  0  0  0  0  0  0  0  0  0  0
   28.5162  -34.9714   -6.1895 C   0  0  0  0  0  0  0  0  0  0  0  0
   28.1280  -36.0471   -6.6878 O   0  0  0  0  0  0  0  0  0  0  0  0
   29.5238  -34.9199   -5.2005 N   0  0  0  0  0  0  0  0  0  0  0  0
   30.1179  -36.1519   -4.7187 C   0  0  0  0  0  0  0  0  0  0  0  0
   30.5494  -35.9511   -3.3088 C   0  0  0  0  0  0  0  0  0  0  0  0
   31.1368  -36.8658   -2.6656 O   0  0  0  0  0  0  0  0  0  0  0  0
   30.3154  -34.7229   -2.6372 N   0  0  0  0  0  0  0  0  0  0  0  0
   30.7230  -34.4591   -1.2847 C   0  0  1  0  0  0  0  0  0  0  0  0
   31.5917  -33.2423   -1.1530 C   0  0  0  0  0  0  0  0  0  0  0  0
   32.9281  -33.3885   -1.7200 C   0  0  0  0  0  0  0  0  0  0  0  0
   33.4600  -34.4968   -2.3059 C   0  0  0  0  0  0  0  0  0  0  0  0
   34.7059  -34.2047   -2.6872 N   0  0  0  0  0  0  0  0  0  0  0  0
   34.9914  -32.9292   -2.3598 C   0  0  0  0  0  0  0  0  0  0  0  0
   33.8775  -32.4455   -1.7632 N   0  0  0  0  0  0  0  0  0  0  0  0
   29.5811  -34.4618   -0.3328 C   0  0  0  0  0  0  0  0  0  0  0  0
   29.7784  -34.3233    1.0356 O   0  0  0  0  0  0  0  0  0  0  0  0
   28.3841  -34.5875   -0.6987 O   0  0  0  0  0  0  0  0  0  0  0  0
  2  1  1  0
  3  2  1  0
  4  3  2  0
  5  3  1  0
  6  5  1  0
  7  6  1  0
  7  8  2  0
  9 10  1  0
  9  7  1  0
 11 12  1  0
 10 11  1  6
 12 16  1  0
 13 14  1  0
 13 12  2  0
 14 15  1  0
 15 16  2  0
 17 10  1  0
 17 18  1  0
 19 17  2  0
M  END
$$$$
