GGH.pdb
     RDKit          3D

 19 19  0  0  1  0  0  0  0  0999 V2000
   27.9619  -14.2930  -17.1258 N   0  0  0  0  0  0  0  0  0  0  0  0
   28.2830  -13.0563  -16.4588 C   0  0  0  0  0  0  0  0  0  0  0  0
   29.1198  -12.2043  -17.3503 C   0  0  0  0  0  0  0  0  0  0  0  0
   29.4866  -12.6394  -18.4604 O   0  0  0  0  0  0  0  0  0  0  0  0
   29.4705  -10.9142  -16.8937 N   0  0  0  0  0  0  0  0  0  0  0  0
   30.1997  -10.0181  -17.7701 C   0  0  0  0  0  0  0  0  0  0  0  0
   29.2269   -9.3302  -18.6615 C   0  0  0  0  0  0  0  0  0  0  0  0
   29.5199   -9.0443  -19.8563 O   0  0  0  0  0  0  0  0  0  0  0  0
   27.9340   -8.9710  -18.1989 N   0  0  0  0  0  0  0  0  0  0  0  0
   26.9101   -8.4112  -19.0375 C   0  0  1  0  0  0  0  0  0  0  0  0
   25.5199   -8.7158  -18.5609 C   0  0  0  0  0  0  0  0  0  0  0  0
   24.4603   -8.2600  -19.4543 C   0  0  0  0  0  0  0  0  0  0  0  0
   24.5284   -8.1068  -20.8057 C   0  0  0  0  0  0  0  0  0  0  0  0
   23.3408   -7.6700  -21.2323 N   0  0  0  0  0  0  0  0  0  0  0  0
   22.5050   -7.5372  -20.1838 C   0  0  0  0  0  0  0  0  0  0  0  0
   23.2194   -7.9076  -19.0960 N   0  0  0  0  0  0  0  0  0  0  0  0
   27.1244   -6.9663  -19.3140 C   0  0  0  0  0  0  0  0  0  0  0  0
   27.1261   -6.4696  -20.6116 O   0  0  0  0  0  0  0  0  0  0  0  0
   27.3146   -6.1158  -18.4069 O   0  0  0  0  0  0  0  0  0  0  0  0
  2  1  1  0
  3  2  1  0
  4  3  2  0
  5  3  1  0
  6  5  1  0
  7  6  1  0
  7  8  2  0
  9 10  1  0
  9  7  1  0
 11 12  1  0
 10 11  1  1
 12 16  1  0
 13 14  1  0
 13 12  2  0
 14 15  1  0
 15 16  2  0
 17 10  1  0
 17 18  1  0
 19 17  2  0
M  END
$$$$
