GGH.pdb
     RDKit          3D

 19 19  0  0  1  0  0  0  0  0999 V2000
   40.8851   -9.1191   -5.9982 N   0  0  0  0  0  0  0  0  0  0  0  0
   41.6800   -8.3519   -6.9239 C   0  0  0  0  0  0  0  0  0  0  0  0
   41.2148   -8.6026   -8.3173 C   0  0  0  0  0  0  0  0  0  0  0  0
   40.0441   -8.9812   -8.5227 O   0  0  0  0  0  0  0  0  0  0  0  0
   42.1355   -8.3975   -9.3690 N   0  0  0  0  0  0  0  0  0  0  0  0
   41.7314   -8.6623  -10.7363 C   0  0  0  0  0  0  0  0  0  0  0  0
   40.9966   -7.4757  -11.2523 C   0  0  0  0  0  0  0  0  0  0  0  0
   40.6520   -7.3932  -12.4646 O   0  0  0  0  0  0  0  0  0  0  0  0
   40.6571   -6.3939  -10.3984 N   0  0  0  0  0  0  0  0  0  0  0  0
   39.8122   -5.2993  -10.7896 C   0  0  1  0  0  0  0  0  0  0  0  0
   38.4143   -5.4074  -10.2541 C   0  0  0  0  0  0  0  0  0  0  0  0
   37.6797   -6.5816  -10.7127 C   0  0  0  0  0  0  0  0  0  0  0  0
   37.4700   -7.7425  -10.0324 C   0  0  0  0  0  0  0  0  0  0  0  0
   36.7516   -8.5542  -10.8122 N   0  0  0  0  0  0  0  0  0  0  0  0
   36.4918   -7.9419  -11.9840 C   0  0  0  0  0  0  0  0  0  0  0  0
   37.0755   -6.7242  -11.8990 N   0  0  0  0  0  0  0  0  0  0  0  0
   40.4334   -3.9749  -10.5249 C   0  0  0  0  0  0  0  0  0  0  0  0
   39.8148   -2.7936  -10.9152 O   0  0  0  0  0  0  0  0  0  0  0  0
   41.5396   -3.8412   -9.9409 O   0  0  0  0  0  0  0  0  0  0  0  0
  2  1  1  0
  3  2  1  0
  4  3  2  0
  5  3  1  0
  6  5  1  0
  7  6  1  0
  7  8  2  0
  9 10  1  0
  9  7  1  0
 11 12  1  0
 10 11  1  1
 12 16  1  0
 13 14  1  0
 13 12  2  0
 14 15  1  0
 15 16  2  0
 17 10  1  0
 17 18  1  0
 19 17  2  0
M  END
$$$$
