GGH.pdb
     RDKit          3D

 19 19  0  0  1  0  0  0  0  0999 V2000
   17.7671  -11.8635  -18.5929 N   0  0  0  0  0  0  0  0  0  0  0  0
   18.4523  -11.2621  -17.4765 C   0  0  0  0  0  0  0  0  0  0  0  0
   18.1293   -9.8088  -17.4093 C   0  0  0  0  0  0  0  0  0  0  0  0
   17.0158   -9.4388  -16.9860 O   0  0  0  0  0  0  0  0  0  0  0  0
   19.1157   -8.8917  -17.8355 N   0  0  0  0  0  0  0  0  0  0  0  0
   18.8266   -7.4707  -17.8206 C   0  0  0  0  0  0  0  0  0  0  0  0
   19.1565   -6.9333  -16.4729 C   0  0  0  0  0  0  0  0  0  0  0  0
   18.3541   -7.0513  -15.5047 O   0  0  0  0  0  0  0  0  0  0  0  0
   20.3865   -6.2683  -16.2286 N   0  0  0  0  0  0  0  0  0  0  0  0
   20.8129   -5.8242  -14.9301 C   0  0  1  0  0  0  0  0  0  0  0  0
   20.8426   -6.9222  -13.9073 C   0  0  0  0  0  0  0  0  0  0  0  0
   21.7998   -7.9865  -14.1896 C   0  0  0  0  0  0  0  0  0  0  0  0
   22.6434   -8.0776  -15.2547 C   0  0  0  0  0  0  0  0  0  0  0  0
   23.3467   -9.2057  -15.1292 N   0  0  0  0  0  0  0  0  0  0  0  0
   22.9753   -9.8470  -14.0039 C   0  0  0  0  0  0  0  0  0  0  0  0
   22.0182   -9.0743  -13.4402 N   0  0  0  0  0  0  0  0  0  0  0  0
   22.0773   -5.0439  -14.9797 C   0  0  0  0  0  0  0  0  0  0  0  0
   22.5723   -4.3946  -13.8555 O   0  0  0  0  0  0  0  0  0  0  0  0
   22.7678   -4.9235  -16.0243 O   0  0  0  0  0  0  0  0  0  0  0  0
  2  1  1  0
  3  2  1  0
  4  3  2  0
  5  3  1  0
  6  5  1  0
  7  6  1  0
  7  8  2  0
  9 10  1  0
  9  7  1  0
 11 12  1  0
 10 11  1  1
 12 16  1  0
 13 14  1  0
 13 12  2  0
 14 15  1  0
 15 16  2  0
 17 10  1  0
 17 18  1  0
 19 17  2  0
M  END
$$$$
