GGH.pdb
     RDKit          3D

 19 19  0  0  1  0  0  0  0  0999 V2000
   20.2281  -14.5279  -16.8833 N   0  0  0  0  0  0  0  0  0  0  0  0
   21.2501  -13.9440  -17.7150 C   0  0  0  0  0  0  0  0  0  0  0  0
   20.6673  -12.8433  -18.5333 C   0  0  0  0  0  0  0  0  0  0  0  0
   19.8690  -13.1094  -19.4541 O   0  0  0  0  0  0  0  0  0  0  0  0
   21.0496  -11.5180  -18.2275 N   0  0  0  0  0  0  0  0  0  0  0  0
   20.3964  -10.4112  -18.8991 C   0  0  0  0  0  0  0  0  0  0  0  0
   20.1626   -9.3260  -17.9083 C   0  0  0  0  0  0  0  0  0  0  0  0
   19.6022   -8.2438  -18.2401 O   0  0  0  0  0  0  0  0  0  0  0  0
   20.5621   -9.4698  -16.5539 N   0  0  0  0  0  0  0  0  0  0  0  0
   20.2231   -8.5364  -15.5153 C   0  0  1  0  0  0  0  0  0  0  0  0
   19.4419   -9.1548  -14.3930 C   0  0  0  0  0  0  0  0  0  0  0  0
   18.1221   -9.6468  -14.7734 C   0  0  0  0  0  0  0  0  0  0  0  0
   17.5391   -9.5818  -16.0024 C   0  0  0  0  0  0  0  0  0  0  0  0
   16.3321  -10.1466  -15.9174 N   0  0  0  0  0  0  0  0  0  0  0  0
   16.1219  -10.5761  -14.6576 C   0  0  0  0  0  0  0  0  0  0  0  0
   17.2419  -10.2560  -13.9693 N   0  0  0  0  0  0  0  0  0  0  0  0
   21.3969   -7.7556  -15.0432 C   0  0  0  0  0  0  0  0  0  0  0  0
   21.2760   -6.7999  -14.0420 O   0  0  0  0  0  0  0  0  0  0  0  0
   22.5545   -7.9076  -15.5116 O   0  0  0  0  0  0  0  0  0  0  0  0
  2  1  1  0
  3  2  1  0
  4  3  2  0
  5  3  1  0
  6  5  1  0
  7  6  1  0
  7  8  2  0
  9 10  1  0
  9  7  1  0
 11 12  1  0
 10 11  1  1
 12 16  1  0
 13 14  1  0
 13 12  2  0
 14 15  1  0
 15 16  2  0
 17 10  1  0
 17 18  1  0
 19 17  2  0
M  END
$$$$
