GGH.pdb
     RDKit          3D

 19 19  0  0  1  0  0  0  0  0999 V2000
   28.6879  -19.1464  -18.7429 N   0  0  0  0  0  0  0  0  0  0  0  0
   27.4283  -19.4037  -18.0914 C   0  0  0  0  0  0  0  0  0  0  0  0
   27.5861  -20.5104  -17.1061 C   0  0  0  0  0  0  0  0  0  0  0  0
   28.6483  -21.1636  -17.0702 O   0  0  0  0  0  0  0  0  0  0  0  0
   26.5063  -20.7804  -16.2360 N   0  0  0  0  0  0  0  0  0  0  0  0
   26.6380  -21.8182  -15.2318 C   0  0  0  0  0  0  0  0  0  0  0  0
   25.3995  -21.8408  -14.4072 C   0  0  0  0  0  0  0  0  0  0  0  0
   25.2068  -22.7354  -13.5367 O   0  0  0  0  0  0  0  0  0  0  0  0
   24.3905  -20.8560  -14.5709 N   0  0  0  0  0  0  0  0  0  0  0  0
   23.2062  -20.7803  -13.7605 C   0  0  1  0  0  0  0  0  0  0  0  0
   23.3171  -19.7900  -12.6382 C   0  0  0  0  0  0  0  0  0  0  0  0
   24.2141  -20.1942  -11.5608 C   0  0  0  0  0  0  0  0  0  0  0  0
   25.5697  -20.0699  -11.5243 C   0  0  0  0  0  0  0  0  0  0  0  0
   25.9985  -20.5635  -10.3600 N   0  0  0  0  0  0  0  0  0  0  0  0
   24.9474  -21.0049   -9.6417 C   0  0  0  0  0  0  0  0  0  0  0  0
   23.8557  -20.7660  -10.4045 N   0  0  0  0  0  0  0  0  0  0  0  0
   21.9709  -20.6043  -14.5688 C   0  0  0  0  0  0  0  0  0  0  0  0
   20.7114  -20.8180  -14.0226 O   0  0  0  0  0  0  0  0  0  0  0  0
   21.9866  -20.2569  -15.7777 O   0  0  0  0  0  0  0  0  0  0  0  0
  2  1  1  0
  3  2  1  0
  4  3  2  0
  5  3  1  0
  6  5  1  0
  7  6  1  0
  7  8  2  0
  9 10  1  0
  9  7  1  0
 11 12  1  0
 10 11  1  1
 12 16  1  0
 13 14  1  0
 13 12  2  0
 14 15  1  0
 15 16  2  0
 17 10  1  0
 17 18  1  0
 19 17  2  0
M  END
$$$$
