WRS.pdb
     RDKit          3D

 32 33  0  0  1  0  0  0  0  0999 V2000
   15.3467  -15.1866    5.0545 N   0  0  0  0  0  0  0  0  0  0  0  0
   16.2746  -16.0462    4.3440 C   0  0  1  0  0  0  0  0  0  0  0  0
   17.6012  -15.8929    5.0253 C   0  0  0  0  0  0  0  0  0  0  0  0
   18.2448  -14.6563    4.5052 C   0  0  0  0  0  0  0  0  0  0  0  0
   18.2051  -13.3780    5.0468 C   0  0  0  0  0  0  0  0  0  0  0  0
   18.9253  -12.6013    4.2292 N   0  0  0  0  0  0  0  0  0  0  0  0
   19.4169  -13.3138    3.2047 C   0  0  0  0  0  0  0  0  0  0  0  0
   20.2102  -13.0064    2.1030 C   0  0  0  0  0  0  0  0  0  0  0  0
   20.5707  -13.9579    1.1948 C   0  0  0  0  0  0  0  0  0  0  0  0
   20.1539  -15.2732    1.3426 C   0  0  0  0  0  0  0  0  0  0  0  0
   19.3726  -15.5909    2.4218 C   0  0  0  0  0  0  0  0  0  0  0  0
   18.9991  -14.6415    3.3491 C   0  0  0  0  0  0  0  0  0  0  0  0
   15.7477  -17.4192    4.3612 C   0  0  0  0  0  0  0  0  0  0  0  0
   15.3870  -17.8940    5.4657 O   0  0  0  0  0  0  0  0  0  0  0  0
   15.3521  -24.0351   -1.8007 N   0  0  0  0  0  0  0  0  0  0  0  0
   15.3951  -24.6662   -0.5054 C   0  0  0  0  0  0  0  0  0  0  0  0
   15.4520  -25.9476   -0.4576 N   0  0  0  0  0  0  0  0  0  0  0  0
   15.3756  -23.8981    0.6872 N   0  0  0  0  0  0  0  0  0  0  0  0
   15.4603  -22.4541    0.6065 C   0  0  0  0  0  0  0  0  0  0  0  0
   15.5157  -21.8461    2.0096 C   0  0  0  0  0  0  0  0  0  0  0  0
   15.5118  -20.3717    2.0032 C   0  0  0  0  0  0  0  0  0  0  0  0
   15.6478  -19.6860    3.3324 C   0  0  2  0  0  0  0  0  0  0  0  0
   15.6138  -18.2475    3.2319 N   0  0  0  0  0  0  0  0  0  0  0  0
   16.9097  -20.1529    3.9804 C   0  0  0  0  0  0  0  0  0  0  0  0
   18.0170  -19.7262    3.6337 O   0  0  0  0  0  0  0  0  0  0  0  0
   15.4653  -26.4828    0.4312 O   0  0  0  0  0  0  0  0  0  0  0  0
   16.8449  -21.7110    7.7514 C   0  0  0  0  0  0  0  0  0  0  0  0
   18.0200  -21.2521    7.1520 C   0  0  1  0  0  0  0  0  0  0  0  0
   17.9566  -21.6735    5.7028 N   0  0  0  0  0  0  0  0  0  0  0  0
   16.8231  -21.1002    5.0077 C   0  0  0  0  0  0  0  0  0  0  0  0
   18.0309  -23.1350    5.5360 O   0  0  0  0  0  0  0  0  0  0  0  0
   17.1209  -23.7756    4.9661 O   0  0  0  0  0  0  0  0  0  0  0  0
  2  1  1  1
  2  3  1  0
  4  5  2  0
  4  3  1  0
  6  5  1  0
  7 12  2  0
  7  6  1  0
  8  7  1  0
  9 10  1  0
  9  8  2  0
 10 11  2  0
 11 12  1  0
 12  4  1  0
 13  2  1  0
 13 14  2  0
 16 17  2  0
 16 15  1  0
 18 16  1  0
 19 18  1  0
 20 21  1  0
 20 19  1  0
 22 21  1  6
 22 23  1  0
 23 13  1  0
 24 22  1  0
 25 24  2  0
 26 27  1  0
 28 27  1  6
 28 29  1  0
 28 30  1  0
 29 24  1  0
 30 32  1  0
 31 30  2  0
M  END
$$$$
