WRS.pdb
     RDKit          3D

 32 33  0  0  1  0  0  0  0  0999 V2000
   26.5871  -19.3026  -11.0283 N   0  0  0  0  0  0  0  0  0  0  0  0
   26.4956  -20.7437  -11.1683 C   0  0  1  0  0  0  0  0  0  0  0  0
   25.9884  -21.2657   -9.8576 C   0  0  0  0  0  0  0  0  0  0  0  0
   26.8713  -20.7407   -8.7812 C   0  0  0  0  0  0  0  0  0  0  0  0
   26.5096  -20.0049   -7.6601 C   0  0  0  0  0  0  0  0  0  0  0  0
   27.6417  -19.7598   -6.9905 N   0  0  0  0  0  0  0  0  0  0  0  0
   28.6956  -20.2973   -7.6223 C   0  0  0  0  0  0  0  0  0  0  0  0
   30.0626  -20.3395   -7.3633 C   0  0  0  0  0  0  0  0  0  0  0  0
   30.9289  -20.9782   -8.2010 C   0  0  0  0  0  0  0  0  0  0  0  0
   30.4698  -21.6112   -9.3474 C   0  0  0  0  0  0  0  0  0  0  0  0
   29.1270  -21.5781   -9.6157 C   0  0  0  0  0  0  0  0  0  0  0  0
   28.2378  -20.9370   -8.7797 C   0  0  0  0  0  0  0  0  0  0  0  0
   25.6229  -21.0484  -12.3122 C   0  0  0  0  0  0  0  0  0  0  0  0
   24.5324  -20.4327  -12.3970 O   0  0  0  0  0  0  0  0  0  0  0  0
   28.1286  -25.9288  -16.7011 N   0  0  0  0  0  0  0  0  0  0  0  0
   26.9157  -25.5363  -17.3740 C   0  0  0  0  0  0  0  0  0  0  0  0
   26.0801  -26.4542  -17.7008 N   0  0  0  0  0  0  0  0  0  0  0  0
   26.6469  -24.1750  -17.6695 N   0  0  0  0  0  0  0  0  0  0  0  0
   27.5765  -23.1537  -17.2323 C   0  0  0  0  0  0  0  0  0  0  0  0
   26.9873  -22.3660  -16.0601 C   0  0  0  0  0  0  0  0  0  0  0  0
   25.6967  -22.9030  -15.5911 C   0  0  0  0  0  0  0  0  0  0  0  0
   25.0354  -22.1836  -14.4507 C   0  0  2  0  0  0  0  0  0  0  0  0
   25.9148  -21.9795  -13.3257 N   0  0  0  0  0  0  0  0  0  0  0  0
   23.8154  -22.9470  -14.0516 C   0  0  0  0  0  0  0  0  0  0  0  0
   23.8499  -24.1635  -13.8342 O   0  0  0  0  0  0  0  0  0  0  0  0
   25.2115  -26.2671  -18.2365 O   0  0  0  0  0  0  0  0  0  0  0  0
   20.2532  -20.8041  -13.7273 C   0  0  0  0  0  0  0  0  0  0  0  0
   20.4427  -21.8505  -12.8218 C   0  0  1  0  0  0  0  0  0  0  0  0
   21.3537  -22.8465  -13.5000 N   0  0  0  0  0  0  0  0  0  0  0  0
   22.6054  -22.2545  -13.9234 C   0  0  0  0  0  0  0  0  0  0  0  0
   20.6833  -23.5721  -14.5925 O   0  0  0  0  0  0  0  0  0  0  0  0
   21.0711  -23.4746  -15.7772 O   0  0  0  0  0  0  0  0  0  0  0  0
  2  1  1  1
  2  3  1  0
  4  5  2  0
  4  3  1  0
  6  5  1  0
  7 12  2  0
  7  6  1  0
  8  7  1  0
  9 10  1  0
  9  8  2  0
 10 11  2  0
 11 12  1  0
 12  4  1  0
 13  2  1  0
 13 14  2  0
 16 17  2  0
 16 15  1  0
 18 16  1  0
 19 18  1  0
 20 21  1  0
 20 19  1  0
 22 21  1  6
 22 23  1  0
 23 13  1  0
 24 22  1  0
 25 24  2  0
 26 27  1  0
 28 27  1  1
 28 29  1  0
 28 30  1  0
 29 24  1  0
 30 32  1  0
 31 30  2  0
M  END
$$$$
