WRS.pdb
     RDKit          3D

 32 33  0  0  1  0  0  0  0  0999 V2000
   25.4618  -19.1250  -17.8254 N   0  0  0  0  0  0  0  0  0  0  0  0
   25.3170  -18.4787  -16.5347 C   0  0  1  0  0  0  0  0  0  0  0  0
   24.3323  -17.3645  -16.7264 C   0  0  0  0  0  0  0  0  0  0  0  0
   25.0463  -16.2246  -17.3625 C   0  0  0  0  0  0  0  0  0  0  0  0
   24.8950  -15.7323  -18.6524 C   0  0  0  0  0  0  0  0  0  0  0  0
   25.7489  -14.7084  -18.7661 N   0  0  0  0  0  0  0  0  0  0  0  0
   26.4293  -14.5258  -17.6249 C   0  0  0  0  0  0  0  0  0  0  0  0
   27.4086  -13.6259  -17.2141 C   0  0  0  0  0  0  0  0  0  0  0  0
   27.9374  -13.6703  -15.9576 C   0  0  0  0  0  0  0  0  0  0  0  0
   27.5115  -14.6224  -15.0424 C   0  0  0  0  0  0  0  0  0  0  0  0
   26.5484  -15.5149  -15.4322 C   0  0  0  0  0  0  0  0  0  0  0  0
   26.0034  -15.4840  -16.6982 C   0  0  0  0  0  0  0  0  0  0  0  0
   24.8957  -19.4873  -15.5507 C   0  0  0  0  0  0  0  0  0  0  0  0
   24.2517  -20.4801  -15.9692 O   0  0  0  0  0  0  0  0  0  0  0  0
   30.2074  -22.7268  -10.7384 N   0  0  0  0  0  0  0  0  0  0  0  0
   29.4012  -21.8903   -9.8850 C   0  0  0  0  0  0  0  0  0  0  0  0
   29.6663  -21.8724   -8.6292 N   0  0  0  0  0  0  0  0  0  0  0  0
   28.3429  -21.1062  -10.4121 N   0  0  0  0  0  0  0  0  0  0  0  0
   28.0565  -21.1571  -11.8313 C   0  0  0  0  0  0  0  0  0  0  0  0
   27.0020  -20.1106  -12.1981 C   0  0  0  0  0  0  0  0  0  0  0  0
   25.6205  -20.6086  -12.0658 C   0  0  0  0  0  0  0  0  0  0  0  0
   24.7294  -20.4675  -13.2663 C   0  0  2  0  0  0  0  0  0  0  0  0
   25.1594  -19.4288  -14.1700 N   0  0  0  0  0  0  0  0  0  0  0  0
   23.3323  -20.2296  -12.7950 C   0  0  0  0  0  0  0  0  0  0  0  0
   22.9596  -19.1213  -12.3937 O   0  0  0  0  0  0  0  0  0  0  0  0
   29.1305  -21.3072   -7.9436 O   0  0  0  0  0  0  0  0  0  0  0  0
   19.3372  -20.3232  -14.4607 C   0  0  0  0  0  0  0  0  0  0  0  0
   20.7270  -20.3885  -14.3385 C   0  0  2  0  0  0  0  0  0  0  0  0
   21.0118  -21.1815  -13.0848 N   0  0  0  0  0  0  0  0  0  0  0  0
   22.4292  -21.2993  -12.8131 C   0  0  0  0  0  0  0  0  0  0  0  0
   20.3330  -22.4886  -13.0770 O   0  0  0  0  0  0  0  0  0  0  0  0
   19.1925  -22.6306  -12.5845 O   0  0  0  0  0  0  0  0  0  0  0  0
  2  1  1  6
  2  3  1  0
  4  5  2  0
  4  3  1  0
  6  5  1  0
  7 12  2  0
  7  6  1  0
  8  7  1  0
  9 10  1  0
  9  8  2  0
 10 11  2  0
 11 12  1  0
 12  4  1  0
 13  2  1  0
 13 14  2  0
 16 17  2  0
 16 15  1  0
 18 16  1  0
 19 18  1  0
 20 21  1  0
 20 19  1  0
 22 21  1  1
 22 23  1  0
 23 13  1  0
 24 22  1  0
 25 24  2  0
 26 27  1  0
 28 27  1  1
 28 29  1  0
 28 30  1  0
 29 24  1  0
 30 32  1  0
 31 30  2  0
M  END
$$$$
