WRS.pdb
     RDKit          3D

 32 33  0  0  1  0  0  0  0  0999 V2000
   27.8423  -22.2433  -10.4074 N   0  0  0  0  0  0  0  0  0  0  0  0
   26.9426  -21.1291  -10.1755 C   0  0  1  0  0  0  0  0  0  0  0  0
   27.8011  -19.9039  -10.0788 C   0  0  0  0  0  0  0  0  0  0  0  0
   28.6603  -20.0388   -8.8715 C   0  0  0  0  0  0  0  0  0  0  0  0
   30.0013  -20.3951   -8.8107 C   0  0  0  0  0  0  0  0  0  0  0  0
   30.3341  -20.3851   -7.5148 N   0  0  0  0  0  0  0  0  0  0  0  0
   29.2830  -20.0436   -6.7550 C   0  0  0  0  0  0  0  0  0  0  0  0
   29.0881  -19.8833   -5.3861 C   0  0  0  0  0  0  0  0  0  0  0  0
   27.8782  -19.5157   -4.8751 C   0  0  0  0  0  0  0  0  0  0  0  0
   26.7947  -19.2883   -5.7118 C   0  0  0  0  0  0  0  0  0  0  0  0
   26.9711  -19.4422   -7.0614 C   0  0  0  0  0  0  0  0  0  0  0  0
   28.1872  -19.8132   -7.5944 C   0  0  0  0  0  0  0  0  0  0  0  0
   25.9590  -21.0864  -11.2680 C   0  0  0  0  0  0  0  0  0  0  0  0
   26.3918  -20.9806  -12.4415 O   0  0  0  0  0  0  0  0  0  0  0  0
   24.1542  -25.4800  -14.1063 N   0  0  0  0  0  0  0  0  0  0  0  0
   22.7826  -25.7322  -14.4708 C   0  0  0  0  0  0  0  0  0  0  0  0
   22.5498  -26.5918  -15.3952 N   0  0  0  0  0  0  0  0  0  0  0  0
   21.7150  -25.0527  -13.8295 N   0  0  0  0  0  0  0  0  0  0  0  0
   21.9891  -24.2267  -12.6714 C   0  0  0  0  0  0  0  0  0  0  0  0
   21.8972  -22.7449  -13.0422 C   0  0  0  0  0  0  0  0  0  0  0  0
   22.3740  -21.8489  -11.9727 C   0  0  0  0  0  0  0  0  0  0  0  0
   23.6589  -21.1134  -12.2248 C   0  0  2  0  0  0  0  0  0  0  0  0
   24.5637  -21.1561  -11.1023 N   0  0  0  0  0  0  0  0  0  0  0  0
   23.3335  -19.7059  -12.6035 C   0  0  0  0  0  0  0  0  0  0  0  0
   23.6009  -18.7531  -11.8626 O   0  0  0  0  0  0  0  0  0  0  0  0
   21.5931  -26.8524  -15.7006 O   0  0  0  0  0  0  0  0  0  0  0  0
   24.7180  -18.2614  -16.3791 C   0  0  0  0  0  0  0  0  0  0  0  0
   24.5447  -18.3158  -14.9943 C   0  0  1  0  0  0  0  0  0  0  0  0
   23.0567  -18.4059  -14.7502 N   0  0  0  0  0  0  0  0  0  0  0  0
   22.7085  -19.4721  -13.8344 C   0  0  0  0  0  0  0  0  0  0  0  0
   22.2823  -18.4715  -16.0013 O   0  0  0  0  0  0  0  0  0  0  0  0
   21.5832  -19.4682  -16.2865 O   0  0  0  0  0  0  0  0  0  0  0  0
  2  1  1  6
  2  3  1  0
  4  5  2  0
  4  3  1  0
  6  5  1  0
  7 12  2  0
  7  6  1  0
  8  7  1  0
  9 10  1  0
  9  8  2  0
 10 11  2  0
 11 12  1  0
 12  4  1  0
 13  2  1  0
 13 14  2  0
 16 17  2  0
 16 15  1  0
 18 16  1  0
 19 18  1  0
 20 21  1  0
 20 19  1  0
 22 21  1  1
 22 23  1  0
 23 13  1  0
 24 22  1  0
 25 24  2  0
 26 27  1  0
 28 27  1  1
 28 29  1  0
 28 30  1  0
 29 24  1  0
 30 32  1  0
 31 30  2  0
M  END
$$$$
