WRS.pdb
     RDKit          3D

 32 33  0  0  1  0  0  0  0  0999 V2000
   28.6214  -21.5702  -10.6983 N   0  0  0  0  0  0  0  0  0  0  0  0
   27.3913  -21.1064  -10.0848 C   0  0  1  0  0  0  0  0  0  0  0  0
   27.7343  -19.8483   -9.3452 C   0  0  0  0  0  0  0  0  0  0  0  0
   28.6243  -20.2110   -8.2093 C   0  0  0  0  0  0  0  0  0  0  0  0
   29.8160  -20.9233   -8.2492 C   0  0  0  0  0  0  0  0  0  0  0  0
   30.2493  -21.0012   -6.9857 N   0  0  0  0  0  0  0  0  0  0  0  0
   29.4021  -20.3804   -6.1516 C   0  0  0  0  0  0  0  0  0  0  0  0
   29.3777  -20.1681   -4.7762 C   0  0  0  0  0  0  0  0  0  0  0  0
   28.3640  -19.4792   -4.1778 C   0  0  0  0  0  0  0  0  0  0  0  0
   27.3166  -18.9645   -4.9286 C   0  0  0  0  0  0  0  0  0  0  0  0
   27.3267  -19.1655   -6.2834 C   0  0  0  0  0  0  0  0  0  0  0  0
   28.3435  -19.8594   -6.9042 C   0  0  0  0  0  0  0  0  0  0  0  0
   26.3819  -20.9251  -11.1389 C   0  0  0  0  0  0  0  0  0  0  0  0
   26.5942  -20.0439  -12.0073 O   0  0  0  0  0  0  0  0  0  0  0  0
   23.4412  -26.2858  -14.2480 N   0  0  0  0  0  0  0  0  0  0  0  0
   23.5747  -25.6399  -15.5297 C   0  0  0  0  0  0  0  0  0  0  0  0
   22.7530  -25.9654  -16.4606 N   0  0  0  0  0  0  0  0  0  0  0  0
   24.5840  -24.6703  -15.7624 N   0  0  0  0  0  0  0  0  0  0  0  0
   25.3456  -24.1518  -14.6445 C   0  0  0  0  0  0  0  0  0  0  0  0
   24.9429  -22.7046  -14.3532 C   0  0  0  0  0  0  0  0  0  0  0  0
   24.0204  -22.5783  -13.2099 C   0  0  0  0  0  0  0  0  0  0  0  0
   24.2281  -21.4054  -12.2953 C   0  0  2  0  0  0  0  0  0  0  0  0
   25.1910  -21.6652  -11.2533 N   0  0  0  0  0  0  0  0  0  0  0  0
   22.9064  -21.0095  -11.7236 C   0  0  0  0  0  0  0  0  0  0  0  0
   22.5029  -21.4569  -10.6441 O   0  0  0  0  0  0  0  0  0  0  0  0
   22.8056  -25.5836  -17.4238 O   0  0  0  0  0  0  0  0  0  0  0  0
   20.7385  -18.2296  -13.8824 C   0  0  0  0  0  0  0  0  0  0  0  0
   20.5821  -18.1797  -12.4953 C   0  0  1  0  0  0  0  0  0  0  0  0
   20.8441  -19.5761  -11.9824 N   0  0  0  0  0  0  0  0  0  0  0  0
   22.1118  -20.1061  -12.4395 C   0  0  0  0  0  0  0  0  0  0  0  0
   19.7261  -20.4960  -12.2528 O   0  0  0  0  0  0  0  0  0  0  0  0
   19.8575  -21.4795  -13.0137 O   0  0  0  0  0  0  0  0  0  0  0  0
  2  1  1  6
  2  3  1  0
  4  5  2  0
  4  3  1  0
  6  5  1  0
  7 12  2  0
  7  6  1  0
  8  7  1  0
  9 10  1  0
  9  8  2  0
 10 11  2  0
 11 12  1  0
 12  4  1  0
 13  2  1  0
 13 14  2  0
 16 17  2  0
 16 15  1  0
 18 16  1  0
 19 18  1  0
 20 21  1  0
 20 19  1  0
 22 21  1  1
 22 23  1  0
 23 13  1  0
 24 22  1  0
 25 24  2  0
 26 27  1  0
 28 27  1  1
 28 29  1  0
 28 30  1  0
 29 24  1  0
 30 32  1  0
 31 30  2  0
M  END
$$$$
