WRS.pdb
     RDKit          3D

 32 33  0  0  1  0  0  0  0  0999 V2000
   23.7406  -19.1987  -17.8433 N   0  0  0  0  0  0  0  0  0  0  0  0
   22.5392  -18.6247  -17.2672 C   0  0  1  0  0  0  0  0  0  0  0  0
   21.5634  -18.4641  -18.3940 C   0  0  0  0  0  0  0  0  0  0  0  0
   21.9396  -17.2436  -19.1573 C   0  0  0  0  0  0  0  0  0  0  0  0
   22.8281  -17.1383  -20.2197 C   0  0  0  0  0  0  0  0  0  0  0  0
   22.8405  -15.8476  -20.5723 N   0  0  0  0  0  0  0  0  0  0  0  0
   22.0128  -15.1330  -19.7957 C   0  0  0  0  0  0  0  0  0  0  0  0
   21.6576  -13.7883  -19.7382 C   0  0  0  0  0  0  0  0  0  0  0  0
   20.7618  -13.3250  -18.8201 C   0  0  0  0  0  0  0  0  0  0  0  0
   20.1718  -14.1876  -17.9071 C   0  0  0  0  0  0  0  0  0  0  0  0
   20.5116  -15.5137  -17.9514 C   0  0  0  0  0  0  0  0  0  0  0  0
   21.4152  -15.9986  -18.8728 C   0  0  0  0  0  0  0  0  0  0  0  0
   22.0690  -19.5077  -16.1892 C   0  0  0  0  0  0  0  0  0  0  0  0
   22.3280  -20.7324  -16.2808 O   0  0  0  0  0  0  0  0  0  0  0  0
   21.7008  -21.8493   -8.2366 N   0  0  0  0  0  0  0  0  0  0  0  0
   22.7057  -21.1062   -8.9549 C   0  0  0  0  0  0  0  0  0  0  0  0
   23.9358  -21.4309   -8.7852 N   0  0  0  0  0  0  0  0  0  0  0  0
   22.3515  -20.0446   -9.8268 N   0  0  0  0  0  0  0  0  0  0  0  0
   20.9590  -19.8374  -10.1685 C   0  0  0  0  0  0  0  0  0  0  0  0
   20.6627  -20.4068  -11.5576 C   0  0  0  0  0  0  0  0  0  0  0  0
   21.0758  -19.5095  -12.6523 C   0  0  0  0  0  0  0  0  0  0  0  0
   20.8918  -20.0176  -14.0535 C   0  0  2  0  0  0  0  0  0  0  0  0
   21.3487  -19.0869  -15.0563 N   0  0  0  0  0  0  0  0  0  0  0  0
   19.4511  -20.3588  -14.2491 C   0  0  0  0  0  0  0  0  0  0  0  0
   18.5507  -19.5447  -14.0147 O   0  0  0  0  0  0  0  0  0  0  0  0
   24.7235  -20.9274   -9.2353 O   0  0  0  0  0  0  0  0  0  0  0  0
   16.4654  -24.1168  -14.6959 C   0  0  0  0  0  0  0  0  0  0  0  0
   17.7833  -23.6926  -14.5116 C   0  0  2  0  0  0  0  0  0  0  0  0
   17.7881  -22.1975  -14.7269 N   0  0  0  0  0  0  0  0  0  0  0  0
   19.1240  -21.6393  -14.7114 C   0  0  0  0  0  0  0  0  0  0  0  0
   16.8791  -21.4918  -13.8075 O   0  0  0  0  0  0  0  0  0  0  0  0
   15.7824  -21.0334  -14.1956 O   0  0  0  0  0  0  0  0  0  0  0  0
  2  1  1  6
  2  3  1  0
  4  5  2  0
  4  3  1  0
  6  5  1  0
  7 12  2  0
  7  6  1  0
  8  7  1  0
  9 10  1  0
  9  8  2  0
 10 11  2  0
 11 12  1  0
 12  4  1  0
 13  2  1  0
 13 14  2  0
 16 17  2  0
 16 15  1  0
 18 16  1  0
 19 18  1  0
 20 21  1  0
 20 19  1  0
 22 21  1  1
 22 23  1  0
 23 13  1  0
 24 22  1  0
 25 24  2  0
 26 27  1  0
 28 27  1  6
 28 29  1  0
 28 30  1  0
 29 24  1  0
 30 32  1  0
 31 30  2  0
M  END
$$$$
